
  -OEChem-04042320463D

 83 92  0     1  0  0  0  0  0999 V2000
  -27.7835  -34.3877   25.3963 C   0  0  0  0  0  0  0  0  0  0  0  0
  -28.2895  -33.1112   25.1729 C   0  0  0  0  0  0  0  0  0  0  0  0
  -23.1635   -9.7587   19.9028 C   0  0  0  0  0  0  0  0  0  0  0  0
  -23.9238   -9.7619   22.1961 C   0  0  0  0  0  0  0  0  0  0  0  0
  -26.4688  -34.6871   25.0416 C   0  0  0  0  0  0  0  0  0  0  0  0
  -27.4806  -32.1329   24.5957 C   0  0  0  0  0  0  0  0  0  0  0  0
  -29.2410  -27.6891   20.7669 C   0  0  0  0  0  0  0  0  0  0  0  0
  -30.9603  -19.3345   20.6999 C   0  0  0  0  0  0  0  0  0  0  0  0
  -30.8396  -17.9450   20.6928 C   0  0  0  0  0  0  0  0  0  0  0  0
  -22.4795   -8.5648   20.1312 C   0  0  0  0  0  0  0  0  0  0  0  0
  -23.2397   -8.5680   22.4245 C   0  0  0  0  0  0  0  0  0  0  0  0
  -29.5418  -26.3426   20.9677 C   0  0  0  0  0  0  0  0  0  0  0  0
  -20.0567   -7.5959   23.0115 C   0  0  0  0  0  0  0  0  0  0  0  0
  -19.3037   -7.4959   24.1813 C   0  0  0  0  0  0  0  0  0  0  0  0
  -27.2917  -25.7511   20.3300 C   0  0  0  0  0  0  0  0  0  0  0  0
  -29.3276  -19.4674   22.4758 C   0  0  0  0  0  0  0  0  0  0  0  0
  -20.6426   -5.6108   24.8820 C   0  0  0  0  0  0  0  0  0  0  0  0
  -23.8857  -10.3573   20.9353 C   0  0  0  0  0  0  0  0  0  0  0  0
  -24.0986  -12.8983   20.8621 C   0  0  0  0  0  0  0  0  0  0  0  0
  -25.6464  -33.7148   24.4508 C   0  0  0  0  0  0  0  0  0  0  0  0
  -27.9579  -28.0782   20.3560 C   0  0  0  0  0  0  0  0  0  0  0  0
  -26.1533  -32.4192   24.2339 C   0  0  0  0  0  0  0  0  0  0  0  0
  -26.9779  -27.1029   20.1223 C   0  0  0  0  0  0  0  0  0  0  0  0
  -30.2044  -20.0958   21.5915 C   0  0  0  0  0  0  0  0  0  0  0  0
  -29.9628  -17.3166   21.5772 C   0  0  0  0  0  0  0  0  0  0  0  0
  -22.5175   -7.9694   21.3921 C   0  0  0  0  0  0  0  0  0  0  0  0
  -28.5663  -25.3736   20.7520 C   0  0  0  0  0  0  0  0  0  0  0  0
  -21.1027   -6.7034   22.7769 C   0  0  0  0  0  0  0  0  0  0  0  0
  -19.5966   -6.5033   25.1166 C   0  0  0  0  0  0  0  0  0  0  0  0
  -21.3956   -5.7108   23.7121 C   0  0  0  0  0  0  0  0  0  0  0  0
  -29.2068  -18.0778   22.4687 C   0  0  0  0  0  0  0  0  0  0  0  0
  -24.5930  -11.5903   20.6998 C   0  0  0  0  0  0  0  0  0  0  0  0
  -25.1509  -13.7090   20.5130 C   0  0  0  0  0  0  0  0  0  0  0  0
  -22.8038  -13.3410   21.2903 C   0  0  0  0  0  0  0  0  0  0  0  0
  -25.6500  -29.8715   21.6055 C   0  0  0  0  0  0  0  0  0  0  0  0
  -24.2448  -29.3833   18.7229 C   0  0  0  0  0  0  0  0  0  0  0  0
  -23.9586  -27.4417   15.9310 C   0  0  0  0  0  0  0  0  0  0  0  0
  -30.5570  -15.0279   20.7082 C   0  0  0  0  0  0  0  0  0  0  0  0
  -24.2171  -34.0718   24.1277 C   0  0  0  0  0  0  0  0  0  0  0  0
  -27.6572  -29.5326   20.1181 C   0  0  0  0  0  0  0  0  0  0  0  0
  -25.5911  -27.4669   19.6611 C   0  0  0  0  0  0  0  0  0  0  0  0
  -23.5430  -33.0858   23.1772 C   0  0  0  0  0  0  0  0  0  0  0  0
  -29.5650  -12.6048   18.2953 C   0  0  0  0  0  0  0  0  0  0  0  0
  -23.8136  -31.6505   23.6168 C   0  0  0  0  0  0  0  0  0  0  0  0
  -28.1424  -12.2325   18.7192 C   0  0  0  0  0  0  0  0  0  0  0  0
  -31.2101  -23.6309   21.2895 C   0  0  0  0  0  0  0  0  0  0  0  0
  -30.4682  -12.8576   19.5012 C   0  0  0  0  0  0  0  0  0  0  0  0
  -31.2114  -22.2161   20.7108 C   0  0  0  0  0  0  0  0  0  0  0  0
  -28.5279  -13.4584   20.8953 C   0  0  0  0  0  0  0  0  0  0  0  0
  -29.5708  -22.3532   22.4886 C   0  0  0  0  0  0  0  0  0  0  0  0
  -25.3147  -31.3382   23.5872 C   0  0  1  0  0  0  0  0  0  0  0  0
  -26.1681  -29.8552   20.1952 C   0  0  1  0  0  0  0  0  0  0  0  0
  -27.5643  -13.2577   19.7143 C   0  0  2  0  0  0  0  0  0  0  0  0
  -29.8366  -23.7518   21.9333 C   0  0  2  0  0  0  0  0  0  1  0  0
  -22.7005  -27.2779   13.7659 C   0  0  0  0  0  0  0  0  0  0  0  0
  -21.7844  -28.3916   20.2305 C   0  0  0  0  0  0  0  0  0  0  0  0
  -20.9684  -27.3779   18.0916 C   0  0  0  0  0  0  0  0  0  0  0  0
  -21.2836  -29.8468   18.2591 C   0  0  0  0  0  0  0  0  0  0  0  0
  -26.4443  -27.6428   14.3373 C   0  0  0  0  0  0  0  0  0  0  0  0
  -23.3129  -28.3427   18.1503 C   0  0  1  0  0  0  0  0  0  0  0  0
  -23.9540  -27.7948   14.4546 C   0  0  2  0  0  0  0  0  0  0  0  0
  -21.8628  -28.4827   18.6934 C   0  0  0  0  0  0  0  0  0  0  0  0
  -25.8608  -11.5667   20.2801 N   0  0  0  0  0  0  0  0  0  0  0  0
  -26.1719  -12.8699   20.1756 N   0  0  0  0  0  0  0  0  0  0  0  0
  -30.3235  -21.4697   21.5973 N   0  0  3  0  0  0  0  0  0  0  0  0
  -25.3440  -28.9026   19.4485 N   0  0  0  0  0  0  0  0  0  0  0  0
  -29.8582  -13.8422   20.3974 N   0  0  0  0  0  0  0  0  0  0  0  0
  -25.2933  -15.0506   20.4648 N   0  0  0  0  0  0  0  0  0  0  0  0
  -21.8397  -12.3754   21.6105 N   0  0  0  0  0  0  0  0  0  0  0  0
  -29.8640  -15.9035   21.5435 N   0  0  0  0  0  0  0  0  0  0  0  0
  -25.7547  -31.1001   22.2292 N   0  0  0  0  0  0  0  0  0  0  0  0
  -23.4208  -28.4522   16.6995 N   0  0  0  0  0  0  0  0  0  0  0  0
  -25.1412  -27.2019   13.7764 N   0  3  0  0  0  0  0  0  0  0  0  0
  -22.5053  -14.5567   21.3704 O   0  0  0  0  0  0  0  0  0  0  0  0
  -25.1880  -28.8457   22.0913 O   0  0  0  0  0  0  0  0  0  0  0  0
  -24.0101  -30.5784   18.5273 O   0  0  0  0  0  0  0  0  0  0  0  0
  -24.3923  -26.3744   16.3592 O   0  0  0  0  0  0  0  0  0  0  0  0
  -31.6757  -15.2625   20.2440 O   0  0  0  0  0  0  0  0  0  0  0  0
  -21.8499   -6.8045   21.6154 O   0  0  0  0  0  0  0  0  0  0  0  0
  -28.8570  -24.0587   20.9478 O   0  0  0  0  0  0  0  0  0  1  0  0
  -18.8743   -6.4083   26.2406 F   0  0  0  0  0  0  0  0  0  0  0  0
  -22.4000   -4.8512   23.4928 F   0  0  0  0  0  0  0  0  0  0  0  0
  -28.1088  -17.3401   23.5803 Cl  0  0  0  0  0  0  0  0  0  0  0  0
  1  2  1  0  0  0  0
  1  5  2  0  0  0  0
  2  6  2  0  0  0  0
  3 10  2  0  0  0  0
  3 18  1  0  0  0  0
  4 11  1  0  0  0  0
  4 18  2  0  0  0  0
  5 20  1  0  0  0  0
  6 22  1  0  0  0  0
  7 12  2  0  0  0  0
  7 21  1  0  0  0  0
  8  9  2  0  0  0  0
  8 24  1  0  0  0  0
  9 25  1  0  0  0  0
 10 26  1  0  0  0  0
 11 26  2  0  0  0  0
 12 27  1  0  0  0  0
 13 14  2  0  0  0  0
 13 28  1  0  0  0  0
 14 29  1  0  0  0  0
 15 23  1  0  0  0  0
 15 27  2  0  0  0  0
 16 24  2  0  0  0  0
 16 31  1  0  0  0  0
 17 29  2  0  0  0  0
 17 30  1  0  0  0  0
 18 32  1  0  0  0  0
 19 32  1  0  0  0  0
 19 33  2  0  0  0  0
 19 34  1  0  0  0  0
 20 22  2  0  0  0  0
 20 39  1  0  0  0  0
 21 23  2  0  0  0  0
 21 40  1  0  0  0  0
 22 51  1  0  0  0  0
 23 41  1  0  0  0  0
 24 65  1  0  0  0  0
 25 31  2  0  0  0  0
 25 70  1  0  0  0  0
 26 79  1  0  0  0  0
 27 80  1  0  0  0  0
 28 30  2  0  0  0  0
 28 79  1  0  0  0  0
 29 81  1  0  0  0  0
 30 82  1  0  0  0  0
 31 83  1  0  0  0  0
 32 63  2  0  0  0  0
 33 64  1  0  0  0  0
 33 68  1  0  0  0  0
 34 69  1  0  0  0  0
 34 74  2  0  0  0  0
 35 52  1  0  0  0  0
 35 71  1  0  0  0  0
 35 75  2  0  0  0  0
 36 60  1  0  0  0  0
 36 66  1  0  0  0  0
 36 76  2  0  0  0  0
 37 61  1  0  0  0  0
 37 72  1  0  0  0  0
 37 77  2  0  0  0  0
 38 67  1  0  0  0  0
 38 70  1  0  0  0  0
 38 78  2  0  0  0  0
 39 42  1  0  0  0  0
 40 52  1  0  0  0  0
 41 66  1  0  0  0  0
 42 44  1  0  0  0  0
 43 45  1  0  0  0  0
 43 47  1  0  0  0  0
 44 51  1  0  0  0  0
 45 53  1  0  0  0  0
 46 48  1  0  0  0  0
 46 54  1  0  0  0  0
 47 67  1  0  0  0  0
 48 65  1  0  0  0  0
 49 53  1  0  0  0  0
 49 67  1  0  0  0  0
 50 54  1  0  0  0  0
 50 65  1  0  0  0  0
 51 71  1  0  0  0  0
 52 66  1  0  0  0  0
 53 64  1  0  0  0  0
 54 80  1  0  0  0  0
 55 61  1  0  0  0  0
 56 62  1  0  0  0  0
 57 62  1  0  0  0  0
 58 62  1  0  0  0  0
 59 73  1  0  0  0  0
 60 62  1  0  0  0  0
 60 72  1  0  0  0  0
 61 73  1  0  0  0  0
 63 64  1  0  0  0  0
M  CHG  1  73   1
M  ISO  4  38 100  54 101  70 100  80 101
M  END
> <Batch ID>
0012

> <Smiles>
CNC(C)C(=O)NC(C(=O)N1Cc2cc([101O:1][101CH:1]3CCN(c4ccc([100NH:0][100C:0](=O)N5CCCC(n6nc(-c7ccc(Oc8ccc(F)cc8F)cc7)c(C(N)=O)c6N)C5)c(Cl)c4)C3)ccc2CC1C(=O)NC1CCCc2ccccc21)C(C)(C)C

> <Shape>
0.352

> <Color>
0.203

> <Negative vol penalty>
0.000

$$$$

  -OEChem-04042320463D

 81 89  0     1  0  0  0  0  0999 V2000
  -21.6800  -12.9797   19.0422 C   0  0  0  0  0  0  0  0  0  0  0  0
  -21.6975  -14.2880   19.5148 C   0  0  0  0  0  0  0  0  0  0  0  0
  -20.3243  -24.6248   24.9873 C   0  0  0  0  0  0  0  0  0  0  0  0
  -29.8213  -27.6445   20.6463 C   0  0  0  0  0  0  0  0  0  0  0  0
  -28.5480  -25.7504   21.4389 C   0  0  0  0  0  0  0  0  0  0  0  0
  -22.7816  -12.1503   19.2488 C   0  0  0  0  0  0  0  0  0  0  0  0
  -22.8162  -14.7675   20.1952 C   0  0  0  0  0  0  0  0  0  0  0  0
  -24.1858  -19.3959   18.6631 C   0  0  0  0  0  0  0  0  0  0  0  0
  -20.2898  -26.0106   24.8328 C   0  0  0  0  0  0  0  0  0  0  0  0
  -20.5208  -23.8039   23.8767 C   0  0  0  0  0  0  0  0  0  0  0  0
  -30.9610  -27.1407   21.2732 C   0  0  0  0  0  0  0  0  0  0  0  0
  -29.6876  -25.2465   22.0657 C   0  0  0  0  0  0  0  0  0  0  0  0
  -23.4412  -20.4720   19.1439 C   0  0  0  0  0  0  0  0  0  0  0  0
  -31.4347  -25.8288   24.9011 C   0  0  0  0  0  0  0  0  0  0  0  0
  -31.3000  -25.3525   26.2052 C   0  0  0  0  0  0  0  0  0  0  0  0
  -25.1510  -20.9132   20.7874 C   0  0  0  0  0  0  0  0  0  0  0  0
  -20.6482  -25.7547   22.4572 C   0  0  0  0  0  0  0  0  0  0  0  0
  -32.0404  -23.1687   25.4841 C   0  0  0  0  0  0  0  0  0  0  0  0
  -28.6148  -26.9494   20.7292 C   0  0  0  0  0  0  0  0  0  0  0  0
  -27.0043  -27.2104   18.7681 C   0  0  0  0  0  0  0  0  0  0  0  0
  -23.9182  -12.6229   19.9237 C   0  0  0  0  0  0  0  0  0  0  0  0
  -25.4156  -19.0631   19.2490 C   0  0  0  0  0  0  0  0  0  0  0  0
  -23.9335  -13.9433   20.4122 C   0  0  0  0  0  0  0  0  0  0  0  0
  -25.9106  -19.8340   20.3105 C   0  0  0  0  0  0  0  0  0  0  0  0
  -20.4517  -26.5756   23.5678 C   0  0  0  0  0  0  0  0  0  0  0  0
  -30.8941  -25.9417   21.9828 C   0  0  0  0  0  0  0  0  0  0  0  0
  -23.9223  -21.2291   20.2080 C   0  0  0  0  0  0  0  0  0  0  0  0
  -20.6827  -24.3689   22.6117 C   0  0  0  0  0  0  0  0  0  0  0  0
  -31.8721  -24.9750   23.8885 C   0  0  0  0  0  0  0  0  0  0  0  0
  -31.6029  -24.0225   26.4967 C   0  0  0  0  0  0  0  0  0  0  0  0
  -32.1750  -23.6450   24.1800 C   0  0  0  0  0  0  0  0  0  0  0  0
  -27.4371  -27.4697   20.0824 C   0  0  0  0  0  0  0  0  0  0  0  0
  -25.8447  -27.9350   18.6392 C   0  0  0  0  0  0  0  0  0  0  0  0
  -27.5975  -26.3880   17.7545 C   0  0  0  0  0  0  0  0  0  0  0  0
  -26.5591  -16.5181   20.7720 C   0  0  0  0  0  0  0  0  0  0  0  0
  -29.3424  -18.1796   20.6483 C   0  0  0  0  0  0  0  0  0  0  0  0
  -30.9021  -21.2039   20.3876 C   0  0  0  0  0  0  0  0  0  0  0  0
  -21.8248  -29.9351   22.6005 C   0  0  0  0  0  0  0  0  0  0  0  0
  -25.0661  -11.6746   20.1645 C   0  0  0  0  0  0  0  0  0  0  0  0
  -26.2194  -17.9157   18.7013 C   0  0  0  0  0  0  0  0  0  0  0  0
  -27.2346  -19.5305   20.9611 C   0  0  0  0  0  0  0  0  0  0  0  0
  -26.3611  -12.3756   20.5667 C   0  0  0  0  0  0  0  0  0  0  0  0
  -23.6939  -31.8820   20.2782 C   0  0  0  0  0  0  0  0  0  0  0  0
  -26.0902  -13.4198   21.6452 C   0  0  0  0  0  0  0  0  0  0  0  0
  -24.8261  -30.9485   19.8461 C   0  0  0  0  0  0  0  0  0  0  0  0
  -23.3437  -31.6992   21.7533 C   0  0  0  0  0  0  0  0  0  0  0  0
  -24.1717  -29.3782   21.7182 C   0  0  0  0  0  0  0  0  0  0  0  0
  -25.1384  -14.5076   21.1332 C   0  0  1  0  0  0  0  0  0  0  0  0
  -27.2168  -17.3506   19.7080 C   0  0  1  0  0  0  0  0  0  0  0  0
  -24.5225  -29.4863   20.2243 C   0  0  2  0  0  0  0  0  0  0  0  0
  -33.1842  -22.2470   20.3548 C   0  0  0  0  0  0  0  0  0  0  0  0
  -29.5524  -17.8094   23.6697 C   0  0  0  0  0  0  0  0  0  0  0  0
  -31.2738  -19.6271   23.7026 C   0  0  0  0  0  0  0  0  0  0  0  0
  -31.7066  -17.5248   22.4315 C   0  0  0  0  0  0  0  0  0  0  0  0
  -30.4955  -22.2857   17.6630 C   0  0  0  0  0  0  0  0  0  0  0  0
  -20.4143  -28.0573   23.4027 C   0  0  0  0  0  0  0  0  0  0  0  0
  -22.3673  -22.9678   19.7448 C   0  0  0  0  0  0  0  0  0  1  0  0
  -21.6523  -24.0998   20.4569 C   0  0  0  0  0  0  0  0  0  0  0  0
  -30.0254  -19.1889   21.5391 C   0  0  1  0  0  0  0  0  0  0  0  0
  -32.0537  -21.6715   19.5161 C   0  0  2  0  0  0  0  0  0  0  0  0
  -30.6136  -18.5423   22.8250 C   0  0  0  0  0  0  0  0  0  0  0  0
  -26.6190  -28.2947   20.7413 N   0  0  0  0  0  0  0  0  0  0  0  0
  -25.6607  -28.5602   19.8373 N   0  0  0  0  0  0  0  0  0  0  0  0
  -27.9805  -18.3948   20.3940 N   0  0  0  0  0  0  0  0  0  0  0  0
  -23.0652  -30.2910   22.0456 N   0  0  0  0  0  0  0  0  0  0  0  0
  -24.9747  -28.0921   17.6190 N   0  0  0  0  0  0  0  0  0  0  0  0
  -28.7889  -25.7133   18.0540 N   0  0  0  0  0  0  0  0  0  0  0  0
  -25.8471  -15.4397   20.2826 N   0  0  0  0  0  0  0  0  0  0  0  0
  -31.0127  -19.8668   20.7059 N   0  0  0  0  0  0  0  0  0  0  0  0
  -21.6402  -28.5790   22.8406 N   0  0  0  0  0  0  0  0  0  0  0  0
  -31.5909  -22.7227   18.5665 N   0  3  0  0  0  0  0  0  0  0  0  0
  -27.0950  -26.2684   16.6114 O   0  0  0  0  0  0  0  0  0  0  0  0
  -26.6893  -16.8302   21.9498 O   0  0  0  0  0  0  0  0  0  0  0  0
  -29.9949  -17.2390   20.1889 O   0  0  0  0  0  0  0  0  0  0  0  0
  -29.9970  -21.9509   20.7529 O   0  0  0  0  0  0  0  0  0  0  0  0
  -20.9450  -30.7638   22.8575 O   0  0  0  0  0  0  0  0  0  0  0  0
  -32.0061  -25.4496   22.5944 O   0  0  0  0  0  0  0  0  0  0  0  0
  -23.1972  -22.2796   20.6797 O   0  0  0  0  0  0  0  0  0  1  0  0
  -20.8763  -23.5625   21.5211 O   0  0  0  0  0  0  0  0  0  0  0  0
  -31.4750  -23.5657   27.7493 F   0  0  0  0  0  0  0  0  0  0  0  0
  -32.5968  -22.8204   23.2115 F   0  0  0  0  0  0  0  0  0  0  0  0
  1  2  1  0  0  0  0
  1  6  2  0  0  0  0
  2  7  2  0  0  0  0
  3  9  1  0  0  0  0
  3 10  2  0  0  0  0
  4 11  2  0  0  0  0
  4 19  1  0  0  0  0
  5 12  1  0  0  0  0
  5 19  2  0  0  0  0
  6 21  1  0  0  0  0
  7 23  1  0  0  0  0
  8 13  2  0  0  0  0
  8 22  1  0  0  0  0
  9 25  2  0  0  0  0
 10 28  1  0  0  0  0
 11 26  1  0  0  0  0
 12 26  2  0  0  0  0
 13 27  1  0  0  0  0
 14 15  2  0  0  0  0
 14 29  1  0  0  0  0
 15 30  1  0  0  0  0
 16 24  1  0  0  0  0
 16 27  2  0  0  0  0
 17 25  1  0  0  0  0
 17 28  2  0  0  0  0
 18 30  2  0  0  0  0
 18 31  1  0  0  0  0
 19 32  1  0  0  0  0
 20 32  1  0  0  0  0
 20 33  2  0  0  0  0
 20 34  1  0  0  0  0
 21 23  2  0  0  0  0
 21 39  1  0  0  0  0
 22 24  2  0  0  0  0
 22 40  1  0  0  0  0
 23 48  1  0  0  0  0
 24 41  1  0  0  0  0
 25 56  1  0  0  0  0
 26 77  1  0  0  0  0
 27 78  1  0  0  0  0
 28 79  1  0  0  0  0
 29 31  2  0  0  0  0
 29 77  1  0  0  0  0
 30 80  1  0  0  0  0
 31 81  1  0  0  0  0
 32 62  2  0  0  0  0
 33 63  1  0  0  0  0
 33 66  1  0  0  0  0
 34 67  1  0  0  0  0
 34 72  2  0  0  0  0
 35 49  1  0  0  0  0
 35 68  1  0  0  0  0
 35 73  2  0  0  0  0
 36 59  1  0  0  0  0
 36 64  1  0  0  0  0
 36 74  2  0  0  0  0
 37 60  1  0  0  0  0
 37 69  1  0  0  0  0
 37 75  2  0  0  0  0
 38 65  1  0  0  0  0
 38 70  1  0  0  0  0
 38 76  2  0  0  0  0
 39 42  1  0  0  0  0
 40 49  1  0  0  0  0
 41 64  1  0  0  0  0
 42 44  1  0  0  0  0
 43 45  1  0  0  0  0
 43 46  1  0  0  0  0
 44 48  1  0  0  0  0
 45 50  1  0  0  0  0
 46 65  1  0  0  0  0
 47 50  1  0  0  0  0
 47 65  1  0  0  0  0
 48 68  1  0  0  0  0
 49 64  1  0  0  0  0
 50 63  1  0  0  0  0
 51 60  1  0  0  0  0
 52 61  1  0  0  0  0
 53 61  1  0  0  0  0
 54 61  1  0  0  0  0
 55 71  1  0  0  0  0
 56 70  1  0  0  0  0
 57 58  1  0  0  0  0
 57 78  1  0  0  0  0
 58 79  1  0  0  0  0
 59 61  1  0  0  0  0
 59 69  1  0  0  0  0
 60 71  1  0  0  0  0
 62 63  1  0  0  0  0
M  CHG  1  71   1
M  ISO  4  38 100  57 101  70 100  78 101
M  END
> <Batch ID>
0012

> <Smiles>
CNC(C)C(=O)NC(C(=O)N1Cc2cc([101O:1][101CH2:1]COc3cccc(C[100NH:0][100C:0](=O)N4CCCC(n5nc(-c6ccc(Oc7ccc(F)cc7F)cc6)c(C(N)=O)c5N)C4)c3)ccc2CC1C(=O)NC1CCCc2ccccc21)C(C)(C)C

> <Shape>
0.209

> <Color>
0.071

> <Negative vol penalty>
0.000

$$$$

  -OEChem-04042320463D

 80 88  0     1  0  0  0  0  0999 V2000
  -29.1891  -23.9630   16.1959 C   0  0  0  0  0  0  0  0  0  0  0  0
  -27.9600  -23.8189   16.8315 C   0  0  0  0  0  0  0  0  0  0  0  0
  -27.2519  -16.5704   18.9503 C   0  0  0  0  0  0  0  0  0  0  0  0
  -27.0462  -17.3630   21.2233 C   0  0  0  0  0  0  0  0  0  0  0  0
  -30.1896  -24.7365   16.7828 C   0  0  0  0  0  0  0  0  0  0  0  0
  -27.7311  -24.4473   18.0550 C   0  0  0  0  0  0  0  0  0  0  0  0
  -22.4463  -26.8175   20.0448 C   0  0  0  0  0  0  0  0  0  0  0  0
  -18.5472  -23.1139   22.5569 C   0  0  0  0  0  0  0  0  0  0  0  0
  -28.5864  -16.9755   18.9298 C   0  0  0  0  0  0  0  0  0  0  0  0
  -28.3808  -17.7680   21.2029 C   0  0  0  0  0  0  0  0  0  0  0  0
  -21.4588  -26.3242   20.8964 C   0  0  0  0  0  0  0  0  0  0  0  0
  -18.8785  -24.4650   22.6584 C   0  0  0  0  0  0  0  0  0  0  0  0
  -31.6313  -19.3377   21.6275 C   0  0  0  0  0  0  0  0  0  0  0  0
  -31.9347  -20.5966   22.1457 C   0  0  0  0  0  0  0  0  0  0  0  0
  -22.4717  -27.5007   22.7427 C   0  0  0  0  0  0  0  0  0  0  0  0
  -30.4836  -21.6206   20.5077 C   0  0  0  0  0  0  0  0  0  0  0  0
  -26.4817  -16.7642   20.0970 C   0  0  0  0  0  0  0  0  0  0  0  0
  -24.6010  -15.0912   20.5111 C   0  0  0  0  0  0  0  0  0  0  0  0
  -29.9696  -25.3826   18.0095 C   0  0  0  0  0  0  0  0  0  0  0  0
  -23.4620  -27.6487   20.5388 C   0  0  0  0  0  0  0  0  0  0  0  0
  -28.7302  -25.2291   18.6596 C   0  0  0  0  0  0  0  0  0  0  0  0
  -23.4695  -28.0053   21.8948 C   0  0  0  0  0  0  0  0  0  0  0  0
  -19.5203  -22.1388   22.7759 C   0  0  0  0  0  0  0  0  0  0  0  0
  -29.1509  -17.5743   20.0561 C   0  0  0  0  0  0  0  0  0  0  0  0
  -21.4730  -26.6635   22.2461 C   0  0  0  0  0  0  0  0  0  0  0  0
  -20.1829  -24.8411   22.9790 C   0  0  0  0  0  0  0  0  0  1  0  0
  -30.7541  -19.2201   20.5494 C   0  0  0  0  0  0  0  0  0  0  0  0
  -31.3609  -21.7381   21.5858 C   0  0  0  0  0  0  0  0  0  0  0  0
  -30.1802  -20.3616   19.9895 C   0  0  0  0  0  0  0  0  0  0  0  0
  -20.8247  -22.5149   23.0965 C   0  0  0  0  0  0  0  0  0  0  0  0
  -21.1560  -23.8660   23.1980 C   0  0  0  0  0  0  0  0  0  0  0  0
  -25.1029  -16.3465   20.1186 C   0  0  0  0  0  0  0  0  0  0  0  0
  -23.2412  -15.1998   20.3511 C   0  0  0  0  0  0  0  0  0  0  0  0
  -25.3013  -13.9307   20.9786 C   0  0  0  0  0  0  0  0  0  0  0  0
  -26.6280  -27.4466   20.7372 C   0  0  0  0  0  0  0  0  0  0  0  0
  -26.3665  -30.5006   21.7989 C   0  0  0  0  0  0  0  0  0  0  0  0
  -24.4352  -32.9039   23.2621 C   0  0  0  0  0  0  0  0  0  0  0  0
  -19.4960  -19.8714   20.3497 C   0  0  0  0  0  0  0  0  0  0  0  0
  -31.0977  -26.1696   18.6281 C   0  0  0  0  0  0  0  0  0  0  0  0
  -24.5047  -28.1941   19.6019 C   0  0  0  0  0  0  0  0  0  0  0  0
  -24.5263  -28.9108   22.4708 C   0  0  0  0  0  0  0  0  0  0  0  0
  -30.6455  -27.1080   19.7439 C   0  0  0  0  0  0  0  0  0  0  0  0
  -19.9490  -17.4901   17.7420 C   0  0  0  0  0  0  0  0  0  0  0  0
  -29.7026  -26.3848   20.7003 C   0  0  0  0  0  0  0  0  0  0  0  0
  -21.2760  -16.8137   18.0908 C   0  0  0  0  0  0  0  0  0  0  0  0
  -19.9657  -18.9774   18.0878 C   0  0  0  0  0  0  0  0  0  0  0  0
  -21.6711  -18.6090   19.8284 C   0  0  0  0  0  0  0  0  0  0  0  0
  -28.4353  -25.9154   19.9757 C   0  0  1  0  0  0  0  0  0  0  0  0
  -25.7857  -28.6169   20.3144 C   0  0  1  0  0  0  0  0  0  0  0  0
  -21.6830  -17.0963   19.5494 C   0  0  2  0  0  0  0  0  0  0  0  0
  -24.5091  -35.2904   24.0342 C   0  0  0  0  0  0  0  0  0  0  0  0
  -27.9864  -29.6571   24.2432 C   0  0  0  0  0  0  0  0  0  0  0  0
  -27.2251  -31.7516   25.3839 C   0  0  0  0  0  0  0  0  0  0  0  0
  -28.5991  -31.8936   23.3067 C   0  0  0  0  0  0  0  0  0  0  0  0
  -22.2753  -33.6948   21.3998 C   0  0  0  0  0  0  0  0  0  0  0  0
  -19.1628  -20.6950   22.6670 C   0  0  0  0  0  0  0  0  0  0  0  0
  -26.1874  -31.1513   23.1493 C   0  0  1  0  0  0  0  0  0  0  0  0
  -24.1718  -34.3511   22.8868 C   0  0  2  0  0  0  0  0  0  0  0  0
  -27.4806  -31.0948   24.0106 C   0  0  0  0  0  0  0  0  0  0  0  0
  -24.1403  -17.1905   19.7377 N   0  0  0  0  0  0  0  0  0  0  0  0
  -23.0199  -16.4642   19.8901 N   0  0  0  0  0  0  0  0  0  0  0  0
  -25.5277  -29.4134   21.5158 N   0  0  0  0  0  0  0  0  0  0  0  0
  -20.3578  -19.1767   19.4851 N   0  0  0  0  0  0  0  0  0  0  0  0
  -22.2251  -14.3361   20.5610 N   0  0  0  0  0  0  0  0  0  0  0  0
  -26.6977  -13.9902   21.0835 N   0  0  0  0  0  0  0  0  0  0  0  0
  -27.5269  -27.0243   19.7764 N   0  0  0  0  0  0  0  0  0  0  0  0
  -25.7007  -32.5020   22.8901 N   0  0  0  0  0  0  0  0  0  0  0  0
  -19.9409  -20.0105   21.6587 N   0  0  0  0  0  0  0  0  0  0  0  0
  -22.7373  -34.5409   22.5301 N   0  3  0  0  0  0  0  0  0  0  0  0
  -24.7079  -12.8670   21.2784 O   0  0  0  0  0  0  0  0  0  0  0  0
  -26.4747  -26.9636   21.8529 O   0  0  0  0  0  0  0  0  0  0  0  0
  -27.2145  -30.9452   21.0211 O   0  0  0  0  0  0  0  0  0  0  0  0
  -23.6030  -32.2014   23.8317 O   0  0  0  0  0  0  0  0  0  0  0  0
  -18.4080  -20.3290   19.9837 O   0  0  0  0  0  0  0  0  0  0  0  0
  -30.4532  -17.9695   20.0365 O   0  0  0  0  0  0  0  0  0  0  0  0
  -20.5106  -26.1829   23.0796 O   0  0  0  0  0  0  0  0  0  1  0  0
  -31.6512  -22.9469   22.0846 F   0  0  0  0  0  0  0  0  0  0  0  0
  -29.3359  -20.2549   18.9544 F   0  0  0  0  0  0  0  0  0  0  0  0
  -21.7665  -21.5851   23.3085 F   0  0  0  0  0  0  0  0  0  0  0  0
  -22.4110  -24.2210   23.5060 F   0  0  0  0  0  0  0  0  0  0  0  0
  1  2  1  0  0  0  0
  1  5  2  0  0  0  0
  2  6  2  0  0  0  0
  3  9  2  0  0  0  0
  3 17  1  0  0  0  0
  4 10  1  0  0  0  0
  4 17  2  0  0  0  0
  5 19  1  0  0  0  0
  6 21  1  0  0  0  0
  7 11  2  0  0  0  0
  7 20  1  0  0  0  0
  8 12  2  0  0  0  0
  8 23  1  0  0  0  0
  9 24  1  0  0  0  0
 10 24  2  0  0  0  0
 11 25  1  0  0  0  0
 12 26  1  0  0  0  0
 13 14  2  0  0  0  0
 13 27  1  0  0  0  0
 14 28  1  0  0  0  0
 15 22  1  0  0  0  0
 15 25  2  0  0  0  0
 16 28  2  0  0  0  0
 16 29  1  0  0  0  0
 17 32  1  0  0  0  0
 18 32  1  0  0  0  0
 18 33  2  0  0  0  0
 18 34  1  0  0  0  0
 19 21  2  0  0  0  0
 19 39  1  0  0  0  0
 20 22  2  0  0  0  0
 20 40  1  0  0  0  0
 21 48  1  0  0  0  0
 22 41  1  0  0  0  0
 23 30  2  0  0  0  0
 23 56  1  0  0  0  0
 24 75  1  0  0  0  0
 25 76  1  0  0  0  0
 26 31  2  0  0  0  0
 26 76  1  0  0  0  0
 27 29  2  0  0  0  0
 27 75  1  0  0  0  0
 28 77  1  0  0  0  0
 29 78  1  0  0  0  0
 30 31  1  0  0  0  0
 30 79  1  0  0  0  0
 31 80  1  0  0  0  0
 32 60  2  0  0  0  0
 33 61  1  0  0  0  0
 33 64  1  0  0  0  0
 34 65  1  0  0  0  0
 34 70  2  0  0  0  0
 35 49  1  0  0  0  0
 35 66  1  0  0  0  0
 35 71  2  0  0  0  0
 36 57  1  0  0  0  0
 36 62  1  0  0  0  0
 36 72  2  0  0  0  0
 37 58  1  0  0  0  0
 37 67  1  0  0  0  0
 37 73  2  0  0  0  0
 38 63  1  0  0  0  0
 38 68  1  0  0  0  0
 38 74  2  0  0  0  0
 39 42  1  0  0  0  0
 40 49  1  0  0  0  0
 41 62  1  0  0  0  0
 42 44  1  0  0  0  0
 43 45  1  0  0  0  0
 43 46  1  0  0  0  0
 44 48  1  0  0  0  0
 45 50  1  0  0  0  0
 46 63  1  0  0  0  0
 47 50  1  0  0  0  0
 47 63  1  0  0  0  0
 48 66  1  0  0  0  0
 49 62  1  0  0  0  0
 50 61  1  0  0  0  0
 51 58  1  0  0  0  0
 52 59  1  0  0  0  0
 53 59  1  0  0  0  0
 54 59  1  0  0  0  0
 55 69  1  0  0  0  0
 56 68  1  0  0  0  0
 57 59  1  0  0  0  0
 57 67  1  0  0  0  0
 58 69  1  0  0  0  0
 60 61  1  0  0  0  0
M  CHG  1  69   1
M  ISO  4  26 101  38 100  68 100  76 101
M  END
> <Batch ID>
0012

> <Smiles>
CNC(C)C(=O)NC(C(=O)N1Cc2cc([101O:1][101c:1]3ccc(C[100NH:0][100C:0](=O)N4CCCC(n5nc(-c6ccc(Oc7ccc(F)cc7F)cc6)c(C(N)=O)c5N)C4)c(F)c3F)ccc2CC1C(=O)NC1CCCc2ccccc21)C(C)(C)C

> <Shape>
0.235

> <Color>
0.060

> <Negative vol penalty>
0.000

$$$$

  -OEChem-04042320463D

 86 95  0     1  0  0  0  0  0999 V2000
  -16.5628  -28.5702   23.4104 C   0  0  0  0  0  0  0  0  0  0  0  0
  -17.5137  -27.6755   22.9300 C   0  0  0  0  0  0  0  0  0  0  0  0
  -23.5236  -18.8985   22.2972 C   0  0  0  0  0  0  0  0  0  0  0  0
  -22.3631  -16.8546   22.8564 C   0  0  0  0  0  0  0  0  0  0  0  0
  -16.9519  -29.8432   23.8252 C   0  0  0  0  0  0  0  0  0  0  0  0
  -18.8542  -28.0537   22.8632 C   0  0  0  0  0  0  0  0  0  0  0  0
  -23.7392  -24.4711   23.7622 C   0  0  0  0  0  0  0  0  0  0  0  0
  -28.7999  -19.1005   19.1102 C   0  0  0  0  0  0  0  0  0  0  0  0
  -29.5683  -17.9792   19.4229 C   0  0  0  0  0  0  0  0  0  0  0  0
  -22.3093  -19.4950   21.9576 C   0  0  0  0  0  0  0  0  0  0  0  0
  -21.1488  -17.4511   22.5169 C   0  0  0  0  0  0  0  0  0  0  0  0
  -24.5953  -23.8137   22.8798 C   0  0  0  0  0  0  0  0  0  0  0  0
  -19.6858  -20.8952   23.5669 C   0  0  0  0  0  0  0  0  0  0  0  0
  -19.4467  -22.1885   24.0313 C   0  0  0  0  0  0  0  0  0  0  0  0
  -26.1468  -25.6553   23.0224 C   0  0  0  0  0  0  0  0  0  0  0  0
  -29.1961  -19.9889   21.3217 C   0  0  0  0  0  0  0  0  0  0  0  0
  -19.2359  -22.9673   21.7540 C   0  0  0  0  0  0  0  0  0  0  0  0
  -23.5505  -17.5782   22.7465 C   0  0  0  0  0  0  0  0  0  0  0  0
  -25.4250  -16.9546   24.3605 C   0  0  0  0  0  0  0  0  0  0  0  0
  -18.2993  -30.2338   23.7725 C   0  0  0  0  0  0  0  0  0  0  0  0
  -24.0760  -25.7327   24.2736 C   0  0  0  0  0  0  0  0  0  0  0  0
  -19.2615  -29.3335   23.2765 C   0  0  0  0  0  0  0  0  0  0  0  0
  -25.2944  -26.3256   23.9130 C   0  0  0  0  0  0  0  0  0  0  0  0
  -28.6138  -20.1054   20.0595 C   0  0  0  0  0  0  0  0  0  0  0  0
  -30.1506  -17.8627   20.6851 C   0  0  0  0  0  0  0  0  0  0  0  0
  -21.1219  -18.7714   22.0675 C   0  0  0  0  0  0  0  0  0  0  0  0
  -25.7980  -24.4070   22.5075 C   0  0  0  0  0  0  0  0  0  0  0  0
  -19.7001  -20.6379   22.1960 C   0  0  0  0  0  0  0  0  0  0  0  0
  -19.2217  -23.2246   23.1249 C   0  0  0  0  0  0  0  0  0  0  0  0
  -29.9645  -18.8675   21.6345 C   0  0  0  0  0  0  0  0  0  0  0  0
  -19.4750  -21.6740   21.2896 C   0  0  0  0  0  0  0  0  0  0  0  0
  -24.8046  -16.9613   23.0968 C   0  0  0  0  0  0  0  0  0  0  0  0
  -26.5844  -16.2432   24.1700 C   0  0  0  0  0  0  0  0  0  0  0  0
  -24.9919  -17.5390   25.5961 C   0  0  0  0  0  0  0  0  0  0  0  0
  -22.7942  -28.6365   24.1053 C   0  0  0  0  0  0  0  0  0  0  0  0
  -25.1387  -29.3692   26.2240 C   0  0  0  0  0  0  0  0  0  0  0  0
  -28.2053  -28.6251   27.5237 C   0  0  0  0  0  0  0  0  0  0  0  0
  -30.6812  -15.4469   20.4136 C   0  0  0  0  0  0  0  0  0  0  0  0
  -18.6651  -31.6368   24.1877 C   0  0  0  0  0  0  0  0  0  0  0  0
  -23.1540  -26.4169   25.2453 C   0  0  0  0  0  0  0  0  0  0  0  0
  -25.7119  -27.6695   24.4498 C   0  0  0  0  0  0  0  0  0  0  0  0
  -20.1591  -31.8285   24.4359 C   0  0  0  0  0  0  0  0  0  0  0  0
  -28.1664  -12.9685   20.8337 C   0  0  0  0  0  0  0  0  0  0  0  0
  -30.0014  -24.1146   18.7362 C   0  0  0  0  0  0  0  0  0  0  0  0
  -20.9722  -31.2093   23.3034 C   0  0  0  0  0  0  0  0  0  0  0  0
  -27.0892  -13.7530   21.5819 C   0  0  0  0  0  0  0  0  0  0  0  0
  -28.5909  -24.6364   18.5299 C   0  0  0  0  0  0  0  0  0  0  0  0
  -28.8428  -13.8127   19.7531 C   0  0  0  0  0  0  0  0  0  0  0  0
  -28.3071  -15.8848   20.9957 C   0  0  0  0  0  0  0  0  0  0  0  0
  -29.7841  -22.6337   18.9507 C   0  0  0  0  0  0  0  0  0  0  0  0
  -20.7288  -29.6981   23.2119 C   0  0  1  0  0  0  0  0  0  0  0  0
  -23.3606  -27.9273   25.3027 C   0  0  1  0  0  0  0  0  0  0  0  0
  -27.6496  -15.0786   22.1268 C   0  0  1  0  0  0  0  0  0  0  0  0
  -27.7285  -23.8400   19.5089 C   0  0  2  0  0  0  0  0  0  0  0  0
  -29.8744  -29.4273   29.2172 C   0  0  0  0  0  0  0  0  0  0  0  0
  -25.9692  -31.6181   24.3366 C   0  0  0  0  0  0  0  0  0  0  0  0
  -28.1458  -31.7523   25.5664 C   0  0  0  0  0  0  0  0  0  0  0  0
  -26.0083  -32.2244   26.7625 C   0  0  0  0  0  0  0  0  0  0  0  0
  -32.1830  -16.8886   21.7706 C   0  0  0  0  0  0  0  0  0  0  0  0
  -28.0336  -26.1013   29.0598 C   0  0  0  0  0  0  0  0  0  0  0  0
  -27.7864  -21.3110   19.7238 C   0  0  0  0  0  0  0  0  0  0  0  0
  -27.4513  -24.5843   20.8072 C   0  0  0  0  0  0  0  0  0  1  0  0
  -26.5672  -29.8451   26.1155 C   0  0  1  0  0  0  0  0  0  0  0  0
  -28.6904  -28.5089   28.9574 C   0  0  2  0  0  0  0  0  0  0  0  0
  -26.6642  -31.3355   25.6835 C   0  0  0  0  0  0  0  0  0  0  0  0
  -25.5114  -16.3063   22.1719 N   0  0  0  0  0  0  0  0  0  0  0  0
  -26.5880  -15.8815   22.8550 N   0  0  0  0  0  0  0  0  0  0  0  0
  -24.7735  -28.3015   25.3919 N   0  0  0  0  0  0  0  0  0  0  0  0
  -29.3250  -15.0842   20.3109 N   0  0  0  0  0  0  0  0  0  0  0  0
  -27.5909  -15.8982   25.0008 N   0  0  0  0  0  0  0  0  0  0  0  0
  -23.7759  -18.2356   25.6157 N   0  0  0  0  0  0  0  0  0  0  0  0
  -21.4692  -29.0035   24.2434 N   0  0  0  0  0  0  0  0  0  0  0  0
  -27.1933  -29.5536   27.4006 N   0  0  0  0  0  0  0  0  0  0  0  0
  -30.9452  -16.7005   21.0063 N   0  0  0  0  0  0  0  0  0  0  0  0
  -28.5511  -22.5928   19.8229 N   0  3  1  0  0  0  0  0  0  0  0  0
  -29.1083  -27.1089   29.2510 N   0  3  0  0  0  0  0  0  0  0  0  0
  -25.6713  -17.4603   26.6476 O   0  0  0  0  0  0  0  0  0  0  0  0
  -23.5071  -28.8373   23.1289 O   0  0  0  0  0  0  0  0  0  0  0  0
  -24.3769  -29.9197   27.0230 O   0  0  0  0  0  0  0  0  0  0  0  0
  -28.6794  -27.9616   26.6042 O   0  0  0  0  0  0  0  0  0  0  0  0
  -31.5875  -14.6977   20.0298 O   0  0  0  0  0  0  0  0  0  0  0  0
  -19.9368  -19.3532   21.7365 O   0  0  0  0  0  0  0  0  0  0  0  0
  -26.6351  -23.7677   21.6459 O   0  0  0  0  0  0  0  0  0  1  0  0
  -18.9905  -24.4662   23.5711 F   0  0  0  0  0  0  0  0  0  0  0  0
  -30.5182  -18.7653   22.8512 F   0  0  0  0  0  0  0  0  0  0  0  0
  -19.4863  -21.4327   19.9715 F   0  0  0  0  0  0  0  0  0  0  0  0
  1  2  1  0  0  0  0
  1  5  2  0  0  0  0
  2  6  2  0  0  0  0
  3 10  2  0  0  0  0
  3 18  1  0  0  0  0
  4 11  1  0  0  0  0
  4 18  2  0  0  0  0
  5 20  1  0  0  0  0
  6 22  1  0  0  0  0
  7 12  2  0  0  0  0
  7 21  1  0  0  0  0
  8  9  2  0  0  0  0
  8 24  1  0  0  0  0
  9 25  1  0  0  0  0
 10 26  1  0  0  0  0
 11 26  2  0  0  0  0
 12 27  1  0  0  0  0
 13 14  2  0  0  0  0
 13 28  1  0  0  0  0
 14 29  1  0  0  0  0
 15 23  1  0  0  0  0
 15 27  2  0  0  0  0
 16 24  2  0  0  0  0
 16 30  1  0  0  0  0
 17 29  2  0  0  0  0
 17 31  1  0  0  0  0
 18 32  1  0  0  0  0
 19 32  1  0  0  0  0
 19 33  2  0  0  0  0
 19 34  1  0  0  0  0
 20 22  2  0  0  0  0
 20 39  1  0  0  0  0
 21 23  2  0  0  0  0
 21 40  1  0  0  0  0
 22 51  1  0  0  0  0
 23 41  1  0  0  0  0
 24 61  1  0  0  0  0
 25 30  2  0  0  0  0
 25 74  1  0  0  0  0
 26 82  1  0  0  0  0
 27 83  1  0  0  0  0
 28 31  2  0  0  0  0
 28 82  1  0  0  0  0
 29 84  1  0  0  0  0
 30 85  1  0  0  0  0
 31 86  1  0  0  0  0
 32 66  2  0  0  0  0
 33 67  1  0  0  0  0
 33 70  1  0  0  0  0
 34 71  1  0  0  0  0
 34 77  2  0  0  0  0
 35 52  1  0  0  0  0
 35 72  1  0  0  0  0
 35 78  2  0  0  0  0
 36 63  1  0  0  0  0
 36 68  1  0  0  0  0
 36 79  2  0  0  0  0
 37 64  1  0  0  0  0
 37 73  1  0  0  0  0
 37 80  2  0  0  0  0
 38 69  1  0  0  0  0
 38 74  1  0  0  0  0
 38 81  2  0  0  0  0
 39 42  1  0  0  0  0
 40 52  1  0  0  0  0
 41 68  1  0  0  0  0
 42 45  1  0  0  0  0
 43 46  1  0  0  0  0
 43 48  1  0  0  0  0
 44 47  1  0  0  0  0
 44 50  1  0  0  0  0
 45 51  1  0  0  0  0
 46 53  1  0  0  0  0
 47 54  1  0  0  0  0
 48 69  1  0  0  0  0
 49 53  1  0  0  0  0
 49 69  1  0  0  0  0
 50 75  1  0  0  0  0
 51 72  1  0  0  0  0
 52 68  1  0  0  0  0
 53 67  1  0  0  0  0
 54 62  1  0  0  0  0
 54 75  1  0  0  0  0
 55 64  1  0  0  0  0
 56 65  1  0  0  0  0
 57 65  1  0  0  0  0
 58 65  1  0  0  0  0
 59 74  1  0  0  0  0
 60 76  1  0  0  0  0
 61 75  1  0  0  0  0
 62 83  1  0  0  0  0
 63 65  1  0  0  0  0
 63 73  1  0  0  0  0
 64 76  1  0  0  0  0
 66 67  1  0  0  0  0
M  CHG  2  75   1  76   1
M  ISO  4  38 100  62 101  74 100  83 101
M  END
> <Batch ID>
0012

> <Smiles>
CNC(C)C(=O)NC(C(=O)N1Cc2cc([101O:1][101CH2:1]C3CCCN3Cc3ccc([100N:0](C)[100C:0](=O)N4CCCC(n5nc(-c6ccc(Oc7ccc(F)cc7F)cc6)c(C(N)=O)c5N)C4)c(F)c3)ccc2CC1C(=O)NC1CCCc2ccccc21)C(C)(C)C

> <Shape>
0.199

> <Color>
0.070

> <Negative vol penalty>
0.000

$$$$

  -OEChem-04042320463D

 81 89  0     1  0  0  0  0  0999 V2000
  -17.7155  -33.3419   18.0836 C   0  0  0  0  0  0  0  0  0  0  0  0
  -18.9138  -32.9824   17.4751 C   0  0  0  0  0  0  0  0  0  0  0  0
  -24.8012  -10.2786   22.6259 C   0  0  0  0  0  0  0  0  0  0  0  0
  -24.4888  -11.7693   24.5013 C   0  0  0  0  0  0  0  0  0  0  0  0
  -17.7254  -33.9232   19.3508 C   0  0  0  0  0  0  0  0  0  0  0  0
  -20.1229  -33.2051   18.1332 C   0  0  0  0  0  0  0  0  0  0  0  0
  -24.6112  -27.7615   19.5870 C   0  0  0  0  0  0  0  0  0  0  0  0
  -29.5131  -20.7821   21.9189 C   0  0  0  0  0  0  0  0  0  0  0  0
  -24.3855   -9.2034   23.4112 C   0  0  0  0  0  0  0  0  0  0  0  0
  -24.0729  -10.6941   25.2866 C   0  0  0  0  0  0  0  0  0  0  0  0
  -25.6185  -26.8047   19.7133 C   0  0  0  0  0  0  0  0  0  0  0  0
  -29.3851  -22.1504   22.1577 C   0  0  0  0  0  0  0  0  0  0  0  0
  -21.4645   -7.9153   24.5255 C   0  0  0  0  0  0  0  0  0  0  0  0
  -20.5567   -7.0164   23.9656 C   0  0  0  0  0  0  0  0  0  0  0  0
  -27.0248  -28.4182   20.8389 C   0  0  0  0  0  0  0  0  0  0  0  0
  -27.1423  -20.6374   21.4769 C   0  0  0  0  0  0  0  0  0  0  0  0
  -22.1505   -5.2245   24.2582 C   0  0  0  0  0  0  0  0  0  0  0  0
  -24.8529  -11.5615   23.1710 C   0  0  0  0  0  0  0  0  0  0  0  0
  -24.4755  -13.5061   21.5635 C   0  0  0  0  0  0  0  0  0  0  0  0
  -18.9346  -34.1443   20.0288 C   0  0  0  0  0  0  0  0  0  0  0  0
  -24.8012  -29.0475   20.1004 C   0  0  0  0  0  0  0  0  0  0  0  0
  -20.1490  -33.7912   19.4101 C   0  0  0  0  0  0  0  0  0  0  0  0
  -26.0146  -29.3772   20.7264 C   0  0  0  0  0  0  0  0  0  0  0  0
  -28.3917  -20.0256   21.5784 C   0  0  0  0  0  0  0  0  0  0  0  0
  -24.0213   -9.4111   24.7416 C   0  0  0  0  0  0  0  0  0  0  0  0
  -26.8224  -27.1323   20.3375 C   0  0  0  0  0  0  0  0  0  0  0  0
  -22.7154   -7.4688   24.9517 C   0  0  0  0  0  0  0  0  0  0  0  0
  -28.1357  -22.7621   22.0562 C   0  0  0  0  0  0  0  0  0  0  0  0
  -20.8997   -5.6710   23.8320 C   0  0  0  0  0  0  0  0  0  0  0  0
  -27.0143  -22.0057   21.7158 C   0  0  0  0  0  0  0  0  0  0  0  0
  -23.0584   -6.1234   24.8181 C   0  0  0  0  0  0  0  0  0  0  0  0
  -25.2829  -12.6725   22.3604 C   0  0  0  0  0  0  0  0  0  0  0  0
  -25.3542  -14.3993   21.0010 C   0  0  0  0  0  0  0  0  0  0  0  0
  -23.0579  -13.4758   21.3509 C   0  0  0  0  0  0  0  0  0  0  0  0
  -23.3724  -32.4735   20.6455 C   0  0  0  0  0  0  0  0  0  0  0  0
  -24.8881  -31.7227   23.2046 C   0  0  0  0  0  0  0  0  0  0  0  0
  -26.3005  -30.3471   25.9886 C   0  0  0  0  0  0  0  0  0  0  0  0
  -29.6878  -17.8733   21.3941 C   0  0  0  0  0  0  0  0  0  0  0  0
  -18.8980  -34.8190   21.3772 C   0  0  0  0  0  0  0  0  0  0  0  0
  -23.7676  -30.1278   19.9324 C   0  0  0  0  0  0  0  0  0  0  0  0
  -26.1880  -30.7830   21.2329 C   0  0  0  0  0  0  0  0  0  0  0  0
  -20.1981  -34.6777   22.1645 C   0  0  0  0  0  0  0  0  0  0  0  0
  -30.4150  -14.4228   20.9013 C   0  0  0  0  0  0  0  0  0  0  0  0
  -21.3979  -34.9814   21.2727 C   0  0  0  0  0  0  0  0  0  0  0  0
  -29.0782  -13.7284   21.1714 C   0  0  0  0  0  0  0  0  0  0  0  0
  -30.6319  -15.6163   21.8299 C   0  0  0  0  0  0  0  0  0  0  0  0
  -28.2019  -15.9022   22.1169 C   0  0  0  0  0  0  0  0  0  0  0  0
  -21.4794  -33.9940   20.1023 C   0  0  1  0  0  0  0  0  0  0  0  0
  -23.7025  -31.0923   21.1301 C   0  0  1  0  0  0  0  0  0  0  0  0
  -27.9093  -14.7331   21.1623 C   0  0  2  0  0  0  0  0  0  0  0  0
  -26.8460  -30.8668   28.3823 C   0  0  0  0  0  0  0  0  0  0  0  0
  -27.2368  -33.4417   22.2923 C   0  0  0  0  0  0  0  0  0  0  0  0
  -28.2509  -33.1347   24.5607 C   0  0  0  0  0  0  0  0  0  0  0  0
  -26.0517  -34.2882   24.3254 C   0  0  0  0  0  0  0  0  0  0  0  0
  -24.5818  -28.1504   26.9783 C   0  0  0  0  0  0  0  0  0  0  0  0
  -28.6649  -26.3010   21.5911 C   0  0  0  0  0  0  0  0  0  1  0  0
  -29.1408  -24.9163   21.9857 C   0  0  0  0  0  0  0  0  0  0  0  0
  -26.1840  -31.7882   23.9726 C   0  0  1  0  0  0  0  0  0  0  0  0
  -25.8232  -30.2708   27.4276 C   0  0  2  0  0  0  0  0  0  0  0  0
  -26.9242  -33.1407   23.7717 C   0  0  0  0  0  0  0  0  0  0  0  0
  -26.5752  -13.0063   22.3111 N   0  0  0  0  0  0  0  0  0  0  0  0
  -26.5866  -14.0595   21.4764 N   0  0  0  0  0  0  0  0  0  0  0  0
  -24.9536  -31.2347   21.8939 N   0  0  0  0  0  0  0  0  0  0  0  0
  -29.4868  -16.5270   21.7655 N   0  0  0  0  0  0  0  0  0  0  0  0
  -25.1853  -15.4344   20.1511 N   0  0  0  0  0  0  0  0  0  0  0  0
  -22.3048  -12.4921   22.0063 N   0  0  0  0  0  0  0  0  0  0  0  0
  -28.5216  -18.6356   21.3358 N   0  0  0  0  0  0  0  0  0  0  0  0
  -22.0175  -32.7263   20.5470 N   0  0  0  0  0  0  0  0  0  0  0  0
  -25.8510  -31.4898   25.3613 N   0  0  0  0  0  0  0  0  0  0  0  0
  -25.5846  -28.8529   27.8197 N   0  3  0  0  0  0  0  0  0  0  0  0
  -22.4784  -14.2864   20.5889 O   0  0  0  0  0  0  0  0  0  0  0  0
  -24.2795  -33.2539   20.3813 O   0  0  0  0  0  0  0  0  0  0  0  0
  -23.8455  -32.0986   23.7477 O   0  0  0  0  0  0  0  0  0  0  0  0
  -27.0049  -29.4816   25.4736 O   0  0  0  0  0  0  0  0  0  0  0  0
  -30.8084  -18.3104   21.1197 O   0  0  0  0  0  0  0  0  0  0  0  0
  -23.6153   -8.3622   25.5081 O   0  0  0  0  0  0  0  0  0  0  0  0
  -27.7998  -26.1921   20.4615 O   0  0  0  0  0  0  0  0  0  1  0  0
  -28.0119  -24.1064   22.2905 O   0  0  0  0  0  0  0  0  0  0  0  0
  -20.0272   -4.8077   23.2957 F   0  0  0  0  0  0  0  0  0  0  0  0
  -25.8115  -22.5881   21.6156 F   0  0  0  0  0  0  0  0  0  0  0  0
  -24.2582   -5.6883   25.2268 F   0  0  0  0  0  0  0  0  0  0  0  0
  1  2  1  0  0  0  0
  1  5  2  0  0  0  0
  2  6  2  0  0  0  0
  3  9  2  0  0  0  0
  3 18  1  0  0  0  0
  4 10  1  0  0  0  0
  4 18  2  0  0  0  0
  5 20  1  0  0  0  0
  6 22  1  0  0  0  0
  7 11  2  0  0  0  0
  7 21  1  0  0  0  0
  8 12  2  0  0  0  0
  8 24  1  0  0  0  0
  9 25  1  0  0  0  0
 10 25  2  0  0  0  0
 11 26  1  0  0  0  0
 12 28  1  0  0  0  0
 13 14  2  0  0  0  0
 13 27  1  0  0  0  0
 14 29  1  0  0  0  0
 15 23  1  0  0  0  0
 15 26  2  0  0  0  0
 16 24  2  0  0  0  0
 16 30  1  0  0  0  0
 17 29  2  0  0  0  0
 17 31  1  0  0  0  0
 18 32  1  0  0  0  0
 19 32  1  0  0  0  0
 19 33  2  0  0  0  0
 19 34  1  0  0  0  0
 20 22  2  0  0  0  0
 20 39  1  0  0  0  0
 21 23  2  0  0  0  0
 21 40  1  0  0  0  0
 22 48  1  0  0  0  0
 23 41  1  0  0  0  0
 24 67  1  0  0  0  0
 25 76  1  0  0  0  0
 26 77  1  0  0  0  0
 27 31  2  0  0  0  0
 27 76  1  0  0  0  0
 28 30  2  0  0  0  0
 28 78  1  0  0  0  0
 29 79  1  0  0  0  0
 30 80  1  0  0  0  0
 31 81  1  0  0  0  0
 32 61  2  0  0  0  0
 33 62  1  0  0  0  0
 33 65  1  0  0  0  0
 34 66  1  0  0  0  0
 34 71  2  0  0  0  0
 35 49  1  0  0  0  0
 35 68  1  0  0  0  0
 35 72  2  0  0  0  0
 36 58  1  0  0  0  0
 36 63  1  0  0  0  0
 36 73  2  0  0  0  0
 37 59  1  0  0  0  0
 37 69  1  0  0  0  0
 37 74  2  0  0  0  0
 38 64  1  0  0  0  0
 38 67  1  0  0  0  0
 38 75  2  0  0  0  0
 39 42  1  0  0  0  0
 40 49  1  0  0  0  0
 41 63  1  0  0  0  0
 42 44  1  0  0  0  0
 43 45  1  0  0  0  0
 43 46  1  0  0  0  0
 44 48  1  0  0  0  0
 45 50  1  0  0  0  0
 46 64  1  0  0  0  0
 47 50  1  0  0  0  0
 47 64  1  0  0  0  0
 48 68  1  0  0  0  0
 49 63  1  0  0  0  0
 50 62  1  0  0  0  0
 51 59  1  0  0  0  0
 52 60  1  0  0  0  0
 53 60  1  0  0  0  0
 54 60  1  0  0  0  0
 55 70  1  0  0  0  0
 56 57  1  0  0  0  0
 56 77  1  0  0  0  0
 57 78  1  0  0  0  0
 58 60  1  0  0  0  0
 58 69  1  0  0  0  0
 59 70  1  0  0  0  0
 61 62  1  0  0  0  0
M  CHG  1  70   1
M  ISO  4  38 100  56 101  67 100  77 101
M  END
> <Batch ID>
0012

> <Smiles>
CNC(C)C(=O)NC(C(=O)N1Cc2cc([101O:1][101CH2:1]COc3ccc([100NH:0][100C:0](=O)N4CCCC(n5nc(-c6ccc(Oc7ccc(F)cc7F)cc6)c(C(N)=O)c5N)C4)cc3F)ccc2CC1C(=O)NC1CCCc2ccccc21)C(C)(C)C

> <Shape>
0.265

> <Color>
0.145

> <Negative vol penalty>
0.000

$$$$

  -OEChem-04042320463D

 88 97  0     1  0  0  0  0  0999 V2000
  -17.4767  -26.1973   22.6427 C   0  0  0  0  0  0  0  0  0  0  0  0
  -18.7339  -25.8216   22.1805 C   0  0  0  0  0  0  0  0  0  0  0  0
  -24.1242  -12.9013   20.3699 C   0  0  0  0  0  0  0  0  0  0  0  0
  -26.2985  -13.1652   21.3895 C   0  0  0  0  0  0  0  0  0  0  0  0
  -17.1209  -27.5450   22.6742 C   0  0  0  0  0  0  0  0  0  0  0  0
  -19.6358  -26.7934   21.7485 C   0  0  0  0  0  0  0  0  0  0  0  0
  -25.7290  -26.6911   22.3554 C   0  0  0  0  0  0  0  0  0  0  0  0
  -31.1834  -20.8846   21.9730 C   0  0  0  0  0  0  0  0  0  0  0  0
  -29.8581  -20.4516   22.0134 C   0  0  0  0  0  0  0  0  0  0  0  0
  -24.5329  -11.6901   19.8117 C   0  0  0  0  0  0  0  0  0  0  0  0
  -26.7073  -11.9540   20.8313 C   0  0  0  0  0  0  0  0  0  0  0  0
  -26.7531  -26.3365   21.4784 C   0  0  0  0  0  0  0  0  0  0  0  0
  -27.7583  -10.8264   17.8222 C   0  0  0  0  0  0  0  0  0  0  0  0
  -29.0154  -10.7821   17.2194 C   0  0  0  0  0  0  0  0  0  0  0  0
  -27.0339  -28.6561   20.8782 C   0  0  0  0  0  0  0  0  0  0  0  0
  -29.2676  -22.1040   20.3527 C   0  0  0  0  0  0  0  0  0  0  0  0
  -29.7005   -9.0647   18.7745 C   0  0  0  0  0  0  0  0  0  0  0  0
  -25.0070  -13.6388   21.1588 C   0  0  0  0  0  0  0  0  0  0  0  0
  -23.9744  -15.0861   22.9882 C   0  0  0  0  0  0  0  0  0  0  0  0
  -18.0224  -28.5346   22.2515 C   0  0  0  0  0  0  0  0  0  0  0  0
  -25.3416  -28.0318   22.4925 C   0  0  0  0  0  0  0  0  0  0  0  0
  -19.2912  -28.1556   21.7731 C   0  0  0  0  0  0  0  0  0  0  0  0
  -26.0063  -29.0253   21.7595 C   0  0  0  0  0  0  0  0  0  0  0  0
  -31.5508  -21.9274   21.1225 C   0  0  0  0  0  0  0  0  0  0  0  0
  -28.9002  -21.0613   21.2033 C   0  0  0  0  0  0  0  0  0  0  0  0
  -30.5929  -22.5371   20.3123 C   0  0  0  0  0  0  0  0  0  0  0  0
  -25.8244  -11.2164   20.0424 C   0  0  0  0  0  0  0  0  0  0  0  0
  -27.4038  -27.3187   20.7375 C   0  0  0  0  0  0  0  0  0  0  0  0
  -27.4723   -9.9899   18.9012 C   0  0  0  0  0  0  0  0  0  0  0  0
  -29.9865   -9.9012   17.6956 C   0  0  0  0  0  0  0  0  0  0  0  0
  -28.4434   -9.1090   19.3773 C   0  0  0  0  0  0  0  0  0  0  0  0
  -24.5855  -14.8903   21.7352 C   0  0  0  0  0  0  0  0  0  0  0  0
  -23.7749  -16.4429   23.0646 C   0  0  0  0  0  0  0  0  0  0  0  0
  -23.6190  -14.1273   23.9932 C   0  0  0  0  0  0  0  0  0  0  0  0
  -22.6617  -29.6576   21.9646 C   0  0  0  0  0  0  0  0  0  0  0  0
  -24.3287  -32.0870   23.3216 C   0  0  0  0  0  0  0  0  0  0  0  0
  -27.3648  -33.4536   24.0708 C   0  0  0  0  0  0  0  0  0  0  0  0
  -26.4797  -21.1172   20.5074 C   0  0  0  0  0  0  0  0  0  0  0  0
  -17.5754  -29.9750   22.2596 C   0  0  0  0  0  0  0  0  0  0  0  0
  -24.2530  -28.4009   23.4627 C   0  0  0  0  0  0  0  0  0  0  0  0
  -25.6419  -30.4812   21.8855 C   0  0  0  0  0  0  0  0  0  0  0  0
  -18.7261  -30.9705   22.1360 C   0  0  0  0  0  0  0  0  0  0  0  0
  -23.0255  -20.2794   20.2980 C   0  0  0  0  0  0  0  0  0  0  0  0
  -35.0250  -20.1587   18.9663 C   0  0  0  0  0  0  0  0  0  0  0  0
  -35.9789  -21.1267   19.6368 C   0  0  0  0  0  0  0  0  0  0  0  0
  -19.6788  -30.5494   21.0216 C   0  0  0  0  0  0  0  0  0  0  0  0
  -22.9772  -18.8220   20.7626 C   0  0  0  0  0  0  0  0  0  0  0  0
  -24.2828  -20.5729   19.4814 C   0  0  0  0  0  0  0  0  0  0  0  0
  -25.4976  -18.7417   20.5951 C   0  0  0  0  0  0  0  0  0  0  0  0
  -33.7260  -20.4144   19.6998 C   0  0  0  0  0  0  0  0  0  0  0  0
  -35.1575  -22.3919   19.8123 C   0  0  0  0  0  0  0  0  0  0  0  0
  -20.3062  -29.1822   21.3193 C   0  0  1  0  0  0  0  0  0  0  0  0
  -23.5936  -29.7383   23.1405 C   0  0  1  0  0  0  0  0  0  0  0  0
  -24.2810  -18.4145   21.4764 C   0  0  2  0  0  0  0  0  0  0  0  0
  -28.4074  -35.4644   25.1512 C   0  0  0  0  0  0  0  0  0  0  0  0
  -23.6678  -33.7533   20.8525 C   0  0  0  0  0  0  0  0  0  0  0  0
  -25.4746  -35.3481   21.5308 C   0  0  0  0  0  0  0  0  0  0  0  0
  -23.5055  -34.9904   23.0199 C   0  0  0  0  0  0  0  0  0  0  0  0
  -30.7392  -23.4503   18.0091 C   0  0  0  0  0  0  0  0  0  0  0  0
  -28.7052  -31.7987   26.1260 C   0  0  0  0  0  0  0  0  0  0  0  0
  -32.9774  -22.3709   21.0992 C   0  0  0  0  0  0  0  0  0  0  0  0
  -30.5801  -25.9940   19.6398 C   0  0  0  0  0  0  0  0  0  0  0  0
  -31.4989  -24.8203   19.9570 C   0  0  0  0  0  0  0  0  0  0  0  0
  -29.1784  -25.8246   20.2139 C   0  0  0  0  0  0  0  0  0  1  0  0
  -25.2474  -33.1700   22.8097 C   0  0  1  0  0  0  0  0  0  0  0  0
  -27.9153  -34.0404   25.3581 C   0  0  2  0  0  0  0  0  0  0  0  0
  -24.4796  -34.2879   22.0492 C   0  0  0  0  0  0  0  0  0  0  0  0
  -24.7624  -16.0314   21.0638 N   0  0  0  0  0  0  0  0  0  0  0  0
  -24.2594  -16.9572   21.8980 N   0  0  0  0  0  0  0  0  0  0  0  0
  -24.5669  -30.7910   22.8425 N   0  0  0  0  0  0  0  0  0  0  0  0
  -25.4785  -20.1648   20.2222 N   0  0  0  0  0  0  0  0  0  0  0  0
  -23.2339  -17.2342   24.0152 N   0  0  0  0  0  0  0  0  0  0  0  0
  -23.8950  -12.7743   23.7532 N   0  0  0  0  0  0  0  0  0  0  0  0
  -27.5540  -20.6212   21.2452 N   0  0  0  0  0  0  0  0  0  0  0  0
  -21.3651  -29.3142   22.2969 N   0  0  0  0  0  0  0  0  0  0  0  0
  -26.0033  -33.6435   23.9642 N   0  0  0  0  0  0  0  0  0  0  0  0
  -30.9449  -23.5872   19.4523 N   0  0  3  0  0  0  0  0  0  0  0  0
  -33.7179  -21.9162   19.8828 N   0  3  0  0  0  0  0  0  0  0  0  0
  -29.0533  -33.2177   25.8574 N   0  3  0  0  0  0  0  0  0  0  0  0
  -23.0580  -14.4587   25.0651 O   0  0  0  0  0  0  0  0  0  0  0  0
  -23.0871  -29.8912   20.8394 O   0  0  0  0  0  0  0  0  0  0  0  0
  -23.4373  -32.3789   24.1228 O   0  0  0  0  0  0  0  0  0  0  0  0
  -28.0725  -32.8869   23.2410 O   0  0  0  0  0  0  0  0  0  0  0  0
  -26.3778  -22.2932   20.1486 O   0  0  0  0  0  0  0  0  0  0  0  0
  -26.2235  -10.0345   19.4980 O   0  0  0  0  0  0  0  0  0  0  0  0
  -28.4034  -26.9753   19.8802 O   0  0  0  0  0  0  0  0  0  1  0  0
  -31.1931   -9.8577   17.1157 F   0  0  0  0  0  0  0  0  0  0  0  0
  -28.1741   -8.3021   20.4128 F   0  0  0  0  0  0  0  0  0  0  0  0
  1  2  1  0  0  0  0
  1  5  2  0  0  0  0
  2  6  2  0  0  0  0
  3 10  2  0  0  0  0
  3 18  1  0  0  0  0
  4 11  1  0  0  0  0
  4 18  2  0  0  0  0
  5 20  1  0  0  0  0
  6 22  1  0  0  0  0
  7 12  2  0  0  0  0
  7 21  1  0  0  0  0
  8  9  2  0  0  0  0
  8 24  1  0  0  0  0
  9 25  1  0  0  0  0
 10 27  1  0  0  0  0
 11 27  2  0  0  0  0
 12 28  1  0  0  0  0
 13 14  2  0  0  0  0
 13 29  1  0  0  0  0
 14 30  1  0  0  0  0
 15 23  1  0  0  0  0
 15 28  2  0  0  0  0
 16 25  2  0  0  0  0
 16 26  1  0  0  0  0
 17 30  2  0  0  0  0
 17 31  1  0  0  0  0
 18 32  1  0  0  0  0
 19 32  1  0  0  0  0
 19 33  2  0  0  0  0
 19 34  1  0  0  0  0
 20 22  2  0  0  0  0
 20 39  1  0  0  0  0
 21 23  2  0  0  0  0
 21 40  1  0  0  0  0
 22 52  1  0  0  0  0
 23 41  1  0  0  0  0
 24 26  2  0  0  0  0
 24 61  1  0  0  0  0
 25 74  1  0  0  0  0
 26 77  1  0  0  0  0
 27 85  1  0  0  0  0
 28 86  1  0  0  0  0
 29 31  2  0  0  0  0
 29 85  1  0  0  0  0
 30 87  1  0  0  0  0
 31 88  1  0  0  0  0
 32 68  2  0  0  0  0
 33 69  1  0  0  0  0
 33 72  1  0  0  0  0
 34 73  1  0  0  0  0
 34 80  2  0  0  0  0
 35 53  1  0  0  0  0
 35 75  1  0  0  0  0
 35 81  2  0  0  0  0
 36 65  1  0  0  0  0
 36 70  1  0  0  0  0
 36 82  2  0  0  0  0
 37 66  1  0  0  0  0
 37 76  1  0  0  0  0
 37 83  2  0  0  0  0
 38 71  1  0  0  0  0
 38 74  1  0  0  0  0
 38 84  2  0  0  0  0
 39 42  1  0  0  0  0
 40 53  1  0  0  0  0
 41 70  1  0  0  0  0
 42 46  1  0  0  0  0
 43 47  1  0  0  0  0
 43 48  1  0  0  0  0
 44 45  1  0  0  0  0
 44 50  1  0  0  0  0
 45 51  1  0  0  0  0
 46 52  1  0  0  0  0
 47 54  1  0  0  0  0
 48 71  1  0  0  0  0
 49 54  1  0  0  0  0
 49 71  1  0  0  0  0
 50 78  1  0  0  0  0
 51 78  1  0  0  0  0
 52 75  1  0  0  0  0
 53 70  1  0  0  0  0
 54 69  1  0  0  0  0
 55 66  1  0  0  0  0
 56 67  1  0  0  0  0
 57 67  1  0  0  0  0
 58 67  1  0  0  0  0
 59 77  1  0  0  0  0
 60 79  1  0  0  0  0
 61 78  1  0  0  0  0
 62 63  1  0  0  0  0
 62 64  1  0  0  0  0
 63 77  1  0  0  0  0
 64 86  1  0  0  0  0
 65 67  1  0  0  0  0
 65 76  1  0  0  0  0
 66 79  1  0  0  0  0
 68 69  1  0  0  0  0
M  CHG  2  78   1  79   1
M  ISO  4  38 100  64 101  74 100  86 101
M  END
> <Batch ID>
0012

> <Smiles>
CNC(C)C(=O)NC(C(=O)N1Cc2cc([101O:1][101CH2:1]CCN(C)c3cc([100NH:0][100C:0](=O)N4CCCC(n5nc(-c6ccc(Oc7ccc(F)cc7F)cc6)c(C(N)=O)c5N)C4)ccc3CN3CCCC3)ccc2CC1C(=O)NC1CCCc2ccccc21)C(C)(C)C

> <Shape>
0.243

> <Color>
0.098

> <Negative vol penalty>
0.000

$$$$

  -OEChem-04042320463D

 95105  0     1  0  0  0  0  0999 V2000
  -40.3977  -20.4341   17.2189 C   0  0  0  0  0  0  0  0  0  0  0  0
  -39.0079  -20.4141   17.2782 C   0  0  0  0  0  0  0  0  0  0  0  0
  -23.0740   -9.8699   19.9404 C   0  0  0  0  0  0  0  0  0  0  0  0
  -23.8326   -9.8760   22.2342 C   0  0  0  0  0  0  0  0  0  0  0  0
  -41.1392  -20.7205   18.3644 C   0  0  0  0  0  0  0  0  0  0  0  0
  -38.3588  -20.6795   18.4834 C   0  0  0  0  0  0  0  0  0  0  0  0
  -26.4595  -21.2245   19.9378 C   0  0  0  0  0  0  0  0  0  0  0  0
  -34.4361  -23.8329   17.9239 C   0  0  0  0  0  0  0  0  0  0  0  0
  -27.2129  -20.2812   19.2359 C   0  0  0  0  0  0  0  0  0  0  0  0
  -31.9592  -17.0789   22.1284 C   0  0  0  0  0  0  0  0  0  0  0  0
  -22.3295   -8.7170   20.1896 C   0  0  0  0  0  0  0  0  0  0  0  0
  -23.0880   -8.7231   22.4835 C   0  0  0  0  0  0  0  0  0  0  0  0
  -33.2548  -23.2956   17.4144 C   0  0  0  0  0  0  0  0  0  0  0  0
  -19.3801   -7.9214   21.6391 C   0  0  0  0  0  0  0  0  0  0  0  0
  -32.4759  -18.2939   22.5781 C   0  0  0  0  0  0  0  0  0  0  0  0
  -18.0734   -7.8759   21.1531 C   0  0  0  0  0  0  0  0  0  0  0  0
  -32.3565  -23.1663   19.6494 C   0  0  0  0  0  0  0  0  0  0  0  0
  -18.6330   -5.9329   19.8306 C   0  0  0  0  0  0  0  0  0  0  0  0
  -23.8256  -10.4494   20.9627 C   0  0  0  0  0  0  0  0  0  0  0  0
  -24.1686  -12.9744   20.8435 C   0  0  0  0  0  0  0  0  0  0  0  0
  -40.4986  -20.9990   19.5820 C   0  0  0  0  0  0  0  0  0  0  0  0
  -34.5908  -24.0312   19.3035 C   0  0  0  0  0  0  0  0  0  0  0  0
  -39.0924  -20.9686   19.6466 C   0  0  0  0  0  0  0  0  0  0  0  0
  -26.2783  -21.0583   21.3056 C   0  0  0  0  0  0  0  0  0  0  0  0
  -33.5397  -23.7087   20.1737 C   0  0  0  0  0  0  0  0  0  0  0  0
  -27.7876  -19.1917   19.9031 C   0  0  0  0  0  0  0  0  0  0  0  0
  -27.6154  -19.0329   21.2792 C   0  0  0  0  0  0  0  0  0  0  0  0
  -29.7283  -18.0042   22.1916 C   0  0  0  0  0  0  0  0  0  0  0  0
  -30.5853  -16.9340   21.9350 C   0  0  0  0  0  0  0  0  0  0  0  0
  -22.3365   -8.1436   21.4612 C   0  0  0  0  0  0  0  0  0  0  0  0
  -32.2159  -22.9595   18.2774 C   0  0  0  0  0  0  0  0  0  0  0  0
  -20.3132   -6.9727   21.2208 C   0  0  0  0  0  0  0  0  0  0  0  0
  -17.6999   -6.8816   20.2489 C   0  0  0  0  0  0  0  0  0  0  0  0
  -31.6188  -19.3641   22.8346 C   0  0  0  0  0  0  0  0  0  0  0  0
  -19.9397   -5.9784   20.3166 C   0  0  0  0  0  0  0  0  0  0  0  0
  -30.2450  -19.2193   22.6414 C   0  0  0  0  0  0  0  0  0  0  0  0
  -26.8592  -19.9715   21.9662 C   0  0  0  0  0  0  0  0  0  0  0  0
  -24.5954  -11.6400   20.7056 C   0  0  0  0  0  0  0  0  0  0  0  0
  -25.2613  -13.7235   20.4810 C   0  0  0  0  0  0  0  0  0  0  0  0
  -22.8981  -13.4907   21.2618 C   0  0  0  0  0  0  0  0  0  0  0  0
  -36.5655  -22.9030   21.5242 C   0  0  0  0  0  0  0  0  0  0  0  0
  -35.0578  -25.0696   23.4098 C   0  0  0  0  0  0  0  0  0  0  0  0
  -32.2777  -26.9589   24.0001 C   0  0  0  0  0  0  0  0  0  0  0  0
  -30.7279  -14.7666   20.6590 C   0  0  0  0  0  0  0  0  0  0  0  0
  -41.3434  -21.2567   20.8045 C   0  0  0  0  0  0  0  0  0  0  0  0
  -35.8610  -24.6367   19.8348 C   0  0  0  0  0  0  0  0  0  0  0  0
  -25.5508  -22.0147   22.2048 C   0  0  0  0  0  0  0  0  0  0  0  0
  -33.6480  -23.9209   21.6609 C   0  0  0  0  0  0  0  0  0  0  0  0
  -40.5705  -21.8953   21.9556 C   0  0  0  0  0  0  0  0  0  0  0  0
  -29.6137  -12.3539   18.2895 C   0  0  0  0  0  0  0  0  0  0  0  0
  -39.2438  -21.1744   22.1726 C   0  0  0  0  0  0  0  0  0  0  0  0
  -28.1737  -12.0628   18.7182 C   0  0  0  0  0  0  0  0  0  0  0  0
  -30.5283  -12.5820   19.4917 C   0  0  0  0  0  0  0  0  0  0  0  0
  -28.6209  -13.3069   20.8721 C   0  0  0  0  0  0  0  0  0  0  0  0
  -25.2058  -21.2449   23.4834 C   0  0  0  0  0  0  0  0  0  0  0  0
  -38.3512  -21.2756   20.9298 C   0  0  1  0  0  0  0  0  0  0  0  0
  -36.1056  -24.3168   21.3062 C   0  0  1  0  0  0  0  0  0  0  0  0
  -27.6486  -13.1344   19.6937 C   0  0  2  0  0  0  0  0  0  0  0  0
  -31.3246  -28.6023   25.6397 C   0  0  0  0  0  0  0  0  0  0  0  0
  -34.4923  -22.7922   25.3600 C   0  0  0  0  0  0  0  0  0  0  0  0
  -32.7741  -24.2482   26.4535 C   0  0  0  0  0  0  0  0  0  0  0  0
  -35.1693  -24.9449   26.4380 C   0  0  0  0  0  0  0  0  0  0  0  0
  -32.0724  -29.0728   21.9390 C   0  0  0  0  0  0  0  0  0  0  0  0
  -29.2057  -17.5735   16.7806 C   0  0  0  0  0  0  0  0  0  0  0  0
  -28.2331  -17.8728   21.9888 C   0  0  0  0  0  0  0  0  0  0  0  0
  -28.5918  -18.2043   19.1100 C   0  0  0  0  0  0  0  0  0  0  0  0
  -30.0524  -20.6142   16.5905 C   0  0  0  0  0  0  0  0  0  0  0  0
  -30.1051  -19.6690   17.7814 C   0  0  0  0  0  0  0  0  0  0  0  0
  -31.1608  -21.6598   16.5881 C   0  0  0  0  0  0  0  0  0  1  0  0
  -33.8341  -25.0495   24.2936 C   0  0  1  0  0  0  0  0  0  0  0  0
  -32.1132  -28.4266   24.3513 C   0  0  2  0  0  0  0  0  0  0  0  0
  -34.0658  -24.2528   25.6085 C   0  0  0  0  0  0  0  0  0  0  0  0
  -25.8604  -11.5437   20.2880 N   0  0  0  0  0  0  0  0  0  0  0  0
  -26.2380  -12.8271   20.1603 N   0  0  0  0  0  0  0  0  0  0  0  0
  -34.9122  -24.5098   22.1325 N   0  0  0  0  0  0  0  0  0  0  0  0
  -29.9693  -13.6128   20.3691 N   0  0  0  0  0  0  0  0  0  0  0  0
  -25.4724  -15.0549   20.4084 N   0  0  0  0  0  0  0  0  0  0  0  0
  -21.8856  -12.5819   21.5983 N   0  0  0  0  0  0  0  0  0  0  0  0
  -30.0805  -15.6917   21.4773 N   0  0  0  0  0  0  0  0  0  0  0  0
  -37.7322  -22.5817   20.8571 N   0  0  0  0  0  0  0  0  0  0  0  0
  -33.4556  -26.4435   24.4984 N   0  0  0  0  0  0  0  0  0  0  0  0
  -31.3954  -29.1432   23.2595 N   0  3  0  0  0  0  0  0  0  0  0  0
  -28.9722  -18.7149   17.7409 N   0  3  1  0  0  0  0  0  0  0  0  0
  -22.6624  -14.7214   21.3193 O   0  0  0  0  0  0  0  0  0  0  0  0
  -35.9111  -22.1593   22.2455 O   0  0  0  0  0  0  0  0  0  0  0  0
  -36.1022  -25.5701   23.8343 O   0  0  0  0  0  0  0  0  0  0  0  0
  -31.4430  -26.3315   23.3520 O   0  0  0  0  0  0  0  0  0  0  0  0
  -31.8573  -14.9349   20.1921 O   0  0  0  0  0  0  0  0  0  0  0  0
  -21.6099   -7.0188   21.7048 O   0  0  0  0  0  0  0  0  0  0  0  0
  -31.0621  -22.4342   17.7827 O   0  0  0  0  0  0  0  0  0  1  0  0
  -16.4447   -6.8371   19.7835 F   0  0  0  0  0  0  0  0  0  0  0  0
  -32.1146  -20.5306   23.2674 F   0  0  0  0  0  0  0  0  0  0  0  0
  -20.8314   -5.0636   19.9121 F   0  0  0  0  0  0  0  0  0  0  0  0
  -29.4302  -20.2541   22.8910 F   0  0  0  0  0  0  0  0  0  0  0  0
  -26.4991  -19.9845   23.6995 S   0  0  0  0  0  0  0  0  0  0  0  0
  1  2  1  0  0  0  0
  1  5  2  0  0  0  0
  2  6  2  0  0  0  0
  3 11  2  0  0  0  0
  3 19  1  0  0  0  0
  4 12  1  0  0  0  0
  4 19  2  0  0  0  0
  5 21  1  0  0  0  0
  6 23  1  0  0  0  0
  7  9  2  0  0  0  0
  7 24  1  0  0  0  0
  8 13  2  0  0  0  0
  8 22  1  0  0  0  0
  9 26  1  0  0  0  0
 10 15  1  0  0  0  0
 10 29  2  0  0  0  0
 11 30  1  0  0  0  0
 12 30  2  0  0  0  0
 13 31  1  0  0  0  0
 14 16  2  0  0  0  0
 14 32  1  0  0  0  0
 15 34  2  0  0  0  0
 16 33  1  0  0  0  0
 17 25  1  0  0  0  0
 17 31  2  0  0  0  0
 18 33  2  0  0  0  0
 18 35  1  0  0  0  0
 19 38  1  0  0  0  0
 20 38  1  0  0  0  0
 20 39  2  0  0  0  0
 20 40  1  0  0  0  0
 21 23  2  0  0  0  0
 21 45  1  0  0  0  0
 22 25  2  0  0  0  0
 22 46  1  0  0  0  0
 23 56  1  0  0  0  0
 24 37  2  0  0  0  0
 24 47  1  0  0  0  0
 25 48  1  0  0  0  0
 26 27  2  0  0  0  0
 26 66  1  0  0  0  0
 27 37  1  0  0  0  0
 27 65  1  0  0  0  0
 28 29  1  0  0  0  0
 28 36  2  0  0  0  0
 28 65  1  0  0  0  0
 29 79  1  0  0  0  0
 30 89  1  0  0  0  0
 31 90  1  0  0  0  0
 32 35  2  0  0  0  0
 32 89  1  0  0  0  0
 33 91  1  0  0  0  0
 34 36  1  0  0  0  0
 34 92  1  0  0  0  0
 35 93  1  0  0  0  0
 36 94  1  0  0  0  0
 37 95  1  0  0  0  0
 38 73  2  0  0  0  0
 39 74  1  0  0  0  0
 39 77  1  0  0  0  0
 40 78  1  0  0  0  0
 40 84  2  0  0  0  0
 41 57  1  0  0  0  0
 41 80  1  0  0  0  0
 41 85  2  0  0  0  0
 42 70  1  0  0  0  0
 42 75  1  0  0  0  0
 42 86  2  0  0  0  0
 43 71  1  0  0  0  0
 43 81  1  0  0  0  0
 43 87  2  0  0  0  0
 44 76  1  0  0  0  0
 44 79  1  0  0  0  0
 44 88  2  0  0  0  0
 45 49  1  0  0  0  0
 46 57  1  0  0  0  0
 47 55  1  0  0  0  0
 48 75  1  0  0  0  0
 49 51  1  0  0  0  0
 50 52  1  0  0  0  0
 50 53  1  0  0  0  0
 51 56  1  0  0  0  0
 52 58  1  0  0  0  0
 53 76  1  0  0  0  0
 54 58  1  0  0  0  0
 54 76  1  0  0  0  0
 55 95  1  0  0  0  0
 56 80  1  0  0  0  0
 57 75  1  0  0  0  0
 58 74  1  0  0  0  0
 59 71  1  0  0  0  0
 60 72  1  0  0  0  0
 61 72  1  0  0  0  0
 62 72  1  0  0  0  0
 63 82  1  0  0  0  0
 64 83  1  0  0  0  0
 66 83  1  0  0  0  0
 67 68  1  0  0  0  0
 67 69  1  0  0  0  0
 68 83  1  0  0  0  0
 69 90  1  0  0  0  0
 70 72  1  0  0  0  0
 70 81  1  0  0  0  0
 71 82  1  0  0  0  0
 73 74  1  0  0  0  0
M  CHG  2  82   1  83   1
M  ISO  4  44 100  69 101  79 100  90 101
M  END
> <Batch ID>
0012

> <Smiles>
CNC(C)C(=O)NC(C(=O)N1Cc2cc([101O:1][101CH2:1]CCN(C)Cc3ccc4c(c3Cc3c([100NH:0][100C:0](=O)N5CCCC(n6nc(-c7ccc(Oc8ccc(F)cc8F)cc7)c(C(N)=O)c6N)C5)ccc(F)c3F)SCC4)ccc2CC1C(=O)NC1CCCc2ccccc21)C(C)(C)C

> <Shape>
0.187

> <Color>
0.184

> <Negative vol penalty>
0.000

$$$$

  -OEChem-04042320463D

 80 88  0     1  0  0  0  0  0999 V2000
  -32.2953  -22.2687   21.9068 C   0  0  0  0  0  0  0  0  0  0  0  0
  -30.9502  -22.6208   21.9548 C   0  0  0  0  0  0  0  0  0  0  0  0
  -28.1586  -26.5434   21.0269 C   0  0  0  0  0  0  0  0  0  0  0  0
  -28.2662  -27.3198   18.7416 C   0  0  0  0  0  0  0  0  0  0  0  0
  -32.7085  -21.2071   21.1029 C   0  0  0  0  0  0  0  0  0  0  0  0
  -30.0177  -21.9121   21.1981 C   0  0  0  0  0  0  0  0  0  0  0  0
  -24.2261  -20.6475   22.7354 C   0  0  0  0  0  0  0  0  0  0  0  0
  -29.3290  -25.8098   20.8328 C   0  0  0  0  0  0  0  0  0  0  0  0
  -29.4366  -26.5862   18.5475 C   0  0  0  0  0  0  0  0  0  0  0  0
  -23.0139  -21.2489   22.4000 C   0  0  0  0  0  0  0  0  0  0  0  0
  -30.2916  -23.3671   17.9668 C   0  0  0  0  0  0  0  0  0  0  0  0
  -30.3999  -22.6178   16.7953 C   0  0  0  0  0  0  0  0  0  0  0  0
  -22.7070  -19.6326   20.6358 C   0  0  0  0  0  0  0  0  0  0  0  0
  -32.3624  -23.8804   16.1693 C   0  0  0  0  0  0  0  0  0  0  0  0
  -27.6272  -27.2984   19.9813 C   0  0  0  0  0  0  0  0  0  0  0  0
  -26.3126  -29.3868   20.6280 C   0  0  0  0  0  0  0  0  0  0  0  0
  -31.7793  -20.4789   20.3434 C   0  0  0  0  0  0  0  0  0  0  0  0
  -24.6939  -19.5388   22.0153 C   0  0  0  0  0  0  0  0  0  0  0  0
  -30.4191  -20.8406   20.3822 C   0  0  0  0  0  0  0  0  0  0  0  0
  -23.9242  -19.0173   20.9657 C   0  0  0  0  0  0  0  0  0  0  0  0
  -29.9679  -25.8312   19.5931 C   0  0  0  0  0  0  0  0  0  0  0  0
  -22.2555  -20.7433   21.3482 C   0  0  0  0  0  0  0  0  0  0  0  0
  -31.2186  -24.3731   18.2395 C   0  0  0  0  0  0  0  0  0  0  0  0
  -31.4353  -22.8744   15.8966 C   0  0  0  0  0  0  0  0  0  0  0  0
  -32.2540  -24.6297   17.3408 C   0  0  0  0  0  0  0  0  0  0  0  0
  -26.4180  -28.0560   20.1811 C   0  0  0  0  0  0  0  0  0  0  0  0
  -24.9621  -29.6362   20.6483 C   0  0  0  0  0  0  0  0  0  0  0  0
  -27.3433  -30.3145   20.9921 C   0  0  0  0  0  0  0  0  0  0  0  0
  -27.2519  -18.9440   20.2247 C   0  0  0  0  0  0  0  0  0  0  0  0
  -18.8415  -23.5261   20.9601 C   0  0  0  0  0  0  0  0  0  0  0  0
  -26.0490  -15.9316   20.1961 C   0  0  0  0  0  0  0  0  0  0  0  0
  -23.3284  -13.8953   20.5099 C   0  0  0  0  0  0  0  0  0  0  0  0
  -20.2762  -26.3558   21.3247 C   0  0  0  0  0  0  0  0  0  0  0  0
  -32.2800  -19.3694   19.4529 C   0  0  0  0  0  0  0  0  0  0  0  0
  -25.9907  -18.8850   22.4068 C   0  0  0  0  0  0  0  0  0  0  0  0
  -24.3722  -17.8166   20.1744 C   0  0  0  0  0  0  0  0  0  0  0  0
  -31.1770  -18.4305   18.9709 C   0  0  0  0  0  0  0  0  0  0  0  0
  -20.8746  -28.3558   18.5346 C   0  0  0  0  0  0  0  0  0  0  0  0
  -29.9770  -19.2288   18.4712 C   0  0  0  0  0  0  0  0  0  0  0  0
  -22.3687  -28.6423   18.6790 C   0  0  0  0  0  0  0  0  0  0  0  0
  -20.5322  -26.9048   18.8785 C   0  0  0  0  0  0  0  0  0  0  0  0
  -22.5144  -26.7612   20.3532 C   0  0  0  0  0  0  0  0  0  0  0  0
  -17.1052  -24.9696   19.8737 C   0  0  0  0  0  0  0  0  0  0  0  0
  -17.9237  -26.2633   22.0492 C   0  0  0  0  0  0  0  0  0  0  0  0
  -29.3741  -20.0802   19.5950 C   0  0  1  0  0  0  0  0  0  0  0  0
  -26.6179  -18.0767   21.2751 C   0  0  1  0  0  0  0  0  0  0  0  0
  -18.5790  -24.8047   20.2118 C   0  0  1  0  0  0  0  0  0  0  0  0
  -22.8770  -28.2273   20.0709 C   0  0  1  0  0  0  0  0  0  0  0  0
  -22.6509  -11.4816   20.3970 C   0  0  0  0  0  0  0  0  0  0  0  0
  -26.2018  -16.0338   17.1504 C   0  0  0  0  0  0  0  0  0  0  0  0
  -24.6707  -14.0542   17.0767 C   0  0  0  0  0  0  0  0  0  0  0  0
  -26.9100  -13.8572   18.1580 C   0  0  0  0  0  0  0  0  0  0  0  0
  -22.4208  -13.8980   23.3269 C   0  0  0  0  0  0  0  0  0  0  0  0
  -18.6919  -21.0505   20.7831 C   0  0  0  0  0  0  0  0  0  0  0  0
  -20.0646  -20.4890   20.4586 C   0  0  0  0  0  0  0  0  0  1  0  0
  -25.0869  -15.1730   19.3142 C   0  0  1  0  0  0  0  0  0  0  0  0
  -23.1134  -12.6159   21.2983 C   0  0  2  0  0  0  0  0  0  0  0  0
  -25.7096  -14.8034   17.9383 C   0  0  0  0  0  0  0  0  0  0  0  0
  -25.2291  -27.4989   19.9353 N   0  0  0  0  0  0  0  0  0  0  0  0
  -24.3639  -28.4845   20.2290 N   0  0  0  0  0  0  0  0  0  0  0  0
  -25.6502  -17.2163   20.5914 N   0  0  0  0  0  0  0  0  0  0  0  0
  -21.0774  -26.5355   20.1909 N   0  0  0  0  0  0  0  0  0  0  0  0
  -18.9741  -25.8892   21.1157 N   0  0  0  0  0  0  0  0  0  0  0  0
  -24.2398  -30.7262   20.9839 N   0  0  0  0  0  0  0  0  0  0  0  0
  -28.6782  -29.8949   20.9132 N   0  0  0  0  0  0  0  0  0  0  0  0
  -28.5735  -19.2587   20.4774 N   0  0  0  0  0  0  0  0  0  0  0  0
  -18.5178  -22.3838   20.2531 N   0  0  0  0  0  0  0  0  0  0  0  0
  -24.6366  -14.0252   20.0940 N   0  0  0  0  0  0  0  0  0  0  0  0
  -22.0841  -12.8257   22.3554 N   0  3  0  0  0  0  0  0  0  0  0  0
  -27.0873  -31.4757   21.3918 O   0  0  0  0  0  0  0  0  0  0  0  0
  -26.5915  -19.3001   19.2558 O   0  0  0  0  0  0  0  0  0  0  0  0
  -19.3047  -23.5737   22.0936 O   0  0  0  0  0  0  0  0  0  0  0  0
  -27.1120  -15.4010   20.5280 O   0  0  0  0  0  0  0  0  0  0  0  0
  -22.4253  -14.6972   20.2824 O   0  0  0  0  0  0  0  0  0  0  0  0
  -20.7022  -26.5847   22.4638 O   0  0  0  0  0  0  0  0  0  0  0  0
  -31.1101  -25.1157   19.4034 O   0  0  0  0  0  0  0  0  0  0  0  0
  -21.0639  -21.3330   21.0160 O   0  0  0  0  0  0  0  0  0  1  0  0
  -31.5402  -22.1537   14.7724 F   0  0  0  0  0  0  0  0  0  0  0  0
  -33.1482  -25.5941   17.5979 F   0  0  0  0  0  0  0  0  0  0  0  0
  -16.3483  -25.7495   21.3291 S   0  0  0  0  0  0  0  0  0  0  0  0
  1  2  1  0  0  0  0
  1  5  2  0  0  0  0
  2  6  2  0  0  0  0
  3  8  2  0  0  0  0
  3 15  1  0  0  0  0
  4  9  1  0  0  0  0
  4 15  2  0  0  0  0
  5 17  1  0  0  0  0
  6 19  1  0  0  0  0
  7 10  2  0  0  0  0
  7 18  1  0  0  0  0
  8 21  1  0  0  0  0
  9 21  2  0  0  0  0
 10 22  1  0  0  0  0
 11 12  2  0  0  0  0
 11 23  1  0  0  0  0
 12 24  1  0  0  0  0
 13 20  1  0  0  0  0
 13 22  2  0  0  0  0
 14 24  2  0  0  0  0
 14 25  1  0  0  0  0
 15 26  1  0  0  0  0
 16 26  1  0  0  0  0
 16 27  2  0  0  0  0
 16 28  1  0  0  0  0
 17 19  2  0  0  0  0
 17 34  1  0  0  0  0
 18 20  2  0  0  0  0
 18 35  1  0  0  0  0
 19 45  1  0  0  0  0
 20 36  1  0  0  0  0
 21 76  1  0  0  0  0
 22 77  1  0  0  0  0
 23 25  2  0  0  0  0
 23 76  1  0  0  0  0
 24 78  1  0  0  0  0
 25 79  1  0  0  0  0
 26 59  2  0  0  0  0
 27 60  1  0  0  0  0
 27 64  1  0  0  0  0
 28 65  1  0  0  0  0
 28 70  2  0  0  0  0
 29 46  1  0  0  0  0
 29 66  1  0  0  0  0
 29 71  2  0  0  0  0
 30 47  1  0  0  0  0
 30 67  1  0  0  0  0
 30 72  2  0  0  0  0
 31 56  1  0  0  0  0
 31 61  1  0  0  0  0
 31 73  2  0  0  0  0
 32 57  1  0  0  0  0
 32 68  1  0  0  0  0
 32 74  2  0  0  0  0
 33 62  1  0  0  0  0
 33 63  1  0  0  0  0
 33 75  2  0  0  0  0
 34 37  1  0  0  0  0
 35 46  1  0  0  0  0
 36 61  1  0  0  0  0
 37 39  1  0  0  0  0
 38 40  1  0  0  0  0
 38 41  1  0  0  0  0
 39 45  1  0  0  0  0
 40 48  1  0  0  0  0
 41 62  1  0  0  0  0
 42 48  1  0  0  0  0
 42 62  1  0  0  0  0
 43 47  1  0  0  0  0
 43 80  1  0  0  0  0
 44 63  1  0  0  0  0
 44 80  1  0  0  0  0
 45 66  1  0  0  0  0
 46 61  1  0  0  0  0
 47 63  1  0  0  0  0
 48 60  1  0  0  0  0
 49 57  1  0  0  0  0
 50 58  1  0  0  0  0
 51 58  1  0  0  0  0
 52 58  1  0  0  0  0
 53 69  1  0  0  0  0
 54 55  1  0  0  0  0
 54 67  1  0  0  0  0
 55 77  1  0  0  0  0
 56 58  1  0  0  0  0
 56 68  1  0  0  0  0
 57 69  1  0  0  0  0
 59 60  1  0  0  0  0
M  CHG  1  69   1
M  ISO  4  33 100  55 101  63 100  77 101
M  END
> <Batch ID>
0012

> <Smiles>
CNC(C)C(=O)NC(C(=O)N1Cc2cc([101O:1][101CH2:1]CNC(=O)C3CSC[100N:0]3[100C:0](=O)N3CCCC(n4nc(-c5ccc(Oc6ccc(F)cc6F)cc5)c(C(N)=O)c4N)C3)ccc2CC1C(=O)NC1CCCc2ccccc21)C(C)(C)C

> <Shape>
0.212

> <Color>
0.066

> <Negative vol penalty>
0.000

$$$$

  -OEChem-04042320463D

 82 90  0     1  0  0  0  0  0999 V2000
  -17.7884  -32.9572   22.0745 C   0  0  0  0  0  0  0  0  0  0  0  0
  -19.0679  -33.0660   21.5393 C   0  0  0  0  0  0  0  0  0  0  0  0
  -23.0494  -13.0811   20.9633 C   0  0  0  0  0  0  0  0  0  0  0  0
  -23.3095  -14.7257   22.7139 C   0  0  0  0  0  0  0  0  0  0  0  0
  -17.5254  -32.0090   23.0622 C   0  0  0  0  0  0  0  0  0  0  0  0
  -20.0855  -32.2273   21.9923 C   0  0  0  0  0  0  0  0  0  0  0  0
  -25.9928  -28.8798   19.7086 C   0  0  0  0  0  0  0  0  0  0  0  0
  -30.7187  -21.5213   19.2402 C   0  0  0  0  0  0  0  0  0  0  0  0
  -22.3650  -12.2476   21.8479 C   0  0  0  0  0  0  0  0  0  0  0  0
  -22.6251  -13.8922   23.5986 C   0  0  0  0  0  0  0  0  0  0  0  0
  -27.3401  -28.7304   20.0343 C   0  0  0  0  0  0  0  0  0  0  0  0
  -31.0304  -22.8750   19.3659 C   0  0  0  0  0  0  0  0  0  0  0  0
  -19.2524  -12.0144   23.1479 C   0  0  0  0  0  0  0  0  0  0  0  0
  -18.0840  -11.4044   22.6914 C   0  0  0  0  0  0  0  0  0  0  0  0
  -26.7506  -27.0760   21.6880 C   0  0  0  0  0  0  0  0  0  0  0  0
  -28.3985  -22.0891   18.8780 C   0  0  0  0  0  0  0  0  0  0  0  0
  -19.0627   -9.2317   23.0901 C   0  0  0  0  0  0  0  0  0  0  0  0
  -23.5217  -14.3201   21.3963 C   0  0  0  0  0  0  0  0  0  0  0  0
  -23.6765  -16.1650   19.6413 C   0  0  0  0  0  0  0  0  0  0  0  0
  -18.5381  -31.1516   23.5207 C   0  0  0  0  0  0  0  0  0  0  0  0
  -25.0116  -28.1352   20.3788 C   0  0  0  0  0  0  0  0  0  0  0  0
  -19.8362  -31.2675   22.9881 C   0  0  0  0  0  0  0  0  0  0  0  0
  -25.3917  -27.2160   21.3671 C   0  0  0  0  0  0  0  0  0  0  0  0
  -29.4028  -21.1283   18.9962 C   0  0  0  0  0  0  0  0  0  0  0  0
  -22.1529  -12.6532   23.1656 C   0  0  0  0  0  0  0  0  0  0  0  0
  -27.7190  -27.8305   21.0261 C   0  0  0  0  0  0  0  0  0  0  0  0
  -20.3259  -11.2331   23.5754 C   0  0  0  0  0  0  0  0  0  0  0  0
  -30.0261  -23.8358   19.2478 C   0  0  0  0  0  0  0  0  0  0  0  0
  -17.9891  -10.0130   22.6625 C   0  0  0  0  0  0  0  0  0  0  0  0
  -28.7101  -23.4429   19.0038 C   0  0  0  0  0  0  0  0  0  0  0  0
  -20.2311   -9.8418   23.5465 C   0  0  0  0  0  0  0  0  0  0  0  0
  -24.2292  -15.1813   20.4831 C   0  0  0  0  0  0  0  0  0  0  0  0
  -24.7565  -16.6982   18.9811 C   0  0  0  0  0  0  0  0  0  0  0  0
  -22.3091  -16.5615   19.4714 C   0  0  0  0  0  0  0  0  0  0  0  0
  -22.5237  -28.8496   22.2236 C   0  0  0  0  0  0  0  0  0  0  0  0
  -21.9611  -25.6608   22.0310 C   0  0  0  0  0  0  0  0  0  0  0  0
  -23.2027  -22.5268   21.4987 C   0  0  0  0  0  0  0  0  0  0  0  0
  -29.9627  -18.6724   18.9586 C   0  0  0  0  0  0  0  0  0  0  0  0
  -18.2175  -30.1742   24.6236 C   0  0  0  0  0  0  0  0  0  0  0  0
  -23.5648  -28.2885   19.9972 C   0  0  0  0  0  0  0  0  0  0  0  0
  -24.3790  -26.3779   22.1023 C   0  0  0  0  0  0  0  0  0  0  0  0
  -19.2605  -29.0708   24.7819 C   0  0  0  0  0  0  0  0  0  0  0  0
  -29.5667  -15.1408   18.7393 C   0  0  0  0  0  0  0  0  0  0  0  0
  -20.6673  -29.6603   24.7690 C   0  0  0  0  0  0  0  0  0  0  0  0
  -28.0973  -14.9174   19.1042 C   0  0  0  0  0  0  0  0  0  0  0  0
  -30.1886  -16.2712   19.5572 C   0  0  0  0  0  0  0  0  0  0  0  0
  -27.9828  -17.3179   19.8864 C   0  0  0  0  0  0  0  0  0  0  0  0
  -20.9606  -30.3590   23.4358 C   0  0  1  0  0  0  0  0  0  0  0  0
  -22.6063  -27.8538   21.1015 C   0  0  1  0  0  0  0  0  0  0  0  0
  -27.2952  -16.2321   19.0426 C   0  0  2  0  0  0  0  0  0  0  0  0
  -22.5085  -20.1158   21.4447 C   0  0  0  0  0  0  0  0  0  0  0  0
  -21.8853  -25.6167   25.0810 C   0  0  0  0  0  0  0  0  0  0  0  0
  -22.1454  -23.1286   24.9821 C   0  0  0  0  0  0  0  0  0  0  0  0
  -20.1375  -24.2120   23.9736 C   0  0  0  0  0  0  0  0  0  0  0  0
  -23.9756  -22.2477   18.6556 C   0  0  0  0  0  0  0  0  0  0  0  0
  -31.2263  -27.0652   20.5521 C   0  0  0  0  0  0  0  0  0  0  0  0
  -29.9844  -27.9077   20.3065 C   0  0  0  0  0  0  0  0  0  1  0  0
  -30.9048  -25.5799   20.6049 C   0  0  0  0  0  0  0  0  0  0  0  0
  -22.3801  -24.4510   22.8310 C   0  0  1  0  0  0  0  0  0  0  0  0
  -22.7121  -21.3832   20.6292 C   0  0  2  0  0  0  0  0  0  0  0  0
  -21.6562  -24.3691   24.2046 C   0  0  0  0  0  0  0  0  0  0  0  0
  -25.5571  -15.0925   20.3698 N   0  0  0  0  0  0  0  0  0  0  0  0
  -25.8478  -16.0273   19.4491 N   0  0  0  0  0  0  0  0  0  0  0  0
  -22.9764  -26.5685   21.6976 N   0  0  0  0  0  0  0  0  0  0  0  0
  -29.3772  -17.4856   19.4479 N   0  0  0  0  0  0  0  0  0  0  0  0
  -24.8695  -17.6707   18.0517 N   0  0  0  0  0  0  0  0  0  0  0  0
  -21.3257  -15.9102   20.2283 N   0  0  0  0  0  0  0  0  0  0  0  0
  -29.0861  -19.7531   18.8684 N   0  0  0  0  0  0  0  0  0  0  0  0
  -21.2630  -29.3839   22.4100 N   0  0  0  0  0  0  0  0  0  0  0  0
  -22.1587  -23.2950   21.9691 N   0  0  0  0  0  0  0  0  0  0  0  0
  -23.6976  -21.0940   19.5493 N   0  3  0  0  0  0  0  0  0  0  0  0
  -21.9678  -17.4552   18.6600 O   0  0  0  0  0  0  0  0  0  0  0  0
  -23.5289  -29.1126   22.8733 O   0  0  0  0  0  0  0  0  0  0  0  0
  -20.7780  -25.7917   21.7075 O   0  0  0  0  0  0  0  0  0  0  0  0
  -24.3927  -22.7171   21.7399 O   0  0  0  0  0  0  0  0  0  0  0  0
  -31.1473  -18.7188   18.6172 O   0  0  0  0  0  0  0  0  0  0  0  0
  -21.4849  -11.8402   24.0290 O   0  0  0  0  0  0  0  0  0  0  0  0
  -29.0334  -27.6831   21.3464 O   0  0  0  0  0  0  0  0  0  1  0  0
  -30.3344  -25.1657   19.3709 O   0  0  0  0  0  0  0  0  0  0  0  0
  -16.8665   -9.4274   22.2256 F   0  0  0  0  0  0  0  0  0  0  0  0
  -27.7413  -24.3614   18.8881 F   0  0  0  0  0  0  0  0  0  0  0  0
  -21.2587   -9.0859   23.9571 F   0  0  0  0  0  0  0  0  0  0  0  0
  1  2  1  0  0  0  0
  1  5  2  0  0  0  0
  2  6  2  0  0  0  0
  3  9  2  0  0  0  0
  3 18  1  0  0  0  0
  4 10  1  0  0  0  0
  4 18  2  0  0  0  0
  5 20  1  0  0  0  0
  6 22  1  0  0  0  0
  7 11  2  0  0  0  0
  7 21  1  0  0  0  0
  8 12  2  0  0  0  0
  8 24  1  0  0  0  0
  9 25  1  0  0  0  0
 10 25  2  0  0  0  0
 11 26  1  0  0  0  0
 12 28  1  0  0  0  0
 13 14  2  0  0  0  0
 13 27  1  0  0  0  0
 14 29  1  0  0  0  0
 15 23  1  0  0  0  0
 15 26  2  0  0  0  0
 16 24  2  0  0  0  0
 16 30  1  0  0  0  0
 17 29  2  0  0  0  0
 17 31  1  0  0  0  0
 18 32  1  0  0  0  0
 19 32  1  0  0  0  0
 19 33  2  0  0  0  0
 19 34  1  0  0  0  0
 20 22  2  0  0  0  0
 20 39  1  0  0  0  0
 21 23  2  0  0  0  0
 21 40  1  0  0  0  0
 22 48  1  0  0  0  0
 23 41  1  0  0  0  0
 24 68  1  0  0  0  0
 25 77  1  0  0  0  0
 26 78  1  0  0  0  0
 27 31  2  0  0  0  0
 27 77  1  0  0  0  0
 28 30  2  0  0  0  0
 28 79  1  0  0  0  0
 29 80  1  0  0  0  0
 30 81  1  0  0  0  0
 31 82  1  0  0  0  0
 32 62  2  0  0  0  0
 33 63  1  0  0  0  0
 33 66  1  0  0  0  0
 34 67  1  0  0  0  0
 34 72  2  0  0  0  0
 35 49  1  0  0  0  0
 35 69  1  0  0  0  0
 35 73  2  0  0  0  0
 36 59  1  0  0  0  0
 36 64  1  0  0  0  0
 36 74  2  0  0  0  0
 37 60  1  0  0  0  0
 37 70  1  0  0  0  0
 37 75  2  0  0  0  0
 38 65  1  0  0  0  0
 38 68  1  0  0  0  0
 38 76  2  0  0  0  0
 39 42  1  0  0  0  0
 40 49  1  0  0  0  0
 41 64  1  0  0  0  0
 42 44  1  0  0  0  0
 43 45  1  0  0  0  0
 43 46  1  0  0  0  0
 44 48  1  0  0  0  0
 45 50  1  0  0  0  0
 46 65  1  0  0  0  0
 47 50  1  0  0  0  0
 47 65  1  0  0  0  0
 48 69  1  0  0  0  0
 49 64  1  0  0  0  0
 50 63  1  0  0  0  0
 51 60  1  0  0  0  0
 52 61  1  0  0  0  0
 53 61  1  0  0  0  0
 54 61  1  0  0  0  0
 55 71  1  0  0  0  0
 56 57  1  0  0  0  0
 56 58  1  0  0  0  0
 57 78  1  0  0  0  0
 58 79  1  0  0  0  0
 59 61  1  0  0  0  0
 59 70  1  0  0  0  0
 60 71  1  0  0  0  0
 62 63  1  0  0  0  0
M  CHG  1  71   1
M  ISO  4  38 100  57 101  68 100  78 101
M  END
> <Batch ID>
0012

> <Smiles>
CNC(C)C(=O)NC(C(=O)N1Cc2cc([101O:1][101CH2:1]CCOc3ccc([100NH:0][100C:0](=O)N4CCCC(n5nc(-c6ccc(Oc7ccc(F)cc7F)cc6)c(C(N)=O)c5N)C4)cc3F)ccc2CC1C(=O)NC1CCCc2ccccc21)C(C)(C)C

> <Shape>
0.201

> <Color>
0.083

> <Negative vol penalty>
0.000

$$$$

  -OEChem-04042320463D

 82 90  0     1  0  0  0  0  0999 V2000
  -24.6122  -34.0114   28.0639 C   0  0  0  0  0  0  0  0  0  0  0  0
  -25.4919  -33.1965   27.3586 C   0  0  0  0  0  0  0  0  0  0  0  0
  -24.2567   -9.1059   21.4812 C   0  0  0  0  0  0  0  0  0  0  0  0
  -24.7683  -10.3935   23.4604 C   0  0  0  0  0  0  0  0  0  0  0  0
  -23.2367  -33.8149   27.9481 C   0  0  0  0  0  0  0  0  0  0  0  0
  -24.9966  -32.1839   26.5377 C   0  0  0  0  0  0  0  0  0  0  0  0
  -27.3828  -30.2386   21.2437 C   0  0  0  0  0  0  0  0  0  0  0  0
  -30.2159  -18.8786   20.0778 C   0  0  0  0  0  0  0  0  0  0  0  0
  -23.9218   -8.0121   22.2793 C   0  0  0  0  0  0  0  0  0  0  0  0
  -24.4333   -9.2997   24.2585 C   0  0  0  0  0  0  0  0  0  0  0  0
  -28.1972  -29.1529   20.9246 C   0  0  0  0  0  0  0  0  0  0  0  0
  -30.3965  -20.2134   20.4399 C   0  0  0  0  0  0  0  0  0  0  0  0
  -21.2944   -7.0103   24.1570 C   0  0  0  0  0  0  0  0  0  0  0  0
  -20.1253   -6.3155   23.8470 C   0  0  0  0  0  0  0  0  0  0  0  0
  -26.2451  -27.8791   20.3032 C   0  0  0  0  0  0  0  0  0  0  0  0
  -28.0127  -20.4509   20.7535 C   0  0  0  0  0  0  0  0  0  0  0  0
  -21.4143   -4.3017   23.4998 C   0  0  0  0  0  0  0  0  0  0  0  0
  -24.6800  -10.2966   22.0717 C   0  0  0  0  0  0  0  0  0  0  0  0
  -24.1683  -12.4504   20.8040 C   0  0  0  0  0  0  0  0  0  0  0  0
  -22.7241  -32.8057   27.1179 C   0  0  0  0  0  0  0  0  0  0  0  0
  -25.9903  -30.1489   21.1050 C   0  0  0  0  0  0  0  0  0  0  0  0
  -23.6130  -31.9729   26.4117 C   0  0  0  0  0  0  0  0  0  0  0  0
  -25.4155  -28.9660   20.6188 C   0  0  0  0  0  0  0  0  0  0  0  0
  -28.9336  -18.3299   20.0534 C   0  0  0  0  0  0  0  0  0  0  0  0
  -24.0101   -8.1090   23.6679 C   0  0  0  0  0  0  0  0  0  0  0  0
  -27.6281  -27.9719   20.4571 C   0  0  0  0  0  0  0  0  0  0  0  0
  -29.2950  -20.9996   20.7778 C   0  0  0  0  0  0  0  0  0  0  0  0
  -22.5234   -6.3509   24.1383 C   0  0  0  0  0  0  0  0  0  0  0  0
  -20.1853   -4.9612   23.5185 C   0  0  0  0  0  0  0  0  0  0  0  0
  -27.8321  -19.1160   20.3913 C   0  0  0  0  0  0  0  0  0  0  0  0
  -22.5834   -4.9966   23.8098 C   0  0  0  0  0  0  0  0  0  0  0  0
  -25.0267  -11.4267   21.2478 C   0  0  0  0  0  0  0  0  0  0  0  0
  -24.9747  -13.2760   20.0594 C   0  0  0  0  0  0  0  0  0  0  0  0
  -22.7672  -12.6382   21.0434 C   0  0  0  0  0  0  0  0  0  0  0  0
  -23.5206  -30.3437   23.0966 C   0  0  0  0  0  0  0  0  0  0  0  0
  -21.7957  -30.1726   20.3547 C   0  0  0  0  0  0  0  0  0  0  0  0
  -21.6387  -29.2028   17.0865 C   0  0  0  0  0  0  0  0  0  0  0  0
  -29.7411  -16.0584   19.3221 C   0  0  0  0  0  0  0  0  0  0  0  0
  -21.2309  -32.6009   27.0614 C   0  0  0  0  0  0  0  0  0  0  0  0
  -25.1278  -31.3381   21.4281 C   0  0  0  0  0  0  0  0  0  0  0  0
  -23.9275  -28.8254   20.4328 C   0  0  0  0  0  0  0  0  0  0  0  0
  -20.7774  -31.7478   25.8795 C   0  0  0  0  0  0  0  0  0  0  0  0
  -29.7068  -12.6236   18.3850 C   0  0  0  0  0  0  0  0  0  0  0  0
  -21.6503  -30.5032   25.7534 C   0  0  0  0  0  0  0  0  0  0  0  0
  -28.4155  -12.0902   19.0097 C   0  0  0  0  0  0  0  0  0  0  0  0
  -30.3849  -13.6587   19.2809 C   0  0  0  0  0  0  0  0  0  0  0  0
  -28.2331  -14.2360   20.3323 C   0  0  0  0  0  0  0  0  0  0  0  0
  -23.1136  -30.8799   25.4919 C   0  0  1  0  0  0  0  0  0  0  0  0
  -23.6820  -30.9615   21.7365 C   0  0  1  0  0  0  0  0  0  0  0  0
  -27.4802  -13.2383   19.4372 C   0  0  2  0  0  0  0  0  0  0  0  0
  -20.0851  -29.1624   15.1161 C   0  0  0  0  0  0  0  0  0  0  0  0
  -20.2767  -27.8395   21.6034 C   0  0  0  0  0  0  0  0  0  0  0  0
  -19.4426  -27.2500   19.3175 C   0  0  0  0  0  0  0  0  0  0  0  0
  -18.8500  -29.4513   20.3303 C   0  0  0  0  0  0  0  0  0  0  0  0
  -23.4541  -30.8939   15.4731 C   0  0  0  0  0  0  0  0  0  0  0  0
  -28.9589  -24.6088   20.6297 C   0  0  0  0  0  0  0  0  0  0  0  0
  -27.8587  -25.6093   20.3123 C   0  0  0  0  0  0  0  0  0  1  0  0
  -28.4097  -23.2060   20.8371 C   0  0  0  0  0  0  0  0  0  0  0  0
  -21.2136  -29.0531   19.5260 C   0  0  1  0  0  0  0  0  0  0  0  0
  -21.1770  -29.9352   15.8395 C   0  0  2  0  0  0  0  0  0  0  0  0
  -19.9736  -28.4001   20.1995 C   0  0  0  0  0  0  0  0  0  0  0  0
  -26.2823  -11.5853   20.8207 N   0  0  0  0  0  0  0  0  0  0  0  0
  -26.2187  -12.7183   20.1006 N   0  0  0  0  0  0  0  0  0  0  0  0
  -23.1260  -30.0139   20.7684 N   0  0  0  0  0  0  0  0  0  0  0  0
  -29.4398  -14.7176   19.6419 N   0  0  0  0  0  0  0  0  0  0  0  0
  -24.7340  -14.4175   19.3799 N   0  0  0  0  0  0  0  0  0  0  0  0
  -22.0916  -11.6955   21.8304 N   0  0  0  0  0  0  0  0  0  0  0  0
  -28.7535  -16.9736   19.6850 N   0  0  0  0  0  0  0  0  0  0  0  0
  -23.2983  -31.2591   24.1075 N   0  0  0  0  0  0  0  0  0  0  0  0
  -20.9493  -29.6168   18.2066 N   0  0  0  0  0  0  0  0  0  0  0  0
  -22.3176  -30.1280   14.8999 N   0  3  0  0  0  0  0  0  0  0  0  0
  -22.1296  -13.6042   20.5598 O   0  0  0  0  0  0  0  0  0  0  0  0
  -23.5911  -29.1265   23.2195 O   0  0  0  0  0  0  0  0  0  0  0  0
  -21.0982  -31.1551   20.6191 O   0  0  0  0  0  0  0  0  0  0  0  0
  -22.5198  -28.3462   17.0680 O   0  0  0  0  0  0  0  0  0  0  0  0
  -30.7851  -16.3685   18.7427 O   0  0  0  0  0  0  0  0  0  0  0  0
  -23.6831   -7.0420   24.4471 O   0  0  0  0  0  0  0  0  0  0  0  0
  -28.4206  -26.9104   20.1455 O   0  0  0  0  0  0  0  0  0  1  0  0
  -29.4727  -22.3109   21.1348 O   0  0  0  0  0  0  0  0  0  0  0  0
  -19.0624   -4.2937   23.2223 F   0  0  0  0  0  0  0  0  0  0  0  0
  -26.5952  -18.5992   20.3709 F   0  0  0  0  0  0  0  0  0  0  0  0
  -23.7611   -4.3575   23.7913 F   0  0  0  0  0  0  0  0  0  0  0  0
  1  2  1  0  0  0  0
  1  5  2  0  0  0  0
  2  6  2  0  0  0  0
  3  9  2  0  0  0  0
  3 18  1  0  0  0  0
  4 10  1  0  0  0  0
  4 18  2  0  0  0  0
  5 20  1  0  0  0  0
  6 22  1  0  0  0  0
  7 11  2  0  0  0  0
  7 21  1  0  0  0  0
  8 12  2  0  0  0  0
  8 24  1  0  0  0  0
  9 25  1  0  0  0  0
 10 25  2  0  0  0  0
 11 26  1  0  0  0  0
 12 27  1  0  0  0  0
 13 14  2  0  0  0  0
 13 28  1  0  0  0  0
 14 29  1  0  0  0  0
 15 23  1  0  0  0  0
 15 26  2  0  0  0  0
 16 27  2  0  0  0  0
 16 30  1  0  0  0  0
 17 29  2  0  0  0  0
 17 31  1  0  0  0  0
 18 32  1  0  0  0  0
 19 32  1  0  0  0  0
 19 33  2  0  0  0  0
 19 34  1  0  0  0  0
 20 22  2  0  0  0  0
 20 39  1  0  0  0  0
 21 23  2  0  0  0  0
 21 40  1  0  0  0  0
 22 48  1  0  0  0  0
 23 41  1  0  0  0  0
 24 30  2  0  0  0  0
 24 68  1  0  0  0  0
 25 77  1  0  0  0  0
 26 78  1  0  0  0  0
 27 79  1  0  0  0  0
 28 31  2  0  0  0  0
 28 77  1  0  0  0  0
 29 80  1  0  0  0  0
 30 81  1  0  0  0  0
 31 82  1  0  0  0  0
 32 62  2  0  0  0  0
 33 63  1  0  0  0  0
 33 66  1  0  0  0  0
 34 67  1  0  0  0  0
 34 72  2  0  0  0  0
 35 49  1  0  0  0  0
 35 69  1  0  0  0  0
 35 73  2  0  0  0  0
 36 59  1  0  0  0  0
 36 64  1  0  0  0  0
 36 74  2  0  0  0  0
 37 60  1  0  0  0  0
 37 70  1  0  0  0  0
 37 75  2  0  0  0  0
 38 65  1  0  0  0  0
 38 68  1  0  0  0  0
 38 76  2  0  0  0  0
 39 42  1  0  0  0  0
 40 49  1  0  0  0  0
 41 64  1  0  0  0  0
 42 44  1  0  0  0  0
 43 45  1  0  0  0  0
 43 46  1  0  0  0  0
 44 48  1  0  0  0  0
 45 50  1  0  0  0  0
 46 65  1  0  0  0  0
 47 50  1  0  0  0  0
 47 65  1  0  0  0  0
 48 69  1  0  0  0  0
 49 64  1  0  0  0  0
 50 63  1  0  0  0  0
 51 60  1  0  0  0  0
 52 61  1  0  0  0  0
 53 61  1  0  0  0  0
 54 61  1  0  0  0  0
 55 71  1  0  0  0  0
 56 57  1  0  0  0  0
 56 58  1  0  0  0  0
 57 78  1  0  0  0  0
 58 79  1  0  0  0  0
 59 61  1  0  0  0  0
 59 70  1  0  0  0  0
 60 71  1  0  0  0  0
 62 63  1  0  0  0  0
M  CHG  1  71   1
M  ISO  4  38 100  57 101  68 100  78 101
M  END
> <Batch ID>
0012

> <Smiles>
CNC(C)C(=O)NC(C(=O)N1Cc2cc([101O:1][101CH2:1]CCOc3ccc([100NH:0][100C:0](=O)N4CCCC(n5nc(-c6ccc(Oc7ccc(F)cc7F)cc6)c(C(N)=O)c5N)C4)c(F)c3)ccc2CC1C(=O)NC1CCCc2ccccc21)C(C)(C)C

> <Shape>
0.303

> <Color>
0.145

> <Negative vol penalty>
0.000

$$$$

  -OEChem-04042320463D

 82 90  0     1  0  0  0  0  0999 V2000
  -24.2260   -6.7249   23.9000 C   0  0  0  0  0  0  0  0  0  0  0  0
  -25.3960   -7.4713   23.8026 C   0  0  0  0  0  0  0  0  0  0  0  0
  -23.7913  -33.1165   22.1097 C   0  0  0  0  0  0  0  0  0  0  0  0
  -25.7696  -32.3438   23.2612 C   0  0  0  0  0  0  0  0  0  0  0  0
  -23.1367   -7.0288   23.0846 C   0  0  0  0  0  0  0  0  0  0  0  0
  -25.4776   -8.5215   22.8889 C   0  0  0  0  0  0  0  0  0  0  0  0
  -28.4894  -14.9661   22.0451 C   0  0  0  0  0  0  0  0  0  0  0  0
  -27.6610  -23.4188   19.8564 C   0  0  0  0  0  0  0  0  0  0  0  0
  -23.8279  -34.3026   22.8427 C   0  0  0  0  0  0  0  0  0  0  0  0
  -25.8062  -33.5299   23.9943 C   0  0  0  0  0  0  0  0  0  0  0  0
  -29.2689  -15.6800   21.1359 C   0  0  0  0  0  0  0  0  0  0  0  0
  -28.6497  -22.4474   19.7006 C   0  0  0  0  0  0  0  0  0  0  0  0
  -25.5458  -37.2144   22.7854 C   0  0  0  0  0  0  0  0  0  0  0  0
  -25.3505  -38.4100   22.0940 C   0  0  0  0  0  0  0  0  0  0  0  0
  -27.2964  -16.1644   19.8344 C   0  0  0  0  0  0  0  0  0  0  0  0
  -26.4051  -21.9141   21.2690 C   0  0  0  0  0  0  0  0  0  0  0  0
  -23.4156  -38.8844   23.4608 C   0  0  0  0  0  0  0  0  0  0  0  0
  -24.7622  -32.1371   22.3190 C   0  0  0  0  0  0  0  0  0  0  0  0
  -25.3457  -30.6568   20.3250 C   0  0  0  0  0  0  0  0  0  0  0  0
  -23.2016   -8.0893   22.1672 C   0  0  0  0  0  0  0  0  0  0  0  0
  -27.1069  -14.8366   21.8496 C   0  0  0  0  0  0  0  0  0  0  0  0
  -24.3885   -8.8390   22.0595 C   0  0  0  0  0  0  0  0  0  0  0  0
  -26.5012  -15.4505   20.7440 C   0  0  0  0  0  0  0  0  0  0  0  0
  -26.5387  -23.1522   20.6407 C   0  0  0  0  0  0  0  0  0  0  0  0
  -24.8353  -34.5094   23.7850 C   0  0  0  0  0  0  0  0  0  0  0  0
  -28.6728  -16.2769   20.0289 C   0  0  0  0  0  0  0  0  0  0  0  0
  -24.6759  -36.8537   23.8144 C   0  0  0  0  0  0  0  0  0  0  0  0
  -28.5161  -21.2092   20.3289 C   0  0  0  0  0  0  0  0  0  0  0  0
  -24.2855  -39.2450   22.4318 C   0  0  0  0  0  0  0  0  0  0  0  0
  -23.6108  -37.6887   24.1521 C   0  0  0  0  0  0  0  0  0  0  0  0
  -27.3938  -20.9426   21.1132 C   0  0  0  0  0  0  0  0  0  0  0  0
  -24.7246  -30.9114   21.5624 C   0  0  0  0  0  0  0  0  0  0  0  0
  -25.0093  -29.3575   20.0328 C   0  0  0  0  0  0  0  0  0  0  0  0
  -26.1545  -31.5177   19.5123 C   0  0  0  0  0  0  0  0  0  0  0  0
  -25.1271  -12.3948   21.3785 C   0  0  0  0  0  0  0  0  0  0  0  0
  -22.8544  -14.6971   21.6163 C   0  0  0  0  0  0  0  0  0  0  0  0
  -22.0350  -17.9986   21.3419 C   0  0  0  0  0  0  0  0  0  0  0  0
  -24.3589  -24.0374   21.5414 C   0  0  0  0  0  0  0  0  0  0  0  0
  -22.0149   -8.3500   21.2737 C   0  0  0  0  0  0  0  0  0  0  0  0
  -26.2761  -14.0858   22.8538 C   0  0  0  0  0  0  0  0  0  0  0  0
  -25.0179  -15.3582   20.4995 C   0  0  0  0  0  0  0  0  0  0  0  0
  -22.0519   -9.7169   20.5951 C   0  0  0  0  0  0  0  0  0  0  0  0
  -21.6542  -26.2546   22.2093 C   0  0  0  0  0  0  0  0  0  0  0  0
  -23.4328   -9.9820   20.0038 C   0  0  0  0  0  0  0  0  0  0  0  0
  -22.2630  -27.6428   21.9987 C   0  0  0  0  0  0  0  0  0  0  0  0
  -22.6522  -25.2880   22.8445 C   0  0  0  0  0  0  0  0  0  0  0  0
  -24.5510  -26.5711   21.9403 C   0  0  0  0  0  0  0  0  0  0  0  0
  -24.5070  -10.0016   21.0979 C   0  0  1  0  0  0  0  0  0  0  0  0
  -24.9544  -13.5842   22.2803 C   0  0  1  0  0  0  0  0  0  0  0  0
  -23.6040  -27.5614   21.2432 C   0  0  2  0  0  0  0  0  0  0  0  0
  -20.0915  -19.5708   21.5621 C   0  0  0  0  0  0  0  0  0  0  0  0
  -21.7683  -13.7262   18.9353 C   0  0  0  0  0  0  0  0  0  0  0  0
  -20.4849  -15.8686   18.7584 C   0  0  0  0  0  0  0  0  0  0  0  0
  -20.0161  -14.2868   20.6294 C   0  0  0  0  0  0  0  0  0  0  0  0
  -23.3630  -19.5219   23.5040 C   0  0  0  0  0  0  0  0  0  0  0  0
  -30.9096  -18.8530   18.8157 C   0  0  0  0  0  0  0  0  0  0  0  0
  -30.5993  -17.6179   19.6467 C   0  0  0  0  0  0  0  0  0  1  0  0
  -29.7610  -19.8494   18.8266 C   0  0  0  0  0  0  0  0  0  0  0  0
  -22.1632  -15.6216   20.6434 C   0  0  1  0  0  0  0  0  0  0  0  0
  -21.2741  -18.9281   22.2701 C   0  0  2  0  0  0  0  0  0  0  0  0
  -21.1364  -14.8761   19.7449 C   0  0  0  0  0  0  0  0  0  0  0  0
  -24.0450  -29.8585   22.0245 N   0  0  0  0  0  0  0  0  0  0  0  0
  -24.2370  -28.9297   21.0724 N   0  0  0  0  0  0  0  0  0  0  0  0
  -24.2493  -14.6080   21.5064 N   0  0  0  0  0  0  0  0  0  0  0  0
  -23.8965  -25.2600   22.0727 N   0  0  0  0  0  0  0  0  0  0  0  0
  -25.3017  -28.5508   18.9907 N   0  0  0  0  0  0  0  0  0  0  0  0
  -26.4016  -32.8221   19.9614 N   0  0  0  0  0  0  0  0  0  0  0  0
  -25.5346  -24.1394   20.7985 N   0  0  0  0  0  0  0  0  0  0  0  0
  -24.4746  -11.2579   21.8156 N   0  0  0  0  0  0  0  0  0  0  0  0
  -21.5875  -16.6982   21.4421 N   0  0  0  0  0  0  0  0  0  0  0  0
  -22.1695  -20.0109   22.7668 N   0  3  0  0  0  0  0  0  0  0  0  0
  -26.6299  -31.1467   18.4124 O   0  0  0  0  0  0  0  0  0  0  0  0
  -25.8012  -12.5012   20.3607 O   0  0  0  0  0  0  0  0  0  0  0  0
  -22.1821  -14.0822   22.4480 O   0  0  0  0  0  0  0  0  0  0  0  0
  -22.9336  -18.3878   20.5993 O   0  0  0  0  0  0  0  0  0  0  0  0
  -23.7417  -22.9824   21.7086 O   0  0  0  0  0  0  0  0  0  0  0  0
  -24.8715  -35.6667   24.5004 O   0  0  0  0  0  0  0  0  0  0  0  0
  -29.4314  -16.9737   19.1396 O   0  0  0  0  0  0  0  0  0  1  0  0
  -29.5032  -20.2737   20.1583 O   0  0  0  0  0  0  0  0  0  0  0  0
  -24.0990  -40.3939   21.7688 F   0  0  0  0  0  0  0  0  0  0  0  0
  -22.7725  -37.3481   25.1406 F   0  0  0  0  0  0  0  0  0  0  0  0
  -27.2032  -19.4198   21.9013 Cl  0  0  0  0  0  0  0  0  0  0  0  0
  1  2  1  0  0  0  0
  1  5  2  0  0  0  0
  2  6  2  0  0  0  0
  3  9  2  0  0  0  0
  3 18  1  0  0  0  0
  4 10  1  0  0  0  0
  4 18  2  0  0  0  0
  5 20  1  0  0  0  0
  6 22  1  0  0  0  0
  7 11  2  0  0  0  0
  7 21  1  0  0  0  0
  8 12  2  0  0  0  0
  8 24  1  0  0  0  0
  9 25  1  0  0  0  0
 10 25  2  0  0  0  0
 11 26  1  0  0  0  0
 12 28  1  0  0  0  0
 13 14  2  0  0  0  0
 13 27  1  0  0  0  0
 14 29  1  0  0  0  0
 15 23  1  0  0  0  0
 15 26  2  0  0  0  0
 16 24  2  0  0  0  0
 16 31  1  0  0  0  0
 17 29  2  0  0  0  0
 17 30  1  0  0  0  0
 18 32  1  0  0  0  0
 19 32  1  0  0  0  0
 19 33  2  0  0  0  0
 19 34  1  0  0  0  0
 20 22  2  0  0  0  0
 20 39  1  0  0  0  0
 21 23  2  0  0  0  0
 21 40  1  0  0  0  0
 22 48  1  0  0  0  0
 23 41  1  0  0  0  0
 24 68  1  0  0  0  0
 25 77  1  0  0  0  0
 26 78  1  0  0  0  0
 27 30  2  0  0  0  0
 27 77  1  0  0  0  0
 28 31  2  0  0  0  0
 28 79  1  0  0  0  0
 29 80  1  0  0  0  0
 30 81  1  0  0  0  0
 31 82  1  0  0  0  0
 32 62  2  0  0  0  0
 33 63  1  0  0  0  0
 33 66  1  0  0  0  0
 34 67  1  0  0  0  0
 34 72  2  0  0  0  0
 35 49  1  0  0  0  0
 35 69  1  0  0  0  0
 35 73  2  0  0  0  0
 36 59  1  0  0  0  0
 36 64  1  0  0  0  0
 36 74  2  0  0  0  0
 37 60  1  0  0  0  0
 37 70  1  0  0  0  0
 37 75  2  0  0  0  0
 38 65  1  0  0  0  0
 38 68  1  0  0  0  0
 38 76  2  0  0  0  0
 39 42  1  0  0  0  0
 40 49  1  0  0  0  0
 41 64  1  0  0  0  0
 42 44  1  0  0  0  0
 43 45  1  0  0  0  0
 43 46  1  0  0  0  0
 44 48  1  0  0  0  0
 45 50  1  0  0  0  0
 46 65  1  0  0  0  0
 47 50  1  0  0  0  0
 47 65  1  0  0  0  0
 48 69  1  0  0  0  0
 49 64  1  0  0  0  0
 50 63  1  0  0  0  0
 51 60  1  0  0  0  0
 52 61  1  0  0  0  0
 53 61  1  0  0  0  0
 54 61  1  0  0  0  0
 55 71  1  0  0  0  0
 56 57  1  0  0  0  0
 56 58  1  0  0  0  0
 57 78  1  0  0  0  0
 58 79  1  0  0  0  0
 59 61  1  0  0  0  0
 59 70  1  0  0  0  0
 60 71  1  0  0  0  0
 62 63  1  0  0  0  0
M  CHG  1  71   1
M  ISO  4  38 100  57 101  68 100  78 101
M  END
> <Batch ID>
0012

> <Smiles>
CNC(C)C(=O)NC(C(=O)N1Cc2cc([101O:1][101CH2:1]CCOc3ccc([100NH:0][100C:0](=O)N4CCCC(n5nc(-c6ccc(Oc7ccc(F)cc7F)cc6)c(C(N)=O)c5N)C4)cc3Cl)ccc2CC1C(=O)NC1CCCc2ccccc21)C(C)(C)C

> <Shape>
0.242

> <Color>
0.069

> <Negative vol penalty>
0.000

$$$$

  -OEChem-04042320463D

 84 92  0     1  0  0  0  0  0999 V2000
  -23.4343  -30.0936   21.4217 C   0  0  0  0  0  0  0  0  0  0  0  0
  -22.7481  -28.8835   21.4065 C   0  0  0  0  0  0  0  0  0  0  0  0
  -28.6501  -13.2239   20.8638 C   0  0  0  0  0  0  0  0  0  0  0  0
  -28.1534  -12.4747   18.6212 C   0  0  0  0  0  0  0  0  0  0  0  0
  -24.7758  -30.1378   21.0441 C   0  0  0  0  0  0  0  0  0  0  0  0
  -23.4027  -27.7170   21.0127 C   0  0  0  0  0  0  0  0  0  0  0  0
  -22.5010  -22.0702   23.2050 C   0  0  0  0  0  0  0  0  0  0  0  0
  -20.6828  -14.4784   24.2109 C   0  0  0  0  0  0  0  0  0  0  0  0
  -21.4402  -13.5022   24.8581 C   0  0  0  0  0  0  0  0  0  0  0  0
  -30.0143  -13.1800   20.5764 C   0  0  0  0  0  0  0  0  0  0  0  0
  -29.5176  -12.4308   18.3338 C   0  0  0  0  0  0  0  0  0  0  0  0
  -21.7558  -20.9895   22.7352 C   0  0  0  0  0  0  0  0  0  0  0  0
  -33.6147  -13.6116   20.3202 C   0  0  0  0  0  0  0  0  0  0  0  0
  -34.3984  -14.6909   20.7280 C   0  0  0  0  0  0  0  0  0  0  0  0
  -23.7383  -20.0773   21.7070 C   0  0  0  0  0  0  0  0  0  0  0  0
  -19.4767  -12.7550   23.0225 C   0  0  0  0  0  0  0  0  0  0  0  0
  -33.0663  -16.1739   19.3629 C   0  0  0  0  0  0  0  0  0  0  0  0
  -27.7196  -12.8712   19.8862 C   0  0  0  0  0  0  0  0  0  0  0  0
  -25.4395  -14.0084   20.0103 C   0  0  0  0  0  0  0  0  0  0  0  0
  -25.4498  -28.9695   20.6547 C   0  0  0  0  0  0  0  0  0  0  0  0
  -23.8704  -22.1683   22.9196 C   0  0  0  0  0  0  0  0  0  0  0  0
  -24.7540  -27.7458   20.6282 C   0  0  0  0  0  0  0  0  0  0  0  0
  -24.4991  -21.1589   22.1765 C   0  0  0  0  0  0  0  0  0  0  0  0
  -19.7010  -14.1048   23.2932 C   0  0  0  0  0  0  0  0  0  0  0  0
  -21.2160  -12.1523   24.5874 C   0  0  0  0  0  0  0  0  0  0  0  0
  -30.4481  -12.7835   19.3114 C   0  0  0  0  0  0  0  0  0  0  0  0
  -22.3739  -19.9943   21.9837 C   0  0  0  0  0  0  0  0  0  0  0  0
  -32.5568  -13.8133   19.4337 C   0  0  0  0  0  0  0  0  0  0  0  0
  -34.1242  -15.9721   20.2494 C   0  0  0  0  0  0  0  0  0  0  0  0
  -20.2342  -11.7787   23.6697 C   0  0  0  0  0  0  0  0  0  0  0  0
  -32.2826  -15.0944   18.9551 C   0  0  0  0  0  0  0  0  0  0  0  0
  -26.3103  -12.9158   20.1827 C   0  0  0  0  0  0  0  0  0  0  0  0
  -24.2184  -13.5445   20.4348 C   0  0  0  0  0  0  0  0  0  0  0  0
  -25.7102  -15.3249   19.5110 C   0  0  0  0  0  0  0  0  0  0  0  0
  -25.6902  -24.2436   21.3431 C   0  0  0  0  0  0  0  0  0  0  0  0
  -28.1031  -22.4014   22.4862 C   0  0  0  0  0  0  0  0  0  0  0  0
  -29.1207  -19.3655   23.6670 C   0  0  0  0  0  0  0  0  0  0  0  0
  -22.3114   -9.8980   24.6832 C   0  0  0  0  0  0  0  0  0  0  0  0
  -26.8870  -29.0748   20.2097 C   0  0  0  0  0  0  0  0  0  0  0  0
  -24.6656  -23.3267   23.4563 C   0  0  0  0  0  0  0  0  0  0  0  0
  -25.9708  -21.2070   21.8599 C   0  0  0  0  0  0  0  0  0  0  0  0
  -27.6105  -27.7314   20.1644 C   0  0  0  0  0  0  0  0  0  0  0  0
  -22.1731   -9.0996   21.0726 C   0  0  0  0  0  0  0  0  0  0  0  0
  -26.7474  -26.6833   19.4691 C   0  0  0  0  0  0  0  0  0  0  0  0
  -23.2100  -10.0490   20.4752 C   0  0  0  0  0  0  0  0  0  0  0  0
  -22.5100   -8.7268   22.5131 C   0  0  0  0  0  0  0  0  0  0  0  0
  -23.7327  -10.8619   22.8092 C   0  0  0  0  0  0  0  0  0  0  0  0
  -25.4363  -26.4547   20.2309 C   0  0  1  0  0  0  0  0  0  0  0  0
  -25.9468  -23.5872   22.6701 C   0  0  1  0  0  0  0  0  0  0  0  0
  -23.3943  -11.2845   21.3717 C   0  0  1  0  0  0  0  0  0  0  0  0
  -31.1598  -18.1525   24.4844 C   0  0  0  0  0  0  0  0  0  0  0  0
  -29.0943  -22.1363   19.6126 C   0  0  0  0  0  0  0  0  0  0  0  0
  -30.5049  -20.2041   20.3512 C   0  0  0  0  0  0  0  0  0  0  0  0
  -30.8984  -22.4724   21.3117 C   0  0  0  0  0  0  0  0  0  0  0  0
  -22.2658  -11.3209   26.6844 C   0  0  0  0  0  0  0  0  0  0  0  0
  -17.9089  -14.6931   21.6799 C   0  0  0  0  0  0  0  0  0  0  0  0
  -27.9156  -18.8941   26.3286 C   0  0  0  0  0  0  0  0  0  0  0  0
  -20.3043  -17.0359   22.0982 C   0  0  0  0  0  0  0  0  0  0  0  0
  -19.1352  -16.4909   22.9097 C   0  0  0  0  0  0  0  0  0  0  0  0
  -20.5290  -18.5288   22.3072 C   0  0  0  0  0  0  0  0  0  1  0  0
  -28.8378  -21.1771   21.9960 C   0  0  1  0  0  0  0  0  0  0  0  0
  -29.9487  -18.9827   24.8804 C   0  0  2  0  0  0  0  0  0  0  0  0
  -29.8057  -21.4973   20.8220 C   0  0  0  0  0  0  0  0  0  0  0  0
  -25.6947  -11.8390   20.6783 N   0  0  0  0  0  0  0  0  0  0  0  0
  -24.4241  -12.2527   20.8210 N   0  0  0  0  0  0  0  0  0  0  0  0
  -26.7041  -22.3630   22.4017 N   0  0  0  0  0  0  0  0  0  0  0  0
  -22.7417   -9.9119   23.3405 N   0  0  0  0  0  0  0  0  0  0  0  0
  -22.9995  -14.1198   20.5118 N   0  0  0  0  0  0  0  0  0  0  0  0
  -27.0195  -15.6344   19.1184 N   0  0  0  0  0  0  0  0  0  0  0  0
  -25.6656  -25.6242   21.3937 N   0  0  0  0  0  0  0  0  0  0  0  0
  -29.4885  -20.5961   23.1653 N   0  0  0  0  0  0  0  0  0  0  0  0
  -22.0013  -11.1452   25.2581 N   0  0  0  0  0  0  0  0  0  0  0  0
  -18.9392  -15.0864   22.6430 N   0  0  3  0  0  0  0  0  0  0  0  0
  -29.1278  -18.1891   25.8382 N   0  3  0  0  0  0  0  0  0  0  0  0
  -24.8208  -16.2059   19.4312 O   0  0  0  0  0  0  0  0  0  0  0  0
  -25.5280  -23.5488   20.3468 O   0  0  0  0  0  0  0  0  0  0  0  0
  -28.7464  -23.3537   22.9343 O   0  0  0  0  0  0  0  0  0  0  0  0
  -28.2387  -18.6433   23.2077 O   0  0  0  0  0  0  0  0  0  0  0  0
  -22.2599   -8.8528   25.3431 O   0  0  0  0  0  0  0  0  0  0  0  0
  -31.7792  -12.7408   19.0305 O   0  0  0  0  0  0  0  0  0  0  0  0
  -21.6488  -18.9388   21.5233 O   0  0  0  0  0  0  0  0  0  1  0  0
  -34.8760  -17.0088   20.6422 F   0  0  0  0  0  0  0  0  0  0  0  0
  -20.0105  -10.4843   23.4017 F   0  0  0  0  0  0  0  0  0  0  0  0
  -31.2669  -15.2946   18.1042 F   0  0  0  0  0  0  0  0  0  0  0  0
  1  2  1  0  0  0  0
  1  5  2  0  0  0  0
  2  6  2  0  0  0  0
  3 10  2  0  0  0  0
  3 18  1  0  0  0  0
  4 11  1  0  0  0  0
  4 18  2  0  0  0  0
  5 20  1  0  0  0  0
  6 22  1  0  0  0  0
  7 12  2  0  0  0  0
  7 21  1  0  0  0  0
  8  9  2  0  0  0  0
  8 24  1  0  0  0  0
  9 25  1  0  0  0  0
 10 26  1  0  0  0  0
 11 26  2  0  0  0  0
 12 27  1  0  0  0  0
 13 14  2  0  0  0  0
 13 28  1  0  0  0  0
 14 29  1  0  0  0  0
 15 23  1  0  0  0  0
 15 27  2  0  0  0  0
 16 24  2  0  0  0  0
 16 30  1  0  0  0  0
 17 29  2  0  0  0  0
 17 31  1  0  0  0  0
 18 32  1  0  0  0  0
 19 32  1  0  0  0  0
 19 33  2  0  0  0  0
 19 34  1  0  0  0  0
 20 22  2  0  0  0  0
 20 39  1  0  0  0  0
 21 23  2  0  0  0  0
 21 40  1  0  0  0  0
 22 48  1  0  0  0  0
 23 41  1  0  0  0  0
 24 73  1  0  0  0  0
 25 30  2  0  0  0  0
 25 72  1  0  0  0  0
 26 80  1  0  0  0  0
 27 81  1  0  0  0  0
 28 31  2  0  0  0  0
 28 80  1  0  0  0  0
 29 82  1  0  0  0  0
 30 83  1  0  0  0  0
 31 84  1  0  0  0  0
 32 64  2  0  0  0  0
 33 65  1  0  0  0  0
 33 68  1  0  0  0  0
 34 69  1  0  0  0  0
 34 75  2  0  0  0  0
 35 49  1  0  0  0  0
 35 70  1  0  0  0  0
 35 76  2  0  0  0  0
 36 61  1  0  0  0  0
 36 66  1  0  0  0  0
 36 77  2  0  0  0  0
 37 62  1  0  0  0  0
 37 71  1  0  0  0  0
 37 78  2  0  0  0  0
 38 67  1  0  0  0  0
 38 72  1  0  0  0  0
 38 79  2  0  0  0  0
 39 42  1  0  0  0  0
 40 49  1  0  0  0  0
 41 66  1  0  0  0  0
 42 44  1  0  0  0  0
 43 45  1  0  0  0  0
 43 46  1  0  0  0  0
 44 48  1  0  0  0  0
 45 50  1  0  0  0  0
 46 67  1  0  0  0  0
 47 50  1  0  0  0  0
 47 67  1  0  0  0  0
 48 70  1  0  0  0  0
 49 66  1  0  0  0  0
 50 65  1  0  0  0  0
 51 62  1  0  0  0  0
 52 63  1  0  0  0  0
 53 63  1  0  0  0  0
 54 63  1  0  0  0  0
 55 72  1  0  0  0  0
 56 73  1  0  0  0  0
 57 74  1  0  0  0  0
 58 59  1  0  0  0  0
 58 60  1  0  0  0  0
 59 73  1  0  0  0  0
 60 81  1  0  0  0  0
 61 63  1  0  0  0  0
 61 71  1  0  0  0  0
 62 74  1  0  0  0  0
 64 65  1  0  0  0  0
M  CHG  1  74   1
M  ISO  4  38 100  60 101  72 100  81 101
M  END
> <Batch ID>
0012

> <Smiles>
CNC(C)C(=O)NC(C(=O)N1Cc2cc([101O:1][101CH2:1]CCN(C)c3ccc([100N:0](C)[100C:0](=O)N4CCCC(n5nc(-c6ccc(Oc7ccc(F)cc7F)cc6)c(C(N)=O)c5N)C4)c(F)c3)ccc2CC1C(=O)NC1CCCc2ccccc21)C(C)(C)C

> <Shape>
0.188

> <Color>
0.098

> <Negative vol penalty>
0.000

$$$$

  -OEChem-04042320463D

 93103  0     1  0  0  0  0  0999 V2000
  -19.0329  -26.3180   25.6638 C   0  0  0  0  0  0  0  0  0  0  0  0
  -20.1375  -25.9318   24.9113 C   0  0  0  0  0  0  0  0  0  0  0  0
  -24.2609   -9.2408   22.4809 C   0  0  0  0  0  0  0  0  0  0  0  0
  -23.6381   -9.9178   20.2469 C   0  0  0  0  0  0  0  0  0  0  0  0
  -18.2613  -27.4065   25.2593 C   0  0  0  0  0  0  0  0  0  0  0  0
  -20.4703  -26.6334   23.7530 C   0  0  0  0  0  0  0  0  0  0  0  0
  -26.0983  -27.7214   21.5972 C   0  0  0  0  0  0  0  0  0  0  0  0
  -32.0084  -20.3305   17.6878 C   0  0  0  0  0  0  0  0  0  0  0  0
  -23.2209   -8.3113   22.4892 C   0  0  0  0  0  0  0  0  0  0  0  0
  -22.5981   -8.9884   20.2551 C   0  0  0  0  0  0  0  0  0  0  0  0
  -26.8621  -27.0975   20.6117 C   0  0  0  0  0  0  0  0  0  0  0  0
  -31.7086  -21.6926   17.7077 C   0  0  0  0  0  0  0  0  0  0  0  0
  -22.6259   -5.2278   21.2359 C   0  0  0  0  0  0  0  0  0  0  0  0
  -22.9048   -3.9470   21.7128 C   0  0  0  0  0  0  0  0  0  0  0  0
  -26.1269  -28.7433   19.0086 C   0  0  0  0  0  0  0  0  0  0  0  0
  -30.6993  -20.0718   15.6738 C   0  0  0  0  0  0  0  0  0  0  0  0
  -21.2341   -4.2247   23.4358 C   0  0  0  0  0  0  0  0  0  0  0  0
  -24.4695  -10.0441   21.3598 C   0  0  0  0  0  0  0  0  0  0  0  0
  -26.9191  -10.7433   21.4946 C   0  0  0  0  0  0  0  0  0  0  0  0
  -18.5905  -28.1277   24.1008 C   0  0  0  0  0  0  0  0  0  0  0  0
  -25.3332  -28.8564   21.2926 C   0  0  0  0  0  0  0  0  0  0  0  0
  -19.7015  -27.7317   23.3319 C   0  0  0  0  0  0  0  0  0  0  0  0
  -25.3563  -29.3812   19.9926 C   0  0  0  0  0  0  0  0  0  0  0  0
  -31.5038  -19.5201   16.6708 C   0  0  0  0  0  0  0  0  0  0  0  0
  -30.3994  -21.4339   15.6937 C   0  0  0  0  0  0  0  0  0  0  0  0
  -22.3895   -8.1851   21.3763 C   0  0  0  0  0  0  0  0  0  0  0  0
  -26.8742  -27.6068   19.3165 C   0  0  0  0  0  0  0  0  0  0  0  0
  -30.9041  -22.2443   16.7107 C   0  0  0  0  0  0  0  0  0  0  0  0
  -21.6511   -6.0070   21.8590 C   0  0  0  0  0  0  0  0  0  0  0  0
  -22.2090   -3.4454   22.8127 C   0  0  0  0  0  0  0  0  0  0  0  0
  -20.9552   -5.5055   22.9589 C   0  0  0  0  0  0  0  0  0  0  0  0
  -25.5433  -11.0048   21.3508 C   0  0  0  0  0  0  0  0  0  0  0  0
  -27.5135  -11.9791   21.4163 C   0  0  0  0  0  0  0  0  0  0  0  0
  -30.4276  -16.9003   18.3943 C   0  0  0  0  0  0  0  0  0  0  0  0
  -27.5990   -9.4950   21.6820 C   0  0  0  0  0  0  0  0  0  0  0  0
  -27.9648  -16.9624   18.9159 C   0  0  0  0  0  0  0  0  0  0  0  0
  -22.2323  -29.5525   21.3487 C   0  0  0  0  0  0  0  0  0  0  0  0
  -23.2865  -32.5342   20.6274 C   0  0  0  0  0  0  0  0  0  0  0  0
  -25.7374  -34.4956   19.2884 C   0  0  0  0  0  0  0  0  0  0  0  0
  -17.6988  -29.2680   23.6777 C   0  0  0  0  0  0  0  0  0  0  0  0
  -24.5357  -29.5335   22.3733 C   0  0  0  0  0  0  0  0  0  0  0  0
  -24.5684  -30.6093   19.6190 C   0  0  0  0  0  0  0  0  0  0  0  0
  -18.3383  -30.1895   22.6423 C   0  0  0  0  0  0  0  0  0  0  0  0
  -25.5133  -16.6158   21.5063 C   0  0  0  0  0  0  0  0  0  0  0  0
  -25.9606  -21.4123   15.3141 C   0  0  0  0  0  0  0  0  0  0  0  0
  -26.0406  -22.0371   13.9358 C   0  0  0  0  0  0  0  0  0  0  0  0
  -18.9893  -29.3729   21.5305 C   0  0  0  0  0  0  0  0  0  0  0  0
  -25.3936  -15.1031   21.6872 C   0  0  0  0  0  0  0  0  0  0  0  0
  -28.9062  -15.7815   16.9200 C   0  0  0  0  0  0  0  0  0  0  0  0
  -25.7666  -16.9854   20.0481 C   0  0  0  0  0  0  0  0  0  0  0  0
  -29.6853  -16.8326   16.1508 C   0  0  0  0  0  0  0  0  0  0  0  0
  -26.8381  -14.7954   19.6272 C   0  0  0  0  0  0  0  0  0  0  0  0
  -27.4106  -21.1066   15.6224 C   0  0  0  0  0  0  0  0  0  0  0  0
  -27.2623  -22.9362   14.0089 C   0  0  0  0  0  0  0  0  0  0  0  0
  -20.1092  -28.4829   22.0830 C   0  0  1  0  0  0  0  0  0  0  0  0
  -29.1179  -16.1448   18.3907 C   0  0  1  0  0  0  0  0  0  0  0  0
  -23.3902  -30.3811   21.8286 C   0  0  1  0  0  0  0  0  0  0  0  0
  -26.6124  -14.3770   21.0909 C   0  0  2  0  0  0  0  0  0  0  0  0
  -26.2977  -36.8937   18.8059 C   0  0  0  0  0  0  0  0  0  0  0  0
  -21.3710  -32.5014   18.2525 C   0  0  0  0  0  0  0  0  0  0  0  0
  -22.6305  -34.4436   17.2989 C   0  0  0  0  0  0  0  0  0  0  0  0
  -21.4609  -34.6726   19.4903 C   0  0  0  0  0  0  0  0  0  0  0  0
  -28.1256  -34.4100   21.0343 C   0  0  0  0  0  0  0  0  0  0  0  0
  -31.8259  -18.0641   16.6492 C   0  0  0  0  0  0  0  0  0  0  0  0
  -29.5378  -22.0081   14.6178 C   0  0  0  0  0  0  0  0  0  0  0  0
  -29.1100  -25.2874   17.5364 C   0  0  0  0  0  0  0  0  0  0  0  0
  -28.3626  -25.8444   18.7379 C   0  0  0  0  0  0  0  0  0  1  0  0
  -29.9371  -24.0638   17.8982 C   0  0  0  0  0  0  0  0  0  0  0  0
  -23.5715  -33.2877   19.3506 C   0  0  1  0  0  0  0  0  0  0  0  0
  -26.4160  -35.7520   19.8036 C   0  0  2  0  0  0  0  0  0  0  0  0
  -22.2719  -33.7020   18.6043 C   0  0  0  0  0  0  0  0  0  0  0  0
  -25.2792  -12.3046   21.1933 N   0  0  0  0  0  0  0  0  0  0  0  0
  -26.4971  -12.8709   21.2377 N   0  0  0  0  0  0  0  0  0  0  0  0
  -30.7104  -17.2474   17.0769 N   0  0  0  0  0  0  0  0  0  0  0  0
  -26.9185  -16.2581   19.5120 N   0  0  0  0  0  0  0  0  0  0  0  0
  -23.7993  -31.2319   20.7092 N   0  0  0  0  0  0  0  0  0  0  0  0
  -28.8011  -12.3790   21.4836 N   0  0  0  0  0  0  0  0  0  0  0  0
  -28.0193   -8.7863   20.5483 N   0  0  0  0  0  0  0  0  0  0  0  0
  -21.3016  -29.2652   22.3289 N   0  0  0  0  0  0  0  0  0  0  0  0
  -24.4310  -34.4070   19.7203 N   0  0  0  0  0  0  0  0  0  0  0  0
  -28.1457  -22.3090   15.0720 N   0  3  0  0  0  0  0  0  0  0  0  0
  -27.8624  -35.4943   20.0535 N   0  3  0  0  0  0  0  0  0  0  0  0
  -31.0649  -17.1794   19.3997 O   0  0  0  0  0  0  0  0  0  0  0  0
  -27.8126   -9.0141   22.8207 O   0  0  0  0  0  0  0  0  0  0  0  0
  -27.9962  -18.1905   18.8016 O   0  0  0  0  0  0  0  0  0  0  0  0
  -22.1858  -29.2012   20.1756 O   0  0  0  0  0  0  0  0  0  0  0  0
  -22.6390  -33.0836   21.5221 O   0  0  0  0  0  0  0  0  0  0  0  0
  -26.3081  -33.6767   18.5713 O   0  0  0  0  0  0  0  0  0  0  0  0
  -21.3747   -7.2781   21.3839 O   0  0  0  0  0  0  0  0  0  0  0  0
  -27.6184  -26.9994   18.3525 O   0  0  0  0  0  0  0  0  0  1  0  0
  -30.6183  -23.5843   16.7467 O   0  0  0  0  0  0  0  0  0  0  0  0
  -22.4759   -2.2149   23.2696 F   0  0  0  0  0  0  0  0  0  0  0  0
  -20.0167   -6.2489   23.5609 F   0  0  0  0  0  0  0  0  0  0  0  0
  1  2  1  0  0  0  0
  1  5  2  0  0  0  0
  2  6  2  0  0  0  0
  3  9  2  0  0  0  0
  3 18  1  0  0  0  0
  4 10  1  0  0  0  0
  4 18  2  0  0  0  0
  5 20  1  0  0  0  0
  6 22  1  0  0  0  0
  7 11  2  0  0  0  0
  7 21  1  0  0  0  0
  8 12  2  0  0  0  0
  8 24  1  0  0  0  0
  9 26  1  0  0  0  0
 10 26  2  0  0  0  0
 11 27  1  0  0  0  0
 12 28  1  0  0  0  0
 13 14  2  0  0  0  0
 13 29  1  0  0  0  0
 14 30  1  0  0  0  0
 15 23  1  0  0  0  0
 15 27  2  0  0  0  0
 16 24  2  0  0  0  0
 16 25  1  0  0  0  0
 17 30  2  0  0  0  0
 17 31  1  0  0  0  0
 18 32  1  0  0  0  0
 19 32  1  0  0  0  0
 19 33  2  0  0  0  0
 19 35  1  0  0  0  0
 20 22  2  0  0  0  0
 20 40  1  0  0  0  0
 21 23  2  0  0  0  0
 21 41  1  0  0  0  0
 22 55  1  0  0  0  0
 23 42  1  0  0  0  0
 24 64  1  0  0  0  0
 25 28  2  0  0  0  0
 25 65  1  0  0  0  0
 26 89  1  0  0  0  0
 27 90  1  0  0  0  0
 28 91  1  0  0  0  0
 29 31  2  0  0  0  0
 29 89  1  0  0  0  0
 30 92  1  0  0  0  0
 31 93  1  0  0  0  0
 32 72  2  0  0  0  0
 33 73  1  0  0  0  0
 33 77  1  0  0  0  0
 34 56  1  0  0  0  0
 34 74  1  0  0  0  0
 34 83  2  0  0  0  0
 35 78  1  0  0  0  0
 35 84  2  0  0  0  0
 36 56  1  0  0  0  0
 36 75  1  0  0  0  0
 36 85  2  0  0  0  0
 37 57  1  0  0  0  0
 37 79  1  0  0  0  0
 37 86  2  0  0  0  0
 38 69  1  0  0  0  0
 38 76  1  0  0  0  0
 38 87  2  0  0  0  0
 39 70  1  0  0  0  0
 39 80  1  0  0  0  0
 39 88  2  0  0  0  0
 40 43  1  0  0  0  0
 41 57  1  0  0  0  0
 42 76  1  0  0  0  0
 43 47  1  0  0  0  0
 44 48  1  0  0  0  0
 44 50  1  0  0  0  0
 45 46  1  0  0  0  0
 45 53  1  0  0  0  0
 46 54  1  0  0  0  0
 47 55  1  0  0  0  0
 48 58  1  0  0  0  0
 49 51  1  0  0  0  0
 49 56  1  0  0  0  0
 50 75  1  0  0  0  0
 51 74  1  0  0  0  0
 52 58  1  0  0  0  0
 52 75  1  0  0  0  0
 53 81  1  0  0  0  0
 54 81  1  0  0  0  0
 55 79  1  0  0  0  0
 57 76  1  0  0  0  0
 58 73  1  0  0  0  0
 59 70  1  0  0  0  0
 60 71  1  0  0  0  0
 61 71  1  0  0  0  0
 62 71  1  0  0  0  0
 63 82  1  0  0  0  0
 64 74  1  0  0  0  0
 65 81  1  0  0  0  0
 66 67  1  0  0  0  0
 66 68  1  0  0  0  0
 67 90  1  0  0  0  0
 68 91  1  0  0  0  0
 69 71  1  0  0  0  0
 69 80  1  0  0  0  0
 70 82  1  0  0  0  0
 72 73  1  0  0  0  0
M  CHG  2  81   1  82   1
M  ISO  4  36 100  56 100  67 101  90 101
M  END
> <Batch ID>
0012

> <Smiles>
CNC(C)C(=O)NC(C(=O)N1Cc2cc([101O:1][101CH2:1]CCOc3ccc(CN4CC[100CH:0]([100C:0](=O)N5CCCC(n6nc(-c7ccc(Oc8ccc(F)cc8F)cc7)c(C(N)=O)c6N)C5)C4=O)cc3CN3CCCC3)ccc2CC1C(=O)NC1CCCc2ccccc21)C(C)(C)C

> <Shape>
0.241

> <Color>
0.108

> <Negative vol penalty>
0.000

$$$$

  -OEChem-04042320463D

 82 90  0     1  0  0  0  0  0999 V2000
  -17.7884  -32.9572   22.0745 C   0  0  0  0  0  0  0  0  0  0  0  0
  -19.0679  -33.0660   21.5393 C   0  0  0  0  0  0  0  0  0  0  0  0
  -23.0494  -13.0811   20.9633 C   0  0  0  0  0  0  0  0  0  0  0  0
  -23.3095  -14.7257   22.7139 C   0  0  0  0  0  0  0  0  0  0  0  0
  -17.5254  -32.0090   23.0622 C   0  0  0  0  0  0  0  0  0  0  0  0
  -20.0855  -32.2273   21.9923 C   0  0  0  0  0  0  0  0  0  0  0  0
  -25.9928  -28.8798   19.7086 C   0  0  0  0  0  0  0  0  0  0  0  0
  -30.7187  -21.5213   19.2402 C   0  0  0  0  0  0  0  0  0  0  0  0
  -22.3650  -12.2476   21.8479 C   0  0  0  0  0  0  0  0  0  0  0  0
  -22.6251  -13.8922   23.5986 C   0  0  0  0  0  0  0  0  0  0  0  0
  -27.3401  -28.7304   20.0343 C   0  0  0  0  0  0  0  0  0  0  0  0
  -31.0304  -22.8750   19.3659 C   0  0  0  0  0  0  0  0  0  0  0  0
  -19.2524  -12.0144   23.1479 C   0  0  0  0  0  0  0  0  0  0  0  0
  -18.0840  -11.4044   22.6914 C   0  0  0  0  0  0  0  0  0  0  0  0
  -26.7506  -27.0760   21.6880 C   0  0  0  0  0  0  0  0  0  0  0  0
  -28.3985  -22.0891   18.8780 C   0  0  0  0  0  0  0  0  0  0  0  0
  -19.0627   -9.2317   23.0901 C   0  0  0  0  0  0  0  0  0  0  0  0
  -23.5217  -14.3201   21.3963 C   0  0  0  0  0  0  0  0  0  0  0  0
  -23.6765  -16.1650   19.6413 C   0  0  0  0  0  0  0  0  0  0  0  0
  -18.5381  -31.1516   23.5207 C   0  0  0  0  0  0  0  0  0  0  0  0
  -25.0116  -28.1352   20.3788 C   0  0  0  0  0  0  0  0  0  0  0  0
  -19.8362  -31.2675   22.9881 C   0  0  0  0  0  0  0  0  0  0  0  0
  -25.3917  -27.2160   21.3671 C   0  0  0  0  0  0  0  0  0  0  0  0
  -29.4028  -21.1283   18.9962 C   0  0  0  0  0  0  0  0  0  0  0  0
  -22.1529  -12.6532   23.1656 C   0  0  0  0  0  0  0  0  0  0  0  0
  -27.7190  -27.8305   21.0261 C   0  0  0  0  0  0  0  0  0  0  0  0
  -20.3259  -11.2331   23.5754 C   0  0  0  0  0  0  0  0  0  0  0  0
  -30.0261  -23.8358   19.2478 C   0  0  0  0  0  0  0  0  0  0  0  0
  -17.9891  -10.0130   22.6625 C   0  0  0  0  0  0  0  0  0  0  0  0
  -28.7101  -23.4429   19.0038 C   0  0  0  0  0  0  0  0  0  0  0  0
  -20.2311   -9.8418   23.5465 C   0  0  0  0  0  0  0  0  0  0  0  0
  -24.2292  -15.1813   20.4831 C   0  0  0  0  0  0  0  0  0  0  0  0
  -24.7565  -16.6982   18.9811 C   0  0  0  0  0  0  0  0  0  0  0  0
  -22.3091  -16.5615   19.4714 C   0  0  0  0  0  0  0  0  0  0  0  0
  -22.5237  -28.8496   22.2236 C   0  0  0  0  0  0  0  0  0  0  0  0
  -21.9611  -25.6608   22.0310 C   0  0  0  0  0  0  0  0  0  0  0  0
  -23.2027  -22.5268   21.4987 C   0  0  0  0  0  0  0  0  0  0  0  0
  -29.9627  -18.6724   18.9586 C   0  0  0  0  0  0  0  0  0  0  0  0
  -18.2175  -30.1742   24.6236 C   0  0  0  0  0  0  0  0  0  0  0  0
  -23.5648  -28.2885   19.9972 C   0  0  0  0  0  0  0  0  0  0  0  0
  -24.3790  -26.3779   22.1023 C   0  0  0  0  0  0  0  0  0  0  0  0
  -19.2605  -29.0708   24.7819 C   0  0  0  0  0  0  0  0  0  0  0  0
  -29.5667  -15.1408   18.7393 C   0  0  0  0  0  0  0  0  0  0  0  0
  -20.6673  -29.6603   24.7690 C   0  0  0  0  0  0  0  0  0  0  0  0
  -28.0973  -14.9174   19.1042 C   0  0  0  0  0  0  0  0  0  0  0  0
  -30.1886  -16.2712   19.5572 C   0  0  0  0  0  0  0  0  0  0  0  0
  -27.9828  -17.3179   19.8864 C   0  0  0  0  0  0  0  0  0  0  0  0
  -20.9606  -30.3590   23.4358 C   0  0  1  0  0  0  0  0  0  0  0  0
  -22.6063  -27.8538   21.1015 C   0  0  1  0  0  0  0  0  0  0  0  0
  -27.2952  -16.2321   19.0426 C   0  0  2  0  0  0  0  0  0  0  0  0
  -22.5085  -20.1158   21.4447 C   0  0  0  0  0  0  0  0  0  0  0  0
  -21.8853  -25.6167   25.0810 C   0  0  0  0  0  0  0  0  0  0  0  0
  -22.1454  -23.1286   24.9821 C   0  0  0  0  0  0  0  0  0  0  0  0
  -20.1375  -24.2120   23.9736 C   0  0  0  0  0  0  0  0  0  0  0  0
  -23.9756  -22.2477   18.6556 C   0  0  0  0  0  0  0  0  0  0  0  0
  -31.2263  -27.0652   20.5521 C   0  0  0  0  0  0  0  0  0  0  0  0
  -29.9844  -27.9077   20.3065 C   0  0  0  0  0  0  0  0  0  1  0  0
  -30.9048  -25.5799   20.6049 C   0  0  0  0  0  0  0  0  0  0  0  0
  -22.3801  -24.4510   22.8310 C   0  0  1  0  0  0  0  0  0  0  0  0
  -22.7121  -21.3832   20.6292 C   0  0  2  0  0  0  0  0  0  0  0  0
  -21.6562  -24.3691   24.2046 C   0  0  0  0  0  0  0  0  0  0  0  0
  -25.5571  -15.0925   20.3698 N   0  0  0  0  0  0  0  0  0  0  0  0
  -25.8478  -16.0273   19.4491 N   0  0  0  0  0  0  0  0  0  0  0  0
  -22.9764  -26.5685   21.6976 N   0  0  0  0  0  0  0  0  0  0  0  0
  -29.3772  -17.4856   19.4479 N   0  0  0  0  0  0  0  0  0  0  0  0
  -24.8695  -17.6707   18.0517 N   0  0  0  0  0  0  0  0  0  0  0  0
  -21.3257  -15.9102   20.2283 N   0  0  0  0  0  0  0  0  0  0  0  0
  -29.0861  -19.7531   18.8684 N   0  0  0  0  0  0  0  0  0  0  0  0
  -21.2630  -29.3839   22.4100 N   0  0  0  0  0  0  0  0  0  0  0  0
  -22.1587  -23.2950   21.9691 N   0  0  0  0  0  0  0  0  0  0  0  0
  -23.6976  -21.0940   19.5493 N   0  3  0  0  0  0  0  0  0  0  0  0
  -21.9678  -17.4552   18.6600 O   0  0  0  0  0  0  0  0  0  0  0  0
  -23.5289  -29.1126   22.8733 O   0  0  0  0  0  0  0  0  0  0  0  0
  -20.7780  -25.7917   21.7075 O   0  0  0  0  0  0  0  0  0  0  0  0
  -24.3927  -22.7171   21.7399 O   0  0  0  0  0  0  0  0  0  0  0  0
  -31.1473  -18.7188   18.6172 O   0  0  0  0  0  0  0  0  0  0  0  0
  -21.4849  -11.8402   24.0290 O   0  0  0  0  0  0  0  0  0  0  0  0
  -29.0334  -27.6831   21.3464 O   0  0  0  0  0  0  0  0  0  1  0  0
  -30.3344  -25.1657   19.3709 O   0  0  0  0  0  0  0  0  0  0  0  0
  -16.8665   -9.4274   22.2256 F   0  0  0  0  0  0  0  0  0  0  0  0
  -27.7413  -24.3614   18.8881 F   0  0  0  0  0  0  0  0  0  0  0  0
  -21.2587   -9.0859   23.9571 F   0  0  0  0  0  0  0  0  0  0  0  0
  1  2  1  0  0  0  0
  1  5  2  0  0  0  0
  2  6  2  0  0  0  0
  3  9  2  0  0  0  0
  3 18  1  0  0  0  0
  4 10  1  0  0  0  0
  4 18  2  0  0  0  0
  5 20  1  0  0  0  0
  6 22  1  0  0  0  0
  7 11  2  0  0  0  0
  7 21  1  0  0  0  0
  8 12  2  0  0  0  0
  8 24  1  0  0  0  0
  9 25  1  0  0  0  0
 10 25  2  0  0  0  0
 11 26  1  0  0  0  0
 12 28  1  0  0  0  0
 13 14  2  0  0  0  0
 13 27  1  0  0  0  0
 14 29  1  0  0  0  0
 15 23  1  0  0  0  0
 15 26  2  0  0  0  0
 16 24  2  0  0  0  0
 16 30  1  0  0  0  0
 17 29  2  0  0  0  0
 17 31  1  0  0  0  0
 18 32  1  0  0  0  0
 19 32  1  0  0  0  0
 19 33  2  0  0  0  0
 19 34  1  0  0  0  0
 20 22  2  0  0  0  0
 20 39  1  0  0  0  0
 21 23  2  0  0  0  0
 21 40  1  0  0  0  0
 22 48  1  0  0  0  0
 23 41  1  0  0  0  0
 24 68  1  0  0  0  0
 25 77  1  0  0  0  0
 26 78  1  0  0  0  0
 27 31  2  0  0  0  0
 27 77  1  0  0  0  0
 28 30  2  0  0  0  0
 28 79  1  0  0  0  0
 29 80  1  0  0  0  0
 30 81  1  0  0  0  0
 31 82  1  0  0  0  0
 32 62  2  0  0  0  0
 33 63  1  0  0  0  0
 33 66  1  0  0  0  0
 34 67  1  0  0  0  0
 34 72  2  0  0  0  0
 35 49  1  0  0  0  0
 35 69  1  0  0  0  0
 35 73  2  0  0  0  0
 36 59  1  0  0  0  0
 36 64  1  0  0  0  0
 36 74  2  0  0  0  0
 37 60  1  0  0  0  0
 37 70  1  0  0  0  0
 37 75  2  0  0  0  0
 38 65  1  0  0  0  0
 38 68  1  0  0  0  0
 38 76  2  0  0  0  0
 39 42  1  0  0  0  0
 40 49  1  0  0  0  0
 41 64  1  0  0  0  0
 42 44  1  0  0  0  0
 43 45  1  0  0  0  0
 43 46  1  0  0  0  0
 44 48  1  0  0  0  0
 45 50  1  0  0  0  0
 46 65  1  0  0  0  0
 47 50  1  0  0  0  0
 47 65  1  0  0  0  0
 48 69  1  0  0  0  0
 49 64  1  0  0  0  0
 50 63  1  0  0  0  0
 51 60  1  0  0  0  0
 52 61  1  0  0  0  0
 53 61  1  0  0  0  0
 54 61  1  0  0  0  0
 55 71  1  0  0  0  0
 56 57  1  0  0  0  0
 56 58  1  0  0  0  0
 57 78  1  0  0  0  0
 58 79  1  0  0  0  0
 59 61  1  0  0  0  0
 59 70  1  0  0  0  0
 60 71  1  0  0  0  0
 62 63  1  0  0  0  0
M  CHG  1  71   1
M  ISO  4  38 100  57 101  68 100  78 101
M  END
> <Batch ID>
0012

> <Smiles>
CNC(C)C(=O)NC(C(=O)N1Cc2cc([101O:1][101CH2:1]CCOc3ccc([100NH:0][100C:0](=O)N4CCCC(n5nc(-c6ccc(Oc7ccc(F)cc7F)cc6)c(C(N)=O)c5N)C4)cc3F)ccc2CC1C(=O)NC1CCCc2ccccc21)C(C)(C)C

> <Shape>
0.201

> <Color>
0.083

> <Negative vol penalty>
0.000

$$$$

  -OEChem-04042320463D

 82 90  0     1  0  0  0  0  0999 V2000
  -19.9718  -28.8396   25.1160 C   0  0  0  0  0  0  0  0  0  0  0  0
  -19.9023  -27.8938   24.0981 C   0  0  0  0  0  0  0  0  0  0  0  0
  -23.7096  -15.8855   21.6585 C   0  0  0  0  0  0  0  0  0  0  0  0
  -23.0042  -15.1455   19.4694 C   0  0  0  0  0  0  0  0  0  0  0  0
  -20.9122  -29.8667   25.0487 C   0  0  0  0  0  0  0  0  0  0  0  0
  -20.7727  -27.9753   23.0117 C   0  0  0  0  0  0  0  0  0  0  0  0
  -25.2293  -22.5456   21.4153 C   0  0  0  0  0  0  0  0  0  0  0  0
  -31.1108  -16.0547   20.2067 C   0  0  0  0  0  0  0  0  0  0  0  0
  -22.8777  -16.9998   21.5499 C   0  0  0  0  0  0  0  0  0  0  0  0
  -22.1723  -16.2599   19.3608 C   0  0  0  0  0  0  0  0  0  0  0  0
  -25.9616  -21.4666   20.9197 C   0  0  0  0  0  0  0  0  0  0  0  0
  -30.8253  -17.3552   19.7912 C   0  0  0  0  0  0  0  0  0  0  0  0
  -20.6676  -19.8506   22.0006 C   0  0  0  0  0  0  0  0  0  0  0  0
  -19.8840  -20.1851   23.1050 C   0  0  0  0  0  0  0  0  0  0  0  0
  -26.8402  -22.8617   19.1506 C   0  0  0  0  0  0  0  0  0  0  0  0
  -29.7801  -17.8066   21.9221 C   0  0  0  0  0  0  0  0  0  0  0  0
  -18.8011  -18.0284   22.9898 C   0  0  0  0  0  0  0  0  0  0  0  0
  -23.7728  -14.9583   20.6182 C   0  0  0  0  0  0  0  0  0  0  0  0
  -24.3008  -12.5470   21.2622 C   0  0  0  0  0  0  0  0  0  0  0  0
  -21.8010  -29.9552   23.9657 C   0  0  0  0  0  0  0  0  0  0  0  0
  -25.3118  -23.7922   20.7887 C   0  0  0  0  0  0  0  0  0  0  0  0
  -21.7250  -29.0053   22.9292 C   0  0  0  0  0  0  0  0  0  0  0  0
  -26.1187  -23.9493   19.6499 C   0  0  0  0  0  0  0  0  0  0  0  0
  -30.7309  -15.6301   21.4799 C   0  0  0  0  0  0  0  0  0  0  0  0
  -22.1091  -17.1871   20.4010 C   0  0  0  0  0  0  0  0  0  0  0  0
  -26.7648  -21.6242   19.7900 C   0  0  0  0  0  0  0  0  0  0  0  0
  -30.1600  -18.2312   20.6489 C   0  0  0  0  0  0  0  0  0  0  0  0
  -20.5178  -18.6051   21.3907 C   0  0  0  0  0  0  0  0  0  0  0  0
  -18.9508  -19.2740   23.5997 C   0  0  0  0  0  0  0  0  0  0  0  0
  -30.0655  -16.5060   22.3376 C   0  0  0  0  0  0  0  0  0  0  0  0
  -19.5846  -17.6940   21.8854 C   0  0  0  0  0  0  0  0  0  0  0  0
  -24.6324  -13.8073   20.7296 C   0  0  0  0  0  0  0  0  0  0  0  0
  -25.4524  -11.8087   21.1397 C   0  0  0  0  0  0  0  0  0  0  0  0
  -23.0624  -12.0851   21.8179 C   0  0  0  0  0  0  0  0  0  0  0  0
  -24.2246  -27.3827   20.7446 C   0  0  0  0  0  0  0  0  0  0  0  0
  -27.2131  -27.3481   20.0532 C   0  0  0  0  0  0  0  0  0  0  0  0
  -30.5823  -26.9125   19.7437 C   0  0  0  0  0  0  0  0  0  0  0  0
  -31.1003  -13.2206   20.9805 C   0  0  0  0  0  0  0  0  0  0  0  0
  -22.7689  -31.1106   23.9135 C   0  0  0  0  0  0  0  0  0  0  0  0
  -24.4929  -24.9666   21.2514 C   0  0  0  0  0  0  0  0  0  0  0  0
  -26.1498  -25.2998   18.9880 C   0  0  0  0  0  0  0  0  0  0  0  0
  -23.9043  -30.9093   22.9131 C   0  0  0  0  0  0  0  0  0  0  0  0
  -29.3816  -11.4026   18.4538 C   0  0  0  0  0  0  0  0  0  0  0  0
  -23.3587  -30.4048   21.5809 C   0  0  0  0  0  0  0  0  0  0  0  0
  -27.9242  -11.7035   18.8017 C   0  0  0  0  0  0  0  0  0  0  0  0
  -30.2797  -12.6254   18.6441 C   0  0  0  0  0  0  0  0  0  0  0  0
  -28.7235  -13.5412   20.3364 C   0  0  0  0  0  0  0  0  0  0  0  0
  -22.6684  -29.0456   21.7466 C   0  0  1  0  0  0  0  0  0  0  0  0
  -25.2202  -26.3128   21.0842 C   0  0  1  0  0  0  0  0  0  0  0  0
  -27.8072  -12.3141   20.2094 C   0  0  1  0  0  0  0  0  0  0  0  0
  -32.7090  -28.1941   19.3800 C   0  0  0  0  0  0  0  0  0  0  0  0
  -26.5120  -27.6667   17.1018 C   0  0  0  0  0  0  0  0  0  0  0  0
  -28.9431  -28.0449   16.6382 C   0  0  0  0  0  0  0  0  0  0  0  0
  -27.6954  -29.6253   18.1106 C   0  0  0  0  0  0  0  0  0  0  0  0
  -31.4933  -14.0715   23.2820 C   0  0  0  0  0  0  0  0  0  0  0  0
  -31.6993  -26.0208   22.3352 C   0  0  0  0  0  0  0  0  0  0  0  0
  -28.7094  -20.8629   18.6513 C   0  0  0  0  0  0  0  0  0  1  0  0
  -29.6687  -19.7051   18.8483 C   0  0  0  0  0  0  0  0  0  0  0  0
  -28.2603  -27.3153   18.9689 C   0  0  1  0  0  0  0  0  0  0  0  0
  -31.7539  -27.6110   20.4099 C   0  0  2  0  0  0  0  0  0  0  0  0
  -27.8440  -28.1393   17.7178 C   0  0  0  0  0  0  0  0  0  0  0  0
  -25.8958  -13.8696   20.3008 N   0  0  0  0  0  0  0  0  0  0  0  0
  -26.3683  -12.6393   20.5640 N   0  0  0  0  0  0  0  0  0  0  0  0
  -26.2246  -26.3575   20.0080 N   0  0  0  0  0  0  0  0  0  0  0  0
  -30.1038  -13.1973   19.9865 N   0  0  0  0  0  0  0  0  0  0  0  0
  -25.7609  -10.5365   21.4696 N   0  0  0  0  0  0  0  0  0  0  0  0
  -21.9796  -12.9736   21.8673 N   0  0  0  0  0  0  0  0  0  0  0  0
  -23.6515  -27.9883   21.8466 N   0  0  0  0  0  0  0  0  0  0  0  0
  -29.5042  -27.7582   19.5893 N   0  0  0  0  0  0  0  0  0  0  0  0
  -31.0279  -14.2830   21.9071 N   0  0  0  0  0  0  0  0  0  0  0  0
  -32.5112  -26.6524   21.2634 N   0  3  0  0  0  0  0  0  0  0  0  0
  -22.9251  -10.9241   22.2726 O   0  0  0  0  0  0  0  0  0  0  0  0
  -23.9935  -27.6419   19.5694 O   0  0  0  0  0  0  0  0  0  0  0  0
  -27.2644  -28.2303   20.9148 O   0  0  0  0  0  0  0  0  0  0  0  0
  -30.6210  -25.7356   19.3918 O   0  0  0  0  0  0  0  0  0  0  0  0
  -31.9718  -12.3457   21.0510 O   0  0  0  0  0  0  0  0  0  0  0  0
  -21.2971  -18.2742   20.2948 O   0  0  0  0  0  0  0  0  0  0  0  0
  -27.4806  -20.5678   19.3141 O   0  0  0  0  0  0  0  0  0  1  0  0
  -29.8806  -19.5090   20.2411 O   0  0  0  0  0  0  0  0  0  0  0  0
  -18.1995  -19.5947   24.6612 F   0  0  0  0  0  0  0  0  0  0  0  0
  -29.6953  -16.1085   23.5633 F   0  0  0  0  0  0  0  0  0  0  0  0
  -19.4371  -16.4954   21.3044 F   0  0  0  0  0  0  0  0  0  0  0  0
  1  2  1  0  0  0  0
  1  5  2  0  0  0  0
  2  6  2  0  0  0  0
  3  9  2  0  0  0  0
  3 18  1  0  0  0  0
  4 10  1  0  0  0  0
  4 18  2  0  0  0  0
  5 20  1  0  0  0  0
  6 22  1  0  0  0  0
  7 11  2  0  0  0  0
  7 21  1  0  0  0  0
  8 12  2  0  0  0  0
  8 24  1  0  0  0  0
  9 25  1  0  0  0  0
 10 25  2  0  0  0  0
 11 26  1  0  0  0  0
 12 27  1  0  0  0  0
 13 14  2  0  0  0  0
 13 28  1  0  0  0  0
 14 29  1  0  0  0  0
 15 23  1  0  0  0  0
 15 26  2  0  0  0  0
 16 27  2  0  0  0  0
 16 30  1  0  0  0  0
 17 29  2  0  0  0  0
 17 31  1  0  0  0  0
 18 32  1  0  0  0  0
 19 32  1  0  0  0  0
 19 33  2  0  0  0  0
 19 34  1  0  0  0  0
 20 22  2  0  0  0  0
 20 39  1  0  0  0  0
 21 23  2  0  0  0  0
 21 40  1  0  0  0  0
 22 48  1  0  0  0  0
 23 41  1  0  0  0  0
 24 30  2  0  0  0  0
 24 70  1  0  0  0  0
 25 77  1  0  0  0  0
 26 78  1  0  0  0  0
 27 79  1  0  0  0  0
 28 31  2  0  0  0  0
 28 77  1  0  0  0  0
 29 80  1  0  0  0  0
 30 81  1  0  0  0  0
 31 82  1  0  0  0  0
 32 62  2  0  0  0  0
 33 63  1  0  0  0  0
 33 66  1  0  0  0  0
 34 67  1  0  0  0  0
 34 72  2  0  0  0  0
 35 49  1  0  0  0  0
 35 68  1  0  0  0  0
 35 73  2  0  0  0  0
 36 59  1  0  0  0  0
 36 64  1  0  0  0  0
 36 74  2  0  0  0  0
 37 60  1  0  0  0  0
 37 69  1  0  0  0  0
 37 75  2  0  0  0  0
 38 65  1  0  0  0  0
 38 70  1  0  0  0  0
 38 76  2  0  0  0  0
 39 42  1  0  0  0  0
 40 49  1  0  0  0  0
 41 64  1  0  0  0  0
 42 44  1  0  0  0  0
 43 45  1  0  0  0  0
 43 46  1  0  0  0  0
 44 48  1  0  0  0  0
 45 50  1  0  0  0  0
 46 65  1  0  0  0  0
 47 50  1  0  0  0  0
 47 65  1  0  0  0  0
 48 68  1  0  0  0  0
 49 64  1  0  0  0  0
 50 63  1  0  0  0  0
 51 60  1  0  0  0  0
 52 61  1  0  0  0  0
 53 61  1  0  0  0  0
 54 61  1  0  0  0  0
 55 70  1  0  0  0  0
 56 71  1  0  0  0  0
 57 58  1  0  0  0  0
 57 78  1  0  0  0  0
 58 79  1  0  0  0  0
 59 61  1  0  0  0  0
 59 69  1  0  0  0  0
 60 71  1  0  0  0  0
 62 63  1  0  0  0  0
M  CHG  1  71   1
M  ISO  4  38 100  57 101  70 100  78 101
M  END
> <Batch ID>
0012

> <Smiles>
CNC(C)C(=O)NC(C(=O)N1Cc2cc([101O:1][101CH2:1]COc3ccc([100N:0](C)[100C:0](=O)N4CCCC(n5nc(-c6ccc(Oc7ccc(F)cc7F)cc6)c(C(N)=O)c5N)C4)c(F)c3)ccc2CC1C(=O)NC1CCCc2ccccc21)C(C)(C)C

> <Shape>
0.265

> <Color>
0.084

> <Negative vol penalty>
0.000

$$$$

  -OEChem-04042320463D

 87 96  0     1  0  0  0  0  0999 V2000
  -19.4392  -24.5339   21.3608 C   0  0  0  0  0  0  0  0  0  0  0  0
  -20.8056  -24.3341   21.5296 C   0  0  0  0  0  0  0  0  0  0  0  0
  -24.2362  -11.2031   23.2563 C   0  0  0  0  0  0  0  0  0  0  0  0
  -23.0368  -10.1441   21.4460 C   0  0  0  0  0  0  0  0  0  0  0  0
  -18.9638  -25.7764   20.9436 C   0  0  0  0  0  0  0  0  0  0  0  0
  -21.6975  -25.3766   21.2803 C   0  0  0  0  0  0  0  0  0  0  0  0
  -26.9296  -26.5337   24.2454 C   0  0  0  0  0  0  0  0  0  0  0  0
  -27.2214  -23.8556   19.3458 C   0  0  0  0  0  0  0  0  0  0  0  0
  -23.6191  -10.3454   24.1669 C   0  0  0  0  0  0  0  0  0  0  0  0
  -22.4198   -9.2863   22.3566 C   0  0  0  0  0  0  0  0  0  0  0  0
  -28.2603  -26.2430   23.9481 C   0  0  0  0  0  0  0  0  0  0  0  0
  -28.2012  -24.8462   19.4100 C   0  0  0  0  0  0  0  0  0  0  0  0
  -23.2143   -6.4814   24.0658 C   0  0  0  0  0  0  0  0  0  0  0  0
  -23.1480   -5.1277   23.7362 C   0  0  0  0  0  0  0  0  0  0  0  0
  -28.5231  -28.4451   22.9990 C   0  0  0  0  0  0  0  0  0  0  0  0
  -29.8075  -23.2084   20.1681 C   0  0  0  0  0  0  0  0  0  0  0  0
  -20.7358   -5.2224   23.8323 C   0  0  0  0  0  0  0  0  0  0  0  0
  -23.9450  -11.1025   21.8958 C   0  0  0  0  0  0  0  0  0  0  0  0
  -25.7957  -11.7761   20.2745 C   0  0  0  0  0  0  0  0  0  0  0  0
  -19.8496  -26.8374   20.6982 C   0  0  0  0  0  0  0  0  0  0  0  0
  -26.3817  -27.7806   23.9114 C   0  0  0  0  0  0  0  0  0  0  0  0
  -21.2336  -26.6340   20.8581 C   0  0  0  0  0  0  0  0  0  0  0  0
  -27.1859  -28.7501   23.2955 C   0  0  0  0  0  0  0  0  0  0  0  0
  -27.5346  -22.5413   19.6928 C   0  0  0  0  0  0  0  0  0  0  0  0
  -22.7109   -9.3870   23.7170 C   0  0  0  0  0  0  0  0  0  0  0  0
  -29.0565  -27.1977   23.3222 C   0  0  0  0  0  0  0  0  0  0  0  0
  -29.4943  -24.5226   19.8212 C   0  0  0  0  0  0  0  0  0  0  0  0
  -22.0413   -7.2056   24.2788 C   0  0  0  0  0  0  0  0  0  0  0  0
  -21.9088   -4.4982   23.6194 C   0  0  0  0  0  0  0  0  0  0  0  0
  -28.8276  -22.2177   20.1039 C   0  0  0  0  0  0  0  0  0  0  0  0
  -20.8021   -6.5762   24.1620 C   0  0  0  0  0  0  0  0  0  0  0  0
  -24.5817  -11.9886   20.9548 C   0  0  0  0  0  0  0  0  0  0  0  0
  -25.9601  -12.9023   19.5056 C   0  0  0  0  0  0  0  0  0  0  0  0
  -26.6944  -10.6605   20.3323 C   0  0  0  0  0  0  0  0  0  0  0  0
  -24.0247  -28.7601   22.0169 C   0  0  0  0  0  0  0  0  0  0  0  0
  -24.6913  -31.6491   23.3327 C   0  0  0  0  0  0  0  0  0  0  0  0
  -26.9592  -33.6708   24.8872 C   0  0  0  0  0  0  0  0  0  0  0  0
  -25.8755  -18.4898   19.3430 C   0  0  0  0  0  0  0  0  0  0  0  0
  -19.2924  -28.1486   20.2033 C   0  0  0  0  0  0  0  0  0  0  0  0
  -24.9519  -28.0882   24.2630 C   0  0  0  0  0  0  0  0  0  0  0  0
  -26.6513  -30.1111   22.9345 C   0  0  0  0  0  0  0  0  0  0  0  0
  -20.2746  -29.3112   20.3213 C   0  0  0  0  0  0  0  0  0  0  0  0
  -22.7668  -16.6678   18.4389 C   0  0  0  0  0  0  0  0  0  0  0  0
  -21.6489  -28.9040   19.7994 C   0  0  0  0  0  0  0  0  0  0  0  0
  -23.0573  -15.2795   19.0085 C   0  0  0  0  0  0  0  0  0  0  0  0
  -25.6663  -20.2192   16.2828 C   0  0  0  0  0  0  0  0  0  0  0  0
  -23.4466  -17.7536   19.2640 C   0  0  0  0  0  0  0  0  0  0  0  0
  -24.7748  -19.5806   17.3184 C   0  0  0  0  0  0  0  0  0  0  0  0
  -25.2212  -16.1888   19.9754 C   0  0  0  0  0  0  0  0  0  0  0  0
  -26.4243  -21.2343   17.1073 C   0  0  0  0  0  0  0  0  0  0  0  0
  -22.2307  -27.7475   20.6214 C   0  0  1  0  0  0  0  0  0  0  0  0
  -24.3549  -29.2058   23.4133 C   0  0  1  0  0  0  0  0  0  0  0  0
  -24.5708  -15.0524   19.1675 C   0  0  1  0  0  0  0  0  0  0  0  0
  -27.2259  -35.9910   25.8052 C   0  0  0  0  0  0  0  0  0  0  0  0
  -24.9698  -32.7370   20.4956 C   0  0  0  0  0  0  0  0  0  0  0  0
  -26.1383  -34.7345   21.4509 C   0  0  0  0  0  0  0  0  0  0  0  0
  -23.7731  -34.2552   22.0822 C   0  0  0  0  0  0  0  0  0  0  0  0
  -27.4662  -32.6560   27.6207 C   0  0  0  0  0  0  0  0  0  0  0  0
  -26.4782  -21.4782   19.6222 C   0  0  0  0  0  0  0  0  0  0  0  0
  -32.0081  -26.6871   21.2824 C   0  0  0  0  0  0  0  0  0  0  0  0
  -30.9203  -27.5589   21.8899 C   0  0  0  0  0  0  0  0  0  1  0  0
  -31.4769  -25.3264   20.8599 C   0  0  0  0  0  0  0  0  0  0  0  0
  -25.6206  -32.7895   22.9936 C   0  0  1  0  0  0  0  0  0  0  0  0
  -26.8456  -34.5522   26.1180 C   0  0  2  0  0  0  0  0  0  0  0  0
  -25.1353  -33.6028   21.7605 C   0  0  0  0  0  0  0  0  0  0  0  0
  -24.0151  -13.1579   20.6455 N   0  0  0  0  0  0  0  0  0  0  0  0
  -24.8769  -13.6903   19.7624 N   0  0  0  0  0  0  0  0  0  0  0  0
  -25.2456  -30.3618   23.2931 N   0  0  0  0  0  0  0  0  0  0  0  0
  -24.8846  -17.4962   19.4062 N   0  0  0  0  0  0  0  0  0  0  0  0
  -25.6097  -19.5883   18.5196 N   0  0  0  0  0  0  0  0  0  0  0  0
  -26.9241  -13.2856   18.6418 N   0  0  0  0  0  0  0  0  0  0  0  0
  -26.3734   -9.5868   21.1741 N   0  0  0  0  0  0  0  0  0  0  0  0
  -22.7539  -28.2349   21.8797 N   0  0  0  0  0  0  0  0  0  0  0  0
  -25.7601  -33.5787   24.2126 N   0  0  0  0  0  0  0  0  0  0  0  0
  -26.6398  -20.5699   18.4477 N   0  3  1  0  0  0  0  0  0  0  0  0
  -27.7436  -34.0527   27.1974 N   0  3  0  0  0  0  0  0  0  0  0  0
  -27.7591  -10.6242   19.6699 O   0  0  0  0  0  0  0  0  0  0  0  0
  -24.8604  -28.8848   21.1294 O   0  0  0  0  0  0  0  0  0  0  0  0
  -23.5188  -31.8921   23.6289 O   0  0  0  0  0  0  0  0  0  0  0  0
  -28.0076  -33.1221   24.5553 O   0  0  0  0  0  0  0  0  0  0  0  0
  -26.9376  -18.3863   19.9698 O   0  0  0  0  0  0  0  0  0  0  0  0
  -22.1088   -8.5497   24.6053 O   0  0  0  0  0  0  0  0  0  0  0  0
  -30.3649  -26.9142   23.0282 O   0  0  0  0  0  0  0  0  0  1  0  0
  -30.4503  -25.4894   19.8825 O   0  0  0  0  0  0  0  0  0  0  0  0
  -21.8452   -3.1986   23.3013 F   0  0  0  0  0  0  0  0  0  0  0  0
  -29.1375  -20.9579   20.4405 F   0  0  0  0  0  0  0  0  0  0  0  0
  -19.6718   -7.2670   24.3643 F   0  0  0  0  0  0  0  0  0  0  0  0
  1  2  1  0  0  0  0
  1  5  2  0  0  0  0
  2  6  2  0  0  0  0
  3  9  2  0  0  0  0
  3 18  1  0  0  0  0
  4 10  1  0  0  0  0
  4 18  2  0  0  0  0
  5 20  1  0  0  0  0
  6 22  1  0  0  0  0
  7 11  2  0  0  0  0
  7 21  1  0  0  0  0
  8 12  2  0  0  0  0
  8 24  1  0  0  0  0
  9 25  1  0  0  0  0
 10 25  2  0  0  0  0
 11 26  1  0  0  0  0
 12 27  1  0  0  0  0
 13 14  2  0  0  0  0
 13 28  1  0  0  0  0
 14 29  1  0  0  0  0
 15 23  1  0  0  0  0
 15 26  2  0  0  0  0
 16 27  2  0  0  0  0
 16 30  1  0  0  0  0
 17 29  2  0  0  0  0
 17 31  1  0  0  0  0
 18 32  1  0  0  0  0
 19 32  1  0  0  0  0
 19 33  2  0  0  0  0
 19 34  1  0  0  0  0
 20 22  2  0  0  0  0
 20 39  1  0  0  0  0
 21 23  2  0  0  0  0
 21 40  1  0  0  0  0
 22 51  1  0  0  0  0
 23 41  1  0  0  0  0
 24 30  2  0  0  0  0
 24 59  1  0  0  0  0
 25 82  1  0  0  0  0
 26 83  1  0  0  0  0
 27 84  1  0  0  0  0
 28 31  2  0  0  0  0
 28 82  1  0  0  0  0
 29 85  1  0  0  0  0
 30 86  1  0  0  0  0
 31 87  1  0  0  0  0
 32 66  2  0  0  0  0
 33 67  1  0  0  0  0
 33 71  1  0  0  0  0
 34 72  1  0  0  0  0
 34 77  2  0  0  0  0
 35 52  1  0  0  0  0
 35 73  1  0  0  0  0
 35 78  2  0  0  0  0
 36 63  1  0  0  0  0
 36 68  1  0  0  0  0
 36 79  2  0  0  0  0
 37 64  1  0  0  0  0
 37 74  1  0  0  0  0
 37 80  2  0  0  0  0
 38 69  1  0  0  0  0
 38 70  1  0  0  0  0
 38 81  2  0  0  0  0
 39 42  1  0  0  0  0
 40 52  1  0  0  0  0
 41 68  1  0  0  0  0
 42 44  1  0  0  0  0
 43 45  1  0  0  0  0
 43 47  1  0  0  0  0
 44 51  1  0  0  0  0
 45 53  1  0  0  0  0
 46 48  1  0  0  0  0
 46 50  1  0  0  0  0
 47 69  1  0  0  0  0
 48 70  1  0  0  0  0
 49 53  1  0  0  0  0
 49 69  1  0  0  0  0
 50 75  1  0  0  0  0
 51 73  1  0  0  0  0
 52 68  1  0  0  0  0
 53 67  1  0  0  0  0
 54 64  1  0  0  0  0
 55 65  1  0  0  0  0
 56 65  1  0  0  0  0
 57 65  1  0  0  0  0
 58 76  1  0  0  0  0
 59 75  1  0  0  0  0
 60 61  1  0  0  0  0
 60 62  1  0  0  0  0
 61 83  1  0  0  0  0
 62 84  1  0  0  0  0
 63 65  1  0  0  0  0
 63 74  1  0  0  0  0
 64 76  1  0  0  0  0
 66 67  1  0  0  0  0
 70 75  1  0  0  0  0
M  CHG  2  75   1  76   1
M  ISO  4  38 100  61 101  70 100  83 101
M  END
> <Batch ID>
0012

> <Smiles>
CNC(C)C(=O)NC(C(=O)N1Cc2cc([101O:1][101CH2:1]CCOc3ccc(CN4CCC[100N:0]4[100C:0](=O)N4CCCC(n5nc(-c6ccc(Oc7ccc(F)cc7F)cc6)c(C(N)=O)c5N)C4)c(F)c3)ccc2CC1C(=O)NC1CCCc2ccccc21)C(C)(C)C

> <Shape>
0.245

> <Color>
0.075

> <Negative vol penalty>
0.000

$$$$

  -OEChem-04042320463D

 82 90  0     1  0  0  0  0  0999 V2000
  -21.8540  -11.6979   19.8899 C   0  0  0  0  0  0  0  0  0  0  0  0
  -21.5977  -13.0332   20.1841 C   0  0  0  0  0  0  0  0  0  0  0  0
  -29.7962  -25.6344   20.2638 C   0  0  0  0  0  0  0  0  0  0  0  0
  -28.5671  -24.5306   22.0267 C   0  0  0  0  0  0  0  0  0  0  0  0
  -23.1424  -11.1868   20.0409 C   0  0  0  0  0  0  0  0  0  0  0  0
  -22.6296  -13.8580   20.6307 C   0  0  0  0  0  0  0  0  0  0  0  0
  -23.3600  -19.8186   19.4290 C   0  0  0  0  0  0  0  0  0  0  0  0
  -19.4943  -29.4338   22.0846 C   0  0  0  0  0  0  0  0  0  0  0  0
  -30.9849  -25.0943   20.7543 C   0  0  0  0  0  0  0  0  0  0  0  0
  -29.7559  -23.9904   22.5172 C   0  0  0  0  0  0  0  0  0  0  0  0
  -23.0548  -20.9668   20.1586 C   0  0  0  0  0  0  0  0  0  0  0  0
  -33.1535  -25.7205   23.2701 C   0  0  0  0  0  0  0  0  0  0  0  0
  -18.1392  -29.1425   21.9286 C   0  0  0  0  0  0  0  0  0  0  0  0
  -34.2558  -26.5689   23.3735 C   0  0  0  0  0  0  0  0  0  0  0  0
  -25.3220  -21.0406   20.9794 C   0  0  0  0  0  0  0  0  0  0  0  0
  -18.5507  -26.8620   22.6120 C   0  0  0  0  0  0  0  0  0  0  0  0
  -35.4916  -25.1474   21.8603 C   0  0  0  0  0  0  0  0  0  0  0  0
  -28.5872  -25.3526   20.9000 C   0  0  0  0  0  0  0  0  0  0  0  0
  -26.4972  -25.3418   19.4374 C   0  0  0  0  0  0  0  0  0  0  0  0
  -24.1926  -12.0082   20.4803 C   0  0  0  0  0  0  0  0  0  0  0  0
  -24.6477  -19.2656   19.4779 C   0  0  0  0  0  0  0  0  0  0  0  0
  -23.9329  -13.3572   20.7890 C   0  0  0  0  0  0  0  0  0  0  0  0
  -25.6416  -19.8868   20.2475 C   0  0  0  0  0  0  0  0  0  0  0  0
  -20.3777  -28.4392   22.5043 C   0  0  0  0  0  0  0  0  0  0  0  0
  -30.9648  -24.2722   21.8810 C   0  0  0  0  0  0  0  0  0  0  0  0
  -24.0351  -21.5763   20.9362 C   0  0  0  0  0  0  0  0  0  0  0  0
  -33.2202  -24.5856   22.4619 C   0  0  0  0  0  0  0  0  0  0  0  0
  -19.9059  -27.1533   22.7680 C   0  0  0  0  0  0  0  0  0  0  0  0
  -17.6674  -27.8566   22.1923 C   0  0  0  0  0  0  0  0  0  0  0  0
  -35.4249  -26.2824   22.6686 C   0  0  0  0  0  0  0  0  0  0  0  0
  -34.3892  -24.2991   21.7570 C   0  0  0  0  0  0  0  0  0  0  0  0
  -27.3590  -25.9108   20.3942 C   0  0  0  0  0  0  0  0  0  0  0  0
  -25.4814  -26.2565   19.3032 C   0  0  0  0  0  0  0  0  0  0  0  0
  -26.6052  -24.0976   18.7331 C   0  0  0  0  0  0  0  0  0  0  0  0
  -25.8617  -16.4892   20.4378 C   0  0  0  0  0  0  0  0  0  0  0  0
  -28.6029  -17.7044   19.2003 C   0  0  0  0  0  0  0  0  0  0  0  0
  -30.4096  -20.4609   18.3150 C   0  0  0  0  0  0  0  0  0  0  0  0
  -22.3692  -29.9804   22.4348 C   0  0  0  0  0  0  0  0  0  0  0  0
  -25.5587  -11.3990   20.6734 C   0  0  0  0  0  0  0  0  0  0  0  0
  -24.9681  -18.0419   18.6640 C   0  0  0  0  0  0  0  0  0  0  0  0
  -27.0450  -19.3443   20.3178 C   0  0  0  0  0  0  0  0  0  0  0  0
  -26.6753  -12.4329   20.7934 C   0  0  0  0  0  0  0  0  0  0  0  0
  -24.9840  -31.0809   20.2833 C   0  0  0  0  0  0  0  0  0  0  0  0
  -26.2724  -13.5443   21.7574 C   0  0  0  0  0  0  0  0  0  0  0  0
  -25.7798  -29.8052   19.9980 C   0  0  0  0  0  0  0  0  0  0  0  0
  -24.4612  -31.1141   21.7184 C   0  0  0  0  0  0  0  0  0  0  0  0
  -24.4918  -28.6539   21.8425 C   0  0  0  0  0  0  0  0  0  0  0  0
  -25.0311  -14.2897   21.2522 C   0  0  1  0  0  0  0  0  0  0  0  0
  -26.1735  -17.2711   19.1932 C   0  0  1  0  0  0  0  0  0  0  0  0
  -24.9839  -28.5449   20.3901 C   0  0  2  0  0  0  0  0  0  0  0  0
  -32.2982  -21.7908   17.3341 C   0  0  0  0  0  0  0  0  0  0  0  0
  -29.9245  -17.1289   21.8896 C   0  0  0  0  0  0  0  0  0  0  0  0
  -31.7938  -18.6532   21.2184 C   0  0  0  0  0  0  0  0  0  0  0  0
  -31.3354  -16.5878   19.8968 C   0  0  0  0  0  0  0  0  0  0  0  0
  -29.1448  -20.5019   15.6396 C   0  0  0  0  0  0  0  0  0  0  0  0
  -22.2512  -24.4277   22.4309 C   0  0  0  0  0  0  0  0  0  0  0  0
  -22.4054  -23.1938   21.5556 C   0  0  0  0  0  0  0  0  0  1  0  0
  -20.8489  -25.0103   22.3510 C   0  0  0  0  0  0  0  0  0  0  0  0
  -29.7389  -18.5416   19.7365 C   0  0  1  0  0  0  0  0  0  0  0  0
  -31.1835  -20.7953   17.0526 C   0  0  2  0  0  0  0  0  0  0  0  0
  -30.6713  -17.7372   20.6857 C   0  0  0  0  0  0  0  0  0  0  0  0
  -26.9283  -27.0953   20.8363 N   0  0  0  0  0  0  0  0  0  0  0  0
  -25.7849  -27.2781   20.1542 N   0  0  0  0  0  0  0  0  0  0  0  0
  -27.3073  -18.1423   19.5092 N   0  0  0  0  0  0  0  0  0  0  0  0
  -23.7139  -29.8905   22.0170 N   0  0  0  0  0  0  0  0  0  0  0  0
  -24.3672  -26.2785   18.5412 N   0  0  0  0  0  0  0  0  0  0  0  0
  -27.7125  -23.2779   18.9907 N   0  0  0  0  0  0  0  0  0  0  0  0
  -21.7515  -28.7503   22.6582 N   0  0  0  0  0  0  0  0  0  0  0  0
  -25.3904  -15.2127   20.1970 N   0  0  0  0  0  0  0  0  0  0  0  0
  -30.4141  -19.1065   18.5732 N   0  0  0  0  0  0  0  0  0  0  0  0
  -30.2749  -21.3843   16.0286 N   0  3  0  0  0  0  0  0  0  0  0  0
  -25.7537  -23.7315   17.8879 O   0  0  0  0  0  0  0  0  0  0  0  0
  -26.0371  -17.0052   21.5354 O   0  0  0  0  0  0  0  0  0  0  0  0
  -28.8557  -16.7028   18.5261 O   0  0  0  0  0  0  0  0  0  0  0  0
  -29.8595  -21.3162   19.0052 O   0  0  0  0  0  0  0  0  0  0  0  0
  -21.7990  -31.0675   22.5572 O   0  0  0  0  0  0  0  0  0  0  0  0
  -32.1246  -23.7447   22.3597 O   0  0  0  0  0  0  0  0  0  0  0  0
  -23.7397  -22.6968   21.6498 O   0  0  0  0  0  0  0  0  0  1  0  0
  -20.7566  -26.1608   23.1802 O   0  0  0  0  0  0  0  0  0  0  0  0
  -16.3658  -27.5775   22.0429 F   0  0  0  0  0  0  0  0  0  0  0  0
  -36.4829  -27.0979   22.7668 F   0  0  0  0  0  0  0  0  0  0  0  0
  -34.4589  -23.2109   20.9781 F   0  0  0  0  0  0  0  0  0  0  0  0
  1  2  1  0  0  0  0
  1  5  2  0  0  0  0
  2  6  2  0  0  0  0
  3  9  2  0  0  0  0
  3 18  1  0  0  0  0
  4 10  1  0  0  0  0
  4 18  2  0  0  0  0
  5 20  1  0  0  0  0
  6 22  1  0  0  0  0
  7 11  2  0  0  0  0
  7 21  1  0  0  0  0
  8 13  2  0  0  0  0
  8 24  1  0  0  0  0
  9 25  1  0  0  0  0
 10 25  2  0  0  0  0
 11 26  1  0  0  0  0
 12 14  2  0  0  0  0
 12 27  1  0  0  0  0
 13 29  1  0  0  0  0
 14 30  1  0  0  0  0
 15 23  1  0  0  0  0
 15 26  2  0  0  0  0
 16 28  1  0  0  0  0
 16 29  2  0  0  0  0
 17 30  2  0  0  0  0
 17 31  1  0  0  0  0
 18 32  1  0  0  0  0
 19 32  1  0  0  0  0
 19 33  2  0  0  0  0
 19 34  1  0  0  0  0
 20 22  2  0  0  0  0
 20 39  1  0  0  0  0
 21 23  2  0  0  0  0
 21 40  1  0  0  0  0
 22 48  1  0  0  0  0
 23 41  1  0  0  0  0
 24 28  2  0  0  0  0
 24 68  1  0  0  0  0
 25 77  1  0  0  0  0
 26 78  1  0  0  0  0
 27 31  2  0  0  0  0
 27 77  1  0  0  0  0
 28 79  1  0  0  0  0
 29 80  1  0  0  0  0
 30 81  1  0  0  0  0
 31 82  1  0  0  0  0
 32 62  2  0  0  0  0
 33 63  1  0  0  0  0
 33 66  1  0  0  0  0
 34 67  1  0  0  0  0
 34 72  2  0  0  0  0
 35 49  1  0  0  0  0
 35 69  1  0  0  0  0
 35 73  2  0  0  0  0
 36 59  1  0  0  0  0
 36 64  1  0  0  0  0
 36 74  2  0  0  0  0
 37 60  1  0  0  0  0
 37 70  1  0  0  0  0
 37 75  2  0  0  0  0
 38 65  1  0  0  0  0
 38 68  1  0  0  0  0
 38 76  2  0  0  0  0
 39 42  1  0  0  0  0
 40 49  1  0  0  0  0
 41 64  1  0  0  0  0
 42 44  1  0  0  0  0
 43 45  1  0  0  0  0
 43 46  1  0  0  0  0
 44 48  1  0  0  0  0
 45 50  1  0  0  0  0
 46 65  1  0  0  0  0
 47 50  1  0  0  0  0
 47 65  1  0  0  0  0
 48 69  1  0  0  0  0
 49 64  1  0  0  0  0
 50 63  1  0  0  0  0
 51 60  1  0  0  0  0
 52 61  1  0  0  0  0
 53 61  1  0  0  0  0
 54 61  1  0  0  0  0
 55 71  1  0  0  0  0
 56 57  1  0  0  0  0
 56 58  1  0  0  0  0
 57 78  1  0  0  0  0
 58 79  1  0  0  0  0
 59 61  1  0  0  0  0
 59 70  1  0  0  0  0
 60 71  1  0  0  0  0
 62 63  1  0  0  0  0
M  CHG  1  71   1
M  ISO  4  38 100  57 101  68 100  78 101
M  END
> <Batch ID>
0012

> <Smiles>
CNC(C)C(=O)NC(C(=O)N1Cc2cc([101O:1][101CH2:1]CCOc3cc(F)ccc3[100NH:0][100C:0](=O)N3CCCC(n4nc(-c5ccc(Oc6ccc(F)cc6F)cc5)c(C(N)=O)c4N)C3)ccc2CC1C(=O)NC1CCCc2ccccc21)C(C)(C)C

> <Shape>
0.232

> <Color>
0.084

> <Negative vol penalty>
0.000

$$$$

  -OEChem-04042320463D

 82 90  0     1  0  0  0  0  0999 V2000
  -17.7884  -32.9572   22.0745 C   0  0  0  0  0  0  0  0  0  0  0  0
  -19.0679  -33.0660   21.5393 C   0  0  0  0  0  0  0  0  0  0  0  0
  -23.0494  -13.0811   20.9633 C   0  0  0  0  0  0  0  0  0  0  0  0
  -23.3095  -14.7257   22.7139 C   0  0  0  0  0  0  0  0  0  0  0  0
  -17.5254  -32.0090   23.0622 C   0  0  0  0  0  0  0  0  0  0  0  0
  -20.0855  -32.2273   21.9923 C   0  0  0  0  0  0  0  0  0  0  0  0
  -25.9928  -28.8798   19.7086 C   0  0  0  0  0  0  0  0  0  0  0  0
  -30.7187  -21.5213   19.2402 C   0  0  0  0  0  0  0  0  0  0  0  0
  -22.3650  -12.2476   21.8479 C   0  0  0  0  0  0  0  0  0  0  0  0
  -22.6251  -13.8922   23.5986 C   0  0  0  0  0  0  0  0  0  0  0  0
  -27.3401  -28.7304   20.0343 C   0  0  0  0  0  0  0  0  0  0  0  0
  -31.0304  -22.8750   19.3659 C   0  0  0  0  0  0  0  0  0  0  0  0
  -19.2524  -12.0144   23.1479 C   0  0  0  0  0  0  0  0  0  0  0  0
  -18.0840  -11.4044   22.6914 C   0  0  0  0  0  0  0  0  0  0  0  0
  -26.7506  -27.0760   21.6880 C   0  0  0  0  0  0  0  0  0  0  0  0
  -28.3985  -22.0891   18.8780 C   0  0  0  0  0  0  0  0  0  0  0  0
  -19.0627   -9.2317   23.0901 C   0  0  0  0  0  0  0  0  0  0  0  0
  -23.5217  -14.3201   21.3963 C   0  0  0  0  0  0  0  0  0  0  0  0
  -23.6765  -16.1650   19.6413 C   0  0  0  0  0  0  0  0  0  0  0  0
  -18.5381  -31.1516   23.5207 C   0  0  0  0  0  0  0  0  0  0  0  0
  -25.0116  -28.1352   20.3788 C   0  0  0  0  0  0  0  0  0  0  0  0
  -19.8362  -31.2675   22.9881 C   0  0  0  0  0  0  0  0  0  0  0  0
  -25.3917  -27.2160   21.3671 C   0  0  0  0  0  0  0  0  0  0  0  0
  -29.4028  -21.1283   18.9962 C   0  0  0  0  0  0  0  0  0  0  0  0
  -22.1529  -12.6532   23.1656 C   0  0  0  0  0  0  0  0  0  0  0  0
  -27.7190  -27.8305   21.0261 C   0  0  0  0  0  0  0  0  0  0  0  0
  -20.3259  -11.2331   23.5754 C   0  0  0  0  0  0  0  0  0  0  0  0
  -30.0261  -23.8358   19.2478 C   0  0  0  0  0  0  0  0  0  0  0  0
  -17.9891  -10.0130   22.6625 C   0  0  0  0  0  0  0  0  0  0  0  0
  -28.7101  -23.4429   19.0038 C   0  0  0  0  0  0  0  0  0  0  0  0
  -20.2311   -9.8418   23.5465 C   0  0  0  0  0  0  0  0  0  0  0  0
  -24.2292  -15.1813   20.4831 C   0  0  0  0  0  0  0  0  0  0  0  0
  -24.7565  -16.6982   18.9811 C   0  0  0  0  0  0  0  0  0  0  0  0
  -22.3091  -16.5615   19.4714 C   0  0  0  0  0  0  0  0  0  0  0  0
  -22.5237  -28.8496   22.2236 C   0  0  0  0  0  0  0  0  0  0  0  0
  -21.9611  -25.6608   22.0310 C   0  0  0  0  0  0  0  0  0  0  0  0
  -23.2027  -22.5268   21.4987 C   0  0  0  0  0  0  0  0  0  0  0  0
  -29.9627  -18.6724   18.9586 C   0  0  0  0  0  0  0  0  0  0  0  0
  -18.2175  -30.1742   24.6236 C   0  0  0  0  0  0  0  0  0  0  0  0
  -23.5648  -28.2885   19.9972 C   0  0  0  0  0  0  0  0  0  0  0  0
  -24.3790  -26.3779   22.1023 C   0  0  0  0  0  0  0  0  0  0  0  0
  -19.2605  -29.0708   24.7819 C   0  0  0  0  0  0  0  0  0  0  0  0
  -29.5667  -15.1408   18.7393 C   0  0  0  0  0  0  0  0  0  0  0  0
  -20.6673  -29.6603   24.7690 C   0  0  0  0  0  0  0  0  0  0  0  0
  -28.0973  -14.9174   19.1042 C   0  0  0  0  0  0  0  0  0  0  0  0
  -30.1886  -16.2712   19.5572 C   0  0  0  0  0  0  0  0  0  0  0  0
  -27.9828  -17.3179   19.8864 C   0  0  0  0  0  0  0  0  0  0  0  0
  -20.9606  -30.3590   23.4358 C   0  0  1  0  0  0  0  0  0  0  0  0
  -22.6063  -27.8538   21.1015 C   0  0  1  0  0  0  0  0  0  0  0  0
  -27.2952  -16.2321   19.0426 C   0  0  2  0  0  0  0  0  0  0  0  0
  -22.5085  -20.1158   21.4447 C   0  0  0  0  0  0  0  0  0  0  0  0
  -21.8853  -25.6167   25.0810 C   0  0  0  0  0  0  0  0  0  0  0  0
  -22.1454  -23.1286   24.9821 C   0  0  0  0  0  0  0  0  0  0  0  0
  -20.1375  -24.2120   23.9736 C   0  0  0  0  0  0  0  0  0  0  0  0
  -23.9756  -22.2477   18.6556 C   0  0  0  0  0  0  0  0  0  0  0  0
  -31.2263  -27.0652   20.5521 C   0  0  0  0  0  0  0  0  0  0  0  0
  -29.9844  -27.9077   20.3065 C   0  0  0  0  0  0  0  0  0  1  0  0
  -30.9048  -25.5799   20.6049 C   0  0  0  0  0  0  0  0  0  0  0  0
  -22.3801  -24.4510   22.8310 C   0  0  1  0  0  0  0  0  0  0  0  0
  -22.7121  -21.3832   20.6292 C   0  0  2  0  0  0  0  0  0  0  0  0
  -21.6562  -24.3691   24.2046 C   0  0  0  0  0  0  0  0  0  0  0  0
  -25.5571  -15.0925   20.3698 N   0  0  0  0  0  0  0  0  0  0  0  0
  -25.8478  -16.0273   19.4491 N   0  0  0  0  0  0  0  0  0  0  0  0
  -22.9764  -26.5685   21.6976 N   0  0  0  0  0  0  0  0  0  0  0  0
  -29.3772  -17.4856   19.4479 N   0  0  0  0  0  0  0  0  0  0  0  0
  -24.8695  -17.6707   18.0517 N   0  0  0  0  0  0  0  0  0  0  0  0
  -21.3257  -15.9102   20.2283 N   0  0  0  0  0  0  0  0  0  0  0  0
  -29.0861  -19.7531   18.8684 N   0  0  0  0  0  0  0  0  0  0  0  0
  -21.2630  -29.3839   22.4100 N   0  0  0  0  0  0  0  0  0  0  0  0
  -22.1587  -23.2950   21.9691 N   0  0  0  0  0  0  0  0  0  0  0  0
  -23.6976  -21.0940   19.5493 N   0  3  0  0  0  0  0  0  0  0  0  0
  -21.9678  -17.4552   18.6600 O   0  0  0  0  0  0  0  0  0  0  0  0
  -23.5289  -29.1126   22.8733 O   0  0  0  0  0  0  0  0  0  0  0  0
  -20.7780  -25.7917   21.7075 O   0  0  0  0  0  0  0  0  0  0  0  0
  -24.3927  -22.7171   21.7399 O   0  0  0  0  0  0  0  0  0  0  0  0
  -31.1473  -18.7188   18.6172 O   0  0  0  0  0  0  0  0  0  0  0  0
  -21.4849  -11.8402   24.0290 O   0  0  0  0  0  0  0  0  0  0  0  0
  -29.0334  -27.6831   21.3464 O   0  0  0  0  0  0  0  0  0  1  0  0
  -30.3344  -25.1657   19.3709 O   0  0  0  0  0  0  0  0  0  0  0  0
  -16.8665   -9.4274   22.2256 F   0  0  0  0  0  0  0  0  0  0  0  0
  -27.7413  -24.3614   18.8881 F   0  0  0  0  0  0  0  0  0  0  0  0
  -21.2587   -9.0859   23.9571 F   0  0  0  0  0  0  0  0  0  0  0  0
  1  2  1  0  0  0  0
  1  5  2  0  0  0  0
  2  6  2  0  0  0  0
  3  9  2  0  0  0  0
  3 18  1  0  0  0  0
  4 10  1  0  0  0  0
  4 18  2  0  0  0  0
  5 20  1  0  0  0  0
  6 22  1  0  0  0  0
  7 11  2  0  0  0  0
  7 21  1  0  0  0  0
  8 12  2  0  0  0  0
  8 24  1  0  0  0  0
  9 25  1  0  0  0  0
 10 25  2  0  0  0  0
 11 26  1  0  0  0  0
 12 28  1  0  0  0  0
 13 14  2  0  0  0  0
 13 27  1  0  0  0  0
 14 29  1  0  0  0  0
 15 23  1  0  0  0  0
 15 26  2  0  0  0  0
 16 24  2  0  0  0  0
 16 30  1  0  0  0  0
 17 29  2  0  0  0  0
 17 31  1  0  0  0  0
 18 32  1  0  0  0  0
 19 32  1  0  0  0  0
 19 33  2  0  0  0  0
 19 34  1  0  0  0  0
 20 22  2  0  0  0  0
 20 39  1  0  0  0  0
 21 23  2  0  0  0  0
 21 40  1  0  0  0  0
 22 48  1  0  0  0  0
 23 41  1  0  0  0  0
 24 68  1  0  0  0  0
 25 77  1  0  0  0  0
 26 78  1  0  0  0  0
 27 31  2  0  0  0  0
 27 77  1  0  0  0  0
 28 30  2  0  0  0  0
 28 79  1  0  0  0  0
 29 80  1  0  0  0  0
 30 81  1  0  0  0  0
 31 82  1  0  0  0  0
 32 62  2  0  0  0  0
 33 63  1  0  0  0  0
 33 66  1  0  0  0  0
 34 67  1  0  0  0  0
 34 72  2  0  0  0  0
 35 49  1  0  0  0  0
 35 69  1  0  0  0  0
 35 73  2  0  0  0  0
 36 59  1  0  0  0  0
 36 64  1  0  0  0  0
 36 74  2  0  0  0  0
 37 60  1  0  0  0  0
 37 70  1  0  0  0  0
 37 75  2  0  0  0  0
 38 65  1  0  0  0  0
 38 68  1  0  0  0  0
 38 76  2  0  0  0  0
 39 42  1  0  0  0  0
 40 49  1  0  0  0  0
 41 64  1  0  0  0  0
 42 44  1  0  0  0  0
 43 45  1  0  0  0  0
 43 46  1  0  0  0  0
 44 48  1  0  0  0  0
 45 50  1  0  0  0  0
 46 65  1  0  0  0  0
 47 50  1  0  0  0  0
 47 65  1  0  0  0  0
 48 69  1  0  0  0  0
 49 64  1  0  0  0  0
 50 63  1  0  0  0  0
 51 60  1  0  0  0  0
 52 61  1  0  0  0  0
 53 61  1  0  0  0  0
 54 61  1  0  0  0  0
 55 71  1  0  0  0  0
 56 57  1  0  0  0  0
 56 58  1  0  0  0  0
 57 78  1  0  0  0  0
 58 79  1  0  0  0  0
 59 61  1  0  0  0  0
 59 70  1  0  0  0  0
 60 71  1  0  0  0  0
 62 63  1  0  0  0  0
M  CHG  1  71   1
M  ISO  4  38 100  57 101  68 100  78 101
M  END
> <Batch ID>
0012

> <Smiles>
CNC(C)C(=O)NC(C(=O)N1Cc2cc([101O:1][101CH2:1]CCOc3ccc([100NH:0][100C:0](=O)N4CCCC(n5nc(-c6ccc(Oc7ccc(F)cc7F)cc6)c(C(N)=O)c5N)C4)cc3F)ccc2CC1C(=O)NC1CCCc2ccccc21)C(C)(C)C

> <Shape>
0.201

> <Color>
0.083

> <Negative vol penalty>
0.000

$$$$

  -OEChem-04042320463D

 87 97  0     1  0  0  0  0  0999 V2000
  -30.1975  -17.1062   22.6581 C   0  0  0  0  0  0  0  0  0  0  0  0
  -30.2476  -17.7377   21.4195 C   0  0  0  0  0  0  0  0  0  0  0  0
  -22.8641  -10.0386   20.0462 C   0  0  0  0  0  0  0  0  0  0  0  0
  -24.2648   -9.4696   21.9307 C   0  0  0  0  0  0  0  0  0  0  0  0
  -29.6642  -17.7749   23.7592 C   0  0  0  0  0  0  0  0  0  0  0  0
  -29.7635  -19.0381   21.2811 C   0  0  0  0  0  0  0  0  0  0  0  0
  -32.8733  -21.9927   18.5896 C   0  0  0  0  0  0  0  0  0  0  0  0
  -22.1588   -8.8464   20.2105 C   0  0  0  0  0  0  0  0  0  0  0  0
  -23.5595   -8.2775   22.0950 C   0  0  0  0  0  0  0  0  0  0  0  0
  -32.8511  -21.8446   17.2034 C   0  0  0  0  0  0  0  0  0  0  0  0
  -21.8953   -5.2527   23.2349 C   0  0  0  0  0  0  0  0  0  0  0  0
  -21.5165   -4.8955   24.5288 C   0  0  0  0  0  0  0  0  0  0  0  0
  -28.7297  -17.8012   13.9925 C   0  0  0  0  0  0  0  0  0  0  0  0
  -31.4427  -23.7948   17.0237 C   0  0  0  0  0  0  0  0  0  0  0  0
  -29.8473  -18.9387   15.8244 C   0  0  0  0  0  0  0  0  0  0  0  0
  -20.2306   -6.9325   24.7146 C   0  0  0  0  0  0  0  0  0  0  0  0
  -23.9171  -10.3502   20.9063 C   0  0  0  0  0  0  0  0  0  0  0  0
  -24.1308  -12.8898   20.7961 C   0  0  0  0  0  0  0  0  0  0  0  0
  -29.1822  -19.0876   23.6364 C   0  0  0  0  0  0  0  0  0  0  0  0
  -32.1702  -23.0383   19.2050 C   0  0  0  0  0  0  0  0  0  0  0  0
  -29.2221  -19.7245   22.3813 C   0  0  0  0  0  0  0  0  0  0  0  0
  -28.7196  -16.6480   14.7613 C   0  0  0  0  0  0  0  0  0  0  0  0
  -31.4596  -23.9554   18.4176 C   0  0  0  0  0  0  0  0  0  0  0  0
  -29.2963  -18.9551   14.5348 C   0  0  0  0  0  0  0  0  0  0  0  0
  -29.2705  -16.6283   16.0439 C   0  0  0  0  0  0  0  0  0  0  0  0
  -22.5065   -7.9659   21.2349 C   0  0  0  0  0  0  0  0  0  0  0  0
  -32.1334  -22.7440   16.4205 C   0  0  0  0  0  0  0  0  0  0  0  0
  -21.4420   -6.4498   22.6807 C   0  0  0  0  0  0  0  0  0  0  0  0
  -20.6841   -5.7354   25.2687 C   0  0  0  0  0  0  0  0  0  0  0  0
  -29.8397  -17.7693   16.5902 C   0  0  0  0  0  0  0  0  0  0  0  0
  -20.6096   -7.2897   23.4206 C   0  0  0  0  0  0  0  0  0  0  0  0
  -24.6464  -11.5812   20.7368 C   0  0  0  0  0  0  0  0  0  0  0  0
  -25.2185  -13.6980   20.5720 C   0  0  0  0  0  0  0  0  0  0  0  0
  -22.7886  -13.3351   21.0327 C   0  0  0  0  0  0  0  0  0  0  0  0
  -29.7743  -23.2102   21.2868 C   0  0  0  0  0  0  0  0  0  0  0  0
  -30.4290  -26.3856   21.1854 C   0  0  0  0  0  0  0  0  0  0  0  0
  -31.7553  -29.0167   19.4634 C   0  0  0  0  0  0  0  0  0  0  0  0
  -29.8497  -14.8914   17.7250 C   0  0  0  0  0  0  0  0  0  0  0  0
  -28.5714  -19.7527   24.8444 C   0  0  0  0  0  0  0  0  0  0  0  0
  -32.2260  -23.2000   20.6994 C   0  0  0  0  0  0  0  0  0  0  0  0
  -28.2293  -15.2948   14.3581 C   0  0  0  0  0  0  0  0  0  0  0  0
  -30.7047  -25.1070   19.0279 C   0  0  0  0  0  0  0  0  0  0  0  0
  -28.4229  -21.2648   24.6972 C   0  0  0  0  0  0  0  0  0  0  0  0
  -30.1476  -12.6548   20.4427 C   0  0  0  0  0  0  0  0  0  0  0  0
  -31.7636  -21.0318   11.3439 C   0  0  0  0  0  0  0  0  0  0  0  0
  -27.8209  -21.6124   23.3395 C   0  0  0  0  0  0  0  0  0  0  0  0
  -28.7089  -12.2498   20.7519 C   0  0  0  0  0  0  0  0  0  0  0  0
  -31.9038  -22.3091   12.1479 C   0  0  0  0  0  0  0  0  0  0  0  0
  -28.3144  -14.5271   15.6834 C   0  0  0  0  0  0  0  0  0  0  0  0
  -30.3581  -12.7961   18.9413 C   0  0  0  0  0  0  0  0  0  0  0  0
  -27.9793  -13.4232   18.6105 C   0  0  0  0  0  0  0  0  0  0  0  0
  -31.4430  -19.9826   12.3910 C   0  0  0  0  0  0  0  0  0  0  0  0
  -28.7295  -21.1434   22.1967 C   0  0  1  0  0  0  0  0  0  0  0  0
  -31.0527  -23.9991   21.2581 C   0  0  1  0  0  0  0  0  0  0  0  0
  -27.7199  -13.2418   20.1203 C   0  0  1  0  0  0  0  0  0  0  0  0
  -30.7472  -22.2145   13.1320 C   0  0  2  0  0  0  0  0  0  0  0  0
  -32.1093  -31.4961   19.6204 C   0  0  0  0  0  0  0  0  0  0  0  0
  -27.4834  -26.8449   20.5357 C   0  0  0  0  0  0  0  0  0  0  0  0
  -28.0820  -29.1559   19.7813 C   0  0  0  0  0  0  0  0  0  0  0  0
  -28.4626  -28.4821   22.1528 C   0  0  0  0  0  0  0  0  0  0  0  0
  -34.6973  -28.7218   19.3346 C   0  0  0  0  0  0  0  0  0  0  0  0
  -29.3193  -20.2158   13.7371 C   0  0  0  0  0  0  0  0  0  0  0  0
  -30.9441  -23.0496   14.3838 C   0  0  0  0  0  0  0  0  0  1  0  0
  -29.9603  -27.5474   20.3431 C   0  0  1  0  0  0  0  0  0  0  0  0
  -32.7047  -30.1225   19.8880 C   0  0  2  0  0  0  0  0  0  0  0  0
  -28.5096  -27.9848   20.6916 C   0  0  0  0  0  0  0  0  0  0  0  0
  -25.9595  -11.5549   20.4938 N   0  0  0  0  0  0  0  0  0  0  0  0
  -26.2782  -12.8570   20.3984 N   0  0  0  0  0  0  0  0  0  0  0  0
  -29.1323  -15.3429   16.6151 N   0  0  0  0  0  0  0  0  0  0  0  0
  -30.7846  -25.2190   20.4937 N   0  0  0  0  0  0  0  0  0  0  0  0
  -29.3920  -13.7171   18.3409 N   0  0  0  0  0  0  0  0  0  0  0  0
  -25.3623  -15.0387   20.5083 N   0  0  0  0  0  0  0  0  0  0  0  0
  -22.3878  -13.5762   22.3539 N   0  0  0  0  0  0  0  0  0  0  0  0
  -29.8458  -22.0500   22.0341 N   0  0  0  0  0  0  0  0  0  0  0  0
  -30.9575  -28.5995   20.5078 N   0  0  0  0  0  0  0  0  0  0  0  0
  -30.7024  -20.7339   13.4846 N   0  3  1  0  0  0  0  0  0  0  0  0
  -33.9912  -30.0149   19.1435 N   0  3  0  0  0  0  0  0  0  0  0  0
  -21.9640  -13.4981   20.1016 O   0  0  0  0  0  0  0  0  0  0  0  0
  -28.7951  -23.6241   20.6774 O   0  0  0  0  0  0  0  0  0  0  0  0
  -30.4846  -26.5110   22.4113 O   0  0  0  0  0  0  0  0  0  0  0  0
  -31.7219  -28.5704   18.3187 O   0  0  0  0  0  0  0  0  0  0  0  0
  -30.8829  -15.4481   18.1166 O   0  0  0  0  0  0  0  0  0  0  0  0
  -21.8184   -6.8026   21.3956 O   0  0  0  0  0  0  0  0  0  0  0  0
  -32.1094  -22.6002   15.0563 O   0  0  0  0  0  0  0  0  0  1  0  0
  -20.3190   -5.3915   26.5108 F   0  0  0  0  0  0  0  0  0  0  0  0
  -30.3224  -17.8062   17.8375 F   0  0  0  0  0  0  0  0  0  0  0  0
  -20.1698   -8.4404   22.8931 F   0  0  0  0  0  0  0  0  0  0  0  0
  1  2  1  0  0  0  0
  1  5  2  0  0  0  0
  2  6  2  0  0  0  0
  3  8  2  0  0  0  0
  3 17  1  0  0  0  0
  4  9  1  0  0  0  0
  4 17  2  0  0  0  0
  5 19  1  0  0  0  0
  6 21  1  0  0  0  0
  7 10  2  0  0  0  0
  7 20  1  0  0  0  0
  8 26  1  0  0  0  0
  9 26  2  0  0  0  0
 10 27  1  0  0  0  0
 11 12  2  0  0  0  0
 11 28  1  0  0  0  0
 12 29  1  0  0  0  0
 13 22  1  0  0  0  0
 13 24  2  0  0  0  0
 14 23  1  0  0  0  0
 14 27  2  0  0  0  0
 15 24  1  0  0  0  0
 15 30  2  0  0  0  0
 16 29  2  0  0  0  0
 16 31  1  0  0  0  0
 17 32  1  0  0  0  0
 18 32  1  0  0  0  0
 18 33  2  0  0  0  0
 18 34  1  0  0  0  0
 19 21  2  0  0  0  0
 19 39  1  0  0  0  0
 20 23  2  0  0  0  0
 20 40  1  0  0  0  0
 21 53  1  0  0  0  0
 22 25  2  0  0  0  0
 22 41  1  0  0  0  0
 23 42  1  0  0  0  0
 24 62  1  0  0  0  0
 25 30  1  0  0  0  0
 25 69  1  0  0  0  0
 26 83  1  0  0  0  0
 27 84  1  0  0  0  0
 28 31  2  0  0  0  0
 28 83  1  0  0  0  0
 29 85  1  0  0  0  0
 30 86  1  0  0  0  0
 31 87  1  0  0  0  0
 32 67  2  0  0  0  0
 33 68  1  0  0  0  0
 33 72  1  0  0  0  0
 34 73  1  0  0  0  0
 34 78  2  0  0  0  0
 35 54  1  0  0  0  0
 35 74  1  0  0  0  0
 35 79  2  0  0  0  0
 36 64  1  0  0  0  0
 36 70  1  0  0  0  0
 36 80  2  0  0  0  0
 37 65  1  0  0  0  0
 37 75  1  0  0  0  0
 37 81  2  0  0  0  0
 38 69  1  0  0  0  0
 38 71  1  0  0  0  0
 38 82  2  0  0  0  0
 39 43  1  0  0  0  0
 40 54  1  0  0  0  0
 41 49  1  0  0  0  0
 42 70  1  0  0  0  0
 43 46  1  0  0  0  0
 44 47  1  0  0  0  0
 44 50  1  0  0  0  0
 45 48  1  0  0  0  0
 45 52  1  0  0  0  0
 46 53  1  0  0  0  0
 47 55  1  0  0  0  0
 48 56  1  0  0  0  0
 49 69  1  0  0  0  0
 50 71  1  0  0  0  0
 51 55  1  0  0  0  0
 51 71  1  0  0  0  0
 52 76  1  0  0  0  0
 53 74  1  0  0  0  0
 54 70  1  0  0  0  0
 55 68  1  0  0  0  0
 56 63  1  0  0  0  0
 56 76  1  0  0  0  0
 57 65  1  0  0  0  0
 58 66  1  0  0  0  0
 59 66  1  0  0  0  0
 60 66  1  0  0  0  0
 61 77  1  0  0  0  0
 62 76  1  0  0  0  0
 63 84  1  0  0  0  0
 64 66  1  0  0  0  0
 64 75  1  0  0  0  0
 65 77  1  0  0  0  0
 67 68  1  0  0  0  0
M  CHG  2  76   1  77   1
M  ISO  4  38 100  63 101  69 100  84 101
M  END
> <Batch ID>
0012

> <Smiles>
CNC(C)C(=O)NC(C(=O)N1Cc2cc([101O:1][101CH2:1]C3CCCN3Cc3cc(F)c4c(c3)CC[100N:0]4[100C:0](=O)N3CCCC(n4nc(-c5ccc(Oc6ccc(F)cc6F)cc5)c(C(N)=O)c4N)C3)ccc2CC1C(=O)NC1CCCc2ccccc21)C(C)(C)C

> <Shape>
0.249

> <Color>
0.156

> <Negative vol penalty>
0.000

$$$$

  -OEChem-04042320463D

 82 90  0     1  0  0  0  0  0999 V2000
  -17.7884  -32.9572   22.0745 C   0  0  0  0  0  0  0  0  0  0  0  0
  -19.0679  -33.0660   21.5393 C   0  0  0  0  0  0  0  0  0  0  0  0
  -23.0494  -13.0811   20.9633 C   0  0  0  0  0  0  0  0  0  0  0  0
  -23.3095  -14.7257   22.7139 C   0  0  0  0  0  0  0  0  0  0  0  0
  -17.5254  -32.0090   23.0622 C   0  0  0  0  0  0  0  0  0  0  0  0
  -20.0855  -32.2273   21.9923 C   0  0  0  0  0  0  0  0  0  0  0  0
  -25.9928  -28.8798   19.7086 C   0  0  0  0  0  0  0  0  0  0  0  0
  -30.7187  -21.5213   19.2402 C   0  0  0  0  0  0  0  0  0  0  0  0
  -22.3650  -12.2476   21.8479 C   0  0  0  0  0  0  0  0  0  0  0  0
  -22.6251  -13.8922   23.5986 C   0  0  0  0  0  0  0  0  0  0  0  0
  -27.3401  -28.7304   20.0343 C   0  0  0  0  0  0  0  0  0  0  0  0
  -31.0304  -22.8750   19.3659 C   0  0  0  0  0  0  0  0  0  0  0  0
  -19.2524  -12.0144   23.1479 C   0  0  0  0  0  0  0  0  0  0  0  0
  -18.0840  -11.4044   22.6914 C   0  0  0  0  0  0  0  0  0  0  0  0
  -26.7506  -27.0760   21.6880 C   0  0  0  0  0  0  0  0  0  0  0  0
  -28.3985  -22.0891   18.8780 C   0  0  0  0  0  0  0  0  0  0  0  0
  -19.0627   -9.2317   23.0901 C   0  0  0  0  0  0  0  0  0  0  0  0
  -23.5217  -14.3201   21.3963 C   0  0  0  0  0  0  0  0  0  0  0  0
  -23.6765  -16.1650   19.6413 C   0  0  0  0  0  0  0  0  0  0  0  0
  -18.5381  -31.1516   23.5207 C   0  0  0  0  0  0  0  0  0  0  0  0
  -25.0116  -28.1352   20.3788 C   0  0  0  0  0  0  0  0  0  0  0  0
  -19.8362  -31.2675   22.9881 C   0  0  0  0  0  0  0  0  0  0  0  0
  -25.3917  -27.2160   21.3671 C   0  0  0  0  0  0  0  0  0  0  0  0
  -29.4028  -21.1283   18.9962 C   0  0  0  0  0  0  0  0  0  0  0  0
  -22.1529  -12.6532   23.1656 C   0  0  0  0  0  0  0  0  0  0  0  0
  -27.7190  -27.8305   21.0261 C   0  0  0  0  0  0  0  0  0  0  0  0
  -20.3259  -11.2331   23.5754 C   0  0  0  0  0  0  0  0  0  0  0  0
  -30.0261  -23.8358   19.2478 C   0  0  0  0  0  0  0  0  0  0  0  0
  -17.9891  -10.0130   22.6625 C   0  0  0  0  0  0  0  0  0  0  0  0
  -28.7101  -23.4429   19.0038 C   0  0  0  0  0  0  0  0  0  0  0  0
  -20.2311   -9.8418   23.5465 C   0  0  0  0  0  0  0  0  0  0  0  0
  -24.2292  -15.1813   20.4831 C   0  0  0  0  0  0  0  0  0  0  0  0
  -24.7565  -16.6982   18.9811 C   0  0  0  0  0  0  0  0  0  0  0  0
  -22.3091  -16.5615   19.4714 C   0  0  0  0  0  0  0  0  0  0  0  0
  -22.5237  -28.8496   22.2236 C   0  0  0  0  0  0  0  0  0  0  0  0
  -21.9611  -25.6608   22.0310 C   0  0  0  0  0  0  0  0  0  0  0  0
  -23.2027  -22.5268   21.4987 C   0  0  0  0  0  0  0  0  0  0  0  0
  -29.9627  -18.6724   18.9586 C   0  0  0  0  0  0  0  0  0  0  0  0
  -18.2175  -30.1742   24.6236 C   0  0  0  0  0  0  0  0  0  0  0  0
  -23.5648  -28.2885   19.9972 C   0  0  0  0  0  0  0  0  0  0  0  0
  -24.3790  -26.3779   22.1023 C   0  0  0  0  0  0  0  0  0  0  0  0
  -19.2605  -29.0708   24.7819 C   0  0  0  0  0  0  0  0  0  0  0  0
  -29.5667  -15.1408   18.7393 C   0  0  0  0  0  0  0  0  0  0  0  0
  -20.6673  -29.6603   24.7690 C   0  0  0  0  0  0  0  0  0  0  0  0
  -28.0973  -14.9174   19.1042 C   0  0  0  0  0  0  0  0  0  0  0  0
  -30.1886  -16.2712   19.5572 C   0  0  0  0  0  0  0  0  0  0  0  0
  -27.9828  -17.3179   19.8864 C   0  0  0  0  0  0  0  0  0  0  0  0
  -20.9606  -30.3590   23.4358 C   0  0  1  0  0  0  0  0  0  0  0  0
  -22.6063  -27.8538   21.1015 C   0  0  1  0  0  0  0  0  0  0  0  0
  -27.2952  -16.2321   19.0426 C   0  0  2  0  0  0  0  0  0  0  0  0
  -22.5085  -20.1158   21.4447 C   0  0  0  0  0  0  0  0  0  0  0  0
  -21.8853  -25.6167   25.0810 C   0  0  0  0  0  0  0  0  0  0  0  0
  -22.1454  -23.1286   24.9821 C   0  0  0  0  0  0  0  0  0  0  0  0
  -20.1375  -24.2120   23.9736 C   0  0  0  0  0  0  0  0  0  0  0  0
  -23.9756  -22.2477   18.6556 C   0  0  0  0  0  0  0  0  0  0  0  0
  -31.2263  -27.0652   20.5521 C   0  0  0  0  0  0  0  0  0  0  0  0
  -29.9844  -27.9077   20.3065 C   0  0  0  0  0  0  0  0  0  1  0  0
  -30.9048  -25.5799   20.6049 C   0  0  0  0  0  0  0  0  0  0  0  0
  -22.3801  -24.4510   22.8310 C   0  0  1  0  0  0  0  0  0  0  0  0
  -22.7121  -21.3832   20.6292 C   0  0  2  0  0  0  0  0  0  0  0  0
  -21.6562  -24.3691   24.2046 C   0  0  0  0  0  0  0  0  0  0  0  0
  -25.5571  -15.0925   20.3698 N   0  0  0  0  0  0  0  0  0  0  0  0
  -25.8478  -16.0273   19.4491 N   0  0  0  0  0  0  0  0  0  0  0  0
  -22.9764  -26.5685   21.6976 N   0  0  0  0  0  0  0  0  0  0  0  0
  -29.3772  -17.4856   19.4479 N   0  0  0  0  0  0  0  0  0  0  0  0
  -24.8695  -17.6707   18.0517 N   0  0  0  0  0  0  0  0  0  0  0  0
  -21.3257  -15.9102   20.2283 N   0  0  0  0  0  0  0  0  0  0  0  0
  -29.0861  -19.7531   18.8684 N   0  0  0  0  0  0  0  0  0  0  0  0
  -21.2630  -29.3839   22.4100 N   0  0  0  0  0  0  0  0  0  0  0  0
  -22.1587  -23.2950   21.9691 N   0  0  0  0  0  0  0  0  0  0  0  0
  -23.6976  -21.0940   19.5493 N   0  3  0  0  0  0  0  0  0  0  0  0
  -21.9678  -17.4552   18.6600 O   0  0  0  0  0  0  0  0  0  0  0  0
  -23.5289  -29.1126   22.8733 O   0  0  0  0  0  0  0  0  0  0  0  0
  -20.7780  -25.7917   21.7075 O   0  0  0  0  0  0  0  0  0  0  0  0
  -24.3927  -22.7171   21.7399 O   0  0  0  0  0  0  0  0  0  0  0  0
  -31.1473  -18.7188   18.6172 O   0  0  0  0  0  0  0  0  0  0  0  0
  -21.4849  -11.8402   24.0290 O   0  0  0  0  0  0  0  0  0  0  0  0
  -29.0334  -27.6831   21.3464 O   0  0  0  0  0  0  0  0  0  1  0  0
  -30.3344  -25.1657   19.3709 O   0  0  0  0  0  0  0  0  0  0  0  0
  -16.8665   -9.4274   22.2256 F   0  0  0  0  0  0  0  0  0  0  0  0
  -27.7413  -24.3614   18.8881 F   0  0  0  0  0  0  0  0  0  0  0  0
  -21.2587   -9.0859   23.9571 F   0  0  0  0  0  0  0  0  0  0  0  0
  1  2  1  0  0  0  0
  1  5  2  0  0  0  0
  2  6  2  0  0  0  0
  3  9  2  0  0  0  0
  3 18  1  0  0  0  0
  4 10  1  0  0  0  0
  4 18  2  0  0  0  0
  5 20  1  0  0  0  0
  6 22  1  0  0  0  0
  7 11  2  0  0  0  0
  7 21  1  0  0  0  0
  8 12  2  0  0  0  0
  8 24  1  0  0  0  0
  9 25  1  0  0  0  0
 10 25  2  0  0  0  0
 11 26  1  0  0  0  0
 12 28  1  0  0  0  0
 13 14  2  0  0  0  0
 13 27  1  0  0  0  0
 14 29  1  0  0  0  0
 15 23  1  0  0  0  0
 15 26  2  0  0  0  0
 16 24  2  0  0  0  0
 16 30  1  0  0  0  0
 17 29  2  0  0  0  0
 17 31  1  0  0  0  0
 18 32  1  0  0  0  0
 19 32  1  0  0  0  0
 19 33  2  0  0  0  0
 19 34  1  0  0  0  0
 20 22  2  0  0  0  0
 20 39  1  0  0  0  0
 21 23  2  0  0  0  0
 21 40  1  0  0  0  0
 22 48  1  0  0  0  0
 23 41  1  0  0  0  0
 24 68  1  0  0  0  0
 25 77  1  0  0  0  0
 26 78  1  0  0  0  0
 27 31  2  0  0  0  0
 27 77  1  0  0  0  0
 28 30  2  0  0  0  0
 28 79  1  0  0  0  0
 29 80  1  0  0  0  0
 30 81  1  0  0  0  0
 31 82  1  0  0  0  0
 32 62  2  0  0  0  0
 33 63  1  0  0  0  0
 33 66  1  0  0  0  0
 34 67  1  0  0  0  0
 34 72  2  0  0  0  0
 35 49  1  0  0  0  0
 35 69  1  0  0  0  0
 35 73  2  0  0  0  0
 36 59  1  0  0  0  0
 36 64  1  0  0  0  0
 36 74  2  0  0  0  0
 37 60  1  0  0  0  0
 37 70  1  0  0  0  0
 37 75  2  0  0  0  0
 38 65  1  0  0  0  0
 38 68  1  0  0  0  0
 38 76  2  0  0  0  0
 39 42  1  0  0  0  0
 40 49  1  0  0  0  0
 41 64  1  0  0  0  0
 42 44  1  0  0  0  0
 43 45  1  0  0  0  0
 43 46  1  0  0  0  0
 44 48  1  0  0  0  0
 45 50  1  0  0  0  0
 46 65  1  0  0  0  0
 47 50  1  0  0  0  0
 47 65  1  0  0  0  0
 48 69  1  0  0  0  0
 49 64  1  0  0  0  0
 50 63  1  0  0  0  0
 51 60  1  0  0  0  0
 52 61  1  0  0  0  0
 53 61  1  0  0  0  0
 54 61  1  0  0  0  0
 55 71  1  0  0  0  0
 56 57  1  0  0  0  0
 56 58  1  0  0  0  0
 57 78  1  0  0  0  0
 58 79  1  0  0  0  0
 59 61  1  0  0  0  0
 59 70  1  0  0  0  0
 60 71  1  0  0  0  0
 62 63  1  0  0  0  0
M  CHG  1  71   1
M  ISO  4  38 100  57 101  68 100  78 101
M  END
> <Batch ID>
0012

> <Smiles>
CNC(C)C(=O)NC(C(=O)N1Cc2cc([101O:1][101CH2:1]CCOc3ccc([100NH:0][100C:0](=O)N4CCCC(n5nc(-c6ccc(Oc7ccc(F)cc7F)cc6)c(C(N)=O)c5N)C4)cc3F)ccc2CC1C(=O)NC1CCCc2ccccc21)C(C)(C)C

> <Shape>
0.201

> <Color>
0.083

> <Negative vol penalty>
0.000

$$$$

  -OEChem-04042320463D

 84 92  0     1  0  0  0  0  0999 V2000
  -34.0211  -28.5685   17.3413 C   0  0  0  0  0  0  0  0  0  0  0  0
  -32.8322  -27.9985   16.8975 C   0  0  0  0  0  0  0  0  0  0  0  0
  -26.2771  -13.0459   21.3821 C   0  0  0  0  0  0  0  0  0  0  0  0
  -25.9977  -13.4963   19.0249 C   0  0  0  0  0  0  0  0  0  0  0  0
  -34.3387  -28.5478   18.6988 C   0  0  0  0  0  0  0  0  0  0  0  0
  -31.9606  -27.4065   17.8108 C   0  0  0  0  0  0  0  0  0  0  0  0
  -27.1318  -28.7056   17.0107 C   0  0  0  0  0  0  0  0  0  0  0  0
  -27.7774  -23.2942   16.1467 C   0  0  0  0  0  0  0  0  0  0  0  0
  -28.2687  -22.5103   17.1906 C   0  0  0  0  0  0  0  0  0  0  0  0
  -25.0681  -12.3504   21.3926 C   0  0  0  0  0  0  0  0  0  0  0  0
  -24.7887  -12.8007   19.0354 C   0  0  0  0  0  0  0  0  0  0  0  0
  -26.4641  -28.0639   15.9685 C   0  0  0  0  0  0  0  0  0  0  0  0
  -23.9449   -9.2938   20.4825 C   0  0  0  0  0  0  0  0  0  0  0  0
  -23.9083   -8.0675   21.1461 C   0  0  0  0  0  0  0  0  0  0  0  0
  -25.4160  -26.5841   17.5593 C   0  0  0  0  0  0  0  0  0  0  0  0
  -27.7875  -21.3647   14.6928 C   0  0  0  0  0  0  0  0  0  0  0  0
  -22.1962   -8.9180   22.6234 C   0  0  0  0  0  0  0  0  0  0  0  0
  -26.7419  -13.6190   20.1983 C   0  0  0  0  0  0  0  0  0  0  0  0
  -29.2718  -13.8126   19.9345 C   0  0  0  0  0  0  0  0  0  0  0  0
  -33.4659  -27.9638   19.6304 C   0  0  0  0  0  0  0  0  0  0  0  0
  -26.9547  -28.2836   18.3362 C   0  0  0  0  0  0  0  0  0  0  0  0
  -32.2674  -27.3768   19.1819 C   0  0  0  0  0  0  0  0  0  0  0  0
  -26.0806  -27.2237   18.6167 C   0  0  0  0  0  0  0  0  0  0  0  0
  -27.5368  -22.7215   14.8978 C   0  0  0  0  0  0  0  0  0  0  0  0
  -28.5194  -21.1536   16.9856 C   0  0  0  0  0  0  0  0  0  0  0  0
  -24.3239  -12.2278   20.2192 C   0  0  0  0  0  0  0  0  0  0  0  0
  -25.6083  -27.0011   16.2424 C   0  0  0  0  0  0  0  0  0  0  0  0
  -23.1073  -10.3323   20.8894 C   0  0  0  0  0  0  0  0  0  0  0  0
  -23.0339   -7.8796   22.2165 C   0  0  0  0  0  0  0  0  0  0  0  0
  -28.2789  -20.5807   15.7367 C   0  0  0  0  0  0  0  0  0  0  0  0
  -22.2329  -10.1444   21.9598 C   0  0  0  0  0  0  0  0  0  0  0  0
  -27.9905  -14.3381   20.1870 C   0  0  0  0  0  0  0  0  0  0  0  0
  -30.1130  -14.8932   20.0403 C   0  0  0  0  0  0  0  0  0  0  0  0
  -29.6665  -12.4680   19.6312 C   0  0  0  0  0  0  0  0  0  0  0  0
  -28.8612  -27.0987   20.5867 C   0  0  0  0  0  0  0  0  0  0  0  0
  -26.2117  -27.3890   22.4356 C   0  0  0  0  0  0  0  0  0  0  0  0
  -22.8087  -27.5755   22.6128 C   0  0  0  0  0  0  0  0  0  0  0  0
  -29.3115  -20.7738   19.3467 C   0  0  0  0  0  0  0  0  0  0  0  0
  -33.8744  -27.9237   21.0817 C   0  0  0  0  0  0  0  0  0  0  0  0
  -27.6617  -29.0036   19.4516 C   0  0  0  0  0  0  0  0  0  0  0  0
  -25.8403  -26.7454   20.0245 C   0  0  0  0  0  0  0  0  0  0  0  0
  -32.7208  -27.6088   22.0306 C   0  0  0  0  0  0  0  0  0  0  0  0
  -30.5208  -19.1183   22.2577 C   0  0  0  0  0  0  0  0  0  0  0  0
  -31.9077  -26.4282   21.5092 C   0  0  0  0  0  0  0  0  0  0  0  0
  -30.1312  -17.6558   22.0312 C   0  0  0  0  0  0  0  0  0  0  0  0
  -29.4564  -20.0774   21.7276 C   0  0  0  0  0  0  0  0  0  0  0  0
  -28.6774  -18.3983   20.1020 C   0  0  0  0  0  0  0  0  0  0  0  0
  -31.2844  -26.7471   20.1450 C   0  0  1  0  0  0  0  0  0  0  0  0
  -27.8031  -28.1580   20.7135 C   0  0  1  0  0  0  0  0  0  0  0  0
  -29.7486  -17.3956   20.5610 C   0  0  2  0  0  0  0  0  0  0  0  0
  -20.9299  -27.7708   24.2649 C   0  0  0  0  0  0  0  0  0  0  0  0
  -25.8279  -25.0559   11.7940 C   0  0  0  0  0  0  0  0  0  0  0  0
  -26.5527  -24.4465   23.1675 C   0  0  0  0  0  0  0  0  0  0  0  0
  -24.1952  -24.4550   24.0105 C   0  0  0  0  0  0  0  0  0  0  0  0
  -25.9040  -25.9277   25.0753 C   0  0  0  0  0  0  0  0  0  0  0  0
  -21.9057  -30.1464   21.4576 C   0  0  0  0  0  0  0  0  0  0  0  0
  -24.6765  -22.7154   13.5829 C   0  0  0  0  0  0  0  0  0  0  0  0
  -27.0094  -23.5647   13.7745 C   0  0  0  0  0  0  0  0  0  0  0  0
  -25.6059  -26.3433   13.9569 C   0  0  0  0  0  0  0  0  0  1  0  0
  -25.0385  -26.4996   22.7697 C   0  0  1  0  0  0  0  0  0  0  0  0
  -21.8894  -28.5260   23.3584 C   0  0  2  0  0  0  0  0  0  0  0  0
  -25.1648  -25.1206   13.1603 C   0  0  2  0  0  0  0  0  0  0  0  0
  -25.4284  -25.3397   23.7289 C   0  0  0  0  0  0  0  0  0  0  0  0
  -28.0109  -15.6504   20.4348 N   0  0  0  0  0  0  0  0  0  0  0  0
  -29.3155  -15.9586   20.3385 N   0  0  0  0  0  0  0  0  0  0  0  0
  -26.5594  -27.4775   21.0802 N   0  0  0  0  0  0  0  0  0  0  0  0
  -29.1480  -19.7738   20.3285 N   0  0  0  0  0  0  0  0  0  0  0  0
  -31.4497  -15.0264   19.9066 N   0  0  0  0  0  0  0  0  0  0  0  0
  -28.6745  -11.4803   19.5609 N   0  0  0  0  0  0  0  0  0  0  0  0
  -29.0190  -20.3597   18.0476 N   0  0  0  0  0  0  0  0  0  0  0  0
  -30.1209  -27.5925   20.3061 N   0  0  0  0  0  0  0  0  0  0  0  0
  -23.9949  -27.3779   23.2873 N   0  0  0  0  0  0  0  0  0  0  0  0
  -21.0888  -29.3342   22.3957 N   0  3  0  0  0  0  0  0  0  0  0  0
  -25.5477  -23.8963   13.9215 N   0  3  1  0  0  0  0  0  0  0  0  0
  -30.8651  -12.1486   19.4448 O   0  0  0  0  0  0  0  0  0  0  0  0
  -28.5575  -25.9207   20.7341 O   0  0  0  0  0  0  0  0  0  0  0  0
  -26.7935  -27.9888   23.3429 O   0  0  0  0  0  0  0  0  0  0  0  0
  -22.5033  -27.0571   21.5411 O   0  0  0  0  0  0  0  0  0  0  0  0
  -29.7096  -21.9057   19.6333 O   0  0  0  0  0  0  0  0  0  0  0  0
  -23.1443  -11.5489   20.2290 O   0  0  0  0  0  0  0  0  0  0  0  0
  -24.9558  -26.3725   15.2270 O   0  0  0  0  0  0  0  0  0  1  0  0
  -22.9977   -6.7014   22.8527 F   0  0  0  0  0  0  0  0  0  0  0  0
  -28.5176  -19.2781   15.5279 F   0  0  0  0  0  0  0  0  0  0  0  0
  -21.4249  -11.1380   22.3545 F   0  0  0  0  0  0  0  0  0  0  0  0
  1  2  1  0  0  0  0
  1  5  2  0  0  0  0
  2  6  2  0  0  0  0
  3 10  2  0  0  0  0
  3 18  1  0  0  0  0
  4 11  1  0  0  0  0
  4 18  2  0  0  0  0
  5 20  1  0  0  0  0
  6 22  1  0  0  0  0
  7 12  2  0  0  0  0
  7 21  1  0  0  0  0
  8  9  2  0  0  0  0
  8 24  1  0  0  0  0
  9 25  1  0  0  0  0
 10 26  1  0  0  0  0
 11 26  2  0  0  0  0
 12 27  1  0  0  0  0
 13 14  2  0  0  0  0
 13 28  1  0  0  0  0
 14 29  1  0  0  0  0
 15 23  1  0  0  0  0
 15 27  2  0  0  0  0
 16 24  2  0  0  0  0
 16 30  1  0  0  0  0
 17 29  2  0  0  0  0
 17 31  1  0  0  0  0
 18 32  1  0  0  0  0
 19 32  1  0  0  0  0
 19 33  2  0  0  0  0
 19 34  1  0  0  0  0
 20 22  2  0  0  0  0
 20 39  1  0  0  0  0
 21 23  2  0  0  0  0
 21 40  1  0  0  0  0
 22 48  1  0  0  0  0
 23 41  1  0  0  0  0
 24 58  1  0  0  0  0
 25 30  2  0  0  0  0
 25 70  1  0  0  0  0
 26 80  1  0  0  0  0
 27 81  1  0  0  0  0
 28 31  2  0  0  0  0
 28 80  1  0  0  0  0
 29 82  1  0  0  0  0
 30 83  1  0  0  0  0
 31 84  1  0  0  0  0
 32 64  2  0  0  0  0
 33 65  1  0  0  0  0
 33 68  1  0  0  0  0
 34 69  1  0  0  0  0
 34 75  2  0  0  0  0
 35 49  1  0  0  0  0
 35 71  1  0  0  0  0
 35 76  2  0  0  0  0
 36 60  1  0  0  0  0
 36 66  1  0  0  0  0
 36 77  2  0  0  0  0
 37 61  1  0  0  0  0
 37 72  1  0  0  0  0
 37 78  2  0  0  0  0
 38 67  1  0  0  0  0
 38 70  1  0  0  0  0
 38 79  2  0  0  0  0
 39 42  1  0  0  0  0
 40 49  1  0  0  0  0
 41 66  1  0  0  0  0
 42 44  1  0  0  0  0
 43 45  1  0  0  0  0
 43 46  1  0  0  0  0
 44 48  1  0  0  0  0
 45 50  1  0  0  0  0
 46 67  1  0  0  0  0
 47 50  1  0  0  0  0
 47 67  1  0  0  0  0
 48 71  1  0  0  0  0
 49 66  1  0  0  0  0
 50 65  1  0  0  0  0
 51 61  1  0  0  0  0
 52 62  1  0  0  0  0
 53 63  1  0  0  0  0
 54 63  1  0  0  0  0
 55 63  1  0  0  0  0
 56 73  1  0  0  0  0
 57 74  1  0  0  0  0
 58 74  1  0  0  0  0
 59 62  1  0  0  0  0
 59 81  1  0  0  0  0
 60 63  1  0  0  0  0
 60 72  1  0  0  0  0
 61 73  1  0  0  0  0
 62 74  1  0  0  0  0
 64 65  1  0  0  0  0
M  CHG  2  73   1  74   1
M  ISO  4  38 100  59 101  70 100  81 101
M  END
> <Batch ID>
0012

> <Smiles>
CNC(C)C(=O)NC(C(=O)N1Cc2cc([101O:1][101CH2:1]C(C)N(C)Cc3ccc([100NH:0][100C:0](=O)N4CCCC(n5nc(-c6ccc(Oc7ccc(F)cc7F)cc6)c(C(N)=O)c5N)C4)c(F)c3)ccc2CC1C(=O)NC1CCCc2ccccc21)C(C)(C)C

> <Shape>
0.233

> <Color>
0.079

> <Negative vol penalty>
0.000

$$$$

  -OEChem-04042320463D

 87 96  0     1  0  0  0  0  0999 V2000
  -19.0415   -8.4454   21.1511 C   0  0  0  0  0  0  0  0  0  0  0  0
  -18.8420   -9.6210   20.4345 C   0  0  0  0  0  0  0  0  0  0  0  0
  -23.6681  -27.5099   21.8261 C   0  0  0  0  0  0  0  0  0  0  0  0
  -24.0163  -29.7952   21.1240 C   0  0  0  0  0  0  0  0  0  0  0  0
  -19.9789   -8.4096   22.1826 C   0  0  0  0  0  0  0  0  0  0  0  0
  -19.5790  -10.7620   20.7498 C   0  0  0  0  0  0  0  0  0  0  0  0
  -22.4868  -16.5513   17.6928 C   0  0  0  0  0  0  0  0  0  0  0  0
  -30.6547  -24.4161   19.7135 C   0  0  0  0  0  0  0  0  0  0  0  0
  -22.4890  -27.8869   22.4688 C   0  0  0  0  0  0  0  0  0  0  0  0
  -22.8371  -30.1723   21.7666 C   0  0  0  0  0  0  0  0  0  0  0  0
  -22.5134  -17.9392   17.8225 C   0  0  0  0  0  0  0  0  0  0  0  0
  -19.2944  -28.5821   21.6059 C   0  0  0  0  0  0  0  0  0  0  0  0
  -18.1708  -27.7759   21.4243 C   0  0  0  0  0  0  0  0  0  0  0  0
  -30.0543  -24.1894   18.4751 C   0  0  0  0  0  0  0  0  0  0  0  0
  -24.1618  -17.7379   19.5723 C   0  0  0  0  0  0  0  0  0  0  0  0
  -29.0120  -22.9942   20.7702 C   0  0  0  0  0  0  0  0  0  0  0  0
  -18.0734  -27.3754   23.8050 C   0  0  0  0  0  0  0  0  0  0  0  0
  -24.4318  -28.4640   21.1538 C   0  0  0  0  0  0  0  0  0  0  0  0
  -25.7923  -27.6443   19.1575 C   0  0  0  0  0  0  0  0  0  0  0  0
  -20.7347   -9.5480   22.5043 C   0  0  0  0  0  0  0  0  0  0  0  0
  -23.2908  -15.7444   18.5107 C   0  0  0  0  0  0  0  0  0  0  0  0
  -20.5264  -10.7418   21.7874 C   0  0  0  0  0  0  0  0  0  0  0  0
  -24.1454  -16.3402   19.4491 C   0  0  0  0  0  0  0  0  0  0  0  0
  -28.4116  -22.7675   19.5318 C   0  0  0  0  0  0  0  0  0  0  0  0
  -30.1336  -23.8184   20.8611 C   0  0  0  0  0  0  0  0  0  0  0  0
  -22.0734  -29.2181   22.4390 C   0  0  0  0  0  0  0  0  0  0  0  0
  -23.3488  -18.5326   18.7644 C   0  0  0  0  0  0  0  0  0  0  0  0
  -19.8076  -28.7850   22.8871 C   0  0  0  0  0  0  0  0  0  0  0  0
  -17.5603  -27.1726   22.5238 C   0  0  0  0  0  0  0  0  0  0  0  0
  -19.1971  -28.1817   23.9865 C   0  0  0  0  0  0  0  0  0  0  0  0
  -28.9327  -23.3651   18.3842 C   0  0  0  0  0  0  0  0  0  0  0  0
  -25.6503  -28.0752   20.4902 C   0  0  0  0  0  0  0  0  0  0  0  0
  -27.1362  -27.3976   19.0178 C   0  0  0  0  0  0  0  0  0  0  0  0
  -24.7983  -27.4818   18.1371 C   0  0  0  0  0  0  0  0  0  0  0  0
  -22.7327  -13.4926   20.6836 C   0  0  0  0  0  0  0  0  0  0  0  0
  -25.9617  -13.1879   20.6292 C   0  0  0  0  0  0  0  0  0  0  0  0
  -28.9953  -14.6086   19.9766 C   0  0  0  0  0  0  0  0  0  0  0  0
  -31.4324  -25.2435   22.4653 C   0  0  0  0  0  0  0  0  0  0  0  0
  -21.7025   -9.4744   23.6586 C   0  0  0  0  0  0  0  0  0  0  0  0
  -23.2702  -14.2501   18.3399 C   0  0  0  0  0  0  0  0  0  0  0  0
  -25.0431  -15.5195   20.3374 C   0  0  0  0  0  0  0  0  0  0  0  0
  -22.7097  -10.6213   23.6831 C   0  0  0  0  0  0  0  0  0  0  0  0
  -31.2316  -28.7807   21.3974 C   0  0  0  0  0  0  0  0  0  0  0  0
  -23.9371  -23.2318   20.5350 C   0  0  0  0  0  0  0  0  0  0  0  0
  -22.0053  -11.9552   23.4566 C   0  0  0  0  0  0  0  0  0  0  0  0
  -29.7615  -28.9360   21.0124 C   0  0  0  0  0  0  0  0  0  0  0  0
  -23.5727  -22.7868   19.1288 C   0  0  0  0  0  0  0  0  0  0  0  0
  -31.4259  -27.7174   22.4740 C   0  0  0  0  0  0  0  0  0  0  0  0
  -29.3775  -26.5423   21.7225 C   0  0  0  0  0  0  0  0  0  0  0  0
  -25.4529  -23.3488   20.5418 C   0  0  0  0  0  0  0  0  0  0  0  0
  -21.3242  -11.9933   22.0833 C   0  0  1  0  0  0  0  0  0  0  0  0
  -23.7508  -13.5005   19.5786 C   0  0  1  0  0  0  0  0  0  0  0  0
  -29.1599  -27.5793   20.6104 C   0  0  1  0  0  0  0  0  0  0  0  0
  -24.7295  -21.8744   18.7106 C   0  0  2  0  0  0  0  0  0  0  0  0
  -24.8627  -21.7962   17.1898 C   0  0  0  0  0  0  0  0  0  0  0  0
  -31.4563  -14.1261   20.0650 C   0  0  0  0  0  0  0  0  0  0  0  0
  -25.9219  -13.5523   23.6583 C   0  0  0  0  0  0  0  0  0  0  0  0
  -28.3814  -14.0110   23.5655 C   0  0  0  0  0  0  0  0  0  0  0  0
  -27.4999  -11.7931   22.8398 C   0  0  0  0  0  0  0  0  0  0  0  0
  -30.9133  -22.9138   23.0438 C   0  0  0  0  0  0  0  0  0  0  0  0
  -29.2925  -14.9890   17.0567 C   0  0  0  0  0  0  0  0  0  0  0  0
  -27.2072  -21.8746   19.4761 C   0  0  0  0  0  0  0  0  0  0  0  0
  -24.6042  -20.4737   19.3229 C   0  0  0  0  0  0  0  0  0  1  0  0
  -27.1080  -13.8203   21.3807 C   0  0  1  0  0  0  0  0  0  0  0  0
  -30.2009  -14.1002   19.2070 C   0  0  2  0  0  0  0  0  0  0  0  0
  -27.2096  -13.3099   22.8458 C   0  0  0  0  0  0  0  0  0  0  0  0
  -26.8113  -28.1016   21.1501 N   0  0  0  0  0  0  0  0  0  0  0  0
  -27.6956  -27.6842   20.2283 N   0  0  0  0  0  0  0  0  0  0  0  0
  -24.9825  -14.0622   20.1368 N   0  0  0  0  0  0  0  0  0  0  0  0
  -30.7962  -26.4488   22.1040 N   0  0  0  0  0  0  0  0  0  0  0  0
  -27.8822  -26.9655   17.9790 N   0  0  0  0  0  0  0  0  0  0  0  0
  -23.4650  -27.7801   18.4496 N   0  0  0  0  0  0  0  0  0  0  0  0
  -22.3004  -12.2298   21.0414 N   0  0  0  0  0  0  0  0  0  0  0  0
  -28.3035  -13.5796   20.5799 N   0  0  0  0  0  0  0  0  0  0  0  0
  -30.7553  -24.0523   22.1416 N   0  0  0  0  0  0  0  0  0  0  0  0
  -25.9260  -22.6281   19.2916 N   0  3  2  0  0  0  0  0  0  0  0  0
  -30.4385  -14.9429   18.0009 N   0  3  0  0  0  0  0  0  0  0  0  0
  -25.0816  -27.0681   16.9873 O   0  0  0  0  0  0  0  0  0  0  0  0
  -22.3675  -14.5536   21.1763 O   0  0  0  0  0  0  0  0  0  0  0  0
  -25.9397  -11.9638   20.4782 O   0  0  0  0  0  0  0  0  0  0  0  0
  -28.6990  -15.7997   20.0397 O   0  0  0  0  0  0  0  0  0  0  0  0
  -32.5037  -25.2289   23.0840 O   0  0  0  0  0  0  0  0  0  0  0  0
  -20.9228  -29.5864   23.0658 O   0  0  0  0  0  0  0  0  0  0  0  0
  -23.3763  -19.8870   18.8936 O   0  0  0  0  0  0  0  0  0  1  0  0
  -16.4803  -26.3996   22.3495 F   0  0  0  0  0  0  0  0  0  0  0  0
  -19.6848  -28.3739   25.2198 F   0  0  0  0  0  0  0  0  0  0  0  0
  -28.2175  -23.1076   16.8346 Cl  0  0  0  0  0  0  0  0  0  0  0  0
  1  2  1  0  0  0  0
  1  5  2  0  0  0  0
  2  6  2  0  0  0  0
  3  9  2  0  0  0  0
  3 18  1  0  0  0  0
  4 10  1  0  0  0  0
  4 18  2  0  0  0  0
  5 20  1  0  0  0  0
  6 22  1  0  0  0  0
  7 11  2  0  0  0  0
  7 21  1  0  0  0  0
  8 14  2  0  0  0  0
  8 25  1  0  0  0  0
  9 26  1  0  0  0  0
 10 26  2  0  0  0  0
 11 27  1  0  0  0  0
 12 13  2  0  0  0  0
 12 28  1  0  0  0  0
 13 29  1  0  0  0  0
 14 31  1  0  0  0  0
 15 23  1  0  0  0  0
 15 27  2  0  0  0  0
 16 24  1  0  0  0  0
 16 25  2  0  0  0  0
 17 29  2  0  0  0  0
 17 30  1  0  0  0  0
 18 32  1  0  0  0  0
 19 32  1  0  0  0  0
 19 33  2  0  0  0  0
 19 34  1  0  0  0  0
 20 22  2  0  0  0  0
 20 39  1  0  0  0  0
 21 23  2  0  0  0  0
 21 40  1  0  0  0  0
 22 51  1  0  0  0  0
 23 41  1  0  0  0  0
 24 31  2  0  0  0  0
 24 62  1  0  0  0  0
 25 75  1  0  0  0  0
 26 83  1  0  0  0  0
 27 84  1  0  0  0  0
 28 30  2  0  0  0  0
 28 83  1  0  0  0  0
 29 85  1  0  0  0  0
 30 86  1  0  0  0  0
 31 87  1  0  0  0  0
 32 67  2  0  0  0  0
 33 68  1  0  0  0  0
 33 71  1  0  0  0  0
 34 72  1  0  0  0  0
 34 78  2  0  0  0  0
 35 52  1  0  0  0  0
 35 73  1  0  0  0  0
 35 79  2  0  0  0  0
 36 64  1  0  0  0  0
 36 69  1  0  0  0  0
 36 80  2  0  0  0  0
 37 65  1  0  0  0  0
 37 74  1  0  0  0  0
 37 81  2  0  0  0  0
 38 70  1  0  0  0  0
 38 75  1  0  0  0  0
 38 82  2  0  0  0  0
 39 42  1  0  0  0  0
 40 52  1  0  0  0  0
 41 69  1  0  0  0  0
 42 45  1  0  0  0  0
 43 46  1  0  0  0  0
 43 48  1  0  0  0  0
 44 47  1  0  0  0  0
 44 50  1  0  0  0  0
 45 51  1  0  0  0  0
 46 53  1  0  0  0  0
 47 54  1  0  0  0  0
 48 70  1  0  0  0  0
 49 53  1  0  0  0  0
 49 70  1  0  0  0  0
 50 76  1  0  0  0  0
 51 73  1  0  0  0  0
 52 69  1  0  0  0  0
 53 68  1  0  0  0  0
 54 55  1  0  0  0  0
 54 63  1  0  0  0  0
 54 76  1  0  0  0  0
 56 65  1  0  0  0  0
 57 66  1  0  0  0  0
 58 66  1  0  0  0  0
 59 66  1  0  0  0  0
 60 75  1  0  0  0  0
 61 77  1  0  0  0  0
 62 76  1  0  0  0  0
 63 84  1  0  0  0  0
 64 66  1  0  0  0  0
 64 74  1  0  0  0  0
 65 77  1  0  0  0  0
 67 68  1  0  0  0  0
M  CHG  2  76   1  77   1
M  ISO  4  38 100  63 101  75 100  84 101
M  END
> <Batch ID>
0012

> <Smiles>
CNC(C)C(=O)NC(C(=O)N1Cc2cc([101O:1][101CH2:1]C3(C)CCCN3Cc3cc([100N:0](C)[100C:0](=O)N4CCCC(n5nc(-c6ccc(Oc7ccc(F)cc7F)cc6)c(C(N)=O)c5N)C4)ccc3Cl)ccc2CC1C(=O)NC1CCCc2ccccc21)C(C)(C)C

> <Shape>
0.237

> <Color>
0.059

> <Negative vol penalty>
0.000

$$$$

  -OEChem-04042320463D

 82 91  0     1  0  0  0  0  0999 V2000
  -27.5295  -34.3096   25.5324 C   0  0  0  0  0  0  0  0  0  0  0  0
  -28.0544  -33.0424   25.2994 C   0  0  0  0  0  0  0  0  0  0  0  0
  -23.1631   -9.7550   19.9109 C   0  0  0  0  0  0  0  0  0  0  0  0
  -23.9110   -9.7778   22.2081 C   0  0  0  0  0  0  0  0  0  0  0  0
  -26.2139  -34.5953   25.1699 C   0  0  0  0  0  0  0  0  0  0  0  0
  -27.2635  -32.0599   24.7047 C   0  0  0  0  0  0  0  0  0  0  0  0
  -29.1147  -27.6823   20.8427 C   0  0  0  0  0  0  0  0  0  0  0  0
  -30.9460  -19.3519   20.6994 C   0  0  0  0  0  0  0  0  0  0  0  0
  -29.2994  -19.4448   22.4649 C   0  0  0  0  0  0  0  0  0  0  0  0
  -30.8455  -17.9608   20.6788 C   0  0  0  0  0  0  0  0  0  0  0  0
  -29.1988  -18.0537   22.4443 C   0  0  0  0  0  0  0  0  0  0  0  0
  -22.4749   -8.5649   20.1468 C   0  0  0  0  0  0  0  0  0  0  0  0
  -23.2227   -8.5877   22.4440 C   0  0  0  0  0  0  0  0  0  0  0  0
  -29.4318  -26.3378   21.0313 C   0  0  0  0  0  0  0  0  0  0  0  0
  -20.0343   -7.6289   23.0228 C   0  0  0  0  0  0  0  0  0  0  0  0
  -19.2747   -7.5416   24.1894 C   0  0  0  0  0  0  0  0  0  0  0  0
  -27.1952  -25.7235   20.3684 C   0  0  0  0  0  0  0  0  0  0  0  0
  -20.6051   -5.6599   24.9149 C   0  0  0  0  0  0  0  0  0  0  0  0
  -23.8812  -10.3614   20.9416 C   0  0  0  0  0  0  0  0  0  0  0  0
  -24.1007  -12.9011   20.8458 C   0  0  0  0  0  0  0  0  0  0  0  0
  -25.4096  -33.6187   24.5617 C   0  0  0  0  0  0  0  0  0  0  0  0
  -27.8299  -28.0588   20.4253 C   0  0  0  0  0  0  0  0  0  0  0  0
  -25.9355  -32.3325   24.3350 C   0  0  0  0  0  0  0  0  0  0  0  0
  -26.8651  -27.0732   20.1728 C   0  0  0  0  0  0  0  0  0  0  0  0
  -30.1729  -20.0939   21.5925 C   0  0  0  0  0  0  0  0  0  0  0  0
  -29.9719  -17.3117   21.5512 C   0  0  0  0  0  0  0  0  0  0  0  0
  -22.5047   -7.9812   21.4133 C   0  0  0  0  0  0  0  0  0  0  0  0
  -28.4712  -25.3583   20.7969 C   0  0  0  0  0  0  0  0  0  0  0  0
  -21.0793   -6.7316   22.8022 C   0  0  0  0  0  0  0  0  0  0  0  0
  -19.5601   -6.5572   25.1355 C   0  0  0  0  0  0  0  0  0  0  0  0
  -21.3647   -5.7472   23.7483 C   0  0  0  0  0  0  0  0  0  0  0  0
  -24.5928  -11.5904   20.6984 C   0  0  0  0  0  0  0  0  0  0  0  0
  -25.1569  -13.7059   20.4949 C   0  0  0  0  0  0  0  0  0  0  0  0
  -22.8048  -13.3509   21.2628 C   0  0  0  0  0  0  0  0  0  0  0  0
  -25.4880  -29.8073   21.6749 C   0  0  0  0  0  0  0  0  0  0  0  0
  -24.1132  -29.3323   18.7755 C   0  0  0  0  0  0  0  0  0  0  0  0
  -23.8761  -27.4178   15.9603 C   0  0  0  0  0  0  0  0  0  0  0  0
  -30.5651  -15.0135   20.7069 C   0  0  0  0  0  0  0  0  0  0  0  0
  -23.9783  -33.9603   24.2306 C   0  0  0  0  0  0  0  0  0  0  0  0
  -27.5117  -29.5116   20.2008 C   0  0  0  0  0  0  0  0  0  0  0  0
  -25.4773  -27.4237   19.7040 C   0  0  0  0  0  0  0  0  0  0  0  0
  -23.3253  -32.9759   23.2638 C   0  0  0  0  0  0  0  0  0  0  0  0
  -29.5802  -12.5703   18.3116 C   0  0  0  0  0  0  0  0  0  0  0  0
  -23.6115  -31.5395   23.6900 C   0  0  0  0  0  0  0  0  0  0  0  0
  -28.1544  -12.2054   18.7311 C   0  0  0  0  0  0  0  0  0  0  0  0
  -31.1337  -23.6452   21.3375 C   0  0  0  0  0  0  0  0  0  0  0  0
  -30.4775  -12.8322   19.5199 C   0  0  0  0  0  0  0  0  0  0  0  0
  -31.1586  -22.2369   20.7435 C   0  0  0  0  0  0  0  0  0  0  0  0
  -28.5312  -13.4507   20.8977 C   0  0  0  0  0  0  0  0  0  0  0  0
  -29.5018  -22.3327   22.5089 C   0  0  0  0  0  0  0  0  0  0  0  0
  -25.1168  -31.2476   23.6696 C   0  0  1  0  0  0  0  0  0  0  0  0
  -26.0179  -29.8135   20.2689 C   0  0  1  0  0  0  0  0  0  0  0  0
  -27.5735  -13.2413   19.7134 C   0  0  2  0  0  0  0  0  0  0  0  0
  -29.7534  -23.7407   21.9711 C   0  0  2  0  0  0  0  0  0  1  0  0
  -22.6381  -27.2611   13.7831 C   0  0  0  0  0  0  0  0  0  0  0  0
  -21.6540  -28.2914   20.2515 C   0  0  0  0  0  0  0  0  0  0  0  0
  -20.8693  -27.2905   18.0950 C   0  0  0  0  0  0  0  0  0  0  0  0
  -21.1500  -29.7613   18.2920 C   0  0  0  0  0  0  0  0  0  0  0  0
  -26.3719  -27.6695   14.3897 C   0  0  0  0  0  0  0  0  0  0  0  0
  -23.2001  -28.2857   18.1838 C   0  0  1  0  0  0  0  0  0  0  0  0
  -23.8788  -27.7871   14.4878 C   0  0  2  0  0  0  0  0  0  0  0  0
  -21.7439  -28.4004   18.7163 C   0  0  0  0  0  0  0  0  0  0  0  0
  -25.8628  -11.5598   20.2858 N   0  0  0  0  0  0  0  0  0  0  0  0
  -26.1776  -12.8613   20.1709 N   0  0  0  0  0  0  0  0  0  0  0  0
  -30.2736  -21.4691   21.6143 N   0  0  3  0  0  0  0  0  0  0  0  0
  -25.2128  -28.8583   19.5050 N   0  0  0  0  0  0  0  0  0  0  0  0
  -29.8651  -13.8267   20.4035 N   0  0  0  0  0  0  0  0  0  0  0  0
  -25.3029  -15.0467   20.4348 N   0  0  0  0  0  0  0  0  0  0  0  0
  -21.8366  -12.3907   21.5868 N   0  0  0  0  0  0  0  0  0  0  0  0
  -29.8698  -15.8986   21.5302 N   0  0  0  0  0  0  0  0  0  0  0  0
  -25.5711  -31.0303   22.3128 N   0  0  0  0  0  0  0  0  0  0  0  0
  -23.3185  -28.4126   16.7353 N   0  0  0  0  0  0  0  0  0  0  0  0
  -25.0795  -27.2175   13.8132 N   0  3  0  0  0  0  0  0  0  0  0  0
  -22.5089  -14.5681   21.3299 O   0  0  0  0  0  0  0  0  0  0  0  0
  -25.0358  -28.7702   22.1456 O   0  0  0  0  0  0  0  0  0  0  0  0
  -23.8642  -30.5262   18.5909 O   0  0  0  0  0  0  0  0  0  0  0  0
  -24.3205  -26.3517   16.3805 O   0  0  0  0  0  0  0  0  0  0  0  0
  -31.6869  -15.2410   20.2467 O   0  0  0  0  0  0  0  0  0  0  0  0
  -21.8330   -6.8201   21.6439 O   0  0  0  0  0  0  0  0  0  0  0  0
  -28.7779  -24.0453   20.9808 O   0  0  0  0  0  0  0  0  0  1  0  0
  -18.8315   -6.4744   26.2564 F   0  0  0  0  0  0  0  0  0  0  0  0
  -22.3681   -4.8832   23.5424 F   0  0  0  0  0  0  0  0  0  0  0  0
  1  2  1  0  0  0  0
  1  5  2  0  0  0  0
  2  6  2  0  0  0  0
  3 12  2  0  0  0  0
  3 19  1  0  0  0  0
  4 13  1  0  0  0  0
  4 19  2  0  0  0  0
  5 21  1  0  0  0  0
  6 23  1  0  0  0  0
  7 14  2  0  0  0  0
  7 22  1  0  0  0  0
  8 10  2  0  0  0  0
  8 25  1  0  0  0  0
  9 11  1  0  0  0  0
  9 25  2  0  0  0  0
 10 26  1  0  0  0  0
 11 26  2  0  0  0  0
 12 27  1  0  0  0  0
 13 27  2  0  0  0  0
 14 28  1  0  0  0  0
 15 16  2  0  0  0  0
 15 29  1  0  0  0  0
 16 30  1  0  0  0  0
 17 24  1  0  0  0  0
 17 28  2  0  0  0  0
 18 30  2  0  0  0  0
 18 31  1  0  0  0  0
 19 32  1  0  0  0  0
 20 32  1  0  0  0  0
 20 33  2  0  0  0  0
 20 34  1  0  0  0  0
 21 23  2  0  0  0  0
 21 39  1  0  0  0  0
 22 24  2  0  0  0  0
 22 40  1  0  0  0  0
 23 51  1  0  0  0  0
 24 41  1  0  0  0  0
 25 65  1  0  0  0  0
 26 70  1  0  0  0  0
 27 79  1  0  0  0  0
 28 80  1  0  0  0  0
 29 31  2  0  0  0  0
 29 79  1  0  0  0  0
 30 81  1  0  0  0  0
 31 82  1  0  0  0  0
 32 63  2  0  0  0  0
 33 64  1  0  0  0  0
 33 68  1  0  0  0  0
 34 69  1  0  0  0  0
 34 74  2  0  0  0  0
 35 52  1  0  0  0  0
 35 71  1  0  0  0  0
 35 75  2  0  0  0  0
 36 60  1  0  0  0  0
 36 66  1  0  0  0  0
 36 76  2  0  0  0  0
 37 61  1  0  0  0  0
 37 72  1  0  0  0  0
 37 77  2  0  0  0  0
 38 67  1  0  0  0  0
 38 70  1  0  0  0  0
 38 78  2  0  0  0  0
 39 42  1  0  0  0  0
 40 52  1  0  0  0  0
 41 66  1  0  0  0  0
 42 44  1  0  0  0  0
 43 45  1  0  0  0  0
 43 47  1  0  0  0  0
 44 51  1  0  0  0  0
 45 53  1  0  0  0  0
 46 48  1  0  0  0  0
 46 54  1  0  0  0  0
 47 67  1  0  0  0  0
 48 65  1  0  0  0  0
 49 53  1  0  0  0  0
 49 67  1  0  0  0  0
 50 54  1  0  0  0  0
 50 65  1  0  0  0  0
 51 71  1  0  0  0  0
 52 66  1  0  0  0  0
 53 64  1  0  0  0  0
 54 80  1  0  0  0  0
 55 61  1  0  0  0  0
 56 62  1  0  0  0  0
 57 62  1  0  0  0  0
 58 62  1  0  0  0  0
 59 73  1  0  0  0  0
 60 62  1  0  0  0  0
 60 72  1  0  0  0  0
 61 73  1  0  0  0  0
 63 64  1  0  0  0  0
M  CHG  1  73   1
M  ISO  4  38 100  54 101  70 100  80 101
M  END
> <Batch ID>
0012

> <Smiles>
CNC(C)C(=O)NC(C(=O)N1Cc2cc([101O:1][101CH:1]3CCN(c4ccc([100NH:0][100C:0](=O)N5CCCC(n6nc(-c7ccc(Oc8ccc(F)cc8F)cc7)c(C(N)=O)c6N)C5)cc4)C3)ccc2CC1C(=O)NC1CCCc2ccccc21)C(C)(C)C

> <Shape>
0.353

> <Color>
0.208

> <Negative vol penalty>
0.000

$$$$

  -OEChem-04042320463D

 81 89  0     1  0  0  0  0  0999 V2000
  -18.5612  -31.7701   26.1841 C   0  0  0  0  0  0  0  0  0  0  0  0
  -19.9107  -31.4553   26.3070 C   0  0  0  0  0  0  0  0  0  0  0  0
  -24.7319  -10.0490   22.3108 C   0  0  0  0  0  0  0  0  0  0  0  0
  -24.7893  -11.5537   24.2001 C   0  0  0  0  0  0  0  0  0  0  0  0
  -17.8139  -31.2336   25.1364 C   0  0  0  0  0  0  0  0  0  0  0  0
  -20.5135  -30.6027   25.3828 C   0  0  0  0  0  0  0  0  0  0  0  0
  -26.7800  -29.4526   22.1079 C   0  0  0  0  0  0  0  0  0  0  0  0
  -29.5781  -21.7501   20.9856 C   0  0  0  0  0  0  0  0  0  0  0  0
  -29.6142  -20.3776   20.7400 C   0  0  0  0  0  0  0  0  0  0  0  0
  -24.4175   -8.9906   23.1632 C   0  0  0  0  0  0  0  0  0  0  0  0
  -24.4749  -10.4953   25.0525 C   0  0  0  0  0  0  0  0  0  0  0  0
  -27.6998  -28.4322   21.8703 C   0  0  0  0  0  0  0  0  0  0  0  0
  -21.6829   -7.8074   24.7615 C   0  0  0  0  0  0  0  0  0  0  0  0
  -20.6640   -6.9396   24.3688 C   0  0  0  0  0  0  0  0  0  0  0  0
  -26.3292  -27.6276   20.0556 C   0  0  0  0  0  0  0  0  0  0  0  0
  -27.1630  -21.6932   20.9490 C   0  0  0  0  0  0  0  0  0  0  0  0
  -22.2225   -5.0938   24.4044 C   0  0  0  0  0  0  0  0  0  0  0  0
  -24.9179  -11.3305   22.8292 C   0  0  0  0  0  0  0  0  0  0  0  0
  -24.3424  -13.2836   21.2923 C   0  0  0  0  0  0  0  0  0  0  0  0
  -18.4102  -30.3817   24.1933 C   0  0  0  0  0  0  0  0  0  0  0  0
  -25.6205  -29.5619   21.3269 C   0  0  0  0  0  0  0  0  0  0  0  0
  -19.7732  -30.0532   24.3222 C   0  0  0  0  0  0  0  0  0  0  0  0
  -25.3975  -28.6518   20.2837 C   0  0  0  0  0  0  0  0  0  0  0  0
  -28.3525  -22.4080   21.0902 C   0  0  0  0  0  0  0  0  0  0  0  0
  -28.4248  -19.6628   20.5988 C   0  0  0  0  0  0  0  0  0  0  0  0
  -24.2890   -9.2138   24.5340 C   0  0  0  0  0  0  0  0  0  0  0  0
  -27.4730  -27.5177   20.8459 C   0  0  0  0  0  0  0  0  0  0  0  0
  -22.9716   -7.3185   24.9755 C   0  0  0  0  0  0  0  0  0  0  0  0
  -20.9338   -5.5827   24.1903 C   0  0  0  0  0  0  0  0  0  0  0  0
  -27.1991  -20.3206   20.7033 C   0  0  0  0  0  0  0  0  0  0  0  0
  -23.2414   -5.9617   24.7970 C   0  0  0  0  0  0  0  0  0  0  0  0
  -25.2432  -12.4241   21.9493 C   0  0  0  0  0  0  0  0  0  0  0  0
  -25.1441  -14.1445   20.5834 C   0  0  0  0  0  0  0  0  0  0  0  0
  -22.9090  -13.3022   21.3205 C   0  0  0  0  0  0  0  0  0  0  0  0
  -22.4997  -29.4135   21.9118 C   0  0  0  0  0  0  0  0  0  0  0  0
  -22.2696  -30.2698   18.7916 C   0  0  0  0  0  0  0  0  0  0  0  0
  -23.7074  -30.3579   15.6978 C   0  0  0  0  0  0  0  0  0  0  0  0
  -29.5977  -17.4663   20.2170 C   0  0  0  0  0  0  0  0  0  0  0  0
  -17.5507  -29.7884   23.1052 C   0  0  0  0  0  0  0  0  0  0  0  0
  -24.6515  -30.6843   21.5787 C   0  0  0  0  0  0  0  0  0  0  0  0
  -24.1784  -28.7377   19.4035 C   0  0  0  0  0  0  0  0  0  0  0  0
  -18.3535  -29.1913   21.9523 C   0  0  0  0  0  0  0  0  0  0  0  0
  -30.1143  -13.9915   19.6368 C   0  0  0  0  0  0  0  0  0  0  0  0
  -19.4890  -28.3234   22.4857 C   0  0  0  0  0  0  0  0  0  0  0  0
  -28.8190  -13.3447   20.1327 C   0  0  0  0  0  0  0  0  0  0  0  0
  -30.5243  -15.1788   20.5063 C   0  0  0  0  0  0  0  0  0  0  0  0
  -28.1880  -15.5497   21.1943 C   0  0  0  0  0  0  0  0  0  0  0  0
  -20.4689  -29.1518   23.3254 C   0  0  1  0  0  0  0  0  0  0  0  0
  -23.2493  -30.3924   21.0531 C   0  0  1  0  0  0  0  0  0  0  0  0
  -27.6999  -14.3894   20.3116 C   0  0  2  0  0  0  0  0  0  0  0  0
  -23.2610  -31.0857   13.3380 C   0  0  0  0  0  0  0  0  0  0  0  0
  -20.4562  -27.8489   18.3905 C   0  0  0  0  0  0  0  0  0  0  0  0
  -20.8185  -28.0738   15.9234 C   0  0  0  0  0  0  0  0  0  0  0  0
  -19.7163  -29.9163   17.1934 C   0  0  0  0  0  0  0  0  0  0  0  0
  -25.9838  -32.2489   15.7275 C   0  0  0  0  0  0  0  0  0  0  0  0
  -29.4981  -24.5873   21.4945 C   0  0  0  0  0  0  0  0  0  0  0  0
  -29.1094  -26.0369   21.7322 C   0  0  0  0  0  0  0  0  0  1  0  0
  -22.1974  -29.5243   17.4809 C   0  0  1  0  0  0  0  0  0  0  0  0
  -23.8489  -31.4792   14.6843 C   0  0  2  0  0  0  0  0  0  0  0  0
  -20.8192  -28.8378   17.2647 C   0  0  0  0  0  0  0  0  0  0  0  0
  -26.5196  -12.7126   21.6814 N   0  0  0  0  0  0  0  0  0  0  0  0
  -26.4265  -13.7629   20.8482 N   0  0  0  0  0  0  0  0  0  0  0  0
  -23.2572  -29.8490   19.6934 N   0  0  0  0  0  0  0  0  0  0  0  0
  -29.4162  -16.1286   20.6275 N   0  0  0  0  0  0  0  0  0  0  0  0
  -24.8702  -15.1830   19.7656 N   0  0  0  0  0  0  0  0  0  0  0  0
  -22.2436  -12.3468   22.1007 N   0  0  0  0  0  0  0  0  0  0  0  0
  -28.4649  -18.2686   20.3489 N   0  0  0  0  0  0  0  0  0  0  0  0
  -28.3167  -23.7708   21.3347 N   0  0  0  0  0  0  0  0  0  0  0  0
  -21.3421  -29.9239   22.4676 N   0  0  0  0  0  0  0  0  0  0  0  0
  -22.5550  -30.4862   16.4439 N   0  0  0  0  0  0  0  0  0  0  0  0
  -25.2859  -31.8214   14.4876 N   0  3  0  0  0  0  0  0  0  0  0  0
  -22.2378  -14.1309   20.6600 O   0  0  0  0  0  0  0  0  0  0  0  0
  -22.9383  -28.2786   22.0581 O   0  0  0  0  0  0  0  0  0  0  0  0
  -21.4834  -31.1963   19.0044 O   0  0  0  0  0  0  0  0  0  0  0  0
  -24.5345  -29.4561   15.8133 O   0  0  0  0  0  0  0  0  0  0  0  0
  -30.6706  -17.8635   19.7552 O   0  0  0  0  0  0  0  0  0  0  0  0
  -23.9819   -8.1813   25.3661 O   0  0  0  0  0  0  0  0  0  0  0  0
  -28.3689  -26.5203   20.6122 O   0  0  0  0  0  0  0  0  0  1  0  0
  -19.9549   -4.7491   23.8147 F   0  0  0  0  0  0  0  0  0  0  0  0
  -26.0498  -19.6435   20.5689 F   0  0  0  0  0  0  0  0  0  0  0  0
  -24.4773   -5.4860   25.0023 F   0  0  0  0  0  0  0  0  0  0  0  0
  1  2  1  0  0  0  0
  1  5  2  0  0  0  0
  2  6  2  0  0  0  0
  3 10  2  0  0  0  0
  3 18  1  0  0  0  0
  4 11  1  0  0  0  0
  4 18  2  0  0  0  0
  5 20  1  0  0  0  0
  6 22  1  0  0  0  0
  7 12  2  0  0  0  0
  7 21  1  0  0  0  0
  8  9  2  0  0  0  0
  8 24  1  0  0  0  0
  9 25  1  0  0  0  0
 10 26  1  0  0  0  0
 11 26  2  0  0  0  0
 12 27  1  0  0  0  0
 13 14  2  0  0  0  0
 13 28  1  0  0  0  0
 14 29  1  0  0  0  0
 15 23  1  0  0  0  0
 15 27  2  0  0  0  0
 16 24  2  0  0  0  0
 16 30  1  0  0  0  0
 17 29  2  0  0  0  0
 17 31  1  0  0  0  0
 18 32  1  0  0  0  0
 19 32  1  0  0  0  0
 19 33  2  0  0  0  0
 19 34  1  0  0  0  0
 20 22  2  0  0  0  0
 20 39  1  0  0  0  0
 21 23  2  0  0  0  0
 21 40  1  0  0  0  0
 22 48  1  0  0  0  0
 23 41  1  0  0  0  0
 24 68  1  0  0  0  0
 25 30  2  0  0  0  0
 25 67  1  0  0  0  0
 26 77  1  0  0  0  0
 27 78  1  0  0  0  0
 28 31  2  0  0  0  0
 28 77  1  0  0  0  0
 29 79  1  0  0  0  0
 30 80  1  0  0  0  0
 31 81  1  0  0  0  0
 32 61  2  0  0  0  0
 33 62  1  0  0  0  0
 33 65  1  0  0  0  0
 34 66  1  0  0  0  0
 34 72  2  0  0  0  0
 35 49  1  0  0  0  0
 35 69  1  0  0  0  0
 35 73  2  0  0  0  0
 36 58  1  0  0  0  0
 36 63  1  0  0  0  0
 36 74  2  0  0  0  0
 37 59  1  0  0  0  0
 37 70  1  0  0  0  0
 37 75  2  0  0  0  0
 38 64  1  0  0  0  0
 38 67  1  0  0  0  0
 38 76  2  0  0  0  0
 39 42  1  0  0  0  0
 40 49  1  0  0  0  0
 41 63  1  0  0  0  0
 42 44  1  0  0  0  0
 43 45  1  0  0  0  0
 43 46  1  0  0  0  0
 44 48  1  0  0  0  0
 45 50  1  0  0  0  0
 46 64  1  0  0  0  0
 47 50  1  0  0  0  0
 47 64  1  0  0  0  0
 48 69  1  0  0  0  0
 49 63  1  0  0  0  0
 50 62  1  0  0  0  0
 51 59  1  0  0  0  0
 52 60  1  0  0  0  0
 53 60  1  0  0  0  0
 54 60  1  0  0  0  0
 55 71  1  0  0  0  0
 56 57  1  0  0  0  0
 56 68  1  0  0  0  0
 57 78  1  0  0  0  0
 58 60  1  0  0  0  0
 58 70  1  0  0  0  0
 59 71  1  0  0  0  0
 61 62  1  0  0  0  0
M  CHG  1  71   1
M  ISO  4  38 100  57 101  67 100  78 101
M  END
> <Batch ID>
0012

> <Smiles>
CNC(C)C(=O)NC(C(=O)N1Cc2cc([101O:1][101CH2:1]CNc3ccc([100NH:0][100C:0](=O)N4CCCC(n5nc(-c6ccc(Oc7ccc(F)cc7F)cc6)c(C(N)=O)c5N)C4)c(F)c3)ccc2CC1C(=O)NC1CCCc2ccccc21)C(C)(C)C

> <Shape>
0.285

> <Color>
0.137

> <Negative vol penalty>
0.000

$$$$

  -OEChem-04042320463D

 86 95  0     1  0  0  0  0  0999 V2000
  -31.4241  -33.7802   28.4460 C   0  0  0  0  0  0  0  0  0  0  0  0
  -31.2255  -32.4308   28.1720 C   0  0  0  0  0  0  0  0  0  0  0  0
  -23.1462   -9.8532   19.9054 C   0  0  0  0  0  0  0  0  0  0  0  0
  -23.8884   -9.8567   22.2046 C   0  0  0  0  0  0  0  0  0  0  0  0
  -30.3342  -34.6485   28.4928 C   0  0  0  0  0  0  0  0  0  0  0  0
  -29.9368  -31.9487   27.9456 C   0  0  0  0  0  0  0  0  0  0  0  0
  -29.7029  -28.8219   23.9690 C   0  0  0  0  0  0  0  0  0  0  0  0
  -31.2353  -22.9679   25.9895 C   0  0  0  0  0  0  0  0  0  0  0  0
  -31.7214  -22.7426   23.6337 C   0  0  0  0  0  0  0  0  0  0  0  0
  -29.6395  -17.6445   23.2585 C   0  0  0  0  0  0  0  0  0  0  0  0
  -22.4437   -8.6700   20.1339 C   0  0  0  0  0  0  0  0  0  0  0  0
  -23.1859   -8.6735   22.4331 C   0  0  0  0  0  0  0  0  0  0  0  0
  -30.1505  -27.5153   24.1592 C   0  0  0  0  0  0  0  0  0  0  0  0
  -31.4906  -21.6089   26.1722 C   0  0  0  0  0  0  0  0  0  0  0  0
  -31.9768  -21.3835   23.8163 C   0  0  0  0  0  0  0  0  0  0  0  0
  -30.1870  -18.5373   24.1798 C   0  0  0  0  0  0  0  0  0  0  0  0
  -19.9852   -7.7487   22.9994 C   0  0  0  0  0  0  0  0  0  0  0  0
  -19.2216   -7.6647   24.1636 C   0  0  0  0  0  0  0  0  0  0  0  0
  -27.8677  -26.7756   24.4059 C   0  0  0  0  0  0  0  0  0  0  0  0
  -31.8578  -16.8857   22.6753 C   0  0  0  0  0  0  0  0  0  0  0  0
  -20.5285   -5.7645   24.8837 C   0  0  0  0  0  0  0  0  0  0  0  0
  -23.8686  -10.4465   20.9407 C   0  0  0  0  0  0  0  0  0  0  0  0
  -24.1175  -12.9840   20.8574 C   0  0  0  0  0  0  0  0  0  0  0  0
  -29.0325  -34.1786   28.2574 C   0  0  0  0  0  0  0  0  0  0  0  0
  -28.3326  -29.1175   24.0067 C   0  0  0  0  0  0  0  0  0  0  0  0
  -28.8284  -32.8113   27.9906 C   0  0  0  0  0  0  0  0  0  0  0  0
  -27.4051  -28.0864   24.2133 C   0  0  0  0  0  0  0  0  0  0  0  0
  -31.3506  -23.5348   24.7202 C   0  0  0  0  0  0  0  0  0  0  0  0
  -30.4749  -16.8187   22.5063 C   0  0  0  0  0  0  0  0  0  0  0  0
  -22.4635   -8.0801   21.3978 C   0  0  0  0  0  0  0  0  0  0  0  0
  -31.8614  -20.8167   25.0856 C   0  0  0  0  0  0  0  0  0  0  0  0
  -29.2330  -26.4924   24.3806 C   0  0  0  0  0  0  0  0  0  0  0  0
  -31.5700  -18.6044   24.3488 C   0  0  0  0  0  0  0  0  0  0  0  0
  -21.0203   -6.8405   22.7772 C   0  0  0  0  0  0  0  0  0  0  0  0
  -19.4933   -6.6727   25.1058 C   0  0  0  0  0  0  0  0  0  0  0  0
  -32.4054  -17.7786   23.5965 C   0  0  0  0  0  0  0  0  0  0  0  0
  -21.2920   -5.8485   23.7193 C   0  0  0  0  0  0  0  0  0  0  0  0
  -24.5949  -11.6684   20.7051 C   0  0  0  0  0  0  0  0  0  0  0  0
  -25.1837  -13.7782   20.5129 C   0  0  0  0  0  0  0  0  0  0  0  0
  -22.8257  -13.4467   21.2732 C   0  0  0  0  0  0  0  0  0  0  0  0
  -26.4801  -30.9371   25.8399 C   0  0  0  0  0  0  0  0  0  0  0  0
  -24.2000  -30.1061   23.6875 C   0  0  0  0  0  0  0  0  0  0  0  0
  -23.1020  -27.8826   21.3428 C   0  0  0  0  0  0  0  0  0  0  0  0
  -30.6060  -15.0226   20.7447 C   0  0  0  0  0  0  0  0  0  0  0  0
  -27.8808  -35.1464   28.3653 C   0  0  0  0  0  0  0  0  0  0  0  0
  -27.8645  -30.5277   23.7731 C   0  0  0  0  0  0  0  0  0  0  0  0
  -25.9221  -28.3479   24.2428 C   0  0  0  0  0  0  0  0  0  0  0  0
  -26.5874  -34.6256   27.7440 C   0  0  0  0  0  0  0  0  0  0  0  0
  -29.5993  -12.6021   18.3354 C   0  0  0  0  0  0  0  0  0  0  0  0
  -26.3251  -33.1885   28.1829 C   0  0  0  0  0  0  0  0  0  0  0  0
  -28.1683  -12.2516   18.7497 C   0  0  0  0  0  0  0  0  0  0  0  0
  -30.4964  -12.8480   19.5472 C   0  0  0  0  0  0  0  0  0  0  0  0
  -28.5538  -13.4824   20.9231 C   0  0  0  0  0  0  0  0  0  0  0  0
  -27.4483  -32.2551   27.7151 C   0  0  1  0  0  0  0  0  0  0  0  0
  -26.4758  -30.7985   24.3438 C   0  0  1  0  0  0  0  0  0  0  0  0
  -27.5967  -13.2895   19.7354 C   0  0  2  0  0  0  0  0  0  0  0  0
  -21.1854  -27.4522   19.7812 C   0  0  0  0  0  0  0  0  0  0  0  0
  -22.4943  -29.1772   26.0407 C   0  0  0  0  0  0  0  0  0  0  0  0
  -21.0612  -27.9217   24.4165 C   0  0  0  0  0  0  0  0  0  0  0  0
  -21.2370  -30.4052   24.2615 C   0  0  0  0  0  0  0  0  0  0  0  0
  -24.8582  -28.0177   18.9645 C   0  0  0  0  0  0  0  0  0  0  0  0
  -31.0766  -24.9968   24.5236 C   0  0  0  0  0  0  0  0  0  1  0  0
  -23.2045  -28.9776   23.5665 C   0  0  1  0  0  0  0  0  0  0  0  0
  -22.5595  -28.0842   19.9395 C   0  0  2  0  0  0  0  0  0  0  0  0
  -22.0273  -29.1155   24.5727 C   0  0  0  0  0  0  0  0  0  0  0  0
  -25.8654  -11.6251   20.2955 N   0  0  0  0  0  0  0  0  0  0  0  0
  -26.1955  -12.9234   20.1875 N   0  0  0  0  0  0  0  0  0  0  0  0
  -25.5143  -29.7441   24.0154 N   0  0  0  0  0  0  0  0  0  0  0  0
  -29.8932  -13.8453   20.4340 N   0  0  0  0  0  0  0  0  0  0  0  0
  -25.3452  -15.1174   20.4595 N   0  0  0  0  0  0  0  0  0  0  0  0
  -21.8457  -12.4962   21.5903 N   0  0  0  0  0  0  0  0  0  0  0  0
  -29.9188  -15.9117   21.5704 N   0  0  0  0  0  0  0  0  0  0  0  0
  -27.2973  -31.9478   26.3090 N   0  0  0  0  0  0  0  0  0  0  0  0
  -22.7936  -28.9441   22.1671 N   0  0  0  0  0  0  0  0  0  0  0  0
  -23.4766  -27.4723   18.9367 N   0  3  0  0  0  0  0  0  0  0  0  0
  -22.5436  -14.6668   21.3453 O   0  0  0  0  0  0  0  0  0  0  0  0
  -25.7916  -30.1839   26.5184 O   0  0  0  0  0  0  0  0  0  0  0  0
  -23.8269  -31.2653   23.4910 O   0  0  0  0  0  0  0  0  0  0  0  0
  -23.7329  -26.8817   21.6757 O   0  0  0  0  0  0  0  0  0  0  0  0
  -31.7315  -15.2393   20.2883 O   0  0  0  0  0  0  0  0  0  0  0  0
  -21.7780   -6.9257   21.6212 O   0  0  0  0  0  0  0  0  0  0  0  0
  -32.1118  -19.4908   25.2644 O   0  0  0  0  0  0  0  0  0  0  0  0
  -29.6672  -25.2163   24.5672 O   0  0  0  0  0  0  0  0  0  1  0  0
  -18.7609   -6.5931   26.2245 F   0  0  0  0  0  0  0  0  0  0  0  0
  -33.7347  -17.8376   23.7554 F   0  0  0  0  0  0  0  0  0  0  0  0
  -22.2860   -4.9739   23.5120 F   0  0  0  0  0  0  0  0  0  0  0  0
  1  2  1  0  0  0  0
  1  5  2  0  0  0  0
  2  6  2  0  0  0  0
  3 11  2  0  0  0  0
  3 22  1  0  0  0  0
  4 12  1  0  0  0  0
  4 22  2  0  0  0  0
  5 24  1  0  0  0  0
  6 26  1  0  0  0  0
  7 13  2  0  0  0  0
  7 25  1  0  0  0  0
  8 14  2  0  0  0  0
  8 28  1  0  0  0  0
  9 15  1  0  0  0  0
  9 28  2  0  0  0  0
 10 16  2  0  0  0  0
 10 29  1  0  0  0  0
 11 30  1  0  0  0  0
 12 30  2  0  0  0  0
 13 32  1  0  0  0  0
 14 31  1  0  0  0  0
 15 31  2  0  0  0  0
 16 33  1  0  0  0  0
 17 18  2  0  0  0  0
 17 34  1  0  0  0  0
 18 35  1  0  0  0  0
 19 27  1  0  0  0  0
 19 32  2  0  0  0  0
 20 29  2  0  0  0  0
 20 36  1  0  0  0  0
 21 35  2  0  0  0  0
 21 37  1  0  0  0  0
 22 38  1  0  0  0  0
 23 38  1  0  0  0  0
 23 39  2  0  0  0  0
 23 40  1  0  0  0  0
 24 26  2  0  0  0  0
 24 45  1  0  0  0  0
 25 27  2  0  0  0  0
 25 46  1  0  0  0  0
 26 54  1  0  0  0  0
 27 47  1  0  0  0  0
 28 62  1  0  0  0  0
 29 72  1  0  0  0  0
 30 81  1  0  0  0  0
 31 82  1  0  0  0  0
 32 83  1  0  0  0  0
 33 36  2  0  0  0  0
 33 82  1  0  0  0  0
 34 37  2  0  0  0  0
 34 81  1  0  0  0  0
 35 84  1  0  0  0  0
 36 85  1  0  0  0  0
 37 86  1  0  0  0  0
 38 66  2  0  0  0  0
 39 67  1  0  0  0  0
 39 70  1  0  0  0  0
 40 71  1  0  0  0  0
 40 76  2  0  0  0  0
 41 55  1  0  0  0  0
 41 73  1  0  0  0  0
 41 77  2  0  0  0  0
 42 63  1  0  0  0  0
 42 68  1  0  0  0  0
 42 78  2  0  0  0  0
 43 64  1  0  0  0  0
 43 74  1  0  0  0  0
 43 79  2  0  0  0  0
 44 69  1  0  0  0  0
 44 72  1  0  0  0  0
 44 80  2  0  0  0  0
 45 48  1  0  0  0  0
 46 55  1  0  0  0  0
 47 68  1  0  0  0  0
 48 50  1  0  0  0  0
 49 51  1  0  0  0  0
 49 52  1  0  0  0  0
 50 54  1  0  0  0  0
 51 56  1  0  0  0  0
 52 69  1  0  0  0  0
 53 56  1  0  0  0  0
 53 69  1  0  0  0  0
 54 73  1  0  0  0  0
 55 68  1  0  0  0  0
 56 67  1  0  0  0  0
 57 64  1  0  0  0  0
 58 65  1  0  0  0  0
 59 65  1  0  0  0  0
 60 65  1  0  0  0  0
 61 75  1  0  0  0  0
 62 83  1  0  0  0  0
 63 65  1  0  0  0  0
 63 74  1  0  0  0  0
 64 75  1  0  0  0  0
 66 67  1  0  0  0  0
M  CHG  1  75   1
M  ISO  4  44 100  62 101  72 100  83 101
M  END
> <Batch ID>
0012

> <Smiles>
CNC(C)C(=O)NC(C(=O)N1Cc2cc([101O:1][101CH2:1]c3ccc(Oc4ccc([100NH:0][100C:0](=O)N5CCCC(n6nc(-c7ccc(Oc8ccc(F)cc8F)cc7)c(C(N)=O)c6N)C5)cc4F)cc3)ccc2CC1C(=O)NC1CCCc2ccccc21)C(C)(C)C

> <Shape>
0.265

> <Color>
0.199

> <Negative vol penalty>
0.000

$$$$

  -OEChem-04042320463D

 84 92  0     1  0  0  0  0  0999 V2000
  -24.3128   -8.0959   22.3427 C   0  0  0  0  0  0  0  0  0  0  0  0
  -24.9835   -9.2942   22.1196 C   0  0  0  0  0  0  0  0  0  0  0  0
  -26.9116  -29.0946   21.6109 C   0  0  0  0  0  0  0  0  0  0  0  0
  -26.1846  -26.8753   22.2300 C   0  0  0  0  0  0  0  0  0  0  0  0
  -22.9602   -7.9854   22.0232 C   0  0  0  0  0  0  0  0  0  0  0  0
  -24.3020  -10.3824   21.5758 C   0  0  0  0  0  0  0  0  0  0  0  0
  -25.3371  -14.7195   23.9765 C   0  0  0  0  0  0  0  0  0  0  0  0
  -29.4135  -19.1138   17.4757 C   0  0  0  0  0  0  0  0  0  0  0  0
  -31.5651  -19.1425   18.5743 C   0  0  0  0  0  0  0  0  0  0  0  0
  -25.8427  -29.6425   22.3200 C   0  0  0  0  0  0  0  0  0  0  0  0
  -25.1157  -27.4232   22.9391 C   0  0  0  0  0  0  0  0  0  0  0  0
  -26.5499  -15.3389   23.6777 C   0  0  0  0  0  0  0  0  0  0  0  0
  -28.9688  -18.1420   18.3720 C   0  0  0  0  0  0  0  0  0  0  0  0
  -31.1203  -18.1707   19.4707 C   0  0  0  0  0  0  0  0  0  0  0  0
  -22.5277  -30.1134   21.8579 C   0  0  0  0  0  0  0  0  0  0  0  0
  -21.7980  -31.1316   21.2445 C   0  0  0  0  0  0  0  0  0  0  0  0
  -25.4017  -16.8610   22.2000 C   0  0  0  0  0  0  0  0  0  0  0  0
  -22.3672  -32.6291   23.0530 C   0  0  0  0  0  0  0  0  0  0  0  0
  -27.0825  -27.7109   21.5658 C   0  0  0  0  0  0  0  0  0  0  0  0
  -29.4746  -26.8586   21.3229 C   0  0  0  0  0  0  0  0  0  0  0  0
  -22.2595   -9.0759   21.4842 C   0  0  0  0  0  0  0  0  0  0  0  0
  -24.1470  -15.1600   23.3798 C   0  0  0  0  0  0  0  0  0  0  0  0
  -22.9391  -10.2860   21.2475 C   0  0  0  0  0  0  0  0  0  0  0  0
  -24.1747  -16.2472   22.4948 C   0  0  0  0  0  0  0  0  0  0  0  0
  -30.7117  -19.6140   17.5768 C   0  0  0  0  0  0  0  0  0  0  0  0
  -24.9448  -28.8069   22.9841 C   0  0  0  0  0  0  0  0  0  0  0  0
  -29.8222  -17.6704   19.3695 C   0  0  0  0  0  0  0  0  0  0  0  0
  -26.5828  -16.4079   22.7872 C   0  0  0  0  0  0  0  0  0  0  0  0
  -23.1771  -30.3530   23.0690 C   0  0  0  0  0  0  0  0  0  0  0  0
  -21.7177  -32.3894   21.8420 C   0  0  0  0  0  0  0  0  0  0  0  0
  -23.0969  -31.6108   23.6665 C   0  0  0  0  0  0  0  0  0  0  0  0
  -28.1861  -27.1442   20.8330 C   0  0  0  0  0  0  0  0  0  0  0  0
  -30.1446  -26.3370   20.2433 C   0  0  0  0  0  0  0  0  0  0  0  0
  -30.3796  -22.4001   20.5105 C   0  0  0  0  0  0  0  0  0  0  0  0
  -30.1012  -22.4757   19.2042 C   0  0  0  0  0  0  0  0  0  0  0  0
  -30.0173  -27.0477   22.6364 C   0  0  0  0  0  0  0  0  0  0  0  0
  -21.9849  -13.8498   21.4530 C   0  0  0  0  0  0  0  0  0  0  0  0
  -20.4061  -16.6357   21.9707 C   0  0  0  0  0  0  0  0  0  0  0  0
  -20.5567  -19.9341   22.8336 C   0  0  0  0  0  0  0  0  0  0  0  0
  -29.9139  -22.6475   15.9246 C   0  0  0  0  0  0  0  0  0  0  0  0
  -20.8096   -8.8941   21.1107 C   0  0  0  0  0  0  0  0  0  0  0  0
  -22.8431  -14.4984   23.7331 C   0  0  0  0  0  0  0  0  0  0  0  0
  -22.9221  -16.7714   21.8431 C   0  0  0  0  0  0  0  0  0  0  0  0
  -20.0688  -10.2098   20.8866 C   0  0  0  0  0  0  0  0  0  0  0  0
  -28.9108  -26.1639   15.3501 C   0  0  0  0  0  0  0  0  0  0  0  0
  -20.8955  -11.1454   20.0102 C   0  0  0  0  0  0  0  0  0  0  0  0
  -28.6723  -26.6782   16.7688 C   0  0  0  0  0  0  0  0  0  0  0  0
  -28.6627  -24.6624   15.2420 C   0  0  0  0  0  0  0  0  0  0  0  0
  -29.2016  -24.3660   17.6370 C   0  0  0  0  0  0  0  0  0  0  0  0
  -22.2284  -11.4966   20.6822 C   0  0  1  0  0  0  0  0  0  0  0  0
  -21.7648  -14.6991   22.6728 C   0  0  1  0  0  0  0  0  0  0  0  0
  -29.4880  -25.8673   17.7907 C   0  0  2  0  0  0  0  0  0  0  0  0
  -19.1068  -21.9605   23.1320 C   0  0  0  0  0  0  0  0  0  0  0  0
  -20.2360  -16.9571   18.9412 C   0  0  0  0  0  0  0  0  0  0  0  0
  -19.6621  -19.3677   19.2991 C   0  0  0  0  0  0  0  0  0  0  0  0
  -18.1534  -17.5849   20.1754 C   0  0  0  0  0  0  0  0  0  0  0  0
  -21.2719  -20.1676   25.6959 C   0  0  0  0  0  0  0  0  0  0  0  0
  -31.1872  -20.6534   16.6190 C   0  0  0  0  0  0  0  0  0  0  0  0
  -31.1389  -22.5966   18.1380 C   0  0  0  0  0  0  0  0  0  0  0  0
  -29.9543  -16.7395   21.5539 C   0  0  0  0  0  0  0  0  0  0  0  0
  -28.9401  -16.2056   22.5469 C   0  0  0  0  0  0  0  0  0  1  0  0
  -20.3796  -17.9896   21.3033 C   0  0  1  0  0  0  0  0  0  0  0  0
  -19.7400  -20.7573   23.8133 C   0  0  2  0  0  0  0  0  0  0  0  0
  -19.6318  -17.9639   19.9404 C   0  0  0  0  0  0  0  0  0  0  0  0
  -28.0438  -26.8303   19.5426 N   0  0  0  0  0  0  0  0  0  0  0  0
  -29.2516  -26.3421   19.2124 N   0  0  0  0  0  0  0  0  0  0  0  0
  -21.6729  -16.0872   22.2156 N   0  0  0  0  0  0  0  0  0  0  0  0
  -29.4166  -23.9195   16.2524 N   0  0  0  0  0  0  0  0  0  0  0  0
  -31.4046  -25.8792   20.0846 N   0  0  0  0  0  0  0  0  0  0  0  0
  -29.1919  -27.5955   23.6279 N   0  0  0  0  0  0  0  0  0  0  0  0
  -22.0279  -12.4932   21.7123 N   0  0  0  0  0  0  0  0  0  0  0  0
  -19.8126  -18.9145   22.2787 N   0  0  0  0  0  0  0  0  0  0  0  0
  -30.6413  -21.9704   16.9151 N   0  0  0  0  0  0  0  0  0  0  0  0
  -20.6040  -21.2472   24.9244 N   0  3  0  0  0  0  0  0  0  0  0  0
  -31.2042  -26.7553   22.9182 O   0  0  0  0  0  0  0  0  0  0  0  0
  -22.1054  -14.3855   20.3575 O   0  0  0  0  0  0  0  0  0  0  0  0
  -19.3420  -16.0883   22.2703 O   0  0  0  0  0  0  0  0  0  0  0  0
  -21.7357  -20.1741   22.5826 O   0  0  0  0  0  0  0  0  0  0  0  0
  -29.7271  -22.1497   14.8069 O   0  0  0  0  0  0  0  0  0  0  0  0
  -23.9018  -29.3413   23.6764 O   0  0  0  0  0  0  0  0  0  0  0  0
  -29.3847  -16.7169   20.2506 O   0  0  0  0  0  0  0  0  0  0  0  0
  -27.7653  -17.0138   22.4934 O   0  0  0  0  0  0  0  0  0  1  0  0
  -21.0182  -33.3676   21.2520 F   0  0  0  0  0  0  0  0  0  0  0  0
  -23.7196  -31.8473   24.8293 F   0  0  0  0  0  0  0  0  0  0  0  0
  1  2  1  0  0  0  0
  1  5  2  0  0  0  0
  2  6  2  0  0  0  0
  3 10  2  0  0  0  0
  3 19  1  0  0  0  0
  4 11  1  0  0  0  0
  4 19  2  0  0  0  0
  5 21  1  0  0  0  0
  6 23  1  0  0  0  0
  7 12  2  0  0  0  0
  7 22  1  0  0  0  0
  8 13  2  0  0  0  0
  8 25  1  0  0  0  0
  9 14  1  0  0  0  0
  9 25  2  0  0  0  0
 10 26  1  0  0  0  0
 11 26  2  0  0  0  0
 12 28  1  0  0  0  0
 13 27  1  0  0  0  0
 14 27  2  0  0  0  0
 15 16  2  0  0  0  0
 15 29  1  0  0  0  0
 16 30  1  0  0  0  0
 17 24  1  0  0  0  0
 17 28  2  0  0  0  0
 18 30  2  0  0  0  0
 18 31  1  0  0  0  0
 19 32  1  0  0  0  0
 20 32  1  0  0  0  0
 20 33  2  0  0  0  0
 20 36  1  0  0  0  0
 21 23  2  0  0  0  0
 21 41  1  0  0  0  0
 22 24  2  0  0  0  0
 22 42  1  0  0  0  0
 23 50  1  0  0  0  0
 24 43  1  0  0  0  0
 25 58  1  0  0  0  0
 26 80  1  0  0  0  0
 27 81  1  0  0  0  0
 28 82  1  0  0  0  0
 29 31  2  0  0  0  0
 29 80  1  0  0  0  0
 30 83  1  0  0  0  0
 31 84  1  0  0  0  0
 32 65  2  0  0  0  0
 33 66  1  0  0  0  0
 33 69  1  0  0  0  0
 34 35  2  0  0  0  0
 35 59  1  0  0  0  0
 36 70  1  0  0  0  0
 36 75  2  0  0  0  0
 37 51  1  0  0  0  0
 37 71  1  0  0  0  0
 37 76  2  0  0  0  0
 38 62  1  0  0  0  0
 38 67  1  0  0  0  0
 38 77  2  0  0  0  0
 39 63  1  0  0  0  0
 39 72  1  0  0  0  0
 39 78  2  0  0  0  0
 40 68  1  0  0  0  0
 40 73  1  0  0  0  0
 40 79  2  0  0  0  0
 41 44  1  0  0  0  0
 42 51  1  0  0  0  0
 43 67  1  0  0  0  0
 44 46  1  0  0  0  0
 45 47  1  0  0  0  0
 45 48  1  0  0  0  0
 46 50  1  0  0  0  0
 47 52  1  0  0  0  0
 48 68  1  0  0  0  0
 49 52  1  0  0  0  0
 49 68  1  0  0  0  0
 50 71  1  0  0  0  0
 51 67  1  0  0  0  0
 52 66  1  0  0  0  0
 53 63  1  0  0  0  0
 54 64  1  0  0  0  0
 55 64  1  0  0  0  0
 56 64  1  0  0  0  0
 57 74  1  0  0  0  0
 58 73  1  0  0  0  0
 59 73  1  0  0  0  0
 60 61  1  0  0  0  0
 60 81  1  0  0  0  0
 61 82  1  0  0  0  0
 62 64  1  0  0  0  0
 62 72  1  0  0  0  0
 63 74  1  0  0  0  0
 65 66  1  0  0  0  0
M  CHG  1  74   1
M  ISO  4  40 100  61 101  73 100  82 101
M  END
> <Batch ID>
0012

> <Smiles>
C=CC[100N:0](Cc1ccc(OC[101CH2:1][101O:1]c2ccc3c(c2)CN(C(=O)C(NC(=O)C(C)NC)C(C)(C)C)C(C(=O)NC2CCCc4ccccc42)C3)cc1)[100C:0](=O)N1CCCC(n2nc(-c3ccc(Oc4ccc(F)cc4F)cc3)c(C(N)=O)c2N)C1

> <Shape>
0.194

> <Color>
0.077

> <Negative vol penalty>
0.000

$$$$

  -OEChem-04042320463D

 83 91  0     1  0  0  0  0  0999 V2000
  -17.5375  -30.2817   20.3552 C   0  0  0  0  0  0  0  0  0  0  0  0
  -18.8673  -30.2477   19.9479 C   0  0  0  0  0  0  0  0  0  0  0  0
  -26.6127  -12.2953   21.7893 C   0  0  0  0  0  0  0  0  0  0  0  0
  -25.9541  -13.8499   20.0611 C   0  0  0  0  0  0  0  0  0  0  0  0
  -17.1715  -29.7326   21.5833 C   0  0  0  0  0  0  0  0  0  0  0  0
  -19.8321  -29.6654   20.7691 C   0  0  0  0  0  0  0  0  0  0  0  0
  -24.7838  -26.5353   18.9832 C   0  0  0  0  0  0  0  0  0  0  0  0
  -29.3689  -21.3570   19.6054 C   0  0  0  0  0  0  0  0  0  0  0  0
  -31.1710  -22.0224   21.0706 C   0  0  0  0  0  0  0  0  0  0  0  0
  -25.3414  -11.7222   21.7583 C   0  0  0  0  0  0  0  0  0  0  0  0
  -24.6828  -13.2767   20.0300 C   0  0  0  0  0  0  0  0  0  0  0  0
  -26.1214  -26.8998   18.8366 C   0  0  0  0  0  0  0  0  0  0  0  0
  -22.3820   -9.6144   21.8795 C   0  0  0  0  0  0  0  0  0  0  0  0
  -22.2981   -8.2221   21.8813 C   0  0  0  0  0  0  0  0  0  0  0  0
  -29.7578  -22.3302   18.6851 C   0  0  0  0  0  0  0  0  0  0  0  0
  -31.5600  -22.9956   20.1502 C   0  0  0  0  0  0  0  0  0  0  0  0
  -26.5924  -26.0343   21.0384 C   0  0  0  0  0  0  0  0  0  0  0  0
  -23.5559   -8.1436   19.8201 C   0  0  0  0  0  0  0  0  0  0  0  0
  -26.9190  -13.3592   20.9408 C   0  0  0  0  0  0  0  0  0  0  0  0
  -29.3528  -13.5771   20.2081 C   0  0  0  0  0  0  0  0  0  0  0  0
  -18.1308  -29.1347   22.4157 C   0  0  0  0  0  0  0  0  0  0  0  0
  -24.3374  -25.9263   20.1649 C   0  0  0  0  0  0  0  0  0  0  0  0
  -19.4789  -29.1090   22.0102 C   0  0  0  0  0  0  0  0  0  0  0  0
  -25.2491  -25.6607   21.1966 C   0  0  0  0  0  0  0  0  0  0  0  0
  -30.0754  -21.2031   20.7983 C   0  0  0  0  0  0  0  0  0  0  0  0
  -24.3765  -12.2128   20.8786 C   0  0  0  0  0  0  0  0  0  0  0  0
  -27.0254  -26.6520   19.8654 C   0  0  0  0  0  0  0  0  0  0  0  0
  -23.0528  -10.2714   20.8479 C   0  0  0  0  0  0  0  0  0  0  0  0
  -22.8851   -7.4867   20.8517 C   0  0  0  0  0  0  0  0  0  0  0  0
  -23.6398   -9.5359   19.8182 C   0  0  0  0  0  0  0  0  0  0  0  0
  -30.8533  -23.1495   18.9574 C   0  0  0  0  0  0  0  0  0  0  0  0
  -28.2319  -13.9520   20.9728 C   0  0  0  0  0  0  0  0  0  0  0  0
  -30.3441  -14.4405   20.6058 C   0  0  0  0  0  0  0  0  0  0  0  0
  -29.4860  -12.5410   19.2260 C   0  0  0  0  0  0  0  0  0  0  0  0
  -22.2408  -26.6903   22.4286 C   0  0  0  0  0  0  0  0  0  0  0  0
  -22.9151  -23.7089   23.5142 C   0  0  0  0  0  0  0  0  0  0  0  0
  -25.1113  -21.0998   23.6414 C   0  0  0  0  0  0  0  0  0  0  0  0
  -30.2723  -19.9306   22.9635 C   0  0  0  0  0  0  0  0  0  0  0  0
  -17.6951  -28.5965   23.7556 C   0  0  0  0  0  0  0  0  0  0  0  0
  -22.8967  -25.5149   20.2969 C   0  0  0  0  0  0  0  0  0  0  0  0
  -24.8246  -24.9910   22.4771 C   0  0  0  0  0  0  0  0  0  0  0  0
  -18.7180  -27.6640   24.3993 C   0  0  0  0  0  0  0  0  0  0  0  0
  -31.7679  -17.0253   24.3775 C   0  0  0  0  0  0  0  0  0  0  0  0
  -20.1161  -28.2688   24.3197 C   0  0  0  0  0  0  0  0  0  0  0  0
  -31.1374  -15.8737   23.5912 C   0  0  0  0  0  0  0  0  0  0  0  0
  -30.7697  -18.1542   24.6284 C   0  0  0  0  0  0  0  0  0  0  0  0
  -29.4621  -17.5107   22.6421 C   0  0  0  0  0  0  0  0  0  0  0  0
  -20.5506  -28.4641   22.8621 C   0  0  1  0  0  0  0  0  0  0  0  0
  -22.4479  -25.3672   21.7475 C   0  0  1  0  0  0  0  0  0  0  0  0
  -30.4472  -16.3784   22.3088 C   0  0  2  0  0  0  0  0  0  0  0  0
  -25.4002  -18.8150   24.6381 C   0  0  0  0  0  0  0  0  0  0  0  0
  -23.5390  -24.9713   26.2211 C   0  0  0  0  0  0  0  0  0  0  0  0
  -24.7035  -22.8502   26.8637 C   0  0  0  0  0  0  0  0  0  0  0  0
  -22.2645  -22.8229   26.3409 C   0  0  0  0  0  0  0  0  0  0  0  0
  -25.2821  -19.8305   20.9733 C   0  0  0  0  0  0  0  0  0  0  0  0
  -30.6180  -26.2655   19.6659 C   0  0  0  0  0  0  0  0  0  0  0  0
  -29.2979  -26.2146   20.4135 C   0  0  0  0  0  0  0  0  0  1  0  0
  -23.9313  -23.1212   24.4634 C   0  0  1  0  0  0  0  0  0  0  0  0
  -24.9169  -19.6085   23.4342 C   0  0  2  0  0  0  0  0  0  0  0  0
  -23.6175  -23.4558   25.9491 C   0  0  0  0  0  0  0  0  0  0  0  0
  -28.4865  -14.9739   21.7943 N   0  0  0  0  0  0  0  0  0  0  0  0
  -29.7789  -15.2484   21.5481 N   0  0  0  0  0  0  0  0  0  0  0  0
  -23.4041  -24.6133   22.5609 N   0  0  0  0  0  0  0  0  0  0  0  0
  -30.1589  -18.5838   23.3686 N   0  0  0  0  0  0  0  0  0  0  0  0
  -31.6355  -14.5798   20.2380 N   0  0  0  0  0  0  0  0  0  0  0  0
  -28.3683  -11.7460   18.9378 N   0  0  0  0  0  0  0  0  0  0  0  0
  -29.6803  -20.2144   21.7332 N   0  0  0  0  0  0  0  0  0  0  0  0
  -20.9657  -27.2034   22.2852 N   0  0  0  0  0  0  0  0  0  0  0  0
  -23.9848  -21.6929   24.1711 N   0  0  0  0  0  0  0  0  0  0  0  0
  -30.4380  -25.7267   18.2982 N   0  0  0  0  0  0  0  0  0  0  0  0
  -25.6725  -19.1494   22.2346 N   0  3  0  0  0  0  0  0  0  0  0  0
  -30.5686  -12.3160   18.6338 O   0  0  0  0  0  0  0  0  0  0  0  0
  -23.1686  -27.2069   23.0402 O   0  0  0  0  0  0  0  0  0  0  0  0
  -21.7323  -23.3723   23.6104 O   0  0  0  0  0  0  0  0  0  0  0  0
  -26.1589  -21.6797   23.3647 O   0  0  0  0  0  0  0  0  0  0  0  0
  -30.8754  -20.7644   23.6440 O   0  0  0  0  0  0  0  0  0  0  0  0
  -32.7572  -24.6512   17.9928 O   0  0  0  0  0  0  0  0  0  0  0  0
  -30.8630  -23.9543   16.4925 O   0  0  0  0  0  0  0  0  0  0  0  0
  -23.1359  -11.6537   20.8479 O   0  0  0  0  0  0  0  0  0  0  0  0
  -28.3315  -27.0074   19.7251 O   0  0  0  0  0  0  0  0  0  1  0  0
  -22.8058   -6.1496   20.8544 F   0  0  0  0  0  0  0  0  0  0  0  0
  -24.2866  -10.1614   18.8251 F   0  0  0  0  0  0  0  0  0  0  0  0
  -31.3460  -24.3832   17.7911 S   0  0  0  0  0  0  0  0  0  0  0  0
  1  2  1  0  0  0  0
  1  5  2  0  0  0  0
  2  6  2  0  0  0  0
  3 10  2  0  0  0  0
  3 19  1  0  0  0  0
  4 11  1  0  0  0  0
  4 19  2  0  0  0  0
  5 21  1  0  0  0  0
  6 23  1  0  0  0  0
  7 12  2  0  0  0  0
  7 22  1  0  0  0  0
  8 15  2  0  0  0  0
  8 25  1  0  0  0  0
  9 16  1  0  0  0  0
  9 25  2  0  0  0  0
 10 26  1  0  0  0  0
 11 26  2  0  0  0  0
 12 27  1  0  0  0  0
 13 14  2  0  0  0  0
 13 28  1  0  0  0  0
 14 29  1  0  0  0  0
 15 31  1  0  0  0  0
 16 31  2  0  0  0  0
 17 24  1  0  0  0  0
 17 27  2  0  0  0  0
 18 29  2  0  0  0  0
 18 30  1  0  0  0  0
 19 32  1  0  0  0  0
 20 32  1  0  0  0  0
 20 33  2  0  0  0  0
 20 34  1  0  0  0  0
 21 23  2  0  0  0  0
 21 39  1  0  0  0  0
 22 24  2  0  0  0  0
 22 40  1  0  0  0  0
 23 48  1  0  0  0  0
 24 41  1  0  0  0  0
 25 67  1  0  0  0  0
 26 79  1  0  0  0  0
 27 80  1  0  0  0  0
 28 30  2  0  0  0  0
 28 79  1  0  0  0  0
 29 81  1  0  0  0  0
 30 82  1  0  0  0  0
 31 83  1  0  0  0  0
 32 61  2  0  0  0  0
 33 62  1  0  0  0  0
 33 65  1  0  0  0  0
 34 66  1  0  0  0  0
 34 72  2  0  0  0  0
 35 49  1  0  0  0  0
 35 68  1  0  0  0  0
 35 73  2  0  0  0  0
 36 58  1  0  0  0  0
 36 63  1  0  0  0  0
 36 74  2  0  0  0  0
 37 59  1  0  0  0  0
 37 69  1  0  0  0  0
 37 75  2  0  0  0  0
 38 64  1  0  0  0  0
 38 67  1  0  0  0  0
 38 76  2  0  0  0  0
 39 42  1  0  0  0  0
 40 49  1  0  0  0  0
 41 63  1  0  0  0  0
 42 44  1  0  0  0  0
 43 45  1  0  0  0  0
 43 46  1  0  0  0  0
 44 48  1  0  0  0  0
 45 50  1  0  0  0  0
 46 64  1  0  0  0  0
 47 50  1  0  0  0  0
 47 64  1  0  0  0  0
 48 68  1  0  0  0  0
 49 63  1  0  0  0  0
 50 62  1  0  0  0  0
 51 59  1  0  0  0  0
 52 60  1  0  0  0  0
 53 60  1  0  0  0  0
 54 60  1  0  0  0  0
 55 71  1  0  0  0  0
 56 57  1  0  0  0  0
 56 70  1  0  0  0  0
 57 80  1  0  0  0  0
 58 60  1  0  0  0  0
 58 69  1  0  0  0  0
 59 71  1  0  0  0  0
 61 62  1  0  0  0  0
 70 83  1  0  0  0  0
 77 83  2  0  0  0  0
 78 83  2  0  0  0  0
M  CHG  1  71   1
M  ISO  4  38 100  57 101  67 100  80 101
M  END
> <Batch ID>
0012

> <Smiles>
CNC(C)C(=O)NC(C(=O)N1Cc2cc([101O:1][101CH2:1]CNS(=O)(=O)c3ccc([100NH:0][100C:0](=O)N4CCCC(n5nc(-c6ccc(Oc7ccc(F)cc7F)cc6)c(C(N)=O)c5N)C4)cc3)ccc2CC1C(=O)NC1CCCc2ccccc21)C(C)(C)C

> <Shape>
0.251

> <Color>
0.071

> <Negative vol penalty>
0.000

$$$$

  -OEChem-04042320463D

 83 91  0     1  0  0  0  0  0999 V2000
  -21.7629  -11.8204   20.2803 C   0  0  0  0  0  0  0  0  0  0  0  0
  -21.6038  -13.0274   20.9536 C   0  0  0  0  0  0  0  0  0  0  0  0
  -29.7949  -27.2156   24.8038 C   0  0  0  0  0  0  0  0  0  0  0  0
  -28.0087  -27.3687   26.4234 C   0  0  0  0  0  0  0  0  0  0  0  0
  -23.0403  -11.3740   19.9446 C   0  0  0  0  0  0  0  0  0  0  0  0
  -22.7222  -13.7881   21.2925 C   0  0  0  0  0  0  0  0  0  0  0  0
  -22.1040  -18.7106   20.2766 C   0  0  0  0  0  0  0  0  0  0  0  0
  -18.6846  -28.1207   23.5943 C   0  0  0  0  0  0  0  0  0  0  0  0
  -19.8530  -27.0763   21.7555 C   0  0  0  0  0  0  0  0  0  0  0  0
  -18.1570  -26.8830   23.9621 C   0  0  0  0  0  0  0  0  0  0  0  0
  -19.3254  -25.8386   22.1233 C   0  0  0  0  0  0  0  0  0  0  0  0
  -30.7326  -27.3912   25.8214 C   0  0  0  0  0  0  0  0  0  0  0  0
  -28.9464  -27.5443   27.4410 C   0  0  0  0  0  0  0  0  0  0  0  0
  -21.3361  -19.4539   21.1718 C   0  0  0  0  0  0  0  0  0  0  0  0
  -33.6105  -27.4382   28.0419 C   0  0  0  0  0  0  0  0  0  0  0  0
  -34.7261  -26.6010   28.0472 C   0  0  0  0  0  0  0  0  0  0  0  0
  -23.3528  -20.2969   22.1924 C   0  0  0  0  0  0  0  0  0  0  0  0
  -33.2804  -24.6757   28.2475 C   0  0  0  0  0  0  0  0  0  0  0  0
  -28.4329  -27.2044   25.1048 C   0  0  0  0  0  0  0  0  0  0  0  0
  -26.9346  -25.8060   23.5859 C   0  0  0  0  0  0  0  0  0  0  0  0
  -24.1743  -12.1343   20.2710 C   0  0  0  0  0  0  0  0  0  0  0  0
  -23.5044  -18.7464   20.3397 C   0  0  0  0  0  0  0  0  0  0  0  0
  -24.0161  -13.3508   20.9620 C   0  0  0  0  0  0  0  0  0  0  0  0
  -24.1362  -19.5550   21.2952 C   0  0  0  0  0  0  0  0  0  0  0  0
  -19.5325  -28.2174   22.4910 C   0  0  0  0  0  0  0  0  0  0  0  0
  -18.4775  -25.7419   23.2267 C   0  0  0  0  0  0  0  0  0  0  0  0
  -30.3084  -27.5555   27.1400 C   0  0  0  0  0  0  0  0  0  0  0  0
  -21.9604  -20.2450   22.1318 C   0  0  0  0  0  0  0  0  0  0  0  0
  -32.3298  -26.8942   28.1394 C   0  0  0  0  0  0  0  0  0  0  0  0
  -34.5611  -25.2198   28.1500 C   0  0  0  0  0  0  0  0  0  0  0  0
  -32.1647  -25.5129   28.2422 C   0  0  0  0  0  0  0  0  0  0  0  0
  -27.4637  -27.0236   24.0540 C   0  0  0  0  0  0  0  0  0  0  0  0
  -26.0619  -26.1711   22.5901 C   0  0  0  0  0  0  0  0  0  0  0  0
  -27.2075  -24.4648   24.0130 C   0  0  0  0  0  0  0  0  0  0  0  0
  -25.7809  -16.5961   20.8854 C   0  0  0  0  0  0  0  0  0  0  0  0
  -27.7490  -19.0645   20.1397 C   0  0  0  0  0  0  0  0  0  0  0  0
  -28.2139  -22.4392   19.9344 C   0  0  0  0  0  0  0  0  0  0  0  0
  -22.2885  -30.3576   21.2675 C   0  0  0  0  0  0  0  0  0  0  0  0
  -25.5378  -11.5877   19.9291 C   0  0  0  0  0  0  0  0  0  0  0  0
  -24.3186  -17.9595   19.3495 C   0  0  0  0  0  0  0  0  0  0  0  0
  -25.6366  -19.6440   21.3916 C   0  0  0  0  0  0  0  0  0  0  0  0
  -26.6471  -12.6345   19.9929 C   0  0  0  0  0  0  0  0  0  0  0  0
  -25.5011  -30.1743   19.7437 C   0  0  0  0  0  0  0  0  0  0  0  0
  -26.5336  -13.4553   21.2736 C   0  0  0  0  0  0  0  0  0  0  0  0
  -26.2855  -29.2300   20.6563 C   0  0  0  0  0  0  0  0  0  0  0  0
  -24.5478  -31.0644   20.5380 C   0  0  0  0  0  0  0  0  0  0  0  0
  -24.4114  -29.3963   22.3471 C   0  0  0  0  0  0  0  0  0  0  0  0
  -25.2032  -14.2162   21.3250 C   0  0  1  0  0  0  0  0  0  0  0  0
  -25.7353  -17.6708   19.8363 C   0  0  1  0  0  0  0  0  0  0  0  0
  -25.3455  -28.4397   21.5864 C   0  0  2  0  0  0  0  0  0  0  0  0
  -29.9399  -24.1565   19.3269 C   0  0  0  0  0  0  0  0  0  0  0  0
  -29.1789  -18.5605   22.7876 C   0  0  0  0  0  0  0  0  0  0  0  0
  -30.2241  -20.8255   22.5743 C   0  0  0  0  0  0  0  0  0  0  0  0
  -30.6940  -19.0710   20.8645 C   0  0  0  0  0  0  0  0  0  0  0  0
  -17.0604  -24.3961   24.7566 C   0  0  0  0  0  0  0  0  0  0  0  0
  -26.5302  -23.5308   17.7590 C   0  0  0  0  0  0  0  0  0  0  0  0
  -20.0967  -29.5404   22.0967 C   0  0  0  0  0  0  0  0  0  0  0  0
  -19.5911  -22.7187   23.2791 C   0  0  0  0  0  0  0  0  0  0  0  0
  -18.2488  -23.2992   22.8506 C   0  0  0  0  0  0  0  0  0  0  0  0
  -19.9386  -21.4244   22.5530 C   0  0  0  0  0  0  0  0  0  1  0  0
  -28.4183  -20.1711   20.9185 C   0  0  1  0  0  0  0  0  0  0  0  0
  -28.7770  -23.3129   18.8281 C   0  0  2  0  0  0  0  0  0  0  0  0
  -29.6005  -19.6541   21.7859 C   0  0  0  0  0  0  0  0  0  0  0  0
  -26.9687  -28.0830   23.4086 N   0  0  0  0  0  0  0  0  0  0  0  0
  -26.1194  -27.5322   22.5247 N   0  0  0  0  0  0  0  0  0  0  0  0
  -26.3890  -18.8511   20.4053 N   0  0  0  0  0  0  0  0  0  0  0  0
  -23.6831  -30.2535   21.3986 N   0  0  0  0  0  0  0  0  0  0  0  0
  -25.2587  -25.4574   21.7728 N   0  0  0  0  0  0  0  0  0  0  0  0
  -28.1309  -24.2683   25.0489 N   0  0  0  0  0  0  0  0  0  0  0  0
  -25.2566  -15.3856   20.4740 N   0  0  0  0  0  0  0  0  0  0  0  0
  -28.7936  -21.1881   19.9421 N   0  0  0  0  0  0  0  0  0  0  0  0
  -21.5425  -29.5497   22.1170 N   0  0  0  0  0  0  0  0  0  0  0  0
  -17.9488  -24.4970   23.5972 N   0  0  3  0  0  0  0  0  0  0  0  0
  -27.7238  -24.2276   18.3037 N   0  3  0  0  0  0  0  0  0  0  0  0
  -26.6612  -23.4690   23.4804 O   0  0  0  0  0  0  0  0  0  0  0  0
  -26.2578  -16.8462   21.9862 O   0  0  0  0  0  0  0  0  0  0  0  0
  -28.4069  -18.4181   19.3205 O   0  0  0  0  0  0  0  0  0  0  0  0
  -27.3492  -22.8288   20.7160 O   0  0  0  0  0  0  0  0  0  0  0  0
  -21.7482  -31.1105   20.4501 O   0  0  0  0  0  0  0  0  0  0  0  0
  -31.2231  -27.7266   28.1332 O   0  0  0  0  0  0  0  0  0  0  0  0
  -21.2132  -20.9711   23.0072 O   0  0  0  0  0  0  0  0  0  1  0  0
  -35.6325  -24.4159   28.1535 F   0  0  0  0  0  0  0  0  0  0  0  0
  -30.9368  -24.9844   28.3350 F   0  0  0  0  0  0  0  0  0  0  0  0
  1  2  1  0  0  0  0
  1  5  2  0  0  0  0
  2  6  2  0  0  0  0
  3 12  2  0  0  0  0
  3 19  1  0  0  0  0
  4 13  1  0  0  0  0
  4 19  2  0  0  0  0
  5 21  1  0  0  0  0
  6 23  1  0  0  0  0
  7 14  2  0  0  0  0
  7 22  1  0  0  0  0
  8 10  2  0  0  0  0
  8 25  1  0  0  0  0
  9 11  1  0  0  0  0
  9 25  2  0  0  0  0
 10 26  1  0  0  0  0
 11 26  2  0  0  0  0
 12 27  1  0  0  0  0
 13 27  2  0  0  0  0
 14 28  1  0  0  0  0
 15 16  2  0  0  0  0
 15 29  1  0  0  0  0
 16 30  1  0  0  0  0
 17 24  1  0  0  0  0
 17 28  2  0  0  0  0
 18 30  2  0  0  0  0
 18 31  1  0  0  0  0
 19 32  1  0  0  0  0
 20 32  1  0  0  0  0
 20 33  2  0  0  0  0
 20 34  1  0  0  0  0
 21 23  2  0  0  0  0
 21 39  1  0  0  0  0
 22 24  2  0  0  0  0
 22 40  1  0  0  0  0
 23 48  1  0  0  0  0
 24 41  1  0  0  0  0
 25 57  1  0  0  0  0
 26 73  1  0  0  0  0
 27 80  1  0  0  0  0
 28 81  1  0  0  0  0
 29 31  2  0  0  0  0
 29 80  1  0  0  0  0
 30 82  1  0  0  0  0
 31 83  1  0  0  0  0
 32 64  2  0  0  0  0
 33 65  1  0  0  0  0
 33 68  1  0  0  0  0
 34 69  1  0  0  0  0
 34 75  2  0  0  0  0
 35 49  1  0  0  0  0
 35 70  1  0  0  0  0
 35 76  2  0  0  0  0
 36 61  1  0  0  0  0
 36 66  1  0  0  0  0
 36 77  2  0  0  0  0
 37 62  1  0  0  0  0
 37 71  1  0  0  0  0
 37 78  2  0  0  0  0
 38 67  1  0  0  0  0
 38 72  1  0  0  0  0
 38 79  2  0  0  0  0
 39 42  1  0  0  0  0
 40 49  1  0  0  0  0
 41 66  1  0  0  0  0
 42 44  1  0  0  0  0
 43 45  1  0  0  0  0
 43 46  1  0  0  0  0
 44 48  1  0  0  0  0
 45 50  1  0  0  0  0
 46 67  1  0  0  0  0
 47 50  1  0  0  0  0
 47 67  1  0  0  0  0
 48 70  1  0  0  0  0
 49 66  1  0  0  0  0
 50 65  1  0  0  0  0
 51 62  1  0  0  0  0
 52 63  1  0  0  0  0
 53 63  1  0  0  0  0
 54 63  1  0  0  0  0
 55 73  1  0  0  0  0
 56 74  1  0  0  0  0
 57 72  1  0  0  0  0
 58 59  1  0  0  0  0
 58 60  1  0  0  0  0
 59 73  1  0  0  0  0
 60 81  1  0  0  0  0
 61 63  1  0  0  0  0
 61 71  1  0  0  0  0
 62 74  1  0  0  0  0
 64 65  1  0  0  0  0
M  CHG  1  74   1
M  ISO  4  38 100  60 101  72 100  81 101
M  END
> <Batch ID>
0012

> <Smiles>
CNC(C)C(=O)NC(C(=O)N1Cc2cc([101O:1][101CH2:1]CCN(C)c3ccc(C[100NH:0][100C:0](=O)N4CCCC(n5nc(-c6ccc(Oc7ccc(F)cc7F)cc6)c(C(N)=O)c5N)C4)cc3)ccc2CC1C(=O)NC1CCCc2ccccc21)C(C)(C)C

> <Shape>
0.189

> <Color>
0.083

> <Negative vol penalty>
0.000

$$$$

  -OEChem-04042320463D

 82 90  0     1  0  0  0  0  0999 V2000
  -32.3647  -14.6853   20.6314 C   0  0  0  0  0  0  0  0  0  0  0  0
  -31.4985  -15.6914   21.0473 C   0  0  0  0  0  0  0  0  0  0  0  0
  -28.7236  -24.3626   21.8931 C   0  0  0  0  0  0  0  0  0  0  0  0
  -28.3911  -24.3961   19.5003 C   0  0  0  0  0  0  0  0  0  0  0  0
  -31.8735  -13.5983   19.9097 C   0  0  0  0  0  0  0  0  0  0  0  0
  -30.1406  -15.6115   20.7406 C   0  0  0  0  0  0  0  0  0  0  0  0
  -25.4658  -17.5302   24.2006 C   0  0  0  0  0  0  0  0  0  0  0  0
  -22.3985  -28.0385   23.7305 C   0  0  0  0  0  0  0  0  0  0  0  0
  -24.1190  -27.3104   25.2624 C   0  0  0  0  0  0  0  0  0  0  0  0
  -28.8235  -22.9718   21.8598 C   0  0  0  0  0  0  0  0  0  0  0  0
  -28.4910  -23.0052   19.4669 C   0  0  0  0  0  0  0  0  0  0  0  0
  -24.6972  -18.6931   24.1774 C   0  0  0  0  0  0  0  0  0  0  0  0
  -21.8566  -26.7532   23.7283 C   0  0  0  0  0  0  0  0  0  0  0  0
  -23.5771  -26.0251   25.2602 C   0  0  0  0  0  0  0  0  0  0  0  0
  -26.5167  -20.3484   20.1556 C   0  0  0  0  0  0  0  0  0  0  0  0
  -25.5791  -19.6493   19.3955 C   0  0  0  0  0  0  0  0  0  0  0  0
  -23.0226  -17.5530   22.8678 C   0  0  0  0  0  0  0  0  0  0  0  0
  -27.3586  -18.7369   18.0397 C   0  0  0  0  0  0  0  0  0  0  0  0
  -28.5073  -25.0748   20.7133 C   0  0  0  0  0  0  0  0  0  0  0  0
  -29.4506  -27.4429   20.6145 C   0  0  0  0  0  0  0  0  0  0  0  0
  -30.5073  -13.5002   19.6023 C   0  0  0  0  0  0  0  0  0  0  0  0
  -25.0230  -16.3711   23.5472 C   0  0  0  0  0  0  0  0  0  0  0  0
  -29.6308  -14.5228   20.0129 C   0  0  0  0  0  0  0  0  0  0  0  0
  -23.7863  -16.3759   22.8863 C   0  0  0  0  0  0  0  0  0  0  0  0
  -23.5298  -28.3171   24.4976 C   0  0  0  0  0  0  0  0  0  0  0  0
  -28.7072  -22.2930   20.6467 C   0  0  0  0  0  0  0  0  0  0  0  0
  -22.4458  -25.7465   24.4931 C   0  0  0  0  0  0  0  0  0  0  0  0
  -23.4767  -18.7055   23.5085 C   0  0  0  0  0  0  0  0  0  0  0  0
  -27.8753  -20.2418   19.8577 C   0  0  0  0  0  0  0  0  0  0  0  0
  -26.0000  -18.8435   18.3376 C   0  0  0  0  0  0  0  0  0  0  0  0
  -28.2962  -19.4360   18.7998 C   0  0  0  0  0  0  0  0  0  0  0  0
  -28.4034  -26.5115   20.7471 C   0  0  0  0  0  0  0  0  0  0  0  0
  -28.8363  -28.6671   20.7161 C   0  0  0  0  0  0  0  0  0  0  0  0
  -30.8533  -27.2213   20.4169 C   0  0  0  0  0  0  0  0  0  0  0  0
  -26.1168  -14.5888   21.1533 C   0  0  0  0  0  0  0  0  0  0  0  0
  -23.6326  -12.6671   21.9645 C   0  0  0  0  0  0  0  0  0  0  0  0
  -20.5643  -12.3603   23.4268 C   0  0  0  0  0  0  0  0  0  0  0  0
  -23.9839  -30.4891   23.3718 C   0  0  0  0  0  0  0  0  0  0  0  0
  -30.0306  -12.3299   18.7791 C   0  0  0  0  0  0  0  0  0  0  0  0
  -25.8514  -15.1170   23.6042 C   0  0  0  0  0  0  0  0  0  0  0  0
  -23.2565  -15.1520   22.1865 C   0  0  0  0  0  0  0  0  0  0  0  0
  -28.5173  -12.1335   18.8186 C   0  0  0  0  0  0  0  0  0  0  0  0
  -24.6677  -30.8527   19.9014 C   0  0  0  0  0  0  0  0  0  0  0  0
  -27.8007  -13.4635   18.6077 C   0  0  0  0  0  0  0  0  0  0  0  0
  -25.8084  -29.8537   19.7106 C   0  0  0  0  0  0  0  0  0  0  0  0
  -23.5991  -30.3253   20.8595 C   0  0  0  0  0  0  0  0  0  0  0  0
  -25.2722  -28.8863   21.9795 C   0  0  0  0  0  0  0  0  0  0  0  0
  -28.1472  -14.4595   19.7210 C   0  0  1  0  0  0  0  0  0  0  0  0
  -25.5431  -14.1452   22.4693 C   0  0  1  0  0  0  0  0  0  0  0  0
  -26.3896  -29.4137   21.0658 C   0  0  1  0  0  0  0  0  0  0  0  0
  -18.7685  -10.6732   23.9021 C   0  0  0  0  0  0  0  0  0  0  0  0
  -22.7447  -12.7942   19.0481 C   0  0  0  0  0  0  0  0  0  0  0  0
  -20.5089  -11.9240   19.7635 C   0  0  0  0  0  0  0  0  0  0  0  0
  -22.5523  -10.5333   20.0996 C   0  0  0  0  0  0  0  0  0  0  0  0
  -24.5618  -30.2062   25.7720 C   0  0  0  0  0  0  0  0  0  0  0  0
  -20.8301  -12.7293   26.3513 C   0  0  0  0  0  0  0  0  0  0  0  0
  -22.3037  -22.1602   23.9922 C   0  0  0  0  0  0  0  0  0  0  0  0
  -22.8174  -23.4063   24.6961 C   0  0  0  0  0  0  0  0  0  0  0  0
  -23.2470  -20.9800   24.1641 C   0  0  0  0  0  0  0  0  0  1  0  0
  -22.1824  -12.5654   21.5576 C   0  0  1  0  0  0  0  0  0  0  0  0
  -20.0214  -11.3564   24.4278 C   0  0  2  0  0  0  0  0  0  0  0  0
  -22.0077  -11.9780   20.1286 C   0  0  0  0  0  0  0  0  0  0  0  0
  -27.2140  -27.0941   20.9201 N   0  0  0  0  0  0  0  0  0  0  0  0
  -27.5101  -28.4048   20.8968 N   0  0  0  0  0  0  0  0  0  0  0  0
  -24.1060  -13.9521   22.2652 N   0  0  0  0  0  0  0  0  0  0  0  0
  -24.2053  -29.8800   22.1221 N   0  0  0  0  0  0  0  0  0  0  0  0
  -29.3065  -29.9316   20.6677 N   0  0  0  0  0  0  0  0  0  0  0  0
  -31.3161  -25.9009   20.3349 N   0  0  0  0  0  0  0  0  0  0  0  0
  -27.4068  -14.1492   20.9252 N   0  0  0  0  0  0  0  0  0  0  0  0
  -21.5175  -11.7974   22.6047 N   0  0  0  0  0  0  0  0  0  0  0  0
  -24.0910  -29.6476   24.5000 N   0  0  0  0  0  0  0  0  0  0  0  0
  -19.6835  -12.0351   25.7108 N   0  3  0  0  0  0  0  0  0  0  0  0
  -31.6743  -28.1659   20.3325 O   0  0  0  0  0  0  0  0  0  0  0  0
  -25.4388  -15.2776   20.4001 O   0  0  0  0  0  0  0  0  0  0  0  0
  -24.3182  -11.6431   22.0207 O   0  0  0  0  0  0  0  0  0  0  0  0
  -20.1786  -13.5262   23.3767 O   0  0  0  0  0  0  0  0  0  0  0  0
  -23.7358  -31.6965   23.4739 O   0  0  0  0  0  0  0  0  0  0  0  0
  -28.8050  -20.9359   20.6138 O   0  0  0  0  0  0  0  0  0  0  0  0
  -21.9134  -24.4836   24.4909 O   0  0  0  0  0  0  0  0  0  0  0  0
  -22.7248  -19.8394   23.4838 O   0  0  0  0  0  0  0  0  0  1  0  0
  -25.0997  -18.1710   17.6087 F   0  0  0  0  0  0  0  0  0  0  0  0
  -29.6001  -19.3287   18.5096 F   0  0  0  0  0  0  0  0  0  0  0  0
  1  2  1  0  0  0  0
  1  5  2  0  0  0  0
  2  6  2  0  0  0  0
  3 10  2  0  0  0  0
  3 19  1  0  0  0  0
  4 11  1  0  0  0  0
  4 19  2  0  0  0  0
  5 21  1  0  0  0  0
  6 23  1  0  0  0  0
  7 12  2  0  0  0  0
  7 22  1  0  0  0  0
  8 13  2  0  0  0  0
  8 25  1  0  0  0  0
  9 14  1  0  0  0  0
  9 25  2  0  0  0  0
 10 26  1  0  0  0  0
 11 26  2  0  0  0  0
 12 28  1  0  0  0  0
 13 27  1  0  0  0  0
 14 27  2  0  0  0  0
 15 16  2  0  0  0  0
 15 29  1  0  0  0  0
 16 30  1  0  0  0  0
 17 24  1  0  0  0  0
 17 28  2  0  0  0  0
 18 30  2  0  0  0  0
 18 31  1  0  0  0  0
 19 32  1  0  0  0  0
 20 32  1  0  0  0  0
 20 33  2  0  0  0  0
 20 34  1  0  0  0  0
 21 23  2  0  0  0  0
 21 39  1  0  0  0  0
 22 24  2  0  0  0  0
 22 40  1  0  0  0  0
 23 48  1  0  0  0  0
 24 41  1  0  0  0  0
 25 71  1  0  0  0  0
 26 78  1  0  0  0  0
 27 79  1  0  0  0  0
 28 80  1  0  0  0  0
 29 31  2  0  0  0  0
 29 78  1  0  0  0  0
 30 81  1  0  0  0  0
 31 82  1  0  0  0  0
 32 63  2  0  0  0  0
 33 64  1  0  0  0  0
 33 67  1  0  0  0  0
 34 68  1  0  0  0  0
 34 73  2  0  0  0  0
 35 49  1  0  0  0  0
 35 69  1  0  0  0  0
 35 74  2  0  0  0  0
 36 60  1  0  0  0  0
 36 65  1  0  0  0  0
 36 75  2  0  0  0  0
 37 61  1  0  0  0  0
 37 70  1  0  0  0  0
 37 76  2  0  0  0  0
 38 66  1  0  0  0  0
 38 71  1  0  0  0  0
 38 77  2  0  0  0  0
 39 42  1  0  0  0  0
 40 49  1  0  0  0  0
 41 65  1  0  0  0  0
 42 44  1  0  0  0  0
 43 45  1  0  0  0  0
 43 46  1  0  0  0  0
 44 48  1  0  0  0  0
 45 50  1  0  0  0  0
 46 66  1  0  0  0  0
 47 50  1  0  0  0  0
 47 66  1  0  0  0  0
 48 69  1  0  0  0  0
 49 65  1  0  0  0  0
 50 64  1  0  0  0  0
 51 61  1  0  0  0  0
 52 62  1  0  0  0  0
 53 62  1  0  0  0  0
 54 62  1  0  0  0  0
 55 71  1  0  0  0  0
 56 72  1  0  0  0  0
 57 58  1  0  0  0  0
 57 59  1  0  0  0  0
 58 79  1  0  0  0  0
 59 80  1  0  0  0  0
 60 62  1  0  0  0  0
 60 70  1  0  0  0  0
 61 72  1  0  0  0  0
 63 64  1  0  0  0  0
M  CHG  1  72   1
M  ISO  4  38 100  59 101  71 100  80 101
M  END
> <Batch ID>
0012

> <Smiles>
CNC(C)C(=O)NC(C(=O)N1Cc2cc([101O:1][101CH2:1]CCOc3ccc([100N:0](C)[100C:0](=O)N4CCCC(n5nc(-c6ccc(Oc7ccc(F)cc7F)cc6)c(C(N)=O)c5N)C4)cc3)ccc2CC1C(=O)NC1CCCc2ccccc21)C(C)(C)C

> <Shape>
0.249

> <Color>
0.077

> <Negative vol penalty>
0.000

$$$$

  -OEChem-04042320463D

 82 90  0     1  0  0  0  0  0999 V2000
  -21.9089  -11.6555   21.4646 C   0  0  0  0  0  0  0  0  0  0  0  0
  -21.6687  -13.0175   21.6155 C   0  0  0  0  0  0  0  0  0  0  0  0
  -30.0984  -27.8975   19.0121 C   0  0  0  0  0  0  0  0  0  0  0  0
  -29.6995  -26.6536   21.0445 C   0  0  0  0  0  0  0  0  0  0  0  0
  -23.2081  -11.1976   21.2491 C   0  0  0  0  0  0  0  0  0  0  0  0
  -22.7278  -13.9223   21.5520 C   0  0  0  0  0  0  0  0  0  0  0  0
  -21.6505  -17.9785   18.7180 C   0  0  0  0  0  0  0  0  0  0  0  0
  -19.1186  -26.6905   21.0533 C   0  0  0  0  0  0  0  0  0  0  0  0
  -31.4703  -27.6898   19.1542 C   0  0  0  0  0  0  0  0  0  0  0  0
  -31.0715  -26.4458   21.1865 C   0  0  0  0  0  0  0  0  0  0  0  0
  -20.8519  -18.9647   19.2954 C   0  0  0  0  0  0  0  0  0  0  0  0
  -18.8438  -25.3522   20.7722 C   0  0  0  0  0  0  0  0  0  0  0  0
  -34.4423  -25.2801   21.8913 C   0  0  0  0  0  0  0  0  0  0  0  0
  -34.8732  -23.9973   22.2294 C   0  0  0  0  0  0  0  0  0  0  0  0
  -22.8215  -20.2760   19.7651 C   0  0  0  0  0  0  0  0  0  0  0  0
  -19.9078  -24.6993   22.8407 C   0  0  0  0  0  0  0  0  0  0  0  0
  -33.8633  -23.1271   20.2144 C   0  0  0  0  0  0  0  0  0  0  0  0
  -29.2129  -27.3795   19.9573 C   0  0  0  0  0  0  0  0  0  0  0  0
  -26.8773  -26.7738   19.1292 C   0  0  0  0  0  0  0  0  0  0  0  0
  -24.2823  -12.0981   21.1734 C   0  0  0  0  0  0  0  0  0  0  0  0
  -23.0438  -18.1289   18.6695 C   0  0  0  0  0  0  0  0  0  0  0  0
  -24.0428  -13.4759   21.3367 C   0  0  0  0  0  0  0  0  0  0  0  0
  -23.6353  -19.2914   19.1842 C   0  0  0  0  0  0  0  0  0  0  0  0
  -19.7881  -27.0332   22.2280 C   0  0  0  0  0  0  0  0  0  0  0  0
  -31.9569  -26.9639   20.2414 C   0  0  0  0  0  0  0  0  0  0  0  0
  -21.4377  -20.1124   19.8216 C   0  0  0  0  0  0  0  0  0  0  0  0
  -19.2383  -24.3566   21.6659 C   0  0  0  0  0  0  0  0  0  0  0  0
  -33.7219  -25.4865   20.7148 C   0  0  0  0  0  0  0  0  0  0  0  0
  -34.5837  -22.9208   21.3909 C   0  0  0  0  0  0  0  0  0  0  0  0
  -20.1826  -26.0376   23.1218 C   0  0  0  0  0  0  0  0  0  0  0  0
  -33.4324  -24.4100   19.8763 C   0  0  0  0  0  0  0  0  0  0  0  0
  -27.7957  -27.5942   19.8114 C   0  0  0  0  0  0  0  0  0  0  0  0
  -25.6694  -27.4094   19.2822 C   0  0  0  0  0  0  0  0  0  0  0  0
  -27.0966  -25.5467   18.4207 C   0  0  0  0  0  0  0  0  0  0  0  0
  -25.5156  -16.5302   19.8688 C   0  0  0  0  0  0  0  0  0  0  0  0
  -27.2355  -18.6204   18.0812 C   0  0  0  0  0  0  0  0  0  0  0  0
  -27.3985  -21.6558   16.5299 C   0  0  0  0  0  0  0  0  0  0  0  0
  -21.9511  -30.0941   22.4621 C   0  0  0  0  0  0  0  0  0  0  0  0
  -25.6756  -11.5519   20.9860 C   0  0  0  0  0  0  0  0  0  0  0  0
  -23.8889  -17.0680   18.0193 C   0  0  0  0  0  0  0  0  0  0  0  0
  -25.1247  -19.5102   19.1387 C   0  0  0  0  0  0  0  0  0  0  0  0
  -26.6914  -12.6080   20.5582 C   0  0  0  0  0  0  0  0  0  0  0  0
  -24.5779  -32.0274   21.0341 C   0  0  0  0  0  0  0  0  0  0  0  0
  -26.5509  -13.8620   21.4151 C   0  0  0  0  0  0  0  0  0  0  0  0
  -25.5757  -30.9792   20.5384 C   0  0  0  0  0  0  0  0  0  0  0  0
  -23.9138  -31.6006   22.3414 C   0  0  0  0  0  0  0  0  0  0  0  0
  -24.2776  -29.2212   21.8125 C   0  0  0  0  0  0  0  0  0  0  0  0
  -25.1620  -14.4907   21.2494 C   0  0  1  0  0  0  0  0  0  0  0  0
  -25.3412  -17.0916   18.4860 C   0  0  1  0  0  0  0  0  0  0  0  0
  -24.9318  -29.5814   20.4677 C   0  0  2  0  0  0  0  0  0  0  0  0
  -28.3337  -23.4907   15.0961 C   0  0  0  0  0  0  0  0  0  0  0  0
  -28.7933  -19.3101   20.6125 C   0  0  0  0  0  0  0  0  0  0  0  0
  -29.6301  -21.3656   19.4538 C   0  0  0  0  0  0  0  0  0  0  0  0
  -30.1918  -19.1099   18.5489 C   0  0  0  0  0  0  0  0  0  0  0  0
  -26.1551  -20.5390   14.0874 C   0  0  0  0  0  0  0  0  0  0  0  0
  -20.0800  -28.4650   22.5255 C   0  0  0  0  0  0  0  0  0  0  0  0
  -19.3367  -21.2256   19.8751 C   0  0  0  0  0  0  0  0  0  1  0  0
  -18.9114  -22.6742   20.0171 C   0  0  0  0  0  0  0  0  0  0  0  0
  -27.8324  -19.9874   18.3138 C   0  0  1  0  0  0  0  0  0  0  0  0
  -27.8456  -22.0509   15.1340 C   0  0  2  0  0  0  0  0  0  0  0  0
  -29.0840  -19.9385   19.2350 C   0  0  0  0  0  0  0  0  0  0  0  0
  -27.2204  -28.6691   20.3570 N   0  0  0  0  0  0  0  0  0  0  0  0
  -25.9277  -28.5285   20.0178 N   0  0  0  0  0  0  0  0  0  0  0  0
  -25.9090  -18.4413   18.4984 N   0  0  0  0  0  0  0  0  0  0  0  0
  -23.3214  -30.2677   22.2067 N   0  0  0  0  0  0  0  0  0  0  0  0
  -24.4222  -27.1147   18.8579 N   0  0  0  0  0  0  0  0  0  0  0  0
  -28.3993  -25.0332   18.3611 N   0  0  0  0  0  0  0  0  0  0  0  0
  -25.0847  -15.2243   20.0043 N   0  0  0  0  0  0  0  0  0  0  0  0
  -28.0845  -20.5529   16.9928 N   0  0  0  0  0  0  0  0  0  0  0  0
  -21.4691  -28.8004   22.3050 N   0  0  0  0  0  0  0  0  0  0  0  0
  -26.7176  -21.9115   14.1700 N   0  3  0  0  0  0  0  0  0  0  0  0
  -26.1676  -24.9327   17.8431 O   0  0  0  0  0  0  0  0  0  0  0  0
  -26.0064  -17.2295   20.7473 O   0  0  0  0  0  0  0  0  0  0  0  0
  -27.9186  -17.7459   17.5424 O   0  0  0  0  0  0  0  0  0  0  0  0
  -26.5304  -22.2669   17.1493 O   0  0  0  0  0  0  0  0  0  0  0  0
  -21.2110  -31.0243   22.7996 O   0  0  0  0  0  0  0  0  0  0  0  0
  -33.2956  -26.7608   20.3802 O   0  0  0  0  0  0  0  0  0  0  0  0
  -20.6606  -21.0763   20.3864 O   0  0  0  0  0  0  0  0  0  1  0  0
  -18.9671  -23.0423   21.3900 O   0  0  0  0  0  0  0  0  0  0  0  0
  -34.9988  -21.6892   21.7149 F   0  0  0  0  0  0  0  0  0  0  0  0
  -20.8276  -26.3572   24.2525 F   0  0  0  0  0  0  0  0  0  0  0  0
  -32.7417  -24.6023   18.7442 F   0  0  0  0  0  0  0  0  0  0  0  0
  1  2  1  0  0  0  0
  1  5  2  0  0  0  0
  2  6  2  0  0  0  0
  3  9  2  0  0  0  0
  3 18  1  0  0  0  0
  4 10  1  0  0  0  0
  4 18  2  0  0  0  0
  5 20  1  0  0  0  0
  6 22  1  0  0  0  0
  7 11  2  0  0  0  0
  7 21  1  0  0  0  0
  8 12  2  0  0  0  0
  8 24  1  0  0  0  0
  9 25  1  0  0  0  0
 10 25  2  0  0  0  0
 11 26  1  0  0  0  0
 12 27  1  0  0  0  0
 13 14  2  0  0  0  0
 13 28  1  0  0  0  0
 14 29  1  0  0  0  0
 15 23  1  0  0  0  0
 15 26  2  0  0  0  0
 16 27  2  0  0  0  0
 16 30  1  0  0  0  0
 17 29  2  0  0  0  0
 17 31  1  0  0  0  0
 18 32  1  0  0  0  0
 19 32  1  0  0  0  0
 19 33  2  0  0  0  0
 19 34  1  0  0  0  0
 20 22  2  0  0  0  0
 20 39  1  0  0  0  0
 21 23  2  0  0  0  0
 21 40  1  0  0  0  0
 22 48  1  0  0  0  0
 23 41  1  0  0  0  0
 24 30  2  0  0  0  0
 24 56  1  0  0  0  0
 25 77  1  0  0  0  0
 26 78  1  0  0  0  0
 27 79  1  0  0  0  0
 28 31  2  0  0  0  0
 28 77  1  0  0  0  0
 29 80  1  0  0  0  0
 30 81  1  0  0  0  0
 31 82  1  0  0  0  0
 32 62  2  0  0  0  0
 33 63  1  0  0  0  0
 33 66  1  0  0  0  0
 34 67  1  0  0  0  0
 34 72  2  0  0  0  0
 35 49  1  0  0  0  0
 35 68  1  0  0  0  0
 35 73  2  0  0  0  0
 36 59  1  0  0  0  0
 36 64  1  0  0  0  0
 36 74  2  0  0  0  0
 37 60  1  0  0  0  0
 37 69  1  0  0  0  0
 37 75  2  0  0  0  0
 38 65  1  0  0  0  0
 38 70  1  0  0  0  0
 38 76  2  0  0  0  0
 39 42  1  0  0  0  0
 40 49  1  0  0  0  0
 41 64  1  0  0  0  0
 42 44  1  0  0  0  0
 43 45  1  0  0  0  0
 43 46  1  0  0  0  0
 44 48  1  0  0  0  0
 45 50  1  0  0  0  0
 46 65  1  0  0  0  0
 47 50  1  0  0  0  0
 47 65  1  0  0  0  0
 48 68  1  0  0  0  0
 49 64  1  0  0  0  0
 50 63  1  0  0  0  0
 51 60  1  0  0  0  0
 52 61  1  0  0  0  0
 53 61  1  0  0  0  0
 54 61  1  0  0  0  0
 55 71  1  0  0  0  0
 56 70  1  0  0  0  0
 57 58  1  0  0  0  0
 57 78  1  0  0  0  0
 58 79  1  0  0  0  0
 59 61  1  0  0  0  0
 59 69  1  0  0  0  0
 60 71  1  0  0  0  0
 62 63  1  0  0  0  0
M  CHG  1  71   1
M  ISO  4  38 100  57 101  70 100  78 101
M  END
> <Batch ID>
0012

> <Smiles>
CNC(C)C(=O)NC(C(=O)N1Cc2cc([101O:1][101CH2:1]COc3ccc(C[100NH:0][100C:0](=O)N4CCCC(n5nc(-c6ccc(Oc7ccc(F)cc7F)cc6)c(C(N)=O)c5N)C4)c(F)c3)ccc2CC1C(=O)NC1CCCc2ccccc21)C(C)(C)C

> <Shape>
0.236

> <Color>
0.064

> <Negative vol penalty>
0.000

$$$$

  -OEChem-04042320463D

 90 99  0     1  0  0  0  0  0999 V2000
  -24.3322  -23.4604   23.9845 C   0  0  0  0  0  0  0  0  0  0  0  0
  -25.4095  -24.0494   23.3302 C   0  0  0  0  0  0  0  0  0  0  0  0
  -26.3223  -11.9197   20.2785 C   0  0  0  0  0  0  0  0  0  0  0  0
  -27.5567  -10.4885   18.7736 C   0  0  0  0  0  0  0  0  0  0  0  0
  -23.0750  -24.0611   23.9351 C   0  0  0  0  0  0  0  0  0  0  0  0
  -25.2298  -25.2390   22.6252 C   0  0  0  0  0  0  0  0  0  0  0  0
  -29.2578  -29.8145   22.0376 C   0  0  0  0  0  0  0  0  0  0  0  0
  -31.1890  -25.9294   17.5060 C   0  0  0  0  0  0  0  0  0  0  0  0
  -25.2984  -10.9744   20.3377 C   0  0  0  0  0  0  0  0  0  0  0  0
  -26.5329   -9.5431   18.8328 C   0  0  0  0  0  0  0  0  0  0  0  0
  -30.1513  -30.1530   21.0223 C   0  0  0  0  0  0  0  0  0  0  0  0
  -31.2423  -27.2298   17.0044 C   0  0  0  0  0  0  0  0  0  0  0  0
  -24.7018   -8.0441   21.9159 C   0  0  0  0  0  0  0  0  0  0  0  0
  -24.1718   -7.7403   23.1698 C   0  0  0  0  0  0  0  0  0  0  0  0
  -28.5352  -31.7029   20.1250 C   0  0  0  0  0  0  0  0  0  0  0  0
  -28.8595  -27.4547   17.3345 C   0  0  0  0  0  0  0  0  0  0  0  0
  -21.9930   -8.4734   22.4267 C   0  0  0  0  0  0  0  0  0  0  0  0
  -27.4514  -11.6768   19.4963 C   0  0  0  0  0  0  0  0  0  0  0  0
  -29.6354  -12.7411   20.2743 C   0  0  0  0  0  0  0  0  0  0  0  0
  -22.8820  -25.2637   23.2371 C   0  0  0  0  0  0  0  0  0  0  0  0
  -27.9900  -30.4107   22.0980 C   0  0  0  0  0  0  0  0  0  0  0  0
  -23.9685  -25.8556   22.5653 C   0  0  0  0  0  0  0  0  0  0  0  0
  -27.6284  -31.3722   21.1436 C   0  0  0  0  0  0  0  0  0  0  0  0
  -29.9710  -25.3916   17.9219 C   0  0  0  0  0  0  0  0  0  0  0  0
  -25.4037   -9.7860   19.6149 C   0  0  0  0  0  0  0  0  0  0  0  0
  -29.7890  -31.0952   20.0641 C   0  0  0  0  0  0  0  0  0  0  0  0
  -30.0776  -27.9925   16.9186 C   0  0  0  0  0  0  0  0  0  0  0  0
  -23.8774   -8.5627   20.9173 C   0  0  0  0  0  0  0  0  0  0  0  0
  -22.8174   -7.9548   23.4252 C   0  0  0  0  0  0  0  0  0  0  0  0
  -28.8063  -26.1543   17.8361 C   0  0  0  0  0  0  0  0  0  0  0  0
  -22.5230   -8.7773   21.1727 C   0  0  0  0  0  0  0  0  0  0  0  0
  -28.5092  -12.6533   19.4343 C   0  0  0  0  0  0  0  0  0  0  0  0
  -30.3290  -13.8302   19.8061 C   0  0  0  0  0  0  0  0  0  0  0  0
  -30.0203  -11.9122   21.3791 C   0  0  0  0  0  0  0  0  0  0  0  0
  -25.0000  -29.3457   21.9266 C   0  0  0  0  0  0  0  0  0  0  0  0
  -24.2751  -32.4228   22.6534 C   0  0  0  0  0  0  0  0  0  0  0  0
  -25.2181  -35.7027   22.6386 C   0  0  0  0  0  0  0  0  0  0  0  0
  -30.6592  -18.8882   18.0417 C   0  0  0  0  0  0  0  0  0  0  0  0
  -21.4942  -25.8507   23.1724 C   0  0  0  0  0  0  0  0  0  0  0  0
  -27.0478  -30.0544   23.2151 C   0  0  0  0  0  0  0  0  0  0  0  0
  -26.2869  -32.0562   21.1758 C   0  0  0  0  0  0  0  0  0  0  0  0
  -21.4697  -27.3074   22.7166 C   0  0  0  0  0  0  0  0  0  0  0  0
  -29.7572  -16.5467   15.5855 C   0  0  0  0  0  0  0  0  0  0  0  0
  -22.3580  -27.4984   21.4913 C   0  0  0  0  0  0  0  0  0  0  0  0
  -29.4385  -15.3194   16.4389 C   0  0  0  0  0  0  0  0  0  0  0  0
  -29.1453  -22.0061   17.4291 C   0  0  0  0  0  0  0  0  0  0  0  0
  -31.5043  -22.2389   18.2943 C   0  0  0  0  0  0  0  0  0  0  0  0
  -29.2406  -17.8378   16.2230 C   0  0  0  0  0  0  0  0  0  0  0  0
  -29.5605  -20.7304   16.6904 C   0  0  0  0  0  0  0  0  0  0  0  0
  -31.8782  -20.9790   17.5184 C   0  0  0  0  0  0  0  0  0  0  0  0
  -29.3750  -16.8141   18.4708 C   0  0  0  0  0  0  0  0  0  0  0  0
  -23.8189  -27.1588   21.8108 C   0  0  1  0  0  0  0  0  0  0  0  0
  -25.5880  -30.3459   22.8814 C   0  0  1  0  0  0  0  0  0  0  0  0
  -29.9328  -15.5081   17.8842 C   0  0  1  0  0  0  0  0  0  0  0  0
  -30.3304  -22.9553   17.6218 C   0  0  0  0  0  0  0  0  0  0  0  0
  -30.3185  -24.5471   20.7832 C   0  0  0  0  0  0  0  0  0  0  0  0
  -24.3991  -37.9907   23.2644 C   0  0  0  0  0  0  0  0  0  0  0  0
  -22.4727  -32.4483   20.1915 C   0  0  0  0  0  0  0  0  0  0  0  0
  -22.4467  -34.9484   20.3225 C   0  0  0  0  0  0  0  0  0  0  0  0
  -21.5145  -33.5933   22.1979 C   0  0  0  0  0  0  0  0  0  0  0  0
  -27.4318  -36.0955   24.5632 C   0  0  0  0  0  0  0  0  0  0  0  0
  -31.0480  -31.4773   16.6874 C   0  0  0  0  0  0  0  0  0  0  0  0
  -29.4600  -23.8399   19.7904 C   0  0  0  0  0  0  0  0  0  0  0  0
  -30.0997  -31.8283   17.8232 C   0  0  0  0  0  0  0  0  0  1  0  0
  -31.3416  -29.9864   16.6315 C   0  0  0  0  0  0  0  0  0  0  0  0
  -24.0179  -33.6779   21.8549 C   0  0  1  0  0  0  0  0  0  0  0  0
  -25.1785  -36.7670   23.7203 C   0  0  2  0  0  0  0  0  0  0  0  0
  -22.6376  -33.6529   21.1397 C   0  0  0  0  0  0  0  0  0  0  0  0
  -28.4847  -13.6104   18.5030 N   0  0  0  0  0  0  0  0  0  0  0  0
  -29.6040  -14.3101   18.7552 N   0  0  0  0  0  0  0  0  0  0  0  0
  -25.3982  -31.6693   22.2839 N   0  0  0  0  0  0  0  0  0  0  0  0
  -29.7047  -17.9539   17.6125 N   0  0  0  0  0  0  0  0  0  0  0  0
  -30.7185  -20.1038   17.3440 N   0  0  0  0  0  0  0  0  0  0  0  0
  -31.4820  -14.4147   20.1949 N   0  0  0  0  0  0  0  0  0  0  0  0
  -29.1933  -10.8352   21.7263 N   0  0  0  0  0  0  0  0  0  0  0  0
  -24.4412  -28.2417   22.5418 N   0  0  0  0  0  0  0  0  0  0  0  0
  -24.1916  -34.7929   22.7796 N   0  0  0  0  0  0  0  0  0  0  0  0
  -29.9202  -24.0862   18.4248 N   0  0  3  0  0  0  0  0  0  0  0  0
  -26.5608  -37.1959   24.0758 N   0  3  0  0  0  0  0  0  0  0  0  0
  -31.0580  -12.1303   22.0492 O   0  0  0  0  0  0  0  0  0  0  0  0
  -25.0482  -29.5605   20.7211 O   0  0  0  0  0  0  0  0  0  0  0  0
  -23.5117  -32.1259   23.5758 O   0  0  0  0  0  0  0  0  0  0  0  0
  -26.0718  -35.6827   21.7547 O   0  0  0  0  0  0  0  0  0  0  0  0
  -31.4142  -18.6505   18.9928 O   0  0  0  0  0  0  0  0  0  0  0  0
  -24.4049   -8.8632   19.6727 O   0  0  0  0  0  0  0  0  0  0  0  0
  -30.6652  -31.4294   19.0645 O   0  0  0  0  0  0  0  0  0  1  0  0
  -30.1295  -29.2614   16.4291 O   0  0  0  0  0  0  0  0  0  0  0  0
  -22.3083   -7.6615   24.6290 F   0  0  0  0  0  0  0  0  0  0  0  0
  -27.6303  -25.6474   18.2331 F   0  0  0  0  0  0  0  0  0  0  0  0
  -21.7258   -9.2742   20.2170 F   0  0  0  0  0  0  0  0  0  0  0  0
  1  2  1  0  0  0  0
  1  5  2  0  0  0  0
  2  6  2  0  0  0  0
  3  9  2  0  0  0  0
  3 18  1  0  0  0  0
  4 10  1  0  0  0  0
  4 18  2  0  0  0  0
  5 20  1  0  0  0  0
  6 22  1  0  0  0  0
  7 11  2  0  0  0  0
  7 21  1  0  0  0  0
  8 12  2  0  0  0  0
  8 24  1  0  0  0  0
  9 25  1  0  0  0  0
 10 25  2  0  0  0  0
 11 26  1  0  0  0  0
 12 27  1  0  0  0  0
 13 14  2  0  0  0  0
 13 28  1  0  0  0  0
 14 29  1  0  0  0  0
 15 23  1  0  0  0  0
 15 26  2  0  0  0  0
 16 27  2  0  0  0  0
 16 30  1  0  0  0  0
 17 29  2  0  0  0  0
 17 31  1  0  0  0  0
 18 32  1  0  0  0  0
 19 32  1  0  0  0  0
 19 33  2  0  0  0  0
 19 34  1  0  0  0  0
 20 22  2  0  0  0  0
 20 39  1  0  0  0  0
 21 23  2  0  0  0  0
 21 40  1  0  0  0  0
 22 52  1  0  0  0  0
 23 41  1  0  0  0  0
 24 30  2  0  0  0  0
 24 78  1  0  0  0  0
 25 85  1  0  0  0  0
 26 86  1  0  0  0  0
 27 87  1  0  0  0  0
 28 31  2  0  0  0  0
 28 85  1  0  0  0  0
 29 88  1  0  0  0  0
 30 89  1  0  0  0  0
 31 90  1  0  0  0  0
 32 69  2  0  0  0  0
 33 70  1  0  0  0  0
 33 74  1  0  0  0  0
 34 75  1  0  0  0  0
 34 80  2  0  0  0  0
 35 53  1  0  0  0  0
 35 76  1  0  0  0  0
 35 81  2  0  0  0  0
 36 66  1  0  0  0  0
 36 71  1  0  0  0  0
 36 82  2  0  0  0  0
 37 67  1  0  0  0  0
 37 77  1  0  0  0  0
 37 83  2  0  0  0  0
 38 72  1  0  0  0  0
 38 73  1  0  0  0  0
 38 84  2  0  0  0  0
 39 42  1  0  0  0  0
 40 53  1  0  0  0  0
 41 71  1  0  0  0  0
 42 44  1  0  0  0  0
 43 45  1  0  0  0  0
 43 48  1  0  0  0  0
 44 52  1  0  0  0  0
 45 54  1  0  0  0  0
 46 49  1  0  0  0  0
 46 55  1  0  0  0  0
 47 50  1  0  0  0  0
 47 55  1  0  0  0  0
 48 72  1  0  0  0  0
 49 73  1  0  0  0  0
 50 73  1  0  0  0  0
 51 54  1  0  0  0  0
 51 72  1  0  0  0  0
 52 76  1  0  0  0  0
 53 71  1  0  0  0  0
 54 70  1  0  0  0  0
 55 78  1  0  0  0  0
 56 63  1  0  0  0  0
 57 67  1  0  0  0  0
 58 68  1  0  0  0  0
 59 68  1  0  0  0  0
 60 68  1  0  0  0  0
 61 79  1  0  0  0  0
 62 64  1  0  0  0  0
 62 65  1  0  0  0  0
 63 78  1  0  0  0  0
 64 86  1  0  0  0  0
 65 87  1  0  0  0  0
 66 68  1  0  0  0  0
 66 77  1  0  0  0  0
 67 79  1  0  0  0  0
 69 70  1  0  0  0  0
M  CHG  1  79   1
M  ISO  4  38 100  64 101  73 100  86 101
M  END
> <Batch ID>
0012

> <Smiles>
CCN(c1ccc(OCC[101CH2:1][101O:1]c2ccc3c(c2)CN(C(=O)C(NC(=O)C(C)NC)C(C)(C)C)C(C(=O)NC2CCCc4ccccc42)C3)cc1F)C1CC[100N:0]([100C:0](=O)N2CCCC(n3nc(-c4ccc(Oc5ccc(F)cc5F)cc4)c(C(N)=O)c3N)C2)CC1

> <Shape>
0.243

> <Color>
0.094

> <Negative vol penalty>
0.000

$$$$

  -OEChem-04042320463D

 85 94  0     1  0  0  0  0  0999 V2000
  -20.5422  -27.9691   16.6085 C   0  0  0  0  0  0  0  0  0  0  0  0
  -21.7508  -27.4409   17.0509 C   0  0  0  0  0  0  0  0  0  0  0  0
  -23.0299   -9.9058   19.8675 C   0  0  0  0  0  0  0  0  0  0  0  0
  -23.8806   -9.7283   22.1218 C   0  0  0  0  0  0  0  0  0  0  0  0
  -20.0997  -29.1980   17.0963 C   0  0  0  0  0  0  0  0  0  0  0  0
  -22.5182  -28.1418   17.9805 C   0  0  0  0  0  0  0  0  0  0  0  0
  -29.7903  -19.0493   22.7856 C   0  0  0  0  0  0  0  0  0  0  0  0
  -24.2977  -25.1648   21.6704 C   0  0  0  0  0  0  0  0  0  0  0  0
  -29.6307  -17.6672   22.6617 C   0  0  0  0  0  0  0  0  0  0  0  0
  -22.2860   -8.7412   20.0565 C   0  0  0  0  0  0  0  0  0  0  0  0
  -23.1366   -8.5636   22.3108 C   0  0  0  0  0  0  0  0  0  0  0  0
  -25.4022  -24.3690   21.3695 C   0  0  0  0  0  0  0  0  0  0  0  0
  -19.9279   -7.7405   22.9792 C   0  0  0  0  0  0  0  0  0  0  0  0
  -19.2178   -7.6134   24.1730 C   0  0  0  0  0  0  0  0  0  0  0  0
  -31.1935  -17.6068   20.7987 C   0  0  0  0  0  0  0  0  0  0  0  0
  -26.8421  -25.9631   22.4670 C   0  0  0  0  0  0  0  0  0  0  0  0
  -20.4697   -5.6167   24.7050 C   0  0  0  0  0  0  0  0  0  0  0  0
  -23.8272  -10.3994   20.9001 C   0  0  0  0  0  0  0  0  0  0  0  0
  -24.1872  -12.9241   20.9640 C   0  0  0  0  0  0  0  0  0  0  0  0
  -20.8574  -29.9099   18.0396 C   0  0  0  0  0  0  0  0  0  0  0  0
  -24.4587  -26.3732   22.3635 C   0  0  0  0  0  0  0  0  0  0  0  0
  -22.0861  -29.3821   18.4803 C   0  0  0  0  0  0  0  0  0  0  0  0
  -30.6403  -19.6958   21.9031 C   0  0  0  0  0  0  0  0  0  0  0  0
  -31.3359  -18.9788   20.9202 C   0  0  0  0  0  0  0  0  0  0  0  0
  -25.7378  -26.7712   22.7776 C   0  0  0  0  0  0  0  0  0  0  0  0
  -30.3270  -16.9513   21.6755 C   0  0  0  0  0  0  0  0  0  0  0  0
  -22.3393   -8.0701   21.2781 C   0  0  0  0  0  0  0  0  0  0  0  0
  -26.6750  -24.7695   21.7653 C   0  0  0  0  0  0  0  0  0  0  0  0
  -20.9088   -6.8057   22.6482 C   0  0  0  0  0  0  0  0  0  0  0  0
  -19.4888   -6.5516   25.0360 C   0  0  0  0  0  0  0  0  0  0  0  0
  -21.1798   -5.7438   23.5111 C   0  0  0  0  0  0  0  0  0  0  0  0
  -24.5963  -11.6022   20.7053 C   0  0  0  0  0  0  0  0  0  0  0  0
  -25.2708  -13.6931   20.6166 C   0  0  0  0  0  0  0  0  0  0  0  0
  -22.9392  -13.4131   21.4730 C   0  0  0  0  0  0  0  0  0  0  0  0
  -23.8939  -29.4306   21.7025 C   0  0  0  0  0  0  0  0  0  0  0  0
  -24.7326  -29.8531   24.8074 C   0  0  0  0  0  0  0  0  0  0  0  0
  -26.4204  -28.6910   27.5364 C   0  0  0  0  0  0  0  0  0  0  0  0
  -30.7490  -14.6888   20.6512 C   0  0  0  0  0  0  0  0  0  0  0  0
  -20.3609  -31.2567   18.5023 C   0  0  0  0  0  0  0  0  0  0  0  0
  -23.2540  -27.2071   22.7037 C   0  0  0  0  0  0  0  0  0  0  0  0
  -32.2270  -19.8836   20.1269 C   0  0  0  0  0  0  0  0  0  0  0  0
  -25.9619  -28.0496   23.5418 C   0  0  0  0  0  0  0  0  0  0  0  0
  -21.0524  -31.7591   19.7672 C   0  0  0  0  0  0  0  0  0  0  0  0
  -31.6084  -21.2558   20.4372 C   0  0  0  0  0  0  0  0  0  0  0  0
  -29.5190  -12.4749   18.1486 C   0  0  0  0  0  0  0  0  0  0  0  0
  -22.5633  -31.5810   19.6562 C   0  0  0  0  0  0  0  0  0  0  0  0
  -28.0950  -12.1592   18.6119 C   0  0  0  0  0  0  0  0  0  0  0  0
  -30.4833  -12.6032   19.3265 C   0  0  0  0  0  0  0  0  0  0  0  0
  -28.6397  -13.2286   20.8361 C   0  0  0  0  0  0  0  0  0  0  0  0
  -22.9348  -30.1008   19.5066 C   0  0  1  0  0  0  0  0  0  0  0  0
  -31.0135  -21.1451   21.8518 C   0  0  1  0  0  0  0  0  0  0  0  0
  -23.5949  -28.6711   22.9640 C   0  0  1  0  0  0  0  0  0  0  0  0
  -27.6191  -13.1542   19.6886 C   0  0  2  0  0  0  0  0  0  0  0  0
  -26.9523  -29.2732   29.9188 C   0  0  0  0  0  0  0  0  0  0  0  0
  -26.9666  -22.0751   22.6988 C   0  0  0  0  0  0  0  0  0  0  0  0
  -26.7682  -31.9132   23.8470 C   0  0  0  0  0  0  0  0  0  0  0  0
  -27.8841  -31.7498   26.0822 C   0  0  0  0  0  0  0  0  0  0  0  0
  -25.5299  -32.5588   25.9216 C   0  0  0  0  0  0  0  0  0  0  0  0
  -25.0833  -26.2539   28.5523 C   0  0  0  0  0  0  0  0  0  0  0  0
  -30.3976  -23.5250   22.0553 C   0  0  0  0  0  0  0  0  0  0  0  0
  -28.8426  -21.9128   20.9673 C   0  0  0  0  0  0  0  0  0  0  0  0
  -26.0276  -30.1097   25.5396 C   0  0  1  0  0  0  0  0  0  0  0  0
  -26.0032  -28.5350   28.9877 C   0  0  2  0  0  0  0  0  0  0  0  0
  -27.5394  -22.5871   21.3837 C   0  0  2  0  0  0  0  0  0  1  0  0
  -26.5488  -31.5597   25.3315 C   0  0  0  0  0  0  0  0  0  0  0  0
  -25.8426  -11.5318   20.2300 N   0  0  0  0  0  0  0  0  0  0  0  0
  -26.2259  -12.8192   20.1872 N   0  0  0  0  0  0  0  0  0  0  0  0
  -24.7532  -28.8337   23.8450 N   0  0  0  0  0  0  0  0  0  0  0  0
  -29.9693  -13.5654   20.3036 N   0  0  0  0  0  0  0  0  0  0  0  0
  -25.4904  -15.0249   20.6394 N   0  0  0  0  0  0  0  0  0  0  0  0
  -21.9332  -12.4864   21.7789 N   0  0  0  0  0  0  0  0  0  0  0  0
  -30.1433  -15.5507   21.5649 N   0  0  0  0  0  0  0  0  0  0  0  0
  -22.8595  -29.4290   20.7863 N   0  0  0  0  0  0  0  0  0  0  0  0
  -25.7850  -29.7563   26.9341 N   0  0  0  0  0  0  0  0  0  0  0  0
  -25.9932  -27.0951   29.3718 N   0  3  0  0  0  0  0  0  0  0  0  0
  -29.8945  -22.1036   21.9967 N   0  3  1  0  0  0  0  0  0  0  0  0
  -22.7167  -14.6368   21.6358 O   0  0  0  0  0  0  0  0  0  0  0  0
  -24.9819  -29.9788   21.5708 O   0  0  0  0  0  0  0  0  0  0  0  0
  -23.7375  -30.5274   25.0844 O   0  0  0  0  0  0  0  0  0  0  0  0
  -27.2318  -27.9450   26.9927 O   0  0  0  0  0  0  0  0  0  0  0  0
  -31.8601  -14.8868   20.1529 O   0  0  0  0  0  0  0  0  0  0  0  0
  -21.6134   -6.9337   21.4629 O   0  0  0  0  0  0  0  0  0  0  0  0
  -27.7548  -23.9949   21.4723 O   0  0  0  0  0  0  0  0  0  1  0  0
  -18.8079   -6.4305   26.1831 F   0  0  0  0  0  0  0  0  0  0  0  0
  -22.1218   -4.8432   23.1991 F   0  0  0  0  0  0  0  0  0  0  0  0
  1  2  1  0  0  0  0
  1  5  2  0  0  0  0
  2  6  2  0  0  0  0
  3 10  2  0  0  0  0
  3 18  1  0  0  0  0
  4 11  1  0  0  0  0
  4 18  2  0  0  0  0
  5 20  1  0  0  0  0
  6 22  1  0  0  0  0
  7  9  2  0  0  0  0
  7 23  1  0  0  0  0
  8 12  2  0  0  0  0
  8 21  1  0  0  0  0
  9 26  1  0  0  0  0
 10 27  1  0  0  0  0
 11 27  2  0  0  0  0
 12 28  1  0  0  0  0
 13 14  2  0  0  0  0
 13 29  1  0  0  0  0
 14 30  1  0  0  0  0
 15 24  1  0  0  0  0
 15 26  2  0  0  0  0
 16 25  1  0  0  0  0
 16 28  2  0  0  0  0
 17 30  2  0  0  0  0
 17 31  1  0  0  0  0
 18 32  1  0  0  0  0
 19 32  1  0  0  0  0
 19 33  2  0  0  0  0
 19 34  1  0  0  0  0
 20 22  2  0  0  0  0
 20 39  1  0  0  0  0
 21 25  2  0  0  0  0
 21 40  1  0  0  0  0
 22 50  1  0  0  0  0
 23 24  2  0  0  0  0
 23 51  1  0  0  0  0
 24 41  1  0  0  0  0
 25 42  1  0  0  0  0
 26 72  1  0  0  0  0
 27 82  1  0  0  0  0
 28 83  1  0  0  0  0
 29 31  2  0  0  0  0
 29 82  1  0  0  0  0
 30 84  1  0  0  0  0
 31 85  1  0  0  0  0
 32 66  2  0  0  0  0
 33 67  1  0  0  0  0
 33 70  1  0  0  0  0
 34 71  1  0  0  0  0
 34 77  2  0  0  0  0
 35 52  1  0  0  0  0
 35 73  1  0  0  0  0
 35 78  2  0  0  0  0
 36 62  1  0  0  0  0
 36 68  1  0  0  0  0
 36 79  2  0  0  0  0
 37 63  1  0  0  0  0
 37 74  1  0  0  0  0
 37 80  2  0  0  0  0
 38 69  1  0  0  0  0
 38 72  1  0  0  0  0
 38 81  2  0  0  0  0
 39 43  1  0  0  0  0
 40 52  1  0  0  0  0
 41 44  1  0  0  0  0
 42 68  1  0  0  0  0
 43 46  1  0  0  0  0
 44 51  1  0  0  0  0
 45 47  1  0  0  0  0
 45 48  1  0  0  0  0
 46 50  1  0  0  0  0
 47 53  1  0  0  0  0
 48 69  1  0  0  0  0
 49 53  1  0  0  0  0
 49 69  1  0  0  0  0
 50 73  1  0  0  0  0
 51 76  1  0  0  0  0
 52 68  1  0  0  0  0
 53 67  1  0  0  0  0
 54 63  1  0  0  0  0
 55 64  1  0  0  0  0
 56 65  1  0  0  0  0
 57 65  1  0  0  0  0
 58 65  1  0  0  0  0
 59 75  1  0  0  0  0
 60 76  1  0  0  0  0
 61 64  1  0  0  0  0
 61 76  1  0  0  0  0
 62 65  1  0  0  0  0
 62 74  1  0  0  0  0
 63 75  1  0  0  0  0
 64 83  1  0  0  0  0
 66 67  1  0  0  0  0
M  CHG  2  75   1  76   1
M  ISO  4  38 100  64 101  72 100  83 101
M  END
> <Batch ID>
0012

> <Smiles>
CNC(C)C(=O)NC(C(=O)N1Cc2cc([101O:1][101CH:1](C)CN(C)C3CCc4cc([100NH:0][100C:0](=O)N5CCCC(n6nc(-c7ccc(Oc8ccc(F)cc8F)cc7)c(C(N)=O)c6N)C5)ccc43)ccc2CC1C(=O)NC1CCCc2ccccc21)C(C)(C)C

> <Shape>
0.289

> <Color>
0.201

> <Negative vol penalty>
0.000

$$$$

  -OEChem-04042320463D

 83 91  0     1  0  0  0  0  0999 V2000
  -33.5691  -28.5406   31.9058 C   0  0  0  0  0  0  0  0  0  0  0  0
  -32.7523  -27.5672   31.3394 C   0  0  0  0  0  0  0  0  0  0  0  0
  -23.0753   -9.8686   19.9404 C   0  0  0  0  0  0  0  0  0  0  0  0
  -23.8349   -9.8747   22.2339 C   0  0  0  0  0  0  0  0  0  0  0  0
  -34.9536  -28.4553   31.7653 C   0  0  0  0  0  0  0  0  0  0  0  0
  -33.3196  -26.5084   30.6312 C   0  0  0  0  0  0  0  0  0  0  0  0
  -31.2873  -20.7366   30.3833 C   0  0  0  0  0  0  0  0  0  0  0  0
  -32.0674  -16.5773   22.5245 C   0  0  0  0  0  0  0  0  0  0  0  0
  -22.3310   -8.7157   20.1900 C   0  0  0  0  0  0  0  0  0  0  0  0
  -23.0906   -8.7217   22.4835 C   0  0  0  0  0  0  0  0  0  0  0  0
  -30.5212  -20.0516   29.4412 C   0  0  0  0  0  0  0  0  0  0  0  0
  -19.8621   -7.9249   23.0854 C   0  0  0  0  0  0  0  0  0  0  0  0
  -32.6911  -17.4464   23.4196 C   0  0  0  0  0  0  0  0  0  0  0  0
  -19.1050   -7.8849   24.2562 C   0  0  0  0  0  0  0  0  0  0  0  0
  -32.5382  -19.1924   28.4347 C   0  0  0  0  0  0  0  0  0  0  0  0
  -20.3456   -5.9468   24.9922 C   0  0  0  0  0  0  0  0  0  0  0  0
  -23.8273  -10.4481   20.9624 C   0  0  0  0  0  0  0  0  0  0  0  0
  -24.1700  -12.9732   20.8431 C   0  0  0  0  0  0  0  0  0  0  0  0
  -35.5387  -27.3897   31.0632 C   0  0  0  0  0  0  0  0  0  0  0  0
  -32.6873  -20.6633   30.3515 C   0  0  0  0  0  0  0  0  0  0  0  0
  -34.7132  -26.4095   30.4799 C   0  0  0  0  0  0  0  0  0  0  0  0
  -33.3197  -19.8754   29.3791 C   0  0  0  0  0  0  0  0  0  0  0  0
  -30.6787  -16.5889   22.3939 C   0  0  0  0  0  0  0  0  0  0  0  0
  -30.5373  -18.3388   24.0537 C   0  0  0  0  0  0  0  0  0  0  0  0
  -22.3386   -8.1422   21.4615 C   0  0  0  0  0  0  0  0  0  0  0  0
  -31.1467  -19.2816   28.4650 C   0  0  0  0  0  0  0  0  0  0  0  0
  -20.8609   -6.9758   22.8679 C   0  0  0  0  0  0  0  0  0  0  0  0
  -19.3467   -6.8959   25.2096 C   0  0  0  0  0  0  0  0  0  0  0  0
  -31.9261  -18.3272   24.1842 C   0  0  0  0  0  0  0  0  0  0  0  0
  -21.1027   -5.9868   23.8214 C   0  0  0  0  0  0  0  0  0  0  0  0
  -29.9137  -17.4697   23.1585 C   0  0  0  0  0  0  0  0  0  0  0  0
  -24.5968  -11.6388   20.7051 C   0  0  0  0  0  0  0  0  0  0  0  0
  -25.2625  -13.7224   20.4802 C   0  0  0  0  0  0  0  0  0  0  0  0
  -22.8997  -13.4893   21.2620 C   0  0  0  0  0  0  0  0  0  0  0  0
  -35.0350  -22.7675   29.9460 C   0  0  0  0  0  0  0  0  0  0  0  0
  -36.9154  -20.2163   30.6373 C   0  0  0  0  0  0  0  0  0  0  0  0
  -37.2817  -16.8242   30.7172 C   0  0  0  0  0  0  0  0  0  0  0  0
  -30.7290  -14.7661   20.6558 C   0  0  0  0  0  0  0  0  0  0  0  0
  -37.0376  -27.3656   30.8974 C   0  0  0  0  0  0  0  0  0  0  0  0
  -33.4985  -21.3868   31.3912 C   0  0  0  0  0  0  0  0  0  0  0  0
  -34.8189  -19.7475   29.3142 C   0  0  0  0  0  0  0  0  0  0  0  0
  -37.5793  -26.0099   30.4513 C   0  0  0  0  0  0  0  0  0  0  0  0
  -29.6140  -12.3533   18.2867 C   0  0  0  0  0  0  0  0  0  0  0  0
  -36.7481  -25.4561   29.2984 C   0  0  0  0  0  0  0  0  0  0  0  0
  -28.1742  -12.0621   18.7161 C   0  0  0  0  0  0  0  0  0  0  0  0
  -30.5291  -12.5815   19.4886 C   0  0  0  0  0  0  0  0  0  0  0  0
  -28.6222  -13.3062   20.8698 C   0  0  0  0  0  0  0  0  0  0  0  0
  -35.2923  -25.2325   29.7254 C   0  0  1  0  0  0  0  0  0  0  0  0
  -34.9342  -21.6539   30.9497 C   0  0  1  0  0  0  0  0  0  0  0  0
  -27.6495  -13.1336   19.6918 C   0  0  2  0  0  0  0  0  0  0  0  0
  -38.9442  -15.0355   31.2950 C   0  0  0  0  0  0  0  0  0  0  0  0
  -38.4229  -20.7837   28.0459 C   0  0  0  0  0  0  0  0  0  0  0  0
  -39.3996  -18.4830   28.1920 C   0  0  0  0  0  0  0  0  0  0  0  0
  -39.8759  -20.1543   29.9816 C   0  0  0  0  0  0  0  0  0  0  0  0
  -30.0273  -20.6760   24.7152 C   0  0  0  0  0  0  0  0  0  0  0  0
  -35.5158  -15.6958   32.8070 C   0  0  0  0  0  0  0  0  0  0  0  0
  -28.7909  -18.7729   25.7630 C   0  0  0  0  0  0  0  0  0  0  0  0
  -29.1474  -19.1886   27.1804 C   0  0  0  0  0  0  0  0  0  1  0  0
  -37.5726  -19.1227   29.8303 C   0  0  1  0  0  0  0  0  0  0  0  0
  -37.7932  -15.8915   31.8002 C   0  0  2  0  0  0  0  0  0  0  0  0
  -38.7895  -19.6397   29.0122 C   0  0  0  0  0  0  0  0  0  0  0  0
  -25.8617  -11.5427   20.2869 N   0  0  0  0  0  0  0  0  0  0  0  0
  -26.2391  -12.8262   20.1590 N   0  0  0  0  0  0  0  0  0  0  0  0
  -35.5686  -20.4789   30.3489 N   0  0  0  0  0  0  0  0  0  0  0  0
  -29.9704  -13.6122   20.3662 N   0  0  0  0  0  0  0  0  0  0  0  0
  -25.4734  -15.0538   20.4076 N   0  0  0  0  0  0  0  0  0  0  0  0
  -21.8874  -12.5804   21.5989 N   0  0  0  0  0  0  0  0  0  0  0  0
  -30.0819  -15.6911   21.4744 N   0  0  0  0  0  0  0  0  0  0  0  0
  -35.1759  -24.0215   30.5093 N   0  0  0  0  0  0  0  0  0  0  0  0
  -37.8957  -18.0575   30.7734 N   0  0  0  0  0  0  0  0  0  0  0  0
  -29.7980  -19.2359   24.8360 N   0  0  3  0  0  0  0  0  0  0  0  0
  -36.7026  -14.9873   32.2626 N   0  3  0  0  0  0  0  0  0  0  0  0
  -22.6638  -14.7200   21.3197 O   0  0  0  0  0  0  0  0  0  0  0  0
  -34.9900  -22.5082   28.7492 O   0  0  0  0  0  0  0  0  0  0  0  0
  -37.5707  -20.8106   31.4969 O   0  0  0  0  0  0  0  0  0  0  0  0
  -36.4259  -16.4907   29.9005 O   0  0  0  0  0  0  0  0  0  0  0  0
  -31.8582  -14.9345   20.1884 O   0  0  0  0  0  0  0  0  0  0  0  0
  -21.6122   -7.0173   21.7054 O   0  0  0  0  0  0  0  0  0  0  0  0
  -30.4013  -18.6125   27.5438 O   0  0  0  0  0  0  0  0  0  1  0  0
  -18.6207   -6.8585   26.3346 F   0  0  0  0  0  0  0  0  0  0  0  0
  -32.5372  -19.1581   25.0408 F   0  0  0  0  0  0  0  0  0  0  0  0
  -22.0617   -5.0730   23.6186 F   0  0  0  0  0  0  0  0  0  0  0  0
  -28.1858  -17.4839   22.9960 Cl  0  0  0  0  0  0  0  0  0  0  0  0
  1  2  1  0  0  0  0
  1  5  2  0  0  0  0
  2  6  2  0  0  0  0
  3  9  2  0  0  0  0
  3 17  1  0  0  0  0
  4 10  1  0  0  0  0
  4 17  2  0  0  0  0
  5 19  1  0  0  0  0
  6 21  1  0  0  0  0
  7 11  2  0  0  0  0
  7 20  1  0  0  0  0
  8 13  1  0  0  0  0
  8 23  2  0  0  0  0
  9 25  1  0  0  0  0
 10 25  2  0  0  0  0
 11 26  1  0  0  0  0
 12 14  2  0  0  0  0
 12 27  1  0  0  0  0
 13 29  2  0  0  0  0
 14 28  1  0  0  0  0
 15 22  1  0  0  0  0
 15 26  2  0  0  0  0
 16 28  2  0  0  0  0
 16 30  1  0  0  0  0
 17 32  1  0  0  0  0
 18 32  1  0  0  0  0
 18 33  2  0  0  0  0
 18 34  1  0  0  0  0
 19 21  2  0  0  0  0
 19 39  1  0  0  0  0
 20 22  2  0  0  0  0
 20 40  1  0  0  0  0
 21 48  1  0  0  0  0
 22 41  1  0  0  0  0
 23 31  1  0  0  0  0
 23 68  1  0  0  0  0
 24 29  1  0  0  0  0
 24 31  2  0  0  0  0
 24 71  1  0  0  0  0
 25 78  1  0  0  0  0
 26 79  1  0  0  0  0
 27 30  2  0  0  0  0
 27 78  1  0  0  0  0
 28 80  1  0  0  0  0
 29 81  1  0  0  0  0
 30 82  1  0  0  0  0
 31 83  1  0  0  0  0
 32 62  2  0  0  0  0
 33 63  1  0  0  0  0
 33 66  1  0  0  0  0
 34 67  1  0  0  0  0
 34 73  2  0  0  0  0
 35 49  1  0  0  0  0
 35 69  1  0  0  0  0
 35 74  2  0  0  0  0
 36 59  1  0  0  0  0
 36 64  1  0  0  0  0
 36 75  2  0  0  0  0
 37 60  1  0  0  0  0
 37 70  1  0  0  0  0
 37 76  2  0  0  0  0
 38 65  1  0  0  0  0
 38 68  1  0  0  0  0
 38 77  2  0  0  0  0
 39 42  1  0  0  0  0
 40 49  1  0  0  0  0
 41 64  1  0  0  0  0
 42 44  1  0  0  0  0
 43 45  1  0  0  0  0
 43 46  1  0  0  0  0
 44 48  1  0  0  0  0
 45 50  1  0  0  0  0
 46 65  1  0  0  0  0
 47 50  1  0  0  0  0
 47 65  1  0  0  0  0
 48 69  1  0  0  0  0
 49 64  1  0  0  0  0
 50 63  1  0  0  0  0
 51 60  1  0  0  0  0
 52 61  1  0  0  0  0
 53 61  1  0  0  0  0
 54 61  1  0  0  0  0
 55 71  1  0  0  0  0
 56 72  1  0  0  0  0
 57 58  1  0  0  0  0
 57 71  1  0  0  0  0
 58 79  1  0  0  0  0
 59 61  1  0  0  0  0
 59 70  1  0  0  0  0
 60 72  1  0  0  0  0
 62 63  1  0  0  0  0
M  CHG  1  72   1
M  ISO  4  38 100  58 101  68 100  79 101
M  END
> <Batch ID>
0012

> <Smiles>
CNC(C)C(=O)NC(C(=O)N1Cc2cc([101O:1][101CH2:1]CN(C)c3c(F)ccc([100NH:0][100C:0](=O)N4CCCC(n5nc(-c6ccc(Oc7ccc(F)cc7F)cc6)c(C(N)=O)c5N)C4)c3Cl)ccc2CC1C(=O)NC1CCCc2ccccc21)C(C)(C)C

> <Shape>
0.167

> <Color>
0.200

> <Negative vol penalty>
0.000

$$$$

  -OEChem-04042320463D

 84 93  0     1  0  0  0  0  0999 V2000
  -17.4894  -12.3175   18.2893 C   0  0  0  0  0  0  0  0  0  0  0  0
  -18.2366  -12.3132   19.4617 C   0  0  0  0  0  0  0  0  0  0  0  0
  -23.1911   -9.8190   19.9314 C   0  0  0  0  0  0  0  0  0  0  0  0
  -23.5686   -9.9994   22.3109 C   0  0  0  0  0  0  0  0  0  0  0  0
  -16.6735  -13.4068   17.9913 C   0  0  0  0  0  0  0  0  0  0  0  0
  -18.1590  -13.3927   20.3423 C   0  0  0  0  0  0  0  0  0  0  0  0
  -20.4734  -12.9271   24.6585 C   0  0  0  0  0  0  0  0  0  0  0  0
  -26.7562  -13.9896   24.3342 C   0  0  0  0  0  0  0  0  0  0  0  0
  -26.6656  -12.5787   26.2934 C   0  0  0  0  0  0  0  0  0  0  0  0
  -28.1196  -14.1951   24.5453 C   0  0  0  0  0  0  0  0  0  0  0  0
  -28.0290  -12.7842   26.5045 C   0  0  0  0  0  0  0  0  0  0  0  0
  -22.4249   -8.6722   20.1399 C   0  0  0  0  0  0  0  0  0  0  0  0
  -22.8024   -8.8526   22.5194 C   0  0  0  0  0  0  0  0  0  0  0  0
  -21.8623  -12.9573   24.7761 C   0  0  0  0  0  0  0  0  0  0  0  0
  -23.2041   -5.5060   22.2554 C   0  0  0  0  0  0  0  0  0  0  0  0
  -23.7024   -4.5447   23.1347 C   0  0  0  0  0  0  0  0  0  0  0  0
  -21.7359  -15.2143   25.6184 C   0  0  0  0  0  0  0  0  0  0  0  0
  -21.7454   -4.8044   24.5275 C   0  0  0  0  0  0  0  0  0  0  0  0
  -23.7630  -10.4826   21.0169 C   0  0  0  0  0  0  0  0  0  0  0  0
  -24.1013  -12.9993   20.7733 C   0  0  0  0  0  0  0  0  0  0  0  0
  -16.5960  -14.5053   18.8631 C   0  0  0  0  0  0  0  0  0  0  0  0
  -19.7048  -14.0460   25.0103 C   0  0  0  0  0  0  0  0  0  0  0  0
  -17.3229  -14.4909   20.0709 C   0  0  0  0  0  0  0  0  0  0  0  0
  -20.3372  -15.1948   25.5068 C   0  0  0  0  0  0  0  0  0  0  0  0
  -26.0292  -13.1814   25.2083 C   0  0  0  0  0  0  0  0  0  0  0  0
  -28.7560  -13.5924   25.6304 C   0  0  0  0  0  0  0  0  0  0  0  0
  -22.2306   -8.1890   21.4339 C   0  0  0  0  0  0  0  0  0  0  0  0
  -22.4940  -14.1020   25.2534 C   0  0  0  0  0  0  0  0  0  0  0  0
  -21.9765   -6.1165   22.5121 C   0  0  0  0  0  0  0  0  0  0  0  0
  -22.9730   -4.1939   24.2707 C   0  0  0  0  0  0  0  0  0  0  0  0
  -21.2471   -5.7657   23.6481 C   0  0  0  0  0  0  0  0  0  0  0  0
  -24.5550  -11.6669   20.8022 C   0  0  0  0  0  0  0  0  0  0  0  0
  -25.2325  -13.7421   20.5384 C   0  0  0  0  0  0  0  0  0  0  0  0
  -22.7760  -13.5190   20.9438 C   0  0  0  0  0  0  0  0  0  0  0  0
  -17.7366  -15.9953   23.4515 C   0  0  0  0  0  0  0  0  0  0  0  0
  -17.2116  -17.2028   26.4160 C   0  0  0  0  0  0  0  0  0  0  0  0
  -18.3488  -17.6609   29.6010 C   0  0  0  0  0  0  0  0  0  0  0  0
  -31.0471  -12.7531   21.5693 C   0  0  0  0  0  0  0  0  0  0  0  0
  -15.6908  -15.6545   18.4951 C   0  0  0  0  0  0  0  0  0  0  0  0
  -18.2057  -13.9880   24.9028 C   0  0  0  0  0  0  0  0  0  0  0  0
  -19.5560  -16.4154   25.9172 C   0  0  0  0  0  0  0  0  0  0  0  0
  -16.0129  -16.9337   19.2608 C   0  0  0  0  0  0  0  0  0  0  0  0
  -29.5205  -13.4703   18.4337 C   0  0  0  0  0  0  0  0  0  0  0  0
  -32.2054  -14.0030   26.9121 C   0  0  0  0  0  0  0  0  0  0  0  0
  -16.1213  -16.6355   20.7487 C   0  0  0  0  0  0  0  0  0  0  0  0
  -28.0339  -13.2097   18.6826 C   0  0  0  0  0  0  0  0  0  0  0  0
  -32.2176  -14.8133   25.6266 C   0  0  0  0  0  0  0  0  0  0  0  0
  -30.7180  -13.7805   27.1702 C   0  0  0  0  0  0  0  0  0  0  0  0
  -30.4018  -12.4811   19.1932 C   0  0  0  0  0  0  0  0  0  0  0  0
  -28.6478  -12.1380   20.8901 C   0  0  0  0  0  0  0  0  0  0  0  0
  -17.2779  -15.6676   21.0289 C   0  0  1  0  0  0  0  0  0  0  0  0
  -17.5598  -15.3666   24.8046 C   0  0  1  0  0  0  0  0  0  0  0  0
  -27.7204  -13.1456   20.1895 C   0  0  2  0  0  0  0  0  0  0  0  0
  -31.0685  -14.2068   24.8078 C   0  0  1  0  0  0  0  0  0  0  0  0
  -17.7140  -18.7187   31.7863 C   0  0  0  0  0  0  0  0  0  0  0  0
  -17.8943  -19.9515   25.2810 C   0  0  0  0  0  0  0  0  0  0  0  0
  -18.1745  -20.7744   27.6289 C   0  0  0  0  0  0  0  0  0  0  0  0
  -15.9569  -19.9277   26.8622 C   0  0  0  0  0  0  0  0  0  0  0  0
  -18.3993  -15.0579   31.0084 C   0  0  0  0  0  0  0  0  0  0  0  0
  -24.5624  -12.9601   24.9824 C   0  0  0  0  0  0  0  0  0  1  0  0
  -31.5365  -13.0043   23.9893 C   0  0  0  0  0  0  0  0  0  0  0  0
  -17.8411  -18.2884   27.2551 C   0  0  1  0  0  0  0  0  0  0  0  0
  -17.6825  -17.4498   30.9486 C   0  0  2  0  0  0  0  0  0  0  0  0
  -17.4818  -19.7134   26.7473 C   0  0  0  0  0  0  0  0  0  0  0  0
  -25.8716  -11.5661   20.6014 N   0  0  0  0  0  0  0  0  0  0  0  0
  -26.2550  -12.8445   20.4441 N   0  0  0  0  0  0  0  0  0  0  0  0
  -30.1071  -13.7943   25.8388 N   0  0  3  0  0  0  0  0  0  0  0  0
  -18.0932  -16.3119   25.7876 N   0  0  0  0  0  0  0  0  0  0  0  0
  -30.0548  -12.4699   20.6164 N   0  0  0  0  0  0  0  0  0  0  0  0
  -25.4422  -15.0690   20.4053 N   0  0  0  0  0  0  0  0  0  0  0  0
  -21.7294  -12.6165   21.1775 N   0  0  0  0  0  0  0  0  0  0  0  0
  -17.2177  -15.2477   22.4116 N   0  0  0  0  0  0  0  0  0  0  0  0
  -17.4377  -18.0255   28.6323 N   0  0  0  0  0  0  0  0  0  0  0  0
  -30.6325  -12.7276   22.8953 N   0  0  0  0  0  0  0  0  0  0  0  0
  -18.3758  -16.3695   31.7056 N   0  3  0  0  0  0  0  0  0  0  0  0
  -22.5246  -14.7459   20.8741 O   0  0  0  0  0  0  0  0  0  0  0  0
  -18.3006  -17.0792   23.3579 O   0  0  0  0  0  0  0  0  0  0  0  0
  -15.9827  -17.1430   26.3274 O   0  0  0  0  0  0  0  0  0  0  0  0
  -19.5571  -17.5202   29.4260 O   0  0  0  0  0  0  0  0  0  0  0  0
  -32.2147  -13.0150   21.2610 O   0  0  0  0  0  0  0  0  0  0  0  0
  -21.4828   -7.0701   21.6377 O   0  0  0  0  0  0  0  0  0  0  0  0
  -23.8495  -14.1344   25.3686 O   0  0  0  0  0  0  0  0  0  1  0  0
  -23.4509   -3.2696   25.1143 F   0  0  0  0  0  0  0  0  0  0  0  0
  -20.0666   -6.3479   23.8994 F   0  0  0  0  0  0  0  0  0  0  0  0
  1  2  1  0  0  0  0
  1  5  2  0  0  0  0
  2  6  2  0  0  0  0
  3 12  2  0  0  0  0
  3 19  1  0  0  0  0
  4 13  1  0  0  0  0
  4 19  2  0  0  0  0
  5 21  1  0  0  0  0
  6 23  1  0  0  0  0
  7 14  2  0  0  0  0
  7 22  1  0  0  0  0
  8 10  2  0  0  0  0
  8 25  1  0  0  0  0
  9 11  1  0  0  0  0
  9 25  2  0  0  0  0
 10 26  1  0  0  0  0
 11 26  2  0  0  0  0
 12 27  1  0  0  0  0
 13 27  2  0  0  0  0
 14 28  1  0  0  0  0
 15 16  2  0  0  0  0
 15 29  1  0  0  0  0
 16 30  1  0  0  0  0
 17 24  1  0  0  0  0
 17 28  2  0  0  0  0
 18 30  2  0  0  0  0
 18 31  1  0  0  0  0
 19 32  1  0  0  0  0
 20 32  1  0  0  0  0
 20 33  2  0  0  0  0
 20 34  1  0  0  0  0
 21 23  2  0  0  0  0
 21 39  1  0  0  0  0
 22 24  2  0  0  0  0
 22 40  1  0  0  0  0
 23 51  1  0  0  0  0
 24 41  1  0  0  0  0
 25 60  1  0  0  0  0
 26 67  1  0  0  0  0
 27 81  1  0  0  0  0
 28 82  1  0  0  0  0
 29 31  2  0  0  0  0
 29 81  1  0  0  0  0
 30 83  1  0  0  0  0
 31 84  1  0  0  0  0
 32 65  2  0  0  0  0
 33 66  1  0  0  0  0
 33 70  1  0  0  0  0
 34 71  1  0  0  0  0
 34 76  2  0  0  0  0
 35 52  1  0  0  0  0
 35 72  1  0  0  0  0
 35 77  2  0  0  0  0
 36 62  1  0  0  0  0
 36 68  1  0  0  0  0
 36 78  2  0  0  0  0
 37 63  1  0  0  0  0
 37 73  1  0  0  0  0
 37 79  2  0  0  0  0
 38 69  1  0  0  0  0
 38 74  1  0  0  0  0
 38 80  2  0  0  0  0
 39 42  1  0  0  0  0
 40 52  1  0  0  0  0
 41 68  1  0  0  0  0
 42 45  1  0  0  0  0
 43 46  1  0  0  0  0
 43 49  1  0  0  0  0
 44 47  1  0  0  0  0
 44 48  1  0  0  0  0
 45 51  1  0  0  0  0
 46 53  1  0  0  0  0
 47 54  1  0  0  0  0
 48 67  1  0  0  0  0
 49 69  1  0  0  0  0
 50 53  1  0  0  0  0
 50 69  1  0  0  0  0
 51 72  1  0  0  0  0
 52 68  1  0  0  0  0
 53 66  1  0  0  0  0
 54 61  1  0  0  0  0
 54 67  1  0  0  0  0
 55 63  1  0  0  0  0
 56 64  1  0  0  0  0
 57 64  1  0  0  0  0
 58 64  1  0  0  0  0
 59 75  1  0  0  0  0
 60 82  1  0  0  0  0
 61 74  1  0  0  0  0
 62 64  1  0  0  0  0
 62 73  1  0  0  0  0
 63 75  1  0  0  0  0
 65 66  1  0  0  0  0
M  CHG  1  75   1
M  ISO  4  38 100  60 101  74 100  82 101
M  END
> <Batch ID>
0012

> <Smiles>
CNC(C)C(=O)NC(C(=O)N1Cc2cc([101O:1][101CH2:1]c3ccc(N4CCCC4C[100NH:0][100C:0](=O)N4CCCC(n5nc(-c6ccc(Oc7ccc(F)cc7F)cc6)c(C(N)=O)c5N)C4)cc3)ccc2CC1C(=O)NC1CCCc2ccccc21)C(C)(C)C

> <Shape>
0.140

> <Color>
0.186

> <Negative vol penalty>
0.000

$$$$

  -OEChem-04042320463D

 82 90  0     1  0  0  0  0  0999 V2000
  -18.1133  -25.5315   23.0315 C   0  0  0  0  0  0  0  0  0  0  0  0
  -19.2196  -25.4769   22.1897 C   0  0  0  0  0  0  0  0  0  0  0  0
  -26.0370  -16.2643   20.4737 C   0  0  0  0  0  0  0  0  0  0  0  0
  -25.9626  -16.6509   18.0900 C   0  0  0  0  0  0  0  0  0  0  0  0
  -17.6105  -26.7658   23.4408 C   0  0  0  0  0  0  0  0  0  0  0  0
  -19.8231  -26.6568   21.7559 C   0  0  0  0  0  0  0  0  0  0  0  0
  -25.7893  -27.5768   20.7242 C   0  0  0  0  0  0  0  0  0  0  0  0
  -24.0518  -24.9853   15.2817 C   0  0  0  0  0  0  0  0  0  0  0  0
  -22.5176  -26.5401   16.3141 C   0  0  0  0  0  0  0  0  0  0  0  0
  -25.8837  -14.8951   20.2565 C   0  0  0  0  0  0  0  0  0  0  0  0
  -25.8094  -15.2816   17.8727 C   0  0  0  0  0  0  0  0  0  0  0  0
  -26.5513  -27.5697   19.5568 C   0  0  0  0  0  0  0  0  0  0  0  0
  -24.9193  -26.0371   14.9868 C   0  0  0  0  0  0  0  0  0  0  0  0
  -23.3851  -27.5919   16.0193 C   0  0  0  0  0  0  0  0  0  0  0  0
  -27.8238  -12.2892   19.3193 C   0  0  0  0  0  0  0  0  0  0  0  0
  -28.6485  -11.4227   20.0367 C   0  0  0  0  0  0  0  0  0  0  0  0
  -26.3425  -29.9687   19.4131 C   0  0  0  0  0  0  0  0  0  0  0  0
  -26.7020  -10.3921   21.0297 C   0  0  0  0  0  0  0  0  0  0  0  0
  -26.0763  -17.1423   19.3904 C   0  0  0  0  0  0  0  0  0  0  0  0
  -27.4419  -19.2757   19.6929 C   0  0  0  0  0  0  0  0  0  0  0  0
  -18.2141  -27.9612   23.0196 C   0  0  0  0  0  0  0  0  0  0  0  0
  -25.2881  -28.7807   21.2398 C   0  0  0  0  0  0  0  0  0  0  0  0
  -19.3271  -27.9083   22.1590 C   0  0  0  0  0  0  0  0  0  0  0  0
  -25.5765  -29.9886   20.5886 C   0  0  0  0  0  0  0  0  0  0  0  0
  -22.8509  -25.2369   15.9452 C   0  0  0  0  0  0  0  0  0  0  0  0
  -25.7700  -14.4037   18.9560 C   0  0  0  0  0  0  0  0  0  0  0  0
  -24.5860  -27.3403   15.3557 C   0  0  0  0  0  0  0  0  0  0  0  0
  -26.8256  -28.7654   18.8994 C   0  0  0  0  0  0  0  0  0  0  0  0
  -26.4381  -12.2072   19.4572 C   0  0  0  0  0  0  0  0  0  0  0  0
  -28.0877  -10.4742   20.8919 C   0  0  0  0  0  0  0  0  0  0  0  0
  -25.8773  -11.2586   20.3123 C   0  0  0  0  0  0  0  0  0  0  0  0
  -26.2341  -18.5569   19.6142 C   0  0  0  0  0  0  0  0  0  0  0  0
  -27.0547  -20.5746   19.9148 C   0  0  0  0  0  0  0  0  0  0  0  0
  -28.7932  -18.8107   19.5758 C   0  0  0  0  0  0  0  0  0  0  0  0
  -22.3833  -29.9508   21.7848 C   0  0  0  0  0  0  0  0  0  0  0  0
  -24.0432  -32.3816   23.1481 C   0  0  0  0  0  0  0  0  0  0  0  0
  -26.9620  -34.1375   23.3571 C   0  0  0  0  0  0  0  0  0  0  0  0
  -22.0354  -23.5994   18.6866 C   0  0  0  0  0  0  0  0  0  0  0  0
  -17.6060  -29.2724   23.4504 C   0  0  0  0  0  0  0  0  0  0  0  0
  -24.4902  -28.7743   22.5148 C   0  0  0  0  0  0  0  0  0  0  0  0
  -25.0789  -31.3103   21.1122 C   0  0  0  0  0  0  0  0  0  0  0  0
  -18.5319  -30.4690   23.2475 C   0  0  0  0  0  0  0  0  0  0  0  0
  -23.5349  -23.1482   21.8842 C   0  0  0  0  0  0  0  0  0  0  0  0
  -19.1659  -30.4244   21.8608 C   0  0  0  0  0  0  0  0  0  0  0  0
  -24.5057  -21.9852   21.6721 C   0  0  0  0  0  0  0  0  0  0  0  0
  -22.2539  -22.9693   21.0723 C   0  0  0  0  0  0  0  0  0  0  0  0
  -23.4326  -21.5726   19.4189 C   0  0  0  0  0  0  0  0  0  0  0  0
  -20.0244  -29.1657   21.6870 C   0  0  1  0  0  0  0  0  0  0  0  0
  -23.5981  -30.0024   22.6676 C   0  0  1  0  0  0  0  0  0  0  0  0
  -24.7629  -21.7356   20.1738 C   0  0  2  0  0  0  0  0  0  0  0  0
  -28.0037  -36.0946   24.5328 C   0  0  0  0  0  0  0  0  0  0  0  0
  -22.4831  -34.2895   21.3492 C   0  0  0  0  0  0  0  0  0  0  0  0
  -24.1864  -36.0521   21.8592 C   0  0  0  0  0  0  0  0  0  0  0  0
  -22.7987  -35.0924   23.6966 C   0  0  0  0  0  0  0  0  0  0  0  0
  -29.0444  -32.4354   24.5922 C   0  0  0  0  0  0  0  0  0  0  0  0
  -21.9236  -24.1125   16.2610 C   0  0  0  0  0  0  0  0  0  0  0  0
  -27.6395  -29.2913   15.4065 C   0  0  0  0  0  0  0  0  0  0  0  0
  -26.8259  -28.0659   15.0210 C   0  0  0  0  0  0  0  0  0  0  0  0
  -27.2969  -29.7853   16.8033 C   0  0  0  0  0  0  0  0  0  1  0  0
  -24.6249  -33.6857   22.6584 C   0  0  1  0  0  0  0  0  0  0  0  0
  -27.7819  -34.5902   24.5519 C   0  0  2  0  0  0  0  0  0  0  0  0
  -23.5312  -34.7550   22.3797 C   0  0  0  0  0  0  0  0  0  0  0  0
  -25.1599  -19.3347   19.7733 N   0  0  0  0  0  0  0  0  0  0  0  0
  -25.6915  -20.5556   19.9543 N   0  0  0  0  0  0  0  0  0  0  0  0
  -24.2977  -31.2512   22.3587 N   0  0  0  0  0  0  0  0  0  0  0  0
  -22.5675  -22.7380   19.6602 N   0  0  0  0  0  0  0  0  0  0  0  0
  -27.7507  -21.7198   20.0780 N   0  0  0  0  0  0  0  0  0  0  0  0
  -29.0126  -17.4453   19.3483 N   0  0  0  0  0  0  0  0  0  0  0  0
  -21.2952  -29.3236   22.3610 N   0  0  0  0  0  0  0  0  0  0  0  0
  -25.6156  -34.0889   23.6506 N   0  0  0  0  0  0  0  0  0  0  0  0
  -22.3873  -23.3132   17.3732 N   0  0  0  0  0  0  0  0  0  0  0  0
  -29.1124  -33.9189   24.5514 N   0  3  0  0  0  0  0  0  0  0  0  0
  -29.7773  -19.5806   19.6865 O   0  0  0  0  0  0  0  0  0  0  0  0
  -22.4294  -30.4449   20.6643 O   0  0  0  0  0  0  0  0  0  0  0  0
  -23.3931  -32.3652   24.1963 O   0  0  0  0  0  0  0  0  0  0  0  0
  -27.4653  -33.8588   22.2710 O   0  0  0  0  0  0  0  0  0  0  0  0
  -21.3055  -24.5561   18.9675 O   0  0  0  0  0  0  0  0  0  0  0  0
  -25.6207  -13.0676   18.7436 O   0  0  0  0  0  0  0  0  0  0  0  0
  -25.4391  -28.3735   15.0671 O   0  0  0  0  0  0  0  0  0  0  0  0
  -27.5686  -28.7613   17.7593 O   0  0  0  0  0  0  0  0  0  1  0  0
  -28.8797   -9.6412   21.5795 F   0  0  0  0  0  0  0  0  0  0  0  0
  -24.5467  -11.1742   20.4480 F   0  0  0  0  0  0  0  0  0  0  0  0
  1  2  1  0  0  0  0
  1  5  2  0  0  0  0
  2  6  2  0  0  0  0
  3 10  2  0  0  0  0
  3 19  1  0  0  0  0
  4 11  1  0  0  0  0
  4 19  2  0  0  0  0
  5 21  1  0  0  0  0
  6 23  1  0  0  0  0
  7 12  2  0  0  0  0
  7 22  1  0  0  0  0
  8 13  2  0  0  0  0
  8 25  1  0  0  0  0
  9 14  1  0  0  0  0
  9 25  2  0  0  0  0
 10 26  1  0  0  0  0
 11 26  2  0  0  0  0
 12 28  1  0  0  0  0
 13 27  1  0  0  0  0
 14 27  2  0  0  0  0
 15 16  2  0  0  0  0
 15 29  1  0  0  0  0
 16 30  1  0  0  0  0
 17 24  1  0  0  0  0
 17 28  2  0  0  0  0
 18 30  2  0  0  0  0
 18 31  1  0  0  0  0
 19 32  1  0  0  0  0
 20 32  1  0  0  0  0
 20 33  2  0  0  0  0
 20 34  1  0  0  0  0
 21 23  2  0  0  0  0
 21 39  1  0  0  0  0
 22 24  2  0  0  0  0
 22 40  1  0  0  0  0
 23 48  1  0  0  0  0
 24 41  1  0  0  0  0
 25 56  1  0  0  0  0
 26 78  1  0  0  0  0
 27 79  1  0  0  0  0
 28 80  1  0  0  0  0
 29 31  2  0  0  0  0
 29 78  1  0  0  0  0
 30 81  1  0  0  0  0
 31 82  1  0  0  0  0
 32 63  2  0  0  0  0
 33 64  1  0  0  0  0
 33 67  1  0  0  0  0
 34 68  1  0  0  0  0
 34 73  2  0  0  0  0
 35 49  1  0  0  0  0
 35 69  1  0  0  0  0
 35 74  2  0  0  0  0
 36 60  1  0  0  0  0
 36 65  1  0  0  0  0
 36 75  2  0  0  0  0
 37 61  1  0  0  0  0
 37 70  1  0  0  0  0
 37 76  2  0  0  0  0
 38 66  1  0  0  0  0
 38 71  1  0  0  0  0
 38 77  2  0  0  0  0
 39 42  1  0  0  0  0
 40 49  1  0  0  0  0
 41 65  1  0  0  0  0
 42 44  1  0  0  0  0
 43 45  1  0  0  0  0
 43 46  1  0  0  0  0
 44 48  1  0  0  0  0
 45 50  1  0  0  0  0
 46 66  1  0  0  0  0
 47 50  1  0  0  0  0
 47 66  1  0  0  0  0
 48 69  1  0  0  0  0
 49 65  1  0  0  0  0
 50 64  1  0  0  0  0
 51 61  1  0  0  0  0
 52 62  1  0  0  0  0
 53 62  1  0  0  0  0
 54 62  1  0  0  0  0
 55 72  1  0  0  0  0
 56 71  1  0  0  0  0
 57 58  1  0  0  0  0
 57 59  1  0  0  0  0
 58 79  1  0  0  0  0
 59 80  1  0  0  0  0
 60 62  1  0  0  0  0
 60 70  1  0  0  0  0
 61 72  1  0  0  0  0
 63 64  1  0  0  0  0
M  CHG  1  72   1
M  ISO  4  38 100  59 101  71 100  80 101
M  END
> <Batch ID>
0012

> <Smiles>
CNC(C)C(=O)NC(C(=O)N1Cc2cc([101O:1][101CH2:1]CCOc3ccc(C[100NH:0][100C:0](=O)N4CCCC(n5nc(-c6ccc(Oc7ccc(F)cc7F)cc6)c(C(N)=O)c5N)C4)cc3)ccc2CC1C(=O)NC1CCCc2ccccc21)C(C)(C)C

> <Shape>
0.230

> <Color>
0.098

> <Negative vol penalty>
0.000

$$$$

  -OEChem-04042320463D

 83 91  0     1  0  0  0  0  0999 V2000
  -30.2668  -19.4828   17.7846 C   0  0  0  0  0  0  0  0  0  0  0  0
  -30.5285  -18.8199   18.9783 C   0  0  0  0  0  0  0  0  0  0  0  0
  -26.6004  -28.3532   19.1491 C   0  0  0  0  0  0  0  0  0  0  0  0
  -26.0477  -26.3658   20.4069 C   0  0  0  0  0  0  0  0  0  0  0  0
  -29.2049  -20.3817   17.7093 C   0  0  0  0  0  0  0  0  0  0  0  0
  -29.7212  -19.0465   20.0936 C   0  0  0  0  0  0  0  0  0  0  0  0
  -22.8101  -17.1399   22.8967 C   0  0  0  0  0  0  0  0  0  0  0  0
  -22.4902  -19.6601   15.2938 C   0  0  0  0  0  0  0  0  0  0  0  0
  -23.7235  -18.7510   17.1619 C   0  0  0  0  0  0  0  0  0  0  0  0
  -21.2944  -19.4467   15.9794 C   0  0  0  0  0  0  0  0  0  0  0  0
  -22.5276  -18.5378   17.8476 C   0  0  0  0  0  0  0  0  0  0  0  0
  -25.8625  -29.1259   20.0457 C   0  0  0  0  0  0  0  0  0  0  0  0
  -25.3098  -27.1386   21.3036 C   0  0  0  0  0  0  0  0  0  0  0  0
  -21.6251  -16.8901   22.2059 C   0  0  0  0  0  0  0  0  0  0  0  0
  -26.2745  -30.4252   23.1400 C   0  0  0  0  0  0  0  0  0  0  0  0
  -26.8459  -31.6138   23.5944 C   0  0  0  0  0  0  0  0  0  0  0  0
  -22.8542  -15.6093   20.5725 C   0  0  0  0  0  0  0  0  0  0  0  0
  -24.9956  -32.8586   22.6648 C   0  0  0  0  0  0  0  0  0  0  0  0
  -26.6930  -26.9731   19.3297 C   0  0  0  0  0  0  0  0  0  0  0  0
  -28.8212  -25.8469   18.4871 C   0  0  0  0  0  0  0  0  0  0  0  0
  -28.3923  -20.6282   18.8282 C   0  0  0  0  0  0  0  0  0  0  0  0
  -24.0297  -16.6345   22.4238 C   0  0  0  0  0  0  0  0  0  0  0  0
  -28.6300  -19.9319   20.0308 C   0  0  0  0  0  0  0  0  0  0  0  0
  -24.0529  -15.8519   21.2606 C   0  0  0  0  0  0  0  0  0  0  0  0
  -23.7047  -19.3122   15.8850 C   0  0  0  0  0  0  0  0  0  0  0  0
  -21.3131  -18.8856   17.2563 C   0  0  0  0  0  0  0  0  0  0  0  0
  -25.2172  -28.5187   21.1230 C   0  0  0  0  0  0  0  0  0  0  0  0
  -21.6474  -16.1271   21.0421 C   0  0  0  0  0  0  0  0  0  0  0  0
  -25.0637  -30.4533   22.4480 C   0  0  0  0  0  0  0  0  0  0  0  0
  -26.2064  -32.8305   23.3568 C   0  0  0  0  0  0  0  0  0  0  0  0
  -24.4242  -31.6700   22.2104 C   0  0  0  0  0  0  0  0  0  0  0  0
  -27.4546  -26.1742   18.4035 C   0  0  0  0  0  0  0  0  0  0  0  0
  -29.0584  -25.0762   17.3753 C   0  0  0  0  0  0  0  0  0  0  0  0
  -29.7897  -26.2073   19.4811 C   0  0  0  0  0  0  0  0  0  0  0  0
  -26.7547  -17.9264   21.4194 C   0  0  0  0  0  0  0  0  0  0  0  0
  -27.7394  -14.8365   21.3455 C   0  0  0  0  0  0  0  0  0  0  0  0
  -26.9061  -11.5347   21.1202 C   0  0  0  0  0  0  0  0  0  0  0  0
  -25.5301  -21.6479   13.9623 C   0  0  0  0  0  0  0  0  0  0  0  0
  -27.2516  -21.6052   18.6888 C   0  0  0  0  0  0  0  0  0  0  0  0
  -25.2953  -16.8905   23.1951 C   0  0  0  0  0  0  0  0  0  0  0  0
  -25.3333  -15.2693   20.7222 C   0  0  0  0  0  0  0  0  0  0  0  0
  -26.7336  -22.1098   20.0317 C   0  0  0  0  0  0  0  0  0  0  0  0
  -27.5258  -24.3961   12.8942 C   0  0  0  0  0  0  0  0  0  0  0  0
  -26.4803  -20.9358   20.9655 C   0  0  0  0  0  0  0  0  0  0  0  0
  -27.8572  -25.1339   14.1926 C   0  0  0  0  0  0  0  0  0  0  0  0
  -26.1128  -23.8176   12.9187 C   0  0  0  0  0  0  0  0  0  0  0  0
  -26.1456  -23.6990   15.3801 C   0  0  0  0  0  0  0  0  0  0  0  0
  -27.7842  -20.1854   21.2655 C   0  0  1  0  0  0  0  0  0  0  0  0
  -26.5526  -16.7573   22.3414 C   0  0  1  0  0  0  0  0  0  0  0  0
  -27.5803  -24.2521   15.4250 C   0  0  2  0  0  0  0  0  0  0  0  0
  -27.9304   -9.2450   21.0489 C   0  0  0  0  0  0  0  0  0  0  0  0
  -28.5729  -15.3023   18.4475 C   0  0  0  0  0  0  0  0  0  0  0  0
  -28.6853  -12.8185   18.1538 C   0  0  0  0  0  0  0  0  0  0  0  0
  -30.1886  -13.9480   19.7930 C   0  0  0  0  0  0  0  0  0  0  0  0
  -25.5070  -10.7052   23.5928 C   0  0  0  0  0  0  0  0  0  0  0  0
  -19.0667  -16.7664   16.6896 C   0  0  0  0  0  0  0  0  0  0  0  0
  -24.9837  -19.5399   15.1526 C   0  0  0  0  0  0  0  0  0  0  0  0
  -20.0265  -18.6581   17.9938 C   0  0  0  0  0  0  0  0  0  0  0  0
  -18.6880  -16.9035   19.1472 C   0  0  0  0  0  0  0  0  0  0  0  0
  -19.4700  -16.8748   20.4456 C   0  0  0  0  0  0  0  0  0  1  0  0
  -27.7240  -13.7339   20.3145 C   0  0  1  0  0  0  0  0  0  0  0  0
  -27.3375  -10.3291   21.9354 C   0  0  2  0  0  0  0  0  0  0  0  0
  -28.7687  -13.9631   19.1860 C   0  0  0  0  0  0  0  0  0  0  0  0
  -26.8650  -25.6542   17.3237 N   0  0  0  0  0  0  0  0  0  0  0  0
  -27.8659  -24.9923   16.7186 N   0  0  0  0  0  0  0  0  0  0  0  0
  -26.5453  -15.5529   21.5085 N   0  0  0  0  0  0  0  0  0  0  0  0
  -25.9158  -22.9903   14.1114 N   0  0  0  0  0  0  0  0  0  0  0  0
  -30.1685  -24.4689   16.9050 N   0  0  0  0  0  0  0  0  0  0  0  0
  -29.3774  -27.0043   20.5577 N   0  0  0  0  0  0  0  0  0  0  0  0
  -27.4737  -18.9658   21.9781 N   0  0  0  0  0  0  0  0  0  0  0  0
  -27.9018  -12.4859   21.0488 N   0  0  0  0  0  0  0  0  0  0  0  0
  -25.3714  -20.9328   15.1431 N   0  0  0  0  0  0  0  0  0  0  0  0
  -26.1727   -9.7540   22.6659 N   0  3  0  0  0  0  0  0  0  0  0  0
  -19.6117  -17.2079   18.0254 N   0  3  1  0  0  0  0  0  0  0  0  0
  -30.9891  -25.8472   19.4078 O   0  0  0  0  0  0  0  0  0  0  0  0
  -26.2938  -17.8876   20.2846 O   0  0  0  0  0  0  0  0  0  0  0  0
  -28.7708  -15.0494   21.9879 O   0  0  0  0  0  0  0  0  0  0  0  0
  -25.7980  -11.6223   20.5958 O   0  0  0  0  0  0  0  0  0  0  0  0
  -25.3463  -21.1238   12.8584 O   0  0  0  0  0  0  0  0  0  0  0  0
  -24.4973  -29.2724   21.9982 O   0  0  0  0  0  0  0  0  0  0  0  0
  -20.4923  -15.8824   20.3655 O   0  0  0  0  0  0  0  0  0  1  0  0
  -26.7545  -33.9716   23.7945 F   0  0  0  0  0  0  0  0  0  0  0  0
  -23.2603  -31.7033   21.5472 F   0  0  0  0  0  0  0  0  0  0  0  0
  1  2  1  0  0  0  0
  1  5  2  0  0  0  0
  2  6  2  0  0  0  0
  3 12  2  0  0  0  0
  3 19  1  0  0  0  0
  4 13  1  0  0  0  0
  4 19  2  0  0  0  0
  5 21  1  0  0  0  0
  6 23  1  0  0  0  0
  7 14  2  0  0  0  0
  7 22  1  0  0  0  0
  8 10  2  0  0  0  0
  8 25  1  0  0  0  0
  9 11  1  0  0  0  0
  9 25  2  0  0  0  0
 10 26  1  0  0  0  0
 11 26  2  0  0  0  0
 12 27  1  0  0  0  0
 13 27  2  0  0  0  0
 14 28  1  0  0  0  0
 15 16  2  0  0  0  0
 15 29  1  0  0  0  0
 16 30  1  0  0  0  0
 17 24  1  0  0  0  0
 17 28  2  0  0  0  0
 18 30  2  0  0  0  0
 18 31  1  0  0  0  0
 19 32  1  0  0  0  0
 20 32  1  0  0  0  0
 20 33  2  0  0  0  0
 20 34  1  0  0  0  0
 21 23  2  0  0  0  0
 21 39  1  0  0  0  0
 22 24  2  0  0  0  0
 22 40  1  0  0  0  0
 23 48  1  0  0  0  0
 24 41  1  0  0  0  0
 25 57  1  0  0  0  0
 26 58  1  0  0  0  0
 27 80  1  0  0  0  0
 28 81  1  0  0  0  0
 29 31  2  0  0  0  0
 29 80  1  0  0  0  0
 30 82  1  0  0  0  0
 31 83  1  0  0  0  0
 32 64  2  0  0  0  0
 33 65  1  0  0  0  0
 33 68  1  0  0  0  0
 34 69  1  0  0  0  0
 34 75  2  0  0  0  0
 35 49  1  0  0  0  0
 35 70  1  0  0  0  0
 35 76  2  0  0  0  0
 36 61  1  0  0  0  0
 36 66  1  0  0  0  0
 36 77  2  0  0  0  0
 37 62  1  0  0  0  0
 37 71  1  0  0  0  0
 37 78  2  0  0  0  0
 38 67  1  0  0  0  0
 38 72  1  0  0  0  0
 38 79  2  0  0  0  0
 39 42  1  0  0  0  0
 40 49  1  0  0  0  0
 41 66  1  0  0  0  0
 42 44  1  0  0  0  0
 43 45  1  0  0  0  0
 43 46  1  0  0  0  0
 44 48  1  0  0  0  0
 45 50  1  0  0  0  0
 46 67  1  0  0  0  0
 47 50  1  0  0  0  0
 47 67  1  0  0  0  0
 48 70  1  0  0  0  0
 49 66  1  0  0  0  0
 50 65  1  0  0  0  0
 51 62  1  0  0  0  0
 52 63  1  0  0  0  0
 53 63  1  0  0  0  0
 54 63  1  0  0  0  0
 55 73  1  0  0  0  0
 56 74  1  0  0  0  0
 57 72  1  0  0  0  0
 58 74  1  0  0  0  0
 59 60  1  0  0  0  0
 59 74  1  0  0  0  0
 60 81  1  0  0  0  0
 61 63  1  0  0  0  0
 61 71  1  0  0  0  0
 62 73  1  0  0  0  0
 64 65  1  0  0  0  0
M  CHG  2  73   1  74   1
M  ISO  4  38 100  60 101  72 100  81 101
M  END
> <Batch ID>
0012

> <Smiles>
CNC(C)C(=O)NC(C(=O)N1Cc2cc([101O:1][101CH2:1]CN(C)Cc3ccc(C[100NH:0][100C:0](=O)N4CCCC(n5nc(-c6ccc(Oc7ccc(F)cc7F)cc6)c(C(N)=O)c5N)C4)cc3)ccc2CC1C(=O)NC1CCCc2ccccc21)C(C)(C)C

> <Shape>
0.202

> <Color>
0.047

> <Negative vol penalty>
0.000

$$$$

  -OEChem-04042320463D

 83 91  0     1  0  0  0  0  0999 V2000
  -27.7651  -24.0178   17.1536 C   0  0  0  0  0  0  0  0  0  0  0  0
  -26.5732  -24.3487   17.7902 C   0  0  0  0  0  0  0  0  0  0  0  0
  -26.5603  -16.8264   21.9762 C   0  0  0  0  0  0  0  0  0  0  0  0
  -24.3440  -15.8908   21.7535 C   0  0  0  0  0  0  0  0  0  0  0  0
  -28.9806  -24.4456   17.6860 C   0  0  0  0  0  0  0  0  0  0  0  0
  -26.5962  -25.1067   18.9604 C   0  0  0  0  0  0  0  0  0  0  0  0
  -23.1238  -28.7928   18.9558 C   0  0  0  0  0  0  0  0  0  0  0  0
  -21.9970  -24.3896   24.8881 C   0  0  0  0  0  0  0  0  0  0  0  0
  -27.1147  -15.5654   21.7565 C   0  0  0  0  0  0  0  0  0  0  0  0
  -24.8983  -14.6298   21.5338 C   0  0  0  0  0  0  0  0  0  0  0  0
  -21.8063  -28.4268   19.2274 C   0  0  0  0  0  0  0  0  0  0  0  0
  -20.9262  -24.4746   23.9984 C   0  0  0  0  0  0  0  0  0  0  0  0
  -27.7437  -13.5462   19.1183 C   0  0  0  0  0  0  0  0  0  0  0  0
  -28.8205  -13.4563   18.2363 C   0  0  0  0  0  0  0  0  0  0  0  0
  -22.0709  -29.1851   21.5021 C   0  0  0  0  0  0  0  0  0  0  0  0
  -23.5084  -25.0835   23.1357 C   0  0  0  0  0  0  0  0  0  0  0  0
  -30.1994  -12.5687   20.0106 C   0  0  0  0  0  0  0  0  0  0  0  0
  -25.1749  -16.9891   21.9748 C   0  0  0  0  0  0  0  0  0  0  0  0
  -24.2885  -19.2633   21.2333 C   0  0  0  0  0  0  0  0  0  0  0  0
  -29.0180  -25.2174   18.8580 C   0  0  0  0  0  0  0  0  0  0  0  0
  -23.9296  -29.3487   19.9599 C   0  0  0  0  0  0  0  0  0  0  0  0
  -27.8134  -25.5441   19.5097 C   0  0  0  0  0  0  0  0  0  0  0  0
  -23.3976  -29.5597   21.2400 C   0  0  0  0  0  0  0  0  0  0  0  0
  -23.2882  -24.6941   24.4568 C   0  0  0  0  0  0  0  0  0  0  0  0
  -26.2837  -14.4672   21.5352 C   0  0  0  0  0  0  0  0  0  0  0  0
  -21.2805  -28.6202   20.5015 C   0  0  0  0  0  0  0  0  0  0  0  0
  -27.8946  -13.1475   20.4464 C   0  0  0  0  0  0  0  0  0  0  0  0
  -21.1465  -24.8641   22.6772 C   0  0  0  0  0  0  0  0  0  0  0  0
  -30.0484  -12.9675   18.6825 C   0  0  0  0  0  0  0  0  0  0  0  0
  -22.4376  -25.1685   22.2458 C   0  0  0  0  0  0  0  0  0  0  0  0
  -29.1225  -12.6587   20.8925 C   0  0  0  0  0  0  0  0  0  0  0  0
  -24.6017  -18.2913   22.2022 C   0  0  0  0  0  0  0  0  0  0  0  0
  -23.7723  -20.3125   21.9538 C   0  0  0  0  0  0  0  0  0  0  0  0
  -24.4496  -19.2215   19.8092 C   0  0  0  0  0  0  0  0  0  0  0  0
  -26.6327  -28.4933   21.3969 C   0  0  0  0  0  0  0  0  0  0  0  0
  -26.3666  -31.4161   22.7785 C   0  0  0  0  0  0  0  0  0  0  0  0
  -24.3491  -34.0019   23.7218 C   0  0  0  0  0  0  0  0  0  0  0  0
  -24.4327  -23.7036   26.4568 C   0  0  0  0  0  0  0  0  0  0  0  0
  -30.3586  -25.6168   19.4217 C   0  0  0  0  0  0  0  0  0  0  0  0
  -25.3405  -29.7630   19.6436 C   0  0  0  0  0  0  0  0  0  0  0  0
  -24.2147  -30.1715   22.3474 C   0  0  0  0  0  0  0  0  0  0  0  0
  -30.2749  -26.7334   20.4592 C   0  0  0  0  0  0  0  0  0  0  0  0
  -22.3590  -20.6566   26.7860 C   0  0  0  0  0  0  0  0  0  0  0  0
  -29.1615  -26.4480   21.4621 C   0  0  0  0  0  0  0  0  0  0  0  0
  -22.7978  -19.8165   25.5881 C   0  0  0  0  0  0  0  0  0  0  0  0
  -23.4763  -21.5736   27.2744 C   0  0  0  0  0  0  0  0  0  0  0  0
  -24.4702  -21.6177   25.0047 C   0  0  0  0  0  0  0  0  0  0  0  0
  -27.7959  -26.3858   20.7673 C   0  0  1  0  0  0  0  0  0  0  0  0
  -26.2304  -29.8455   20.8800 C   0  0  1  0  0  0  0  0  0  0  0  0
  -23.3492  -20.7147   24.4686 C   0  0  1  0  0  0  0  0  0  0  0  0
  -24.4136  -36.2355   24.8637 C   0  0  0  0  0  0  0  0  0  0  0  0
  -26.6291  -30.0242   25.4810 C   0  0  0  0  0  0  0  0  0  0  0  0
  -25.7496  -32.1052   26.5599 C   0  0  0  0  0  0  0  0  0  0  0  0
  -27.8939  -32.1729   25.2871 C   0  0  0  0  0  0  0  0  0  0  0  0
  -25.3993  -25.6676   25.3433 C   0  0  0  0  0  0  0  0  0  0  0  0
  -23.3460  -35.3936   21.3102 C   0  0  0  0  0  0  0  0  0  0  0  0
  -18.4349  -26.4255   20.8739 C   0  0  0  0  0  0  0  0  0  0  0  0
  -19.4568  -27.1690   20.0282 C   0  0  0  0  0  0  0  0  0  1  0  0
  -19.0521  -25.8550   22.1411 C   0  0  0  0  0  0  0  0  0  0  0  0
  -25.7121  -31.9519   24.0289 C   0  0  1  0  0  0  0  0  0  0  0  0
  -24.4801  -35.5024   23.5330 C   0  0  2  0  0  0  0  0  0  0  0  0
  -26.4811  -31.5502   25.3191 C   0  0  0  0  0  0  0  0  0  0  0  0
  -24.3091  -18.6878   23.4437 N   0  0  0  0  0  0  0  0  0  0  0  0
  -23.8067  -19.9206   23.2597 N   0  0  0  0  0  0  0  0  0  0  0  0
  -25.5908  -30.5542   21.9904 N   0  0  0  0  0  0  0  0  0  0  0  0
  -24.0322  -22.3791   26.1859 N   0  0  0  0  0  0  0  0  0  0  0  0
  -23.2970  -21.5229   21.5914 N   0  0  0  0  0  0  0  0  0  0  0  0
  -24.9958  -18.0668   19.2322 N   0  0  0  0  0  0  0  0  0  0  0  0
  -27.3151  -27.7197   20.4774 N   0  0  0  0  0  0  0  0  0  0  0  0
  -25.5805  -33.3920   23.8356 N   0  0  0  0  0  0  0  0  0  0  0  0
  -24.3956  -24.6062   25.3769 N   0  0  0  0  0  0  0  0  0  0  0  0
  -23.3849  -36.0123   22.6603 N   0  3  0  0  0  0  0  0  0  0  0  0
  -24.1344  -20.1860   19.0718 O   0  0  0  0  0  0  0  0  0  0  0  0
  -26.3466  -28.1759   22.5454 O   0  0  0  0  0  0  0  0  0  0  0  0
  -27.5211  -31.7555   22.5072 O   0  0  0  0  0  0  0  0  0  0  0  0
  -23.2629  -33.4286   23.7678 O   0  0  0  0  0  0  0  0  0  0  0  0
  -24.8484  -24.0467   27.5704 O   0  0  0  0  0  0  0  0  0  0  0  0
  -26.8243  -13.2366   21.3205 O   0  0  0  0  0  0  0  0  0  0  0  0
  -19.9950  -28.2631   20.7695 O   0  0  0  0  0  0  0  0  0  1  0  0
  -20.0930  -24.9477   21.8044 O   0  0  0  0  0  0  0  0  0  0  0  0
  -31.0820  -12.8797   17.8351 F   0  0  0  0  0  0  0  0  0  0  0  0
  -22.6553  -25.5444   20.9781 F   0  0  0  0  0  0  0  0  0  0  0  0
  -29.2733  -12.2729   22.1670 F   0  0  0  0  0  0  0  0  0  0  0  0
  1  2  1  0  0  0  0
  1  5  2  0  0  0  0
  2  6  2  0  0  0  0
  3  9  2  0  0  0  0
  3 18  1  0  0  0  0
  4 10  1  0  0  0  0
  4 18  2  0  0  0  0
  5 20  1  0  0  0  0
  6 22  1  0  0  0  0
  7 11  2  0  0  0  0
  7 21  1  0  0  0  0
  8 12  2  0  0  0  0
  8 24  1  0  0  0  0
  9 25  1  0  0  0  0
 10 25  2  0  0  0  0
 11 26  1  0  0  0  0
 12 28  1  0  0  0  0
 13 14  2  0  0  0  0
 13 27  1  0  0  0  0
 14 29  1  0  0  0  0
 15 23  1  0  0  0  0
 15 26  2  0  0  0  0
 16 24  2  0  0  0  0
 16 30  1  0  0  0  0
 17 29  2  0  0  0  0
 17 31  1  0  0  0  0
 18 32  1  0  0  0  0
 19 32  1  0  0  0  0
 19 33  2  0  0  0  0
 19 34  1  0  0  0  0
 20 22  2  0  0  0  0
 20 39  1  0  0  0  0
 21 23  2  0  0  0  0
 21 40  1  0  0  0  0
 22 48  1  0  0  0  0
 23 41  1  0  0  0  0
 24 71  1  0  0  0  0
 25 78  1  0  0  0  0
 26 79  1  0  0  0  0
 27 31  2  0  0  0  0
 27 78  1  0  0  0  0
 28 30  2  0  0  0  0
 28 80  1  0  0  0  0
 29 81  1  0  0  0  0
 30 82  1  0  0  0  0
 31 83  1  0  0  0  0
 32 63  2  0  0  0  0
 33 64  1  0  0  0  0
 33 67  1  0  0  0  0
 34 68  1  0  0  0  0
 34 73  2  0  0  0  0
 35 49  1  0  0  0  0
 35 69  1  0  0  0  0
 35 74  2  0  0  0  0
 36 60  1  0  0  0  0
 36 65  1  0  0  0  0
 36 75  2  0  0  0  0
 37 61  1  0  0  0  0
 37 70  1  0  0  0  0
 37 76  2  0  0  0  0
 38 66  1  0  0  0  0
 38 71  1  0  0  0  0
 38 77  2  0  0  0  0
 39 42  1  0  0  0  0
 40 49  1  0  0  0  0
 41 65  1  0  0  0  0
 42 44  1  0  0  0  0
 43 45  1  0  0  0  0
 43 46  1  0  0  0  0
 44 48  1  0  0  0  0
 45 50  1  0  0  0  0
 46 66  1  0  0  0  0
 47 50  1  0  0  0  0
 47 66  1  0  0  0  0
 48 69  1  0  0  0  0
 49 65  1  0  0  0  0
 50 64  1  0  0  0  0
 51 61  1  0  0  0  0
 52 62  1  0  0  0  0
 53 62  1  0  0  0  0
 54 62  1  0  0  0  0
 55 71  1  0  0  0  0
 56 72  1  0  0  0  0
 57 58  1  0  0  0  0
 57 59  1  0  0  0  0
 58 79  1  0  0  0  0
 59 80  1  0  0  0  0
 60 62  1  0  0  0  0
 60 70  1  0  0  0  0
 61 72  1  0  0  0  0
 63 64  1  0  0  0  0
M  CHG  1  72   1
M  ISO  4  38 100  58 101  71 100  79 101
M  END
> <Batch ID>
0012

> <Smiles>
CNC(C)C(=O)NC(C(=O)N1Cc2cc([101O:1][101CH2:1]CCOc3ccc([100N:0](C)[100C:0](=O)N4CCCC(n5nc(-c6ccc(Oc7ccc(F)cc7F)cc6)c(C(N)=O)c5N)C4)cc3F)ccc2CC1C(=O)NC1CCCc2ccccc21)C(C)(C)C

> <Shape>
0.259

> <Color>
0.073

> <Negative vol penalty>
0.000

$$$$

  -OEChem-04042320463D

 84 93  0     1  0  0  0  0  0999 V2000
  -29.4527  -35.7404   25.2007 C   0  0  0  0  0  0  0  0  0  0  0  0
  -29.7551  -34.9841   24.0730 C   0  0  0  0  0  0  0  0  0  0  0  0
  -24.2575   -9.1703   21.5925 C   0  0  0  0  0  0  0  0  0  0  0  0
  -24.1986  -10.8178   23.3586 C   0  0  0  0  0  0  0  0  0  0  0  0
  -28.6420  -35.2052   26.2008 C   0  0  0  0  0  0  0  0  0  0  0  0
  -29.2478  -33.6915   23.9451 C   0  0  0  0  0  0  0  0  0  0  0  0
  -26.9724  -29.0525   18.9834 C   0  0  0  0  0  0  0  0  0  0  0  0
  -28.9195  -18.3855   22.1515 C   0  0  0  0  0  0  0  0  0  0  0  0
  -31.0556  -18.5922   21.0420 C   0  0  0  0  0  0  0  0  0  0  0  0
  -28.5142  -19.5998   21.5977 C   0  0  0  0  0  0  0  0  0  0  0  0
  -30.6504  -19.8065   20.4880 C   0  0  0  0  0  0  0  0  0  0  0  0
  -23.8273   -8.1930   22.4898 C   0  0  0  0  0  0  0  0  0  0  0  0
  -23.7684   -9.8404   24.2560 C   0  0  0  0  0  0  0  0  0  0  0  0
  -27.1806  -27.7408   18.5593 C   0  0  0  0  0  0  0  0  0  0  0  0
  -20.9160   -7.2234   23.9102 C   0  0  0  0  0  0  0  0  0  0  0  0
  -19.9055   -6.3582   23.4910 C   0  0  0  0  0  0  0  0  0  0  0  0
  -25.7258  -26.9493   20.3133 C   0  0  0  0  0  0  0  0  0  0  0  0
  -21.3842   -4.4749   23.8132 C   0  0  0  0  0  0  0  0  0  0  0  0
  -24.4432  -10.4828   22.0269 C   0  0  0  0  0  0  0  0  0  0  0  0
  -24.0836  -12.3242   20.2984 C   0  0  0  0  0  0  0  0  0  0  0  0
  -28.1165  -33.9090   26.0807 C   0  0  0  0  0  0  0  0  0  0  0  0
  -26.1466  -29.3221   20.0843 C   0  0  0  0  0  0  0  0  0  0  0  0
  -28.4303  -33.1379   24.9452 C   0  0  0  0  0  0  0  0  0  0  0  0
  -25.5068  -28.2655   20.7478 C   0  0  0  0  0  0  0  0  0  0  0  0
  -30.1902  -17.8817   21.8737 C   0  0  0  0  0  0  0  0  0  0  0  0
  -29.3797  -20.3103   20.7659 C   0  0  0  0  0  0  0  0  0  0  0  0
  -23.5828   -8.5280   23.8216 C   0  0  0  0  0  0  0  0  0  0  0  0
  -26.5595  -26.6887   19.2261 C   0  0  0  0  0  0  0  0  0  0  0  0
  -22.1608   -6.7144   24.2808 C   0  0  0  0  0  0  0  0  0  0  0  0
  -20.1395   -4.9839   23.4425 C   0  0  0  0  0  0  0  0  0  0  0  0
  -22.3948   -5.3401   24.2323 C   0  0  0  0  0  0  0  0  0  0  0  0
  -24.8880  -11.4928   21.1005 C   0  0  0  0  0  0  0  0  0  0  0  0
  -24.9782  -13.1015   19.6043 C   0  0  0  0  0  0  0  0  0  0  0  0
  -22.6553  -12.3882   20.1905 C   0  0  0  0  0  0  0  0  0  0  0  0
  -26.5789  -30.6457   22.9417 C   0  0  0  0  0  0  0  0  0  0  0  0
  -23.3566  -30.3317   23.1427 C   0  0  0  0  0  0  0  0  0  0  0  0
  -20.5329  -28.7176   22.1092 C   0  0  0  0  0  0  0  0  0  0  0  0
  -30.6039  -14.8239   20.7159 C   0  0  0  0  0  0  0  0  0  0  0  0
  -27.2835  -33.3559   27.2097 C   0  0  0  0  0  0  0  0  0  0  0  0
  -25.9111  -30.7446   20.5126 C   0  0  0  0  0  0  0  0  0  0  0  0
  -24.5947  -28.5031   21.9225 C   0  0  0  0  0  0  0  0  0  0  0  0
  -26.4798  -32.1169   26.8234 C   0  0  0  0  0  0  0  0  0  0  0  0
  -29.4356  -13.0362   17.8671 C   0  0  0  0  0  0  0  0  0  0  0  0
  -27.3570  -31.1271   26.0634 C   0  0  0  0  0  0  0  0  0  0  0  0
  -28.0651  -12.5129   18.3004 C   0  0  0  0  0  0  0  0  0  0  0  0
  -29.0610  -23.6517   19.2417 C   0  0  0  0  0  0  0  0  0  0  0  0
  -30.4350  -13.0246   19.0217 C   0  0  0  0  0  0  0  0  0  0  0  0
  -29.8115  -22.3249   19.3360 C   0  0  0  0  0  0  0  0  0  0  0  0
  -27.6733  -22.1231   20.4517 C   0  0  0  0  0  0  0  0  0  0  0  0
  -28.6130  -13.2020   20.6718 C   0  0  0  0  0  0  0  0  0  0  0  0
  -27.8787  -31.7411   24.7586 C   0  0  1  0  0  0  0  0  0  0  0  0
  -25.4585  -30.8642   21.9646 C   0  0  1  0  0  0  0  0  0  0  0  0
  -27.6010  -23.2386   19.4030 C   0  0  1  0  0  0  0  0  0  0  0  0
  -27.5558  -13.2470   19.5554 C   0  0  2  0  0  0  0  0  0  0  0  0
  -18.0517  -28.6558   22.4799 C   0  0  0  0  0  0  0  0  0  0  0  0
  -23.7898  -28.8628   25.7817 C   0  0  0  0  0  0  0  0  0  0  0  0
  -21.4391  -28.0171   25.6166 C   0  0  0  0  0  0  0  0  0  0  0  0
  -21.8721  -30.4681   25.7839 C   0  0  0  0  0  0  0  0  0  0  0  0
  -19.9771  -29.4215   19.2889 C   0  0  0  0  0  0  0  0  0  0  0  0
  -30.6245  -16.5837   22.4658 C   0  0  0  0  0  0  0  0  0  0  0  0
  -26.6950  -24.3874   19.8104 C   0  0  0  0  0  0  0  0  0  1  0  0
  -22.4156  -29.2574   23.6319 C   0  0  1  0  0  0  0  0  0  0  0  0
  -19.1839  -29.2413   21.6505 C   0  0  2  0  0  0  0  0  0  0  0  0
  -22.3978  -29.1464   25.1826 C   0  0  0  0  0  0  0  0  0  0  0  0
  -26.1934  -11.7204   20.9323 N   0  0  0  0  0  0  0  0  0  0  0  0
  -26.2160  -12.7037   20.0165 N   0  0  0  0  0  0  0  0  0  0  0  0
  -28.9788  -21.5097   20.2167 N   0  0  3  0  0  0  0  0  0  0  0  0
  -24.4011  -29.9110   22.3074 N   0  0  0  0  0  0  0  0  0  0  0  0
  -29.8918  -13.7383   20.1799 N   0  0  0  0  0  0  0  0  0  0  0  0
  -24.8190  -14.0796   18.6876 N   0  0  0  0  0  0  0  0  0  0  0  0
  -21.8863  -11.5182   20.9754 N   0  0  0  0  0  0  0  0  0  0  0  0
  -26.8427  -31.7364   23.7481 N   0  0  0  0  0  0  0  0  0  0  0  0
  -21.1156  -29.5525   23.0390 N   0  0  0  0  0  0  0  0  0  0  0  0
  -30.0156  -15.4486   21.8088 N   0  0  0  0  0  0  0  0  0  0  0  0
  -18.9504  -28.8892   20.2213 N   0  3  0  0  0  0  0  0  0  0  0  0
  -22.0785  -13.1817   19.4088 O   0  0  0  0  0  0  0  0  0  0  0  0
  -27.1599  -29.5670   22.9634 O   0  0  0  0  0  0  0  0  0  0  0  0
  -23.1675  -31.5022   23.4831 O   0  0  0  0  0  0  0  0  0  0  0  0
  -21.0192  -27.6704   21.6879 O   0  0  0  0  0  0  0  0  0  0  0  0
  -31.6814  -15.2114   20.2513 O   0  0  0  0  0  0  0  0  0  0  0  0
  -23.1628   -7.5746   24.6975 O   0  0  0  0  0  0  0  0  0  0  0  0
  -26.7615  -25.4074   18.8146 O   0  0  0  0  0  0  0  0  0  1  0  0
  -19.1684   -4.1531   23.0414 F   0  0  0  0  0  0  0  0  0  0  0  0
  -23.5881   -4.8451   24.5883 F   0  0  0  0  0  0  0  0  0  0  0  0
  1  2  1  0  0  0  0
  1  5  2  0  0  0  0
  2  6  2  0  0  0  0
  3 12  2  0  0  0  0
  3 19  1  0  0  0  0
  4 13  1  0  0  0  0
  4 19  2  0  0  0  0
  5 21  1  0  0  0  0
  6 23  1  0  0  0  0
  7 14  2  0  0  0  0
  7 22  1  0  0  0  0
  8 10  2  0  0  0  0
  8 25  1  0  0  0  0
  9 11  1  0  0  0  0
  9 25  2  0  0  0  0
 10 26  1  0  0  0  0
 11 26  2  0  0  0  0
 12 27  1  0  0  0  0
 13 27  2  0  0  0  0
 14 28  1  0  0  0  0
 15 16  2  0  0  0  0
 15 29  1  0  0  0  0
 16 30  1  0  0  0  0
 17 24  1  0  0  0  0
 17 28  2  0  0  0  0
 18 30  2  0  0  0  0
 18 31  1  0  0  0  0
 19 32  1  0  0  0  0
 20 32  1  0  0  0  0
 20 33  2  0  0  0  0
 20 34  1  0  0  0  0
 21 23  2  0  0  0  0
 21 39  1  0  0  0  0
 22 24  2  0  0  0  0
 22 40  1  0  0  0  0
 23 51  1  0  0  0  0
 24 41  1  0  0  0  0
 25 60  1  0  0  0  0
 26 67  1  0  0  0  0
 27 81  1  0  0  0  0
 28 82  1  0  0  0  0
 29 31  2  0  0  0  0
 29 81  1  0  0  0  0
 30 83  1  0  0  0  0
 31 84  1  0  0  0  0
 32 65  2  0  0  0  0
 33 66  1  0  0  0  0
 33 70  1  0  0  0  0
 34 71  1  0  0  0  0
 34 76  2  0  0  0  0
 35 52  1  0  0  0  0
 35 72  1  0  0  0  0
 35 77  2  0  0  0  0
 36 62  1  0  0  0  0
 36 68  1  0  0  0  0
 36 78  2  0  0  0  0
 37 63  1  0  0  0  0
 37 73  1  0  0  0  0
 37 79  2  0  0  0  0
 38 69  1  0  0  0  0
 38 74  1  0  0  0  0
 38 80  2  0  0  0  0
 39 42  1  0  0  0  0
 40 52  1  0  0  0  0
 41 68  1  0  0  0  0
 42 44  1  0  0  0  0
 43 45  1  0  0  0  0
 43 47  1  0  0  0  0
 44 51  1  0  0  0  0
 45 54  1  0  0  0  0
 46 48  1  0  0  0  0
 46 53  1  0  0  0  0
 47 69  1  0  0  0  0
 48 67  1  0  0  0  0
 49 53  1  0  0  0  0
 49 67  1  0  0  0  0
 50 54  1  0  0  0  0
 50 69  1  0  0  0  0
 51 72  1  0  0  0  0
 52 68  1  0  0  0  0
 53 61  1  0  0  0  0
 54 66  1  0  0  0  0
 55 63  1  0  0  0  0
 56 64  1  0  0  0  0
 57 64  1  0  0  0  0
 58 64  1  0  0  0  0
 59 75  1  0  0  0  0
 60 74  1  0  0  0  0
 61 82  1  0  0  0  0
 62 64  1  0  0  0  0
 62 73  1  0  0  0  0
 63 75  1  0  0  0  0
 65 66  1  0  0  0  0
M  CHG  1  75   1
M  ISO  4  38 100  61 101  74 100  82 101
M  END
> <Batch ID>
0012

> <Smiles>
CNC(C)C(=O)NC(C(=O)N1Cc2cc([101O:1][101CH2:1]C3CCN(c4ccc(C[100NH:0][100C:0](=O)N5CCCC(n6nc(-c7ccc(Oc8ccc(F)cc8F)cc7)c(C(N)=O)c6N)C5)cc4)C3)ccc2CC1C(=O)NC1CCCc2ccccc21)C(C)(C)C

> <Shape>
0.354

> <Color>
0.124

> <Negative vol penalty>
0.000

$$$$

  -OEChem-04042320463D

 81 89  0     1  0  0  0  0  0999 V2000
  -17.7155  -33.3419   18.0836 C   0  0  0  0  0  0  0  0  0  0  0  0
  -18.9138  -32.9824   17.4751 C   0  0  0  0  0  0  0  0  0  0  0  0
  -24.8012  -10.2786   22.6259 C   0  0  0  0  0  0  0  0  0  0  0  0
  -24.4888  -11.7693   24.5013 C   0  0  0  0  0  0  0  0  0  0  0  0
  -17.7254  -33.9232   19.3508 C   0  0  0  0  0  0  0  0  0  0  0  0
  -20.1229  -33.2051   18.1332 C   0  0  0  0  0  0  0  0  0  0  0  0
  -24.6112  -27.7615   19.5870 C   0  0  0  0  0  0  0  0  0  0  0  0
  -29.5131  -20.7821   21.9189 C   0  0  0  0  0  0  0  0  0  0  0  0
  -24.3855   -9.2034   23.4112 C   0  0  0  0  0  0  0  0  0  0  0  0
  -24.0729  -10.6941   25.2866 C   0  0  0  0  0  0  0  0  0  0  0  0
  -25.6185  -26.8047   19.7133 C   0  0  0  0  0  0  0  0  0  0  0  0
  -29.3851  -22.1504   22.1577 C   0  0  0  0  0  0  0  0  0  0  0  0
  -21.4645   -7.9153   24.5255 C   0  0  0  0  0  0  0  0  0  0  0  0
  -20.5567   -7.0164   23.9656 C   0  0  0  0  0  0  0  0  0  0  0  0
  -27.0248  -28.4182   20.8389 C   0  0  0  0  0  0  0  0  0  0  0  0
  -27.1423  -20.6374   21.4769 C   0  0  0  0  0  0  0  0  0  0  0  0
  -22.1505   -5.2245   24.2582 C   0  0  0  0  0  0  0  0  0  0  0  0
  -24.8529  -11.5615   23.1710 C   0  0  0  0  0  0  0  0  0  0  0  0
  -24.4755  -13.5061   21.5635 C   0  0  0  0  0  0  0  0  0  0  0  0
  -18.9346  -34.1443   20.0288 C   0  0  0  0  0  0  0  0  0  0  0  0
  -24.8012  -29.0475   20.1004 C   0  0  0  0  0  0  0  0  0  0  0  0
  -20.1490  -33.7912   19.4101 C   0  0  0  0  0  0  0  0  0  0  0  0
  -26.0146  -29.3772   20.7264 C   0  0  0  0  0  0  0  0  0  0  0  0
  -28.3917  -20.0256   21.5784 C   0  0  0  0  0  0  0  0  0  0  0  0
  -24.0213   -9.4111   24.7416 C   0  0  0  0  0  0  0  0  0  0  0  0
  -26.8224  -27.1323   20.3375 C   0  0  0  0  0  0  0  0  0  0  0  0
  -22.7154   -7.4688   24.9517 C   0  0  0  0  0  0  0  0  0  0  0  0
  -28.1357  -22.7621   22.0562 C   0  0  0  0  0  0  0  0  0  0  0  0
  -20.8997   -5.6710   23.8320 C   0  0  0  0  0  0  0  0  0  0  0  0
  -27.0143  -22.0057   21.7158 C   0  0  0  0  0  0  0  0  0  0  0  0
  -23.0584   -6.1234   24.8181 C   0  0  0  0  0  0  0  0  0  0  0  0
  -25.2829  -12.6725   22.3604 C   0  0  0  0  0  0  0  0  0  0  0  0
  -25.3542  -14.3993   21.0010 C   0  0  0  0  0  0  0  0  0  0  0  0
  -23.0579  -13.4758   21.3509 C   0  0  0  0  0  0  0  0  0  0  0  0
  -23.3724  -32.4735   20.6455 C   0  0  0  0  0  0  0  0  0  0  0  0
  -24.8881  -31.7227   23.2046 C   0  0  0  0  0  0  0  0  0  0  0  0
  -26.3005  -30.3471   25.9886 C   0  0  0  0  0  0  0  0  0  0  0  0
  -29.6878  -17.8733   21.3941 C   0  0  0  0  0  0  0  0  0  0  0  0
  -18.8980  -34.8190   21.3772 C   0  0  0  0  0  0  0  0  0  0  0  0
  -23.7676  -30.1278   19.9324 C   0  0  0  0  0  0  0  0  0  0  0  0
  -26.1880  -30.7830   21.2329 C   0  0  0  0  0  0  0  0  0  0  0  0
  -20.1981  -34.6777   22.1645 C   0  0  0  0  0  0  0  0  0  0  0  0
  -30.4150  -14.4228   20.9013 C   0  0  0  0  0  0  0  0  0  0  0  0
  -21.3979  -34.9814   21.2727 C   0  0  0  0  0  0  0  0  0  0  0  0
  -29.0782  -13.7284   21.1714 C   0  0  0  0  0  0  0  0  0  0  0  0
  -30.6319  -15.6163   21.8299 C   0  0  0  0  0  0  0  0  0  0  0  0
  -28.2019  -15.9022   22.1169 C   0  0  0  0  0  0  0  0  0  0  0  0
  -21.4794  -33.9940   20.1023 C   0  0  1  0  0  0  0  0  0  0  0  0
  -23.7025  -31.0923   21.1301 C   0  0  1  0  0  0  0  0  0  0  0  0
  -27.9093  -14.7331   21.1623 C   0  0  2  0  0  0  0  0  0  0  0  0
  -26.8460  -30.8668   28.3823 C   0  0  0  0  0  0  0  0  0  0  0  0
  -27.2368  -33.4417   22.2923 C   0  0  0  0  0  0  0  0  0  0  0  0
  -28.2509  -33.1347   24.5607 C   0  0  0  0  0  0  0  0  0  0  0  0
  -26.0517  -34.2882   24.3254 C   0  0  0  0  0  0  0  0  0  0  0  0
  -24.5818  -28.1504   26.9783 C   0  0  0  0  0  0  0  0  0  0  0  0
  -28.6649  -26.3010   21.5911 C   0  0  0  0  0  0  0  0  0  1  0  0
  -29.1408  -24.9163   21.9857 C   0  0  0  0  0  0  0  0  0  0  0  0
  -26.1840  -31.7882   23.9726 C   0  0  1  0  0  0  0  0  0  0  0  0
  -25.8232  -30.2708   27.4276 C   0  0  2  0  0  0  0  0  0  0  0  0
  -26.9242  -33.1407   23.7717 C   0  0  0  0  0  0  0  0  0  0  0  0
  -26.5752  -13.0063   22.3111 N   0  0  0  0  0  0  0  0  0  0  0  0
  -26.5866  -14.0595   21.4764 N   0  0  0  0  0  0  0  0  0  0  0  0
  -24.9536  -31.2347   21.8939 N   0  0  0  0  0  0  0  0  0  0  0  0
  -29.4868  -16.5270   21.7655 N   0  0  0  0  0  0  0  0  0  0  0  0
  -25.1853  -15.4344   20.1511 N   0  0  0  0  0  0  0  0  0  0  0  0
  -22.3048  -12.4921   22.0063 N   0  0  0  0  0  0  0  0  0  0  0  0
  -28.5216  -18.6356   21.3358 N   0  0  0  0  0  0  0  0  0  0  0  0
  -22.0175  -32.7263   20.5470 N   0  0  0  0  0  0  0  0  0  0  0  0
  -25.8510  -31.4898   25.3613 N   0  0  0  0  0  0  0  0  0  0  0  0
  -25.5846  -28.8529   27.8197 N   0  3  0  0  0  0  0  0  0  0  0  0
  -22.4784  -14.2864   20.5889 O   0  0  0  0  0  0  0  0  0  0  0  0
  -24.2795  -33.2539   20.3813 O   0  0  0  0  0  0  0  0  0  0  0  0
  -23.8455  -32.0986   23.7477 O   0  0  0  0  0  0  0  0  0  0  0  0
  -27.0049  -29.4816   25.4736 O   0  0  0  0  0  0  0  0  0  0  0  0
  -30.8084  -18.3104   21.1197 O   0  0  0  0  0  0  0  0  0  0  0  0
  -23.6153   -8.3622   25.5081 O   0  0  0  0  0  0  0  0  0  0  0  0
  -27.7998  -26.1921   20.4615 O   0  0  0  0  0  0  0  0  0  1  0  0
  -28.0119  -24.1064   22.2905 O   0  0  0  0  0  0  0  0  0  0  0  0
  -20.0272   -4.8077   23.2957 F   0  0  0  0  0  0  0  0  0  0  0  0
  -25.8115  -22.5881   21.6156 F   0  0  0  0  0  0  0  0  0  0  0  0
  -24.2582   -5.6883   25.2268 F   0  0  0  0  0  0  0  0  0  0  0  0
  1  2  1  0  0  0  0
  1  5  2  0  0  0  0
  2  6  2  0  0  0  0
  3  9  2  0  0  0  0
  3 18  1  0  0  0  0
  4 10  1  0  0  0  0
  4 18  2  0  0  0  0
  5 20  1  0  0  0  0
  6 22  1  0  0  0  0
  7 11  2  0  0  0  0
  7 21  1  0  0  0  0
  8 12  2  0  0  0  0
  8 24  1  0  0  0  0
  9 25  1  0  0  0  0
 10 25  2  0  0  0  0
 11 26  1  0  0  0  0
 12 28  1  0  0  0  0
 13 14  2  0  0  0  0
 13 27  1  0  0  0  0
 14 29  1  0  0  0  0
 15 23  1  0  0  0  0
 15 26  2  0  0  0  0
 16 24  2  0  0  0  0
 16 30  1  0  0  0  0
 17 29  2  0  0  0  0
 17 31  1  0  0  0  0
 18 32  1  0  0  0  0
 19 32  1  0  0  0  0
 19 33  2  0  0  0  0
 19 34  1  0  0  0  0
 20 22  2  0  0  0  0
 20 39  1  0  0  0  0
 21 23  2  0  0  0  0
 21 40  1  0  0  0  0
 22 48  1  0  0  0  0
 23 41  1  0  0  0  0
 24 67  1  0  0  0  0
 25 76  1  0  0  0  0
 26 77  1  0  0  0  0
 27 31  2  0  0  0  0
 27 76  1  0  0  0  0
 28 30  2  0  0  0  0
 28 78  1  0  0  0  0
 29 79  1  0  0  0  0
 30 80  1  0  0  0  0
 31 81  1  0  0  0  0
 32 61  2  0  0  0  0
 33 62  1  0  0  0  0
 33 65  1  0  0  0  0
 34 66  1  0  0  0  0
 34 71  2  0  0  0  0
 35 49  1  0  0  0  0
 35 68  1  0  0  0  0
 35 72  2  0  0  0  0
 36 58  1  0  0  0  0
 36 63  1  0  0  0  0
 36 73  2  0  0  0  0
 37 59  1  0  0  0  0
 37 69  1  0  0  0  0
 37 74  2  0  0  0  0
 38 64  1  0  0  0  0
 38 67  1  0  0  0  0
 38 75  2  0  0  0  0
 39 42  1  0  0  0  0
 40 49  1  0  0  0  0
 41 63  1  0  0  0  0
 42 44  1  0  0  0  0
 43 45  1  0  0  0  0
 43 46  1  0  0  0  0
 44 48  1  0  0  0  0
 45 50  1  0  0  0  0
 46 64  1  0  0  0  0
 47 50  1  0  0  0  0
 47 64  1  0  0  0  0
 48 68  1  0  0  0  0
 49 63  1  0  0  0  0
 50 62  1  0  0  0  0
 51 59  1  0  0  0  0
 52 60  1  0  0  0  0
 53 60  1  0  0  0  0
 54 60  1  0  0  0  0
 55 70  1  0  0  0  0
 56 57  1  0  0  0  0
 56 77  1  0  0  0  0
 57 78  1  0  0  0  0
 58 60  1  0  0  0  0
 58 69  1  0  0  0  0
 59 70  1  0  0  0  0
 61 62  1  0  0  0  0
M  CHG  1  70   1
M  ISO  4  38 100  56 101  67 100  77 101
M  END
> <Batch ID>
0012

> <Smiles>
CNC(C)C(=O)NC(C(=O)N1Cc2cc([101O:1][101CH2:1]COc3ccc([100NH:0][100C:0](=O)N4CCCC(n5nc(-c6ccc(Oc7ccc(F)cc7F)cc6)c(C(N)=O)c5N)C4)cc3F)ccc2CC1C(=O)NC1CCCc2ccccc21)C(C)(C)C

> <Shape>
0.265

> <Color>
0.145

> <Negative vol penalty>
0.000

$$$$

  -OEChem-04042320463D

 84 92  0     1  0  0  0  0  0999 V2000
  -28.0640  -24.0773   17.8984 C   0  0  0  0  0  0  0  0  0  0  0  0
  -26.8776  -24.3700   18.5634 C   0  0  0  0  0  0  0  0  0  0  0  0
  -26.0986  -14.3320   20.3907 C   0  0  0  0  0  0  0  0  0  0  0  0
  -27.0316  -13.6281   18.2763 C   0  0  0  0  0  0  0  0  0  0  0  0
  -29.2617  -24.6467   18.3285 C   0  0  0  0  0  0  0  0  0  0  0  0
  -26.8885  -25.2316   19.6598 C   0  0  0  0  0  0  0  0  0  0  0  0
  -23.1245  -28.6160   19.5085 C   0  0  0  0  0  0  0  0  0  0  0  0
  -21.4202  -22.6087   20.1223 C   0  0  0  0  0  0  0  0  0  0  0  0
  -23.3933  -23.3319   21.3144 C   0  0  0  0  0  0  0  0  0  0  0  0
  -25.8330  -13.0020   20.7164 C   0  0  0  0  0  0  0  0  0  0  0  0
  -26.7661  -12.2980   18.6019 C   0  0  0  0  0  0  0  0  0  0  0  0
  -21.8551  -28.1734   19.8781 C   0  0  0  0  0  0  0  0  0  0  0  0
  -20.6233  -23.3615   20.9847 C   0  0  0  0  0  0  0  0  0  0  0  0
  -22.5964  -24.0847   22.1768 C   0  0  0  0  0  0  0  0  0  0  0  0
  -23.5085  -10.6686   19.9572 C   0  0  0  0  0  0  0  0  0  0  0  0
  -22.2590  -10.3725   20.5018 C   0  0  0  0  0  0  0  0  0  0  0  0
  -22.1548  -29.1556   22.0609 C   0  0  0  0  0  0  0  0  0  0  0  0
  -23.3288   -9.5230   22.4946 C   0  0  0  0  0  0  0  0  0  0  0  0
  -26.6979  -14.6451   19.1706 C   0  0  0  0  0  0  0  0  0  0  0  0
  -28.1464  -16.7441   19.1100 C   0  0  0  0  0  0  0  0  0  0  0  0
  -29.2858  -25.5233   19.4247 C   0  0  0  0  0  0  0  0  0  0  0  0
  -23.9243  -29.3234   20.4175 C   0  0  0  0  0  0  0  0  0  0  0  0
  -28.0879  -25.8122   20.1058 C   0  0  0  0  0  0  0  0  0  0  0  0
  -23.4329  -29.6082   21.6996 C   0  0  0  0  0  0  0  0  0  0  0  0
  -22.8053  -22.5938   20.2872 C   0  0  0  0  0  0  0  0  0  0  0  0
  -26.1668  -11.9850   19.8220 C   0  0  0  0  0  0  0  0  0  0  0  0
  -21.2113  -24.0995   22.0119 C   0  0  0  0  0  0  0  0  0  0  0  0
  -21.3712  -28.4407   21.1554 C   0  0  0  0  0  0  0  0  0  0  0  0
  -24.6683  -10.3918   20.6812 C   0  0  0  0  0  0  0  0  0  0  0  0
  -22.1691   -9.7998   21.7705 C   0  0  0  0  0  0  0  0  0  0  0  0
  -24.5784   -9.8190   21.9499 C   0  0  0  0  0  0  0  0  0  0  0  0
  -26.9719  -16.0189   18.8334 C   0  0  0  0  0  0  0  0  0  0  0  0
  -27.9097  -17.9927   18.5890 C   0  0  0  0  0  0  0  0  0  0  0  0
  -25.8261  -20.3593   21.8958 C   0  0  0  0  0  0  0  0  0  0  0  0
  -24.9192  -20.4631   20.9177 C   0  0  0  0  0  0  0  0  0  0  0  0
  -29.3442  -16.3264   19.7782 C   0  0  0  0  0  0  0  0  0  0  0  0
  -26.7494  -28.8194   21.7844 C   0  0  0  0  0  0  0  0  0  0  0  0
  -26.3015  -31.8264   22.9158 C   0  0  0  0  0  0  0  0  0  0  0  0
  -24.1189  -34.3204   23.7301 C   0  0  0  0  0  0  0  0  0  0  0  0
  -23.2452  -21.5806   18.0567 C   0  0  0  0  0  0  0  0  0  0  0  0
  -30.6119  -26.0772   19.8822 C   0  0  0  0  0  0  0  0  0  0  0  0
  -25.2807  -29.8170   19.9946 C   0  0  0  0  0  0  0  0  0  0  0  0
  -24.2439  -30.3815   22.7059 C   0  0  0  0  0  0  0  0  0  0  0  0
  -30.4810  -27.2742   20.8205 C   0  0  0  0  0  0  0  0  0  0  0  0
  -24.8280  -19.8485   15.2099 C   0  0  0  0  0  0  0  0  0  0  0  0
  -29.4400  -26.9948   21.9000 C   0  0  0  0  0  0  0  0  0  0  0  0
  -25.5959  -18.7138   15.8859 C   0  0  0  0  0  0  0  0  0  0  0  0
  -23.5836  -20.2408   16.0007 C   0  0  0  0  0  0  0  0  0  0  0  0
  -24.6294  -19.4508   18.1013 C   0  0  0  0  0  0  0  0  0  0  0  0
  -28.0553  -26.7616   21.2839 C   0  0  1  0  0  0  0  0  0  0  0  0
  -26.2137  -30.0826   21.1720 C   0  0  1  0  0  0  0  0  0  0  0  0
  -25.9121  -19.0618   17.3508 C   0  0  1  0  0  0  0  0  0  0  0  0
  -24.0471  -36.6474   24.6666 C   0  0  0  0  0  0  0  0  0  0  0  0
  -26.7967  -30.7131   25.7132 C   0  0  0  0  0  0  0  0  0  0  0  0
  -25.7950  -32.8083   26.6486 C   0  0  0  0  0  0  0  0  0  0  0  0
  -27.8686  -32.9282   25.2671 C   0  0  0  0  0  0  0  0  0  0  0  0
  -22.8991  -35.4016   21.2599 C   0  0  0  0  0  0  0  0  0  0  0  0
  -24.9914  -21.4718   19.8199 C   0  0  0  0  0  0  0  0  0  0  0  0
  -18.8469  -26.6466   23.0391 C   0  0  0  0  0  0  0  0  0  0  0  0
  -19.2164  -25.3555   22.3258 C   0  0  0  0  0  0  0  0  0  0  0  0
  -19.9301  -27.7045   22.8981 C   0  0  0  0  0  0  0  0  0  1  0  0
  -25.6599  -32.4212   24.1460 C   0  0  1  0  0  0  0  0  0  0  0  0
  -24.1162  -35.8029   23.4038 C   0  0  2  0  0  0  0  0  0  0  0  0
  -26.5153  -32.2015   25.4257 C   0  0  0  0  0  0  0  0  0  0  0  0
  -26.0570  -16.7463   18.1870 N   0  0  0  0  0  0  0  0  0  0  0  0
  -26.6566  -17.9415   18.0531 N   0  0  0  0  0  0  0  0  0  0  0  0
  -25.5665  -30.8373   22.2470 N   0  0  0  0  0  0  0  0  0  0  0  0
  -23.9050  -20.5222   17.4004 N   0  0  0  0  0  0  0  0  0  0  0  0
  -28.6534  -19.1184   18.5415 N   0  0  0  0  0  0  0  0  0  0  0  0
  -29.4208  -15.0094   20.2513 N   0  0  0  0  0  0  0  0  0  0  0  0
  -27.4529  -28.0211   20.9029 N   0  0  0  0  0  0  0  0  0  0  0  0
  -25.4006  -33.8226   23.8341 N   0  0  0  0  0  0  0  0  0  0  0  0
  -23.6303  -21.8145   19.3946 N   0  0  0  0  0  0  0  0  0  0  0  0
  -22.9453  -36.1425   22.5467 N   0  3  0  0  0  0  0  0  0  0  0  0
  -30.3114  -17.1031   19.9650 O   0  0  0  0  0  0  0  0  0  0  0  0
  -26.5411  -28.5870   22.9695 O   0  0  0  0  0  0  0  0  0  0  0  0
  -27.4108  -32.2297   22.5573 O   0  0  0  0  0  0  0  0  0  0  0  0
  -23.0872  -33.6698   23.8815 O   0  0  0  0  0  0  0  0  0  0  0  0
  -22.4013  -22.2792   17.4828 O   0  0  0  0  0  0  0  0  0  0  0  0
  -25.9080  -10.6870   20.1395 O   0  0  0  0  0  0  0  0  0  0  0  0
  -20.4283  -24.8393   22.8594 O   0  0  0  0  0  0  0  0  0  0  0  0
  -20.1328  -28.0093   21.5189 O   0  0  0  0  0  0  0  0  0  1  0  0
  -20.9691   -9.5170   22.2940 F   0  0  0  0  0  0  0  0  0  0  0  0
  -25.6889   -9.5519   22.6507 F   0  0  0  0  0  0  0  0  0  0  0  0
  1  2  1  0  0  0  0
  1  5  2  0  0  0  0
  2  6  2  0  0  0  0
  3 10  2  0  0  0  0
  3 19  1  0  0  0  0
  4 11  1  0  0  0  0
  4 19  2  0  0  0  0
  5 21  1  0  0  0  0
  6 23  1  0  0  0  0
  7 12  2  0  0  0  0
  7 22  1  0  0  0  0
  8 13  2  0  0  0  0
  8 25  1  0  0  0  0
  9 14  1  0  0  0  0
  9 25  2  0  0  0  0
 10 26  1  0  0  0  0
 11 26  2  0  0  0  0
 12 28  1  0  0  0  0
 13 27  1  0  0  0  0
 14 27  2  0  0  0  0
 15 16  2  0  0  0  0
 15 29  1  0  0  0  0
 16 30  1  0  0  0  0
 17 24  1  0  0  0  0
 17 28  2  0  0  0  0
 18 30  2  0  0  0  0
 18 31  1  0  0  0  0
 19 32  1  0  0  0  0
 20 32  1  0  0  0  0
 20 33  2  0  0  0  0
 20 36  1  0  0  0  0
 21 23  2  0  0  0  0
 21 41  1  0  0  0  0
 22 24  2  0  0  0  0
 22 42  1  0  0  0  0
 23 50  1  0  0  0  0
 24 43  1  0  0  0  0
 25 73  1  0  0  0  0
 26 80  1  0  0  0  0
 27 81  1  0  0  0  0
 28 82  1  0  0  0  0
 29 31  2  0  0  0  0
 29 80  1  0  0  0  0
 30 83  1  0  0  0  0
 31 84  1  0  0  0  0
 32 65  2  0  0  0  0
 33 66  1  0  0  0  0
 33 69  1  0  0  0  0
 34 35  2  0  0  0  0
 35 58  1  0  0  0  0
 36 70  1  0  0  0  0
 36 75  2  0  0  0  0
 37 51  1  0  0  0  0
 37 71  1  0  0  0  0
 37 76  2  0  0  0  0
 38 62  1  0  0  0  0
 38 67  1  0  0  0  0
 38 77  2  0  0  0  0
 39 63  1  0  0  0  0
 39 72  1  0  0  0  0
 39 78  2  0  0  0  0
 40 68  1  0  0  0  0
 40 73  1  0  0  0  0
 40 79  2  0  0  0  0
 41 44  1  0  0  0  0
 42 51  1  0  0  0  0
 43 67  1  0  0  0  0
 44 46  1  0  0  0  0
 45 47  1  0  0  0  0
 45 48  1  0  0  0  0
 46 50  1  0  0  0  0
 47 52  1  0  0  0  0
 48 68  1  0  0  0  0
 49 52  1  0  0  0  0
 49 68  1  0  0  0  0
 50 71  1  0  0  0  0
 51 67  1  0  0  0  0
 52 66  1  0  0  0  0
 53 63  1  0  0  0  0
 54 64  1  0  0  0  0
 55 64  1  0  0  0  0
 56 64  1  0  0  0  0
 57 74  1  0  0  0  0
 58 73  1  0  0  0  0
 59 60  1  0  0  0  0
 59 61  1  0  0  0  0
 60 81  1  0  0  0  0
 61 82  1  0  0  0  0
 62 64  1  0  0  0  0
 62 72  1  0  0  0  0
 63 74  1  0  0  0  0
 65 66  1  0  0  0  0
M  CHG  1  74   1
M  ISO  4  40 100  61 101  73 100  82 101
M  END
> <Batch ID>
0012

> <Smiles>
C=CC[100N:0](c1ccc(OCC[101CH2:1][101O:1]c2ccc3c(c2)CN(C(=O)C(NC(=O)C(C)NC)C(C)(C)C)C(C(=O)NC2CCCc4ccccc42)C3)cc1)[100C:0](=O)N1CCCC(n2nc(-c3ccc(Oc4ccc(F)cc4F)cc3)c(C(N)=O)c2N)C1

> <Shape>
0.295

> <Color>
0.074

> <Negative vol penalty>
0.000

$$$$

  -OEChem-04042320463D

 80 88  0     1  0  0  0  0  0999 V2000
  -26.3513  -21.2279   16.4911 C   0  0  0  0  0  0  0  0  0  0  0  0
  -26.7940  -19.9105   16.4548 C   0  0  0  0  0  0  0  0  0  0  0  0
  -33.8880  -15.9312   19.8775 C   0  0  0  0  0  0  0  0  0  0  0  0
  -27.5828  -25.3592   23.6288 C   0  0  0  0  0  0  0  0  0  0  0  0
  -29.4199  -26.7844   22.9723 C   0  0  0  0  0  0  0  0  0  0  0  0
  -33.0057  -17.0097   19.8158 C   0  0  0  0  0  0  0  0  0  0  0  0
  -25.6888  -21.7057   17.6198 C   0  0  0  0  0  0  0  0  0  0  0  0
  -26.5639  -19.0671   17.5423 C   0  0  0  0  0  0  0  0  0  0  0  0
  -28.3374  -13.3248   18.5466 C   0  0  0  0  0  0  0  0  0  0  0  0
  -33.6733  -14.9063   20.7990 C   0  0  0  0  0  0  0  0  0  0  0  0
  -27.1791  -26.3109   24.5653 C   0  0  0  0  0  0  0  0  0  0  0  0
  -29.0162  -27.7361   23.9088 C   0  0  0  0  0  0  0  0  0  0  0  0
  -29.4103  -12.6697   19.1494 C   0  0  0  0  0  0  0  0  0  0  0  0
  -26.6534  -30.1397   24.1553 C   0  0  0  0  0  0  0  0  0  0  0  0
  -26.6218  -31.4737   23.7491 C   0  0  0  0  0  0  0  0  0  0  0  0
  -31.6938  -16.0386   21.5968 C   0  0  0  0  0  0  0  0  0  0  0  0
  -28.1213  -12.4349   21.1748 C   0  0  0  0  0  0  0  0  0  0  0  0
  -28.2258  -32.0347   25.4665 C   0  0  0  0  0  0  0  0  0  0  0  0
  -28.7032  -25.5960   22.8323 C   0  0  0  0  0  0  0  0  0  0  0  0
  -31.9085  -17.0634   20.6754 C   0  0  0  0  0  0  0  0  0  0  0  0
  -28.7150  -24.5174   20.5206 C   0  0  0  0  0  0  0  0  0  0  0  0
  -25.4620  -20.8707   18.7262 C   0  0  0  0  0  0  0  0  0  0  0  0
  -27.1502  -13.5500   19.2582 C   0  0  0  0  0  0  0  0  0  0  0  0
  -25.8760  -19.5239   18.6810 C   0  0  0  0  0  0  0  0  0  0  0  0
  -27.0338  -13.0909   20.5779 C   0  0  0  0  0  0  0  0  0  0  0  0
  -27.8958  -27.4993   24.7053 C   0  0  0  0  0  0  0  0  0  0  0  0
  -32.5761  -14.9600   21.6587 C   0  0  0  0  0  0  0  0  0  0  0  0
  -29.3034  -12.2272   20.4646 C   0  0  0  0  0  0  0  0  0  0  0  0
  -27.4712  -29.7532   25.2172 C   0  0  0  0  0  0  0  0  0  0  0  0
  -27.4080  -32.4212   24.4047 C   0  0  0  0  0  0  0  0  0  0  0  0
  -28.2574  -30.7007   25.8728 C   0  0  0  0  0  0  0  0  0  0  0  0
  -29.1210  -24.6131   21.8652 C   0  0  0  0  0  0  0  0  0  0  0  0
  -29.3905  -23.4245   20.0350 C   0  0  0  0  0  0  0  0  0  0  0  0
  -30.9792  -18.1980   20.6098 C   0  0  0  0  0  0  0  0  0  0  0  0
  -27.8085  -25.3426   19.7771 C   0  0  0  0  0  0  0  0  0  0  0  0
  -25.5445  -16.1329   20.1823 C   0  0  0  0  0  0  0  0  0  0  0  0
  -23.3491  -13.9465   21.1428 C   0  0  0  0  0  0  0  0  0  0  0  0
  -22.6827  -10.7426   22.1112 C   0  0  0  0  0  0  0  0  0  0  0  0
  -24.7330  -21.4374   19.9189 C   0  0  0  0  0  0  0  0  0  0  0  0
  -25.9925  -14.2346   18.5849 C   0  0  0  0  0  0  0  0  0  0  0  0
  -25.7737  -13.2898   21.3785 C   0  0  0  0  0  0  0  0  0  0  0  0
  -24.9283  -20.6083   21.1841 C   0  0  0  0  0  0  0  0  0  0  0  0
  -33.1639  -20.7203   22.0352 C   0  0  0  0  0  0  0  0  0  0  0  0
  -24.6607  -19.1399   20.8897 C   0  0  0  0  0  0  0  0  0  0  0  0
  -32.2562  -21.9509   22.0223 C   0  0  0  0  0  0  0  0  0  0  0  0
  -32.3740  -19.4500   22.3354 C   0  0  0  0  0  0  0  0  0  0  0  0
  -30.3142  -20.4452   21.3971 C   0  0  0  0  0  0  0  0  0  0  0  0
  -25.6640  -18.5969   19.8643 C   0  0  1  0  0  0  0  0  0  0  0  0
  -25.0155  -14.8659   19.5720 C   0  0  1  0  0  0  0  0  0  0  0  0
  -31.0605  -21.7510   21.0729 C   0  0  1  0  0  0  0  0  0  0  0  0
  -20.8017   -9.2649   22.8700 C   0  0  0  0  0  0  0  0  0  0  0  0
  -23.4364  -15.2542   23.8982 C   0  0  0  0  0  0  0  0  0  0  0  0
  -22.3150  -13.2162   24.8241 C   0  0  0  0  0  0  0  0  0  0  0  0
  -21.1477  -14.6141   23.1193 C   0  0  0  0  0  0  0  0  0  0  0  0
  -23.0208   -8.9281   19.7977 C   0  0  0  0  0  0  0  0  0  0  0  0
  -31.9487  -11.5998   22.8622 C   0  0  0  0  0  0  0  0  0  0  0  0
  -32.8171  -12.6561   22.1971 C   0  0  0  0  0  0  0  0  0  0  0  0
  -30.4862  -11.7352   22.4683 C   0  0  0  0  0  0  0  0  0  1  0  0
  -23.0987  -13.1696   22.4128 C   0  0  1  0  0  0  0  0  0  0  0  0
  -21.6064   -9.7630   21.6795 C   0  0  2  0  0  0  0  0  0  0  0  0
  -22.5240  -14.0613   23.5494 C   0  0  0  0  0  0  0  0  0  0  0  0
  -29.9871  -23.6571   22.2116 N   0  0  0  0  0  0  0  0  0  0  0  0
  -30.1308  -22.9503   21.0777 N   0  0  0  0  0  0  0  0  0  0  0  0
  -31.2420  -19.3124   21.4103 N   0  0  0  0  0  0  0  0  0  0  0  0
  -24.6717  -13.9701   20.6782 N   0  0  0  0  0  0  0  0  0  0  0  0
  -29.4173  -22.8324   18.8221 N   0  0  0  0  0  0  0  0  0  0  0  0
  -27.2015  -26.4244   20.4295 N   0  0  0  0  0  0  0  0  0  0  0  0
  -25.2519  -17.2718   19.4566 N   0  0  0  0  0  0  0  0  0  0  0  0
  -22.2428  -12.0476   22.0429 N   0  0  0  0  0  0  0  0  0  0  0  0
  -22.2190   -8.5862   21.0008 N   0  3  0  0  0  0  0  0  0  0  0  0
  -30.0321  -18.0792   19.8339 O   0  0  0  0  0  0  0  0  0  0  0  0
  -27.5320  -25.1174   18.5745 O   0  0  0  0  0  0  0  0  0  0  0  0
  -26.1704  -16.0811   21.2346 O   0  0  0  0  0  0  0  0  0  0  0  0
  -22.4046  -14.5056   20.5798 O   0  0  0  0  0  0  0  0  0  0  0  0
  -23.8006  -10.3856   22.4764 O   0  0  0  0  0  0  0  0  0  0  0  0
  -27.5020  -28.4283   25.6189 O   0  0  0  0  0  0  0  0  0  0  0  0
  -32.3656  -13.9528   22.5641 O   0  0  0  0  0  0  0  0  0  0  0  0
  -30.3494  -11.5880   21.0556 O   0  0  0  0  0  0  0  0  0  1  0  0
  -27.3787  -33.7019   24.0134 F   0  0  0  0  0  0  0  0  0  0  0  0
  -29.0459  -30.3351   26.8928 F   0  0  0  0  0  0  0  0  0  0  0  0
  1  2  1  0  0  0  0
  1  7  2  0  0  0  0
  2  8  2  0  0  0  0
  3  6  1  0  0  0  0
  3 10  2  0  0  0  0
  4 11  2  0  0  0  0
  4 19  1  0  0  0  0
  5 12  1  0  0  0  0
  5 19  2  0  0  0  0
  6 20  2  0  0  0  0
  7 22  1  0  0  0  0
  8 24  1  0  0  0  0
  9 13  2  0  0  0  0
  9 23  1  0  0  0  0
 10 27  1  0  0  0  0
 11 26  1  0  0  0  0
 12 26  2  0  0  0  0
 13 28  1  0  0  0  0
 14 15  2  0  0  0  0
 14 29  1  0  0  0  0
 15 30  1  0  0  0  0
 16 20  1  0  0  0  0
 16 27  2  0  0  0  0
 17 25  1  0  0  0  0
 17 28  2  0  0  0  0
 18 30  2  0  0  0  0
 18 31  1  0  0  0  0
 19 32  1  0  0  0  0
 20 34  1  0  0  0  0
 21 32  1  0  0  0  0
 21 33  2  0  0  0  0
 21 35  1  0  0  0  0
 22 24  2  0  0  0  0
 22 39  1  0  0  0  0
 23 25  2  0  0  0  0
 23 40  1  0  0  0  0
 24 48  1  0  0  0  0
 25 41  1  0  0  0  0
 26 76  1  0  0  0  0
 27 77  1  0  0  0  0
 28 78  1  0  0  0  0
 29 31  2  0  0  0  0
 29 76  1  0  0  0  0
 30 79  1  0  0  0  0
 31 80  1  0  0  0  0
 32 62  2  0  0  0  0
 33 63  1  0  0  0  0
 33 66  1  0  0  0  0
 34 64  1  0  0  0  0
 34 71  2  0  0  0  0
 35 67  1  0  0  0  0
 35 72  2  0  0  0  0
 36 49  1  0  0  0  0
 36 68  1  0  0  0  0
 36 73  2  0  0  0  0
 37 59  1  0  0  0  0
 37 65  1  0  0  0  0
 37 74  2  0  0  0  0
 38 60  1  0  0  0  0
 38 69  1  0  0  0  0
 38 75  2  0  0  0  0
 39 42  1  0  0  0  0
 40 49  1  0  0  0  0
 41 65  1  0  0  0  0
 42 44  1  0  0  0  0
 43 45  1  0  0  0  0
 43 46  1  0  0  0  0
 44 48  1  0  0  0  0
 45 50  1  0  0  0  0
 46 64  1  0  0  0  0
 47 50  1  0  0  0  0
 47 64  1  0  0  0  0
 48 68  1  0  0  0  0
 49 65  1  0  0  0  0
 50 63  1  0  0  0  0
 51 60  1  0  0  0  0
 52 61  1  0  0  0  0
 53 61  1  0  0  0  0
 54 61  1  0  0  0  0
 55 70  1  0  0  0  0
 56 57  1  0  0  0  0
 56 58  1  0  0  0  0
 57 77  1  0  0  0  0
 58 78  1  0  0  0  0
 59 61  1  0  0  0  0
 59 69  1  0  0  0  0
 60 70  1  0  0  0  0
 62 63  1  0  0  0  0
M  CHG  1  70   1
M  ISO  4  20 100  34 100  58 101  78 101
M  END
> <Batch ID>
0012

> <Smiles>
CNC(C)C(=O)NC(C(=O)N1Cc2cc([101O:1][101CH2:1]CCOc3ccc[100c:0]([100C:0](=O)N4CCCC(n5nc(-c6ccc(Oc7ccc(F)cc7F)cc6)c(C(N)=O)c5N)C4)c3)ccc2CC1C(=O)NC1CCCc2ccccc21)C(C)(C)C

> <Shape>
0.209

> <Color>
0.076

> <Negative vol penalty>
0.000

$$$$

  -OEChem-04042320463D

 85 93  0     1  0  0  0  0  0999 V2000
  -28.7134  -31.9353   17.2142 C   0  0  0  0  0  0  0  0  0  0  0  0
  -28.2796  -30.6339   16.9831 C   0  0  0  0  0  0  0  0  0  0  0  0
  -23.1104  -16.0634   21.7499 C   0  0  0  0  0  0  0  0  0  0  0  0
  -22.3216  -15.2723   19.6077 C   0  0  0  0  0  0  0  0  0  0  0  0
  -28.8161  -32.4131   18.5200 C   0  0  0  0  0  0  0  0  0  0  0  0
  -27.9493  -29.8090   18.0578 C   0  0  0  0  0  0  0  0  0  0  0  0
  -23.5550  -25.5462   18.2121 C   0  0  0  0  0  0  0  0  0  0  0  0
  -29.5059  -19.0655   19.2290 C   0  0  0  0  0  0  0  0  0  0  0  0
  -30.0989  -17.8401   19.5326 C   0  0  0  0  0  0  0  0  0  0  0  0
  -22.0609  -16.9809   21.7976 C   0  0  0  0  0  0  0  0  0  0  0  0
  -21.2720  -16.1898   19.6554 C   0  0  0  0  0  0  0  0  0  0  0  0
  -23.5851  -24.1617   18.0501 C   0  0  0  0  0  0  0  0  0  0  0  0
  -20.8258  -19.4954   19.1033 C   0  0  0  0  0  0  0  0  0  0  0  0
  -20.5537  -20.2294   17.9489 C   0  0  0  0  0  0  0  0  0  0  0  0
  -23.6805  -23.8898   20.4452 C   0  0  0  0  0  0  0  0  0  0  0  0
  -28.6457  -19.2076   21.4822 C   0  0  0  0  0  0  0  0  0  0  0  0
  -18.3220  -19.3060   17.8877 C   0  0  0  0  0  0  0  0  0  0  0  0
  -23.2408  -15.2091   20.6550 C   0  0  0  0  0  0  0  0  0  0  0  0
  -24.3232  -12.9410   21.0930 C   0  0  0  0  0  0  0  0  0  0  0  0
  -28.4776  -31.5969   19.6108 C   0  0  0  0  0  0  0  0  0  0  0  0
  -23.5985  -26.1140   19.4935 C   0  0  0  0  0  0  0  0  0  0  0  0
  -28.0488  -30.2759   19.3795 C   0  0  0  0  0  0  0  0  0  0  0  0
  -23.6483  -25.2816   20.6207 C   0  0  0  0  0  0  0  0  0  0  0  0
  -28.7794  -19.7493   20.2038 C   0  0  0  0  0  0  0  0  0  0  0  0
  -29.9653  -17.2983   20.8110 C   0  0  0  0  0  0  0  0  0  0  0  0
  -21.1417  -17.0442   20.7504 C   0  0  0  0  0  0  0  0  0  0  0  0
  -23.6508  -23.3334   19.1666 C   0  0  0  0  0  0  0  0  0  0  0  0
  -19.8460  -18.6666   19.6500 C   0  0  0  0  0  0  0  0  0  0  0  0
  -19.3018  -20.1347   17.3411 C   0  0  0  0  0  0  0  0  0  0  0  0
  -29.2387  -17.9820   21.7858 C   0  0  0  0  0  0  0  0  0  0  0  0
  -18.5941  -18.5720   19.0422 C   0  0  0  0  0  0  0  0  0  0  0  0
  -24.3250  -14.2615   20.6049 C   0  0  0  0  0  0  0  0  0  0  0  0
  -25.5795  -12.4666   20.8046 C   0  0  0  0  0  0  0  0  0  0  0  0
  -23.2792  -12.2087   21.7483 C   0  0  0  0  0  0  0  0  0  0  0  0
  -25.6077  -28.0430   21.0251 C   0  0  0  0  0  0  0  0  0  0  0  0
  -23.3131  -27.9736   23.3169 C   0  0  0  0  0  0  0  0  0  0  0  0
  -20.6756  -26.3300   24.7271 C   0  0  0  0  0  0  0  0  0  0  0  0
  -30.7601  -15.0406   20.1311 C   0  0  0  0  0  0  0  0  0  0  0  0
  -28.6499  -32.1421   21.0064 C   0  0  0  0  0  0  0  0  0  0  0  0
  -23.5383  -27.6085   19.6523 C   0  0  0  0  0  0  0  0  0  0  0  0
  -23.6766  -25.8409   22.0189 C   0  0  0  0  0  0  0  0  0  0  0  0
  -27.9228  -31.3270   22.0728 C   0  0  0  0  0  0  0  0  0  0  0  0
  -29.1682  -12.9955   17.6966 C   0  0  0  0  0  0  0  0  0  0  0  0
  -28.1843  -29.8370   21.8764 C   0  0  0  0  0  0  0  0  0  0  0  0
  -27.7307  -12.9698   18.2149 C   0  0  0  0  0  0  0  0  0  0  0  0
  -29.8124  -14.3721   17.8635 C   0  0  0  0  0  0  0  0  0  0  0  0
  -28.3095  -14.8771   19.7637 C   0  0  0  0  0  0  0  0  0  0  0  0
  -27.6576  -29.3589   20.5179 C   0  0  1  0  0  0  0  0  0  0  0  0
  -24.1065  -28.0914   20.9832 C   0  0  1  0  0  0  0  0  0  0  0  0
  -27.6558  -13.4901   19.6613 C   0  0  1  0  0  0  0  0  0  0  0  0
  -29.1474  -22.1224   19.4127 C   0  0  0  0  0  0  0  0  0  0  0  0
  -19.0270  -26.5018   26.6112 C   0  0  0  0  0  0  0  0  0  0  0  0
  -25.4859  -27.1415   25.2908 C   0  0  0  0  0  0  0  0  0  0  0  0
  -23.6799  -26.4194   26.8671 C   0  0  0  0  0  0  0  0  0  0  0  0
  -23.8515  -28.8117   26.1815 C   0  0  0  0  0  0  0  0  0  0  0  0
  -31.2357  -15.8701   22.4247 C   0  0  0  0  0  0  0  0  0  0  0  0
  -18.3764  -26.3844   22.8643 C   0  0  0  0  0  0  0  0  0  0  0  0
  -24.8771  -20.1059   18.1151 C   0  0  0  0  0  0  0  0  0  0  0  0
  -25.9259  -20.1163   19.2171 C   0  0  0  0  0  0  0  0  0  0  0  0
  -24.2840  -21.4781   17.8202 C   0  0  0  0  0  0  0  0  0  1  0  0
  -28.1358  -21.0766   19.8748 C   0  0  1  0  0  0  0  0  0  0  0  0
  -23.0240  -27.1008   24.5142 C   0  0  1  0  0  0  0  0  0  0  0  0
  -19.2978  -26.8095   25.1467 C   0  0  2  0  0  0  0  0  0  0  0  0
  -24.0118  -27.3575   25.6871 C   0  0  0  0  0  0  0  0  0  0  0  0
  -25.4901  -14.6040   20.0488 N   0  0  0  0  0  0  0  0  0  0  0  0
  -26.2321  -13.4919   20.1857 N   0  0  0  0  0  0  0  0  0  0  0  0
  -23.6221  -27.3085   22.1219 N   0  0  0  0  0  0  0  0  0  0  0  0
  -29.6807  -14.8445   19.2490 N   0  0  0  0  0  0  0  0  0  0  0  0
  -26.1785  -11.2767   21.0226 N   0  0  0  0  0  0  0  0  0  0  0  0
  -22.0505  -12.8470   21.9659 N   0  0  0  0  0  0  0  0  0  0  0  0
  -26.2208  -29.1921   20.5632 N   0  0  0  0  0  0  0  0  0  0  0  0
  -21.6227  -27.3241   24.8533 N   0  0  0  0  0  0  0  0  0  0  0  0
  -30.5799  -16.0292   21.1223 N   0  0  0  0  0  0  0  0  0  0  0  0
  -18.2461  -26.1465   24.3249 N   0  3  0  0  0  0  0  0  0  0  0  0
  -27.0806  -20.9604   18.8305 N   0  3  0  0  0  0  0  0  0  0  0  0
  -23.4368  -11.0290   22.1444 O   0  0  0  0  0  0  0  0  0  0  0  0
  -26.1683  -27.0382   21.4467 O   0  0  0  0  0  0  0  0  0  0  0  0
  -23.2595  -29.2003   23.4357 O   0  0  0  0  0  0  0  0  0  0  0  0
  -20.8909  -25.1867   24.3308 O   0  0  0  0  0  0  0  0  0  0  0  0
  -31.7945  -14.3667   20.0557 O   0  0  0  0  0  0  0  0  0  0  0  0
  -20.1173  -17.9392   20.7967 O   0  0  0  0  0  0  0  0  0  0  0  0
  -23.6809  -21.9818   19.0114 O   0  0  0  0  0  0  0  0  0  1  0  0
  -19.0402  -20.8408   16.2333 F   0  0  0  0  0  0  0  0  0  0  0  0
  -29.1025  -17.4700   23.0174 F   0  0  0  0  0  0  0  0  0  0  0  0
  -17.6484  -17.7783   19.5634 F   0  0  0  0  0  0  0  0  0  0  0  0
  1  2  1  0  0  0  0
  1  5  2  0  0  0  0
  2  6  2  0  0  0  0
  3 10  2  0  0  0  0
  3 18  1  0  0  0  0
  4 11  1  0  0  0  0
  4 18  2  0  0  0  0
  5 20  1  0  0  0  0
  6 22  1  0  0  0  0
  7 12  2  0  0  0  0
  7 21  1  0  0  0  0
  8  9  2  0  0  0  0
  8 24  1  0  0  0  0
  9 25  1  0  0  0  0
 10 26  1  0  0  0  0
 11 26  2  0  0  0  0
 12 27  1  0  0  0  0
 13 14  2  0  0  0  0
 13 28  1  0  0  0  0
 14 29  1  0  0  0  0
 15 23  1  0  0  0  0
 15 27  2  0  0  0  0
 16 24  2  0  0  0  0
 16 30  1  0  0  0  0
 17 29  2  0  0  0  0
 17 31  1  0  0  0  0
 18 32  1  0  0  0  0
 19 32  1  0  0  0  0
 19 33  2  0  0  0  0
 19 34  1  0  0  0  0
 20 22  2  0  0  0  0
 20 39  1  0  0  0  0
 21 23  2  0  0  0  0
 21 40  1  0  0  0  0
 22 48  1  0  0  0  0
 23 41  1  0  0  0  0
 24 61  1  0  0  0  0
 25 30  2  0  0  0  0
 25 73  1  0  0  0  0
 26 81  1  0  0  0  0
 27 82  1  0  0  0  0
 28 31  2  0  0  0  0
 28 81  1  0  0  0  0
 29 83  1  0  0  0  0
 30 84  1  0  0  0  0
 31 85  1  0  0  0  0
 32 65  2  0  0  0  0
 33 66  1  0  0  0  0
 33 69  1  0  0  0  0
 34 70  1  0  0  0  0
 34 76  2  0  0  0  0
 35 49  1  0  0  0  0
 35 71  1  0  0  0  0
 35 77  2  0  0  0  0
 36 62  1  0  0  0  0
 36 67  1  0  0  0  0
 36 78  2  0  0  0  0
 37 63  1  0  0  0  0
 37 72  1  0  0  0  0
 37 79  2  0  0  0  0
 38 68  1  0  0  0  0
 38 73  1  0  0  0  0
 38 80  2  0  0  0  0
 39 42  1  0  0  0  0
 40 49  1  0  0  0  0
 41 67  1  0  0  0  0
 42 44  1  0  0  0  0
 43 45  1  0  0  0  0
 43 46  1  0  0  0  0
 44 48  1  0  0  0  0
 45 50  1  0  0  0  0
 46 68  1  0  0  0  0
 47 50  1  0  0  0  0
 47 68  1  0  0  0  0
 48 71  1  0  0  0  0
 49 67  1  0  0  0  0
 50 66  1  0  0  0  0
 51 61  1  0  0  0  0
 52 63  1  0  0  0  0
 53 64  1  0  0  0  0
 54 64  1  0  0  0  0
 55 64  1  0  0  0  0
 56 73  1  0  0  0  0
 57 74  1  0  0  0  0
 58 59  1  0  0  0  0
 58 60  1  0  0  0  0
 59 75  1  0  0  0  0
 60 82  1  0  0  0  0
 61 75  1  0  0  0  0
 62 64  1  0  0  0  0
 62 72  1  0  0  0  0
 63 74  1  0  0  0  0
 65 66  1  0  0  0  0
M  CHG  2  74   1  75   1
M  ISO  4  38 100  60 101  73 100  82 101
M  END
> <Batch ID>
0012

> <Smiles>
CNC(C)C(=O)NC(C(=O)N1Cc2cc([101O:1][101CH2:1]CCNC(C)c3ccc([100N:0](C)[100C:0](=O)N4CCCC(n5nc(-c6ccc(Oc7ccc(F)cc7F)cc6)c(C(N)=O)c5N)C4)c(F)c3)ccc2CC1C(=O)NC1CCCc2ccccc21)C(C)(C)C

> <Shape>
0.200

> <Color>
0.090

> <Negative vol penalty>
0.000

$$$$

  -OEChem-04042320463D

 82 91  0     1  0  0  0  0  0999 V2000
  -27.5295  -34.3096   25.5324 C   0  0  0  0  0  0  0  0  0  0  0  0
  -28.0544  -33.0424   25.2994 C   0  0  0  0  0  0  0  0  0  0  0  0
  -23.1631   -9.7550   19.9109 C   0  0  0  0  0  0  0  0  0  0  0  0
  -23.9110   -9.7778   22.2081 C   0  0  0  0  0  0  0  0  0  0  0  0
  -26.2139  -34.5953   25.1699 C   0  0  0  0  0  0  0  0  0  0  0  0
  -27.2635  -32.0599   24.7047 C   0  0  0  0  0  0  0  0  0  0  0  0
  -29.1147  -27.6823   20.8427 C   0  0  0  0  0  0  0  0  0  0  0  0
  -30.9460  -19.3519   20.6994 C   0  0  0  0  0  0  0  0  0  0  0  0
  -29.2994  -19.4448   22.4649 C   0  0  0  0  0  0  0  0  0  0  0  0
  -30.8455  -17.9608   20.6788 C   0  0  0  0  0  0  0  0  0  0  0  0
  -29.1988  -18.0537   22.4443 C   0  0  0  0  0  0  0  0  0  0  0  0
  -22.4749   -8.5649   20.1468 C   0  0  0  0  0  0  0  0  0  0  0  0
  -23.2227   -8.5877   22.4440 C   0  0  0  0  0  0  0  0  0  0  0  0
  -29.4318  -26.3378   21.0313 C   0  0  0  0  0  0  0  0  0  0  0  0
  -20.0343   -7.6289   23.0228 C   0  0  0  0  0  0  0  0  0  0  0  0
  -19.2747   -7.5416   24.1894 C   0  0  0  0  0  0  0  0  0  0  0  0
  -27.1952  -25.7235   20.3684 C   0  0  0  0  0  0  0  0  0  0  0  0
  -20.6051   -5.6599   24.9149 C   0  0  0  0  0  0  0  0  0  0  0  0
  -23.8812  -10.3614   20.9416 C   0  0  0  0  0  0  0  0  0  0  0  0
  -24.1007  -12.9011   20.8458 C   0  0  0  0  0  0  0  0  0  0  0  0
  -25.4096  -33.6187   24.5617 C   0  0  0  0  0  0  0  0  0  0  0  0
  -27.8299  -28.0588   20.4253 C   0  0  0  0  0  0  0  0  0  0  0  0
  -25.9355  -32.3325   24.3350 C   0  0  0  0  0  0  0  0  0  0  0  0
  -26.8651  -27.0732   20.1728 C   0  0  0  0  0  0  0  0  0  0  0  0
  -30.1729  -20.0939   21.5925 C   0  0  0  0  0  0  0  0  0  0  0  0
  -29.9719  -17.3117   21.5512 C   0  0  0  0  0  0  0  0  0  0  0  0
  -22.5047   -7.9812   21.4133 C   0  0  0  0  0  0  0  0  0  0  0  0
  -28.4712  -25.3583   20.7969 C   0  0  0  0  0  0  0  0  0  0  0  0
  -21.0793   -6.7316   22.8022 C   0  0  0  0  0  0  0  0  0  0  0  0
  -19.5601   -6.5572   25.1355 C   0  0  0  0  0  0  0  0  0  0  0  0
  -21.3647   -5.7472   23.7483 C   0  0  0  0  0  0  0  0  0  0  0  0
  -24.5928  -11.5904   20.6984 C   0  0  0  0  0  0  0  0  0  0  0  0
  -25.1569  -13.7059   20.4949 C   0  0  0  0  0  0  0  0  0  0  0  0
  -22.8048  -13.3509   21.2628 C   0  0  0  0  0  0  0  0  0  0  0  0
  -25.4880  -29.8073   21.6749 C   0  0  0  0  0  0  0  0  0  0  0  0
  -24.1132  -29.3323   18.7755 C   0  0  0  0  0  0  0  0  0  0  0  0
  -23.8761  -27.4178   15.9603 C   0  0  0  0  0  0  0  0  0  0  0  0
  -30.5651  -15.0135   20.7069 C   0  0  0  0  0  0  0  0  0  0  0  0
  -23.9783  -33.9603   24.2306 C   0  0  0  0  0  0  0  0  0  0  0  0
  -27.5117  -29.5116   20.2008 C   0  0  0  0  0  0  0  0  0  0  0  0
  -25.4773  -27.4237   19.7040 C   0  0  0  0  0  0  0  0  0  0  0  0
  -23.3253  -32.9759   23.2638 C   0  0  0  0  0  0  0  0  0  0  0  0
  -29.5802  -12.5703   18.3116 C   0  0  0  0  0  0  0  0  0  0  0  0
  -23.6115  -31.5395   23.6900 C   0  0  0  0  0  0  0  0  0  0  0  0
  -28.1544  -12.2054   18.7311 C   0  0  0  0  0  0  0  0  0  0  0  0
  -31.1337  -23.6452   21.3375 C   0  0  0  0  0  0  0  0  0  0  0  0
  -30.4775  -12.8322   19.5199 C   0  0  0  0  0  0  0  0  0  0  0  0
  -31.1586  -22.2369   20.7435 C   0  0  0  0  0  0  0  0  0  0  0  0
  -28.5312  -13.4507   20.8977 C   0  0  0  0  0  0  0  0  0  0  0  0
  -29.5018  -22.3327   22.5089 C   0  0  0  0  0  0  0  0  0  0  0  0
  -25.1168  -31.2476   23.6696 C   0  0  1  0  0  0  0  0  0  0  0  0
  -26.0179  -29.8135   20.2689 C   0  0  1  0  0  0  0  0  0  0  0  0
  -27.5735  -13.2413   19.7134 C   0  0  2  0  0  0  0  0  0  0  0  0
  -29.7534  -23.7407   21.9711 C   0  0  2  0  0  0  0  0  0  1  0  0
  -22.6381  -27.2611   13.7831 C   0  0  0  0  0  0  0  0  0  0  0  0
  -21.6540  -28.2914   20.2515 C   0  0  0  0  0  0  0  0  0  0  0  0
  -20.8693  -27.2905   18.0950 C   0  0  0  0  0  0  0  0  0  0  0  0
  -21.1500  -29.7613   18.2920 C   0  0  0  0  0  0  0  0  0  0  0  0
  -26.3719  -27.6695   14.3897 C   0  0  0  0  0  0  0  0  0  0  0  0
  -23.2001  -28.2857   18.1838 C   0  0  1  0  0  0  0  0  0  0  0  0
  -23.8788  -27.7871   14.4878 C   0  0  2  0  0  0  0  0  0  0  0  0
  -21.7439  -28.4004   18.7163 C   0  0  0  0  0  0  0  0  0  0  0  0
  -25.8628  -11.5598   20.2858 N   0  0  0  0  0  0  0  0  0  0  0  0
  -26.1776  -12.8613   20.1709 N   0  0  0  0  0  0  0  0  0  0  0  0
  -30.2736  -21.4691   21.6143 N   0  0  3  0  0  0  0  0  0  0  0  0
  -25.2128  -28.8583   19.5050 N   0  0  0  0  0  0  0  0  0  0  0  0
  -29.8651  -13.8267   20.4035 N   0  0  0  0  0  0  0  0  0  0  0  0
  -25.3029  -15.0467   20.4348 N   0  0  0  0  0  0  0  0  0  0  0  0
  -21.8366  -12.3907   21.5868 N   0  0  0  0  0  0  0  0  0  0  0  0
  -29.8698  -15.8986   21.5302 N   0  0  0  0  0  0  0  0  0  0  0  0
  -25.5711  -31.0303   22.3128 N   0  0  0  0  0  0  0  0  0  0  0  0
  -23.3185  -28.4126   16.7353 N   0  0  0  0  0  0  0  0  0  0  0  0
  -25.0795  -27.2175   13.8132 N   0  3  0  0  0  0  0  0  0  0  0  0
  -22.5089  -14.5681   21.3299 O   0  0  0  0  0  0  0  0  0  0  0  0
  -25.0358  -28.7702   22.1456 O   0  0  0  0  0  0  0  0  0  0  0  0
  -23.8642  -30.5262   18.5909 O   0  0  0  0  0  0  0  0  0  0  0  0
  -24.3205  -26.3517   16.3805 O   0  0  0  0  0  0  0  0  0  0  0  0
  -31.6869  -15.2410   20.2467 O   0  0  0  0  0  0  0  0  0  0  0  0
  -21.8330   -6.8201   21.6439 O   0  0  0  0  0  0  0  0  0  0  0  0
  -28.7779  -24.0453   20.9808 O   0  0  0  0  0  0  0  0  0  1  0  0
  -18.8315   -6.4744   26.2564 F   0  0  0  0  0  0  0  0  0  0  0  0
  -22.3681   -4.8832   23.5424 F   0  0  0  0  0  0  0  0  0  0  0  0
  1  2  1  0  0  0  0
  1  5  2  0  0  0  0
  2  6  2  0  0  0  0
  3 12  2  0  0  0  0
  3 19  1  0  0  0  0
  4 13  1  0  0  0  0
  4 19  2  0  0  0  0
  5 21  1  0  0  0  0
  6 23  1  0  0  0  0
  7 14  2  0  0  0  0
  7 22  1  0  0  0  0
  8 10  2  0  0  0  0
  8 25  1  0  0  0  0
  9 11  1  0  0  0  0
  9 25  2  0  0  0  0
 10 26  1  0  0  0  0
 11 26  2  0  0  0  0
 12 27  1  0  0  0  0
 13 27  2  0  0  0  0
 14 28  1  0  0  0  0
 15 16  2  0  0  0  0
 15 29  1  0  0  0  0
 16 30  1  0  0  0  0
 17 24  1  0  0  0  0
 17 28  2  0  0  0  0
 18 30  2  0  0  0  0
 18 31  1  0  0  0  0
 19 32  1  0  0  0  0
 20 32  1  0  0  0  0
 20 33  2  0  0  0  0
 20 34  1  0  0  0  0
 21 23  2  0  0  0  0
 21 39  1  0  0  0  0
 22 24  2  0  0  0  0
 22 40  1  0  0  0  0
 23 51  1  0  0  0  0
 24 41  1  0  0  0  0
 25 65  1  0  0  0  0
 26 70  1  0  0  0  0
 27 79  1  0  0  0  0
 28 80  1  0  0  0  0
 29 31  2  0  0  0  0
 29 79  1  0  0  0  0
 30 81  1  0  0  0  0
 31 82  1  0  0  0  0
 32 63  2  0  0  0  0
 33 64  1  0  0  0  0
 33 68  1  0  0  0  0
 34 69  1  0  0  0  0
 34 74  2  0  0  0  0
 35 52  1  0  0  0  0
 35 71  1  0  0  0  0
 35 75  2  0  0  0  0
 36 60  1  0  0  0  0
 36 66  1  0  0  0  0
 36 76  2  0  0  0  0
 37 61  1  0  0  0  0
 37 72  1  0  0  0  0
 37 77  2  0  0  0  0
 38 67  1  0  0  0  0
 38 70  1  0  0  0  0
 38 78  2  0  0  0  0
 39 42  1  0  0  0  0
 40 52  1  0  0  0  0
 41 66  1  0  0  0  0
 42 44  1  0  0  0  0
 43 45  1  0  0  0  0
 43 47  1  0  0  0  0
 44 51  1  0  0  0  0
 45 53  1  0  0  0  0
 46 48  1  0  0  0  0
 46 54  1  0  0  0  0
 47 67  1  0  0  0  0
 48 65  1  0  0  0  0
 49 53  1  0  0  0  0
 49 67  1  0  0  0  0
 50 54  1  0  0  0  0
 50 65  1  0  0  0  0
 51 71  1  0  0  0  0
 52 66  1  0  0  0  0
 53 64  1  0  0  0  0
 54 80  1  0  0  0  0
 55 61  1  0  0  0  0
 56 62  1  0  0  0  0
 57 62  1  0  0  0  0
 58 62  1  0  0  0  0
 59 73  1  0  0  0  0
 60 62  1  0  0  0  0
 60 72  1  0  0  0  0
 61 73  1  0  0  0  0
 63 64  1  0  0  0  0
M  CHG  1  73   1
M  ISO  4  38 100  54 101  70 100  80 101
M  END
> <Batch ID>
0012

> <Smiles>
CNC(C)C(=O)NC(C(=O)N1Cc2cc([101O:1][101CH:1]3CCN(c4ccc([100NH:0][100C:0](=O)N5CCCC(n6nc(-c7ccc(Oc8ccc(F)cc8F)cc7)c(C(N)=O)c6N)C5)cc4)C3)ccc2CC1C(=O)NC1CCCc2ccccc21)C(C)(C)C

> <Shape>
0.353

> <Color>
0.208

> <Negative vol penalty>
0.000

$$$$

  -OEChem-04042320463D

 77 85  0     1  0  0  0  0  0999 V2000
  -27.4088  -37.0804   21.7922 C   0  0  0  0  0  0  0  0  0  0  0  0
  -27.9348  -35.8157   21.5487 C   0  0  0  0  0  0  0  0  0  0  0  0
  -26.4288  -13.9542   21.4334 C   0  0  0  0  0  0  0  0  0  0  0  0
  -25.4579  -13.2370   19.3405 C   0  0  0  0  0  0  0  0  0  0  0  0
  -26.2465  -37.2167   22.5501 C   0  0  0  0  0  0  0  0  0  0  0  0
  -27.2992  -34.6865   22.0640 C   0  0  0  0  0  0  0  0  0  0  0  0
  -26.9119  -29.1637   19.4459 C   0  0  0  0  0  0  0  0  0  0  0  0
  -25.4605  -13.2316   22.1303 C   0  0  0  0  0  0  0  0  0  0  0  0
  -24.4895  -12.5143   20.0375 C   0  0  0  0  0  0  0  0  0  0  0  0
  -27.6390  -27.9877   19.6249 C   0  0  0  0  0  0  0  0  0  0  0  0
  -24.2792   -9.5587   21.6624 C   0  0  0  0  0  0  0  0  0  0  0  0
  -24.0016   -8.2629   21.2272 C   0  0  0  0  0  0  0  0  0  0  0  0
  -25.9509  -27.1829   21.1487 C   0  0  0  0  0  0  0  0  0  0  0  0
  -21.7027   -8.8896   20.8276 C   0  0  0  0  0  0  0  0  0  0  0  0
  -26.4275  -13.9570   20.0385 C   0  0  0  0  0  0  0  0  0  0  0  0
  -28.6874  -14.2444   18.8905 C   0  0  0  0  0  0  0  0  0  0  0  0
  -25.5910  -36.0880   23.0667 C   0  0  0  0  0  0  0  0  0  0  0  0
  -25.7021  -29.3631   20.1265 C   0  0  0  0  0  0  0  0  0  0  0  0
  -26.1278  -34.8079   22.8306 C   0  0  0  0  0  0  0  0  0  0  0  0
  -25.2090  -28.3612   20.9746 C   0  0  0  0  0  0  0  0  0  0  0  0
  -24.4908  -12.5116   21.4324 C   0  0  0  0  0  0  0  0  0  0  0  0
  -27.1601  -26.9983   20.4786 C   0  0  0  0  0  0  0  0  0  0  0  0
  -23.2686  -10.5200   21.6804 C   0  0  0  0  0  0  0  0  0  0  0  0
  -22.7134   -7.9284   20.8097 C   0  0  0  0  0  0  0  0  0  0  0  0
  -21.9804  -10.1854   21.2630 C   0  0  0  0  0  0  0  0  0  0  0  0
  -27.4272  -14.7037   19.3180 C   0  0  0  0  0  0  0  0  0  0  0  0
  -29.2504  -15.3257   18.2578 C   0  0  0  0  0  0  0  0  0  0  0  0
  -29.2948  -12.9556   19.0509 C   0  0  0  0  0  0  0  0  0  0  0  0
  -24.6511  -31.4688   22.2631 C   0  0  0  0  0  0  0  0  0  0  0  0
  -21.8260  -29.9438   21.7987 C   0  0  0  0  0  0  0  0  0  0  0  0
  -20.1878  -27.1103   20.8320 C   0  0  0  0  0  0  0  0  0  0  0  0
  -28.6413  -21.0511   18.7934 C   0  0  0  0  0  0  0  0  0  0  0  0
  -24.3637  -36.2885   23.9200 C   0  0  0  0  0  0  0  0  0  0  0  0
  -24.9164  -30.6259   19.9020 C   0  0  0  0  0  0  0  0  0  0  0  0
  -23.9056  -28.5178   21.7129 C   0  0  0  0  0  0  0  0  0  0  0  0
  -23.5427  -35.0163   24.1147 C   0  0  0  0  0  0  0  0  0  0  0  0
  -28.0896  -19.2674   15.8177 C   0  0  0  0  0  0  0  0  0  0  0  0
  -24.4508  -33.8450   24.4757 C   0  0  0  0  0  0  0  0  0  0  0  0
  -27.9789  -17.8347   16.3385 C   0  0  0  0  0  0  0  0  0  0  0  0
  -29.4310  -24.3015   19.6572 C   0  0  0  0  0  0  0  0  0  0  0  0
  -27.3849  -20.2672   16.7363 C   0  0  0  0  0  0  0  0  0  0  0  0
  -29.6367  -23.3031   18.5256 C   0  0  0  0  0  0  0  0  0  0  0  0
  -27.7086  -18.7598   18.6708 C   0  0  0  0  0  0  0  0  0  0  0  0
  -27.1981  -23.0535   18.2261 C   0  0  0  0  0  0  0  0  0  0  0  0
  -25.4534  -33.5574   23.3516 C   0  0  1  0  0  0  0  0  0  0  0  0
  -23.9527  -30.9407   21.0420 C   0  0  1  0  0  0  0  0  0  0  0  0
  -28.4559  -17.7390   17.7986 C   0  0  1  0  0  0  0  0  0  0  0  0
  -28.1087  -25.0511   19.4962 C   0  0  1  0  0  0  0  0  0  1  0  0
  -26.9430  -24.0818   19.3255 C   0  0  1  0  0  0  0  0  0  0  0  0
  -17.8806  -26.1517   20.5971 C   0  0  0  0  0  0  0  0  0  0  0  0
  -21.6835  -29.5523   24.8214 C   0  0  0  0  0  0  0  0  0  0  0  0
  -19.9190  -27.8168   24.4434 C   0  0  0  0  0  0  0  0  0  0  0  0
  -19.5135  -30.1776   23.7470 C   0  0  0  0  0  0  0  0  0  0  0  0
  -20.5150  -26.7350   17.9146 C   0  0  0  0  0  0  0  0  0  0  0  0
  -21.1357  -28.7572   22.4269 C   0  0  1  0  0  0  0  0  0  0  0  0
  -19.0085  -26.8968   19.9003 C   0  0  2  0  0  0  0  0  0  0  0  0
  -20.5885  -29.0736   23.8474 C   0  0  0  0  0  0  0  0  0  0  0  0
  -27.2025  -15.9776   18.9851 N   0  0  0  0  0  0  0  0  0  0  0  0
  -28.3292  -16.3280   18.3418 N   0  0  0  0  0  0  0  0  0  0  0  0
  -23.1771  -29.7730   21.4652 N   0  0  0  0  0  0  0  0  0  0  0  0
  -27.8433  -20.1116   18.1239 N   0  0  0  0  0  0  0  0  0  0  0  0
  -28.4953  -22.3942   18.4164 N   0  0  0  0  0  0  0  0  0  0  0  0
  -30.4386  -15.5075   17.6434 N   0  0  0  0  0  0  0  0  0  0  0  0
  -28.5777  -11.9585   19.7261 N   0  0  0  0  0  0  0  0  0  0  0  0
  -24.8096  -32.8414   22.2711 N   0  0  0  0  0  0  0  0  0  0  0  0
  -20.1162  -28.3275   21.4758 N   0  0  0  0  0  0  0  0  0  0  0  0
  -19.4269  -26.1072   18.7077 N   0  3  0  0  0  0  0  0  0  0  0  0
  -30.4460  -12.7008   18.6229 O   0  0  0  0  0  0  0  0  0  0  0  0
  -25.0175  -30.6887   23.1343 O   0  0  0  0  0  0  0  0  0  0  0  0
  -21.1880  -30.9814   21.6044 O   0  0  0  0  0  0  0  0  0  0  0  0
  -21.0811  -26.2787   20.9771 O   0  0  0  0  0  0  0  0  0  0  0  0
  -29.4374  -20.7103   19.6773 O   0  0  0  0  0  0  0  0  0  0  0  0
  -23.5459  -11.8062   22.1121 O   0  0  0  0  0  0  0  0  0  0  0  0
  -27.8726  -25.8427   20.6568 O   0  0  0  0  0  0  0  0  0  1  0  0
  -22.4473   -6.6844   20.3903 F   0  0  0  0  0  0  0  0  0  0  0  0
  -21.0056  -11.1049   21.2769 F   0  0  0  0  0  0  0  0  0  0  0  0
  -25.8363  -24.8008   18.9813 F   0  0  0  0  0  0  0  0  0  0  0  0
  1  2  1  0  0  0  0
  1  5  2  0  0  0  0
  2  6  2  0  0  0  0
  3  8  2  0  0  0  0
  3 15  1  0  0  0  0
  4  9  1  0  0  0  0
  4 15  2  0  0  0  0
  5 17  1  0  0  0  0
  6 19  1  0  0  0  0
  7 10  2  0  0  0  0
  7 18  1  0  0  0  0
  8 21  1  0  0  0  0
  9 21  2  0  0  0  0
 10 22  1  0  0  0  0
 11 12  2  0  0  0  0
 11 23  1  0  0  0  0
 12 24  1  0  0  0  0
 13 20  1  0  0  0  0
 13 22  2  0  0  0  0
 14 24  2  0  0  0  0
 14 25  1  0  0  0  0
 15 26  1  0  0  0  0
 16 26  1  0  0  0  0
 16 27  2  0  0  0  0
 16 28  1  0  0  0  0
 17 19  2  0  0  0  0
 17 33  1  0  0  0  0
 18 20  2  0  0  0  0
 18 34  1  0  0  0  0
 19 45  1  0  0  0  0
 20 35  1  0  0  0  0
 21 73  1  0  0  0  0
 22 74  1  0  0  0  0
 23 25  2  0  0  0  0
 23 73  1  0  0  0  0
 24 75  1  0  0  0  0
 25 76  1  0  0  0  0
 26 58  2  0  0  0  0
 27 59  1  0  0  0  0
 27 63  1  0  0  0  0
 28 64  1  0  0  0  0
 28 68  2  0  0  0  0
 29 46  1  0  0  0  0
 29 65  1  0  0  0  0
 29 69  2  0  0  0  0
 30 55  1  0  0  0  0
 30 60  1  0  0  0  0
 30 70  2  0  0  0  0
 31 56  1  0  0  0  0
 31 66  1  0  0  0  0
 31 71  2  0  0  0  0
 32 61  1  0  0  0  0
 32 62  1  0  0  0  0
 32 72  2  0  0  0  0
 33 36  1  0  0  0  0
 34 46  1  0  0  0  0
 35 60  1  0  0  0  0
 36 38  1  0  0  0  0
 37 39  1  0  0  0  0
 37 41  1  0  0  0  0
 38 45  1  0  0  0  0
 39 47  1  0  0  0  0
 40 42  1  0  0  0  0
 40 48  1  0  0  0  0
 41 61  1  0  0  0  0
 42 62  1  0  0  0  0
 43 47  1  0  0  0  0
 43 61  1  0  0  0  0
 44 49  1  0  0  0  0
 44 62  1  0  0  0  0
 45 65  1  0  0  0  0
 46 60  1  0  0  0  0
 47 59  1  0  0  0  0
 48 49  1  0  0  0  0
 48 74  1  0  0  0  0
 49 77  1  0  0  0  0
 50 56  1  0  0  0  0
 51 57  1  0  0  0  0
 52 57  1  0  0  0  0
 53 57  1  0  0  0  0
 54 67  1  0  0  0  0
 55 57  1  0  0  0  0
 55 66  1  0  0  0  0
 56 67  1  0  0  0  0
 58 59  1  0  0  0  0
M  CHG  1  67   1
M  ISO  4  32 100  48 101  62 100  74 101
M  END
> <Batch ID>
0012

> <Smiles>
CNC(C)C(=O)NC(C(=O)N1Cc2cc([101O:1][101CH:1]3CC[100N:0]([100C:0](=O)N4CCCC(n5nc(-c6ccc(Oc7ccc(F)cc7F)cc6)c(C(N)=O)c5N)C4)CC3F)ccc2CC1C(=O)NC1CCCc2ccccc21)C(C)(C)C

> <Shape>
0.315

> <Color>
0.088

> <Negative vol penalty>
0.000

$$$$

  -OEChem-04042320463D

 82 90  0     1  0  0  0  0  0999 V2000
  -16.8271  -29.0839   24.1518 C   0  0  0  0  0  0  0  0  0  0  0  0
  -17.7065  -28.0530   23.8366 C   0  0  0  0  0  0  0  0  0  0  0  0
  -23.7842   -9.5489   19.9027 C   0  0  0  0  0  0  0  0  0  0  0  0
  -23.9808   -9.8522   22.2916 C   0  0  0  0  0  0  0  0  0  0  0  0
  -17.0809  -30.3780   23.6992 C   0  0  0  0  0  0  0  0  0  0  0  0
  -18.8397  -28.3154   23.0675 C   0  0  0  0  0  0  0  0  0  0  0  0
  -24.3294  -25.6480   23.5712 C   0  0  0  0  0  0  0  0  0  0  0  0
  -23.2379   -8.2821   20.1085 C   0  0  0  0  0  0  0  0  0  0  0  0
  -23.4344   -8.5854   22.4973 C   0  0  0  0  0  0  0  0  0  0  0  0
  -24.9362  -24.6100   22.8654 C   0  0  0  0  0  0  0  0  0  0  0  0
  -20.3685   -7.1640   22.4793 C   0  0  0  0  0  0  0  0  0  0  0  0
  -19.3847   -7.0357   23.4597 C   0  0  0  0  0  0  0  0  0  0  0  0
  -26.0514  -26.2242   21.4619 C   0  0  0  0  0  0  0  0  0  0  0  0
  -28.2113  -20.3405   23.0701 C   0  0  0  0  0  0  0  0  0  0  0  0
  -29.2734  -20.2311   20.9029 C   0  0  0  0  0  0  0  0  0  0  0  0
  -20.7711   -5.4499   24.6432 C   0  0  0  0  0  0  0  0  0  0  0  0
  -24.1558  -10.3339   20.9943 C   0  0  0  0  0  0  0  0  0  0  0  0
  -24.0258  -12.8628   20.6848 C   0  0  0  0  0  0  0  0  0  0  0  0
  -18.2229  -30.6583   22.9323 C   0  0  0  0  0  0  0  0  0  0  0  0
  -24.5710  -26.9839   23.2200 C   0  0  0  0  0  0  0  0  0  0  0  0
  -19.1083  -29.6142   22.6031 C   0  0  0  0  0  0  0  0  0  0  0  0
  -25.4484  -27.2774   22.1665 C   0  0  0  0  0  0  0  0  0  0  0  0
  -28.3108  -18.9543   23.1889 C   0  0  0  0  0  0  0  0  0  0  0  0
  -28.8916  -18.2065   22.1647 C   0  0  0  0  0  0  0  0  0  0  0  0
  -23.0629   -7.8004   21.4058 C   0  0  0  0  0  0  0  0  0  0  0  0
  -25.7950  -24.8979   21.8088 C   0  0  0  0  0  0  0  0  0  0  0  0
  -21.5536   -6.4353   22.5807 C   0  0  0  0  0  0  0  0  0  0  0  0
  -28.6926  -20.9789   21.9271 C   0  0  0  0  0  0  0  0  0  0  0  0
  -19.5860   -6.1787   24.5417 C   0  0  0  0  0  0  0  0  0  0  0  0
  -29.3730  -18.8448   21.0217 C   0  0  0  0  0  0  0  0  0  0  0  0
  -21.7549   -5.5783   23.6627 C   0  0  0  0  0  0  0  0  0  0  0  0
  -24.7207  -11.6424   20.7824 C   0  0  0  0  0  0  0  0  0  0  0  0
  -25.0078  -13.8021   20.4857 C   0  0  0  0  0  0  0  0  0  0  0  0
  -22.6184  -13.1239   20.7670 C   0  0  0  0  0  0  0  0  0  0  0  0
  -22.7726  -29.3911   22.1831 C   0  0  0  0  0  0  0  0  0  0  0  0
  -25.5169  -31.0830   22.5415 C   0  0  0  0  0  0  0  0  0  0  0  0
  -28.9261  -31.0752   22.6959 C   0  0  0  0  0  0  0  0  0  0  0  0
  -29.9831  -15.9822   21.7091 C   0  0  0  0  0  0  0  0  0  0  0  0
  -18.4302  -32.0637   22.4258 C   0  0  0  0  0  0  0  0  0  0  0  0
  -23.9295  -28.0927   24.0084 C   0  0  0  0  0  0  0  0  0  0  0  0
  -25.7568  -28.6953   21.7628 C   0  0  0  0  0  0  0  0  0  0  0  0
  -19.8498  -32.3298   21.9316 C   0  0  0  0  0  0  0  0  0  0  0  0
  -29.9266  -13.2513   19.4252 C   0  0  0  0  0  0  0  0  0  0  0  0
  -20.3228  -31.1940   21.0298 C   0  0  0  0  0  0  0  0  0  0  0  0
  -28.5100  -12.6896   19.5667 C   0  0  0  0  0  0  0  0  0  0  0  0
  -30.4797  -13.7386   20.7633 C   0  0  0  0  0  0  0  0  0  0  0  0
  -28.2038  -14.1269   21.6228 C   0  0  0  0  0  0  0  0  0  0  0  0
  -20.3613  -29.8639   21.7920 C   0  0  1  0  0  0  0  0  0  0  0  0
  -23.8457  -29.4049   23.2347 C   0  0  1  0  0  0  0  0  0  0  0  0
  -27.5795  -13.6831   20.2898 C   0  0  2  0  0  0  0  0  0  0  0  0
  -27.7865  -18.2974   24.4244 C   0  0  0  0  0  0  0  0  0  0  0  0
  -30.8897  -32.6156   22.9581 C   0  0  0  0  0  0  0  0  0  0  0  0
  -25.1867  -31.9926   19.6478 C   0  0  0  0  0  0  0  0  0  0  0  0
  -27.5846  -32.7120   19.6735 C   0  0  0  0  0  0  0  0  0  0  0  0
  -25.9471  -33.7801   21.2229 C   0  0  0  0  0  0  0  0  0  0  0  0
  -29.7921  -29.7353   25.1886 C   0  0  0  0  0  0  0  0  0  0  0  0
  -27.6694  -24.1528   20.5488 C   0  0  0  0  0  0  0  0  0  1  0  0
  -28.4644  -22.8626   20.4934 C   0  0  0  0  0  0  0  0  0  0  0  0
  -26.6974  -31.4052   21.6575 C   0  0  1  0  0  0  0  0  0  0  0  0
  -29.8916  -31.7192   23.6744 C   0  0  2  0  0  0  0  0  0  0  0  0
  -26.3468  -32.4456   20.5565 C   0  0  0  0  0  0  0  0  0  0  0  0
  -26.0421  -11.7899   20.6554 N   0  0  0  0  0  0  0  0  0  0  0  0
  -26.1854  -13.1140   20.4760 N   0  0  0  0  0  0  0  0  0  0  0  0
  -25.1002  -29.7444   22.5601 N   0  0  0  0  0  0  0  0  0  0  0  0
  -29.5472  -14.6792   21.3881 N   0  0  0  0  0  0  0  0  0  0  0  0
  -24.9703  -15.1413   20.3195 N   0  0  0  0  0  0  0  0  0  0  0  0
  -21.7495  -12.0441   20.9749 N   0  0  0  0  0  0  0  0  0  0  0  0
  -29.0001  -16.7975   22.2690 N   0  0  0  0  0  0  0  0  0  0  0  0
  -21.5336  -29.8001   22.6382 N   0  0  0  0  0  0  0  0  0  0  0  0
  -27.7746  -31.8195   22.5499 N   0  0  0  0  0  0  0  0  0  0  0  0
  -30.6489  -30.6737   24.4190 N   0  3  0  0  0  0  0  0  0  0  0  0
  -22.1441  -14.2786   20.6430 O   0  0  0  0  0  0  0  0  0  0  0  0
  -23.0485  -29.0370   21.0429 O   0  0  0  0  0  0  0  0  0  0  0  0
  -24.9885  -31.9845   23.1971 O   0  0  0  0  0  0  0  0  0  0  0  0
  -29.1707  -30.0195   22.1161 O   0  0  0  0  0  0  0  0  0  0  0  0
  -31.1357  -16.3564   21.4775 O   0  0  0  0  0  0  0  0  0  0  0  0
  -22.5296   -6.5644   21.6069 O   0  0  0  0  0  0  0  0  0  0  0  0
  -26.3881  -23.8866   21.1178 O   0  0  0  0  0  0  0  0  0  1  0  0
  -28.5950  -22.3405   21.8101 O   0  0  0  0  0  0  0  0  0  0  0  0
  -18.6419   -6.0567   25.4840 F   0  0  0  0  0  0  0  0  0  0  0  0
  -29.9333  -18.1371   20.0303 F   0  0  0  0  0  0  0  0  0  0  0  0
  -22.8918   -4.8765   23.7662 F   0  0  0  0  0  0  0  0  0  0  0  0
  1  2  1  0  0  0  0
  1  5  2  0  0  0  0
  2  6  2  0  0  0  0
  3  8  2  0  0  0  0
  3 17  1  0  0  0  0
  4  9  1  0  0  0  0
  4 17  2  0  0  0  0
  5 19  1  0  0  0  0
  6 21  1  0  0  0  0
  7 10  2  0  0  0  0
  7 20  1  0  0  0  0
  8 25  1  0  0  0  0
  9 25  2  0  0  0  0
 10 26  1  0  0  0  0
 11 12  2  0  0  0  0
 11 27  1  0  0  0  0
 12 29  1  0  0  0  0
 13 22  1  0  0  0  0
 13 26  2  0  0  0  0
 14 23  2  0  0  0  0
 14 28  1  0  0  0  0
 15 28  2  0  0  0  0
 15 30  1  0  0  0  0
 16 29  2  0  0  0  0
 16 31  1  0  0  0  0
 17 32  1  0  0  0  0
 18 32  1  0  0  0  0
 18 33  2  0  0  0  0
 18 34  1  0  0  0  0
 19 21  2  0  0  0  0
 19 39  1  0  0  0  0
 20 22  2  0  0  0  0
 20 40  1  0  0  0  0
 21 48  1  0  0  0  0
 22 41  1  0  0  0  0
 23 24  1  0  0  0  0
 23 51  1  0  0  0  0
 24 30  2  0  0  0  0
 24 68  1  0  0  0  0
 25 77  1  0  0  0  0
 26 78  1  0  0  0  0
 27 31  2  0  0  0  0
 27 77  1  0  0  0  0
 28 79  1  0  0  0  0
 29 80  1  0  0  0  0
 30 81  1  0  0  0  0
 31 82  1  0  0  0  0
 32 62  2  0  0  0  0
 33 63  1  0  0  0  0
 33 66  1  0  0  0  0
 34 67  1  0  0  0  0
 34 72  2  0  0  0  0
 35 49  1  0  0  0  0
 35 69  1  0  0  0  0
 35 73  2  0  0  0  0
 36 59  1  0  0  0  0
 36 64  1  0  0  0  0
 36 74  2  0  0  0  0
 37 60  1  0  0  0  0
 37 70  1  0  0  0  0
 37 75  2  0  0  0  0
 38 65  1  0  0  0  0
 38 68  1  0  0  0  0
 38 76  2  0  0  0  0
 39 42  1  0  0  0  0
 40 49  1  0  0  0  0
 41 64  1  0  0  0  0
 42 44  1  0  0  0  0
 43 45  1  0  0  0  0
 43 46  1  0  0  0  0
 44 48  1  0  0  0  0
 45 50  1  0  0  0  0
 46 65  1  0  0  0  0
 47 50  1  0  0  0  0
 47 65  1  0  0  0  0
 48 69  1  0  0  0  0
 49 64  1  0  0  0  0
 50 63  1  0  0  0  0
 52 60  1  0  0  0  0
 53 61  1  0  0  0  0
 54 61  1  0  0  0  0
 55 61  1  0  0  0  0
 56 71  1  0  0  0  0
 57 58  1  0  0  0  0
 57 78  1  0  0  0  0
 58 79  1  0  0  0  0
 59 61  1  0  0  0  0
 59 70  1  0  0  0  0
 60 71  1  0  0  0  0
 62 63  1  0  0  0  0
M  CHG  1  71   1
M  ISO  4  38 100  57 101  68 100  78 101
M  END
> <Batch ID>
0012

> <Smiles>
CNC(C)C(=O)NC(C(=O)N1Cc2cc([101O:1][101CH2:1]COc3cc(C)c([100NH:0][100C:0](=O)N4CCCC(n5nc(-c6ccc(Oc7ccc(F)cc7F)cc6)c(C(N)=O)c5N)C4)c(F)c3)ccc2CC1C(=O)NC1CCCc2ccccc21)C(C)(C)C

> <Shape>
0.307

> <Color>
0.169

> <Negative vol penalty>
0.000

$$$$

  -OEChem-04042320463D

 82 91  0     1  0  0  0  0  0999 V2000
  -27.5295  -34.3096   25.5324 C   0  0  0  0  0  0  0  0  0  0  0  0
  -28.0544  -33.0424   25.2994 C   0  0  0  0  0  0  0  0  0  0  0  0
  -23.1631   -9.7550   19.9109 C   0  0  0  0  0  0  0  0  0  0  0  0
  -23.9110   -9.7778   22.2081 C   0  0  0  0  0  0  0  0  0  0  0  0
  -26.2139  -34.5953   25.1699 C   0  0  0  0  0  0  0  0  0  0  0  0
  -27.2635  -32.0599   24.7047 C   0  0  0  0  0  0  0  0  0  0  0  0
  -29.1147  -27.6823   20.8427 C   0  0  0  0  0  0  0  0  0  0  0  0
  -30.9460  -19.3519   20.6994 C   0  0  0  0  0  0  0  0  0  0  0  0
  -29.2994  -19.4448   22.4649 C   0  0  0  0  0  0  0  0  0  0  0  0
  -30.8455  -17.9608   20.6788 C   0  0  0  0  0  0  0  0  0  0  0  0
  -29.1988  -18.0537   22.4443 C   0  0  0  0  0  0  0  0  0  0  0  0
  -22.4749   -8.5649   20.1468 C   0  0  0  0  0  0  0  0  0  0  0  0
  -23.2227   -8.5877   22.4440 C   0  0  0  0  0  0  0  0  0  0  0  0
  -29.4318  -26.3378   21.0313 C   0  0  0  0  0  0  0  0  0  0  0  0
  -20.0343   -7.6289   23.0228 C   0  0  0  0  0  0  0  0  0  0  0  0
  -19.2747   -7.5416   24.1894 C   0  0  0  0  0  0  0  0  0  0  0  0
  -27.1952  -25.7235   20.3684 C   0  0  0  0  0  0  0  0  0  0  0  0
  -20.6051   -5.6599   24.9149 C   0  0  0  0  0  0  0  0  0  0  0  0
  -23.8812  -10.3614   20.9416 C   0  0  0  0  0  0  0  0  0  0  0  0
  -24.1007  -12.9011   20.8458 C   0  0  0  0  0  0  0  0  0  0  0  0
  -25.4096  -33.6187   24.5617 C   0  0  0  0  0  0  0  0  0  0  0  0
  -27.8299  -28.0588   20.4253 C   0  0  0  0  0  0  0  0  0  0  0  0
  -25.9355  -32.3325   24.3350 C   0  0  0  0  0  0  0  0  0  0  0  0
  -26.8651  -27.0732   20.1728 C   0  0  0  0  0  0  0  0  0  0  0  0
  -30.1729  -20.0939   21.5925 C   0  0  0  0  0  0  0  0  0  0  0  0
  -29.9719  -17.3117   21.5512 C   0  0  0  0  0  0  0  0  0  0  0  0
  -22.5047   -7.9812   21.4133 C   0  0  0  0  0  0  0  0  0  0  0  0
  -28.4712  -25.3583   20.7969 C   0  0  0  0  0  0  0  0  0  0  0  0
  -21.0793   -6.7316   22.8022 C   0  0  0  0  0  0  0  0  0  0  0  0
  -19.5601   -6.5572   25.1355 C   0  0  0  0  0  0  0  0  0  0  0  0
  -21.3647   -5.7472   23.7483 C   0  0  0  0  0  0  0  0  0  0  0  0
  -24.5928  -11.5904   20.6984 C   0  0  0  0  0  0  0  0  0  0  0  0
  -25.1569  -13.7059   20.4949 C   0  0  0  0  0  0  0  0  0  0  0  0
  -22.8048  -13.3509   21.2628 C   0  0  0  0  0  0  0  0  0  0  0  0
  -25.4880  -29.8073   21.6749 C   0  0  0  0  0  0  0  0  0  0  0  0
  -24.1132  -29.3323   18.7755 C   0  0  0  0  0  0  0  0  0  0  0  0
  -23.8761  -27.4178   15.9603 C   0  0  0  0  0  0  0  0  0  0  0  0
  -30.5651  -15.0135   20.7069 C   0  0  0  0  0  0  0  0  0  0  0  0
  -23.9783  -33.9603   24.2306 C   0  0  0  0  0  0  0  0  0  0  0  0
  -27.5117  -29.5116   20.2008 C   0  0  0  0  0  0  0  0  0  0  0  0
  -25.4773  -27.4237   19.7040 C   0  0  0  0  0  0  0  0  0  0  0  0
  -23.3253  -32.9759   23.2638 C   0  0  0  0  0  0  0  0  0  0  0  0
  -29.5802  -12.5703   18.3116 C   0  0  0  0  0  0  0  0  0  0  0  0
  -23.6115  -31.5395   23.6900 C   0  0  0  0  0  0  0  0  0  0  0  0
  -28.1544  -12.2054   18.7311 C   0  0  0  0  0  0  0  0  0  0  0  0
  -31.1337  -23.6452   21.3375 C   0  0  0  0  0  0  0  0  0  0  0  0
  -30.4775  -12.8322   19.5199 C   0  0  0  0  0  0  0  0  0  0  0  0
  -31.1586  -22.2369   20.7435 C   0  0  0  0  0  0  0  0  0  0  0  0
  -28.5312  -13.4507   20.8977 C   0  0  0  0  0  0  0  0  0  0  0  0
  -29.5018  -22.3327   22.5089 C   0  0  0  0  0  0  0  0  0  0  0  0
  -25.1168  -31.2476   23.6696 C   0  0  1  0  0  0  0  0  0  0  0  0
  -26.0179  -29.8135   20.2689 C   0  0  1  0  0  0  0  0  0  0  0  0
  -27.5735  -13.2413   19.7134 C   0  0  2  0  0  0  0  0  0  0  0  0
  -29.7534  -23.7407   21.9711 C   0  0  2  0  0  0  0  0  0  1  0  0
  -22.6381  -27.2611   13.7831 C   0  0  0  0  0  0  0  0  0  0  0  0
  -21.6540  -28.2914   20.2515 C   0  0  0  0  0  0  0  0  0  0  0  0
  -20.8693  -27.2905   18.0950 C   0  0  0  0  0  0  0  0  0  0  0  0
  -21.1500  -29.7613   18.2920 C   0  0  0  0  0  0  0  0  0  0  0  0
  -26.3719  -27.6695   14.3897 C   0  0  0  0  0  0  0  0  0  0  0  0
  -23.2001  -28.2857   18.1838 C   0  0  1  0  0  0  0  0  0  0  0  0
  -23.8788  -27.7871   14.4878 C   0  0  2  0  0  0  0  0  0  0  0  0
  -21.7439  -28.4004   18.7163 C   0  0  0  0  0  0  0  0  0  0  0  0
  -25.8628  -11.5598   20.2858 N   0  0  0  0  0  0  0  0  0  0  0  0
  -26.1776  -12.8613   20.1709 N   0  0  0  0  0  0  0  0  0  0  0  0
  -30.2736  -21.4691   21.6143 N   0  0  3  0  0  0  0  0  0  0  0  0
  -25.2128  -28.8583   19.5050 N   0  0  0  0  0  0  0  0  0  0  0  0
  -29.8651  -13.8267   20.4035 N   0  0  0  0  0  0  0  0  0  0  0  0
  -25.3029  -15.0467   20.4348 N   0  0  0  0  0  0  0  0  0  0  0  0
  -21.8366  -12.3907   21.5868 N   0  0  0  0  0  0  0  0  0  0  0  0
  -29.8698  -15.8986   21.5302 N   0  0  0  0  0  0  0  0  0  0  0  0
  -25.5711  -31.0303   22.3128 N   0  0  0  0  0  0  0  0  0  0  0  0
  -23.3185  -28.4126   16.7353 N   0  0  0  0  0  0  0  0  0  0  0  0
  -25.0795  -27.2175   13.8132 N   0  3  0  0  0  0  0  0  0  0  0  0
  -22.5089  -14.5681   21.3299 O   0  0  0  0  0  0  0  0  0  0  0  0
  -25.0358  -28.7702   22.1456 O   0  0  0  0  0  0  0  0  0  0  0  0
  -23.8642  -30.5262   18.5909 O   0  0  0  0  0  0  0  0  0  0  0  0
  -24.3205  -26.3517   16.3805 O   0  0  0  0  0  0  0  0  0  0  0  0
  -31.6869  -15.2410   20.2467 O   0  0  0  0  0  0  0  0  0  0  0  0
  -21.8330   -6.8201   21.6439 O   0  0  0  0  0  0  0  0  0  0  0  0
  -28.7779  -24.0453   20.9808 O   0  0  0  0  0  0  0  0  0  1  0  0
  -18.8315   -6.4744   26.2564 F   0  0  0  0  0  0  0  0  0  0  0  0
  -22.3681   -4.8832   23.5424 F   0  0  0  0  0  0  0  0  0  0  0  0
  1  2  1  0  0  0  0
  1  5  2  0  0  0  0
  2  6  2  0  0  0  0
  3 12  2  0  0  0  0
  3 19  1  0  0  0  0
  4 13  1  0  0  0  0
  4 19  2  0  0  0  0
  5 21  1  0  0  0  0
  6 23  1  0  0  0  0
  7 14  2  0  0  0  0
  7 22  1  0  0  0  0
  8 10  2  0  0  0  0
  8 25  1  0  0  0  0
  9 11  1  0  0  0  0
  9 25  2  0  0  0  0
 10 26  1  0  0  0  0
 11 26  2  0  0  0  0
 12 27  1  0  0  0  0
 13 27  2  0  0  0  0
 14 28  1  0  0  0  0
 15 16  2  0  0  0  0
 15 29  1  0  0  0  0
 16 30  1  0  0  0  0
 17 24  1  0  0  0  0
 17 28  2  0  0  0  0
 18 30  2  0  0  0  0
 18 31  1  0  0  0  0
 19 32  1  0  0  0  0
 20 32  1  0  0  0  0
 20 33  2  0  0  0  0
 20 34  1  0  0  0  0
 21 23  2  0  0  0  0
 21 39  1  0  0  0  0
 22 24  2  0  0  0  0
 22 40  1  0  0  0  0
 23 51  1  0  0  0  0
 24 41  1  0  0  0  0
 25 65  1  0  0  0  0
 26 70  1  0  0  0  0
 27 79  1  0  0  0  0
 28 80  1  0  0  0  0
 29 31  2  0  0  0  0
 29 79  1  0  0  0  0
 30 81  1  0  0  0  0
 31 82  1  0  0  0  0
 32 63  2  0  0  0  0
 33 64  1  0  0  0  0
 33 68  1  0  0  0  0
 34 69  1  0  0  0  0
 34 74  2  0  0  0  0
 35 52  1  0  0  0  0
 35 71  1  0  0  0  0
 35 75  2  0  0  0  0
 36 60  1  0  0  0  0
 36 66  1  0  0  0  0
 36 76  2  0  0  0  0
 37 61  1  0  0  0  0
 37 72  1  0  0  0  0
 37 77  2  0  0  0  0
 38 67  1  0  0  0  0
 38 70  1  0  0  0  0
 38 78  2  0  0  0  0
 39 42  1  0  0  0  0
 40 52  1  0  0  0  0
 41 66  1  0  0  0  0
 42 44  1  0  0  0  0
 43 45  1  0  0  0  0
 43 47  1  0  0  0  0
 44 51  1  0  0  0  0
 45 53  1  0  0  0  0
 46 48  1  0  0  0  0
 46 54  1  0  0  0  0
 47 67  1  0  0  0  0
 48 65  1  0  0  0  0
 49 53  1  0  0  0  0
 49 67  1  0  0  0  0
 50 54  1  0  0  0  0
 50 65  1  0  0  0  0
 51 71  1  0  0  0  0
 52 66  1  0  0  0  0
 53 64  1  0  0  0  0
 54 80  1  0  0  0  0
 55 61  1  0  0  0  0
 56 62  1  0  0  0  0
 57 62  1  0  0  0  0
 58 62  1  0  0  0  0
 59 73  1  0  0  0  0
 60 62  1  0  0  0  0
 60 72  1  0  0  0  0
 61 73  1  0  0  0  0
 63 64  1  0  0  0  0
M  CHG  1  73   1
M  ISO  4  38 100  54 101  70 100  80 101
M  END
> <Batch ID>
0012

> <Smiles>
CNC(C)C(=O)NC(C(=O)N1Cc2cc([101O:1][101CH:1]3CCN(c4ccc([100NH:0][100C:0](=O)N5CCCC(n6nc(-c7ccc(Oc8ccc(F)cc8F)cc7)c(C(N)=O)c6N)C5)cc4)C3)ccc2CC1C(=O)NC1CCCc2ccccc21)C(C)(C)C

> <Shape>
0.353

> <Color>
0.208

> <Negative vol penalty>
0.000

$$$$

  -OEChem-04042320463D

 86 94  0     1  0  0  0  0  0999 V2000
  -29.1350  -23.6059   18.1330 C   0  0  0  0  0  0  0  0  0  0  0  0
  -27.9059  -23.8008   18.7547 C   0  0  0  0  0  0  0  0  0  0  0  0
  -28.1199  -15.1647   19.2884 C   0  0  0  0  0  0  0  0  0  0  0  0
  -27.8132  -16.2680   21.4158 C   0  0  0  0  0  0  0  0  0  0  0  0
  -30.2593  -24.2978   18.5814 C   0  0  0  0  0  0  0  0  0  0  0  0
  -27.8005  -24.6870   19.8261 C   0  0  0  0  0  0  0  0  0  0  0  0
  -23.7396  -27.6915   19.4698 C   0  0  0  0  0  0  0  0  0  0  0  0
  -18.3060  -21.7970   24.3278 C   0  0  0  0  0  0  0  0  0  0  0  0
  -29.2520  -15.9432   19.0479 C   0  0  0  0  0  0  0  0  0  0  0  0
  -28.9453  -17.0464   21.1753 C   0  0  0  0  0  0  0  0  0  0  0  0
  -22.5068  -27.1393   19.8147 C   0  0  0  0  0  0  0  0  0  0  0  0
  -18.6208  -22.9509   23.6103 C   0  0  0  0  0  0  0  0  0  0  0  0
  -29.9387  -19.0897   18.0222 C   0  0  0  0  0  0  0  0  0  0  0  0
  -30.0764  -19.6581   16.7559 C   0  0  0  0  0  0  0  0  0  0  0  0
  -22.6429  -28.2007   21.9767 C   0  0  0  0  0  0  0  0  0  0  0  0
  -20.5471  -21.7459   25.2289 C   0  0  0  0  0  0  0  0  0  0  0  0
  -32.1526  -18.4625   16.4449 C   0  0  0  0  0  0  0  0  0  0  0  0
  -27.4004  -15.3271   20.4724 C   0  0  0  0  0  0  0  0  0  0  0  0
  -26.1797  -13.2719   21.3633 C   0  0  0  0  0  0  0  0  0  0  0  0
  -30.1656  -25.2002   19.6527 C   0  0  0  0  0  0  0  0  0  0  0  0
  -24.4396  -28.4949   20.3814 C   0  0  0  0  0  0  0  0  0  0  0  0
  -28.9248  -25.3907   20.2902 C   0  0  0  0  0  0  0  0  0  0  0  0
  -23.8833  -28.7640   21.6400 C   0  0  0  0  0  0  0  0  0  0  0  0
  -19.2692  -21.1945   25.1372 C   0  0  0  0  0  0  0  0  0  0  0  0
  -29.6647  -16.8840   19.9913 C   0  0  0  0  0  0  0  0  0  0  0  0
  -21.9596  -27.3915   21.0694 C   0  0  0  0  0  0  0  0  0  0  0  0
  -30.9081  -18.2077   18.4999 C   0  0  0  0  0  0  0  0  0  0  0  0
  -19.8988  -23.5023   23.7019 C   0  0  0  0  0  0  0  0  0  0  0  0
  -31.1833  -19.3445   15.9672 C   0  0  0  0  0  0  0  0  0  0  0  0
  -20.8620  -22.8998   24.5112 C   0  0  0  0  0  0  0  0  0  0  0  0
  -32.0150  -17.8941   17.7113 C   0  0  0  0  0  0  0  0  0  0  0  0
  -26.2305  -14.5237   20.7212 C   0  0  0  0  0  0  0  0  0  0  0  0
  -24.8490  -12.9322   21.3486 C   0  0  0  0  0  0  0  0  0  0  0  0
  -27.2406  -12.4865   21.9230 C   0  0  0  0  0  0  0  0  0  0  0  0
  -27.2551  -28.2980   21.8435 C   0  0  0  0  0  0  0  0  0  0  0  0
  -19.8607  -16.2645   20.9962 C   0  0  0  0  0  0  0  0  0  0  0  0
  -26.4890  -31.2762   22.8759 C   0  0  0  0  0  0  0  0  0  0  0  0
  -24.0554  -33.5702   23.5555 C   0  0  0  0  0  0  0  0  0  0  0  0
  -31.4182  -25.8898   20.1326 C   0  0  0  0  0  0  0  0  0  0  0  0
  -25.7559  -29.1050   19.9842 C   0  0  0  0  0  0  0  0  0  0  0  0
  -24.5852  -29.6365   22.6472 C   0  0  0  0  0  0  0  0  0  0  0  0
  -31.1449  -27.0922   21.0325 C   0  0  0  0  0  0  0  0  0  0  0  0
  -20.8388  -13.5790   18.8349 C   0  0  0  0  0  0  0  0  0  0  0  0
  -30.1015  -26.7422   22.0887 C   0  0  0  0  0  0  0  0  0  0  0  0
  -22.3336  -13.4221   19.1112 C   0  0  0  0  0  0  0  0  0  0  0  0
  -20.4058  -15.0393   18.9187 C   0  0  0  0  0  0  0  0  0  0  0  0
  -22.2483  -15.5474   20.4898 C   0  0  0  0  0  0  0  0  0  0  0  0
  -28.7652  -26.3622   21.4395 C   0  0  1  0  0  0  0  0  0  0  0  0
  -26.6219  -29.4883   21.1802 C   0  0  1  0  0  0  0  0  0  0  0  0
  -22.7215  -14.0837   20.4454 C   0  0  2  0  0  0  0  0  0  0  0  0
  -23.7341  -35.9027   24.4234 C   0  0  0  0  0  0  0  0  0  0  0  0
  -26.9987  -30.2867   25.7168 C   0  0  0  0  0  0  0  0  0  0  0  0
  -25.7740  -32.2997   26.5631 C   0  0  0  0  0  0  0  0  0  0  0  0
  -27.8696  -32.5820   25.2396 C   0  0  0  0  0  0  0  0  0  0  0  0
  -22.8175  -34.4669   21.0213 C   0  0  0  0  0  0  0  0  0  0  0  0
  -17.6720  -17.8160   25.7726 C   0  0  0  0  0  0  0  0  0  0  0  0
  -18.9323  -19.9598   25.9023 C   0  0  0  0  0  0  0  0  0  0  0  0
  -20.3544  -16.8541   22.2934 C   0  0  0  0  0  0  0  0  0  0  0  0
  -19.2122  -17.5038   23.0676 C   0  0  0  0  0  0  0  0  0  0  0  0
  -19.6907  -18.1616   24.3558 C   0  0  0  0  0  0  0  0  0  0  0  0
  -20.4147  -25.6013   20.8153 C   0  0  0  0  0  0  0  0  0  1  0  0
  -19.5194  -24.8307   21.7661 C   0  0  0  0  0  0  0  0  0  0  0  0
  -25.7554  -31.8381   24.0696 C   0  0  1  0  0  0  0  0  0  0  0  0
  -23.9227  -35.0369   23.1874 C   0  0  2  0  0  0  0  0  0  0  0  0
  -26.5869  -31.7336   25.3793 C   0  0  0  0  0  0  0  0  0  0  0  0
  -25.0277  -14.9502   20.3271 N   0  0  0  0  0  0  0  0  0  0  0  0
  -24.2086  -13.9609   20.7226 N   0  0  0  0  0  0  0  0  0  0  0  0
  -25.8725  -30.2048   22.2142 N   0  0  0  0  0  0  0  0  0  0  0  0
  -20.8123  -15.6380   20.1913 N   0  0  0  0  0  0  0  0  0  0  0  0
  -24.1759  -11.8568   21.8101 N   0  0  0  0  0  0  0  0  0  0  0  0
  -28.5490  -12.9840   21.8528 N   0  0  0  0  0  0  0  0  0  0  0  0
  -28.0586  -27.5484   21.0057 N   0  0  0  0  0  0  0  0  0  0  0  0
  -25.3745  -33.1999   23.7107 N   0  0  0  0  0  0  0  0  0  0  0  0
  -22.7526  -35.2413   22.2874 N   0  3  0  0  0  0  0  0  0  0  0  0
  -18.5189  -18.8215   25.0358 N   0  3  1  0  0  0  0  0  0  0  0  0
  -27.0365  -11.3688   22.4547 O   0  0  0  0  0  0  0  0  0  0  0  0
  -27.0325  -28.0769   23.0281 O   0  0  0  0  0  0  0  0  0  0  0  0
  -18.6641  -16.3566   20.7099 O   0  0  0  0  0  0  0  0  0  0  0  0
  -27.5659  -31.7743   22.5384 O   0  0  0  0  0  0  0  0  0  0  0  0
  -23.0857  -32.8281   23.6952 O   0  0  0  0  0  0  0  0  0  0  0  0
  -30.7696  -17.6436   19.7570 O   0  0  0  0  0  0  0  0  0  0  0  0
  -20.7567  -26.8532   21.4088 O   0  0  0  0  0  0  0  0  0  1  0  0
  -20.2068  -24.6354   22.9960 O   0  0  0  0  0  0  0  0  0  0  0  0
  -31.3146  -19.8892   14.7506 F   0  0  0  0  0  0  0  0  0  0  0  0
  -22.0915  -23.4247   24.6031 F   0  0  0  0  0  0  0  0  0  0  0  0
  -32.9489  -17.0466   18.1644 F   0  0  0  0  0  0  0  0  0  0  0  0
  1  2  1  0  0  0  0
  1  5  2  0  0  0  0
  2  6  2  0  0  0  0
  3  9  2  0  0  0  0
  3 18  1  0  0  0  0
  4 10  1  0  0  0  0
  4 18  2  0  0  0  0
  5 20  1  0  0  0  0
  6 22  1  0  0  0  0
  7 11  2  0  0  0  0
  7 21  1  0  0  0  0
  8 12  2  0  0  0  0
  8 24  1  0  0  0  0
  9 25  1  0  0  0  0
 10 25  2  0  0  0  0
 11 26  1  0  0  0  0
 12 28  1  0  0  0  0
 13 14  2  0  0  0  0
 13 27  1  0  0  0  0
 14 29  1  0  0  0  0
 15 23  1  0  0  0  0
 15 26  2  0  0  0  0
 16 24  2  0  0  0  0
 16 30  1  0  0  0  0
 17 29  2  0  0  0  0
 17 31  1  0  0  0  0
 18 32  1  0  0  0  0
 19 32  1  0  0  0  0
 19 33  2  0  0  0  0
 19 34  1  0  0  0  0
 20 22  2  0  0  0  0
 20 39  1  0  0  0  0
 21 23  2  0  0  0  0
 21 40  1  0  0  0  0
 22 48  1  0  0  0  0
 23 41  1  0  0  0  0
 24 57  1  0  0  0  0
 25 81  1  0  0  0  0
 26 82  1  0  0  0  0
 27 31  2  0  0  0  0
 27 81  1  0  0  0  0
 28 30  2  0  0  0  0
 28 83  1  0  0  0  0
 29 84  1  0  0  0  0
 30 85  1  0  0  0  0
 31 86  1  0  0  0  0
 32 66  2  0  0  0  0
 33 67  1  0  0  0  0
 33 70  1  0  0  0  0
 34 71  1  0  0  0  0
 34 76  2  0  0  0  0
 35 49  1  0  0  0  0
 35 72  1  0  0  0  0
 35 77  2  0  0  0  0
 36 58  1  0  0  0  0
 36 69  1  0  0  0  0
 36 78  2  0  0  0  0
 37 63  1  0  0  0  0
 37 68  1  0  0  0  0
 37 79  2  0  0  0  0
 38 64  1  0  0  0  0
 38 73  1  0  0  0  0
 38 80  2  0  0  0  0
 39 42  1  0  0  0  0
 40 49  1  0  0  0  0
 41 68  1  0  0  0  0
 42 44  1  0  0  0  0
 43 45  1  0  0  0  0
 43 46  1  0  0  0  0
 44 48  1  0  0  0  0
 45 50  1  0  0  0  0
 46 69  1  0  0  0  0
 47 50  1  0  0  0  0
 47 69  1  0  0  0  0
 48 72  1  0  0  0  0
 49 68  1  0  0  0  0
 50 67  1  0  0  0  0
 51 64  1  0  0  0  0
 52 65  1  0  0  0  0
 53 65  1  0  0  0  0
 54 65  1  0  0  0  0
 55 74  1  0  0  0  0
 56 75  1  0  0  0  0
 57 75  1  0  0  0  0
 58 59  1  0  0  0  0
 59 60  1  0  0  0  0
 60 75  1  0  0  0  0
 61 62  1  0  0  0  0
 61 82  1  0  0  0  0
 62 83  1  0  0  0  0
 63 65  1  0  0  0  0
 63 73  1  0  0  0  0
 64 74  1  0  0  0  0
 66 67  1  0  0  0  0
M  CHG  2  74   1  75   1
M  ISO  4  36 100  58 100  61 101  82 101
M  END
> <Batch ID>
0012

> <Smiles>
CNC(C)C(=O)NC(C(=O)N1Cc2cc([101O:1][101CH2:1]COc3ccc(CN(C)CC[100CH2:0][100C:0](=O)N4CCCC(n5nc(-c6ccc(Oc7ccc(F)cc7F)cc6)c(C(N)=O)c5N)C4)cc3F)ccc2CC1C(=O)NC1CCCc2ccccc21)C(C)(C)C

> <Shape>
0.250

> <Color>
0.076

> <Negative vol penalty>
0.000

$$$$

  -OEChem-04042320463D

 84 92  0     1  0  0  0  0  0999 V2000
  -29.6386  -35.7642   18.1857 C   0  0  0  0  0  0  0  0  0  0  0  0
  -29.3015  -34.4756   17.7840 C   0  0  0  0  0  0  0  0  0  0  0  0
  -22.8185  -10.1374   20.3479 C   0  0  0  0  0  0  0  0  0  0  0  0
  -24.4127   -9.3585   21.9876 C   0  0  0  0  0  0  0  0  0  0  0  0
  -29.6468  -36.0909   19.5411 C   0  0  0  0  0  0  0  0  0  0  0  0
  -28.9735  -33.5126   18.7376 C   0  0  0  0  0  0  0  0  0  0  0  0
  -24.8616  -29.0110   18.1603 C   0  0  0  0  0  0  0  0  0  0  0  0
  -28.3224  -17.8709   19.6947 C   0  0  0  0  0  0  0  0  0  0  0  0
  -22.2361   -8.8705   20.3122 C   0  0  0  0  0  0  0  0  0  0  0  0
  -23.8303   -8.0915   21.9520 C   0  0  0  0  0  0  0  0  0  0  0  0
  -24.9889  -27.6592   17.8436 C   0  0  0  0  0  0  0  0  0  0  0  0
  -28.1086  -19.0623   19.0016 C   0  0  0  0  0  0  0  0  0  0  0  0
  -21.0964   -6.5718   23.2314 C   0  0  0  0  0  0  0  0  0  0  0  0
  -20.8564   -5.9360   24.4495 C   0  0  0  0  0  0  0  0  0  0  0  0
  -24.9856  -27.1145   20.1936 C   0  0  0  0  0  0  0  0  0  0  0  0
  -28.3593  -20.3040   21.0588 C   0  0  0  0  0  0  0  0  0  0  0  0
  -22.2952   -4.1136   23.7819 C   0  0  0  0  0  0  0  0  0  0  0  0
  -23.9069  -10.3814   21.1856 C   0  0  0  0  0  0  0  0  0  0  0  0
  -24.1637  -12.7612   22.0677 C   0  0  0  0  0  0  0  0  0  0  0  0
  -29.3093  -35.1340   20.5113 C   0  0  0  0  0  0  0  0  0  0  0  0
  -24.8062  -29.4263   19.4985 C   0  0  0  0  0  0  0  0  0  0  0  0
  -28.9785  -33.8264   20.1074 C   0  0  0  0  0  0  0  0  0  0  0  0
  -24.8549  -28.4719   20.5246 C   0  0  0  0  0  0  0  0  0  0  0  0
  -28.5545  -17.8960   21.0699 C   0  0  0  0  0  0  0  0  0  0  0  0
  -22.7420   -7.8475   21.1143 C   0  0  0  0  0  0  0  0  0  0  0  0
  -25.0538  -26.7110   18.8603 C   0  0  0  0  0  0  0  0  0  0  0  0
  -28.1271  -20.2789   19.6836 C   0  0  0  0  0  0  0  0  0  0  0  0
  -21.9358   -5.9784   22.2885 C   0  0  0  0  0  0  0  0  0  0  0  0
  -21.4558   -4.7070   24.7248 C   0  0  0  0  0  0  0  0  0  0  0  0
  -28.5730  -19.1126   21.7519 C   0  0  0  0  0  0  0  0  0  0  0  0
  -22.5352   -4.7493   22.5638 C   0  0  0  0  0  0  0  0  0  0  0  0
  -24.5093  -11.6898   21.2224 C   0  0  0  0  0  0  0  0  0  0  0  0
  -25.0244  -13.7707   21.7117 C   0  0  0  0  0  0  0  0  0  0  0  0
  -23.1551  -12.8372   23.0838 C   0  0  0  0  0  0  0  0  0  0  0  0
  -26.6099  -31.2769   21.3494 C   0  0  0  0  0  0  0  0  0  0  0  0
  -24.2162  -30.8051   23.4871 C   0  0  0  0  0  0  0  0  0  0  0  0
  -21.6252  -28.8558   24.5519 C   0  0  0  0  0  0  0  0  0  0  0  0
  -30.4242  -15.1388   20.5770 C   0  0  0  0  0  0  0  0  0  0  0  0
  -29.3781  -35.5210   21.9673 C   0  0  0  0  0  0  0  0  0  0  0  0
  -24.6418  -30.8858   19.8230 C   0  0  0  0  0  0  0  0  0  0  0  0
  -24.7792  -28.8641   21.9768 C   0  0  0  0  0  0  0  0  0  0  0  0
  -28.6544  -34.5453   22.8918 C   0  0  0  0  0  0  0  0  0  0  0  0
  -28.1744  -14.2057   17.7896 C   0  0  0  0  0  0  0  0  0  0  0  0
  -29.0209  -33.1066   22.5417 C   0  0  0  0  0  0  0  0  0  0  0  0
  -27.0301  -13.4938   18.5091 C   0  0  0  0  0  0  0  0  0  0  0  0
  -29.4895  -14.0803   18.5527 C   0  0  0  0  0  0  0  0  0  0  0  0
  -28.2668  -13.8247   20.6867 C   0  0  0  0  0  0  0  0  0  0  0  0
  -28.5926  -32.7609   21.1103 C   0  0  1  0  0  0  0  0  0  0  0  0
  -25.1125  -31.2418   21.2298 C   0  0  1  0  0  0  0  0  0  0  0  0
  -26.9175  -13.9715   19.9674 C   0  0  2  0  0  0  0  0  0  0  0  0
  -19.8795  -28.7087   26.3487 C   0  0  0  0  0  0  0  0  0  0  0  0
  -26.3400  -29.8761   25.4711 C   0  0  0  0  0  0  0  0  0  0  0  0
  -24.5101  -28.8696   26.8520 C   0  0  0  0  0  0  0  0  0  0  0  0
  -24.5598  -31.3317   26.4541 C   0  0  0  0  0  0  0  0  0  0  0  0
  -31.2052  -16.7729   22.2501 C   0  0  0  0  0  0  0  0  0  0  0  0
  -19.4203  -28.9934   22.5825 C   0  0  0  0  0  0  0  0  0  0  0  0
  -28.7831  -16.6203   21.8076 C   0  0  0  0  0  0  0  0  0  0  0  0
  -26.5394  -23.4100   18.7691 C   0  0  0  0  0  0  0  0  0  0  0  0
  -25.8719  -24.5692   19.4924 C   0  0  0  0  0  0  0  0  0  1  0  0
  -27.3104  -22.5121   19.7238 C   0  0  0  0  0  0  0  0  0  0  0  0
  -23.9264  -29.7825   24.5592 C   0  0  1  0  0  0  0  0  0  0  0  0
  -20.2005  -29.2013   24.9461 C   0  0  2  0  0  0  0  0  0  0  0  0
  -24.8375  -29.9574   25.8069 C   0  0  0  0  0  0  0  0  0  0  0  0
  -25.5112  -11.9906   20.3919 N   0  0  0  0  0  0  0  0  0  0  0  0
  -25.8025  -13.2625   20.7135 N   0  0  0  0  0  0  0  0  0  0  0  0
  -24.6251  -30.3038   22.2432 N   0  0  0  0  0  0  0  0  0  0  0  0
  -29.3435  -14.5001   19.9469 N   0  0  0  0  0  0  0  0  0  0  0  0
  -25.1838  -15.0347   22.1582 N   0  0  0  0  0  0  0  0  0  0  0  0
  -22.3589  -11.7083   23.3205 N   0  0  0  0  0  0  0  0  0  0  0  0
  -27.1691  -32.5061   21.0563 N   0  0  0  0  0  0  0  0  0  0  0  0
  -22.4988  -29.8820   24.8431 N   0  0  0  0  0  0  0  0  0  0  0  0
  -30.1192  -16.0759   21.5757 N   0  0  0  0  0  0  0  0  0  0  0  0
  -19.2349  -28.5787   23.9969 N   0  3  0  0  0  0  0  0  0  0  0  0
  -22.9545  -13.8807   23.7504 O   0  0  0  0  0  0  0  0  0  0  0  0
  -27.2132  -30.2641   21.6843 O   0  0  0  0  0  0  0  0  0  0  0  0
  -24.0777  -32.0041   23.7418 O   0  0  0  0  0  0  0  0  0  0  0  0
  -21.9329  -27.7814   24.0405 O   0  0  0  0  0  0  0  0  0  0  0  0
  -31.5945  -14.8929   20.2580 O   0  0  0  0  0  0  0  0  0  0  0  0
  -22.1738   -6.6112   21.0799 O   0  0  0  0  0  0  0  0  0  0  0  0
  -25.1788  -25.3910   18.5540 O   0  0  0  0  0  0  0  0  0  1  0  0
  -27.9181  -21.4494   19.0019 O   0  0  0  0  0  0  0  0  0  0  0  0
  -21.2264   -4.0973   25.8952 F   0  0  0  0  0  0  0  0  0  0  0  0
  -28.7940  -19.1465   23.0735 F   0  0  0  0  0  0  0  0  0  0  0  0
  -23.3435   -4.1750   21.6623 F   0  0  0  0  0  0  0  0  0  0  0  0
  1  2  1  0  0  0  0
  1  5  2  0  0  0  0
  2  6  2  0  0  0  0
  3  9  2  0  0  0  0
  3 18  1  0  0  0  0
  4 10  1  0  0  0  0
  4 18  2  0  0  0  0
  5 20  1  0  0  0  0
  6 22  1  0  0  0  0
  7 11  2  0  0  0  0
  7 21  1  0  0  0  0
  8 12  2  0  0  0  0
  8 24  1  0  0  0  0
  9 25  1  0  0  0  0
 10 25  2  0  0  0  0
 11 26  1  0  0  0  0
 12 27  1  0  0  0  0
 13 14  2  0  0  0  0
 13 28  1  0  0  0  0
 14 29  1  0  0  0  0
 15 23  1  0  0  0  0
 15 26  2  0  0  0  0
 16 27  2  0  0  0  0
 16 30  1  0  0  0  0
 17 29  2  0  0  0  0
 17 31  1  0  0  0  0
 18 32  1  0  0  0  0
 19 32  1  0  0  0  0
 19 33  2  0  0  0  0
 19 34  1  0  0  0  0
 20 22  2  0  0  0  0
 20 39  1  0  0  0  0
 21 23  2  0  0  0  0
 21 40  1  0  0  0  0
 22 48  1  0  0  0  0
 23 41  1  0  0  0  0
 24 30  2  0  0  0  0
 24 57  1  0  0  0  0
 25 79  1  0  0  0  0
 26 80  1  0  0  0  0
 27 81  1  0  0  0  0
 28 31  2  0  0  0  0
 28 79  1  0  0  0  0
 29 82  1  0  0  0  0
 30 83  1  0  0  0  0
 31 84  1  0  0  0  0
 32 64  2  0  0  0  0
 33 65  1  0  0  0  0
 33 68  1  0  0  0  0
 34 69  1  0  0  0  0
 34 74  2  0  0  0  0
 35 49  1  0  0  0  0
 35 70  1  0  0  0  0
 35 75  2  0  0  0  0
 36 61  1  0  0  0  0
 36 66  1  0  0  0  0
 36 76  2  0  0  0  0
 37 62  1  0  0  0  0
 37 71  1  0  0  0  0
 37 77  2  0  0  0  0
 38 67  1  0  0  0  0
 38 72  1  0  0  0  0
 38 78  2  0  0  0  0
 39 42  1  0  0  0  0
 40 49  1  0  0  0  0
 41 66  1  0  0  0  0
 42 44  1  0  0  0  0
 43 45  1  0  0  0  0
 43 46  1  0  0  0  0
 44 48  1  0  0  0  0
 45 50  1  0  0  0  0
 46 67  1  0  0  0  0
 47 50  1  0  0  0  0
 47 67  1  0  0  0  0
 48 70  1  0  0  0  0
 49 66  1  0  0  0  0
 50 65  1  0  0  0  0
 51 62  1  0  0  0  0
 52 63  1  0  0  0  0
 53 63  1  0  0  0  0
 54 63  1  0  0  0  0
 55 72  1  0  0  0  0
 56 73  1  0  0  0  0
 57 72  1  0  0  0  0
 58 59  1  0  0  0  0
 58 60  1  0  0  0  0
 59 80  1  0  0  0  0
 60 81  1  0  0  0  0
 61 63  1  0  0  0  0
 61 71  1  0  0  0  0
 62 73  1  0  0  0  0
 64 65  1  0  0  0  0
M  CHG  1  73   1
M  ISO  4  38 100  59 101  72 100  80 101
M  END
> <Batch ID>
0012

> <Smiles>
CNC(C)C(=O)NC(C(=O)N1Cc2cc([101O:1][101CH2:1]CCOc3ccc(C[100N:0](C)[100C:0](=O)N4CCCC(n5nc(-c6ccc(Oc7ccc(F)cc7F)cc6)c(C(N)=O)c5N)C4)c(F)c3)ccc2CC1C(=O)NC1CCCc2ccccc21)C(C)(C)C

> <Shape>
0.322

> <Color>
0.147

> <Negative vol penalty>
0.000

$$$$

  -OEChem-04042320463D

 82 90  0     1  0  0  0  0  0999 V2000
  -26.6092  -34.4110   25.1909 C   0  0  0  0  0  0  0  0  0  0  0  0
  -27.0442  -33.1992   24.6641 C   0  0  0  0  0  0  0  0  0  0  0  0
  -23.5198  -13.9680   19.5749 C   0  0  0  0  0  0  0  0  0  0  0  0
  -23.6431  -15.0230   21.7449 C   0  0  0  0  0  0  0  0  0  0  0  0
  -25.2810  -34.5607   25.5879 C   0  0  0  0  0  0  0  0  0  0  0  0
  -26.1515  -32.1358   24.5350 C   0  0  0  0  0  0  0  0  0  0  0  0
  -26.5427  -29.8036   20.0569 C   0  0  0  0  0  0  0  0  0  0  0  0
  -31.5753  -22.0872   21.6904 C   0  0  0  0  0  0  0  0  0  0  0  0
  -22.9338  -12.8431   20.1551 C   0  0  0  0  0  0  0  0  0  0  0  0
  -23.0571  -13.8980   22.3251 C   0  0  0  0  0  0  0  0  0  0  0  0
  -27.6081  -28.9200   19.8901 C   0  0  0  0  0  0  0  0  0  0  0  0
  -31.3588  -23.4548   21.5217 C   0  0  0  0  0  0  0  0  0  0  0  0
  -23.9410  -10.1363   21.9109 C   0  0  0  0  0  0  0  0  0  0  0  0
  -24.4167   -8.8845   21.5206 C   0  0  0  0  0  0  0  0  0  0  0  0
  -26.1264  -27.0635   20.3109 C   0  0  0  0  0  0  0  0  0  0  0  0
  -29.4029  -21.8711   22.7254 C   0  0  0  0  0  0  0  0  0  0  0  0
  -22.2125   -8.2945   20.7265 C   0  0  0  0  0  0  0  0  0  0  0  0
  -23.8745  -15.0580   20.3698 C   0  0  0  0  0  0  0  0  0  0  0  0
  -23.8214  -17.3533   19.2579 C   0  0  0  0  0  0  0  0  0  0  0  0
  -24.3693  -33.5016   25.4546 C   0  0  0  0  0  0  0  0  0  0  0  0
  -25.2612  -29.3237   20.3632 C   0  0  0  0  0  0  0  0  0  0  0  0
  -24.8102  -32.2709   24.9318 C   0  0  0  0  0  0  0  0  0  0  0  0
  -25.0459  -27.9429   20.4785 C   0  0  0  0  0  0  0  0  0  0  0  0
  -30.5973  -21.2953   22.2923 C   0  0  0  0  0  0  0  0  0  0  0  0
  -22.7024  -12.8081   21.5301 C   0  0  0  0  0  0  0  0  0  0  0  0
  -27.4007  -27.5499   20.0199 C   0  0  0  0  0  0  0  0  0  0  0  0
  -22.6010  -10.4671   21.7092 C   0  0  0  0  0  0  0  0  0  0  0  0
  -30.1644  -24.0305   21.9549 C   0  0  0  0  0  0  0  0  0  0  0  0
  -23.5524   -7.9636   20.9283 C   0  0  0  0  0  0  0  0  0  0  0  0
  -29.1865  -23.2387   22.5567 C   0  0  0  0  0  0  0  0  0  0  0  0
  -21.7368   -9.5463   21.1170 C   0  0  0  0  0  0  0  0  0  0  0  0
  -24.4804  -16.2202   19.7711 C   0  0  0  0  0  0  0  0  0  0  0  0
  -24.8339  -18.1645   18.8069 C   0  0  0  0  0  0  0  0  0  0  0  0
  -22.4193  -17.6465   19.1945 C   0  0  0  0  0  0  0  0  0  0  0  0
  -23.2565  -29.6803   22.8040 C   0  0  0  0  0  0  0  0  0  0  0  0
  -21.2439  -28.0041   20.8903 C   0  0  0  0  0  0  0  0  0  0  0  0
  -20.8604  -25.8014   18.3120 C   0  0  0  0  0  0  0  0  0  0  0  0
  -30.6125  -18.6792   20.2881 C   0  0  0  0  0  0  0  0  0  0  0  0
  -22.9550  -33.6957   25.9414 C   0  0  0  0  0  0  0  0  0  0  0  0
  -24.1169  -30.2882   20.5136 C   0  0  0  0  0  0  0  0  0  0  0  0
  -23.6851  -27.3755   20.7864 C   0  0  0  0  0  0  0  0  0  0  0  0
  -21.9823  -32.6394   25.4235 C   0  0  0  0  0  0  0  0  0  0  0  0
  -29.2841  -17.9787   17.0599 C   0  0  0  0  0  0  0  0  0  0  0  0
  -22.5793  -31.2439   25.5751 C   0  0  0  0  0  0  0  0  0  0  0  0
  -27.8429  -17.5508   17.3424 C   0  0  0  0  0  0  0  0  0  0  0  0
  -30.2406  -17.4917   18.1461 C   0  0  0  0  0  0  0  0  0  0  0  0
  -28.4172  -17.4374   19.8033 C   0  0  0  0  0  0  0  0  0  0  0  0
  -23.8659  -31.1020   24.7529 C   0  0  1  0  0  0  0  0  0  0  0  0
  -22.9608  -29.7209   21.3314 C   0  0  1  0  0  0  0  0  0  0  0  0
  -27.4070  -17.9531   18.7641 C   0  0  2  0  0  0  0  0  0  0  0  0
  -19.0958  -24.5919   17.0004 C   0  0  0  0  0  0  0  0  0  0  0  0
  -20.8456  -26.0689   23.2155 C   0  0  0  0  0  0  0  0  0  0  0  0
  -19.8775  -24.4271   21.5920 C   0  0  0  0  0  0  0  0  0  0  0  0
  -18.7596  -26.6275   21.9541 C   0  0  0  0  0  0  0  0  0  0  0  0
  -21.6871  -27.0978   15.7831 C   0  0  0  0  0  0  0  0  0  0  0  0
  -30.8305  -19.8338   22.4741 C   0  0  0  0  0  0  0  0  0  0  0  0
  -29.7390  -27.1589   20.2077 C   0  0  0  0  0  0  0  0  0  1  0  0
  -30.5842  -25.9885   20.6720 C   0  0  0  0  0  0  0  0  0  0  0  0
  -20.9409  -26.5404   20.6788 C   0  0  1  0  0  0  0  0  0  0  0  0
  -19.9693  -25.8339   17.0834 C   0  0  2  0  0  0  0  0  0  0  0  0
  -20.1321  -25.9265   21.8562 C   0  0  0  0  0  0  0  0  0  0  0  0
  -25.8088  -16.3005   19.6571 N   0  0  0  0  0  0  0  0  0  0  0  0
  -25.9926  -17.4938   19.0670 N   0  0  0  0  0  0  0  0  0  0  0  0
  -22.5996  -28.3596   20.9308 N   0  0  0  0  0  0  0  0  0  0  0  0
  -29.7709  -17.9076   19.4699 N   0  0  0  0  0  0  0  0  0  0  0  0
  -24.8371  -19.3788   18.2172 N   0  0  0  0  0  0  0  0  0  0  0  0
  -21.5159  -16.7036   19.7035 N   0  0  0  0  0  0  0  0  0  0  0  0
  -23.5527  -30.9134   23.3526 N   0  0  0  0  0  0  0  0  0  0  0  0
  -20.2769  -26.4441   19.3833 N   0  0  0  0  0  0  0  0  0  0  0  0
  -30.0876  -19.0360   21.5242 N   0  0  0  0  0  0  0  0  0  0  0  0
  -20.7960  -25.9108   15.8458 N   0  3  0  0  0  0  0  0  0  0  0  0
  -21.9799  -18.7058   18.6863 O   0  0  0  0  0  0  0  0  0  0  0  0
  -23.2173  -28.6096   23.3989 O   0  0  0  0  0  0  0  0  0  0  0  0
  -20.3120  -28.8037   21.0080 O   0  0  0  0  0  0  0  0  0  0  0  0
  -21.9622  -25.2569   18.3215 O   0  0  0  0  0  0  0  0  0  0  0  0
  -31.7455  -19.0289   19.9405 O   0  0  0  0  0  0  0  0  0  0  0  0
  -22.1304  -11.7106   22.0966 O   0  0  0  0  0  0  0  0  0  0  0  0
  -28.4390  -26.6853   19.8583 O   0  0  0  0  0  0  0  0  0  1  0  0
  -29.9534  -25.3741   21.7890 O   0  0  0  0  0  0  0  0  0  0  0  0
  -24.0097   -6.7622   20.5521 F   0  0  0  0  0  0  0  0  0  0  0  0
  -28.0371  -23.7861   22.9752 F   0  0  0  0  0  0  0  0  0  0  0  0
  -20.4487   -9.8589   20.9195 F   0  0  0  0  0  0  0  0  0  0  0  0
  1  2  1  0  0  0  0
  1  5  2  0  0  0  0
  2  6  2  0  0  0  0
  3  9  2  0  0  0  0
  3 18  1  0  0  0  0
  4 10  1  0  0  0  0
  4 18  2  0  0  0  0
  5 20  1  0  0  0  0
  6 22  1  0  0  0  0
  7 11  2  0  0  0  0
  7 21  1  0  0  0  0
  8 12  2  0  0  0  0
  8 24  1  0  0  0  0
  9 25  1  0  0  0  0
 10 25  2  0  0  0  0
 11 26  1  0  0  0  0
 12 28  1  0  0  0  0
 13 14  2  0  0  0  0
 13 27  1  0  0  0  0
 14 29  1  0  0  0  0
 15 23  1  0  0  0  0
 15 26  2  0  0  0  0
 16 24  2  0  0  0  0
 16 30  1  0  0  0  0
 17 29  2  0  0  0  0
 17 31  1  0  0  0  0
 18 32  1  0  0  0  0
 19 32  1  0  0  0  0
 19 33  2  0  0  0  0
 19 34  1  0  0  0  0
 20 22  2  0  0  0  0
 20 39  1  0  0  0  0
 21 23  2  0  0  0  0
 21 40  1  0  0  0  0
 22 48  1  0  0  0  0
 23 41  1  0  0  0  0
 24 56  1  0  0  0  0
 25 77  1  0  0  0  0
 26 78  1  0  0  0  0
 27 31  2  0  0  0  0
 27 77  1  0  0  0  0
 28 30  2  0  0  0  0
 28 79  1  0  0  0  0
 29 80  1  0  0  0  0
 30 81  1  0  0  0  0
 31 82  1  0  0  0  0
 32 62  2  0  0  0  0
 33 63  1  0  0  0  0
 33 66  1  0  0  0  0
 34 67  1  0  0  0  0
 34 72  2  0  0  0  0
 35 49  1  0  0  0  0
 35 68  1  0  0  0  0
 35 73  2  0  0  0  0
 36 59  1  0  0  0  0
 36 64  1  0  0  0  0
 36 74  2  0  0  0  0
 37 60  1  0  0  0  0
 37 69  1  0  0  0  0
 37 75  2  0  0  0  0
 38 65  1  0  0  0  0
 38 70  1  0  0  0  0
 38 76  2  0  0  0  0
 39 42  1  0  0  0  0
 40 49  1  0  0  0  0
 41 64  1  0  0  0  0
 42 44  1  0  0  0  0
 43 45  1  0  0  0  0
 43 46  1  0  0  0  0
 44 48  1  0  0  0  0
 45 50  1  0  0  0  0
 46 65  1  0  0  0  0
 47 50  1  0  0  0  0
 47 65  1  0  0  0  0
 48 68  1  0  0  0  0
 49 64  1  0  0  0  0
 50 63  1  0  0  0  0
 51 60  1  0  0  0  0
 52 61  1  0  0  0  0
 53 61  1  0  0  0  0
 54 61  1  0  0  0  0
 55 71  1  0  0  0  0
 56 70  1  0  0  0  0
 57 58  1  0  0  0  0
 57 78  1  0  0  0  0
 58 79  1  0  0  0  0
 59 61  1  0  0  0  0
 59 69  1  0  0  0  0
 60 71  1  0  0  0  0
 62 63  1  0  0  0  0
M  CHG  1  71   1
M  ISO  4  38 100  57 101  70 100  78 101
M  END
> <Batch ID>
0012

> <Smiles>
CNC(C)C(=O)NC(C(=O)N1Cc2cc([101O:1][101CH2:1]COc3ccc(C[100NH:0][100C:0](=O)N4CCCC(n5nc(-c6ccc(Oc7ccc(F)cc7F)cc6)c(C(N)=O)c5N)C4)cc3F)ccc2CC1C(=O)NC1CCCc2ccccc21)C(C)(C)C

> <Shape>
0.254

> <Color>
0.079

> <Negative vol penalty>
0.000

$$$$

  -OEChem-04042320463D

 83 92  0     1  0  0  0  0  0999 V2000
  -27.5490  -34.3165   25.5178 C   0  0  0  0  0  0  0  0  0  0  0  0
  -28.0726  -33.0487   25.2858 C   0  0  0  0  0  0  0  0  0  0  0  0
  -23.1626   -9.7560   19.9100 C   0  0  0  0  0  0  0  0  0  0  0  0
  -23.9124   -9.7760   22.2066 C   0  0  0  0  0  0  0  0  0  0  0  0
  -26.2331  -34.6028   25.1569 C   0  0  0  0  0  0  0  0  0  0  0  0
  -27.2802  -32.0660   24.6937 C   0  0  0  0  0  0  0  0  0  0  0  0
  -29.1225  -27.6817   20.8350 C   0  0  0  0  0  0  0  0  0  0  0  0
  -30.9477  -19.3500   20.7005 C   0  0  0  0  0  0  0  0  0  0  0  0
  -30.8454  -17.9591   20.6808 C   0  0  0  0  0  0  0  0  0  0  0  0
  -22.4747   -8.5656   20.1449 C   0  0  0  0  0  0  0  0  0  0  0  0
  -23.2244   -8.5855   22.4416 C   0  0  0  0  0  0  0  0  0  0  0  0
  -29.4390  -26.3372   21.0250 C   0  0  0  0  0  0  0  0  0  0  0  0
  -20.0366   -7.6256   23.0218 C   0  0  0  0  0  0  0  0  0  0  0  0
  -19.2780   -7.5367   24.1889 C   0  0  0  0  0  0  0  0  0  0  0  0
  -27.2010  -25.7236   20.3661 C   0  0  0  0  0  0  0  0  0  0  0  0
  -29.3027  -19.4461   22.4673 C   0  0  0  0  0  0  0  0  0  0  0  0
  -20.6093   -5.6543   24.9109 C   0  0  0  0  0  0  0  0  0  0  0  0
  -23.8815  -10.3613   20.9409 C   0  0  0  0  0  0  0  0  0  0  0  0
  -24.1006  -12.9011   20.8482 C   0  0  0  0  0  0  0  0  0  0  0  0
  -25.4271  -33.6259   24.5512 C   0  0  0  0  0  0  0  0  0  0  0  0
  -27.8375  -28.0585   20.4190 C   0  0  0  0  0  0  0  0  0  0  0  0
  -25.9518  -32.3390   24.3255 C   0  0  0  0  0  0  0  0  0  0  0  0
  -26.8715  -27.0733   20.1692 C   0  0  0  0  0  0  0  0  0  0  0  0
  -30.1764  -20.0935   21.5938 C   0  0  0  0  0  0  0  0  0  0  0  0
  -29.9717  -17.3116   21.5544 C   0  0  0  0  0  0  0  0  0  0  0  0
  -22.5056   -7.9803   21.4107 C   0  0  0  0  0  0  0  0  0  0  0  0
  -28.4773  -25.3581   20.7933 C   0  0  0  0  0  0  0  0  0  0  0  0
  -21.0815   -6.7288   22.7992 C   0  0  0  0  0  0  0  0  0  0  0  0
  -19.5643   -6.5511   25.1335 C   0  0  0  0  0  0  0  0  0  0  0  0
  -29.2004  -18.0551   22.4476 C   0  0  0  0  0  0  0  0  0  0  0  0
  -21.3679   -5.7432   23.7437 C   0  0  0  0  0  0  0  0  0  0  0  0
  -24.5927  -11.5907   20.6987 C   0  0  0  0  0  0  0  0  0  0  0  0
  -25.1564  -13.7065   20.4974 C   0  0  0  0  0  0  0  0  0  0  0  0
  -22.8049  -13.3502   21.2668 C   0  0  0  0  0  0  0  0  0  0  0  0
  -25.4986  -29.8105   21.6695 C   0  0  0  0  0  0  0  0  0  0  0  0
  -24.1193  -29.3325   18.7727 C   0  0  0  0  0  0  0  0  0  0  0  0
  -23.8767  -27.4143   15.9605 C   0  0  0  0  0  0  0  0  0  0  0  0
  -30.5646  -15.0146   20.7066 C   0  0  0  0  0  0  0  0  0  0  0  0
  -23.9957  -33.9680   24.2217 C   0  0  0  0  0  0  0  0  0  0  0  0
  -27.5200  -29.5113   20.1929 C   0  0  0  0  0  0  0  0  0  0  0  0
  -25.4834  -27.4242   19.7019 C   0  0  0  0  0  0  0  0  0  0  0  0
  -23.3405  -32.9828   23.2571 C   0  0  0  0  0  0  0  0  0  0  0  0
  -29.5780  -12.5743   18.3089 C   0  0  0  0  0  0  0  0  0  0  0  0
  -23.6263  -31.5468   23.6849 C   0  0  0  0  0  0  0  0  0  0  0  0
  -28.1526  -12.2087   18.7292 C   0  0  0  0  0  0  0  0  0  0  0  0
  -31.1393  -23.6438   21.3325 C   0  0  0  0  0  0  0  0  0  0  0  0
  -30.4762  -12.8348   19.5168 C   0  0  0  0  0  0  0  0  0  0  0  0
  -31.1624  -22.2347   20.7404 C   0  0  0  0  0  0  0  0  0  0  0  0
  -28.5310  -13.4513   20.8971 C   0  0  0  0  0  0  0  0  0  0  0  0
  -29.5082  -22.3341   22.5080 C   0  0  0  0  0  0  0  0  0  0  0  0
  -25.1313  -31.2538   23.6627 C   0  0  1  0  0  0  0  0  0  0  0  0
  -26.0265  -29.8144   20.2627 C   0  0  1  0  0  0  0  0  0  0  0  0
  -27.5723  -13.2433   19.7133 C   0  0  2  0  0  0  0  0  0  0  0  0
  -29.7600  -23.7412   21.9679 C   0  0  2  0  0  0  0  0  0  1  0  0
  -22.6355  -27.2556   13.7853 C   0  0  0  0  0  0  0  0  0  0  0  0
  -21.6615  -28.2954   20.2537 C   0  0  0  0  0  0  0  0  0  0  0  0
  -20.8730  -27.2921   18.0997 C   0  0  0  0  0  0  0  0  0  0  0  0
  -21.1558  -29.7630   18.2929 C   0  0  0  0  0  0  0  0  0  0  0  0
  -26.3705  -27.6620   14.3860 C   0  0  0  0  0  0  0  0  0  0  0  0
  -23.2046  -28.2858   18.1838 C   0  0  1  0  0  0  0  0  0  0  0  0
  -23.8776  -27.7815   14.4875 C   0  0  2  0  0  0  0  0  0  0  0  0
  -21.7492  -28.4023   18.7182 C   0  0  0  0  0  0  0  0  0  0  0  0
  -25.8624  -11.5608   20.2850 N   0  0  0  0  0  0  0  0  0  0  0  0
  -26.1769  -12.8624   20.1714 N   0  0  0  0  0  0  0  0  0  0  0  0
  -30.2780  -21.4687   21.6135 N   0  0  3  0  0  0  0  0  0  0  0  0
  -25.2196  -28.8587   19.5013 N   0  0  0  0  0  0  0  0  0  0  0  0
  -29.8644  -13.8280   20.4023 N   0  0  0  0  0  0  0  0  0  0  0  0
  -25.3021  -15.0473   20.4389 N   0  0  0  0  0  0  0  0  0  0  0  0
  -21.8371  -12.3895   21.5904 N   0  0  0  0  0  0  0  0  0  0  0  0
  -29.8698  -15.8985   21.5316 N   0  0  0  0  0  0  0  0  0  0  0  0
  -25.5836  -31.0343   22.3056 N   0  0  0  0  0  0  0  0  0  0  0  0
  -23.3210  -28.4106   16.7349 N   0  0  0  0  0  0  0  0  0  0  0  0
  -25.0769  -27.2102   13.8120 N   0  3  0  0  0  0  0  0  0  0  0  0
  -22.5089  -14.5673   21.3357 O   0  0  0  0  0  0  0  0  0  0  0  0
  -25.0463  -28.7744   22.1423 O   0  0  0  0  0  0  0  0  0  0  0  0
  -23.8709  -30.5263   18.5869 O   0  0  0  0  0  0  0  0  0  0  0  0
  -24.3210  -26.3485   16.3815 O   0  0  0  0  0  0  0  0  0  0  0  0
  -31.6859  -15.2428   20.2457 O   0  0  0  0  0  0  0  0  0  0  0  0
  -21.8343   -6.8188   21.6403 O   0  0  0  0  0  0  0  0  0  0  0  0
  -28.7834  -24.0452   20.9786 O   0  0  0  0  0  0  0  0  0  1  0  0
  -18.8367   -6.4668   26.2549 F   0  0  0  0  0  0  0  0  0  0  0  0
  -28.3571  -17.4432   23.2914 F   0  0  0  0  0  0  0  0  0  0  0  0
  -22.3713   -4.8795   23.5360 F   0  0  0  0  0  0  0  0  0  0  0  0
  1  2  1  0  0  0  0
  1  5  2  0  0  0  0
  2  6  2  0  0  0  0
  3 10  2  0  0  0  0
  3 18  1  0  0  0  0
  4 11  1  0  0  0  0
  4 18  2  0  0  0  0
  5 20  1  0  0  0  0
  6 22  1  0  0  0  0
  7 12  2  0  0  0  0
  7 21  1  0  0  0  0
  8  9  2  0  0  0  0
  8 24  1  0  0  0  0
  9 25  1  0  0  0  0
 10 26  1  0  0  0  0
 11 26  2  0  0  0  0
 12 27  1  0  0  0  0
 13 14  2  0  0  0  0
 13 28  1  0  0  0  0
 14 29  1  0  0  0  0
 15 23  1  0  0  0  0
 15 27  2  0  0  0  0
 16 24  2  0  0  0  0
 16 30  1  0  0  0  0
 17 29  2  0  0  0  0
 17 31  1  0  0  0  0
 18 32  1  0  0  0  0
 19 32  1  0  0  0  0
 19 33  2  0  0  0  0
 19 34  1  0  0  0  0
 20 22  2  0  0  0  0
 20 39  1  0  0  0  0
 21 23  2  0  0  0  0
 21 40  1  0  0  0  0
 22 51  1  0  0  0  0
 23 41  1  0  0  0  0
 24 65  1  0  0  0  0
 25 30  2  0  0  0  0
 25 70  1  0  0  0  0
 26 79  1  0  0  0  0
 27 80  1  0  0  0  0
 28 31  2  0  0  0  0
 28 79  1  0  0  0  0
 29 81  1  0  0  0  0
 30 82  1  0  0  0  0
 31 83  1  0  0  0  0
 32 63  2  0  0  0  0
 33 64  1  0  0  0  0
 33 68  1  0  0  0  0
 34 69  1  0  0  0  0
 34 74  2  0  0  0  0
 35 52  1  0  0  0  0
 35 71  1  0  0  0  0
 35 75  2  0  0  0  0
 36 60  1  0  0  0  0
 36 66  1  0  0  0  0
 36 76  2  0  0  0  0
 37 61  1  0  0  0  0
 37 72  1  0  0  0  0
 37 77  2  0  0  0  0
 38 67  1  0  0  0  0
 38 70  1  0  0  0  0
 38 78  2  0  0  0  0
 39 42  1  0  0  0  0
 40 52  1  0  0  0  0
 41 66  1  0  0  0  0
 42 44  1  0  0  0  0
 43 45  1  0  0  0  0
 43 47  1  0  0  0  0
 44 51  1  0  0  0  0
 45 53  1  0  0  0  0
 46 48  1  0  0  0  0
 46 54  1  0  0  0  0
 47 67  1  0  0  0  0
 48 65  1  0  0  0  0
 49 53  1  0  0  0  0
 49 67  1  0  0  0  0
 50 54  1  0  0  0  0
 50 65  1  0  0  0  0
 51 71  1  0  0  0  0
 52 66  1  0  0  0  0
 53 64  1  0  0  0  0
 54 80  1  0  0  0  0
 55 61  1  0  0  0  0
 56 62  1  0  0  0  0
 57 62  1  0  0  0  0
 58 62  1  0  0  0  0
 59 73  1  0  0  0  0
 60 62  1  0  0  0  0
 60 72  1  0  0  0  0
 61 73  1  0  0  0  0
 63 64  1  0  0  0  0
M  CHG  1  73   1
M  ISO  4  38 100  54 101  70 100  80 101
M  END
> <Batch ID>
0012

> <Smiles>
CNC(C)C(=O)NC(C(=O)N1Cc2cc([101O:1][101CH:1]3CCN(c4ccc([100NH:0][100C:0](=O)N5CCCC(n6nc(-c7ccc(Oc8ccc(F)cc8F)cc7)c(C(N)=O)c6N)C5)c(F)c4)C3)ccc2CC1C(=O)NC1CCCc2ccccc21)C(C)(C)C

> <Shape>
0.353

> <Color>
0.208

> <Negative vol penalty>
0.000

$$$$

  -OEChem-04042320463D

 83 92  0     1  0  0  0  0  0999 V2000
  -31.5983  -23.5877   18.1692 C   0  0  0  0  0  0  0  0  0  0  0  0
  -30.2730  -23.8350   17.8258 C   0  0  0  0  0  0  0  0  0  0  0  0
  -18.5826  -26.5086   21.0465 C   0  0  0  0  0  0  0  0  0  0  0  0
  -27.7870  -14.1965   22.2426 C   0  0  0  0  0  0  0  0  0  0  0  0
  -26.1816  -15.2272   20.7602 C   0  0  0  0  0  0  0  0  0  0  0  0
  -32.0229  -23.7736   19.4841 C   0  0  0  0  0  0  0  0  0  0  0  0
  -29.3713  -24.2675   18.7975 C   0  0  0  0  0  0  0  0  0  0  0  0
  -24.7004  -28.1508   18.0177 C   0  0  0  0  0  0  0  0  0  0  0  0
  -19.1545  -25.2898   21.4110 C   0  0  0  0  0  0  0  0  0  0  0  0
  -19.2430  -27.3485   20.1497 C   0  0  0  0  0  0  0  0  0  0  0  0
  -27.3132  -12.9360   21.8793 C   0  0  0  0  0  0  0  0  0  0  0  0
  -25.7078  -13.9666   20.3969 C   0  0  0  0  0  0  0  0  0  0  0  0
  -23.3343  -27.9485   17.8259 C   0  0  0  0  0  0  0  0  0  0  0  0
  -23.6666  -11.6036   21.6932 C   0  0  0  0  0  0  0  0  0  0  0  0
  -22.2847  -11.4209   21.6412 C   0  0  0  0  0  0  0  0  0  0  0  0
  -22.9624  -28.2612   20.1887 C   0  0  0  0  0  0  0  0  0  0  0  0
  -21.0472  -25.7504   19.9821 C   0  0  0  0  0  0  0  0  0  0  0  0
  -22.4482  -10.8508   19.2991 C   0  0  0  0  0  0  0  0  0  0  0  0
  -27.2212  -15.3422   21.6831 C   0  0  0  0  0  0  0  0  0  0  0  0
  -28.7453  -17.3738   21.4436 C   0  0  0  0  0  0  0  0  0  0  0  0
  -31.1281  -24.2178   20.4704 C   0  0  0  0  0  0  0  0  0  0  0  0
  -25.2099  -28.3995   19.3003 C   0  0  0  0  0  0  0  0  0  0  0  0
  -29.7839  -24.4582   20.1272 C   0  0  0  0  0  0  0  0  0  0  0  0
  -24.3349  -28.4689   20.3938 C   0  0  0  0  0  0  0  0  0  0  0  0
  -20.3868  -24.9107   20.8788 C   0  0  0  0  0  0  0  0  0  0  0  0
  -26.2736  -12.8210   20.9564 C   0  0  0  0  0  0  0  0  0  0  0  0
  -22.4655  -28.0008   18.9119 C   0  0  0  0  0  0  0  0  0  0  0  0
  -20.4753  -26.9693   19.6175 C   0  0  0  0  0  0  0  0  0  1  0  0
  -24.4393  -11.4100   20.5481 C   0  0  0  0  0  0  0  0  0  0  0  0
  -21.6756  -11.0445   20.4442 C   0  0  0  0  0  0  0  0  0  0  0  0
  -23.8301  -11.0336   19.3511 C   0  0  0  0  0  0  0  0  0  0  0  0
  -27.7098  -16.6447   22.0584 C   0  0  0  0  0  0  0  0  0  0  0  0
  -28.8225  -18.5381   22.1681 C   0  0  0  0  0  0  0  0  0  0  0  0
  -29.5641  -17.0294   20.3181 C   0  0  0  0  0  0  0  0  0  0  0  0
  -27.2514  -26.9123   21.2301 C   0  0  0  0  0  0  0  0  0  0  0  0
  -26.8542  -29.5647   23.0548 C   0  0  0  0  0  0  0  0  0  0  0  0
  -24.8994  -32.2293   23.9064 C   0  0  0  0  0  0  0  0  0  0  0  0
  -24.8608  -21.5250   25.5198 C   0  0  0  0  0  0  0  0  0  0  0  0
  -31.6222  -24.3589   21.8884 C   0  0  0  0  0  0  0  0  0  0  0  0
  -26.6826  -28.6421   19.4865 C   0  0  0  0  0  0  0  0  0  0  0  0
  -24.8290  -28.7528   21.7880 C   0  0  0  0  0  0  0  0  0  0  0  0
  -30.6921  -25.1788   22.7788 C   0  0  0  0  0  0  0  0  0  0  0  0
  -28.0314  -20.2784   26.5540 C   0  0  0  0  0  0  0  0  0  0  0  0
  -29.2452  -24.7329   22.5930 C   0  0  0  0  0  0  0  0  0  0  0  0
  -28.4020  -19.2716   25.4636 C   0  0  0  0  0  0  0  0  0  0  0  0
  -23.8487  -23.9018   23.4150 C   0  0  0  0  0  0  0  0  0  0  0  0
  -26.5326  -20.2676   26.8465 C   0  0  0  0  0  0  0  0  0  0  0  0
  -26.0403  -19.4485   24.5748 C   0  0  0  0  0  0  0  0  0  0  0  0
  -22.6536  -24.6653   22.8661 C   0  0  0  0  0  0  0  0  0  0  0  0
  -22.1576  -22.2787   23.0705 C   0  0  0  0  0  0  0  0  0  0  0  0
  -28.7816  -24.9521   21.1478 C   0  0  1  0  0  0  0  0  0  0  0  0
  -27.1561  -28.3778   20.9125 C   0  0  1  0  0  0  0  0  0  0  0  0
  -27.5336  -19.4625   24.2056 C   0  0  2  0  0  0  0  0  0  0  0  0
  -23.2283  -22.6779   24.0666 C   0  0  1  0  0  0  0  0  0  0  0  0
  -24.8234  -34.2010   25.4569 C   0  0  0  0  0  0  0  0  0  0  0  0
  -26.1459  -27.7114   25.3729 C   0  0  0  0  0  0  0  0  0  0  0  0
  -25.1802  -29.6886   26.5672 C   0  0  0  0  0  0  0  0  0  0  0  0
  -27.6070  -29.6445   25.9917 C   0  0  0  0  0  0  0  0  0  0  0  0
  -24.8171  -34.1456   21.6526 C   0  0  0  0  0  0  0  0  0  0  0  0
  -20.9974  -23.6073   21.2687 C   0  0  0  0  0  0  0  0  0  0  0  0
  -25.9030  -29.9741   24.1533 C   0  0  1  0  0  0  0  0  0  0  0  0
  -25.2233  -33.7026   24.0769 C   0  0  2  0  0  0  0  0  0  0  0  0
  -26.1996  -29.2474   25.4954 C   0  0  0  0  0  0  0  0  0  0  0  0
  -27.1682  -17.2915   23.0939 N   0  0  0  0  0  0  0  0  0  0  0  0
  -27.8660  -18.4393   23.1354 N   0  0  0  0  0  0  0  0  0  0  0  0
  -26.2781  -28.9768   21.9197 N   0  0  0  0  0  0  0  0  0  0  0  0
  -25.7660  -20.4549   25.6124 N   0  0  0  0  0  0  0  0  0  0  0  0
  -29.6146  -19.6264   22.0658 N   0  0  0  0  0  0  0  0  0  0  0  0
  -29.3519  -15.7944   19.6905 N   0  0  0  0  0  0  0  0  0  0  0  0
  -28.4745  -26.3482   20.9217 N   0  0  0  0  0  0  0  0  0  0  0  0
  -25.9736  -31.4290   24.2332 N   0  0  0  0  0  0  0  0  0  0  0  0
  -24.1797  -21.6342   24.3136 N   0  0  0  0  0  0  0  0  0  0  0  0
  -21.5808  -23.6133   22.6451 N   0  3  2  0  0  0  0  0  0  0  0  0
  -24.5003  -34.5133   23.0566 N   0  3  0  0  0  0  0  0  0  0  0  0
  -30.4685  -17.7872   19.8922 O   0  0  0  0  0  0  0  0  0  0  0  0
  -26.2871  -26.3364   21.7202 O   0  0  0  0  0  0  0  0  0  0  0  0
  -28.0631  -29.7658   23.1956 O   0  0  0  0  0  0  0  0  0  0  0  0
  -23.8019  -31.8284   23.5253 O   0  0  0  0  0  0  0  0  0  0  0  0
  -24.6774  -22.3271   26.4417 O   0  0  0  0  0  0  0  0  0  0  0  0
  -25.8111  -11.5910   20.6015 O   0  0  0  0  0  0  0  0  0  0  0  0
  -21.1318  -27.8030   18.7276 O   0  0  0  0  0  0  0  0  0  1  0  0
  -20.3487  -10.8675   20.3948 F   0  0  0  0  0  0  0  0  0  0  0  0
  -24.5673  -10.8450   18.2480 F   0  0  0  0  0  0  0  0  0  0  0  0
  1  2  1  0  0  0  0
  1  6  2  0  0  0  0
  2  7  2  0  0  0  0
  3  9  1  0  0  0  0
  3 10  2  0  0  0  0
  4 11  2  0  0  0  0
  4 19  1  0  0  0  0
  5 12  1  0  0  0  0
  5 19  2  0  0  0  0
  6 21  1  0  0  0  0
  7 23  1  0  0  0  0
  8 13  2  0  0  0  0
  8 22  1  0  0  0  0
  9 25  2  0  0  0  0
 10 28  1  0  0  0  0
 11 26  1  0  0  0  0
 12 26  2  0  0  0  0
 13 27  1  0  0  0  0
 14 15  2  0  0  0  0
 14 29  1  0  0  0  0
 15 30  1  0  0  0  0
 16 24  1  0  0  0  0
 16 27  2  0  0  0  0
 17 25  1  0  0  0  0
 17 28  2  0  0  0  0
 18 30  2  0  0  0  0
 18 31  1  0  0  0  0
 19 32  1  0  0  0  0
 20 32  1  0  0  0  0
 20 33  2  0  0  0  0
 20 34  1  0  0  0  0
 21 23  2  0  0  0  0
 21 39  1  0  0  0  0
 22 24  2  0  0  0  0
 22 40  1  0  0  0  0
 23 51  1  0  0  0  0
 24 41  1  0  0  0  0
 25 60  1  0  0  0  0
 26 80  1  0  0  0  0
 27 81  1  0  0  0  0
 28 81  1  0  0  0  0
 29 31  2  0  0  0  0
 29 80  1  0  0  0  0
 30 82  1  0  0  0  0
 31 83  1  0  0  0  0
 32 64  2  0  0  0  0
 33 65  1  0  0  0  0
 33 68  1  0  0  0  0
 34 69  1  0  0  0  0
 34 75  2  0  0  0  0
 35 52  1  0  0  0  0
 35 70  1  0  0  0  0
 35 76  2  0  0  0  0
 36 61  1  0  0  0  0
 36 66  1  0  0  0  0
 36 77  2  0  0  0  0
 37 62  1  0  0  0  0
 37 71  1  0  0  0  0
 37 78  2  0  0  0  0
 38 67  1  0  0  0  0
 38 72  1  0  0  0  0
 38 79  2  0  0  0  0
 39 42  1  0  0  0  0
 40 52  1  0  0  0  0
 41 66  1  0  0  0  0
 42 44  1  0  0  0  0
 43 45  1  0  0  0  0
 43 47  1  0  0  0  0
 44 51  1  0  0  0  0
 45 53  1  0  0  0  0
 46 49  1  0  0  0  0
 46 54  1  0  0  0  0
 47 67  1  0  0  0  0
 48 53  1  0  0  0  0
 48 67  1  0  0  0  0
 49 73  1  0  0  0  0
 50 54  1  0  0  0  0
 50 73  1  0  0  0  0
 51 70  1  0  0  0  0
 52 66  1  0  0  0  0
 53 65  1  0  0  0  0
 54 72  1  0  0  0  0
 55 62  1  0  0  0  0
 56 63  1  0  0  0  0
 57 63  1  0  0  0  0
 58 63  1  0  0  0  0
 59 74  1  0  0  0  0
 60 73  1  0  0  0  0
 61 63  1  0  0  0  0
 61 71  1  0  0  0  0
 62 74  1  0  0  0  0
 64 65  1  0  0  0  0
M  CHG  2  73   1  74   1
M  ISO  4  28 101  38 100  72 100  81 101
M  END
> <Batch ID>
0012

> <Smiles>
CNC(C)C(=O)NC(C(=O)N1Cc2cc([101O:1][101c:1]3cccc(CN4CCC([100NH:0][100C:0](=O)N5CCCC(n6nc(-c7ccc(Oc8ccc(F)cc8F)cc7)c(C(N)=O)c6N)C5)C4)c3)ccc2CC1C(=O)NC1CCCc2ccccc21)C(C)(C)C

> <Shape>
0.226

> <Color>
0.065

> <Negative vol penalty>
0.000

$$$$

  -OEChem-04042320463D

 87 96  0     1  0  0  0  0  0999 V2000
  -17.5062  -26.3449   22.7595 C   0  0  0  0  0  0  0  0  0  0  0  0
  -18.8134  -25.9042   22.5789 C   0  0  0  0  0  0  0  0  0  0  0  0
  -27.6014  -14.4304   21.5194 C   0  0  0  0  0  0  0  0  0  0  0  0
  -26.7322  -14.6509   19.2760 C   0  0  0  0  0  0  0  0  0  0  0  0
  -17.1766  -27.6733   22.4938 C   0  0  0  0  0  0  0  0  0  0  0  0
  -19.7915  -26.7916   22.1315 C   0  0  0  0  0  0  0  0  0  0  0  0
  -26.7661  -22.3455   15.9229 C   0  0  0  0  0  0  0  0  0  0  0  0
  -25.7070  -26.8547   23.7154 C   0  0  0  0  0  0  0  0  0  0  0  0
  -27.9260  -22.8063   16.5399 C   0  0  0  0  0  0  0  0  0  0  0  0
  -27.1053  -13.1284   21.5837 C   0  0  0  0  0  0  0  0  0  0  0  0
  -26.2360  -13.3488   19.3402 C   0  0  0  0  0  0  0  0  0  0  0  0
  -26.8506  -26.3588   23.0910 C   0  0  0  0  0  0  0  0  0  0  0  0
  -27.9919  -10.0663   20.4567 C   0  0  0  0  0  0  0  0  0  0  0  0
  -28.8296   -9.0782   20.9739 C   0  0  0  0  0  0  0  0  0  0  0  0
  -27.2691  -28.5364   22.1414 C   0  0  0  0  0  0  0  0  0  0  0  0
  -26.7852  -22.7924   18.6679 C   0  0  0  0  0  0  0  0  0  0  0  0
  -27.2220   -8.6298   22.7209 C   0  0  0  0  0  0  0  0  0  0  0  0
  -27.4149  -15.1917   20.3655 C   0  0  0  0  0  0  0  0  0  0  0  0
  -29.1968  -16.9417   19.8461 C   0  0  0  0  0  0  0  0  0  0  0  0
  -18.1533  -28.5797   22.0521 C   0  0  0  0  0  0  0  0  0  0  0  0
  -25.3293  -28.1948   23.5485 C   0  0  0  0  0  0  0  0  0  0  0  0
  -19.4744  -28.1331   21.8583 C   0  0  0  0  0  0  0  0  0  0  0  0
  -25.6069  -22.0881   16.6738 C   0  0  0  0  0  0  0  0  0  0  0  0
  -26.1217  -29.0476   22.7669 C   0  0  0  0  0  0  0  0  0  0  0  0
  -27.9328  -23.0357   17.9104 C   0  0  0  0  0  0  0  0  0  0  0  0
  -25.6154  -22.2954   18.0697 C   0  0  0  0  0  0  0  0  0  0  0  0
  -26.4226  -12.5876   20.4941 C   0  0  0  0  0  0  0  0  0  0  0  0
  -27.6303  -27.1989   22.3014 C   0  0  0  0  0  0  0  0  0  0  0  0
  -26.7693  -10.3362   21.0716 C   0  0  0  0  0  0  0  0  0  0  0  0
  -28.4447   -8.3599   22.1060 C   0  0  0  0  0  0  0  0  0  0  0  0
  -26.3844   -9.6180   22.2037 C   0  0  0  0  0  0  0  0  0  0  0  0
  -27.9267  -16.5369   20.2987 C   0  0  0  0  0  0  0  0  0  0  0  0
  -29.1902  -18.3085   19.9821 C   0  0  0  0  0  0  0  0  0  0  0  0
  -30.2852  -16.1529   19.3474 C   0  0  0  0  0  0  0  0  0  0  0  0
  -22.8003  -29.6759   22.3177 C   0  0  0  0  0  0  0  0  0  0  0  0
  -24.2775  -32.3235   23.4711 C   0  0  0  0  0  0  0  0  0  0  0  0
  -27.1819  -33.8294   24.4426 C   0  0  0  0  0  0  0  0  0  0  0  0
  -24.3661  -22.0815   20.2397 C   0  0  0  0  0  0  0  0  0  0  0  0
  -17.7393  -29.9944   21.7326 C   0  0  0  0  0  0  0  0  0  0  0  0
  -24.1075  -28.7211   24.2505 C   0  0  0  0  0  0  0  0  0  0  0  0
  -24.3654  -21.6506   15.9377 C   0  0  0  0  0  0  0  0  0  0  0  0
  -25.7708  -30.4993   22.5722 C   0  0  0  0  0  0  0  0  0  0  0  0
  -18.9144  -30.9623   21.6202 C   0  0  0  0  0  0  0  0  0  0  0  0
  -23.3060  -21.0836   16.8704 C   0  0  0  0  0  0  0  0  0  0  0  0
  -27.2463  -21.8322   22.5563 C   0  0  0  0  0  0  0  0  0  0  0  0
  -20.0240  -30.3579   20.7657 C   0  0  0  0  0  0  0  0  0  0  0  0
  -27.7990  -20.4399   22.2584 C   0  0  0  0  0  0  0  0  0  0  0  0
  -23.1663  -21.9649   18.0993 C   0  0  0  0  0  0  0  0  0  0  0  0
  -25.7477  -21.9162   22.2834 C   0  0  0  0  0  0  0  0  0  0  0  0
  -25.9269  -20.1108   20.5936 C   0  0  0  0  0  0  0  0  0  0  0  0
  -20.5688  -29.0715   21.3981 C   0  0  1  0  0  0  0  0  0  0  0  0
  -23.5345  -29.9735   23.5945 C   0  0  1  0  0  0  0  0  0  0  0  0
  -27.4420  -20.0106   20.8260 C   0  0  2  0  0  0  0  0  0  0  0  0
  -28.0785  -36.0101   25.3016 C   0  0  0  0  0  0  0  0  0  0  0  0
  -31.5864  -25.4389   21.8785 C   0  0  0  0  0  0  0  0  0  0  0  0
  -24.0514  -33.5164   20.6719 C   0  0  0  0  0  0  0  0  0  0  0  0
  -25.7582  -35.2231   21.3370 C   0  0  0  0  0  0  0  0  0  0  0  0
  -23.5703  -35.1188   22.5308 C   0  0  0  0  0  0  0  0  0  0  0  0
  -28.1448  -32.5801   26.9467 C   0  0  0  0  0  0  0  0  0  0  0  0
  -28.7745  -25.8710   17.7583 C   0  0  0  0  0  0  0  0  0  0  0  0
  -29.1660  -23.5508   18.5732 C   0  0  0  0  0  0  0  0  0  0  0  0
  -30.3035  -25.4683   19.6823 C   0  0  0  0  0  0  0  0  0  0  0  0
  -29.0602  -25.3413   21.9009 C   0  0  0  0  0  0  0  0  0  1  0  0
  -25.2872  -33.3061   22.9290 C   0  0  1  0  0  0  0  0  0  0  0  0
  -27.5317  -34.6415   25.6765 C   0  0  2  0  0  0  0  0  0  0  0  0
  -30.3335  -24.9684   21.1312 C   0  0  2  0  0  0  0  0  0  0  0  0
  -24.6726  -34.2633   21.8691 C   0  0  0  0  0  0  0  0  0  0  0  0
  -27.1685  -17.5634   20.6928 N   0  0  0  0  0  0  0  0  0  0  0  0
  -27.9645  -18.6268   20.4884 N   0  0  0  0  0  0  0  0  0  0  0  0
  -24.4274  -22.0362   18.8377 N   0  0  0  0  0  0  0  0  0  0  0  0
  -24.5633  -30.9650   23.2742 N   0  0  0  0  0  0  0  0  0  0  0  0
  -25.4116  -21.4460   20.9387 N   0  0  0  0  0  0  0  0  0  0  0  0
  -30.1134  -19.2570   19.7168 N   0  0  0  0  0  0  0  0  0  0  0  0
  -30.1240  -14.7626   19.2740 N   0  0  0  0  0  0  0  0  0  0  0  0
  -21.4608  -29.3854   22.4936 N   0  0  0  0  0  0  0  0  0  0  0  0
  -25.8587  -33.9849   24.0871 N   0  0  0  0  0  0  0  0  0  0  0  0
  -28.5591  -33.9315   26.4897 N   0  3  0  0  0  0  0  0  0  0  0  0
  -29.0804  -24.9906   18.9426 N   0  3  1  0  0  0  0  0  0  0  0  0
  -31.3745  -16.6642   18.9931 O   0  0  0  0  0  0  0  0  0  0  0  0
  -23.4040  -29.7088   21.2519 O   0  0  0  0  0  0  0  0  0  0  0  0
  -23.2758  -32.7454   24.0544 O   0  0  0  0  0  0  0  0  0  0  0  0
  -28.0014  -33.1303   23.8509 O   0  0  0  0  0  0  0  0  0  0  0  0
  -23.4034  -22.5960   20.8220 O   0  0  0  0  0  0  0  0  0  0  0  0
  -25.9385  -11.3170   20.5565 O   0  0  0  0  0  0  0  0  0  0  0  0
  -28.7542  -26.7139   21.6861 O   0  0  0  0  0  0  0  0  0  1  0  0
  -29.2485   -7.4100   22.6016 F   0  0  0  0  0  0  0  0  0  0  0  0
  -25.2105   -9.8720   22.7980 F   0  0  0  0  0  0  0  0  0  0  0  0
  1  2  1  0  0  0  0
  1  5  2  0  0  0  0
  2  6  2  0  0  0  0
  3 10  2  0  0  0  0
  3 18  1  0  0  0  0
  4 11  1  0  0  0  0
  4 18  2  0  0  0  0
  5 20  1  0  0  0  0
  6 22  1  0  0  0  0
  7  9  2  0  0  0  0
  7 23  1  0  0  0  0
  8 12  2  0  0  0  0
  8 21  1  0  0  0  0
  9 25  1  0  0  0  0
 10 27  1  0  0  0  0
 11 27  2  0  0  0  0
 12 28  1  0  0  0  0
 13 14  2  0  0  0  0
 13 29  1  0  0  0  0
 14 30  1  0  0  0  0
 15 24  1  0  0  0  0
 15 28  2  0  0  0  0
 16 25  2  0  0  0  0
 16 26  1  0  0  0  0
 17 30  2  0  0  0  0
 17 31  1  0  0  0  0
 18 32  1  0  0  0  0
 19 32  1  0  0  0  0
 19 33  2  0  0  0  0
 19 34  1  0  0  0  0
 20 22  2  0  0  0  0
 20 39  1  0  0  0  0
 21 24  2  0  0  0  0
 21 40  1  0  0  0  0
 22 51  1  0  0  0  0
 23 26  2  0  0  0  0
 23 41  1  0  0  0  0
 24 42  1  0  0  0  0
 25 61  1  0  0  0  0
 26 70  1  0  0  0  0
 27 84  1  0  0  0  0
 28 85  1  0  0  0  0
 29 31  2  0  0  0  0
 29 84  1  0  0  0  0
 30 86  1  0  0  0  0
 31 87  1  0  0  0  0
 32 68  2  0  0  0  0
 33 69  1  0  0  0  0
 33 73  1  0  0  0  0
 34 74  1  0  0  0  0
 34 79  2  0  0  0  0
 35 52  1  0  0  0  0
 35 75  1  0  0  0  0
 35 80  2  0  0  0  0
 36 64  1  0  0  0  0
 36 71  1  0  0  0  0
 36 81  2  0  0  0  0
 37 65  1  0  0  0  0
 37 76  1  0  0  0  0
 37 82  2  0  0  0  0
 38 70  1  0  0  0  0
 38 72  1  0  0  0  0
 38 83  2  0  0  0  0
 39 43  1  0  0  0  0
 40 52  1  0  0  0  0
 41 44  1  0  0  0  0
 42 71  1  0  0  0  0
 43 46  1  0  0  0  0
 44 48  1  0  0  0  0
 45 47  1  0  0  0  0
 45 49  1  0  0  0  0
 46 51  1  0  0  0  0
 47 53  1  0  0  0  0
 48 70  1  0  0  0  0
 49 72  1  0  0  0  0
 50 53  1  0  0  0  0
 50 72  1  0  0  0  0
 51 75  1  0  0  0  0
 52 71  1  0  0  0  0
 53 69  1  0  0  0  0
 54 65  1  0  0  0  0
 55 66  1  0  0  0  0
 56 67  1  0  0  0  0
 57 67  1  0  0  0  0
 58 67  1  0  0  0  0
 59 77  1  0  0  0  0
 60 78  1  0  0  0  0
 61 78  1  0  0  0  0
 62 66  1  0  0  0  0
 62 78  1  0  0  0  0
 63 66  1  0  0  0  0
 63 85  1  0  0  0  0
 64 67  1  0  0  0  0
 64 76  1  0  0  0  0
 65 77  1  0  0  0  0
 68 69  1  0  0  0  0
M  CHG  2  77   1  78   1
M  ISO  4  38 100  63 101  70 100  85 101
M  END
> <Batch ID>
0012

> <Smiles>
CNC(C)C(=O)NC(C(=O)N1Cc2cc([101O:1][101CH2:1]C(C)CN(C)Cc3ccc4c(c3)[100N:0]([100C:0](=O)N3CCCC(n5nc(-c6ccc(Oc7ccc(F)cc7F)cc6)c(C(N)=O)c5N)C3)CCC4)ccc2CC1C(=O)NC1CCCc2ccccc21)C(C)(C)C

> <Shape>
0.235

> <Color>
0.077

> <Negative vol penalty>
0.000

$$$$

  -OEChem-04042320463D

 83 91  0     1  0  0  0  0  0999 V2000
  -26.8598  -19.1699   17.8141 C   0  0  0  0  0  0  0  0  0  0  0  0
  -27.5548  -19.5668   18.9520 C   0  0  0  0  0  0  0  0  0  0  0  0
  -23.0835   -9.9116   19.8944 C   0  0  0  0  0  0  0  0  0  0  0  0
  -23.8455   -9.8531   22.1863 C   0  0  0  0  0  0  0  0  0  0  0  0
  -27.0585  -19.8404   16.6080 C   0  0  0  0  0  0  0  0  0  0  0  0
  -28.4499  -20.6339   18.8841 C   0  0  0  0  0  0  0  0  0  0  0  0
  -27.9549  -23.8356   22.7763 C   0  0  0  0  0  0  0  0  0  0  0  0
  -30.3569  -18.3489   24.2730 C   0  0  0  0  0  0  0  0  0  0  0  0
  -32.5522  -17.5516   23.6549 C   0  0  0  0  0  0  0  0  0  0  0  0
  -29.7810  -17.4873   23.3394 C   0  0  0  0  0  0  0  0  0  0  0  0
  -31.9763  -16.6899   22.7213 C   0  0  0  0  0  0  0  0  0  0  0  0
  -22.3564   -8.7403   20.1062 C   0  0  0  0  0  0  0  0  0  0  0  0
  -23.1184   -8.6818   22.3982 C   0  0  0  0  0  0  0  0  0  0  0  0
  -28.5171  -23.4508   23.9927 C   0  0  0  0  0  0  0  0  0  0  0  0
  -23.4560   -5.3847   21.7304 C   0  0  0  0  0  0  0  0  0  0  0  0
  -24.0868   -4.3450   22.4135 C   0  0  0  0  0  0  0  0  0  0  0  0
  -30.4222  -24.8636   23.5522 C   0  0  0  0  0  0  0  0  0  0  0  0
  -22.3848   -4.4374   24.1257 C   0  0  0  0  0  0  0  0  0  0  0  0
  -23.8281  -10.4680   20.9344 C   0  0  0  0  0  0  0  0  0  0  0  0
  -24.1338  -13.0004   20.8983 C   0  0  0  0  0  0  0  0  0  0  0  0
  -27.9493  -20.9224   16.5275 C   0  0  0  0  0  0  0  0  0  0  0  0
  -28.6284  -24.7304   21.9323 C   0  0  0  0  0  0  0  0  0  0  0  0
  -28.6618  -21.3187   17.6754 C   0  0  0  0  0  0  0  0  0  0  0  0
  -29.8652  -25.2601   22.3268 C   0  0  0  0  0  0  0  0  0  0  0  0
  -31.7424  -18.3811   24.4307 C   0  0  0  0  0  0  0  0  0  0  0  0
  -30.5907  -16.6578   22.5636 C   0  0  0  0  0  0  0  0  0  0  0  0
  -22.3738   -8.1254   21.3581 C   0  0  0  0  0  0  0  0  0  0  0  0
  -29.7523  -23.9626   24.3795 C   0  0  0  0  0  0  0  0  0  0  0  0
  -22.2897   -5.9509   22.2450 C   0  0  0  0  0  0  0  0  0  0  0  0
  -23.5512   -3.8713   23.6111 C   0  0  0  0  0  0  0  0  0  0  0  0
  -21.7541   -5.4772   23.4426 C   0  0  0  0  0  0  0  0  0  0  0  0
  -24.5799  -11.6777   20.7161 C   0  0  0  0  0  0  0  0  0  0  0  0
  -25.2148  -13.7771   20.5596 C   0  0  0  0  0  0  0  0  0  0  0  0
  -22.8566  -13.4838   21.3349 C   0  0  0  0  0  0  0  0  0  0  0  0
  -29.8126  -24.5759   18.9865 C   0  0  0  0  0  0  0  0  0  0  0  0
  -30.3507  -27.7401   19.4559 C   0  0  0  0  0  0  0  0  0  0  0  0
  -30.8365  -30.3008   21.6590 C   0  0  0  0  0  0  0  0  0  0  0  0
  -30.6657  -14.8942   20.7662 C   0  0  0  0  0  0  0  0  0  0  0  0
  -28.1664  -21.5861   15.1907 C   0  0  0  0  0  0  0  0  0  0  0  0
  -27.9961  -25.1561   20.6356 C   0  0  0  0  0  0  0  0  0  0  0  0
  -30.6193  -26.2394   21.4661 C   0  0  0  0  0  0  0  0  0  0  0  0
  -28.8524  -22.9461   15.2901 C   0  0  0  0  0  0  0  0  0  0  0  0
  -29.5835  -12.5449   18.3195 C   0  0  0  0  0  0  0  0  0  0  0  0
  -30.0540  -22.8707   16.2268 C   0  0  0  0  0  0  0  0  0  0  0  0
  -28.1486  -12.2186   18.7398 C   0  0  0  0  0  0  0  0  0  0  0  0
  -30.4964  -12.7466   19.5276 C   0  0  0  0  0  0  0  0  0  0  0  0
  -28.5807  -13.3974   20.9332 C   0  0  0  0  0  0  0  0  0  0  0  0
  -29.6228  -22.4874   17.6475 C   0  0  1  0  0  0  0  0  0  0  0  0
  -29.0084  -25.6759   19.6195 C   0  0  1  0  0  0  0  0  0  0  0  0
  -27.6093  -13.2496   19.7508 C   0  0  2  0  0  0  0  0  0  0  0  0
  -31.2881  -32.7678   21.7435 C   0  0  0  0  0  0  0  0  0  0  0  0
  -33.2598  -27.2315   18.6886 C   0  0  0  0  0  0  0  0  0  0  0  0
  -33.8393  -29.4516   19.6903 C   0  0  0  0  0  0  0  0  0  0  0  0
  -32.2836  -29.3313   17.7440 C   0  0  0  0  0  0  0  0  0  0  0  0
  -28.3174  -30.8295   23.1195 C   0  0  0  0  0  0  0  0  0  0  0  0
  -33.4109  -20.9884   23.9262 C   0  0  0  0  0  0  0  0  0  0  0  0
  -32.3617  -19.3080   25.4349 C   0  0  0  0  0  0  0  0  0  0  0  0
  -31.1551  -21.7727   26.8821 C   0  0  0  0  0  0  0  0  0  0  0  0
  -32.4692  -21.6998   26.1192 C   0  0  0  0  0  0  0  0  0  0  0  0
  -29.9878  -22.2818   26.0454 C   0  0  0  0  0  0  0  0  0  1  0  0
  -31.4879  -28.5596   20.0164 C   0  0  1  0  0  0  0  0  0  0  0  0
  -30.2200  -31.6853   21.7461 C   0  0  2  0  0  0  0  0  0  0  0  0
  -32.7046  -28.6236   19.0504 C   0  0  0  0  0  0  0  0  0  0  0  0
  -25.8456  -11.6139   20.2941 N   0  0  0  0  0  0  0  0  0  0  0  0
  -26.2040  -12.9063   20.2084 N   0  0  0  0  0  0  0  0  0  0  0  0
  -29.9626  -26.6201   20.2046 N   0  0  0  0  0  0  0  0  0  0  0  0
  -29.9237  -13.7396   20.4391 N   0  0  0  0  0  0  0  0  0  0  0  0
  -25.4062  -15.1131   20.5309 N   0  0  0  0  0  0  0  0  0  0  0  0
  -21.8580  -12.5496   21.6422 N   0  0  0  0  0  0  0  0  0  0  0  0
  -30.0061  -15.7821   21.6153 N   0  0  0  0  0  0  0  0  0  0  0  0
  -29.0510  -23.6297   18.3277 N   0  0  0  0  0  0  0  0  0  0  0  0
  -30.9245  -29.8621   20.3548 N   0  0  0  0  0  0  0  0  0  0  0  0
  -29.4194  -31.8180   22.9961 N   0  3  0  0  0  0  0  0  0  0  0  0
  -32.3632  -20.7499   24.9870 N   0  3  1  0  0  0  0  0  0  0  0  0
  -22.6028  -14.7083   21.4333 O   0  0  0  0  0  0  0  0  0  0  0  0
  -31.0339  -24.5856   19.0871 O   0  0  0  0  0  0  0  0  0  0  0  0
  -29.8214  -28.0853   18.3965 O   0  0  0  0  0  0  0  0  0  0  0  0
  -31.2067  -29.6730   22.6486 O   0  0  0  0  0  0  0  0  0  0  0  0
  -31.7919  -15.0945   20.3038 O   0  0  0  0  0  0  0  0  0  0  0  0
  -21.6642   -6.9825   21.5652 O   0  0  0  0  0  0  0  0  0  0  0  0
  -30.3035  -23.5882   25.5660 O   0  0  0  0  0  0  0  0  0  1  0  0
  -24.1562   -2.8717   24.2662 F   0  0  0  0  0  0  0  0  0  0  0  0
  -20.6331   -6.0163   23.9413 F   0  0  0  0  0  0  0  0  0  0  0  0
  1  2  1  0  0  0  0
  1  5  2  0  0  0  0
  2  6  2  0  0  0  0
  3 12  2  0  0  0  0
  3 19  1  0  0  0  0
  4 13  1  0  0  0  0
  4 19  2  0  0  0  0
  5 21  1  0  0  0  0
  6 23  1  0  0  0  0
  7 14  2  0  0  0  0
  7 22  1  0  0  0  0
  8 10  2  0  0  0  0
  8 25  1  0  0  0  0
  9 11  1  0  0  0  0
  9 25  2  0  0  0  0
 10 26  1  0  0  0  0
 11 26  2  0  0  0  0
 12 27  1  0  0  0  0
 13 27  2  0  0  0  0
 14 28  1  0  0  0  0
 15 16  2  0  0  0  0
 15 29  1  0  0  0  0
 16 30  1  0  0  0  0
 17 24  1  0  0  0  0
 17 28  2  0  0  0  0
 18 30  2  0  0  0  0
 18 31  1  0  0  0  0
 19 32  1  0  0  0  0
 20 32  1  0  0  0  0
 20 33  2  0  0  0  0
 20 34  1  0  0  0  0
 21 23  2  0  0  0  0
 21 39  1  0  0  0  0
 22 24  2  0  0  0  0
 22 40  1  0  0  0  0
 23 48  1  0  0  0  0
 24 41  1  0  0  0  0
 25 57  1  0  0  0  0
 26 70  1  0  0  0  0
 27 80  1  0  0  0  0
 28 81  1  0  0  0  0
 29 31  2  0  0  0  0
 29 80  1  0  0  0  0
 30 82  1  0  0  0  0
 31 83  1  0  0  0  0
 32 64  2  0  0  0  0
 33 65  1  0  0  0  0
 33 68  1  0  0  0  0
 34 69  1  0  0  0  0
 34 75  2  0  0  0  0
 35 49  1  0  0  0  0
 35 71  1  0  0  0  0
 35 76  2  0  0  0  0
 36 61  1  0  0  0  0
 36 66  1  0  0  0  0
 36 77  2  0  0  0  0
 37 62  1  0  0  0  0
 37 72  1  0  0  0  0
 37 78  2  0  0  0  0
 38 67  1  0  0  0  0
 38 70  1  0  0  0  0
 38 79  2  0  0  0  0
 39 42  1  0  0  0  0
 40 49  1  0  0  0  0
 41 66  1  0  0  0  0
 42 44  1  0  0  0  0
 43 45  1  0  0  0  0
 43 46  1  0  0  0  0
 44 48  1  0  0  0  0
 45 50  1  0  0  0  0
 46 67  1  0  0  0  0
 47 50  1  0  0  0  0
 47 67  1  0  0  0  0
 48 71  1  0  0  0  0
 49 66  1  0  0  0  0
 50 65  1  0  0  0  0
 51 62  1  0  0  0  0
 52 63  1  0  0  0  0
 53 63  1  0  0  0  0
 54 63  1  0  0  0  0
 55 73  1  0  0  0  0
 56 74  1  0  0  0  0
 57 74  1  0  0  0  0
 58 59  1  0  0  0  0
 58 60  1  0  0  0  0
 59 74  1  0  0  0  0
 60 81  1  0  0  0  0
 61 63  1  0  0  0  0
 61 72  1  0  0  0  0
 62 73  1  0  0  0  0
 64 65  1  0  0  0  0
M  CHG  2  73   1  74   1
M  ISO  4  38 100  60 101  70 100  81 101
M  END
> <Batch ID>
0012

> <Smiles>
CNC(C)C(=O)NC(C(=O)N1Cc2cc([101O:1][101CH2:1]CCN(C)Cc3ccc([100NH:0][100C:0](=O)N4CCCC(n5nc(-c6ccc(Oc7ccc(F)cc7F)cc6)c(C(N)=O)c5N)C4)cc3)ccc2CC1C(=O)NC1CCCc2ccccc21)C(C)(C)C

> <Shape>
0.252

> <Color>
0.203

> <Negative vol penalty>
0.000

$$$$

  -OEChem-04042320463D

 84 92  0     1  0  0  0  0  0999 V2000
  -27.0830  -37.8820   20.9362 C   0  0  0  0  0  0  0  0  0  0  0  0
  -27.8531  -36.7383   21.1217 C   0  0  0  0  0  0  0  0  0  0  0  0
  -22.2181  -10.4638   20.3779 C   0  0  0  0  0  0  0  0  0  0  0  0
  -23.8859   -9.9940   22.0616 C   0  0  0  0  0  0  0  0  0  0  0  0
  -25.7893  -37.9411   21.4525 C   0  0  0  0  0  0  0  0  0  0  0  0
  -27.3301  -35.6534   21.8245 C   0  0  0  0  0  0  0  0  0  0  0  0
  -26.7972  -29.1571   18.7575 C   0  0  0  0  0  0  0  0  0  0  0  0
  -27.7226  -19.8747   19.5543 C   0  0  0  0  0  0  0  0  0  0  0  0
  -21.8593   -9.1161   20.3572 C   0  0  0  0  0  0  0  0  0  0  0  0
  -23.5271   -8.6462   22.0409 C   0  0  0  0  0  0  0  0  0  0  0  0
  -26.8575  -27.8366   18.3119 C   0  0  0  0  0  0  0  0  0  0  0  0
  -27.9802  -21.1408   19.0287 C   0  0  0  0  0  0  0  0  0  0  0  0
  -21.0631   -6.7067   23.3009 C   0  0  0  0  0  0  0  0  0  0  0  0
  -20.9082   -6.0600   24.5270 C   0  0  0  0  0  0  0  0  0  0  0  0
  -25.7998  -27.0879   20.3536 C   0  0  0  0  0  0  0  0  0  0  0  0
  -22.6484   -4.4969   23.9224 C   0  0  0  0  0  0  0  0  0  0  0  0
  -23.2315  -10.9028   21.2301 C   0  0  0  0  0  0  0  0  0  0  0  0
  -23.0633  -13.3062   22.0686 C   0  0  0  0  0  0  0  0  0  0  0  0
  -25.2467  -36.8527   22.1537 C   0  0  0  0  0  0  0  0  0  0  0  0
  -26.2233  -29.4500   19.9978 C   0  0  0  0  0  0  0  0  0  0  0  0
  -26.0283  -35.6985   22.3518 C   0  0  0  0  0  0  0  0  0  0  0  0
  -25.7253  -28.4101   20.7998 C   0  0  0  0  0  0  0  0  0  0  0  0
  -27.4423  -19.7273   20.9127 C   0  0  0  0  0  0  0  0  0  0  0  0
  -22.5138   -8.2073   21.1887 C   0  0  0  0  0  0  0  0  0  0  0  0
  -26.3602  -26.8045   19.1081 C   0  0  0  0  0  0  0  0  0  0  0  0
  -22.0106   -6.2485   22.3855 C   0  0  0  0  0  0  0  0  0  0  0  0
  -27.9576  -22.2595   19.8616 C   0  0  0  0  0  0  0  0  0  0  0  0
  -21.7008   -4.9551   24.8377 C   0  0  0  0  0  0  0  0  0  0  0  0
  -22.8032   -5.1436   22.6962 C   0  0  0  0  0  0  0  0  0  0  0  0
  -27.4197  -20.8459   21.7456 C   0  0  0  0  0  0  0  0  0  0  0  0
  -27.6773  -22.1121   21.2200 C   0  0  0  0  0  0  0  0  0  0  0  0
  -23.6029  -12.2948   21.2515 C   0  0  0  0  0  0  0  0  0  0  0  0
  -23.7481  -14.4408   21.7080 C   0  0  0  0  0  0  0  0  0  0  0  0
  -22.0349  -13.2271   23.0645 C   0  0  0  0  0  0  0  0  0  0  0  0
  -25.2788  -32.0833   22.4978 C   0  0  0  0  0  0  0  0  0  0  0  0
  -22.9759  -30.0582   22.4236 C   0  0  0  0  0  0  0  0  0  0  0  0
  -20.4807  -27.8357   21.7366 C   0  0  0  0  0  0  0  0  0  0  0  0
  -28.8616  -16.6853   20.6440 C   0  0  0  0  0  0  0  0  0  0  0  0
  -23.8605  -36.9813   22.7340 C   0  0  0  0  0  0  0  0  0  0  0  0
  -26.1927  -30.8513   20.5449 C   0  0  0  0  0  0  0  0  0  0  0  0
  -25.1480  -28.7687   22.1419 C   0  0  0  0  0  0  0  0  0  0  0  0
  -23.2453  -35.6456   23.1434 C   0  0  0  0  0  0  0  0  0  0  0  0
  -26.8619  -15.3378   17.8357 C   0  0  0  0  0  0  0  0  0  0  0  0
  -24.2507  -34.8148   23.9344 C   0  0  0  0  0  0  0  0  0  0  0  0
  -25.8394  -14.4543   18.5486 C   0  0  0  0  0  0  0  0  0  0  0  0
  -28.1627  -15.4499   18.6249 C   0  0  0  0  0  0  0  0  0  0  0  0
  -26.9557  -15.0266   20.7410 C   0  0  0  0  0  0  0  0  0  0  0  0
  -25.4873  -34.4916   23.0872 C   0  0  1  0  0  0  0  0  0  0  0  0
  -24.9325  -31.1465   21.3780 C   0  0  1  0  0  0  0  0  0  0  0  0
  -25.6167  -14.9304   19.9946 C   0  0  2  0  0  0  0  0  0  0  0  0
  -18.1391  -27.2333   22.4087 C   0  0  0  0  0  0  0  0  0  0  0  0
  -24.0418  -28.7847   24.9822 C   0  0  0  0  0  0  0  0  0  0  0  0
  -21.9367  -27.4348   25.1030 C   0  0  0  0  0  0  0  0  0  0  0  0
  -21.8289  -29.9239   25.2269 C   0  0  0  0  0  0  0  0  0  0  0  0
  -29.2520  -17.9561   22.7206 C   0  0  0  0  0  0  0  0  0  0  0  0
  -19.4458  -28.3336   19.0089 C   0  0  0  0  0  0  0  0  0  0  0  0
  -27.1662  -18.3720   21.4707 C   0  0  0  0  0  0  0  0  0  0  0  0
  -27.4967  -25.1803   17.7936 C   0  0  0  0  0  0  0  0  0  1  0  0
  -27.8496  -23.7181   17.9863 C   0  0  0  0  0  0  0  0  0  0  0  0
  -22.3651  -28.8149   23.0191 C   0  0  1  0  0  0  0  0  0  0  0  0
  -19.0037  -28.0363   21.4492 C   0  0  2  0  0  0  0  0  0  0  0  0
  -22.5597  -28.7384   24.5598 C   0  0  0  0  0  0  0  0  0  0  0  0
  -24.5570  -12.7471   20.4334 N   0  0  0  0  0  0  0  0  0  0  0  0
  -24.6221  -14.0552   20.7346 N   0  0  0  0  0  0  0  0  0  0  0  0
  -24.3154  -29.9759   22.0243 N   0  0  0  0  0  0  0  0  0  0  0  0
  -27.9182  -15.8621   20.0074 N   0  0  0  0  0  0  0  0  0  0  0  0
  -23.6819  -15.7208   22.1318 N   0  0  0  0  0  0  0  0  0  0  0  0
  -21.4363  -11.9837   23.3095 N   0  0  0  0  0  0  0  0  0  0  0  0
  -25.1976  -33.4203   22.1583 N   0  0  0  0  0  0  0  0  0  0  0  0
  -20.9703  -28.8003   22.5916 N   0  0  0  0  0  0  0  0  0  0  0  0
  -28.3813  -17.5738   21.6180 N   0  0  0  0  0  0  0  0  0  0  0  0
  -18.6839  -27.6084   20.0580 N   0  3  0  0  0  0  0  0  0  0  0  0
  -21.6466  -14.2325   23.7063 O   0  0  0  0  0  0  0  0  0  0  0  0
  -25.5951  -31.6278   23.5906 O   0  0  0  0  0  0  0  0  0  0  0  0
  -22.2880  -31.0776   22.3195 O   0  0  0  0  0  0  0  0  0  0  0  0
  -21.1339  -26.9132   21.2540 O   0  0  0  0  0  0  0  0  0  0  0  0
  -30.0632  -16.6360   20.3513 O   0  0  0  0  0  0  0  0  0  0  0  0
  -22.1637   -6.8921   21.1689 O   0  0  0  0  0  0  0  0  0  0  0  0
  -26.4182  -25.5181   18.6649 O   0  0  0  0  0  0  0  0  0  1  0  0
  -28.2116  -23.5027   19.3450 O   0  0  0  0  0  0  0  0  0  0  0  0
  -21.5530   -4.3351   26.0158 F   0  0  0  0  0  0  0  0  0  0  0  0
  -23.7160   -4.6996   21.8213 F   0  0  0  0  0  0  0  0  0  0  0  0
  -27.1517  -20.7144   23.0523 F   0  0  0  0  0  0  0  0  0  0  0  0
  -27.6539  -23.1834   22.0248 F   0  0  0  0  0  0  0  0  0  0  0  0
  1  2  1  0  0  0  0
  1  5  2  0  0  0  0
  2  6  2  0  0  0  0
  3  9  2  0  0  0  0
  3 17  1  0  0  0  0
  4 10  1  0  0  0  0
  4 17  2  0  0  0  0
  5 19  1  0  0  0  0
  6 21  1  0  0  0  0
  7 11  2  0  0  0  0
  7 20  1  0  0  0  0
  8 12  2  0  0  0  0
  8 23  1  0  0  0  0
  9 24  1  0  0  0  0
 10 24  2  0  0  0  0
 11 25  1  0  0  0  0
 12 27  1  0  0  0  0
 13 14  2  0  0  0  0
 13 26  1  0  0  0  0
 14 28  1  0  0  0  0
 15 22  1  0  0  0  0
 15 25  2  0  0  0  0
 16 28  2  0  0  0  0
 16 29  1  0  0  0  0
 17 32  1  0  0  0  0
 18 32  1  0  0  0  0
 18 33  2  0  0  0  0
 18 34  1  0  0  0  0
 19 21  2  0  0  0  0
 19 39  1  0  0  0  0
 20 22  2  0  0  0  0
 20 40  1  0  0  0  0
 21 48  1  0  0  0  0
 22 41  1  0  0  0  0
 23 30  2  0  0  0  0
 23 57  1  0  0  0  0
 24 78  1  0  0  0  0
 25 79  1  0  0  0  0
 26 29  2  0  0  0  0
 26 78  1  0  0  0  0
 27 31  2  0  0  0  0
 27 80  1  0  0  0  0
 28 81  1  0  0  0  0
 29 82  1  0  0  0  0
 30 31  1  0  0  0  0
 30 83  1  0  0  0  0
 31 84  1  0  0  0  0
 32 63  2  0  0  0  0
 33 64  1  0  0  0  0
 33 67  1  0  0  0  0
 34 68  1  0  0  0  0
 34 73  2  0  0  0  0
 35 49  1  0  0  0  0
 35 69  1  0  0  0  0
 35 74  2  0  0  0  0
 36 60  1  0  0  0  0
 36 65  1  0  0  0  0
 36 75  2  0  0  0  0
 37 61  1  0  0  0  0
 37 70  1  0  0  0  0
 37 76  2  0  0  0  0
 38 66  1  0  0  0  0
 38 71  1  0  0  0  0
 38 77  2  0  0  0  0
 39 42  1  0  0  0  0
 40 49  1  0  0  0  0
 41 65  1  0  0  0  0
 42 44  1  0  0  0  0
 43 45  1  0  0  0  0
 43 46  1  0  0  0  0
 44 48  1  0  0  0  0
 45 50  1  0  0  0  0
 46 66  1  0  0  0  0
 47 50  1  0  0  0  0
 47 66  1  0  0  0  0
 48 69  1  0  0  0  0
 49 65  1  0  0  0  0
 50 64  1  0  0  0  0
 51 61  1  0  0  0  0
 52 62  1  0  0  0  0
 53 62  1  0  0  0  0
 54 62  1  0  0  0  0
 55 71  1  0  0  0  0
 56 72  1  0  0  0  0
 57 71  1  0  0  0  0
 58 59  1  0  0  0  0
 58 79  1  0  0  0  0
 59 80  1  0  0  0  0
 60 62  1  0  0  0  0
 60 70  1  0  0  0  0
 61 72  1  0  0  0  0
 63 64  1  0  0  0  0
M  CHG  1  72   1
M  ISO  4  38 100  58 101  71 100  79 101
M  END
> <Batch ID>
0012

> <Smiles>
CNC(C)C(=O)NC(C(=O)N1Cc2cc([101O:1][101CH2:1]COc3ccc(C[100N:0](C)[100C:0](=O)N4CCCC(n5nc(-c6ccc(Oc7ccc(F)cc7F)cc6)c(C(N)=O)c5N)C4)c(F)c3F)ccc2CC1C(=O)NC1CCCc2ccccc21)C(C)(C)C

> <Shape>
0.335

> <Color>
0.102

> <Negative vol penalty>
0.000

$$$$

  -OEChem-04042320463D

 83 91  0     1  0  0  0  0  0999 V2000
  -17.1367  -30.4530   23.5296 C   0  0  0  0  0  0  0  0  0  0  0  0
  -18.0980  -30.4005   24.5338 C   0  0  0  0  0  0  0  0  0  0  0  0
  -26.1367  -18.3450   18.3445 C   0  0  0  0  0  0  0  0  0  0  0  0
  -27.5454  -17.6601   20.1840 C   0  0  0  0  0  0  0  0  0  0  0  0
  -17.1880  -29.5492   22.4692 C   0  0  0  0  0  0  0  0  0  0  0  0
  -19.1106  -29.4434   24.4788 C   0  0  0  0  0  0  0  0  0  0  0  0
  -25.9934  -28.4912   26.2214 C   0  0  0  0  0  0  0  0  0  0  0  0
  -33.5008  -26.1357   22.5932 C   0  0  0  0  0  0  0  0  0  0  0  0
  -25.8211  -17.0105   18.0893 C   0  0  0  0  0  0  0  0  0  0  0  0
  -27.2298  -16.3255   19.9287 C   0  0  0  0  0  0  0  0  0  0  0  0
  -26.8163  -27.6042   26.9142 C   0  0  0  0  0  0  0  0  0  0  0  0
  -24.6575  -14.2174   20.5284 C   0  0  0  0  0  0  0  0  0  0  0  0
  -34.1027  -26.7020   23.7169 C   0  0  0  0  0  0  0  0  0  0  0  0
  -24.3380  -13.4086   21.6189 C   0  0  0  0  0  0  0  0  0  0  0  0
  -26.8507  -26.1453   24.9933 C   0  0  0  0  0  0  0  0  0  0  0  0
  -26.1902  -11.9532   21.0822 C   0  0  0  0  0  0  0  0  0  0  0  0
  -26.9989  -18.6698   19.3919 C   0  0  0  0  0  0  0  0  0  0  0  0
  -26.6429  -20.9353   20.5092 C   0  0  0  0  0  0  0  0  0  0  0  0
  -18.2072  -28.5867   22.3961 C   0  0  0  0  0  0  0  0  0  0  0  0
  -25.5834  -28.2061   24.9110 C   0  0  0  0  0  0  0  0  0  0  0  0
  -19.1747  -28.5249   23.4172 C   0  0  0  0  0  0  0  0  0  0  0  0
  -26.0247  -27.0315   24.2852 C   0  0  0  0  0  0  0  0  0  0  0  0
  -32.0740  -26.3500   24.9809 C   0  0  0  0  0  0  0  0  0  0  0  0
  -32.1854  -25.6767   22.6633 C   0  0  0  0  0  0  0  0  0  0  0  0
  -26.3677  -16.0008   18.8814 C   0  0  0  0  0  0  0  0  0  0  0  0
  -27.2427  -26.4297   26.3012 C   0  0  0  0  0  0  0  0  0  0  0  0
  -25.7434  -13.8941   19.7146 C   0  0  0  0  0  0  0  0  0  0  0  0
  -25.1043  -12.2765   21.8959 C   0  0  0  0  0  0  0  0  0  0  0  0
  -33.3893  -26.8091   24.9107 C   0  0  0  0  0  0  0  0  0  0  0  0
  -26.5097  -12.7620   19.9916 C   0  0  0  0  0  0  0  0  0  0  0  0
  -31.4721  -25.7838   23.8571 C   0  0  0  0  0  0  0  0  0  0  0  0
  -27.3257  -20.0481   19.6557 C   0  0  0  0  0  0  0  0  0  0  0  0
  -27.3435  -22.1126   20.4121 C   0  0  0  0  0  0  0  0  0  0  0  0
  -25.4794  -20.7148   21.3175 C   0  0  0  0  0  0  0  0  0  0  0  0
  -22.7802  -27.7204   23.4933 C   0  0  0  0  0  0  0  0  0  0  0  0
  -24.5888  -27.6831   20.8007 C   0  0  0  0  0  0  0  0  0  0  0  0
  -27.6482  -27.1872   19.3722 C   0  0  0  0  0  0  0  0  0  0  0  0
  -32.1475  -24.9236   20.2596 C   0  0  0  0  0  0  0  0  0  0  0  0
  -18.1939  -27.6005   21.2552 C   0  0  0  0  0  0  0  0  0  0  0  0
  -24.7174  -29.1860   24.1679 C   0  0  0  0  0  0  0  0  0  0  0  0
  -25.6293  -26.6888   22.8729 C   0  0  0  0  0  0  0  0  0  0  0  0
  -19.5160  -26.8586   21.0759 C   0  0  0  0  0  0  0  0  0  0  0  0
  -30.9928  -23.5187   17.1985 C   0  0  0  0  0  0  0  0  0  0  0  0
  -20.0308  -26.3528   22.4198 C   0  0  0  0  0  0  0  0  0  0  0  0
  -29.8797  -22.5635   17.6351 C   0  0  0  0  0  0  0  0  0  0  0  0
  -32.1485  -23.5371   18.1974 C   0  0  0  0  0  0  0  0  0  0  0  0
  -30.6489  -22.8464   20.0258 C   0  0  0  0  0  0  0  0  0  0  0  0
  -20.3030  -27.5171   23.3799 C   0  0  1  0  0  0  0  0  0  0  0  0
  -23.9420  -28.5472   23.0198 C   0  0  1  0  0  0  0  0  0  0  0  0
  -29.4338  -22.8425   19.0839 C   0  0  2  0  0  0  0  0  0  0  0  0
  -28.8071  -27.1920   17.1464 C   0  0  0  0  0  0  0  0  0  0  0  0
  -23.3269  -24.9846   20.1406 C   0  0  0  0  0  0  0  0  0  0  0  0
  -25.1621  -24.6113   18.4790 C   0  0  0  0  0  0  0  0  0  0  0  0
  -23.5852  -26.5217   18.1849 C   0  0  0  0  0  0  0  0  0  0  0  0
  -29.4812  -29.3580   20.2009 C   0  0  0  0  0  0  0  0  0  0  0  0
  -31.3068  -26.4658   26.2650 C   0  0  0  0  0  0  0  0  0  0  0  0
  -30.1460  -25.2269   28.0970 C   0  0  0  0  0  0  0  0  0  0  0  0
  -28.9274  -26.1167   27.9504 C   0  0  0  0  0  0  0  0  0  1  0  0
  -25.3218  -26.6192   20.0198 C   0  0  1  0  0  0  0  0  0  0  0  0
  -28.4390  -28.0122   18.3729 C   0  0  2  0  0  0  0  0  0  0  0  0
  -24.3551  -25.6894   19.2334 C   0  0  0  0  0  0  0  0  0  0  0  0
  -28.3791  -20.6135   19.0601 N   0  0  0  0  0  0  0  0  0  0  0  0
  -28.3634  -21.8687   19.5400 N   0  0  0  0  0  0  0  0  0  0  0  0
  -24.7764  -27.6757   22.1901 N   0  0  0  0  0  0  0  0  0  0  0  0
  -31.6512  -23.8114   19.5473 N   0  0  0  0  0  0  0  0  0  0  0  0
  -27.1805  -23.3225   20.9884 N   0  0  0  0  0  0  0  0  0  0  0  0
  -24.8843  -19.4461   21.2999 N   0  0  0  0  0  0  0  0  0  0  0  0
  -31.5772  -25.1027   21.5195 N   0  0  0  0  0  0  0  0  0  0  0  0
  -21.5519  -28.1671   23.0448 N   0  0  0  0  0  0  0  0  0  0  0  0
  -26.2890  -27.3208   19.1827 N   0  0  0  0  0  0  0  0  0  0  0  0
  -29.6957  -28.5156   18.9961 N   0  3  0  0  0  0  0  0  0  0  0  0
  -30.8566  -25.1507   26.7957 N   0  3  0  0  0  0  0  0  0  0  0  0
  -24.9727  -21.6210   22.0216 O   0  0  0  0  0  0  0  0  0  0  0  0
  -22.9833  -26.7481   24.2111 O   0  0  0  0  0  0  0  0  0  0  0  0
  -23.8816  -28.4954   20.1993 O   0  0  0  0  0  0  0  0  0  0  0  0
  -28.1829  -26.4908   20.2322 O   0  0  0  0  0  0  0  0  0  0  0  0
  -32.9949  -25.6786   19.7758 O   0  0  0  0  0  0  0  0  0  0  0  0
  -26.0598  -14.6985   18.6328 O   0  0  0  0  0  0  0  0  0  0  0  0
  -28.0454  -25.5619   26.9754 O   0  0  0  0  0  0  0  0  0  1  0  0
  -24.7983  -11.5008   22.9441 F   0  0  0  0  0  0  0  0  0  0  0  0
  -33.9768  -27.3529   25.9856 F   0  0  0  0  0  0  0  0  0  0  0  0
  -27.5548  -12.4469   19.2141 F   0  0  0  0  0  0  0  0  0  0  0  0
  -30.2066  -25.3434   23.9258 F   0  0  0  0  0  0  0  0  0  0  0  0
  1  2  1  0  0  0  0
  1  5  2  0  0  0  0
  2  6  2  0  0  0  0
  3  9  2  0  0  0  0
  3 17  1  0  0  0  0
  4 10  1  0  0  0  0
  4 17  2  0  0  0  0
  5 19  1  0  0  0  0
  6 21  1  0  0  0  0
  7 11  2  0  0  0  0
  7 20  1  0  0  0  0
  8 13  1  0  0  0  0
  8 24  2  0  0  0  0
  9 25  1  0  0  0  0
 10 25  2  0  0  0  0
 11 26  1  0  0  0  0
 12 14  2  0  0  0  0
 12 27  1  0  0  0  0
 13 29  2  0  0  0  0
 14 28  1  0  0  0  0
 15 22  1  0  0  0  0
 15 26  2  0  0  0  0
 16 28  2  0  0  0  0
 16 30  1  0  0  0  0
 17 32  1  0  0  0  0
 18 32  1  0  0  0  0
 18 33  2  0  0  0  0
 18 34  1  0  0  0  0
 19 21  2  0  0  0  0
 19 39  1  0  0  0  0
 20 22  2  0  0  0  0
 20 40  1  0  0  0  0
 21 48  1  0  0  0  0
 22 41  1  0  0  0  0
 23 29  1  0  0  0  0
 23 31  2  0  0  0  0
 23 56  1  0  0  0  0
 24 31  1  0  0  0  0
 24 68  1  0  0  0  0
 25 78  1  0  0  0  0
 26 79  1  0  0  0  0
 27 30  2  0  0  0  0
 27 78  1  0  0  0  0
 28 80  1  0  0  0  0
 29 81  1  0  0  0  0
 30 82  1  0  0  0  0
 31 83  1  0  0  0  0
 32 62  2  0  0  0  0
 33 63  1  0  0  0  0
 33 66  1  0  0  0  0
 34 67  1  0  0  0  0
 34 73  2  0  0  0  0
 35 49  1  0  0  0  0
 35 69  1  0  0  0  0
 35 74  2  0  0  0  0
 36 59  1  0  0  0  0
 36 64  1  0  0  0  0
 36 75  2  0  0  0  0
 37 60  1  0  0  0  0
 37 70  1  0  0  0  0
 37 76  2  0  0  0  0
 38 65  1  0  0  0  0
 38 68  1  0  0  0  0
 38 77  2  0  0  0  0
 39 42  1  0  0  0  0
 40 49  1  0  0  0  0
 41 64  1  0  0  0  0
 42 44  1  0  0  0  0
 43 45  1  0  0  0  0
 43 46  1  0  0  0  0
 44 48  1  0  0  0  0
 45 50  1  0  0  0  0
 46 65  1  0  0  0  0
 47 50  1  0  0  0  0
 47 65  1  0  0  0  0
 48 69  1  0  0  0  0
 49 64  1  0  0  0  0
 50 63  1  0  0  0  0
 51 60  1  0  0  0  0
 52 61  1  0  0  0  0
 53 61  1  0  0  0  0
 54 61  1  0  0  0  0
 55 71  1  0  0  0  0
 56 72  1  0  0  0  0
 57 58  1  0  0  0  0
 57 72  1  0  0  0  0
 58 79  1  0  0  0  0
 59 61  1  0  0  0  0
 59 70  1  0  0  0  0
 60 71  1  0  0  0  0
 62 63  1  0  0  0  0
M  CHG  2  71   1  72   1
M  ISO  4  38 100  58 101  68 100  79 101
M  END
> <Batch ID>
0012

> <Smiles>
CNC(C)C(=O)NC(C(=O)N1Cc2cc([101O:1][101CH2:1]CNCc3c(F)ccc([100NH:0][100C:0](=O)N4CCCC(n5nc(-c6ccc(Oc7ccc(F)cc7F)cc6)c(C(N)=O)c5N)C4)c3F)ccc2CC1C(=O)NC1CCCc2ccccc21)C(C)(C)C

> <Shape>
0.204

> <Color>
0.073

> <Negative vol penalty>
0.000

$$$$

  -OEChem-04042320463D

 84 92  0     1  0  0  0  0  0999 V2000
  -29.6386  -35.7642   18.1857 C   0  0  0  0  0  0  0  0  0  0  0  0
  -29.3015  -34.4756   17.7840 C   0  0  0  0  0  0  0  0  0  0  0  0
  -22.8185  -10.1374   20.3479 C   0  0  0  0  0  0  0  0  0  0  0  0
  -24.4127   -9.3585   21.9876 C   0  0  0  0  0  0  0  0  0  0  0  0
  -29.6468  -36.0909   19.5411 C   0  0  0  0  0  0  0  0  0  0  0  0
  -28.9735  -33.5126   18.7376 C   0  0  0  0  0  0  0  0  0  0  0  0
  -24.8616  -29.0110   18.1603 C   0  0  0  0  0  0  0  0  0  0  0  0
  -28.3224  -17.8709   19.6947 C   0  0  0  0  0  0  0  0  0  0  0  0
  -22.2361   -8.8705   20.3122 C   0  0  0  0  0  0  0  0  0  0  0  0
  -23.8303   -8.0915   21.9520 C   0  0  0  0  0  0  0  0  0  0  0  0
  -24.9889  -27.6592   17.8436 C   0  0  0  0  0  0  0  0  0  0  0  0
  -28.1086  -19.0623   19.0016 C   0  0  0  0  0  0  0  0  0  0  0  0
  -21.0964   -6.5718   23.2314 C   0  0  0  0  0  0  0  0  0  0  0  0
  -20.8564   -5.9360   24.4495 C   0  0  0  0  0  0  0  0  0  0  0  0
  -24.9856  -27.1145   20.1936 C   0  0  0  0  0  0  0  0  0  0  0  0
  -28.3593  -20.3040   21.0588 C   0  0  0  0  0  0  0  0  0  0  0  0
  -22.2952   -4.1136   23.7819 C   0  0  0  0  0  0  0  0  0  0  0  0
  -23.9069  -10.3814   21.1856 C   0  0  0  0  0  0  0  0  0  0  0  0
  -24.1637  -12.7612   22.0677 C   0  0  0  0  0  0  0  0  0  0  0  0
  -29.3093  -35.1340   20.5113 C   0  0  0  0  0  0  0  0  0  0  0  0
  -24.8062  -29.4263   19.4985 C   0  0  0  0  0  0  0  0  0  0  0  0
  -28.9785  -33.8264   20.1074 C   0  0  0  0  0  0  0  0  0  0  0  0
  -24.8549  -28.4719   20.5246 C   0  0  0  0  0  0  0  0  0  0  0  0
  -28.5545  -17.8960   21.0699 C   0  0  0  0  0  0  0  0  0  0  0  0
  -22.7420   -7.8475   21.1143 C   0  0  0  0  0  0  0  0  0  0  0  0
  -25.0538  -26.7110   18.8603 C   0  0  0  0  0  0  0  0  0  0  0  0
  -28.1271  -20.2789   19.6836 C   0  0  0  0  0  0  0  0  0  0  0  0
  -21.9358   -5.9784   22.2885 C   0  0  0  0  0  0  0  0  0  0  0  0
  -21.4558   -4.7070   24.7248 C   0  0  0  0  0  0  0  0  0  0  0  0
  -28.5730  -19.1126   21.7519 C   0  0  0  0  0  0  0  0  0  0  0  0
  -22.5352   -4.7493   22.5638 C   0  0  0  0  0  0  0  0  0  0  0  0
  -24.5093  -11.6898   21.2224 C   0  0  0  0  0  0  0  0  0  0  0  0
  -25.0244  -13.7707   21.7117 C   0  0  0  0  0  0  0  0  0  0  0  0
  -23.1551  -12.8372   23.0838 C   0  0  0  0  0  0  0  0  0  0  0  0
  -26.6099  -31.2769   21.3494 C   0  0  0  0  0  0  0  0  0  0  0  0
  -24.2162  -30.8051   23.4871 C   0  0  0  0  0  0  0  0  0  0  0  0
  -21.6252  -28.8558   24.5519 C   0  0  0  0  0  0  0  0  0  0  0  0
  -30.4242  -15.1388   20.5770 C   0  0  0  0  0  0  0  0  0  0  0  0
  -29.3781  -35.5210   21.9673 C   0  0  0  0  0  0  0  0  0  0  0  0
  -24.6418  -30.8858   19.8230 C   0  0  0  0  0  0  0  0  0  0  0  0
  -24.7792  -28.8641   21.9768 C   0  0  0  0  0  0  0  0  0  0  0  0
  -28.6544  -34.5453   22.8918 C   0  0  0  0  0  0  0  0  0  0  0  0
  -28.1744  -14.2057   17.7896 C   0  0  0  0  0  0  0  0  0  0  0  0
  -29.0209  -33.1066   22.5417 C   0  0  0  0  0  0  0  0  0  0  0  0
  -27.0301  -13.4938   18.5091 C   0  0  0  0  0  0  0  0  0  0  0  0
  -29.4895  -14.0803   18.5527 C   0  0  0  0  0  0  0  0  0  0  0  0
  -28.2668  -13.8247   20.6867 C   0  0  0  0  0  0  0  0  0  0  0  0
  -28.5926  -32.7609   21.1103 C   0  0  1  0  0  0  0  0  0  0  0  0
  -25.1125  -31.2418   21.2298 C   0  0  1  0  0  0  0  0  0  0  0  0
  -26.9175  -13.9715   19.9674 C   0  0  2  0  0  0  0  0  0  0  0  0
  -19.8795  -28.7087   26.3487 C   0  0  0  0  0  0  0  0  0  0  0  0
  -26.3400  -29.8761   25.4711 C   0  0  0  0  0  0  0  0  0  0  0  0
  -24.5101  -28.8696   26.8520 C   0  0  0  0  0  0  0  0  0  0  0  0
  -24.5598  -31.3317   26.4541 C   0  0  0  0  0  0  0  0  0  0  0  0
  -31.2052  -16.7729   22.2501 C   0  0  0  0  0  0  0  0  0  0  0  0
  -19.4203  -28.9934   22.5825 C   0  0  0  0  0  0  0  0  0  0  0  0
  -28.7831  -16.6203   21.8076 C   0  0  0  0  0  0  0  0  0  0  0  0
  -26.5394  -23.4100   18.7691 C   0  0  0  0  0  0  0  0  0  0  0  0
  -25.8719  -24.5692   19.4924 C   0  0  0  0  0  0  0  0  0  1  0  0
  -27.3104  -22.5121   19.7238 C   0  0  0  0  0  0  0  0  0  0  0  0
  -23.9264  -29.7825   24.5592 C   0  0  1  0  0  0  0  0  0  0  0  0
  -20.2005  -29.2013   24.9461 C   0  0  2  0  0  0  0  0  0  0  0  0
  -24.8375  -29.9574   25.8069 C   0  0  0  0  0  0  0  0  0  0  0  0
  -25.5112  -11.9906   20.3919 N   0  0  0  0  0  0  0  0  0  0  0  0
  -25.8025  -13.2625   20.7135 N   0  0  0  0  0  0  0  0  0  0  0  0
  -24.6251  -30.3038   22.2432 N   0  0  0  0  0  0  0  0  0  0  0  0
  -29.3435  -14.5001   19.9469 N   0  0  0  0  0  0  0  0  0  0  0  0
  -25.1838  -15.0347   22.1582 N   0  0  0  0  0  0  0  0  0  0  0  0
  -22.3589  -11.7083   23.3205 N   0  0  0  0  0  0  0  0  0  0  0  0
  -27.1691  -32.5061   21.0563 N   0  0  0  0  0  0  0  0  0  0  0  0
  -22.4988  -29.8820   24.8431 N   0  0  0  0  0  0  0  0  0  0  0  0
  -30.1192  -16.0759   21.5757 N   0  0  0  0  0  0  0  0  0  0  0  0
  -19.2349  -28.5787   23.9969 N   0  3  0  0  0  0  0  0  0  0  0  0
  -22.9545  -13.8807   23.7504 O   0  0  0  0  0  0  0  0  0  0  0  0
  -27.2132  -30.2641   21.6843 O   0  0  0  0  0  0  0  0  0  0  0  0
  -24.0777  -32.0041   23.7418 O   0  0  0  0  0  0  0  0  0  0  0  0
  -21.9329  -27.7814   24.0405 O   0  0  0  0  0  0  0  0  0  0  0  0
  -31.5945  -14.8929   20.2580 O   0  0  0  0  0  0  0  0  0  0  0  0
  -22.1738   -6.6112   21.0799 O   0  0  0  0  0  0  0  0  0  0  0  0
  -25.1788  -25.3910   18.5540 O   0  0  0  0  0  0  0  0  0  1  0  0
  -27.9181  -21.4494   19.0019 O   0  0  0  0  0  0  0  0  0  0  0  0
  -21.2264   -4.0973   25.8952 F   0  0  0  0  0  0  0  0  0  0  0  0
  -28.7940  -19.1465   23.0735 F   0  0  0  0  0  0  0  0  0  0  0  0
  -23.3435   -4.1750   21.6623 F   0  0  0  0  0  0  0  0  0  0  0  0
  1  2  1  0  0  0  0
  1  5  2  0  0  0  0
  2  6  2  0  0  0  0
  3  9  2  0  0  0  0
  3 18  1  0  0  0  0
  4 10  1  0  0  0  0
  4 18  2  0  0  0  0
  5 20  1  0  0  0  0
  6 22  1  0  0  0  0
  7 11  2  0  0  0  0
  7 21  1  0  0  0  0
  8 12  2  0  0  0  0
  8 24  1  0  0  0  0
  9 25  1  0  0  0  0
 10 25  2  0  0  0  0
 11 26  1  0  0  0  0
 12 27  1  0  0  0  0
 13 14  2  0  0  0  0
 13 28  1  0  0  0  0
 14 29  1  0  0  0  0
 15 23  1  0  0  0  0
 15 26  2  0  0  0  0
 16 27  2  0  0  0  0
 16 30  1  0  0  0  0
 17 29  2  0  0  0  0
 17 31  1  0  0  0  0
 18 32  1  0  0  0  0
 19 32  1  0  0  0  0
 19 33  2  0  0  0  0
 19 34  1  0  0  0  0
 20 22  2  0  0  0  0
 20 39  1  0  0  0  0
 21 23  2  0  0  0  0
 21 40  1  0  0  0  0
 22 48  1  0  0  0  0
 23 41  1  0  0  0  0
 24 30  2  0  0  0  0
 24 57  1  0  0  0  0
 25 79  1  0  0  0  0
 26 80  1  0  0  0  0
 27 81  1  0  0  0  0
 28 31  2  0  0  0  0
 28 79  1  0  0  0  0
 29 82  1  0  0  0  0
 30 83  1  0  0  0  0
 31 84  1  0  0  0  0
 32 64  2  0  0  0  0
 33 65  1  0  0  0  0
 33 68  1  0  0  0  0
 34 69  1  0  0  0  0
 34 74  2  0  0  0  0
 35 49  1  0  0  0  0
 35 70  1  0  0  0  0
 35 75  2  0  0  0  0
 36 61  1  0  0  0  0
 36 66  1  0  0  0  0
 36 76  2  0  0  0  0
 37 62  1  0  0  0  0
 37 71  1  0  0  0  0
 37 77  2  0  0  0  0
 38 67  1  0  0  0  0
 38 72  1  0  0  0  0
 38 78  2  0  0  0  0
 39 42  1  0  0  0  0
 40 49  1  0  0  0  0
 41 66  1  0  0  0  0
 42 44  1  0  0  0  0
 43 45  1  0  0  0  0
 43 46  1  0  0  0  0
 44 48  1  0  0  0  0
 45 50  1  0  0  0  0
 46 67  1  0  0  0  0
 47 50  1  0  0  0  0
 47 67  1  0  0  0  0
 48 70  1  0  0  0  0
 49 66  1  0  0  0  0
 50 65  1  0  0  0  0
 51 62  1  0  0  0  0
 52 63  1  0  0  0  0
 53 63  1  0  0  0  0
 54 63  1  0  0  0  0
 55 72  1  0  0  0  0
 56 73  1  0  0  0  0
 57 72  1  0  0  0  0
 58 59  1  0  0  0  0
 58 60  1  0  0  0  0
 59 80  1  0  0  0  0
 60 81  1  0  0  0  0
 61 63  1  0  0  0  0
 61 71  1  0  0  0  0
 62 73  1  0  0  0  0
 64 65  1  0  0  0  0
M  CHG  1  73   1
M  ISO  4  38 100  59 101  72 100  80 101
M  END
> <Batch ID>
0012

> <Smiles>
CNC(C)C(=O)NC(C(=O)N1Cc2cc([101O:1][101CH2:1]CCOc3ccc(C[100N:0](C)[100C:0](=O)N4CCCC(n5nc(-c6ccc(Oc7ccc(F)cc7F)cc6)c(C(N)=O)c5N)C4)c(F)c3)ccc2CC1C(=O)NC1CCCc2ccccc21)C(C)(C)C

> <Shape>
0.322

> <Color>
0.147

> <Negative vol penalty>
0.000

$$$$

  -OEChem-04042320463D

 87 96  0     1  0  0  0  0  0999 V2000
  -18.3257  -24.5976   23.6271 C   0  0  0  0  0  0  0  0  0  0  0  0
  -19.6622  -24.4405   23.2744 C   0  0  0  0  0  0  0  0  0  0  0  0
  -23.9003   -9.5446   19.9723 C   0  0  0  0  0  0  0  0  0  0  0  0
  -23.9274   -9.9331   22.3567 C   0  0  0  0  0  0  0  0  0  0  0  0
  -17.7098  -25.8403   23.4846 C   0  0  0  0  0  0  0  0  0  0  0  0
  -20.3833  -25.5257   22.7778 C   0  0  0  0  0  0  0  0  0  0  0  0
  -24.9848  -25.9153   24.8562 C   0  0  0  0  0  0  0  0  0  0  0  0
  -23.3629   -8.2752   20.1852 C   0  0  0  0  0  0  0  0  0  0  0  0
  -23.3899   -8.6636   22.5696 C   0  0  0  0  0  0  0  0  0  0  0  0
  -25.9722  -25.0520   24.3833 C   0  0  0  0  0  0  0  0  0  0  0  0
  -20.3572   -7.1830   22.3937 C   0  0  0  0  0  0  0  0  0  0  0  0
  -19.3109   -7.0691   23.3090 C   0  0  0  0  0  0  0  0  0  0  0  0
  -26.8514  -26.8239   23.0024 C   0  0  0  0  0  0  0  0  0  0  0  0
  -27.4672  -20.4222   22.6351 C   0  0  0  0  0  0  0  0  0  0  0  0
  -29.6752  -19.0829   21.5798 C   0  0  0  0  0  0  0  0  0  0  0  0
  -20.6398   -5.5521   24.6393 C   0  0  0  0  0  0  0  0  0  0  0  0
  -24.1826  -10.3736   21.0581 C   0  0  0  0  0  0  0  0  0  0  0  0
  -24.0310  -12.8873   20.6512 C   0  0  0  0  0  0  0  0  0  0  0  0
  -18.4264  -26.9437   22.9951 C   0  0  0  0  0  0  0  0  0  0  0  0
  -24.9165  -27.2384   24.3968 C   0  0  0  0  0  0  0  0  0  0  0  0
  -19.7761  -26.7840   22.6273 C   0  0  0  0  0  0  0  0  0  0  0  0
  -25.8637  -27.7026   23.4730 C   0  0  0  0  0  0  0  0  0  0  0  0
  -28.4505  -21.1329   21.9471 C   0  0  0  0  0  0  0  0  0  0  0  0
  -28.6918  -18.3722   22.2679 C   0  0  0  0  0  0  0  0  0  0  0  0
  -23.1077   -7.8347   21.4838 C   0  0  0  0  0  0  0  0  0  0  0  0
  -26.9039  -25.5054   23.4541 C   0  0  0  0  0  0  0  0  0  0  0  0
  -21.5448   -6.4814   22.6012 C   0  0  0  0  0  0  0  0  0  0  0  0
  -19.4521   -6.2537   24.4318 C   0  0  0  0  0  0  0  0  0  0  0  0
  -27.5878  -19.0418   22.7956 C   0  0  0  0  0  0  0  0  0  0  0  0
  -29.5545  -20.4633   21.4194 C   0  0  0  0  0  0  0  0  0  0  0  0
  -21.6861   -5.6660   23.7240 C   0  0  0  0  0  0  0  0  0  0  0  0
  -24.7383  -11.6847   20.8388 C   0  0  0  0  0  0  0  0  0  0  0  0
  -25.0082  -13.8383   20.4860 C   0  0  0  0  0  0  0  0  0  0  0  0
  -28.2996  -23.6720   19.4756 C   0  0  0  0  0  0  0  0  0  0  0  0
  -22.6170  -13.1237   20.6283 C   0  0  0  0  0  0  0  0  0  0  0  0
  -22.7615  -28.9535   22.8100 C   0  0  0  0  0  0  0  0  0  0  0  0
  -24.8250  -31.3831   23.4113 C   0  0  0  0  0  0  0  0  0  0  0  0
  -28.0158  -32.3664   24.1174 C   0  0  0  0  0  0  0  0  0  0  0  0
  -29.8498  -16.1553   21.9666 C   0  0  0  0  0  0  0  0  0  0  0  0
  -17.7048  -28.2557   22.8141 C   0  0  0  0  0  0  0  0  0  0  0  0
  -23.8616  -28.1647   24.9368 C   0  0  0  0  0  0  0  0  0  0  0  0
  -25.8462  -29.1199   22.9635 C   0  0  0  0  0  0  0  0  0  0  0  0
  -27.3506  -23.6375   18.3006 C   0  0  0  0  0  0  0  0  0  0  0  0
  -18.6424  -29.4466   22.6330 C   0  0  0  0  0  0  0  0  0  0  0  0
  -26.0223  -23.2391   18.9326 C   0  0  0  0  0  0  0  0  0  0  0  0
  -29.9967  -13.3474   19.7823 C   0  0  0  0  0  0  0  0  0  0  0  0
  -19.7369  -29.1157   21.6235 C   0  0  0  0  0  0  0  0  0  0  0  0
  -28.5836  -12.7635   19.8470 C   0  0  0  0  0  0  0  0  0  0  0  0
  -26.4251  -22.3896   20.1213 C   0  0  0  0  0  0  0  0  0  0  0  0
  -30.4484  -13.8908   21.1367 C   0  0  0  0  0  0  0  0  0  0  0  0
  -28.1126  -14.2639   21.8254 C   0  0  0  0  0  0  0  0  0  0  0  0
  -20.5985  -27.9435   22.1084 C   0  0  1  0  0  0  0  0  0  0  0  0
  -23.5723  -29.3440   24.0132 C   0  0  1  0  0  0  0  0  0  0  0  0
  -27.5889  -13.7627   20.4696 C   0  0  2  0  0  0  0  0  0  0  0  0
  -29.4017  -34.4203   24.5151 C   0  0  0  0  0  0  0  0  0  0  0  0
  -24.8121  -31.9687   20.4168 C   0  0  0  0  0  0  0  0  0  0  0  0
  -26.8754  -33.3476   20.7484 C   0  0  0  0  0  0  0  0  0  0  0  0
  -24.7479  -33.9981   21.8770 C   0  0  0  0  0  0  0  0  0  0  0  0
  -28.7268  -31.4976   26.8557 C   0  0  0  0  0  0  0  0  0  0  0  0
  -27.5445  -23.2764   22.9279 C   0  0  0  0  0  0  0  0  0  1  0  0
  -28.3161  -22.6299   21.7742 C   0  0  2  0  0  0  0  0  0  0  0  0
  -26.0185  -31.9729   22.6995 C   0  0  1  0  0  0  0  0  0  0  0  0
  -28.5679  -33.3233   25.1586 C   0  0  2  0  0  0  0  0  0  0  0  0
  -25.6129  -32.7945   21.4434 C   0  0  0  0  0  0  0  0  0  0  0  0
  -26.0626  -11.8535   20.7968 N   0  0  0  0  0  0  0  0  0  0  0  0
  -26.1952  -13.1733   20.5807 N   0  0  0  0  0  0  0  0  0  0  0  0
  -27.7030  -22.9431   20.5017 N   0  0  0  0  0  0  0  0  0  0  0  0
  -24.7915  -29.9854   23.5167 N   0  0  0  0  0  0  0  0  0  0  0  0
  -29.4593  -14.8339   21.6631 N   0  0  0  0  0  0  0  0  0  0  0  0
  -24.9592  -15.1700   20.2703 N   0  0  0  0  0  0  0  0  0  0  0  0
  -21.7545  -12.0348   20.8147 N   0  0  0  0  0  0  0  0  0  0  0  0
  -28.8169  -16.9700   22.4292 N   0  0  0  0  0  0  0  0  0  0  0  0
  -21.5377  -28.3891   23.1153 N   0  0  0  0  0  0  0  0  0  0  0  0
  -26.7546  -32.7368   23.7011 N   0  0  0  0  0  0  0  0  0  0  0  0
  -29.4259  -32.5906   26.1322 N   0  3  0  0  0  0  0  0  0  0  0  0
  -29.3966  -24.2101   19.4681 O   0  0  0  0  0  0  0  0  0  0  0  0
  -22.1326  -14.2639   20.4315 O   0  0  0  0  0  0  0  0  0  0  0  0
  -23.2121  -29.1511   21.6877 O   0  0  0  0  0  0  0  0  0  0  0  0
  -23.9581  -32.1351   23.8635 O   0  0  0  0  0  0  0  0  0  0  0  0
  -28.6424  -31.3903   23.7111 O   0  0  0  0  0  0  0  0  0  0  0  0
  -31.0090  -16.5438   21.8007 O   0  0  0  0  0  0  0  0  0  0  0  0
  -22.5830   -6.5962   21.6919 O   0  0  0  0  0  0  0  0  0  0  0  0
  -27.8683  -24.6648   22.9904 O   0  0  0  0  0  0  0  0  0  1  0  0
  -18.4478   -6.1456   25.3115 F   0  0  0  0  0  0  0  0  0  0  0  0
  -26.6367  -18.3688   23.4589 F   0  0  0  0  0  0  0  0  0  0  0  0
  -30.5044  -21.1378   20.7569 F   0  0  0  0  0  0  0  0  0  0  0  0
  -22.8251   -4.9904   23.9293 F   0  0  0  0  0  0  0  0  0  0  0  0
  1  2  1  0  0  0  0
  1  5  2  0  0  0  0
  2  6  2  0  0  0  0
  3  8  2  0  0  0  0
  3 17  1  0  0  0  0
  4  9  1  0  0  0  0
  4 17  2  0  0  0  0
  5 19  1  0  0  0  0
  6 21  1  0  0  0  0
  7 10  2  0  0  0  0
  7 20  1  0  0  0  0
  8 25  1  0  0  0  0
  9 25  2  0  0  0  0
 10 26  1  0  0  0  0
 11 12  2  0  0  0  0
 11 27  1  0  0  0  0
 12 28  1  0  0  0  0
 13 22  1  0  0  0  0
 13 26  2  0  0  0  0
 14 23  1  0  0  0  0
 14 29  2  0  0  0  0
 15 24  2  0  0  0  0
 15 30  1  0  0  0  0
 16 28  2  0  0  0  0
 16 31  1  0  0  0  0
 17 32  1  0  0  0  0
 18 32  1  0  0  0  0
 18 33  2  0  0  0  0
 18 35  1  0  0  0  0
 19 21  2  0  0  0  0
 19 40  1  0  0  0  0
 20 22  2  0  0  0  0
 20 41  1  0  0  0  0
 21 52  1  0  0  0  0
 22 42  1  0  0  0  0
 23 30  2  0  0  0  0
 23 61  1  0  0  0  0
 24 29  1  0  0  0  0
 24 72  1  0  0  0  0
 25 82  1  0  0  0  0
 26 83  1  0  0  0  0
 27 31  2  0  0  0  0
 27 82  1  0  0  0  0
 28 84  1  0  0  0  0
 29 85  1  0  0  0  0
 30 86  1  0  0  0  0
 31 87  1  0  0  0  0
 32 65  2  0  0  0  0
 33 66  1  0  0  0  0
 33 70  1  0  0  0  0
 34 43  1  0  0  0  0
 34 67  1  0  0  0  0
 34 76  2  0  0  0  0
 35 71  1  0  0  0  0
 35 77  2  0  0  0  0
 36 53  1  0  0  0  0
 36 73  1  0  0  0  0
 36 78  2  0  0  0  0
 37 62  1  0  0  0  0
 37 68  1  0  0  0  0
 37 79  2  0  0  0  0
 38 63  1  0  0  0  0
 38 74  1  0  0  0  0
 38 80  2  0  0  0  0
 39 69  1  0  0  0  0
 39 72  1  0  0  0  0
 39 81  2  0  0  0  0
 40 44  1  0  0  0  0
 41 53  1  0  0  0  0
 42 68  1  0  0  0  0
 43 45  1  0  0  0  0
 44 47  1  0  0  0  0
 45 49  1  0  0  0  0
 46 48  1  0  0  0  0
 46 50  1  0  0  0  0
 47 52  1  0  0  0  0
 48 54  1  0  0  0  0
 49 67  1  0  0  0  0
 50 69  1  0  0  0  0
 51 54  1  0  0  0  0
 51 69  1  0  0  0  0
 52 73  1  0  0  0  0
 53 68  1  0  0  0  0
 54 66  1  0  0  0  0
 55 63  1  0  0  0  0
 56 64  1  0  0  0  0
 57 64  1  0  0  0  0
 58 64  1  0  0  0  0
 59 75  1  0  0  0  0
 60 61  1  0  0  0  0
 60 83  1  0  0  0  0
 61 67  1  0  0  0  0
 62 64  1  0  0  0  0
 62 74  1  0  0  0  0
 63 75  1  0  0  0  0
 65 66  1  0  0  0  0
M  CHG  1  75   1
M  ISO  4  39 100  60 101  72 100  83 101
M  END
> <Batch ID>
0012

> <Smiles>
CNC(C)C(=O)NC(C(=O)N1Cc2cc([101O:1][101CH2:1]C(c3cc(F)c([100NH:0][100C:0](=O)N4CCCC(n5nc(-c6ccc(Oc7ccc(F)cc7F)cc6)c(C(N)=O)c5N)C4)cc3F)N3CCCC3=O)ccc2CC1C(=O)NC1CCCc2ccccc21)C(C)(C)C

> <Shape>
0.319

> <Color>
0.164

> <Negative vol penalty>
0.000

$$$$

  -OEChem-04042320463D

 83 91  0     1  0  0  0  0  0999 V2000
  -27.7651  -24.0178   17.1536 C   0  0  0  0  0  0  0  0  0  0  0  0
  -26.5732  -24.3487   17.7902 C   0  0  0  0  0  0  0  0  0  0  0  0
  -26.5603  -16.8264   21.9762 C   0  0  0  0  0  0  0  0  0  0  0  0
  -24.3440  -15.8908   21.7535 C   0  0  0  0  0  0  0  0  0  0  0  0
  -28.9806  -24.4456   17.6860 C   0  0  0  0  0  0  0  0  0  0  0  0
  -26.5962  -25.1067   18.9604 C   0  0  0  0  0  0  0  0  0  0  0  0
  -23.1238  -28.7928   18.9558 C   0  0  0  0  0  0  0  0  0  0  0  0
  -21.9970  -24.3896   24.8881 C   0  0  0  0  0  0  0  0  0  0  0  0
  -27.1147  -15.5654   21.7565 C   0  0  0  0  0  0  0  0  0  0  0  0
  -24.8983  -14.6298   21.5338 C   0  0  0  0  0  0  0  0  0  0  0  0
  -21.8063  -28.4268   19.2274 C   0  0  0  0  0  0  0  0  0  0  0  0
  -20.9262  -24.4746   23.9984 C   0  0  0  0  0  0  0  0  0  0  0  0
  -27.7437  -13.5462   19.1183 C   0  0  0  0  0  0  0  0  0  0  0  0
  -28.8205  -13.4563   18.2363 C   0  0  0  0  0  0  0  0  0  0  0  0
  -22.0709  -29.1851   21.5021 C   0  0  0  0  0  0  0  0  0  0  0  0
  -23.5084  -25.0835   23.1357 C   0  0  0  0  0  0  0  0  0  0  0  0
  -30.1994  -12.5687   20.0106 C   0  0  0  0  0  0  0  0  0  0  0  0
  -25.1749  -16.9891   21.9748 C   0  0  0  0  0  0  0  0  0  0  0  0
  -24.2885  -19.2633   21.2333 C   0  0  0  0  0  0  0  0  0  0  0  0
  -29.0180  -25.2174   18.8580 C   0  0  0  0  0  0  0  0  0  0  0  0
  -23.9296  -29.3487   19.9599 C   0  0  0  0  0  0  0  0  0  0  0  0
  -27.8134  -25.5441   19.5097 C   0  0  0  0  0  0  0  0  0  0  0  0
  -23.3976  -29.5597   21.2400 C   0  0  0  0  0  0  0  0  0  0  0  0
  -23.2882  -24.6941   24.4568 C   0  0  0  0  0  0  0  0  0  0  0  0
  -26.2837  -14.4672   21.5352 C   0  0  0  0  0  0  0  0  0  0  0  0
  -21.2805  -28.6202   20.5015 C   0  0  0  0  0  0  0  0  0  0  0  0
  -27.8946  -13.1475   20.4464 C   0  0  0  0  0  0  0  0  0  0  0  0
  -21.1465  -24.8641   22.6772 C   0  0  0  0  0  0  0  0  0  0  0  0
  -30.0484  -12.9675   18.6825 C   0  0  0  0  0  0  0  0  0  0  0  0
  -22.4376  -25.1685   22.2458 C   0  0  0  0  0  0  0  0  0  0  0  0
  -29.1225  -12.6587   20.8925 C   0  0  0  0  0  0  0  0  0  0  0  0
  -24.6017  -18.2913   22.2022 C   0  0  0  0  0  0  0  0  0  0  0  0
  -23.7723  -20.3125   21.9538 C   0  0  0  0  0  0  0  0  0  0  0  0
  -24.4496  -19.2215   19.8092 C   0  0  0  0  0  0  0  0  0  0  0  0
  -26.6327  -28.4933   21.3969 C   0  0  0  0  0  0  0  0  0  0  0  0
  -26.3666  -31.4161   22.7785 C   0  0  0  0  0  0  0  0  0  0  0  0
  -24.3491  -34.0019   23.7218 C   0  0  0  0  0  0  0  0  0  0  0  0
  -24.4327  -23.7036   26.4568 C   0  0  0  0  0  0  0  0  0  0  0  0
  -30.3586  -25.6168   19.4217 C   0  0  0  0  0  0  0  0  0  0  0  0
  -25.3405  -29.7630   19.6436 C   0  0  0  0  0  0  0  0  0  0  0  0
  -24.2147  -30.1715   22.3474 C   0  0  0  0  0  0  0  0  0  0  0  0
  -30.2749  -26.7334   20.4592 C   0  0  0  0  0  0  0  0  0  0  0  0
  -22.3590  -20.6566   26.7860 C   0  0  0  0  0  0  0  0  0  0  0  0
  -29.1615  -26.4480   21.4621 C   0  0  0  0  0  0  0  0  0  0  0  0
  -22.7978  -19.8165   25.5881 C   0  0  0  0  0  0  0  0  0  0  0  0
  -23.4763  -21.5736   27.2744 C   0  0  0  0  0  0  0  0  0  0  0  0
  -24.4702  -21.6177   25.0047 C   0  0  0  0  0  0  0  0  0  0  0  0
  -27.7959  -26.3858   20.7673 C   0  0  1  0  0  0  0  0  0  0  0  0
  -26.2304  -29.8455   20.8800 C   0  0  1  0  0  0  0  0  0  0  0  0
  -23.3492  -20.7147   24.4686 C   0  0  1  0  0  0  0  0  0  0  0  0
  -24.4136  -36.2355   24.8637 C   0  0  0  0  0  0  0  0  0  0  0  0
  -26.6291  -30.0242   25.4810 C   0  0  0  0  0  0  0  0  0  0  0  0
  -25.7496  -32.1052   26.5599 C   0  0  0  0  0  0  0  0  0  0  0  0
  -27.8939  -32.1729   25.2871 C   0  0  0  0  0  0  0  0  0  0  0  0
  -25.3993  -25.6676   25.3433 C   0  0  0  0  0  0  0  0  0  0  0  0
  -23.3460  -35.3936   21.3102 C   0  0  0  0  0  0  0  0  0  0  0  0
  -18.4349  -26.4255   20.8739 C   0  0  0  0  0  0  0  0  0  0  0  0
  -19.4568  -27.1690   20.0282 C   0  0  0  0  0  0  0  0  0  1  0  0
  -19.0521  -25.8550   22.1411 C   0  0  0  0  0  0  0  0  0  0  0  0
  -25.7121  -31.9519   24.0289 C   0  0  1  0  0  0  0  0  0  0  0  0
  -24.4801  -35.5024   23.5330 C   0  0  2  0  0  0  0  0  0  0  0  0
  -26.4811  -31.5502   25.3191 C   0  0  0  0  0  0  0  0  0  0  0  0
  -24.3091  -18.6878   23.4437 N   0  0  0  0  0  0  0  0  0  0  0  0
  -23.8067  -19.9206   23.2597 N   0  0  0  0  0  0  0  0  0  0  0  0
  -25.5908  -30.5542   21.9904 N   0  0  0  0  0  0  0  0  0  0  0  0
  -24.0322  -22.3791   26.1859 N   0  0  0  0  0  0  0  0  0  0  0  0
  -23.2970  -21.5229   21.5914 N   0  0  0  0  0  0  0  0  0  0  0  0
  -24.9958  -18.0668   19.2322 N   0  0  0  0  0  0  0  0  0  0  0  0
  -27.3151  -27.7197   20.4774 N   0  0  0  0  0  0  0  0  0  0  0  0
  -25.5805  -33.3920   23.8356 N   0  0  0  0  0  0  0  0  0  0  0  0
  -24.3956  -24.6062   25.3769 N   0  0  0  0  0  0  0  0  0  0  0  0
  -23.3849  -36.0123   22.6603 N   0  3  0  0  0  0  0  0  0  0  0  0
  -24.1344  -20.1860   19.0718 O   0  0  0  0  0  0  0  0  0  0  0  0
  -26.3466  -28.1759   22.5454 O   0  0  0  0  0  0  0  0  0  0  0  0
  -27.5211  -31.7555   22.5072 O   0  0  0  0  0  0  0  0  0  0  0  0
  -23.2629  -33.4286   23.7678 O   0  0  0  0  0  0  0  0  0  0  0  0
  -24.8484  -24.0467   27.5704 O   0  0  0  0  0  0  0  0  0  0  0  0
  -26.8243  -13.2366   21.3205 O   0  0  0  0  0  0  0  0  0  0  0  0
  -19.9950  -28.2631   20.7695 O   0  0  0  0  0  0  0  0  0  1  0  0
  -20.0930  -24.9477   21.8044 O   0  0  0  0  0  0  0  0  0  0  0  0
  -31.0820  -12.8797   17.8351 F   0  0  0  0  0  0  0  0  0  0  0  0
  -22.6553  -25.5444   20.9781 F   0  0  0  0  0  0  0  0  0  0  0  0
  -29.2733  -12.2729   22.1670 F   0  0  0  0  0  0  0  0  0  0  0  0
  1  2  1  0  0  0  0
  1  5  2  0  0  0  0
  2  6  2  0  0  0  0
  3  9  2  0  0  0  0
  3 18  1  0  0  0  0
  4 10  1  0  0  0  0
  4 18  2  0  0  0  0
  5 20  1  0  0  0  0
  6 22  1  0  0  0  0
  7 11  2  0  0  0  0
  7 21  1  0  0  0  0
  8 12  2  0  0  0  0
  8 24  1  0  0  0  0
  9 25  1  0  0  0  0
 10 25  2  0  0  0  0
 11 26  1  0  0  0  0
 12 28  1  0  0  0  0
 13 14  2  0  0  0  0
 13 27  1  0  0  0  0
 14 29  1  0  0  0  0
 15 23  1  0  0  0  0
 15 26  2  0  0  0  0
 16 24  2  0  0  0  0
 16 30  1  0  0  0  0
 17 29  2  0  0  0  0
 17 31  1  0  0  0  0
 18 32  1  0  0  0  0
 19 32  1  0  0  0  0
 19 33  2  0  0  0  0
 19 34  1  0  0  0  0
 20 22  2  0  0  0  0
 20 39  1  0  0  0  0
 21 23  2  0  0  0  0
 21 40  1  0  0  0  0
 22 48  1  0  0  0  0
 23 41  1  0  0  0  0
 24 71  1  0  0  0  0
 25 78  1  0  0  0  0
 26 79  1  0  0  0  0
 27 31  2  0  0  0  0
 27 78  1  0  0  0  0
 28 30  2  0  0  0  0
 28 80  1  0  0  0  0
 29 81  1  0  0  0  0
 30 82  1  0  0  0  0
 31 83  1  0  0  0  0
 32 63  2  0  0  0  0
 33 64  1  0  0  0  0
 33 67  1  0  0  0  0
 34 68  1  0  0  0  0
 34 73  2  0  0  0  0
 35 49  1  0  0  0  0
 35 69  1  0  0  0  0
 35 74  2  0  0  0  0
 36 60  1  0  0  0  0
 36 65  1  0  0  0  0
 36 75  2  0  0  0  0
 37 61  1  0  0  0  0
 37 70  1  0  0  0  0
 37 76  2  0  0  0  0
 38 66  1  0  0  0  0
 38 71  1  0  0  0  0
 38 77  2  0  0  0  0
 39 42  1  0  0  0  0
 40 49  1  0  0  0  0
 41 65  1  0  0  0  0
 42 44  1  0  0  0  0
 43 45  1  0  0  0  0
 43 46  1  0  0  0  0
 44 48  1  0  0  0  0
 45 50  1  0  0  0  0
 46 66  1  0  0  0  0
 47 50  1  0  0  0  0
 47 66  1  0  0  0  0
 48 69  1  0  0  0  0
 49 65  1  0  0  0  0
 50 64  1  0  0  0  0
 51 61  1  0  0  0  0
 52 62  1  0  0  0  0
 53 62  1  0  0  0  0
 54 62  1  0  0  0  0
 55 71  1  0  0  0  0
 56 72  1  0  0  0  0
 57 58  1  0  0  0  0
 57 59  1  0  0  0  0
 58 79  1  0  0  0  0
 59 80  1  0  0  0  0
 60 62  1  0  0  0  0
 60 70  1  0  0  0  0
 61 72  1  0  0  0  0
 63 64  1  0  0  0  0
M  CHG  1  72   1
M  ISO  4  38 100  58 101  71 100  79 101
M  END
> <Batch ID>
0012

> <Smiles>
CNC(C)C(=O)NC(C(=O)N1Cc2cc([101O:1][101CH2:1]CCOc3ccc([100N:0](C)[100C:0](=O)N4CCCC(n5nc(-c6ccc(Oc7ccc(F)cc7F)cc6)c(C(N)=O)c5N)C4)cc3F)ccc2CC1C(=O)NC1CCCc2ccccc21)C(C)(C)C

> <Shape>
0.259

> <Color>
0.073

> <Negative vol penalty>
0.000

$$$$

  -OEChem-04042320463D

 83 91  0     1  0  0  0  0  0999 V2000
  -25.3412  -21.9476   15.2864 C   0  0  0  0  0  0  0  0  0  0  0  0
  -26.2160  -21.1031   15.9622 C   0  0  0  0  0  0  0  0  0  0  0  0
  -22.3659  -28.3473   20.7716 C   0  0  0  0  0  0  0  0  0  0  0  0
  -23.2702  -26.8299   22.4199 C   0  0  0  0  0  0  0  0  0  0  0  0
  -29.7032  -20.4587   21.0661 C   0  0  0  0  0  0  0  0  0  0  0  0
  -29.9029  -19.7538   18.7639 C   0  0  0  0  0  0  0  0  0  0  0  0
  -24.0506  -22.1477   15.7745 C   0  0  0  0  0  0  0  0  0  0  0  0
  -25.8011  -20.4590   17.1273 C   0  0  0  0  0  0  0  0  0  0  0  0
  -27.1311  -15.5736   17.2251 C   0  0  0  0  0  0  0  0  0  0  0  0
  -29.3645  -21.7440   20.6433 C   0  0  0  0  0  0  0  0  0  0  0  0
  -29.5642  -21.0392   18.3410 C   0  0  0  0  0  0  0  0  0  0  0  0
  -21.0869  -28.1505   21.2921 C   0  0  0  0  0  0  0  0  0  0  0  0
  -21.9912  -26.6331   22.9404 C   0  0  0  0  0  0  0  0  0  0  0  0
  -28.4564  -15.2808   17.5439 C   0  0  0  0  0  0  0  0  0  0  0  0
  -17.6342  -28.3266   22.4159 C   0  0  0  0  0  0  0  0  0  0  0  0
  -16.8327  -29.4516   22.6098 C   0  0  0  0  0  0  0  0  0  0  0  0
  -27.7921  -14.7633   19.8044 C   0  0  0  0  0  0  0  0  0  0  0  0
  -18.4762  -30.3606   24.1295 C   0  0  0  0  0  0  0  0  0  0  0  0
  -23.4576  -27.6870   21.3355 C   0  0  0  0  0  0  0  0  0  0  0  0
  -29.9724  -19.4636   20.1264 C   0  0  0  0  0  0  0  0  0  0  0  0
  -25.7139  -28.8678   21.1859 C   0  0  0  0  0  0  0  0  0  0  0  0
  -23.6164  -21.4982   16.9408 C   0  0  0  0  0  0  0  0  0  0  0  0
  -26.1263  -15.4738   18.1982 C   0  0  0  0  0  0  0  0  0  0  0  0
  -24.5039  -20.6516   17.6322 C   0  0  0  0  0  0  0  0  0  0  0  0
  -26.4544  -15.0530   19.4948 C   0  0  0  0  0  0  0  0  0  0  0  0
  -29.2950  -22.0343   19.2807 C   0  0  0  0  0  0  0  0  0  0  0  0
  -20.8995  -27.2935   22.3765 C   0  0  0  0  0  0  0  0  0  0  0  0
  -28.7875  -14.8784   18.8344 C   0  0  0  0  0  0  0  0  0  0  0  0
  -18.8567  -28.2185   23.0789 C   0  0  0  0  0  0  0  0  0  0  0  0
  -17.2537  -30.4686   23.4665 C   0  0  0  0  0  0  0  0  0  0  0  0
  -19.2777  -29.2356   23.9357 C   0  0  0  0  0  0  0  0  0  0  0  0
  -24.7790  -27.8895   20.7979 C   0  0  0  0  0  0  0  0  0  0  0  0
  -26.8030  -28.6406   20.3804 C   0  0  0  0  0  0  0  0  0  0  0  0
  -30.3310  -18.1028   20.5739 C   0  0  0  0  0  0  0  0  0  0  0  0
  -25.6075  -29.8905   22.1851 C   0  0  0  0  0  0  0  0  0  0  0  0
  -24.0972  -17.5165   19.5450 C   0  0  0  0  0  0  0  0  0  0  0  0
  -22.9127  -14.8285   20.9211 C   0  0  0  0  0  0  0  0  0  0  0  0
  -23.4458  -11.6094   21.9213 C   0  0  0  0  0  0  0  0  0  0  0  0
  -28.8377  -23.7946   17.5376 C   0  0  0  0  0  0  0  0  0  0  0  0
  -22.2278  -21.7825   17.4560 C   0  0  0  0  0  0  0  0  0  0  0  0
  -24.6974  -15.7675   17.8314 C   0  0  0  0  0  0  0  0  0  0  0  0
  -25.4099  -14.9104   20.5705 C   0  0  0  0  0  0  0  0  0  0  0  0
  -21.7427  -20.7702   18.4904 C   0  0  0  0  0  0  0  0  0  0  0  0
  -27.9774  -26.9214   16.0678 C   0  0  0  0  0  0  0  0  0  0  0  0
  -22.8262  -20.5109   19.5325 C   0  0  0  0  0  0  0  0  0  0  0  0
  -27.1498  -27.6160   17.1516 C   0  0  0  0  0  0  0  0  0  0  0  0
  -27.7128  -25.4173   16.0288 C   0  0  0  0  0  0  0  0  0  0  0  0
  -27.0406  -25.4207   18.3989 C   0  0  0  0  0  0  0  0  0  0  0  0
  -24.0826  -19.9157   18.8856 C   0  0  1  0  0  0  0  0  0  0  0  0
  -23.8333  -16.1277   19.0359 C   0  0  1  0  0  0  0  0  0  0  0  0
  -27.3215  -26.9274   18.5198 C   0  0  2  0  0  0  0  0  0  0  0  0
  -22.3014   -9.6821   23.0497 C   0  0  0  0  0  0  0  0  0  0  0  0
  -23.2471  -16.2129   23.6195 C   0  0  0  0  0  0  0  0  0  0  0  0
  -23.0093  -13.9759   24.7182 C   0  0  0  0  0  0  0  0  0  0  0  0
  -21.1278  -14.9085   23.3718 C   0  0  0  0  0  0  0  0  0  0  0  0
  -23.7551   -9.8805   19.5392 C   0  0  0  0  0  0  0  0  0  0  0  0
  -32.3050  -15.4721   19.3384 C   0  0  0  0  0  0  0  0  0  0  0  0
  -31.9869  -16.2713   20.5911 C   0  0  0  0  0  0  0  0  0  0  0  0
  -31.0938  -15.2964   18.4313 C   0  0  0  0  0  0  0  0  0  1  0  0
  -23.1972  -14.0630   22.1908 C   0  0  1  0  0  0  0  0  0  0  0  0
  -22.6310  -10.3443   21.7209 C   0  0  2  0  0  0  0  0  0  0  0  0
  -22.6656  -14.7945   23.4555 C   0  0  0  0  0  0  0  0  0  0  0  0
  -25.2342  -27.0996   19.8217 N   0  0  0  0  0  0  0  0  0  0  0  0
  -26.4671  -27.5814   19.5895 N   0  0  0  0  0  0  0  0  0  0  0  0
  -24.0279  -15.2151   20.1643 N   0  0  0  0  0  0  0  0  0  0  0  0
  -27.8987  -24.8325   17.3586 N   0  0  0  0  0  0  0  0  0  0  0  0
  -28.0055  -29.2455   20.2786 N   0  0  0  0  0  0  0  0  0  0  0  0
  -29.4508  -17.4343   21.3191 N   0  0  0  0  0  0  0  0  0  0  0  0
  -24.4188  -29.9836   22.9219 N   0  0  0  0  0  0  0  0  0  0  0  0
  -28.9510  -23.3399   18.8510 N   0  0  0  0  0  0  0  0  0  0  0  0
  -23.8891  -18.5089   18.6062 N   0  0  0  0  0  0  0  0  0  0  0  0
  -22.6427  -12.7278   21.9954 N   0  0  0  0  0  0  0  0  0  0  0  0
  -31.5215  -17.6059   20.2133 N   0  3  0  0  0  0  0  0  0  0  0  0
  -23.3858   -9.3691   20.8842 N   0  3  0  0  0  0  0  0  0  0  0  0
  -26.5326  -30.7082   22.4065 O   0  0  0  0  0  0  0  0  0  0  0  0
  -24.4612  -17.6761   20.7042 O   0  0  0  0  0  0  0  0  0  0  0  0
  -21.7438  -15.0681   20.6085 O   0  0  0  0  0  0  0  0  0  0  0  0
  -24.6718  -11.6054   22.0074 O   0  0  0  0  0  0  0  0  0  0  0  0
  -29.5125  -23.3611   16.6002 O   0  0  0  0  0  0  0  0  0  0  0  0
  -19.6516  -27.1014   22.8849 O   0  0  0  0  0  0  0  0  0  0  0  0
  -30.0805  -14.5926   19.1484 O   0  0  0  0  0  0  0  0  0  1  0  0
  -16.4847  -31.5497   23.6513 F   0  0  0  0  0  0  0  0  0  0  0  0
  -20.4517  -29.1379   24.5745 F   0  0  0  0  0  0  0  0  0  0  0  0
  1  2  1  0  0  0  0
  1  7  2  0  0  0  0
  2  8  2  0  0  0  0
  3 12  2  0  0  0  0
  3 19  1  0  0  0  0
  4 13  1  0  0  0  0
  4 19  2  0  0  0  0
  5 10  2  0  0  0  0
  5 20  1  0  0  0  0
  6 11  1  0  0  0  0
  6 20  2  0  0  0  0
  7 22  1  0  0  0  0
  8 24  1  0  0  0  0
  9 14  2  0  0  0  0
  9 23  1  0  0  0  0
 10 26  1  0  0  0  0
 11 26  2  0  0  0  0
 12 27  1  0  0  0  0
 13 27  2  0  0  0  0
 14 28  1  0  0  0  0
 15 16  2  0  0  0  0
 15 29  1  0  0  0  0
 16 30  1  0  0  0  0
 17 25  1  0  0  0  0
 17 28  2  0  0  0  0
 18 30  2  0  0  0  0
 18 31  1  0  0  0  0
 19 32  1  0  0  0  0
 20 34  1  0  0  0  0
 21 32  1  0  0  0  0
 21 33  2  0  0  0  0
 21 35  1  0  0  0  0
 22 24  2  0  0  0  0
 22 40  1  0  0  0  0
 23 25  2  0  0  0  0
 23 41  1  0  0  0  0
 24 49  1  0  0  0  0
 25 42  1  0  0  0  0
 26 70  1  0  0  0  0
 27 80  1  0  0  0  0
 28 81  1  0  0  0  0
 29 31  2  0  0  0  0
 29 80  1  0  0  0  0
 30 82  1  0  0  0  0
 31 83  1  0  0  0  0
 32 63  2  0  0  0  0
 33 64  1  0  0  0  0
 33 67  1  0  0  0  0
 34 68  1  0  0  0  0
 34 73  2  0  0  0  0
 35 69  1  0  0  0  0
 35 75  2  0  0  0  0
 36 50  1  0  0  0  0
 36 71  1  0  0  0  0
 36 76  2  0  0  0  0
 37 60  1  0  0  0  0
 37 65  1  0  0  0  0
 37 77  2  0  0  0  0
 38 61  1  0  0  0  0
 38 72  1  0  0  0  0
 38 78  2  0  0  0  0
 39 66  1  0  0  0  0
 39 70  1  0  0  0  0
 39 79  2  0  0  0  0
 40 43  1  0  0  0  0
 41 50  1  0  0  0  0
 42 65  1  0  0  0  0
 43 45  1  0  0  0  0
 44 46  1  0  0  0  0
 44 47  1  0  0  0  0
 45 49  1  0  0  0  0
 46 51  1  0  0  0  0
 47 66  1  0  0  0  0
 48 51  1  0  0  0  0
 48 66  1  0  0  0  0
 49 71  1  0  0  0  0
 50 65  1  0  0  0  0
 51 64  1  0  0  0  0
 52 61  1  0  0  0  0
 53 62  1  0  0  0  0
 54 62  1  0  0  0  0
 55 62  1  0  0  0  0
 56 74  1  0  0  0  0
 57 58  1  0  0  0  0
 57 59  1  0  0  0  0
 58 73  1  0  0  0  0
 59 81  1  0  0  0  0
 60 62  1  0  0  0  0
 60 72  1  0  0  0  0
 61 74  1  0  0  0  0
 63 64  1  0  0  0  0
M  CHG  2  73   1  74   1
M  ISO  4  39 100  59 101  70 100  81 101
M  END
> <Batch ID>
0012

> <Smiles>
CNC(C)C(=O)NC(C(=O)N1Cc2cc([101O:1][101CH2:1]CCNC(=N)c3ccc([100NH:0][100C:0](=O)N4CCCC(n5nc(-c6ccc(Oc7ccc(F)cc7F)cc6)c(C(N)=O)c5N)C4)cc3)ccc2CC1C(=O)NC1CCCc2ccccc21)C(C)(C)C

> <Shape>
0.247

> <Color>
0.057

> <Negative vol penalty>
0.000

$$$$

  -OEChem-04042320463D

 84 92  0     1  0  0  0  0  0999 V2000
  -23.2660  -36.4651   22.2912 C   0  0  0  0  0  0  0  0  0  0  0  0
  -24.2480  -35.5572   21.9078 C   0  0  0  0  0  0  0  0  0  0  0  0
  -24.9122  -13.7322   21.2275 C   0  0  0  0  0  0  0  0  0  0  0  0
  -25.6708  -13.6945   18.9339 C   0  0  0  0  0  0  0  0  0  0  0  0
  -22.2261  -36.0549   23.1244 C   0  0  0  0  0  0  0  0  0  0  0  0
  -24.1911  -34.2388   22.3583 C   0  0  0  0  0  0  0  0  0  0  0  0
  -25.9128  -29.2238   19.2939 C   0  0  0  0  0  0  0  0  0  0  0  0
  -24.1211  -12.6095   20.9843 C   0  0  0  0  0  0  0  0  0  0  0  0
  -24.8797  -12.5717   18.6908 C   0  0  0  0  0  0  0  0  0  0  0  0
  -27.0775  -28.4581   19.3267 C   0  0  0  0  0  0  0  0  0  0  0  0
  -24.5563   -9.2675   20.7112 C   0  0  0  0  0  0  0  0  0  0  0  0
  -24.5811   -8.2404   21.6547 C   0  0  0  0  0  0  0  0  0  0  0  0
  -26.0239  -26.9323   20.8697 C   0  0  0  0  0  0  0  0  0  0  0  0
  -28.9354  -22.1416   18.8241 C   0  0  0  0  0  0  0  0  0  0  0  0
  -29.7597  -21.8593   16.5707 C   0  0  0  0  0  0  0  0  0  0  0  0
  -30.9081  -23.3345   18.1011 C   0  0  0  0  0  0  0  0  0  0  0  0
  -22.2059   -8.5071   22.0073 C   0  0  0  0  0  0  0  0  0  0  0  0
  -25.6870  -14.2748   20.2023 C   0  0  0  0  0  0  0  0  0  0  0  0
  -27.8406  -15.4543   20.8942 C   0  0  0  0  0  0  0  0  0  0  0  0
  -22.1512  -34.7284   23.5776 C   0  0  0  0  0  0  0  0  0  0  0  0
  -24.7967  -28.8548   20.0585 C   0  0  0  0  0  0  0  0  0  0  0  0
  -23.1499  -33.8108   23.1995 C   0  0  0  0  0  0  0  0  0  0  0  0
  -24.8454  -27.6936   20.8429 C   0  0  0  0  0  0  0  0  0  0  0  0
  -28.8274  -21.5558   17.5628 C   0  0  0  0  0  0  0  0  0  0  0  0
  -24.1049  -12.0292   19.7160 C   0  0  0  0  0  0  0  0  0  0  0  0
  -27.1342  -27.3138   20.1169 C   0  0  0  0  0  0  0  0  0  0  0  0
  -23.3563   -9.9144   20.4159 C   0  0  0  0  0  0  0  0  0  0  0  0
  -29.9758  -23.0310   19.0932 C   0  0  0  0  0  0  0  0  0  0  0  0
  -23.4059   -7.8602   22.3027 C   0  0  0  0  0  0  0  0  0  0  0  0
  -30.8001  -22.7487   16.8398 C   0  0  0  0  0  0  0  0  0  0  0  0
  -22.1811   -9.5342   21.0639 C   0  0  0  0  0  0  0  0  0  0  0  0
  -26.5040  -15.4350   20.4527 C   0  0  0  0  0  0  0  0  0  0  0  0
  -28.1560  -16.7886   20.9757 C   0  0  0  0  0  0  0  0  0  0  0  0
  -28.7185  -14.3636   21.2030 C   0  0  0  0  0  0  0  0  0  0  0  0
  -23.1585  -30.1971   22.4288 C   0  0  0  0  0  0  0  0  0  0  0  0
  -21.1995  -27.6479   21.9978 C   0  0  0  0  0  0  0  0  0  0  0  0
  -20.8150  -24.4451   20.8837 C   0  0  0  0  0  0  0  0  0  0  0  0
  -25.5047  -21.5098   18.1088 C   0  0  0  0  0  0  0  0  0  0  0  0
  -21.0342  -34.3435   24.5150 C   0  0  0  0  0  0  0  0  0  0  0  0
  -23.5387  -29.6766   19.9915 C   0  0  0  0  0  0  0  0  0  0  0  0
  -23.6676  -27.2431   21.6666 C   0  0  0  0  0  0  0  0  0  0  0  0
  -20.8407  -32.8349   24.6451 C   0  0  0  0  0  0  0  0  0  0  0  0
  -26.1826  -21.0762   21.7219 C   0  0  0  0  0  0  0  0  0  0  0  0
  -22.1833  -32.1401   24.8487 C   0  0  0  0  0  0  0  0  0  0  0  0
  -26.3835  -19.5667   21.8443 C   0  0  0  0  0  0  0  0  0  0  0  0
  -25.2564  -21.4330   20.5632 C   0  0  0  0  0  0  0  0  0  0  0  0
  -25.8828  -19.3556   19.3775 C   0  0  0  0  0  0  0  0  0  0  0  0
  -23.1092  -32.3659   23.6473 C   0  0  1  0  0  0  0  0  0  0  0  0
  -22.6382  -29.4910   21.2088 C   0  0  1  0  0  0  0  0  0  0  0  0
  -26.8481  -18.9648   20.5067 C   0  0  2  0  0  0  0  0  0  0  0  0
  -19.1082  -22.6147   20.7004 C   0  0  0  0  0  0  0  0  0  0  0  0
  -21.5051  -27.0678   24.9777 C   0  0  0  0  0  0  0  0  0  0  0  0
  -20.6006  -24.7722   24.5526 C   0  0  0  0  0  0  0  0  0  0  0  0
  -19.1855  -26.7739   24.0902 C   0  0  0  0  0  0  0  0  0  0  0  0
  -26.2868  -21.9936   15.8211 C   0  0  0  0  0  0  0  0  0  0  0  0
  -21.0061  -24.4041   17.9306 C   0  0  0  0  0  0  0  0  0  0  0  0
  -27.7156  -20.6045   17.2752 C   0  0  0  0  0  0  0  0  0  0  0  0
  -30.0489  -25.6955   21.5300 C   0  0  0  0  0  0  0  0  0  0  0  0
  -28.5467  -25.8598   21.3605 C   0  0  0  0  0  0  0  0  0  1  0  0
  -30.6665  -24.9010   20.3900 C   0  0  0  0  0  0  0  0  0  0  0  0
  -21.1272  -26.2482   22.5587 C   0  0  1  0  0  0  0  0  0  0  0  0
  -19.7544  -23.8040   20.0071 C   0  0  2  0  0  0  0  0  0  0  0  0
  -20.6276  -26.2248   24.0309 C   0  0  0  0  0  0  0  0  0  0  0  0
  -26.0046  -16.6598   20.2668 N   0  0  0  0  0  0  0  0  0  0  0  0
  -27.0329  -17.4612   20.5933 N   0  0  0  0  0  0  0  0  0  0  0  0
  -22.4625  -28.0835   21.5725 N   0  0  0  0  0  0  0  0  0  0  0  0
  -25.6968  -20.8129   19.3131 N   0  0  0  0  0  0  0  0  0  0  0  0
  -29.2818  -17.4403   21.3366 N   0  0  0  0  0  0  0  0  0  0  0  0
  -28.2336  -13.0559   21.0649 N   0  0  0  0  0  0  0  0  0  0  0  0
  -22.7292  -31.5052   22.5476 N   0  0  0  0  0  0  0  0  0  0  0  0
  -20.2997  -25.4803   21.6346 N   0  0  0  0  0  0  0  0  0  0  0  0
  -26.4369  -21.2855   17.0844 N   0  0  0  0  0  0  0  0  0  0  0  0
  -20.3555  -23.3324   18.7276 N   0  3  0  0  0  0  0  0  0  0  0  0
  -29.8928  -14.5436   21.6056 O   0  0  0  0  0  0  0  0  0  0  0  0
  -23.8937  -29.5990   23.2055 O   0  0  0  0  0  0  0  0  0  0  0  0
  -20.1718  -28.3270   21.9325 O   0  0  0  0  0  0  0  0  0  0  0  0
  -21.9831  -24.0631   20.9033 O   0  0  0  0  0  0  0  0  0  0  0  0
  -24.5597  -22.2953   17.9613 O   0  0  0  0  0  0  0  0  0  0  0  0
  -23.3333  -10.9334   19.4784 O   0  0  0  0  0  0  0  0  0  0  0  0
  -28.2700  -26.5651   20.1512 O   0  0  0  0  0  0  0  0  0  1  0  0
  -30.0828  -23.6065   20.3325 O   0  0  0  0  0  0  0  0  0  0  0  0
  -23.4295   -6.8728   23.2075 F   0  0  0  0  0  0  0  0  0  0  0  0
  -31.6955  -23.0403   15.8872 F   0  0  0  0  0  0  0  0  0  0  0  0
  -21.0251  -10.1513   20.7835 F   0  0  0  0  0  0  0  0  0  0  0  0
  1  2  1  0  0  0  0
  1  5  2  0  0  0  0
  2  6  2  0  0  0  0
  3  8  2  0  0  0  0
  3 18  1  0  0  0  0
  4  9  1  0  0  0  0
  4 18  2  0  0  0  0
  5 20  1  0  0  0  0
  6 22  1  0  0  0  0
  7 10  2  0  0  0  0
  7 21  1  0  0  0  0
  8 25  1  0  0  0  0
  9 25  2  0  0  0  0
 10 26  1  0  0  0  0
 11 12  2  0  0  0  0
 11 27  1  0  0  0  0
 12 29  1  0  0  0  0
 13 23  1  0  0  0  0
 13 26  2  0  0  0  0
 14 24  1  0  0  0  0
 14 28  2  0  0  0  0
 15 24  2  0  0  0  0
 15 30  1  0  0  0  0
 16 28  1  0  0  0  0
 16 30  2  0  0  0  0
 17 29  2  0  0  0  0
 17 31  1  0  0  0  0
 18 32  1  0  0  0  0
 19 32  1  0  0  0  0
 19 33  2  0  0  0  0
 19 34  1  0  0  0  0
 20 22  2  0  0  0  0
 20 39  1  0  0  0  0
 21 23  2  0  0  0  0
 21 40  1  0  0  0  0
 22 48  1  0  0  0  0
 23 41  1  0  0  0  0
 24 57  1  0  0  0  0
 25 79  1  0  0  0  0
 26 80  1  0  0  0  0
 27 31  2  0  0  0  0
 27 79  1  0  0  0  0
 28 81  1  0  0  0  0
 29 82  1  0  0  0  0
 30 83  1  0  0  0  0
 31 84  1  0  0  0  0
 32 64  2  0  0  0  0
 33 65  1  0  0  0  0
 33 68  1  0  0  0  0
 34 69  1  0  0  0  0
 34 74  2  0  0  0  0
 35 49  1  0  0  0  0
 35 70  1  0  0  0  0
 35 75  2  0  0  0  0
 36 61  1  0  0  0  0
 36 66  1  0  0  0  0
 36 76  2  0  0  0  0
 37 62  1  0  0  0  0
 37 71  1  0  0  0  0
 37 77  2  0  0  0  0
 38 67  1  0  0  0  0
 38 72  1  0  0  0  0
 38 78  2  0  0  0  0
 39 42  1  0  0  0  0
 40 49  1  0  0  0  0
 41 66  1  0  0  0  0
 42 44  1  0  0  0  0
 43 45  1  0  0  0  0
 43 46  1  0  0  0  0
 44 48  1  0  0  0  0
 45 50  1  0  0  0  0
 46 67  1  0  0  0  0
 47 50  1  0  0  0  0
 47 67  1  0  0  0  0
 48 70  1  0  0  0  0
 49 66  1  0  0  0  0
 50 65  1  0  0  0  0
 51 62  1  0  0  0  0
 52 63  1  0  0  0  0
 53 63  1  0  0  0  0
 54 63  1  0  0  0  0
 55 72  1  0  0  0  0
 56 73  1  0  0  0  0
 57 72  1  0  0  0  0
 58 59  1  0  0  0  0
 58 60  1  0  0  0  0
 59 80  1  0  0  0  0
 60 81  1  0  0  0  0
 61 63  1  0  0  0  0
 61 71  1  0  0  0  0
 62 73  1  0  0  0  0
 64 65  1  0  0  0  0
M  CHG  1  73   1
M  ISO  4  38 100  59 101  72 100  80 101
M  END
> <Batch ID>
0012

> <Smiles>
CNC(C)C(=O)NC(C(=O)N1Cc2cc([101O:1][101CH2:1]CCOc3cc(F)cc(C[100N:0](C)[100C:0](=O)N4CCCC(n5nc(-c6ccc(Oc7ccc(F)cc7F)cc6)c(C(N)=O)c5N)C4)c3)ccc2CC1C(=O)NC1CCCc2ccccc21)C(C)(C)C

> <Shape>
0.253

> <Color>
0.075

> <Negative vol penalty>
0.000

$$$$

  -OEChem-04042320463D

 86 94  0     1  0  0  0  0  0999 V2000
  -30.2842  -12.3324   18.5145 C   0  0  0  0  0  0  0  0  0  0  0  0
  -29.1250  -12.8133   17.9142 C   0  0  0  0  0  0  0  0  0  0  0  0
  -25.6939  -28.6664   21.2331 C   0  0  0  0  0  0  0  0  0  0  0  0
  -25.0073  -27.4234   19.2786 C   0  0  0  0  0  0  0  0  0  0  0  0
  -30.4089  -12.3531   19.9030 C   0  0  0  0  0  0  0  0  0  0  0  0
  -28.0894  -13.3143   18.7022 C   0  0  0  0  0  0  0  0  0  0  0  0
  -25.7516  -20.0795   17.8907 C   0  0  0  0  0  0  0  0  0  0  0  0
  -18.5208  -26.0127   17.4897 C   0  0  0  0  0  0  0  0  0  0  0  0
  -26.9722  -28.1173   21.1333 C   0  0  0  0  0  0  0  0  0  0  0  0
  -26.2856  -26.8743   19.1787 C   0  0  0  0  0  0  0  0  0  0  0  0
  -25.1071  -21.2936   17.6524 C   0  0  0  0  0  0  0  0  0  0  0  0
  -19.6524  -25.3484   17.0167 C   0  0  0  0  0  0  0  0  0  0  0  0
  -28.0646  -24.4161   20.6697 C   0  0  0  0  0  0  0  0  0  0  0  0
  -28.1644  -23.0460   20.4280 C   0  0  0  0  0  0  0  0  0  0  0  0
  -23.6112  -20.8756   19.5059 C   0  0  0  0  0  0  0  0  0  0  0  0
  -17.8727  -24.0349   18.7166 C   0  0  0  0  0  0  0  0  0  0  0  0
  -29.3643  -23.4948   18.3796 C   0  0  0  0  0  0  0  0  0  0  0  0
  -24.7114  -28.3194   20.3058 C   0  0  0  0  0  0  0  0  0  0  0  0
  -22.9269  -30.0751   19.8150 C   0  0  0  0  0  0  0  0  0  0  0  0
  -29.3783  -12.8635   20.7079 C   0  0  0  0  0  0  0  0  0  0  0  0
  -25.3378  -19.2651   18.9485 C   0  0  0  0  0  0  0  0  0  0  0  0
  -28.1999  -13.3407   20.1028 C   0  0  0  0  0  0  0  0  0  0  0  0
  -24.2610  -19.6642   19.7572 C   0  0  0  0  0  0  0  0  0  0  0  0
  -17.6310  -25.3559   18.3398 C   0  0  0  0  0  0  0  0  0  0  0  0
  -27.2681  -27.2213   20.1061 C   0  0  0  0  0  0  0  0  0  0  0  0
  -24.0394  -21.6904   18.4578 C   0  0  0  0  0  0  0  0  0  0  0  0
  -28.6147  -25.3256   19.7664 C   0  0  0  0  0  0  0  0  0  0  0  0
  -19.8941  -24.0273   17.3935 C   0  0  0  0  0  0  0  0  0  0  0  0
  -28.8142  -22.5853   19.2830 C   0  0  0  0  0  0  0  0  0  0  0  0
  -19.0043  -23.3705   18.2435 C   0  0  0  0  0  0  0  0  0  0  0  0
  -29.2645  -24.8649   18.6213 C   0  0  0  0  0  0  0  0  0  0  0  0
  -23.3905  -28.8858   20.4088 C   0  0  0  0  0  0  0  0  0  0  0  0
  -21.6161  -30.1698   20.2142 C   0  0  0  0  0  0  0  0  0  0  0  0
  -23.6192  -31.0105   18.9775 C   0  0  0  0  0  0  0  0  0  0  0  0
  -25.8476  -16.0844   20.8719 C   0  0  0  0  0  0  0  0  0  0  0  0
  -25.2384  -18.2799   22.9259 C   0  0  0  0  0  0  0  0  0  0  0  0
  -24.9510  -21.0577   24.8851 C   0  0  0  0  0  0  0  0  0  0  0  0
  -17.2260  -26.3250   21.2280 C   0  0  0  0  0  0  0  0  0  0  0  0
  -29.5394  -12.8216   22.2069 C   0  0  0  0  0  0  0  0  0  0  0  0
  -25.9630  -17.9206   19.2040 C   0  0  0  0  0  0  0  0  0  0  0  0
  -23.8279  -18.7398   20.8621 C   0  0  0  0  0  0  0  0  0  0  0  0
  -28.5498  -13.7144   22.9511 C   0  0  0  0  0  0  0  0  0  0  0  0
  -18.9284  -28.2584   23.8862 C   0  0  0  0  0  0  0  0  0  0  0  0
  -27.1396  -13.5212   22.4026 C   0  0  0  0  0  0  0  0  0  0  0  0
  -20.2409  -28.6614   23.2162 C   0  0  0  0  0  0  0  0  0  0  0  0
  -18.3789  -26.9535   23.3179 C   0  0  0  0  0  0  0  0  0  0  0  0
  -19.5301  -27.3644   21.1685 C   0  0  0  0  0  0  0  0  0  0  0  0
  -27.0647  -13.9148   20.9224 C   0  0  1  0  0  0  0  0  0  0  0  0
  -26.0354  -17.5631   20.6994 C   0  0  1  0  0  0  0  0  0  0  0  0
  -20.0867  -28.6994   21.6858 C   0  0  2  0  0  0  0  0  0  0  0  0
  -24.8557  -21.7713   27.2891 C   0  0  0  0  0  0  0  0  0  0  0  0
  -13.9916  -25.9258   19.6822 C   0  0  0  0  0  0  0  0  0  0  0  0
  -14.7561  -24.3771   17.8832 C   0  0  0  0  0  0  0  0  0  0  0  0
  -22.3603  -17.2856   23.1032 C   0  0  0  0  0  0  0  0  0  0  0  0
  -22.0281  -18.8127   25.0592 C   0  0  0  0  0  0  0  0  0  0  0  0
  -23.7039  -16.9695   25.1887 C   0  0  0  0  0  0  0  0  0  0  0  0
  -16.8423  -28.2997   19.8022 C   0  0  0  0  0  0  0  0  0  0  0  0
  -27.3921  -22.7085   24.6125 C   0  0  0  0  0  0  0  0  0  0  0  0
  -23.3991  -23.3453   16.8738 C   0  0  0  0  0  0  0  0  0  1  0  0
  -22.1496  -24.1760   16.6541 C   0  0  0  0  0  0  0  0  0  0  0  0
  -16.4205  -26.0663   18.8433 C   0  0  1  0  0  0  0  0  0  0  0  0
  -24.1910  -18.9885   23.7470 C   0  0  1  0  0  0  0  0  0  0  0  0
  -25.7521  -21.5323   26.0840 C   0  0  2  0  0  0  0  0  0  0  0  0
  -15.1946  -25.1410   19.1396 C   0  0  0  0  0  0  0  0  0  0  0  0
  -23.0795  -18.0244   24.2495 C   0  0  0  0  0  0  0  0  0  0  0  0
  -22.4507  -28.2693   21.1304 N   0  0  0  0  0  0  0  0  0  0  0  0
  -21.3835  -29.0744   20.9927 N   0  0  0  0  0  0  0  0  0  0  0  0
  -25.0074  -18.1893   21.5479 N   0  0  0  0  0  0  0  0  0  0  0  0
  -18.2832  -27.0014   21.8585 N   0  0  0  0  0  0  0  0  0  0  0  0
  -20.6514  -31.0825   19.9718 N   0  0  0  0  0  0  0  0  0  0  0  0
  -24.9625  -30.7609   18.6653 N   0  0  0  0  0  0  0  0  0  0  0  0
  -27.0177  -15.3547   20.7840 N   0  0  0  0  0  0  0  0  0  0  0  0
  -24.9074  -19.6815   24.8124 N   0  0  0  0  0  0  0  0  0  0  0  0
  -16.7506  -26.8634   20.0227 N   0  0  0  0  0  0  0  0  0  0  0  0
  -26.4586  -22.8049   25.7640 N   0  3  0  0  0  0  0  0  0  0  0  0
  -23.0677  -32.0458   18.5330 O   0  0  0  0  0  0  0  0  0  0  0  0
  -24.7243  -15.6373   21.0717 O   0  0  0  0  0  0  0  0  0  0  0  0
  -26.2327  -17.8135   23.4891 O   0  0  0  0  0  0  0  0  0  0  0  0
  -24.4142  -21.8305   24.0945 O   0  0  0  0  0  0  0  0  0  0  0  0
  -16.7287  -25.3037   21.7196 O   0  0  0  0  0  0  0  0  0  0  0  0
  -28.5155  -26.6855   20.0082 O   0  0  0  0  0  0  0  0  0  0  0  0
  -23.4176  -22.8790   18.2223 O   0  0  0  0  0  0  0  0  0  1  0  0
  -21.0057  -23.3759   16.9276 O   0  0  0  0  0  0  0  0  0  0  0  0
  -28.9113  -21.2696   19.0517 F   0  0  0  0  0  0  0  0  0  0  0  0
  -19.2309  -22.1013   18.6088 F   0  0  0  0  0  0  0  0  0  0  0  0
  -29.7959  -25.7338   17.7504 F   0  0  0  0  0  0  0  0  0  0  0  0
  1  2  1  0  0  0  0
  1  5  2  0  0  0  0
  2  6  2  0  0  0  0
  3  9  2  0  0  0  0
  3 18  1  0  0  0  0
  4 10  1  0  0  0  0
  4 18  2  0  0  0  0
  5 20  1  0  0  0  0
  6 22  1  0  0  0  0
  7 11  2  0  0  0  0
  7 21  1  0  0  0  0
  8 12  2  0  0  0  0
  8 24  1  0  0  0  0
  9 25  1  0  0  0  0
 10 25  2  0  0  0  0
 11 26  1  0  0  0  0
 12 28  1  0  0  0  0
 13 14  2  0  0  0  0
 13 27  1  0  0  0  0
 14 29  1  0  0  0  0
 15 23  1  0  0  0  0
 15 26  2  0  0  0  0
 16 24  2  0  0  0  0
 16 30  1  0  0  0  0
 17 29  2  0  0  0  0
 17 31  1  0  0  0  0
 18 32  1  0  0  0  0
 19 32  1  0  0  0  0
 19 33  2  0  0  0  0
 19 34  1  0  0  0  0
 20 22  2  0  0  0  0
 20 39  1  0  0  0  0
 21 23  2  0  0  0  0
 21 40  1  0  0  0  0
 22 48  1  0  0  0  0
 23 41  1  0  0  0  0
 24 61  1  0  0  0  0
 25 81  1  0  0  0  0
 26 82  1  0  0  0  0
 27 31  2  0  0  0  0
 27 81  1  0  0  0  0
 28 30  2  0  0  0  0
 28 83  1  0  0  0  0
 29 84  1  0  0  0  0
 30 85  1  0  0  0  0
 31 86  1  0  0  0  0
 32 66  2  0  0  0  0
 33 67  1  0  0  0  0
 33 70  1  0  0  0  0
 34 71  1  0  0  0  0
 34 76  2  0  0  0  0
 35 49  1  0  0  0  0
 35 72  1  0  0  0  0
 35 77  2  0  0  0  0
 36 62  1  0  0  0  0
 36 68  1  0  0  0  0
 36 78  2  0  0  0  0
 37 63  1  0  0  0  0
 37 73  1  0  0  0  0
 37 79  2  0  0  0  0
 38 69  1  0  0  0  0
 38 74  1  0  0  0  0
 38 80  2  0  0  0  0
 39 42  1  0  0  0  0
 40 49  1  0  0  0  0
 41 68  1  0  0  0  0
 42 44  1  0  0  0  0
 43 45  1  0  0  0  0
 43 46  1  0  0  0  0
 44 48  1  0  0  0  0
 45 50  1  0  0  0  0
 46 69  1  0  0  0  0
 47 50  1  0  0  0  0
 47 69  1  0  0  0  0
 48 72  1  0  0  0  0
 49 68  1  0  0  0  0
 50 67  1  0  0  0  0
 51 63  1  0  0  0  0
 52 64  1  0  0  0  0
 53 64  1  0  0  0  0
 54 65  1  0  0  0  0
 55 65  1  0  0  0  0
 56 65  1  0  0  0  0
 57 74  1  0  0  0  0
 58 75  1  0  0  0  0
 59 60  1  0  0  0  0
 59 82  1  0  0  0  0
 60 83  1  0  0  0  0
 61 64  1  0  0  0  0
 61 74  1  0  0  0  0
 62 65  1  0  0  0  0
 62 73  1  0  0  0  0
 63 75  1  0  0  0  0
 66 67  1  0  0  0  0
M  CHG  1  75   1
M  ISO  4  38 100  59 101  74 100  82 101
M  END
> <Batch ID>
0012

> <Smiles>
CNC(C)C(=O)NC(C(=O)N1Cc2cc([101O:1][101CH2:1]COc3ccc(C(C(C)C)[100N:0](C)[100C:0](=O)N4CCCC(n5nc(-c6ccc(Oc7ccc(F)cc7F)cc6)c(C(N)=O)c5N)C4)cc3F)ccc2CC1C(=O)NC1CCCc2ccccc21)C(C)(C)C

> <Shape>
0.199

> <Color>
0.079

> <Negative vol penalty>
0.000

$$$$

  -OEChem-04042320463D

 85 93  0     1  0  0  0  0  0999 V2000
  -24.9670  -19.6639   21.7762 C   0  0  0  0  0  0  0  0  0  0  0  0
  -24.9829  -20.4750   20.8910 C   0  0  0  0  0  0  0  0  0  0  0  0
  -28.0586  -24.0748   17.9114 C   0  0  0  0  0  0  0  0  0  0  0  0
  -26.8723  -24.3687   18.5761 C   0  0  0  0  0  0  0  0  0  0  0  0
  -26.1008  -14.3209   20.3871 C   0  0  0  0  0  0  0  0  0  0  0  0
  -27.0310  -13.6139   18.2725 C   0  0  0  0  0  0  0  0  0  0  0  0
  -29.2567  -24.6437   18.3414 C   0  0  0  0  0  0  0  0  0  0  0  0
  -26.8836  -25.2309   19.6720 C   0  0  0  0  0  0  0  0  0  0  0  0
  -23.1218  -28.6175   19.5181 C   0  0  0  0  0  0  0  0  0  0  0  0
  -21.4392  -22.6069   20.1172 C   0  0  0  0  0  0  0  0  0  0  0  0
  -25.8327  -12.9916   20.7137 C   0  0  0  0  0  0  0  0  0  0  0  0
  -26.7630  -12.2846   18.5990 C   0  0  0  0  0  0  0  0  0  0  0  0
  -21.8520  -28.1760   19.8877 C   0  0  0  0  0  0  0  0  0  0  0  0
  -20.6443  -23.3619   20.9797 C   0  0  0  0  0  0  0  0  0  0  0  0
  -23.5030  -10.6625   19.9573 C   0  0  0  0  0  0  0  0  0  0  0  0
  -22.2532  -10.3693   20.5028 C   0  0  0  0  0  0  0  0  0  0  0  0
  -22.1520  -29.1593   22.0700 C   0  0  0  0  0  0  0  0  0  0  0  0
  -23.4145  -23.3268   21.3076 C   0  0  0  0  0  0  0  0  0  0  0  0
  -23.3225   -9.5187   22.4954 C   0  0  0  0  0  0  0  0  0  0  0  0
  -26.6999  -14.6321   19.1665 C   0  0  0  0  0  0  0  0  0  0  0  0
  -28.1527  -16.7281   19.1038 C   0  0  0  0  0  0  0  0  0  0  0  0
  -29.2812  -25.5209   19.4371 C   0  0  0  0  0  0  0  0  0  0  0  0
  -23.9218  -29.3250   20.4268 C   0  0  0  0  0  0  0  0  0  0  0  0
  -28.0833  -25.8110   20.1179 C   0  0  0  0  0  0  0  0  0  0  0  0
  -23.4305  -29.6109   21.7086 C   0  0  0  0  0  0  0  0  0  0  0  0
  -22.8243  -22.5893   20.2812 C   0  0  0  0  0  0  0  0  0  0  0  0
  -26.1638  -11.9734   19.8196 C   0  0  0  0  0  0  0  0  0  0  0  0
  -21.3681  -28.4444   21.1647 C   0  0  0  0  0  0  0  0  0  0  0  0
  -24.6626  -10.3838   20.6807 C   0  0  0  0  0  0  0  0  0  0  0  0
  -21.2345  -24.0993   22.0061 C   0  0  0  0  0  0  0  0  0  0  0  0
  -22.1630   -9.7975   21.7719 C   0  0  0  0  0  0  0  0  0  0  0  0
  -22.6196  -24.0818   22.1700 C   0  0  0  0  0  0  0  0  0  0  0  0
  -24.5724   -9.8119   21.9498 C   0  0  0  0  0  0  0  0  0  0  0  0
  -26.9766  -16.0051   18.8284 C   0  0  0  0  0  0  0  0  0  0  0  0
  -27.9182  -17.9769   18.5822 C   0  0  0  0  0  0  0  0  0  0  0  0
  -29.3501  -16.3083   19.7714 C   0  0  0  0  0  0  0  0  0  0  0  0
  -26.7464  -28.8201   21.7945 C   0  0  0  0  0  0  0  0  0  0  0  0
  -26.3003  -31.8280   22.9240 C   0  0  0  0  0  0  0  0  0  0  0  0
  -24.1191  -34.3238   23.7364 C   0  0  0  0  0  0  0  0  0  0  0  0
  -23.2607  -21.5740   18.0510 C   0  0  0  0  0  0  0  0  0  0  0  0
  -30.6075  -26.0744   19.8944 C   0  0  0  0  0  0  0  0  0  0  0  0
  -25.2786  -29.8176   20.0038 C   0  0  0  0  0  0  0  0  0  0  0  0
  -24.2418  -30.3843   22.7146 C   0  0  0  0  0  0  0  0  0  0  0  0
  -30.4772  -27.2719   20.8321 C   0  0  0  0  0  0  0  0  0  0  0  0
  -24.8382  -19.8371   15.2041 C   0  0  0  0  0  0  0  0  0  0  0  0
  -29.4359  -26.9939   21.9115 C   0  0  0  0  0  0  0  0  0  0  0  0
  -25.6041  -18.7012   15.8803 C   0  0  0  0  0  0  0  0  0  0  0  0
  -23.5950  -20.2324   15.9955 C   0  0  0  0  0  0  0  0  0  0  0  0
  -24.6406  -19.4414   18.0959 C   0  0  0  0  0  0  0  0  0  0  0  0
  -28.0511  -26.7611   21.2953 C   0  0  1  0  0  0  0  0  0  0  0  0
  -26.2116  -30.0832   21.1811 C   0  0  1  0  0  0  0  0  0  0  0  0
  -25.9220  -19.0494   17.3447 C   0  0  1  0  0  0  0  0  0  0  0  0
  -24.0486  -36.6515   24.6715 C   0  0  0  0  0  0  0  0  0  0  0  0
  -26.7943  -30.7161   25.7221 C   0  0  0  0  0  0  0  0  0  0  0  0
  -25.7937  -32.8125   26.6561 C   0  0  0  0  0  0  0  0  0  0  0  0
  -27.8676  -32.9303   25.2749 C   0  0  0  0  0  0  0  0  0  0  0  0
  -22.9004  -35.4044   21.2653 C   0  0  0  0  0  0  0  0  0  0  0  0
  -25.0078  -21.4626   19.8131 C   0  0  0  0  0  0  0  0  0  0  0  0
  -18.8592  -26.6358   23.0479 C   0  0  0  0  0  0  0  0  0  0  0  0
  -19.9263  -27.7101   22.9077 C   0  0  0  0  0  0  0  0  0  1  0  0
  -19.2404  -25.3569   22.3190 C   0  0  0  0  0  0  0  0  0  0  0  0
  -25.6588  -32.4240   24.1537 C   0  0  1  0  0  0  0  0  0  0  0  0
  -24.1174  -35.8062   23.4092 C   0  0  2  0  0  0  0  0  0  0  0  0
  -26.5138  -32.2044   25.4336 C   0  0  0  0  0  0  0  0  0  0  0  0
  -26.0627  -16.7340   18.1821 N   0  0  0  0  0  0  0  0  0  0  0  0
  -26.6646  -17.9280   18.0472 N   0  0  0  0  0  0  0  0  0  0  0  0
  -25.5647  -30.8390   22.2556 N   0  0  0  0  0  0  0  0  0  0  0  0
  -23.9179  -20.5139   17.3949 N   0  0  0  0  0  0  0  0  0  0  0  0
  -28.6641  -19.1010   18.5337 N   0  0  0  0  0  0  0  0  0  0  0  0
  -29.4243  -14.9914   20.2452 N   0  0  0  0  0  0  0  0  0  0  0  0
  -27.4496  -28.0208   20.9135 N   0  0  0  0  0  0  0  0  0  0  0  0
  -25.4004  -33.8253   23.8409 N   0  0  0  0  0  0  0  0  0  0  0  0
  -23.6472  -21.8079   19.3885 N   0  0  0  0  0  0  0  0  0  0  0  0
  -22.9468  -36.1461   22.5517 N   0  3  0  0  0  0  0  0  0  0  0  0
  -30.3190  -17.0831   19.9572 O   0  0  0  0  0  0  0  0  0  0  0  0
  -26.5378  -28.5885   22.9796 O   0  0  0  0  0  0  0  0  0  0  0  0
  -27.4098  -32.2304   22.5653 O   0  0  0  0  0  0  0  0  0  0  0  0
  -23.0870  -33.6740   23.8880 O   0  0  0  0  0  0  0  0  0  0  0  0
  -22.4179  -22.2740   17.4772 O   0  0  0  0  0  0  0  0  0  0  0  0
  -25.9026  -10.6761   20.1380 O   0  0  0  0  0  0  0  0  0  0  0  0
  -20.1294  -28.0140   21.5283 O   0  0  0  0  0  0  0  0  0  1  0  0
  -20.4518  -24.8400   22.8530 O   0  0  0  0  0  0  0  0  0  0  0  0
  -20.9627   -9.5174   22.2963 F   0  0  0  0  0  0  0  0  0  0  0  0
  -23.1923  -24.7872   23.1550 F   0  0  0  0  0  0  0  0  0  0  0  0
  -25.6828   -9.5429   22.6500 F   0  0  0  0  0  0  0  0  0  0  0  0
  1  2  3  0  0  0  0
  2 58  1  0  0  0  0
  3  4  1  0  0  0  0
  3  7  2  0  0  0  0
  4  8  2  0  0  0  0
  5 11  2  0  0  0  0
  5 20  1  0  0  0  0
  6 12  1  0  0  0  0
  6 20  2  0  0  0  0
  7 22  1  0  0  0  0
  8 24  1  0  0  0  0
  9 13  2  0  0  0  0
  9 23  1  0  0  0  0
 10 14  2  0  0  0  0
 10 26  1  0  0  0  0
 11 27  1  0  0  0  0
 12 27  2  0  0  0  0
 13 28  1  0  0  0  0
 14 30  1  0  0  0  0
 15 16  2  0  0  0  0
 15 29  1  0  0  0  0
 16 31  1  0  0  0  0
 17 25  1  0  0  0  0
 17 28  2  0  0  0  0
 18 26  2  0  0  0  0
 18 32  1  0  0  0  0
 19 31  2  0  0  0  0
 19 33  1  0  0  0  0
 20 34  1  0  0  0  0
 21 34  1  0  0  0  0
 21 35  2  0  0  0  0
 21 36  1  0  0  0  0
 22 24  2  0  0  0  0
 22 41  1  0  0  0  0
 23 25  2  0  0  0  0
 23 42  1  0  0  0  0
 24 50  1  0  0  0  0
 25 43  1  0  0  0  0
 26 73  1  0  0  0  0
 27 80  1  0  0  0  0
 28 81  1  0  0  0  0
 29 33  2  0  0  0  0
 29 80  1  0  0  0  0
 30 32  2  0  0  0  0
 30 82  1  0  0  0  0
 31 83  1  0  0  0  0
 32 84  1  0  0  0  0
 33 85  1  0  0  0  0
 34 65  2  0  0  0  0
 35 66  1  0  0  0  0
 35 69  1  0  0  0  0
 36 70  1  0  0  0  0
 36 75  2  0  0  0  0
 37 51  1  0  0  0  0
 37 71  1  0  0  0  0
 37 76  2  0  0  0  0
 38 62  1  0  0  0  0
 38 67  1  0  0  0  0
 38 77  2  0  0  0  0
 39 63  1  0  0  0  0
 39 72  1  0  0  0  0
 39 78  2  0  0  0  0
 40 68  1  0  0  0  0
 40 73  1  0  0  0  0
 40 79  2  0  0  0  0
 41 44  1  0  0  0  0
 42 51  1  0  0  0  0
 43 67  1  0  0  0  0
 44 46  1  0  0  0  0
 45 47  1  0  0  0  0
 45 48  1  0  0  0  0
 46 50  1  0  0  0  0
 47 52  1  0  0  0  0
 48 68  1  0  0  0  0
 49 52  1  0  0  0  0
 49 68  1  0  0  0  0
 50 71  1  0  0  0  0
 51 67  1  0  0  0  0
 52 66  1  0  0  0  0
 53 63  1  0  0  0  0
 54 64  1  0  0  0  0
 55 64  1  0  0  0  0
 56 64  1  0  0  0  0
 57 74  1  0  0  0  0
 58 73  1  0  0  0  0
 59 60  1  0  0  0  0
 59 61  1  0  0  0  0
 60 81  1  0  0  0  0
 61 82  1  0  0  0  0
 62 64  1  0  0  0  0
 62 72  1  0  0  0  0
 63 74  1  0  0  0  0
 65 66  1  0  0  0  0
M  CHG  1  74   1
M  ISO  4  40 100  60 101  73 100  81 101
M  END
> <Batch ID>
0012

> <Smiles>
C#CC[100N:0](c1ccc(OCC[101CH2:1][101O:1]c2ccc3c(c2)CN(C(=O)C(NC(=O)C(C)NC)C(C)(C)C)C(C(=O)NC2CCCc4ccccc42)C3)c(F)c1)[100C:0](=O)N1CCCC(n2nc(-c3ccc(Oc4ccc(F)cc4F)cc3)c(C(N)=O)c2N)C1

> <Shape>
0.293

> <Color>
0.073

> <Negative vol penalty>
0.000

$$$$

  -OEChem-04042320463D

 81 89  0     1  0  0  0  0  0999 V2000
  -17.7155  -33.3419   18.0836 C   0  0  0  0  0  0  0  0  0  0  0  0
  -18.9138  -32.9824   17.4751 C   0  0  0  0  0  0  0  0  0  0  0  0
  -24.8012  -10.2786   22.6259 C   0  0  0  0  0  0  0  0  0  0  0  0
  -24.4888  -11.7693   24.5013 C   0  0  0  0  0  0  0  0  0  0  0  0
  -17.7254  -33.9232   19.3508 C   0  0  0  0  0  0  0  0  0  0  0  0
  -20.1229  -33.2051   18.1332 C   0  0  0  0  0  0  0  0  0  0  0  0
  -24.6112  -27.7615   19.5870 C   0  0  0  0  0  0  0  0  0  0  0  0
  -29.5131  -20.7821   21.9189 C   0  0  0  0  0  0  0  0  0  0  0  0
  -24.3855   -9.2034   23.4112 C   0  0  0  0  0  0  0  0  0  0  0  0
  -24.0729  -10.6941   25.2866 C   0  0  0  0  0  0  0  0  0  0  0  0
  -25.6185  -26.8047   19.7133 C   0  0  0  0  0  0  0  0  0  0  0  0
  -29.3851  -22.1504   22.1577 C   0  0  0  0  0  0  0  0  0  0  0  0
  -21.4645   -7.9153   24.5255 C   0  0  0  0  0  0  0  0  0  0  0  0
  -20.5567   -7.0164   23.9656 C   0  0  0  0  0  0  0  0  0  0  0  0
  -27.0248  -28.4182   20.8389 C   0  0  0  0  0  0  0  0  0  0  0  0
  -27.1423  -20.6374   21.4769 C   0  0  0  0  0  0  0  0  0  0  0  0
  -22.1505   -5.2245   24.2582 C   0  0  0  0  0  0  0  0  0  0  0  0
  -24.8529  -11.5615   23.1710 C   0  0  0  0  0  0  0  0  0  0  0  0
  -24.4755  -13.5061   21.5635 C   0  0  0  0  0  0  0  0  0  0  0  0
  -18.9346  -34.1443   20.0288 C   0  0  0  0  0  0  0  0  0  0  0  0
  -24.8012  -29.0475   20.1004 C   0  0  0  0  0  0  0  0  0  0  0  0
  -20.1490  -33.7912   19.4101 C   0  0  0  0  0  0  0  0  0  0  0  0
  -26.0146  -29.3772   20.7264 C   0  0  0  0  0  0  0  0  0  0  0  0
  -28.3917  -20.0256   21.5784 C   0  0  0  0  0  0  0  0  0  0  0  0
  -24.0213   -9.4111   24.7416 C   0  0  0  0  0  0  0  0  0  0  0  0
  -26.8224  -27.1323   20.3375 C   0  0  0  0  0  0  0  0  0  0  0  0
  -22.7154   -7.4688   24.9517 C   0  0  0  0  0  0  0  0  0  0  0  0
  -28.1357  -22.7621   22.0562 C   0  0  0  0  0  0  0  0  0  0  0  0
  -20.8997   -5.6710   23.8320 C   0  0  0  0  0  0  0  0  0  0  0  0
  -27.0143  -22.0057   21.7158 C   0  0  0  0  0  0  0  0  0  0  0  0
  -23.0584   -6.1234   24.8181 C   0  0  0  0  0  0  0  0  0  0  0  0
  -25.2829  -12.6725   22.3604 C   0  0  0  0  0  0  0  0  0  0  0  0
  -25.3542  -14.3993   21.0010 C   0  0  0  0  0  0  0  0  0  0  0  0
  -23.0579  -13.4758   21.3509 C   0  0  0  0  0  0  0  0  0  0  0  0
  -23.3724  -32.4735   20.6455 C   0  0  0  0  0  0  0  0  0  0  0  0
  -24.8881  -31.7227   23.2046 C   0  0  0  0  0  0  0  0  0  0  0  0
  -26.3005  -30.3471   25.9886 C   0  0  0  0  0  0  0  0  0  0  0  0
  -29.6878  -17.8733   21.3941 C   0  0  0  0  0  0  0  0  0  0  0  0
  -18.8980  -34.8190   21.3772 C   0  0  0  0  0  0  0  0  0  0  0  0
  -23.7676  -30.1278   19.9324 C   0  0  0  0  0  0  0  0  0  0  0  0
  -26.1880  -30.7830   21.2329 C   0  0  0  0  0  0  0  0  0  0  0  0
  -20.1981  -34.6777   22.1645 C   0  0  0  0  0  0  0  0  0  0  0  0
  -30.4150  -14.4228   20.9013 C   0  0  0  0  0  0  0  0  0  0  0  0
  -21.3979  -34.9814   21.2727 C   0  0  0  0  0  0  0  0  0  0  0  0
  -29.0782  -13.7284   21.1714 C   0  0  0  0  0  0  0  0  0  0  0  0
  -30.6319  -15.6163   21.8299 C   0  0  0  0  0  0  0  0  0  0  0  0
  -28.2019  -15.9022   22.1169 C   0  0  0  0  0  0  0  0  0  0  0  0
  -21.4794  -33.9940   20.1023 C   0  0  1  0  0  0  0  0  0  0  0  0
  -23.7025  -31.0923   21.1301 C   0  0  1  0  0  0  0  0  0  0  0  0
  -27.9093  -14.7331   21.1623 C   0  0  2  0  0  0  0  0  0  0  0  0
  -26.8460  -30.8668   28.3823 C   0  0  0  0  0  0  0  0  0  0  0  0
  -27.2368  -33.4417   22.2923 C   0  0  0  0  0  0  0  0  0  0  0  0
  -28.2509  -33.1347   24.5607 C   0  0  0  0  0  0  0  0  0  0  0  0
  -26.0517  -34.2882   24.3254 C   0  0  0  0  0  0  0  0  0  0  0  0
  -24.5818  -28.1504   26.9783 C   0  0  0  0  0  0  0  0  0  0  0  0
  -28.6649  -26.3010   21.5911 C   0  0  0  0  0  0  0  0  0  1  0  0
  -29.1408  -24.9163   21.9857 C   0  0  0  0  0  0  0  0  0  0  0  0
  -26.1840  -31.7882   23.9726 C   0  0  1  0  0  0  0  0  0  0  0  0
  -25.8232  -30.2708   27.4276 C   0  0  2  0  0  0  0  0  0  0  0  0
  -26.9242  -33.1407   23.7717 C   0  0  0  0  0  0  0  0  0  0  0  0
  -26.5752  -13.0063   22.3111 N   0  0  0  0  0  0  0  0  0  0  0  0
  -26.5866  -14.0595   21.4764 N   0  0  0  0  0  0  0  0  0  0  0  0
  -24.9536  -31.2347   21.8939 N   0  0  0  0  0  0  0  0  0  0  0  0
  -29.4868  -16.5270   21.7655 N   0  0  0  0  0  0  0  0  0  0  0  0
  -25.1853  -15.4344   20.1511 N   0  0  0  0  0  0  0  0  0  0  0  0
  -22.3048  -12.4921   22.0063 N   0  0  0  0  0  0  0  0  0  0  0  0
  -28.5216  -18.6356   21.3358 N   0  0  0  0  0  0  0  0  0  0  0  0
  -22.0175  -32.7263   20.5470 N   0  0  0  0  0  0  0  0  0  0  0  0
  -25.8510  -31.4898   25.3613 N   0  0  0  0  0  0  0  0  0  0  0  0
  -25.5846  -28.8529   27.8197 N   0  3  0  0  0  0  0  0  0  0  0  0
  -22.4784  -14.2864   20.5889 O   0  0  0  0  0  0  0  0  0  0  0  0
  -24.2795  -33.2539   20.3813 O   0  0  0  0  0  0  0  0  0  0  0  0
  -23.8455  -32.0986   23.7477 O   0  0  0  0  0  0  0  0  0  0  0  0
  -27.0049  -29.4816   25.4736 O   0  0  0  0  0  0  0  0  0  0  0  0
  -30.8084  -18.3104   21.1197 O   0  0  0  0  0  0  0  0  0  0  0  0
  -23.6153   -8.3622   25.5081 O   0  0  0  0  0  0  0  0  0  0  0  0
  -27.7998  -26.1921   20.4615 O   0  0  0  0  0  0  0  0  0  1  0  0
  -28.0119  -24.1064   22.2905 O   0  0  0  0  0  0  0  0  0  0  0  0
  -20.0272   -4.8077   23.2957 F   0  0  0  0  0  0  0  0  0  0  0  0
  -25.8115  -22.5881   21.6156 F   0  0  0  0  0  0  0  0  0  0  0  0
  -24.2582   -5.6883   25.2268 F   0  0  0  0  0  0  0  0  0  0  0  0
  1  2  1  0  0  0  0
  1  5  2  0  0  0  0
  2  6  2  0  0  0  0
  3  9  2  0  0  0  0
  3 18  1  0  0  0  0
  4 10  1  0  0  0  0
  4 18  2  0  0  0  0
  5 20  1  0  0  0  0
  6 22  1  0  0  0  0
  7 11  2  0  0  0  0
  7 21  1  0  0  0  0
  8 12  2  0  0  0  0
  8 24  1  0  0  0  0
  9 25  1  0  0  0  0
 10 25  2  0  0  0  0
 11 26  1  0  0  0  0
 12 28  1  0  0  0  0
 13 14  2  0  0  0  0
 13 27  1  0  0  0  0
 14 29  1  0  0  0  0
 15 23  1  0  0  0  0
 15 26  2  0  0  0  0
 16 24  2  0  0  0  0
 16 30  1  0  0  0  0
 17 29  2  0  0  0  0
 17 31  1  0  0  0  0
 18 32  1  0  0  0  0
 19 32  1  0  0  0  0
 19 33  2  0  0  0  0
 19 34  1  0  0  0  0
 20 22  2  0  0  0  0
 20 39  1  0  0  0  0
 21 23  2  0  0  0  0
 21 40  1  0  0  0  0
 22 48  1  0  0  0  0
 23 41  1  0  0  0  0
 24 67  1  0  0  0  0
 25 76  1  0  0  0  0
 26 77  1  0  0  0  0
 27 31  2  0  0  0  0
 27 76  1  0  0  0  0
 28 30  2  0  0  0  0
 28 78  1  0  0  0  0
 29 79  1  0  0  0  0
 30 80  1  0  0  0  0
 31 81  1  0  0  0  0
 32 61  2  0  0  0  0
 33 62  1  0  0  0  0
 33 65  1  0  0  0  0
 34 66  1  0  0  0  0
 34 71  2  0  0  0  0
 35 49  1  0  0  0  0
 35 68  1  0  0  0  0
 35 72  2  0  0  0  0
 36 58  1  0  0  0  0
 36 63  1  0  0  0  0
 36 73  2  0  0  0  0
 37 59  1  0  0  0  0
 37 69  1  0  0  0  0
 37 74  2  0  0  0  0
 38 64  1  0  0  0  0
 38 67  1  0  0  0  0
 38 75  2  0  0  0  0
 39 42  1  0  0  0  0
 40 49  1  0  0  0  0
 41 63  1  0  0  0  0
 42 44  1  0  0  0  0
 43 45  1  0  0  0  0
 43 46  1  0  0  0  0
 44 48  1  0  0  0  0
 45 50  1  0  0  0  0
 46 64  1  0  0  0  0
 47 50  1  0  0  0  0
 47 64  1  0  0  0  0
 48 68  1  0  0  0  0
 49 63  1  0  0  0  0
 50 62  1  0  0  0  0
 51 59  1  0  0  0  0
 52 60  1  0  0  0  0
 53 60  1  0  0  0  0
 54 60  1  0  0  0  0
 55 70  1  0  0  0  0
 56 57  1  0  0  0  0
 56 77  1  0  0  0  0
 57 78  1  0  0  0  0
 58 60  1  0  0  0  0
 58 69  1  0  0  0  0
 59 70  1  0  0  0  0
 61 62  1  0  0  0  0
M  CHG  1  70   1
M  ISO  4  38 100  56 101  67 100  77 101
M  END
> <Batch ID>
0012

> <Smiles>
CNC(C)C(=O)NC(C(=O)N1Cc2cc([101O:1][101CH2:1]COc3ccc([100NH:0][100C:0](=O)N4CCCC(n5nc(-c6ccc(Oc7ccc(F)cc7F)cc6)c(C(N)=O)c5N)C4)cc3F)ccc2CC1C(=O)NC1CCCc2ccccc21)C(C)(C)C

> <Shape>
0.265

> <Color>
0.145

> <Negative vol penalty>
0.000

$$$$

  -OEChem-04042320463D

 85 93  0     1  0  0  0  0  0999 V2000
  -16.8960  -29.0127   24.4258 C   0  0  0  0  0  0  0  0  0  0  0  0
  -17.3521  -28.0148   23.5704 C   0  0  0  0  0  0  0  0  0  0  0  0
  -26.0833  -13.6318   19.8177 C   0  0  0  0  0  0  0  0  0  0  0  0
  -24.7320  -13.5915   21.8201 C   0  0  0  0  0  0  0  0  0  0  0  0
  -17.4963  -30.2710   24.4099 C   0  0  0  0  0  0  0  0  0  0  0  0
  -18.4081  -28.2751   22.6977 C   0  0  0  0  0  0  0  0  0  0  0  0
  -22.7658  -24.3565   20.9196 C   0  0  0  0  0  0  0  0  0  0  0  0
  -26.0485  -12.2383   19.7662 C   0  0  0  0  0  0  0  0  0  0  0  0
  -24.6972  -12.1980   21.7686 C   0  0  0  0  0  0  0  0  0  0  0  0
  -22.9166  -23.5788   19.7724 C   0  0  0  0  0  0  0  0  0  0  0  0
  -23.9506   -8.6451   21.9614 C   0  0  0  0  0  0  0  0  0  0  0  0
  -22.7231   -8.0179   22.1747 C   0  0  0  0  0  0  0  0  0  0  0  0
  -24.3143  -25.2897   18.8037 C   0  0  0  0  0  0  0  0  0  0  0  0
  -26.8759  -21.4891   19.0027 C   0  0  0  0  0  0  0  0  0  0  0  0
  -28.8998  -19.8586   17.9887 C   0  0  0  0  0  0  0  0  0  0  0  0
  -21.7977   -9.1814   20.2702 C   0  0  0  0  0  0  0  0  0  0  0  0
  -25.4251  -14.3084   20.8447 C   0  0  0  0  0  0  0  0  0  0  0  0
  -24.5527  -16.6438   20.3040 C   0  0  0  0  0  0  0  0  0  0  0  0
  -18.5666  -30.5438   23.5434 C   0  0  0  0  0  0  0  0  0  0  0  0
  -23.3803  -25.6135   21.0133 C   0  0  0  0  0  0  0  0  0  0  0  0
  -19.0224  -29.5386   22.6693 C   0  0  0  0  0  0  0  0  0  0  0  0
  -24.1719  -26.0803   19.9542 C   0  0  0  0  0  0  0  0  0  0  0  0
  -26.7086  -20.8531   17.7727 C   0  0  0  0  0  0  0  0  0  0  0  0
  -29.0671  -20.4946   19.2188 C   0  0  0  0  0  0  0  0  0  0  0  0
  -25.3555  -11.5214   20.7416 C   0  0  0  0  0  0  0  0  0  0  0  0
  -23.6885  -24.0466   18.7130 C   0  0  0  0  0  0  0  0  0  0  0  0
  -24.1017   -9.5405   20.9025 C   0  0  0  0  0  0  0  0  0  0  0  0
  -21.6467   -8.2860   21.3291 C   0  0  0  0  0  0  0  0  0  0  0  0
  -28.0552  -21.3098   19.7258 C   0  0  0  0  0  0  0  0  0  0  0  0
  -23.0252   -9.8086   20.0569 C   0  0  0  0  0  0  0  0  0  0  0  0
  -27.7205  -20.0379   17.2656 C   0  0  0  0  0  0  0  0  0  0  0  0
  -25.4611  -15.7478   20.8988 C   0  0  0  0  0  0  0  0  0  0  0  0
  -25.0228  -17.8878   20.6473 C   0  0  0  0  0  0  0  0  0  0  0  0
  -23.3879  -16.3756   19.5121 C   0  0  0  0  0  0  0  0  0  0  0  0
  -22.3412  -28.5993   21.3440 C   0  0  0  0  0  0  0  0  0  0  0  0
  -25.5060  -29.2575   21.6137 C   0  0  0  0  0  0  0  0  0  0  0  0
  -28.7238  -28.3380   20.9446 C   0  0  0  0  0  0  0  0  0  0  0  0
  -30.3486  -20.3567   21.3705 C   0  0  0  0  0  0  0  0  0  0  0  0
  -19.1525  -31.9335   23.5288 C   0  0  0  0  0  0  0  0  0  0  0  0
  -23.2297  -26.4286   22.2685 C   0  0  0  0  0  0  0  0  0  0  0  0
  -24.8692  -27.4140   20.0133 C   0  0  0  0  0  0  0  0  0  0  0  0
  -20.5118  -32.0141   22.8387 C   0  0  0  0  0  0  0  0  0  0  0  0
  -28.0019  -19.6779   24.1499 C   0  0  0  0  0  0  0  0  0  0  0  0
  -20.4819  -31.2633   21.5112 C   0  0  0  0  0  0  0  0  0  0  0  0
  -27.0771  -18.6143   23.5610 C   0  0  0  0  0  0  0  0  0  0  0  0
  -29.3957  -19.6216   23.5319 C   0  0  0  0  0  0  0  0  0  0  0  0
  -28.4638  -18.6530   21.4499 C   0  0  0  0  0  0  0  0  0  0  0  0
  -20.1818  -29.7749   21.7258 C   0  0  1  0  0  0  0  0  0  0  0  0
  -23.4801  -27.9172   22.0479 C   0  0  1  0  0  0  0  0  0  0  0  0
  -27.0418  -18.7153   22.0272 C   0  0  1  0  0  0  0  0  0  0  0  0
  -31.9833  -21.7447   18.9006 C   0  0  0  0  0  0  0  0  0  0  0  0
  -31.0951  -29.0967   21.2585 C   0  0  0  0  0  0  0  0  0  0  0  0
  -25.1402  -31.3137   19.3892 C   0  0  0  0  0  0  0  0  0  0  0  0
  -27.6267  -31.3381   19.0980 C   0  0  0  0  0  0  0  0  0  0  0  0
  -26.6193  -32.0569   21.2639 C   0  0  0  0  0  0  0  0  0  0  0  0
  -24.3754  -20.1599   17.2869 C   0  0  0  0  0  0  0  0  0  0  0  0
  -29.4060  -25.9326   22.5280 C   0  0  0  0  0  0  0  0  0  0  0  0
  -31.5498  -20.3302   19.2285 C   0  0  0  0  0  0  0  0  0  0  0  0
  -25.3661  -22.1423   16.1307 C   0  0  0  0  0  0  0  0  0  0  0  0
  -25.0573  -23.4353   16.8667 C   0  0  0  0  0  0  0  0  0  1  0  0
  -26.6119  -29.6052   20.6466 C   0  0  1  0  0  0  0  0  0  0  0  0
  -29.9556  -28.2667   21.8289 C   0  0  2  0  0  0  0  0  0  0  0  0
  -26.4849  -31.0541   20.0972 C   0  0  0  0  0  0  0  0  0  0  0  0
  -26.4348  -16.3697   21.5690 N   0  0  0  0  0  0  0  0  0  0  0  0
  -26.1409  -17.6698   21.3973 N   0  0  0  0  0  0  0  0  0  0  0  0
  -24.6862  -28.1767   21.2592 N   0  0  0  0  0  0  0  0  0  0  0  0
  -29.3429  -19.6580   22.0696 N   0  0  0  0  0  0  0  0  0  0  0  0
  -24.5849  -19.1360   20.3777 N   0  0  0  0  0  0  0  0  0  0  0  0
  -23.0478  -15.0405   19.2548 N   0  0  0  0  0  0  0  0  0  0  0  0
  -21.3641  -29.0832   22.1929 N   0  0  0  0  0  0  0  0  0  0  0  0
  -27.8643  -29.3389   21.3458 N   0  0  0  0  0  0  0  0  0  0  0  0
  -30.2877  -20.3089   19.9647 N   0  0  0  0  0  0  0  0  0  0  0  0
  -25.5134  -21.0536   17.0692 N   0  0  3  0  0  0  0  0  0  0  0  0
  -30.4199  -26.8564   21.9574 N   0  3  0  0  0  0  0  0  0  0  0  0
  -22.6793  -17.2930   19.0326 O   0  0  0  0  0  0  0  0  0  0  0  0
  -22.3491  -28.6818   20.1214 O   0  0  0  0  0  0  0  0  0  0  0  0
  -25.3789  -29.9159   22.6490 O   0  0  0  0  0  0  0  0  0  0  0  0
  -28.5438  -27.5840   19.9908 O   0  0  0  0  0  0  0  0  0  0  0  0
  -31.2704  -20.9372   21.9570 O   0  0  0  0  0  0  0  0  0  0  0  0
  -25.3212  -10.1617   20.6916 O   0  0  0  0  0  0  0  0  0  0  0  0
  -23.8368  -23.2899   17.5918 O   0  0  0  0  0  0  0  0  0  1  0  0
  -20.4684   -7.6825   21.5331 F   0  0  0  0  0  0  0  0  0  0  0  0
  -28.2056  -21.9279   20.9060 F   0  0  0  0  0  0  0  0  0  0  0  0
  -23.1646  -10.6669   19.0373 F   0  0  0  0  0  0  0  0  0  0  0  0
  -27.5536  -19.2317   15.7468 Cl  0  0  0  0  0  0  0  0  0  0  0  0
  1  2  1  0  0  0  0
  1  5  2  0  0  0  0
  2  6  2  0  0  0  0
  3  8  2  0  0  0  0
  3 17  1  0  0  0  0
  4  9  1  0  0  0  0
  4 17  2  0  0  0  0
  5 19  1  0  0  0  0
  6 21  1  0  0  0  0
  7 10  2  0  0  0  0
  7 20  1  0  0  0  0
  8 25  1  0  0  0  0
  9 25  2  0  0  0  0
 10 26  1  0  0  0  0
 11 12  2  0  0  0  0
 11 27  1  0  0  0  0
 12 28  1  0  0  0  0
 13 22  1  0  0  0  0
 13 26  2  0  0  0  0
 14 23  2  0  0  0  0
 14 29  1  0  0  0  0
 15 24  1  0  0  0  0
 15 31  2  0  0  0  0
 16 28  2  0  0  0  0
 16 30  1  0  0  0  0
 17 32  1  0  0  0  0
 18 32  1  0  0  0  0
 18 33  2  0  0  0  0
 18 34  1  0  0  0  0
 19 21  2  0  0  0  0
 19 39  1  0  0  0  0
 20 22  2  0  0  0  0
 20 40  1  0  0  0  0
 21 48  1  0  0  0  0
 22 41  1  0  0  0  0
 23 31  1  0  0  0  0
 23 73  1  0  0  0  0
 24 29  2  0  0  0  0
 24 72  1  0  0  0  0
 25 80  1  0  0  0  0
 26 81  1  0  0  0  0
 27 30  2  0  0  0  0
 27 80  1  0  0  0  0
 28 82  1  0  0  0  0
 29 83  1  0  0  0  0
 30 84  1  0  0  0  0
 31 85  1  0  0  0  0
 32 64  2  0  0  0  0
 33 65  1  0  0  0  0
 33 68  1  0  0  0  0
 34 69  1  0  0  0  0
 34 75  2  0  0  0  0
 35 49  1  0  0  0  0
 35 70  1  0  0  0  0
 35 76  2  0  0  0  0
 36 61  1  0  0  0  0
 36 66  1  0  0  0  0
 36 77  2  0  0  0  0
 37 62  1  0  0  0  0
 37 71  1  0  0  0  0
 37 78  2  0  0  0  0
 38 67  1  0  0  0  0
 38 72  1  0  0  0  0
 38 79  2  0  0  0  0
 39 42  1  0  0  0  0
 40 49  1  0  0  0  0
 41 66  1  0  0  0  0
 42 44  1  0  0  0  0
 43 45  1  0  0  0  0
 43 46  1  0  0  0  0
 44 48  1  0  0  0  0
 45 50  1  0  0  0  0
 46 67  1  0  0  0  0
 47 50  1  0  0  0  0
 47 67  1  0  0  0  0
 48 70  1  0  0  0  0
 49 66  1  0  0  0  0
 50 65  1  0  0  0  0
 51 58  1  0  0  0  0
 52 62  1  0  0  0  0
 53 63  1  0  0  0  0
 54 63  1  0  0  0  0
 55 63  1  0  0  0  0
 56 73  1  0  0  0  0
 57 74  1  0  0  0  0
 58 72  1  0  0  0  0
 59 60  1  0  0  0  0
 59 73  1  0  0  0  0
 60 81  1  0  0  0  0
 61 63  1  0  0  0  0
 61 71  1  0  0  0  0
 62 74  1  0  0  0  0
 64 65  1  0  0  0  0
M  CHG  1  74   1
M  ISO  4  38 100  60 101  72 100  81 101
M  END
> <Batch ID>
0012

> <Smiles>
CC[100N:0](c1cc(Cl)c(N(C)C[101CH2:1][101O:1]c2ccc3c(c2)CN(C(=O)C(NC(=O)C(C)NC)C(C)(C)C)C(C(=O)NC2CCCc4ccccc42)C3)cc1F)[100C:0](=O)N1CCCC(n2nc(-c3ccc(Oc4ccc(F)cc4F)cc3)c(C(N)=O)c2N)C1

> <Shape>
0.236

> <Color>
0.085

> <Negative vol penalty>
0.000

$$$$

  -OEChem-04042320463D

 84 93  0     1  0  0  0  0  0999 V2000
  -27.5569  -34.3218   25.5034 C   0  0  0  0  0  0  0  0  0  0  0  0
  -28.0799  -33.0534   25.2729 C   0  0  0  0  0  0  0  0  0  0  0  0
  -23.1618   -9.7576   19.9091 C   0  0  0  0  0  0  0  0  0  0  0  0
  -23.9137   -9.7744   22.2050 C   0  0  0  0  0  0  0  0  0  0  0  0
  -26.2408  -34.6080   25.1430 C   0  0  0  0  0  0  0  0  0  0  0  0
  -27.2866  -32.0701   24.6827 C   0  0  0  0  0  0  0  0  0  0  0  0
  -29.1246  -27.6796   20.8290 C   0  0  0  0  0  0  0  0  0  0  0  0
  -30.9478  -19.3495   20.7042 C   0  0  0  0  0  0  0  0  0  0  0  0
  -30.8465  -17.9585   20.6840 C   0  0  0  0  0  0  0  0  0  0  0  0
  -22.4740   -8.5669   20.1430 C   0  0  0  0  0  0  0  0  0  0  0  0
  -23.2258   -8.5837   22.4390 C   0  0  0  0  0  0  0  0  0  0  0  0
  -29.4407  -26.3353   21.0207 C   0  0  0  0  0  0  0  0  0  0  0  0
  -20.0384   -7.6233   23.0208 C   0  0  0  0  0  0  0  0  0  0  0  0
  -19.2808   -7.5330   24.1885 C   0  0  0  0  0  0  0  0  0  0  0  0
  -27.2020  -25.7215   20.3644 C   0  0  0  0  0  0  0  0  0  0  0  0
  -20.6126   -5.6494   24.9067 C   0  0  0  0  0  0  0  0  0  0  0  0
  -23.8817  -10.3613   20.9401 C   0  0  0  0  0  0  0  0  0  0  0  0
  -24.1011  -12.9013   20.8507 C   0  0  0  0  0  0  0  0  0  0  0  0
  -25.4341  -33.6305   24.5393 C   0  0  0  0  0  0  0  0  0  0  0  0
  -27.8394  -28.0563   20.4134 C   0  0  0  0  0  0  0  0  0  0  0  0
  -25.9581  -32.3431   24.3151 C   0  0  0  0  0  0  0  0  0  0  0  0
  -26.8729  -27.0711   20.1657 C   0  0  0  0  0  0  0  0  0  0  0  0
  -30.1762  -20.0921   21.5980 C   0  0  0  0  0  0  0  0  0  0  0  0
  -29.9735  -17.3101   21.5575 C   0  0  0  0  0  0  0  0  0  0  0  0
  -22.5060   -7.9800   21.4079 C   0  0  0  0  0  0  0  0  0  0  0  0
  -28.4785  -25.3562   20.7912 C   0  0  0  0  0  0  0  0  0  0  0  0
  -21.0830   -6.7267   22.7960 C   0  0  0  0  0  0  0  0  0  0  0  0
  -19.5679   -6.5460   25.1315 C   0  0  0  0  0  0  0  0  0  0  0  0
  -21.3701   -5.7397   23.7390 C   0  0  0  0  0  0  0  0  0  0  0  0
  -29.3032  -19.4437   22.4715 C   0  0  0  0  0  0  0  0  0  0  0  0
  -29.2018  -18.0526   22.4513 C   0  0  0  0  0  0  0  0  0  0  0  0
  -24.5929  -11.5910   20.6990 C   0  0  0  0  0  0  0  0  0  0  0  0
  -25.1567  -13.7071   20.5000 C   0  0  0  0  0  0  0  0  0  0  0  0
  -22.8058  -13.3500   21.2711 C   0  0  0  0  0  0  0  0  0  0  0  0
  -25.5021  -29.8109   21.6630 C   0  0  0  0  0  0  0  0  0  0  0  0
  -24.1206  -29.3292   18.7679 C   0  0  0  0  0  0  0  0  0  0  0  0
  -23.8753  -27.4071   15.9587 C   0  0  0  0  0  0  0  0  0  0  0  0
  -30.5652  -15.0141   20.7061 C   0  0  0  0  0  0  0  0  0  0  0  0
  -24.0025  -33.9727   24.2103 C   0  0  0  0  0  0  0  0  0  0  0  0
  -27.5223  -29.5088   20.1854 C   0  0  0  0  0  0  0  0  0  0  0  0
  -25.4846  -27.4218   19.6989 C   0  0  0  0  0  0  0  0  0  0  0  0
  -23.3463  -32.9864   23.2476 C   0  0  0  0  0  0  0  0  0  0  0  0
  -29.5761  -12.5773   18.3060 C   0  0  0  0  0  0  0  0  0  0  0  0
  -23.6319  -31.5509   23.6773 C   0  0  0  0  0  0  0  0  0  0  0  0
  -28.1510  -12.2112   18.7271 C   0  0  0  0  0  0  0  0  0  0  0  0
  -31.1403  -23.6416   21.3309 C   0  0  0  0  0  0  0  0  0  0  0  0
  -30.4755  -12.8359   19.5134 C   0  0  0  0  0  0  0  0  0  0  0  0
  -31.1624  -22.2317   20.7408 C   0  0  0  0  0  0  0  0  0  0  0  0
  -28.5316  -13.4508   20.8963 C   0  0  0  0  0  0  0  0  0  0  0  0
  -29.5095  -22.3342   22.5095 C   0  0  0  0  0  0  0  0  0  0  0  0
  -25.1368  -31.2572   23.6545 C   0  0  1  0  0  0  0  0  0  0  0  0
  -26.0289  -29.8126   20.2559 C   0  0  1  0  0  0  0  0  0  0  0  0
  -27.5718  -13.2445   19.7131 C   0  0  2  0  0  0  0  0  0  0  0  0
  -29.7615  -23.7404   21.9672 C   0  0  2  0  0  0  0  0  0  1  0  0
  -22.6324  -27.2457   13.7846 C   0  0  0  0  0  0  0  0  0  0  0  0
  -21.6634  -28.2952   20.2522 C   0  0  0  0  0  0  0  0  0  0  0  0
  -20.8730  -27.2891   18.1002 C   0  0  0  0  0  0  0  0  0  0  0  0
  -21.1568  -29.7602   18.2897 C   0  0  0  0  0  0  0  0  0  0  0  0
  -26.3679  -27.6516   14.3821 C   0  0  0  0  0  0  0  0  0  0  0  0
  -23.2051  -28.2820   18.1812 C   0  0  1  0  0  0  0  0  0  0  0  0
  -23.8752  -27.7722   14.4852 C   0  0  2  0  0  0  0  0  0  0  0  0
  -21.7501  -28.3998   18.7165 C   0  0  0  0  0  0  0  0  0  0  0  0
  -25.8622  -11.5615   20.2840 N   0  0  0  0  0  0  0  0  0  0  0  0
  -26.1768  -12.8633   20.1720 N   0  0  0  0  0  0  0  0  0  0  0  0
  -30.2784  -21.4673   21.6157 N   0  0  3  0  0  0  0  0  0  0  0  0
  -25.2211  -28.8561   19.4964 N   0  0  0  0  0  0  0  0  0  0  0  0
  -29.8646  -13.8281   20.4008 N   0  0  0  0  0  0  0  0  0  0  0  0
  -25.3025  -15.0479   20.4432 N   0  0  0  0  0  0  0  0  0  0  0  0
  -21.8382  -12.3890   21.5942 N   0  0  0  0  0  0  0  0  0  0  0  0
  -29.8713  -15.8970   21.5329 N   0  0  0  0  0  0  0  0  0  0  0  0
  -25.5880  -31.0356   22.2973 N   0  0  0  0  0  0  0  0  0  0  0  0
  -23.3204  -28.4047   16.7321 N   0  0  0  0  0  0  0  0  0  0  0  0
  -25.0738  -27.1994   13.8096 N   0  3  0  0  0  0  0  0  0  0  0  0
  -22.5100  -14.5670   21.3420 O   0  0  0  0  0  0  0  0  0  0  0  0
  -25.0498  -28.7757   22.1376 O   0  0  0  0  0  0  0  0  0  0  0  0
  -23.8724  -30.5229   18.5806 O   0  0  0  0  0  0  0  0  0  0  0  0
  -24.3194  -26.3417   16.3809 O   0  0  0  0  0  0  0  0  0  0  0  0
  -31.6861  -15.2429   20.2444 O   0  0  0  0  0  0  0  0  0  0  0  0
  -21.8347   -6.8182   21.6366 O   0  0  0  0  0  0  0  0  0  0  0  0
  -28.7842  -24.0434   20.9782 O   0  0  0  0  0  0  0  0  0  1  0  0
  -18.8413   -6.4603   26.2535 F   0  0  0  0  0  0  0  0  0  0  0  0
  -22.3732   -4.8763   23.5291 F   0  0  0  0  0  0  0  0  0  0  0  0
  -28.5569  -20.1475   23.3346 F   0  0  0  0  0  0  0  0  0  0  0  0
  -28.3590  -17.4391   23.2943 F   0  0  0  0  0  0  0  0  0  0  0  0
  1  2  1  0  0  0  0
  1  5  2  0  0  0  0
  2  6  2  0  0  0  0
  3 10  2  0  0  0  0
  3 17  1  0  0  0  0
  4 11  1  0  0  0  0
  4 17  2  0  0  0  0
  5 19  1  0  0  0  0
  6 21  1  0  0  0  0
  7 12  2  0  0  0  0
  7 20  1  0  0  0  0
  8  9  2  0  0  0  0
  8 23  1  0  0  0  0
  9 24  1  0  0  0  0
 10 25  1  0  0  0  0
 11 25  2  0  0  0  0
 12 26  1  0  0  0  0
 13 14  2  0  0  0  0
 13 27  1  0  0  0  0
 14 28  1  0  0  0  0
 15 22  1  0  0  0  0
 15 26  2  0  0  0  0
 16 28  2  0  0  0  0
 16 29  1  0  0  0  0
 17 32  1  0  0  0  0
 18 32  1  0  0  0  0
 18 33  2  0  0  0  0
 18 34  1  0  0  0  0
 19 21  2  0  0  0  0
 19 39  1  0  0  0  0
 20 22  2  0  0  0  0
 20 40  1  0  0  0  0
 21 51  1  0  0  0  0
 22 41  1  0  0  0  0
 23 30  2  0  0  0  0
 23 65  1  0  0  0  0
 24 31  2  0  0  0  0
 24 70  1  0  0  0  0
 25 79  1  0  0  0  0
 26 80  1  0  0  0  0
 27 29  2  0  0  0  0
 27 79  1  0  0  0  0
 28 81  1  0  0  0  0
 29 82  1  0  0  0  0
 30 31  1  0  0  0  0
 30 83  1  0  0  0  0
 31 84  1  0  0  0  0
 32 63  2  0  0  0  0
 33 64  1  0  0  0  0
 33 68  1  0  0  0  0
 34 69  1  0  0  0  0
 34 74  2  0  0  0  0
 35 52  1  0  0  0  0
 35 71  1  0  0  0  0
 35 75  2  0  0  0  0
 36 60  1  0  0  0  0
 36 66  1  0  0  0  0
 36 76  2  0  0  0  0
 37 61  1  0  0  0  0
 37 72  1  0  0  0  0
 37 77  2  0  0  0  0
 38 67  1  0  0  0  0
 38 70  1  0  0  0  0
 38 78  2  0  0  0  0
 39 42  1  0  0  0  0
 40 52  1  0  0  0  0
 41 66  1  0  0  0  0
 42 44  1  0  0  0  0
 43 45  1  0  0  0  0
 43 47  1  0  0  0  0
 44 51  1  0  0  0  0
 45 53  1  0  0  0  0
 46 48  1  0  0  0  0
 46 54  1  0  0  0  0
 47 67  1  0  0  0  0
 48 65  1  0  0  0  0
 49 53  1  0  0  0  0
 49 67  1  0  0  0  0
 50 54  1  0  0  0  0
 50 65  1  0  0  0  0
 51 71  1  0  0  0  0
 52 66  1  0  0  0  0
 53 64  1  0  0  0  0
 54 80  1  0  0  0  0
 55 61  1  0  0  0  0
 56 62  1  0  0  0  0
 57 62  1  0  0  0  0
 58 62  1  0  0  0  0
 59 73  1  0  0  0  0
 60 62  1  0  0  0  0
 60 72  1  0  0  0  0
 61 73  1  0  0  0  0
 63 64  1  0  0  0  0
M  CHG  1  73   1
M  ISO  4  38 100  54 101  70 100  80 101
M  END
> <Batch ID>
0012

> <Smiles>
CNC(C)C(=O)NC(C(=O)N1Cc2cc([101O:1][101CH:1]3CCN(c4ccc([100NH:0][100C:0](=O)N5CCCC(n6nc(-c7ccc(Oc8ccc(F)cc8F)cc7)c(C(N)=O)c6N)C5)c(F)c4F)C3)ccc2CC1C(=O)NC1CCCc2ccccc21)C(C)(C)C

> <Shape>
0.352

> <Color>
0.208

> <Negative vol penalty>
0.000

$$$$

  -OEChem-04042320463D

 83 91  0     1  0  0  0  0  0999 V2000
  -26.8479  -34.4786   25.1369 C   0  0  0  0  0  0  0  0  0  0  0  0
  -27.2415  -33.2470   24.6234 C   0  0  0  0  0  0  0  0  0  0  0  0
  -23.3374  -13.7955   19.7268 C   0  0  0  0  0  0  0  0  0  0  0  0
  -23.5098  -14.7897   21.9220 C   0  0  0  0  0  0  0  0  0  0  0  0
  -25.5253  -34.6779   25.5306 C   0  0  0  0  0  0  0  0  0  0  0  0
  -26.3129  -32.2136   24.5043 C   0  0  0  0  0  0  0  0  0  0  0  0
  -26.6279  -29.8224   20.0514 C   0  0  0  0  0  0  0  0  0  0  0  0
  -31.3934  -21.9570   21.7728 C   0  0  0  0  0  0  0  0  0  0  0  0
  -22.7952  -12.6414   20.2921 C   0  0  0  0  0  0  0  0  0  0  0  0
  -22.9675  -13.6356   22.4873 C   0  0  0  0  0  0  0  0  0  0  0  0
  -27.6625  -28.9010   19.8953 C   0  0  0  0  0  0  0  0  0  0  0  0
  -31.2223  -23.3289   21.5885 C   0  0  0  0  0  0  0  0  0  0  0  0
  -23.9177   -9.9081   21.9333 C   0  0  0  0  0  0  0  0  0  0  0  0
  -24.4070   -8.6792   21.4907 C   0  0  0  0  0  0  0  0  0  0  0  0
  -26.1175  -27.1009   20.3336 C   0  0  0  0  0  0  0  0  0  0  0  0
  -22.1909   -8.0632   20.7514 C   0  0  0  0  0  0  0  0  0  0  0  0
  -23.6948  -14.8697   20.5418 C   0  0  0  0  0  0  0  0  0  0  0  0
  -23.5557  -17.1945   19.5008 C   0  0  0  0  0  0  0  0  0  0  0  0
  -24.5778  -33.6495   25.4072 C   0  0  0  0  0  0  0  0  0  0  0  0
  -25.3304  -29.3899   20.3611 C   0  0  0  0  0  0  0  0  0  0  0  0
  -24.9767  -32.3989   24.8979 C   0  0  0  0  0  0  0  0  0  0  0  0
  -25.0676  -28.0187   20.4907 C   0  0  0  0  0  0  0  0  0  0  0  0
  -30.3898  -21.2046   22.3831 C   0  0  0  0  0  0  0  0  0  0  0  0
  -22.6102  -12.5614   21.6723 C   0  0  0  0  0  0  0  0  0  0  0  0
  -27.4080  -27.5402   20.0392 C   0  0  0  0  0  0  0  0  0  0  0  0
  -22.5650  -10.2146   21.7850 C   0  0  0  0  0  0  0  0  0  0  0  0
  -30.0475  -23.9486   22.0145 C   0  0  0  0  0  0  0  0  0  0  0  0
  -23.5436   -7.7567   20.8998 C   0  0  0  0  0  0  0  0  0  0  0  0
  -21.7016   -9.2921   21.1941 C   0  0  0  0  0  0  0  0  0  0  0  0
  -29.0438  -23.1963   22.6248 C   0  0  0  0  0  0  0  0  0  0  0  0
  -29.2150  -21.8243   22.8091 C   0  0  0  0  0  0  0  0  0  0  0  0
  -24.2555  -16.0620   19.9585 C   0  0  0  0  0  0  0  0  0  0  0  0
  -24.5350  -18.0408   19.0415 C   0  0  0  0  0  0  0  0  0  0  0  0
  -22.1463  -17.4579   19.4917 C   0  0  0  0  0  0  0  0  0  0  0  0
  -23.3369  -29.8408   22.7956 C   0  0  0  0  0  0  0  0  0  0  0  0
  -21.2696  -28.2147   20.8970 C   0  0  0  0  0  0  0  0  0  0  0  0
  -20.8131  -25.9994   18.3414 C   0  0  0  0  0  0  0  0  0  0  0  0
  -30.3471  -18.6418   20.3491 C   0  0  0  0  0  0  0  0  0  0  0  0
  -23.1706  -33.8971   25.8902 C   0  0  0  0  0  0  0  0  0  0  0  0
  -24.2197  -30.3947   20.5000 C   0  0  0  0  0  0  0  0  0  0  0  0
  -23.6879  -27.5016   20.8027 C   0  0  0  0  0  0  0  0  0  0  0  0
  -22.1626  -32.8694   25.3822 C   0  0  0  0  0  0  0  0  0  0  0  0
  -28.9280  -18.0055   17.1463 C   0  0  0  0  0  0  0  0  0  0  0  0
  -22.7112  -31.4559   25.5492 C   0  0  0  0  0  0  0  0  0  0  0  0
  -27.5064  -17.5374   17.4626 C   0  0  0  0  0  0  0  0  0  0  0  0
  -29.9301  -17.5088   18.1861 C   0  0  0  0  0  0  0  0  0  0  0  0
  -28.1641  -17.3657   19.8991 C   0  0  0  0  0  0  0  0  0  0  0  0
  -23.9930  -31.2612   24.7302 C   0  0  1  0  0  0  0  0  0  0  0  0
  -23.0440  -29.8760   21.3222 C   0  0  1  0  0  0  0  0  0  0  0  0
  -27.1093  -17.8885   18.9091 C   0  0  2  0  0  0  0  0  0  0  0  0
  -19.0091  -24.8374   17.0403 C   0  0  0  0  0  0  0  0  0  0  0  0
  -20.8030  -26.3189   23.2418 C   0  0  0  0  0  0  0  0  0  0  0  0
  -19.7806  -24.6943   21.6345 C   0  0  0  0  0  0  0  0  0  0  0  0
  -18.7386  -26.9355   21.9719 C   0  0  0  0  0  0  0  0  0  0  0  0
  -21.6861  -27.2399   15.8002 C   0  0  0  0  0  0  0  0  0  0  0  0
  -30.6125  -19.7373   22.5602 C   0  0  0  0  0  0  0  0  0  0  0  0
  -29.7314  -27.0712   20.2341 C   0  0  0  0  0  0  0  0  0  1  0  0
  -30.5354  -25.8774   20.7117 C   0  0  0  0  0  0  0  0  0  0  0  0
  -20.9168  -26.7601   20.7004 C   0  0  1  0  0  0  0  0  0  0  0  0
  -19.9248  -26.0496   17.1115 C   0  0  2  0  0  0  0  0  0  0  0  0
  -20.0862  -26.1867   21.8832 C   0  0  0  0  0  0  0  0  0  0  0  0
  -25.5773  -16.1753   19.8039 N   0  0  0  0  0  0  0  0  0  0  0  0
  -25.7159  -17.3891   19.2438 N   0  0  0  0  0  0  0  0  0  0  0  0
  -22.6367  -28.5238   20.9354 N   0  0  0  0  0  0  0  0  0  0  0  0
  -29.4957  -17.8756   19.5361 N   0  0  0  0  0  0  0  0  0  0  0  0
  -24.4927  -19.2715   18.4882 N   0  0  0  0  0  0  0  0  0  0  0  0
  -21.2806  -16.4806   20.0014 N   0  0  0  0  0  0  0  0  0  0  0  0
  -23.6748  -31.0688   23.3315 N   0  0  0  0  0  0  0  0  0  0  0  0
  -20.2510  -26.6729   19.4052 N   0  0  0  0  0  0  0  0  0  0  0  0
  -29.8558  -18.9509   21.6116 N   0  0  0  0  0  0  0  0  0  0  0  0
  -20.7547  -26.0849   15.8742 N   0  3  0  0  0  0  0  0  0  0  0  0
  -21.6677  -18.5214   19.0296 O   0  0  0  0  0  0  0  0  0  0  0  0
  -23.2604  -28.7784   23.4015 O   0  0  0  0  0  0  0  0  0  0  0  0
  -20.3656  -29.0470   21.0050 O   0  0  0  0  0  0  0  0  0  0  0  0
  -21.8955  -25.4175   18.3580 O   0  0  0  0  0  0  0  0  0  0  0  0
  -31.4603  -19.0268   19.9755 O   0  0  0  0  0  0  0  0  0  0  0  0
  -22.0809  -11.4354   22.2242 O   0  0  0  0  0  0  0  0  0  0  0  0
  -28.4162  -26.6388   19.8880 O   0  0  0  0  0  0  0  0  0  1  0  0
  -29.8829  -25.2968   21.8343 O   0  0  0  0  0  0  0  0  0  0  0  0
  -24.0139   -6.5772   20.4734 F   0  0  0  0  0  0  0  0  0  0  0  0
  -20.4013   -9.5814   21.0478 F   0  0  0  0  0  0  0  0  0  0  0  0
  -27.9185  -23.8032   23.0308 F   0  0  0  0  0  0  0  0  0  0  0  0
  -27.9558  -20.9189   23.5677 Cl  0  0  0  0  0  0  0  0  0  0  0  0
  1  2  1  0  0  0  0
  1  5  2  0  0  0  0
  2  6  2  0  0  0  0
  3  9  2  0  0  0  0
  3 17  1  0  0  0  0
  4 10  1  0  0  0  0
  4 17  2  0  0  0  0
  5 19  1  0  0  0  0
  6 21  1  0  0  0  0
  7 11  2  0  0  0  0
  7 20  1  0  0  0  0
  8 12  2  0  0  0  0
  8 23  1  0  0  0  0
  9 24  1  0  0  0  0
 10 24  2  0  0  0  0
 11 25  1  0  0  0  0
 12 27  1  0  0  0  0
 13 14  2  0  0  0  0
 13 26  1  0  0  0  0
 14 28  1  0  0  0  0
 15 22  1  0  0  0  0
 15 25  2  0  0  0  0
 16 28  2  0  0  0  0
 16 29  1  0  0  0  0
 17 32  1  0  0  0  0
 18 32  1  0  0  0  0
 18 33  2  0  0  0  0
 18 34  1  0  0  0  0
 19 21  2  0  0  0  0
 19 39  1  0  0  0  0
 20 22  2  0  0  0  0
 20 40  1  0  0  0  0
 21 48  1  0  0  0  0
 22 41  1  0  0  0  0
 23 31  2  0  0  0  0
 23 56  1  0  0  0  0
 24 77  1  0  0  0  0
 25 78  1  0  0  0  0
 26 29  2  0  0  0  0
 26 77  1  0  0  0  0
 27 30  2  0  0  0  0
 27 79  1  0  0  0  0
 28 80  1  0  0  0  0
 29 81  1  0  0  0  0
 30 31  1  0  0  0  0
 30 82  1  0  0  0  0
 31 83  1  0  0  0  0
 32 62  2  0  0  0  0
 33 63  1  0  0  0  0
 33 66  1  0  0  0  0
 34 67  1  0  0  0  0
 34 72  2  0  0  0  0
 35 49  1  0  0  0  0
 35 68  1  0  0  0  0
 35 73  2  0  0  0  0
 36 59  1  0  0  0  0
 36 64  1  0  0  0  0
 36 74  2  0  0  0  0
 37 60  1  0  0  0  0
 37 69  1  0  0  0  0
 37 75  2  0  0  0  0
 38 65  1  0  0  0  0
 38 70  1  0  0  0  0
 38 76  2  0  0  0  0
 39 42  1  0  0  0  0
 40 49  1  0  0  0  0
 41 64  1  0  0  0  0
 42 44  1  0  0  0  0
 43 45  1  0  0  0  0
 43 46  1  0  0  0  0
 44 48  1  0  0  0  0
 45 50  1  0  0  0  0
 46 65  1  0  0  0  0
 47 50  1  0  0  0  0
 47 65  1  0  0  0  0
 48 68  1  0  0  0  0
 49 64  1  0  0  0  0
 50 63  1  0  0  0  0
 51 60  1  0  0  0  0
 52 61  1  0  0  0  0
 53 61  1  0  0  0  0
 54 61  1  0  0  0  0
 55 71  1  0  0  0  0
 56 70  1  0  0  0  0
 57 58  1  0  0  0  0
 57 78  1  0  0  0  0
 58 79  1  0  0  0  0
 59 61  1  0  0  0  0
 59 69  1  0  0  0  0
 60 71  1  0  0  0  0
 62 63  1  0  0  0  0
M  CHG  1  71   1
M  ISO  4  38 100  57 101  70 100  78 101
M  END
> <Batch ID>
0012

> <Smiles>
CNC(C)C(=O)NC(C(=O)N1Cc2cc([101O:1][101CH2:1]COc3ccc(C[100NH:0][100C:0](=O)N4CCCC(n5nc(-c6ccc(Oc7ccc(F)cc7F)cc6)c(C(N)=O)c5N)C4)c(Cl)c3F)ccc2CC1C(=O)NC1CCCc2ccccc21)C(C)(C)C

> <Shape>
0.259

> <Color>
0.082

> <Negative vol penalty>
0.000

$$$$

  -OEChem-04042320463D

 83 92  0     1  0  0  0  0  0999 V2000
  -26.7739  -31.6126   27.3735 C   0  0  0  0  0  0  0  0  0  0  0  0
  -27.4346  -30.6311   26.6417 C   0  0  0  0  0  0  0  0  0  0  0  0
  -31.7079  -21.1803   17.2185 C   0  0  0  0  0  0  0  0  0  0  0  0
  -22.8633  -11.2700   20.8606 C   0  0  0  0  0  0  0  0  0  0  0  0
  -23.7854   -9.1173   21.4546 C   0  0  0  0  0  0  0  0  0  0  0  0
  -25.4019  -31.7979   27.2093 C   0  0  0  0  0  0  0  0  0  0  0  0
  -26.7234  -29.8336   25.7460 C   0  0  0  0  0  0  0  0  0  0  0  0
  -31.3470  -20.0538   17.9577 C   0  0  0  0  0  0  0  0  0  0  0  0
  -28.7287  -27.6075   20.4047 C   0  0  0  0  0  0  0  0  0  0  0  0
  -31.3609  -22.4528   17.6722 C   0  0  0  0  0  0  0  0  0  0  0  0
  -21.6612  -10.6574   20.5066 C   0  0  0  0  0  0  0  0  0  0  0  0
  -22.5832   -8.5047   21.1007 C   0  0  0  0  0  0  0  0  0  0  0  0
  -29.2382  -26.3622   20.0395 C   0  0  0  0  0  0  0  0  0  0  0  0
  -18.9364   -9.4223   22.0823 C   0  0  0  0  0  0  0  0  0  0  0  0
  -17.7527  -10.0150   22.5218 C   0  0  0  0  0  0  0  0  0  0  0  0
  -30.2920  -21.4725   19.6044 C   0  0  0  0  0  0  0  0  0  0  0  0
  -27.0460  -25.6925   19.2879 C   0  0  0  0  0  0  0  0  0  0  0  0
  -17.0420  -10.2955   20.2298 C   0  0  0  0  0  0  0  0  0  0  0  0
  -23.9254  -10.4999   21.3345 C   0  0  0  0  0  0  0  0  0  0  0  0
  -25.5260  -11.6344   22.9651 C   0  0  0  0  0  0  0  0  0  0  0  0
  -30.6391  -20.1999   19.1507 C   0  0  0  0  0  0  0  0  0  0  0  0
  -24.6751  -31.0087   26.3040 C   0  0  0  0  0  0  0  0  0  0  0  0
  -27.3695  -27.9013   20.2240 C   0  0  0  0  0  0  0  0  0  0  0  0
  -25.3400  -30.0076   25.5704 C   0  0  0  0  0  0  0  0  0  0  0  0
  -26.5223  -26.9432   19.6493 C   0  0  0  0  0  0  0  0  0  0  0  0
  -30.6530  -22.5989   18.8651 C   0  0  0  0  0  0  0  0  0  0  0  0
  -21.5211   -9.2748   20.6267 C   0  0  0  0  0  0  0  0  0  0  0  0
  -28.3962  -25.4034   19.4837 C   0  0  0  0  0  0  0  0  0  0  0  0
  -19.1729   -9.2662   20.7164 C   0  0  0  0  0  0  0  0  0  0  0  0
  -16.8056  -10.4516   21.5956 C   0  0  0  0  0  0  0  0  0  0  0  0
  -18.2257   -9.7028   19.7902 C   0  0  0  0  0  0  0  0  0  0  0  0
  -25.1677  -11.1320   21.6998 C   0  0  0  0  0  0  0  0  0  0  0  0
  -26.7954  -12.1292   22.7911 C   0  0  0  0  0  0  0  0  0  0  0  0
  -24.7783  -11.6522   24.1883 C   0  0  0  0  0  0  0  0  0  0  0  0
  -24.9584  -28.6427   22.1580 C   0  0  0  0  0  0  0  0  0  0  0  0
  -23.3674  -29.0868   19.3663 C   0  0  0  0  0  0  0  0  0  0  0  0
  -23.0966  -28.3711   16.0404 C   0  0  0  0  0  0  0  0  0  0  0  0
  -30.5934  -14.8869   19.9642 C   0  0  0  0  0  0  0  0  0  0  0  0
  -23.1849  -31.2143   26.1953 C   0  0  0  0  0  0  0  0  0  0  0  0
  -26.8409  -29.2588   20.5984 C   0  0  0  0  0  0  0  0  0  0  0  0
  -25.0596  -27.2161   19.4156 C   0  0  0  0  0  0  0  0  0  0  0  0
  -22.5715  -30.5784   24.9505 C   0  0  0  0  0  0  0  0  0  0  0  0
  -30.0365  -11.6298   18.9495 C   0  0  0  0  0  0  0  0  0  0  0  0
  -23.0871  -29.1542   24.7693 C   0  0  0  0  0  0  0  0  0  0  0  0
  -28.7493  -11.2383   19.6750 C   0  0  0  0  0  0  0  0  0  0  0  0
  -29.2966  -18.0508   19.1733 C   0  0  0  0  0  0  0  0  0  0  0  0
  -31.4784  -18.1922   20.4496 C   0  0  0  0  0  0  0  0  0  0  0  0
  -29.9533  -13.0578   18.4230 C   0  0  0  0  0  0  0  0  0  0  0  0
  -28.9321  -16.8001   19.9784 C   0  0  0  0  0  0  0  0  0  0  0  0
  -31.0525  -16.9582   21.2399 C   0  0  0  0  0  0  0  0  0  0  0  0
  -28.3686  -13.6955   20.2119 C   0  0  0  0  0  0  0  0  0  0  0  0
  -30.2483  -18.9743   19.9549 C   0  0  0  0  0  0  0  0  0  0  0  0
  -24.6076  -29.1390   24.5708 C   0  0  1  0  0  0  0  0  0  0  0  0
  -25.3353  -29.2668   20.8442 C   0  0  1  0  0  0  0  0  0  0  0  0
  -28.4008  -12.2591   20.7727 C   0  0  1  0  0  0  0  0  0  0  0  0
  -21.6728  -28.8537   14.0312 C   0  0  0  0  0  0  0  0  0  0  0  0
  -21.2320  -27.1817   20.4250 C   0  0  0  0  0  0  0  0  0  0  0  0
  -20.3686  -26.9605   18.0854 C   0  0  0  0  0  0  0  0  0  0  0  0
  -20.3396  -29.1825   19.2187 C   0  0  0  0  0  0  0  0  0  0  0  0
  -25.3625  -29.5988   14.5852 C   0  0  0  0  0  0  0  0  0  0  0  0
  -30.2814  -23.9597   19.3499 C   0  0  0  0  0  0  0  0  0  1  0  0
  -22.5444  -28.2100   18.4536 C   0  0  1  0  0  0  0  0  0  0  0  0
  -22.8991  -29.2661   14.8303 C   0  0  2  0  0  0  0  0  0  0  0  0
  -21.1483  -27.8775   19.0517 C   0  0  0  0  0  0  0  0  0  0  0  0
  -26.1315  -11.2930   20.7892 N   0  0  0  0  0  0  0  0  0  0  0  0
  -27.1080  -11.9022   21.4831 N   0  0  0  0  0  0  0  0  0  0  0  0
  -24.5890  -28.5560   19.8041 N   0  0  0  0  0  0  0  0  0  0  0  0
  -29.6171  -13.9958   19.4939 N   0  0  0  0  0  0  0  0  0  0  0  0
  -30.1433  -16.1205   20.4584 N   0  0  0  0  0  0  0  0  0  0  0  0
  -27.6636  -12.7320   23.6310 N   0  0  0  0  0  0  0  0  0  0  0  0
  -23.4893  -11.1018   24.1916 N   0  0  0  0  0  0  0  0  0  0  0  0
  -24.9446  -29.5287   23.2184 N   0  0  0  0  0  0  0  0  0  0  0  0
  -22.4953  -28.8938   17.1658 N   0  0  0  0  0  0  0  0  0  0  0  0
  -24.0886  -29.1968   13.9351 N   0  3  0  0  0  0  0  0  0  0  0  0
  -25.2332  -12.1564   25.2430 O   0  0  0  0  0  0  0  0  0  0  0  0
  -24.6978  -27.4463   22.2059 O   0  0  0  0  0  0  0  0  0  0  0  0
  -22.9453  -30.2044   19.6735 O   0  0  0  0  0  0  0  0  0  0  0  0
  -23.7187  -27.3123   15.9914 O   0  0  0  0  0  0  0  0  0  0  0  0
  -31.7964  -14.5978   19.9449 O   0  0  0  0  0  0  0  0  0  0  0  0
  -20.3482   -8.6768   20.2816 O   0  0  0  0  0  0  0  0  0  0  0  0
  -28.8942  -24.1785   19.1245 O   0  0  0  0  0  0  0  0  0  1  0  0
  -15.6683  -11.0194   22.0179 F   0  0  0  0  0  0  0  0  0  0  0  0
  -18.4468   -9.5545   18.4769 F   0  0  0  0  0  0  0  0  0  0  0  0
  1  2  1  0  0  0  0
  1  6  2  0  0  0  0
  2  7  2  0  0  0  0
  3  8  1  0  0  0  0
  3 10  2  0  0  0  0
  4 11  2  0  0  0  0
  4 19  1  0  0  0  0
  5 12  1  0  0  0  0
  5 19  2  0  0  0  0
  6 22  1  0  0  0  0
  7 24  1  0  0  0  0
  8 21  2  0  0  0  0
  9 13  2  0  0  0  0
  9 23  1  0  0  0  0
 10 26  1  0  0  0  0
 11 27  1  0  0  0  0
 12 27  2  0  0  0  0
 13 28  1  0  0  0  0
 14 15  2  0  0  0  0
 14 29  1  0  0  0  0
 15 30  1  0  0  0  0
 16 21  1  0  0  0  0
 16 26  2  0  0  0  0
 17 25  1  0  0  0  0
 17 28  2  0  0  0  0
 18 30  2  0  0  0  0
 18 31  1  0  0  0  0
 19 32  1  0  0  0  0
 20 32  1  0  0  0  0
 20 33  2  0  0  0  0
 20 34  1  0  0  0  0
 21 52  1  0  0  0  0
 22 24  2  0  0  0  0
 22 39  1  0  0  0  0
 23 25  2  0  0  0  0
 23 40  1  0  0  0  0
 24 53  1  0  0  0  0
 25 41  1  0  0  0  0
 26 61  1  0  0  0  0
 27 80  1  0  0  0  0
 28 81  1  0  0  0  0
 29 31  2  0  0  0  0
 29 80  1  0  0  0  0
 30 82  1  0  0  0  0
 31 83  1  0  0  0  0
 32 65  2  0  0  0  0
 33 66  1  0  0  0  0
 33 70  1  0  0  0  0
 34 71  1  0  0  0  0
 34 75  2  0  0  0  0
 35 54  1  0  0  0  0
 35 72  1  0  0  0  0
 35 76  2  0  0  0  0
 36 62  1  0  0  0  0
 36 67  1  0  0  0  0
 36 77  2  0  0  0  0
 37 63  1  0  0  0  0
 37 73  1  0  0  0  0
 37 78  2  0  0  0  0
 38 68  1  0  0  0  0
 38 69  1  0  0  0  0
 38 79  2  0  0  0  0
 39 42  1  0  0  0  0
 40 54  1  0  0  0  0
 41 67  1  0  0  0  0
 42 44  1  0  0  0  0
 43 45  1  0  0  0  0
 43 48  1  0  0  0  0
 44 53  1  0  0  0  0
 45 55  1  0  0  0  0
 46 49  1  0  0  0  0
 46 52  1  0  0  0  0
 47 50  1  0  0  0  0
 47 52  1  0  0  0  0
 48 68  1  0  0  0  0
 49 69  1  0  0  0  0
 50 69  1  0  0  0  0
 51 55  1  0  0  0  0
 51 68  1  0  0  0  0
 53 72  1  0  0  0  0
 54 67  1  0  0  0  0
 55 66  1  0  0  0  0
 56 63  1  0  0  0  0
 57 64  1  0  0  0  0
 58 64  1  0  0  0  0
 59 64  1  0  0  0  0
 60 74  1  0  0  0  0
 61 81  1  0  0  0  0
 62 64  1  0  0  0  0
 62 73  1  0  0  0  0
 63 74  1  0  0  0  0
 65 66  1  0  0  0  0
M  CHG  1  74   1
M  ISO  4  38 100  61 101  69 100  81 101
M  END
> <Batch ID>
0012

> <Smiles>
CNC(C)C(=O)NC(C(=O)N1Cc2cc([101O:1][101CH2:1]c3cccc(C4CC[100N:0]([100C:0](=O)N5CCCC(n6nc(-c7ccc(Oc8ccc(F)cc8F)cc7)c(C(N)=O)c6N)C5)CC4)c3)ccc2CC1C(=O)NC1CCCc2ccccc21)C(C)(C)C

> <Shape>
0.254

> <Color>
0.091

> <Negative vol penalty>
0.000

$$$$

  -OEChem-04042320463D

 84 93  0     1  0  0  0  0  0999 V2000
  -17.6002  -13.7691   21.5537 C   0  0  0  0  0  0  0  0  0  0  0  0
  -18.3941  -14.8465   21.1736 C   0  0  0  0  0  0  0  0  0  0  0  0
  -22.9498  -28.7095   22.3089 C   0  0  0  0  0  0  0  0  0  0  0  0
  -23.0872  -30.3529   20.5432 C   0  0  0  0  0  0  0  0  0  0  0  0
  -18.1467  -12.7359   22.3137 C   0  0  0  0  0  0  0  0  0  0  0  0
  -19.7348  -14.8918   21.5543 C   0  0  0  0  0  0  0  0  0  0  0  0
  -24.4013  -17.2017   18.3305 C   0  0  0  0  0  0  0  0  0  0  0  0
  -27.7549  -23.5054   22.1337 C   0  0  0  0  0  0  0  0  0  0  0  0
  -28.4522  -24.3208   23.0250 C   0  0  0  0  0  0  0  0  0  0  0  0
  -21.8120  -29.3424   22.8094 C   0  0  0  0  0  0  0  0  0  0  0  0
  -21.9494  -30.9858   21.0437 C   0  0  0  0  0  0  0  0  0  0  0  0
  -25.0599  -18.4295   18.3816 C   0  0  0  0  0  0  0  0  0  0  0  0
  -18.5149  -29.4864   22.0737 C   0  0  0  0  0  0  0  0  0  0  0  0
  -17.4329  -28.6839   22.4354 C   0  0  0  0  0  0  0  0  0  0  0  0
  -26.7556  -17.4543   19.7933 C   0  0  0  0  0  0  0  0  0  0  0  0
  -29.1989  -24.2327   20.3385 C   0  0  0  0  0  0  0  0  0  0  0  0
  -17.5766  -29.5111   24.7008 C   0  0  0  0  0  0  0  0  0  0  0  0
  -23.5875  -29.2148   21.1758 C   0  0  0  0  0  0  0  0  0  0  0  0
  -24.8113  -27.5302   19.7020 C   0  0  0  0  0  0  0  0  0  0  0  0
  -19.4973  -12.7638   22.6957 C   0  0  0  0  0  0  0  0  0  0  0  0
  -24.9100  -16.0919   19.0204 C   0  0  0  0  0  0  0  0  0  0  0  0
  -20.2995  -13.8586   22.3213 C   0  0  0  0  0  0  0  0  0  0  0  0
  -26.1030  -16.2129   19.7472 C   0  0  0  0  0  0  0  0  0  0  0  0
  -28.1283  -23.4613   20.7904 C   0  0  0  0  0  0  0  0  0  0  0  0
  -29.5229  -25.0922   22.5730 C   0  0  0  0  0  0  0  0  0  0  0  0
  -21.3118  -30.4805   22.1768 C   0  0  0  0  0  0  0  0  0  0  0  0
  -26.2356  -18.5567   19.1155 C   0  0  0  0  0  0  0  0  0  0  0  0
  -19.1278  -30.3013   23.0256 C   0  0  0  0  0  0  0  0  0  0  0  0
  -16.9638  -28.6962   23.7490 C   0  0  0  0  0  0  0  0  0  0  0  0
  -29.8963  -25.0482   21.2298 C   0  0  0  0  0  0  0  0  0  0  0  0
  -18.6587  -30.3137   24.3391 C   0  0  0  0  0  0  0  0  0  0  0  0
  -24.7632  -28.5618   20.6587 C   0  0  0  0  0  0  0  0  0  0  0  0
  -26.1500  -27.2610   19.5544 C   0  0  0  0  0  0  0  0  0  0  0  0
  -23.7415  -26.8741   19.0086 C   0  0  0  0  0  0  0  0  0  0  0  0
  -23.8507  -14.2343   21.3722 C   0  0  0  0  0  0  0  0  0  0  0  0
  -26.5385  -12.5395   20.7194 C   0  0  0  0  0  0  0  0  0  0  0  0
  -29.6977  -12.5015   19.4291 C   0  0  0  0  0  0  0  0  0  0  0  0
  -30.8682  -27.1375   23.1189 C   0  0  0  0  0  0  0  0  0  0  0  0
  -20.0312  -11.6469   23.5573 C   0  0  0  0  0  0  0  0  0  0  0  0
  -24.2020  -14.7676   18.9334 C   0  0  0  0  0  0  0  0  0  0  0  0
  -26.7014  -15.0467   20.4890 C   0  0  0  0  0  0  0  0  0  0  0  0
  -21.5559  -11.5879   23.6021 C   0  0  0  0  0  0  0  0  0  0  0  0
  -30.3475  -29.6826   20.4837 C   0  0  0  0  0  0  0  0  0  0  0  0
  -22.1373  -12.9786   23.8359 C   0  0  0  0  0  0  0  0  0  0  0  0
  -28.8418  -29.6118   20.2363 C   0  0  0  0  0  0  0  0  0  0  0  0
  -26.5607  -21.7874   17.9024 C   0  0  0  0  0  0  0  0  0  0  0  0
  -30.7054  -29.2923   21.9145 C   0  0  0  0  0  0  0  0  0  0  0  0
  -27.7543  -22.5414   18.4885 C   0  0  0  0  0  0  0  0  0  0  0  0
  -28.6763  -27.8777   22.0659 C   0  0  0  0  0  0  0  0  0  0  0  0
  -26.3090  -21.8058   20.2887 C   0  0  0  0  0  0  0  0  0  0  0  0
  -21.7645  -13.9316   22.6939 C   0  0  1  0  0  0  0  0  0  0  0  0
  -24.5335  -13.8354   20.0946 C   0  0  1  0  0  0  0  0  0  0  0  0
  -28.2937  -28.2274   20.6199 C   0  0  1  0  0  0  0  0  0  0  0  0
  -26.0795  -20.9257   19.0607 C   0  0  2  0  0  0  0  0  0  1  0  0
  -31.6614  -10.9805   19.0716 C   0  0  0  0  0  0  0  0  0  0  0  0
  -27.2496  -12.7661   23.6779 C   0  0  0  0  0  0  0  0  0  0  0  0
  -29.5906  -12.0968   23.0950 C   0  0  0  0  0  0  0  0  0  0  0  0
  -27.7020  -10.5248   22.6649 C   0  0  0  0  0  0  0  0  0  0  0  0
  -30.5525  -25.3926   24.8181 C   0  0  0  0  0  0  0  0  0  0  0  0
  -29.5611  -12.8251   16.4905 C   0  0  0  0  0  0  0  0  0  0  0  0
  -27.9674  -12.5721   21.2055 C   0  0  1  0  0  0  0  0  0  0  0  0
  -30.3830  -11.5441   18.4709 C   0  0  2  0  0  0  0  0  0  0  0  0
  -28.1153  -12.0126   22.6485 C   0  0  0  0  0  0  0  0  0  0  0  0
  -25.9750  -28.9232   21.0887 N   0  0  0  0  0  0  0  0  0  0  0  0
  -26.7971  -28.1141   20.3990 N   0  0  0  0  0  0  0  0  0  0  0  0
  -27.4392  -22.6545   19.9094 N   0  0  3  0  0  0  0  0  0  0  0  0
  -25.9688  -13.7745   20.3785 N   0  0  0  0  0  0  0  0  0  0  0  0
  -30.1267  -28.0000   22.2856 N   0  0  0  0  0  0  0  0  0  0  0  0
  -26.8249  -26.3799   18.7859 N   0  0  0  0  0  0  0  0  0  0  0  0
  -22.4256  -27.2737   19.2791 N   0  0  0  0  0  0  0  0  0  0  0  0
  -22.5949  -13.6814   21.5353 N   0  0  0  0  0  0  0  0  0  0  0  0
  -28.7552  -11.8603   20.2049 N   0  0  0  0  0  0  0  0  0  0  0  0
  -30.2417  -25.9348   23.4973 N   0  0  0  0  0  0  0  0  0  0  0  0
  -30.7286  -12.2418   17.2002 N   0  3  0  0  0  0  0  0  0  0  0  0
  -23.9454  -25.9493   18.1860 O   0  0  0  0  0  0  0  0  0  0  0  0
  -24.4216  -14.9867   22.1530 O   0  0  0  0  0  0  0  0  0  0  0  0
  -25.9519  -11.4575   20.6381 O   0  0  0  0  0  0  0  0  0  0  0  0
  -29.9737  -13.6978   19.4865 O   0  0  0  0  0  0  0  0  0  0  0  0
  -31.9898  -27.4419   23.5432 O   0  0  0  0  0  0  0  0  0  0  0  0
  -20.2014  -31.0981   22.6647 O   0  0  0  0  0  0  0  0  0  0  0  0
  -26.8801  -19.7541   19.1676 O   0  0  0  0  0  0  0  0  0  1  0  0
  -15.9238  -27.9266   24.0958 F   0  0  0  0  0  0  0  0  0  0  0  0
  -30.9234  -25.7858   20.7845 F   0  0  0  0  0  0  0  0  0  0  0  0
  -19.2427  -31.0953   25.2577 F   0  0  0  0  0  0  0  0  0  0  0  0
  1  2  1  0  0  0  0
  1  5  2  0  0  0  0
  2  6  2  0  0  0  0
  3 10  2  0  0  0  0
  3 18  1  0  0  0  0
  4 11  1  0  0  0  0
  4 18  2  0  0  0  0
  5 20  1  0  0  0  0
  6 22  1  0  0  0  0
  7 12  2  0  0  0  0
  7 21  1  0  0  0  0
  8  9  2  0  0  0  0
  8 24  1  0  0  0  0
  9 25  1  0  0  0  0
 10 26  1  0  0  0  0
 11 26  2  0  0  0  0
 12 27  1  0  0  0  0
 13 14  2  0  0  0  0
 13 28  1  0  0  0  0
 14 29  1  0  0  0  0
 15 23  1  0  0  0  0
 15 27  2  0  0  0  0
 16 24  2  0  0  0  0
 16 30  1  0  0  0  0
 17 29  2  0  0  0  0
 17 31  1  0  0  0  0
 18 32  1  0  0  0  0
 19 32  1  0  0  0  0
 19 33  2  0  0  0  0
 19 34  1  0  0  0  0
 20 22  2  0  0  0  0
 20 39  1  0  0  0  0
 21 23  2  0  0  0  0
 21 40  1  0  0  0  0
 22 51  1  0  0  0  0
 23 41  1  0  0  0  0
 24 66  1  0  0  0  0
 25 30  2  0  0  0  0
 25 73  1  0  0  0  0
 26 80  1  0  0  0  0
 27 81  1  0  0  0  0
 28 31  2  0  0  0  0
 28 80  1  0  0  0  0
 29 82  1  0  0  0  0
 30 83  1  0  0  0  0
 31 84  1  0  0  0  0
 32 64  2  0  0  0  0
 33 65  1  0  0  0  0
 33 69  1  0  0  0  0
 34 70  1  0  0  0  0
 34 75  2  0  0  0  0
 35 52  1  0  0  0  0
 35 71  1  0  0  0  0
 35 76  2  0  0  0  0
 36 61  1  0  0  0  0
 36 67  1  0  0  0  0
 36 77  2  0  0  0  0
 37 62  1  0  0  0  0
 37 72  1  0  0  0  0
 37 78  2  0  0  0  0
 38 68  1  0  0  0  0
 38 73  1  0  0  0  0
 38 79  2  0  0  0  0
 39 42  1  0  0  0  0
 40 52  1  0  0  0  0
 41 67  1  0  0  0  0
 42 44  1  0  0  0  0
 43 45  1  0  0  0  0
 43 47  1  0  0  0  0
 44 51  1  0  0  0  0
 45 53  1  0  0  0  0
 46 48  1  0  0  0  0
 46 54  1  0  0  0  0
 47 68  1  0  0  0  0
 48 66  1  0  0  0  0
 49 53  1  0  0  0  0
 49 68  1  0  0  0  0
 50 54  1  0  0  0  0
 50 66  1  0  0  0  0
 51 71  1  0  0  0  0
 52 67  1  0  0  0  0
 53 65  1  0  0  0  0
 54 81  1  0  0  0  0
 55 62  1  0  0  0  0
 56 63  1  0  0  0  0
 57 63  1  0  0  0  0
 58 63  1  0  0  0  0
 59 73  1  0  0  0  0
 60 74  1  0  0  0  0
 61 63  1  0  0  0  0
 61 72  1  0  0  0  0
 62 74  1  0  0  0  0
 64 65  1  0  0  0  0
M  CHG  1  74   1
M  ISO  4  38 100  54 101  73 100  81 101
M  END
> <Batch ID>
0012

> <Smiles>
CNC(C)C(=O)NC(C(=O)N1Cc2cc([101O:1][101CH:1]3CCN(c4ccc([100N:0](C)[100C:0](=O)N5CCCC(n6nc(-c7ccc(Oc8ccc(F)cc8F)cc7)c(C(N)=O)c6N)C5)c(F)c4)C3)ccc2CC1C(=O)NC1CCCc2ccccc21)C(C)(C)C

> <Shape>
0.241

> <Color>
0.060

> <Negative vol penalty>
0.000

$$$$

  -OEChem-04042320463D

 85 94  0     1  0  0  0  0  0999 V2000
  -29.0468  -32.8485   15.5448 C   0  0  0  0  0  0  0  0  0  0  0  0
  -28.8243  -31.4772   15.4713 C   0  0  0  0  0  0  0  0  0  0  0  0
  -27.7351  -16.2644   15.3367 C   0  0  0  0  0  0  0  0  0  0  0  0
  -23.0872  -10.2683   22.0862 C   0  0  0  0  0  0  0  0  0  0  0  0
  -23.8514   -9.4489   19.9457 C   0  0  0  0  0  0  0  0  0  0  0  0
  -28.6426  -15.3881   15.9317 C   0  0  0  0  0  0  0  0  0  0  0  0
  -28.8851  -33.5157   16.7583 C   0  0  0  0  0  0  0  0  0  0  0  0
  -28.4410  -30.7721   16.6116 C   0  0  0  0  0  0  0  0  0  0  0  0
  -24.6588  -25.9622   16.8679 C   0  0  0  0  0  0  0  0  0  0  0  0
  -27.2748  -17.3765   16.0417 C   0  0  0  0  0  0  0  0  0  0  0  0
  -22.3460   -9.1008   22.2685 C   0  0  0  0  0  0  0  0  0  0  0  0
  -23.1102   -8.2814   20.1280 C   0  0  0  0  0  0  0  0  0  0  0  0
  -24.8908  -24.5891   16.9369 C   0  0  0  0  0  0  0  0  0  0  0  0
  -22.9262   -5.9011   23.1948 C   0  0  0  0  0  0  0  0  0  0  0  0
  -22.9935   -5.2785   24.4411 C   0  0  0  0  0  0  0  0  0  0  0  0
  -28.6297  -16.7358   17.9366 C   0  0  0  0  0  0  0  0  0  0  0  0
  -24.6505  -24.6753   19.3357 C   0  0  0  0  0  0  0  0  0  0  0  0
  -20.6082   -5.5550   24.7080 C   0  0  0  0  0  0  0  0  0  0  0  0
  -23.8399  -10.4424   20.9247 C   0  0  0  0  0  0  0  0  0  0  0  0
  -29.0899  -15.6238   17.2317 C   0  0  0  0  0  0  0  0  0  0  0  0
  -24.1156  -12.9674   20.6885 C   0  0  0  0  0  0  0  0  0  0  0  0
  -28.4902  -32.8201   17.9119 C   0  0  0  0  0  0  0  0  0  0  0  0
  -24.4314  -26.7052   18.0352 C   0  0  0  0  0  0  0  0  0  0  0  0
  -28.2752  -31.4304   17.8420 C   0  0  0  0  0  0  0  0  0  0  0  0
  -24.4133  -26.0572   19.2785 C   0  0  0  0  0  0  0  0  0  0  0  0
  -27.7221  -17.6122   17.3417 C   0  0  0  0  0  0  0  0  0  0  0  0
  -22.3575   -8.1074   21.2894 C   0  0  0  0  0  0  0  0  0  0  0  0
  -24.8895  -23.9460   18.1712 C   0  0  0  0  0  0  0  0  0  0  0  0
  -21.6999   -6.3507   22.7050 C   0  0  0  0  0  0  0  0  0  0  0  0
  -21.8346   -5.1054   25.1978 C   0  0  0  0  0  0  0  0  0  0  0  0
  -20.5410   -6.1776   23.4617 C   0  0  0  0  0  0  0  0  0  0  0  0
  -24.6052  -11.6484   20.7356 C   0  0  0  0  0  0  0  0  0  0  0  0
  -25.2329  -13.7416   20.4918 C   0  0  0  0  0  0  0  0  0  0  0  0
  -26.6838  -20.8830   17.8600 C   0  0  0  0  0  0  0  0  0  0  0  0
  -30.0447  -14.7003   17.8579 C   0  0  0  0  0  0  0  0  0  0  0  0
  -22.7710  -13.4497   20.8116 C   0  0  0  0  0  0  0  0  0  0  0  0
  -25.9166  -29.1108   19.4880 C   0  0  0  0  0  0  0  0  0  0  0  0
  -23.3246  -29.0214   21.4363 C   0  0  0  0  0  0  0  0  0  0  0  0
  -20.7342  -27.2157   22.7310 C   0  0  0  0  0  0  0  0  0  0  0  0
  -28.3742  -33.5764   19.2116 C   0  0  0  0  0  0  0  0  0  0  0  0
  -24.1562  -28.1810   17.9413 C   0  0  0  0  0  0  0  0  0  0  0  0
  -24.1540  -26.8060   20.5593 C   0  0  0  0  0  0  0  0  0  0  0  0
  -27.6022  -32.8199   20.2896 C   0  0  0  0  0  0  0  0  0  0  0  0
  -27.9202  -19.5045   21.6221 C   0  0  0  0  0  0  0  0  0  0  0  0
  -26.4169  -19.7749   21.5151 C   0  0  0  0  0  0  0  0  0  0  0  0
  -30.1479  -12.5727   20.7223 C   0  0  0  0  0  0  0  0  0  0  0  0
  -28.0798  -31.3736   20.3727 C   0  0  0  0  0  0  0  0  0  0  0  0
  -28.6768  -12.2330   20.9681 C   0  0  0  0  0  0  0  0  0  0  0  0
  -28.3978  -19.2104   20.2025 C   0  0  0  0  0  0  0  0  0  0  0  0
  -26.0663  -19.6283   20.0367 C   0  0  0  0  0  0  0  0  0  0  0  0
  -30.4583  -12.6876   19.2320 C   0  0  0  0  0  0  0  0  0  0  0  0
  -28.1132  -13.2900   18.7398 C   0  0  0  0  0  0  0  0  0  0  0  0
  -27.8342  -30.6349   19.0515 C   0  0  1  0  0  0  0  0  0  0  0  0
  -24.4461  -28.9266   19.2402 C   0  0  1  0  0  0  0  0  0  0  0  0
  -27.7468  -13.2151   20.2311 C   0  0  1  0  0  0  0  0  0  0  0  0
  -27.1463  -18.6958   19.5015 C   0  0  0  0  0  0  0  0  0  0  0  0
  -18.8069  -27.4020   24.3273 C   0  0  0  0  0  0  0  0  0  0  0  0
  -25.2561  -28.8122   23.7890 C   0  0  0  0  0  0  0  0  0  0  0  0
  -23.3366  -28.0567   25.2077 C   0  0  0  0  0  0  0  0  0  0  0  0
  -23.3035  -30.3266   24.1739 C   0  0  0  0  0  0  0  0  0  0  0  0
  -18.7615  -26.6606   20.5958 C   0  0  0  0  0  0  0  0  0  0  0  0
  -25.9552  -22.0357   17.2378 C   0  0  0  0  0  0  0  0  0  1  0  0
  -22.9689  -28.2928   22.7097 C   0  0  1  0  0  0  0  0  0  0  0  0
  -19.2583  -27.5371   22.8814 C   0  0  2  0  0  0  0  0  0  0  0  0
  -23.7231  -28.8580   23.9463 C   0  0  0  0  0  0  0  0  0  0  0  0
  -25.9304  -11.5845   20.5811 N   0  0  0  0  0  0  0  0  0  0  0  0
  -26.5527  -19.6895   17.3806 N   0  0  0  0  0  0  0  0  0  0  0  0
  -26.2829  -12.8731   20.4349 N   0  0  0  0  0  0  0  0  0  0  0  0
  -29.5370  -13.6188   18.5819 N   0  0  0  0  0  0  0  0  0  0  0  0
  -23.8966  -28.2484   20.4160 N   0  0  0  0  0  0  0  0  0  0  0  0
  -25.4097  -15.0738   20.3636 N   0  0  0  0  0  0  0  0  0  0  0  0
  -21.7427  -12.5183   21.0103 N   0  0  0  0  0  0  0  0  0  0  0  0
  -26.4410  -30.2621   18.9322 N   0  0  0  0  0  0  0  0  0  0  0  0
  -21.5152  -28.3486   22.8196 N   0  0  0  0  0  0  0  0  0  0  0  0
  -27.2563  -18.7360   18.0544 N   0  0  0  0  0  0  0  0  0  0  0  0
  -18.4394  -26.6143   22.0453 N   0  3  0  0  0  0  0  0  0  0  0  0
  -31.2364  -14.9630   17.7031 O   0  0  0  0  0  0  0  0  0  0  0  0
  -22.4877  -14.6690   20.7309 O   0  0  0  0  0  0  0  0  0  0  0  0
  -26.5298  -28.2713   20.1368 O   0  0  0  0  0  0  0  0  0  0  0  0
  -23.0964  -30.2304   21.3474 O   0  0  0  0  0  0  0  0  0  0  0  0
  -21.1528  -26.0734   22.5565 O   0  0  0  0  0  0  0  0  0  0  0  0
  -21.6346   -6.9679   21.4671 O   0  0  0  0  0  0  0  0  0  0  0  0
  -25.1163  -22.6060   18.2415 O   0  0  0  0  0  0  0  0  0  1  0  0
  -21.8991   -4.5061   26.3939 F   0  0  0  0  0  0  0  0  0  0  0  0
  -19.3598   -6.6064   22.9959 F   0  0  0  0  0  0  0  0  0  0  0  0
  1  2  1  0  0  0  0
  1  7  2  0  0  0  0
  2  8  2  0  0  0  0
  3  6  1  0  0  0  0
  3 10  2  0  0  0  0
  4 11  2  0  0  0  0
  4 19  1  0  0  0  0
  5 12  1  0  0  0  0
  5 19  2  0  0  0  0
  6 20  2  0  0  0  0
  7 22  1  0  0  0  0
  8 24  1  0  0  0  0
  9 13  2  0  0  0  0
  9 23  1  0  0  0  0
 10 26  1  0  0  0  0
 11 27  1  0  0  0  0
 12 27  2  0  0  0  0
 13 28  1  0  0  0  0
 14 15  2  0  0  0  0
 14 29  1  0  0  0  0
 15 30  1  0  0  0  0
 16 20  1  0  0  0  0
 16 26  2  0  0  0  0
 17 25  1  0  0  0  0
 17 28  2  0  0  0  0
 18 30  2  0  0  0  0
 18 31  1  0  0  0  0
 19 32  1  0  0  0  0
 20 35  1  0  0  0  0
 21 32  1  0  0  0  0
 21 33  2  0  0  0  0
 21 36  1  0  0  0  0
 22 24  2  0  0  0  0
 22 40  1  0  0  0  0
 23 25  2  0  0  0  0
 23 41  1  0  0  0  0
 24 53  1  0  0  0  0
 25 42  1  0  0  0  0
 26 75  1  0  0  0  0
 27 82  1  0  0  0  0
 28 83  1  0  0  0  0
 29 31  2  0  0  0  0
 29 82  1  0  0  0  0
 30 84  1  0  0  0  0
 31 85  1  0  0  0  0
 32 66  2  0  0  0  0
 33 68  1  0  0  0  0
 33 71  1  0  0  0  0
 34 62  1  0  0  0  0
 34 67  2  0  0  0  0
 35 69  1  0  0  0  0
 35 77  2  0  0  0  0
 36 72  1  0  0  0  0
 36 78  2  0  0  0  0
 37 54  1  0  0  0  0
 37 73  1  0  0  0  0
 37 79  2  0  0  0  0
 38 63  1  0  0  0  0
 38 70  1  0  0  0  0
 38 80  2  0  0  0  0
 39 64  1  0  0  0  0
 39 74  1  0  0  0  0
 39 81  2  0  0  0  0
 40 43  1  0  0  0  0
 41 54  1  0  0  0  0
 42 70  1  0  0  0  0
 43 47  1  0  0  0  0
 44 45  1  0  0  0  0
 44 49  1  0  0  0  0
 45 50  1  0  0  0  0
 46 48  1  0  0  0  0
 46 51  1  0  0  0  0
 47 53  1  0  0  0  0
 48 55  1  0  0  0  0
 49 56  1  0  0  0  0
 50 56  1  0  0  0  0
 51 69  1  0  0  0  0
 52 55  1  0  0  0  0
 52 69  1  0  0  0  0
 53 73  1  0  0  0  0
 54 70  1  0  0  0  0
 55 68  1  0  0  0  0
 56 75  1  0  0  0  0
 57 64  1  0  0  0  0
 58 65  1  0  0  0  0
 59 65  1  0  0  0  0
 60 65  1  0  0  0  0
 61 76  1  0  0  0  0
 62 83  1  0  0  0  0
 63 65  1  0  0  0  0
 63 74  1  0  0  0  0
 64 76  1  0  0  0  0
 66 68  1  0  0  0  0
 67 75  1  0  0  0  0
M  CHG  1  76   1
M  ISO  4  20 100  35 100  62 101  83 101
M  END
> <Batch ID>
0012

> <Smiles>
CNC(C)C(=O)NC(C(=O)N1Cc2cc([101O:1][101CH2:1]C=NN(c3ccc[100c:0]([100C:0](=O)N4CCCC(n5nc(-c6ccc(Oc7ccc(F)cc7F)cc6)c(C(N)=O)c5N)C4)c3)C3CCCC3)ccc2CC1C(=O)NC1CCCc2ccccc21)C(C)(C)C

> <Shape>
0.267

> <Color>
0.199

> <Negative vol penalty>
0.000

$$$$

  -OEChem-04042320463D

 84 92  0     1  0  0  0  0  0999 V2000
  -21.1272  -20.5637   25.1399 C   0  0  0  0  0  0  0  0  0  0  0  0
  -22.4346  -20.6386   24.6702 C   0  0  0  0  0  0  0  0  0  0  0  0
  -24.4870   -9.3083   20.0187 C   0  0  0  0  0  0  0  0  0  0  0  0
  -24.4576   -9.7765   22.3887 C   0  0  0  0  0  0  0  0  0  0  0  0
  -20.1861  -21.5082   24.7321 C   0  0  0  0  0  0  0  0  0  0  0  0
  -22.8014  -21.6574   23.7916 C   0  0  0  0  0  0  0  0  0  0  0  0
  -28.2135  -24.5102   23.5160 C   0  0  0  0  0  0  0  0  0  0  0  0
  -29.1758  -19.1773   19.5501 C   0  0  0  0  0  0  0  0  0  0  0  0
  -24.2165   -7.9653   20.2806 C   0  0  0  0  0  0  0  0  0  0  0  0
  -24.1870   -8.4335   22.6507 C   0  0  0  0  0  0  0  0  0  0  0  0
  -29.3233  -24.3385   22.6899 C   0  0  0  0  0  0  0  0  0  0  0  0
  -29.7595  -20.2664   18.9031 C   0  0  0  0  0  0  0  0  0  0  0  0
  -23.1313   -5.1966   23.9259 C   0  0  0  0  0  0  0  0  0  0  0  0
  -22.1393   -4.9047   24.8620 C   0  0  0  0  0  0  0  0  0  0  0  0
  -28.5232  -26.1069   21.2575 C   0  0  0  0  0  0  0  0  0  0  0  0
  -27.4312  -20.6168   20.3993 C   0  0  0  0  0  0  0  0  0  0  0  0
  -20.5174   -6.0777   23.5089 C   0  0  0  0  0  0  0  0  0  0  0  0
  -24.6076  -10.2140   21.0727 C   0  0  0  0  0  0  0  0  0  0  0  0
  -23.9522  -12.6312   20.5880 C   0  0  0  0  0  0  0  0  0  0  0  0
  -20.5439  -22.5447   23.8557 C   0  0  0  0  0  0  0  0  0  0  0  0
  -27.2429  -25.4758   23.2126 C   0  0  0  0  0  0  0  0  0  0  0  0
  -21.8638  -22.6158   23.3707 C   0  0  0  0  0  0  0  0  0  0  0  0
  -27.4033  -26.2906   22.0828 C   0  0  0  0  0  0  0  0  0  0  0  0
  -28.0116  -19.3525   20.2982 C   0  0  0  0  0  0  0  0  0  0  0  0
  -24.0665   -7.5278   21.5966 C   0  0  0  0  0  0  0  0  0  0  0  0
  -29.4769  -25.1349   21.5589 C   0  0  0  0  0  0  0  0  0  0  0  0
  -22.8164   -5.9291   22.7813 C   0  0  0  0  0  0  0  0  0  0  0  0
  -29.1791  -21.5307   19.0042 C   0  0  0  0  0  0  0  0  0  0  0  0
  -20.8323   -5.3452   24.6535 C   0  0  0  0  0  0  0  0  0  0  0  0
  -28.0149  -21.7060   19.7523 C   0  0  0  0  0  0  0  0  0  0  0  0
  -21.5095   -6.3696   22.5729 C   0  0  0  0  0  0  0  0  0  0  0  0
  -24.8876  -11.6014   20.8028 C   0  0  0  0  0  0  0  0  0  0  0  0
  -24.7177  -13.7519   20.3770 C   0  0  0  0  0  0  0  0  0  0  0  0
  -22.5194  -12.5795   20.5800 C   0  0  0  0  0  0  0  0  0  0  0  0
  -24.1413  -25.3987   22.5214 C   0  0  0  0  0  0  0  0  0  0  0  0
  -24.4294  -28.6270   22.6539 C   0  0  0  0  0  0  0  0  0  0  0  0
  -26.4489  -31.3677   22.4153 C   0  0  0  0  0  0  0  0  0  0  0  0
  -29.1301  -16.8250   22.2221 C   0  0  0  0  0  0  0  0  0  0  0  0
  -19.4802  -23.5147   23.4059 C   0  0  0  0  0  0  0  0  0  0  0  0
  -26.0652  -25.6667   24.1285 C   0  0  0  0  0  0  0  0  0  0  0  0
  -26.4002  -27.3553   21.7241 C   0  0  0  0  0  0  0  0  0  0  0  0
  -20.0424  -24.7821   22.7672 C   0  0  0  0  0  0  0  0  0  0  0  0
  -29.6793  -14.2728   19.5980 C   0  0  0  0  0  0  0  0  0  0  0  0
  -21.1305  -24.4332   21.7567 C   0  0  0  0  0  0  0  0  0  0  0  0
  -28.4320  -13.3986   19.7173 C   0  0  0  0  0  0  0  0  0  0  0  0
  -30.0394  -14.9315   20.9262 C   0  0  0  0  0  0  0  0  0  0  0  0
  -27.6782  -14.8344   21.6540 C   0  0  0  0  0  0  0  0  0  0  0  0
  -22.3062  -23.7206   22.4359 C   0  0  1  0  0  0  0  0  0  0  0  0
  -24.8760  -26.3316   23.4421 C   0  0  1  0  0  0  0  0  0  0  0  0
  -27.2613  -14.1929   20.3220 C   0  0  2  0  0  0  0  0  0  0  0  0
  -26.3909  -33.8737   22.5338 C   0  0  0  0  0  0  0  0  0  0  0  0
  -23.1824  -28.7273   19.8710 C   0  0  0  0  0  0  0  0  0  0  0  0
  -24.0114  -31.0802   19.6604 C   0  0  0  0  0  0  0  0  0  0  0  0
  -22.3683  -30.4936   21.4432 C   0  0  0  0  0  0  0  0  0  0  0  0
  -27.9635  -18.6890   23.3375 C   0  0  0  0  0  0  0  0  0  0  0  0
  -28.3104  -31.4178   24.7156 C   0  0  0  0  0  0  0  0  0  0  0  0
  -27.3895  -18.1879   20.9912 C   0  0  0  0  0  0  0  0  0  0  0  0
  -31.3293  -24.4144   18.5322 C   0  0  0  0  0  0  0  0  0  0  0  0
  -30.3872  -25.2687   19.3658 C   0  0  0  0  0  0  0  0  0  1  0  0
  -31.0855  -22.9281   18.7421 C   0  0  0  0  0  0  0  0  0  0  0  0
  -24.7631  -29.7123   21.6590 C   0  0  1  0  0  0  0  0  0  0  0  0
  -26.6064  -32.5839   23.3101 C   0  0  2  0  0  0  0  0  0  0  0  0
  -23.5994  -29.9821   20.6638 C   0  0  0  0  0  0  0  0  0  0  0  0
  -26.1509  -12.0297   20.7344 N   0  0  0  0  0  0  0  0  0  0  0  0
  -26.0147  -13.3411   20.4741 N   0  0  0  0  0  0  0  0  0  0  0  0
  -25.2625  -27.4992   22.6474 N   0  0  0  0  0  0  0  0  0  0  0  0
  -28.8967  -15.6432   21.4998 N   0  0  0  0  0  0  0  0  0  0  0  0
  -24.4013  -15.0388   20.1196 N   0  0  0  0  0  0  0  0  0  0  0  0
  -21.8940  -11.3474   20.8149 N   0  0  0  0  0  0  0  0  0  0  0  0
  -23.1384  -24.6746   23.1373 N   0  0  0  0  0  0  0  0  0  0  0  0
  -25.1608  -30.8765   22.4431 N   0  0  0  0  0  0  0  0  0  0  0  0
  -28.1223  -17.8009   22.1947 N   0  0  0  0  0  0  0  0  0  0  0  0
  -27.9725  -32.6159   23.9048 N   0  3  0  0  0  0  0  0  0  0  0  0
  -21.8148  -13.5925   20.3545 O   0  0  0  0  0  0  0  0  0  0  0  0
  -24.4598  -25.3413   21.3395 O   0  0  0  0  0  0  0  0  0  0  0  0
  -23.4695  -28.7775   23.4139 O   0  0  0  0  0  0  0  0  0  0  0  0
  -27.3750  -30.9024   21.7547 O   0  0  0  0  0  0  0  0  0  0  0  0
  -30.1833  -17.0018   22.8476 O   0  0  0  0  0  0  0  0  0  0  0  0
  -23.8022   -6.2174   21.8525 O   0  0  0  0  0  0  0  0  0  0  0  0
  -30.5589  -24.9689   20.7504 O   0  0  0  0  0  0  0  0  0  1  0  0
  -29.7541  -22.6002   18.3684 O   0  0  0  0  0  0  0  0  0  0  0  0
  -19.8795   -5.0635   25.5518 F   0  0  0  0  0  0  0  0  0  0  0  0
  -27.4529  -22.9183   19.8534 F   0  0  0  0  0  0  0  0  0  0  0  0
  -21.2006   -7.0727   21.4746 F   0  0  0  0  0  0  0  0  0  0  0  0
  1  2  1  0  0  0  0
  1  5  2  0  0  0  0
  2  6  2  0  0  0  0
  3  9  2  0  0  0  0
  3 18  1  0  0  0  0
  4 10  1  0  0  0  0
  4 18  2  0  0  0  0
  5 20  1  0  0  0  0
  6 22  1  0  0  0  0
  7 11  2  0  0  0  0
  7 21  1  0  0  0  0
  8 12  2  0  0  0  0
  8 24  1  0  0  0  0
  9 25  1  0  0  0  0
 10 25  2  0  0  0  0
 11 26  1  0  0  0  0
 12 28  1  0  0  0  0
 13 14  2  0  0  0  0
 13 27  1  0  0  0  0
 14 29  1  0  0  0  0
 15 23  1  0  0  0  0
 15 26  2  0  0  0  0
 16 24  2  0  0  0  0
 16 30  1  0  0  0  0
 17 29  2  0  0  0  0
 17 31  1  0  0  0  0
 18 32  1  0  0  0  0
 19 32  1  0  0  0  0
 19 33  2  0  0  0  0
 19 34  1  0  0  0  0
 20 22  2  0  0  0  0
 20 39  1  0  0  0  0
 21 23  2  0  0  0  0
 21 40  1  0  0  0  0
 22 48  1  0  0  0  0
 23 41  1  0  0  0  0
 24 57  1  0  0  0  0
 25 79  1  0  0  0  0
 26 80  1  0  0  0  0
 27 31  2  0  0  0  0
 27 79  1  0  0  0  0
 28 30  2  0  0  0  0
 28 81  1  0  0  0  0
 29 82  1  0  0  0  0
 30 83  1  0  0  0  0
 31 84  1  0  0  0  0
 32 64  2  0  0  0  0
 33 65  1  0  0  0  0
 33 68  1  0  0  0  0
 34 69  1  0  0  0  0
 34 74  2  0  0  0  0
 35 49  1  0  0  0  0
 35 70  1  0  0  0  0
 35 75  2  0  0  0  0
 36 61  1  0  0  0  0
 36 66  1  0  0  0  0
 36 76  2  0  0  0  0
 37 62  1  0  0  0  0
 37 71  1  0  0  0  0
 37 77  2  0  0  0  0
 38 67  1  0  0  0  0
 38 72  1  0  0  0  0
 38 78  2  0  0  0  0
 39 42  1  0  0  0  0
 40 49  1  0  0  0  0
 41 66  1  0  0  0  0
 42 44  1  0  0  0  0
 43 45  1  0  0  0  0
 43 46  1  0  0  0  0
 44 48  1  0  0  0  0
 45 50  1  0  0  0  0
 46 67  1  0  0  0  0
 47 50  1  0  0  0  0
 47 67  1  0  0  0  0
 48 70  1  0  0  0  0
 49 66  1  0  0  0  0
 50 65  1  0  0  0  0
 51 62  1  0  0  0  0
 52 63  1  0  0  0  0
 53 63  1  0  0  0  0
 54 63  1  0  0  0  0
 55 72  1  0  0  0  0
 56 73  1  0  0  0  0
 57 72  1  0  0  0  0
 58 59  1  0  0  0  0
 58 60  1  0  0  0  0
 59 80  1  0  0  0  0
 60 81  1  0  0  0  0
 61 63  1  0  0  0  0
 61 71  1  0  0  0  0
 62 73  1  0  0  0  0
 64 65  1  0  0  0  0
M  CHG  1  73   1
M  ISO  4  38 100  59 101  72 100  80 101
M  END
> <Batch ID>
0012

> <Smiles>
CNC(C)C(=O)NC(C(=O)N1Cc2cc([101O:1][101CH2:1]CCOc3ccc(C[100N:0](C)[100C:0](=O)N4CCCC(n5nc(-c6ccc(Oc7ccc(F)cc7F)cc6)c(C(N)=O)c5N)C4)cc3F)ccc2CC1C(=O)NC1CCCc2ccccc21)C(C)(C)C

> <Shape>
0.289

> <Color>
0.108

> <Negative vol penalty>
0.000

$$$$

  -OEChem-04042320462D

  0  0  0     0  0  0  0  0  0999 V2000
M  END
$$$$

  -OEChem-04042320463D

 84 92  0     1  0  0  0  0  0999 V2000
  -23.0208  -23.7889   18.4987 C   0  0  0  0  0  0  0  0  0  0  0  0
  -23.9774  -22.7888   18.3659 C   0  0  0  0  0  0  0  0  0  0  0  0
  -26.1996  -26.5234   22.6039 C   0  0  0  0  0  0  0  0  0  0  0  0
  -24.2600  -25.9173   21.2971 C   0  0  0  0  0  0  0  0  0  0  0  0
  -21.9615  -23.6213   19.3881 C   0  0  0  0  0  0  0  0  0  0  0  0
  -23.8685  -21.6158   19.1136 C   0  0  0  0  0  0  0  0  0  0  0  0
  -27.0612  -18.0133   18.0972 C   0  0  0  0  0  0  0  0  0  0  0  0
  -32.8883  -22.6546   20.7848 C   0  0  0  0  0  0  0  0  0  0  0  0
  -32.7126  -23.8280   20.0514 C   0  0  0  0  0  0  0  0  0  0  0  0
  -25.4863  -27.5782   23.1734 C   0  0  0  0  0  0  0  0  0  0  0  0
  -23.5467  -26.9721   21.8666 C   0  0  0  0  0  0  0  0  0  0  0  0
  -28.4105  -18.0830   18.4409 C   0  0  0  0  0  0  0  0  0  0  0  0
  -24.2860  -30.6506   24.7041 C   0  0  0  0  0  0  0  0  0  0  0  0
  -24.9221  -31.8882   24.8008 C   0  0  0  0  0  0  0  0  0  0  0  0
  -28.0133  -16.5753   20.2817 C   0  0  0  0  0  0  0  0  0  0  0  0
  -32.4279  -21.3483   18.8052 C   0  0  0  0  0  0  0  0  0  0  0  0
  -25.1779  -31.9444   22.3990 C   0  0  0  0  0  0  0  0  0  0  0  0
  -25.5864  -25.6930   21.6657 C   0  0  0  0  0  0  0  0  0  0  0  0
  -26.4137  -23.2824   21.5542 C   0  0  0  0  0  0  0  0  0  0  0  0
  -21.8472  -22.4506   20.1558 C   0  0  0  0  0  0  0  0  0  0  0  0
  -26.1741  -17.2315   18.8510 C   0  0  0  0  0  0  0  0  0  0  0  0
  -22.7936  -21.4176   19.9989 C   0  0  0  0  0  0  0  0  0  0  0  0
  -26.6536  -16.4954   19.9439 C   0  0  0  0  0  0  0  0  0  0  0  0
  -32.7461  -21.4148   20.1617 C   0  0  0  0  0  0  0  0  0  0  0  0
  -32.3944  -23.7616   18.6949 C   0  0  0  0  0  0  0  0  0  0  0  0
  -24.1599  -27.8025   22.8047 C   0  0  0  0  0  0  0  0  0  0  0  0
  -28.8862  -17.3662   19.5350 C   0  0  0  0  0  0  0  0  0  0  0  0
  -24.0959  -30.0599   23.4548 C   0  0  0  0  0  0  0  0  0  0  0  0
  -25.3681  -32.5351   23.6483 C   0  0  0  0  0  0  0  0  0  0  0  0
  -32.2521  -22.5217   18.0718 C   0  0  0  0  0  0  0  0  0  0  0  0
  -24.5418  -30.7068   22.3023 C   0  0  0  0  0  0  0  0  0  0  0  0
  -26.3229  -24.6036   21.0767 C   0  0  0  0  0  0  0  0  0  0  0  0
  -27.2235  -22.6442   20.6468 C   0  0  0  0  0  0  0  0  0  0  0  0
  -25.8192  -22.6854   22.7143 C   0  0  0  0  0  0  0  0  0  0  0  0
  -23.5820  -17.8273   20.5917 C   0  0  0  0  0  0  0  0  0  0  0  0
  -23.4446  -14.5922   20.7854 C   0  0  0  0  0  0  0  0  0  0  0  0
  -25.0943  -11.6083   20.6384 C   0  0  0  0  0  0  0  0  0  0  0  0
  -31.3481  -25.0758   16.8324 C   0  0  0  0  0  0  0  0  0  0  0  0
  -20.6763  -22.3181   21.0974 C   0  0  0  0  0  0  0  0  0  0  0  0
  -24.7266  -17.1459   18.4512 C   0  0  0  0  0  0  0  0  0  0  0  0
  -25.7463  -15.6252   20.7734 C   0  0  0  0  0  0  0  0  0  0  0  0
  -20.8874  -21.2460   22.1615 C   0  0  0  0  0  0  0  0  0  0  0  0
  -28.5671  -22.7598   16.0610 C   0  0  0  0  0  0  0  0  0  0  0  0
  -21.3545  -19.9526   21.5108 C   0  0  0  0  0  0  0  0  0  0  0  0
  -27.6436  -22.9251   17.2665 C   0  0  0  0  0  0  0  0  0  0  0  0
  -29.3678  -24.0283   15.7828 C   0  0  0  0  0  0  0  0  0  0  0  0
  -29.2242  -24.6760   18.1705 C   0  0  0  0  0  0  0  0  0  0  0  0
  -22.7125  -20.1461   20.8242 C   0  0  1  0  0  0  0  0  0  0  0  0
  -23.8138  -16.7239   19.5984 C   0  0  1  0  0  0  0  0  0  0  0  0
  -28.4362  -23.3984   18.4961 C   0  0  1  0  0  0  0  0  0  0  0  0
  -24.7222   -9.1379   20.8753 C   0  0  0  0  0  0  0  0  0  0  0  0
  -23.3215  -14.9041   23.8182 C   0  0  0  0  0  0  0  0  0  0  0  0
  -23.9062  -12.4782   24.0215 C   0  0  0  0  0  0  0  0  0  0  0  0
  -21.7920  -13.1587   22.8860 C   0  0  0  0  0  0  0  0  0  0  0  0
  -33.1525  -26.0720   18.1678 C   0  0  0  0  0  0  0  0  0  0  0  0
  -25.9470  -11.0951   17.8512 C   0  0  0  0  0  0  0  0  0  0  0  0
  -30.8865  -20.1761   22.3675 C   0  0  0  0  0  0  0  0  0  0  0  0
  -32.9340  -20.1525   20.9506 C   0  0  0  0  0  0  0  0  0  0  0  0
  -31.8165  -18.0120   21.5591 C   0  0  0  0  0  0  0  0  0  0  0  0
  -30.5277  -17.2747   21.2535 C   0  0  0  0  0  0  0  0  0  1  0  0
  -24.0039  -13.5529   21.7266 C   0  0  1  0  0  0  0  0  0  0  0  0
  -24.7728  -10.3142   19.9128 C   0  0  2  0  0  0  0  0  0  0  0  0
  -23.2729  -13.5413   23.0988 C   0  0  0  0  0  0  0  0  0  0  0  0
  -27.0195  -24.7948   19.9532 N   0  0  0  0  0  0  0  0  0  0  0  0
  -27.5559  -23.5854   19.7173 N   0  0  0  0  0  0  0  0  0  0  0  0
  -24.3381  -15.5794   20.3463 N   0  0  0  0  0  0  0  0  0  0  0  0
  -30.0689  -24.5006   16.9778 N   0  0  0  0  0  0  0  0  0  0  0  0
  -27.6767  -21.3755   20.5613 N   0  0  0  0  0  0  0  0  0  0  0  0
  -25.0150  -23.4840   23.5389 N   0  0  0  0  0  0  0  0  0  0  0  0
  -23.0206  -18.9662   20.0465 N   0  0  0  0  0  0  0  0  0  0  0  0
  -23.9507  -12.2829   21.0106 N   0  0  0  0  0  0  0  0  0  0  0  0
  -32.2127  -24.9767   17.9391 N   0  0  0  0  0  0  0  0  0  0  0  0
  -25.8065  -10.0303   18.8775 N   0  3  0  0  0  0  0  0  0  0  0  0
  -31.6342  -19.4572   21.2720 N   0  3  1  0  0  0  0  0  0  0  0  0
  -26.0091  -21.4837   23.0198 O   0  0  0  0  0  0  0  0  0  0  0  0
  -23.8884  -17.6574   21.7659 O   0  0  0  0  0  0  0  0  0  0  0  0
  -22.2603  -14.5263   20.4465 O   0  0  0  0  0  0  0  0  0  0  0  0
  -26.2448  -11.9814   20.8568 O   0  0  0  0  0  0  0  0  0  0  0  0
  -31.6789  -25.6852   15.8078 O   0  0  0  0  0  0  0  0  0  0  0  0
  -23.4635  -28.8315   23.3604 O   0  0  0  0  0  0  0  0  0  0  0  0
  -30.2027  -17.4329   19.8730 O   0  0  0  0  0  0  0  0  0  1  0  0
  -25.9775  -33.7242   23.7412 F   0  0  0  0  0  0  0  0  0  0  0  0
  -31.9451  -22.4460   16.7689 F   0  0  0  0  0  0  0  0  0  0  0  0
  -24.3610  -30.1448   21.0993 F   0  0  0  0  0  0  0  0  0  0  0  0
  1  2  1  0  0  0  0
  1  5  2  0  0  0  0
  2  6  2  0  0  0  0
  3 10  2  0  0  0  0
  3 18  1  0  0  0  0
  4 11  1  0  0  0  0
  4 18  2  0  0  0  0
  5 20  1  0  0  0  0
  6 22  1  0  0  0  0
  7 12  2  0  0  0  0
  7 21  1  0  0  0  0
  8  9  2  0  0  0  0
  8 24  1  0  0  0  0
  9 25  1  0  0  0  0
 10 26  1  0  0  0  0
 11 26  2  0  0  0  0
 12 27  1  0  0  0  0
 13 14  2  0  0  0  0
 13 28  1  0  0  0  0
 14 29  1  0  0  0  0
 15 23  1  0  0  0  0
 15 27  2  0  0  0  0
 16 24  2  0  0  0  0
 16 30  1  0  0  0  0
 17 29  2  0  0  0  0
 17 31  1  0  0  0  0
 18 32  1  0  0  0  0
 19 32  1  0  0  0  0
 19 33  2  0  0  0  0
 19 34  1  0  0  0  0
 20 22  2  0  0  0  0
 20 39  1  0  0  0  0
 21 23  2  0  0  0  0
 21 40  1  0  0  0  0
 22 48  1  0  0  0  0
 23 41  1  0  0  0  0
 24 58  1  0  0  0  0
 25 30  2  0  0  0  0
 25 72  1  0  0  0  0
 26 80  1  0  0  0  0
 27 81  1  0  0  0  0
 28 31  2  0  0  0  0
 28 80  1  0  0  0  0
 29 82  1  0  0  0  0
 30 83  1  0  0  0  0
 31 84  1  0  0  0  0
 32 64  2  0  0  0  0
 33 65  1  0  0  0  0
 33 68  1  0  0  0  0
 34 69  1  0  0  0  0
 34 75  2  0  0  0  0
 35 49  1  0  0  0  0
 35 70  1  0  0  0  0
 35 76  2  0  0  0  0
 36 61  1  0  0  0  0
 36 66  1  0  0  0  0
 36 77  2  0  0  0  0
 37 62  1  0  0  0  0
 37 71  1  0  0  0  0
 37 78  2  0  0  0  0
 38 67  1  0  0  0  0
 38 72  1  0  0  0  0
 38 79  2  0  0  0  0
 39 42  1  0  0  0  0
 40 49  1  0  0  0  0
 41 66  1  0  0  0  0
 42 44  1  0  0  0  0
 43 45  1  0  0  0  0
 43 46  1  0  0  0  0
 44 48  1  0  0  0  0
 45 50  1  0  0  0  0
 46 67  1  0  0  0  0
 47 50  1  0  0  0  0
 47 67  1  0  0  0  0
 48 70  1  0  0  0  0
 49 66  1  0  0  0  0
 50 65  1  0  0  0  0
 51 62  1  0  0  0  0
 52 63  1  0  0  0  0
 53 63  1  0  0  0  0
 54 63  1  0  0  0  0
 55 72  1  0  0  0  0
 56 73  1  0  0  0  0
 57 74  1  0  0  0  0
 58 74  1  0  0  0  0
 59 60  1  0  0  0  0
 59 74  1  0  0  0  0
 60 81  1  0  0  0  0
 61 63  1  0  0  0  0
 61 71  1  0  0  0  0
 62 73  1  0  0  0  0
 64 65  1  0  0  0  0
M  CHG  2  73   1  74   1
M  ISO  4  38 100  60 101  72 100  81 101
M  END
> <Batch ID>
0012

> <Smiles>
CNC(C)C(=O)NC(C(=O)N1Cc2cc([101O:1][101CH2:1]CN(C)Cc3ccc([100N:0](C)[100C:0](=O)N4CCCC(n5nc(-c6ccc(Oc7ccc(F)cc7F)cc6)c(C(N)=O)c5N)C4)c(F)c3)ccc2CC1C(=O)NC1CCCc2ccccc21)C(C)(C)C

> <Shape>
0.169

> <Color>
0.071

> <Negative vol penalty>
0.000

$$$$

  -OEChem-04042320463D

 83 92  0     1  0  0  0  0  0999 V2000
  -17.6027  -13.7694   21.5448 C   0  0  0  0  0  0  0  0  0  0  0  0
  -18.3971  -14.8469   21.1663 C   0  0  0  0  0  0  0  0  0  0  0  0
  -22.9475  -28.7097   22.3115 C   0  0  0  0  0  0  0  0  0  0  0  0
  -23.0848  -30.3494   20.5425 C   0  0  0  0  0  0  0  0  0  0  0  0
  -18.1481  -12.7357   22.3050 C   0  0  0  0  0  0  0  0  0  0  0  0
  -19.7373  -14.8919   21.5488 C   0  0  0  0  0  0  0  0  0  0  0  0
  -24.4082  -17.2032   18.3321 C   0  0  0  0  0  0  0  0  0  0  0  0
  -29.2034  -24.2332   20.3498 C   0  0  0  0  0  0  0  0  0  0  0  0
  -27.7560  -23.5060   22.1424 C   0  0  0  0  0  0  0  0  0  0  0  0
  -29.8979  -25.0501   21.2420 C   0  0  0  0  0  0  0  0  0  0  0  0
  -28.4506  -24.3228   23.0346 C   0  0  0  0  0  0  0  0  0  0  0  0
  -21.8094  -29.3432   22.8105 C   0  0  0  0  0  0  0  0  0  0  0  0
  -21.9467  -30.9830   21.0414 C   0  0  0  0  0  0  0  0  0  0  0  0
  -25.0667  -18.4309   18.3848 C   0  0  0  0  0  0  0  0  0  0  0  0
  -18.5124  -29.4848   22.0739 C   0  0  0  0  0  0  0  0  0  0  0  0
  -17.4306  -28.6827   22.4371 C   0  0  0  0  0  0  0  0  0  0  0  0
  -26.7605  -17.4549   19.7982 C   0  0  0  0  0  0  0  0  0  0  0  0
  -17.5737  -29.5146   24.7008 C   0  0  0  0  0  0  0  0  0  0  0  0
  -23.5852  -29.2128   21.1775 C   0  0  0  0  0  0  0  0  0  0  0  0
  -24.8098  -27.5256   19.7074 C   0  0  0  0  0  0  0  0  0  0  0  0
  -19.4981  -12.7633   22.6888 C   0  0  0  0  0  0  0  0  0  0  0  0
  -24.9158  -16.0930   19.0222 C   0  0  0  0  0  0  0  0  0  0  0  0
  -20.3010  -13.8583   22.3160 C   0  0  0  0  0  0  0  0  0  0  0  0
  -26.1079  -16.2135   19.7506 C   0  0  0  0  0  0  0  0  0  0  0  0
  -28.1324  -23.4612   20.8000 C   0  0  0  0  0  0  0  0  0  0  0  0
  -29.5216  -25.0949   22.5843 C   0  0  0  0  0  0  0  0  0  0  0  0
  -21.3090  -30.4799   22.1754 C   0  0  0  0  0  0  0  0  0  0  0  0
  -26.2415  -18.5576   19.1202 C   0  0  0  0  0  0  0  0  0  0  0  0
  -19.1249  -30.3018   23.0242 C   0  0  0  0  0  0  0  0  0  0  0  0
  -16.9612  -28.6976   23.7505 C   0  0  0  0  0  0  0  0  0  0  0  0
  -18.6555  -30.3168   24.3377 C   0  0  0  0  0  0  0  0  0  0  0  0
  -24.7612  -28.5591   20.6619 C   0  0  0  0  0  0  0  0  0  0  0  0
  -26.1486  -27.2564   19.5606 C   0  0  0  0  0  0  0  0  0  0  0  0
  -23.7403  -26.8677   19.0152 C   0  0  0  0  0  0  0  0  0  0  0  0
  -23.8534  -14.2342   21.3717 C   0  0  0  0  0  0  0  0  0  0  0  0
  -26.5419  -12.5397   20.7215 C   0  0  0  0  0  0  0  0  0  0  0  0
  -29.7028  -12.5021   19.4354 C   0  0  0  0  0  0  0  0  0  0  0  0
  -30.8662  -27.1417   23.1262 C   0  0  0  0  0  0  0  0  0  0  0  0
  -20.0309  -11.6460   23.5504 C   0  0  0  0  0  0  0  0  0  0  0  0
  -24.2079  -14.7688   18.9335 C   0  0  0  0  0  0  0  0  0  0  0  0
  -26.7053  -15.0469   20.4926 C   0  0  0  0  0  0  0  0  0  0  0  0
  -21.5555  -11.5869   23.5973 C   0  0  0  0  0  0  0  0  0  0  0  0
  -30.3453  -29.6812   20.4856 C   0  0  0  0  0  0  0  0  0  0  0  0
  -22.1367  -12.9775   23.8325 C   0  0  0  0  0  0  0  0  0  0  0  0
  -28.8396  -29.6094   20.2382 C   0  0  0  0  0  0  0  0  0  0  0  0
  -26.5684  -21.7889   17.9092 C   0  0  0  0  0  0  0  0  0  0  0  0
  -30.7030  -29.2940   21.9173 C   0  0  0  0  0  0  0  0  0  0  0  0
  -27.7613  -22.5425   18.4972 C   0  0  0  0  0  0  0  0  0  0  0  0
  -28.6743  -27.8791   22.0712 C   0  0  0  0  0  0  0  0  0  0  0  0
  -26.3136  -21.8061   20.2951 C   0  0  0  0  0  0  0  0  0  0  0  0
  -21.7654  -13.9310   22.6904 C   0  0  1  0  0  0  0  0  0  0  0  0
  -24.5379  -13.8360   20.0947 C   0  0  1  0  0  0  0  0  0  0  0  0
  -28.2919  -28.2256   20.6245 C   0  0  1  0  0  0  0  0  0  0  0  0
  -26.0856  -20.9267   19.0664 C   0  0  2  0  0  0  0  0  0  1  0  0
  -31.6668  -10.9811   19.0797 C   0  0  0  0  0  0  0  0  0  0  0  0
  -27.2491  -12.7647   23.6811 C   0  0  0  0  0  0  0  0  0  0  0  0
  -29.5909  -12.0955   23.1008 C   0  0  0  0  0  0  0  0  0  0  0  0
  -27.7028  -10.5239   22.6676 C   0  0  0  0  0  0  0  0  0  0  0  0
  -30.5507  -25.4002   24.8290 C   0  0  0  0  0  0  0  0  0  0  0  0
  -29.5701  -12.8271   16.4967 C   0  0  0  0  0  0  0  0  0  0  0  0
  -27.9702  -12.5719   21.2094 C   0  0  1  0  0  0  0  0  0  0  0  0
  -30.3893  -11.5450   18.4776 C   0  0  2  0  0  0  0  0  0  0  0  0
  -28.1162  -12.0117   22.6525 C   0  0  0  0  0  0  0  0  0  0  0  0
  -25.9729  -28.9217   21.0914 N   0  0  0  0  0  0  0  0  0  0  0  0
  -26.7954  -28.1115   20.4036 N   0  0  0  0  0  0  0  0  0  0  0  0
  -27.4443  -22.6550   19.9177 N   0  0  3  0  0  0  0  0  0  0  0  0
  -25.9727  -13.7748   20.3805 N   0  0  0  0  0  0  0  0  0  0  0  0
  -30.1246  -28.0023   22.2910 N   0  0  0  0  0  0  0  0  0  0  0  0
  -26.8240  -26.3739   18.7941 N   0  0  0  0  0  0  0  0  0  0  0  0
  -22.4243  -27.2675   19.2846 N   0  0  0  0  0  0  0  0  0  0  0  0
  -22.5973  -13.6813   21.5328 N   0  0  0  0  0  0  0  0  0  0  0  0
  -28.7593  -11.8606   20.2096 N   0  0  0  0  0  0  0  0  0  0  0  0
  -30.2400  -25.9396   23.5069 N   0  0  0  0  0  0  0  0  0  0  0  0
  -30.7366  -12.2434   17.2077 N   0  3  0  0  0  0  0  0  0  0  0  0
  -23.9447  -25.9413   18.1946 O   0  0  0  0  0  0  0  0  0  0  0  0
  -24.4234  -14.9862   22.1536 O   0  0  0  0  0  0  0  0  0  0  0  0
  -25.9554  -11.4576   20.6389 O   0  0  0  0  0  0  0  0  0  0  0  0
  -29.9788  -13.6983   19.4936 O   0  0  0  0  0  0  0  0  0  0  0  0
  -31.9876  -27.4473   23.5501 O   0  0  0  0  0  0  0  0  0  0  0  0
  -20.1983  -31.0982   22.6619 O   0  0  0  0  0  0  0  0  0  0  0  0
  -26.8860  -19.7550   19.1738 O   0  0  0  0  0  0  0  0  0  1  0  0
  -15.9214  -27.9284   24.0988 F   0  0  0  0  0  0  0  0  0  0  0  0
  -19.2391  -31.1005   25.2547 F   0  0  0  0  0  0  0  0  0  0  0  0
  1  2  1  0  0  0  0
  1  5  2  0  0  0  0
  2  6  2  0  0  0  0
  3 12  2  0  0  0  0
  3 19  1  0  0  0  0
  4 13  1  0  0  0  0
  4 19  2  0  0  0  0
  5 21  1  0  0  0  0
  6 23  1  0  0  0  0
  7 14  2  0  0  0  0
  7 22  1  0  0  0  0
  8 10  2  0  0  0  0
  8 25  1  0  0  0  0
  9 11  1  0  0  0  0
  9 25  2  0  0  0  0
 10 26  1  0  0  0  0
 11 26  2  0  0  0  0
 12 27  1  0  0  0  0
 13 27  2  0  0  0  0
 14 28  1  0  0  0  0
 15 16  2  0  0  0  0
 15 29  1  0  0  0  0
 16 30  1  0  0  0  0
 17 24  1  0  0  0  0
 17 28  2  0  0  0  0
 18 30  2  0  0  0  0
 18 31  1  0  0  0  0
 19 32  1  0  0  0  0
 20 32  1  0  0  0  0
 20 33  2  0  0  0  0
 20 34  1  0  0  0  0
 21 23  2  0  0  0  0
 21 39  1  0  0  0  0
 22 24  2  0  0  0  0
 22 40  1  0  0  0  0
 23 51  1  0  0  0  0
 24 41  1  0  0  0  0
 25 66  1  0  0  0  0
 26 73  1  0  0  0  0
 27 80  1  0  0  0  0
 28 81  1  0  0  0  0
 29 31  2  0  0  0  0
 29 80  1  0  0  0  0
 30 82  1  0  0  0  0
 31 83  1  0  0  0  0
 32 64  2  0  0  0  0
 33 65  1  0  0  0  0
 33 69  1  0  0  0  0
 34 70  1  0  0  0  0
 34 75  2  0  0  0  0
 35 52  1  0  0  0  0
 35 71  1  0  0  0  0
 35 76  2  0  0  0  0
 36 61  1  0  0  0  0
 36 67  1  0  0  0  0
 36 77  2  0  0  0  0
 37 62  1  0  0  0  0
 37 72  1  0  0  0  0
 37 78  2  0  0  0  0
 38 68  1  0  0  0  0
 38 73  1  0  0  0  0
 38 79  2  0  0  0  0
 39 42  1  0  0  0  0
 40 52  1  0  0  0  0
 41 67  1  0  0  0  0
 42 44  1  0  0  0  0
 43 45  1  0  0  0  0
 43 47  1  0  0  0  0
 44 51  1  0  0  0  0
 45 53  1  0  0  0  0
 46 48  1  0  0  0  0
 46 54  1  0  0  0  0
 47 68  1  0  0  0  0
 48 66  1  0  0  0  0
 49 53  1  0  0  0  0
 49 68  1  0  0  0  0
 50 54  1  0  0  0  0
 50 66  1  0  0  0  0
 51 71  1  0  0  0  0
 52 67  1  0  0  0  0
 53 65  1  0  0  0  0
 54 81  1  0  0  0  0
 55 62  1  0  0  0  0
 56 63  1  0  0  0  0
 57 63  1  0  0  0  0
 58 63  1  0  0  0  0
 59 73  1  0  0  0  0
 60 74  1  0  0  0  0
 61 63  1  0  0  0  0
 61 72  1  0  0  0  0
 62 74  1  0  0  0  0
 64 65  1  0  0  0  0
M  CHG  1  74   1
M  ISO  4  38 100  54 101  73 100  81 101
M  END
> <Batch ID>
0012

> <Smiles>
CNC(C)C(=O)NC(C(=O)N1Cc2cc([101O:1][101CH:1]3CCN(c4ccc([100N:0](C)[100C:0](=O)N5CCCC(n6nc(-c7ccc(Oc8ccc(F)cc8F)cc7)c(C(N)=O)c6N)C5)cc4)C3)ccc2CC1C(=O)NC1CCCc2ccccc21)C(C)(C)C

> <Shape>
0.237

> <Color>
0.060

> <Negative vol penalty>
0.000

$$$$

  -OEChem-04042320463D

 82 90  0     1  0  0  0  0  0999 V2000
  -17.8567  -29.6710   23.1824 C   0  0  0  0  0  0  0  0  0  0  0  0
  -19.1678  -29.7527   22.7242 C   0  0  0  0  0  0  0  0  0  0  0  0
  -26.5328  -12.8372   21.6520 C   0  0  0  0  0  0  0  0  0  0  0  0
  -26.1600  -13.8983   19.5137 C   0  0  0  0  0  0  0  0  0  0  0  0
  -17.4240  -28.5281   23.8534 C   0  0  0  0  0  0  0  0  0  0  0  0
  -20.0471  -28.6918   22.9377 C   0  0  0  0  0  0  0  0  0  0  0  0
  -24.5169  -26.8056   19.2001 C   0  0  0  0  0  0  0  0  0  0  0  0
  -31.6056  -20.5240   17.0470 C   0  0  0  0  0  0  0  0  0  0  0  0
  -25.2627  -12.2642   21.5891 C   0  0  0  0  0  0  0  0  0  0  0  0
  -24.8899  -13.3253   19.4508 C   0  0  0  0  0  0  0  0  0  0  0  0
  -25.8913  -27.0396   19.1888 C   0  0  0  0  0  0  0  0  0  0  0  0
  -23.7848   -9.6463   20.0414 C   0  0  0  0  0  0  0  0  0  0  0  0
  -31.7359  -21.4273   15.9922 C   0  0  0  0  0  0  0  0  0  0  0  0
  -23.6644   -8.2982   20.3784 C   0  0  0  0  0  0  0  0  0  0  0  0
  -26.2482  -24.9645   20.3659 C   0  0  0  0  0  0  0  0  0  0  0  0
  -31.4075  -22.3648   18.5992 C   0  0  0  0  0  0  0  0  0  0  0  0
  -22.1379   -8.8795   22.1586 C   0  0  0  0  0  0  0  0  0  0  0  0
  -26.9815  -13.6543   20.6143 C   0  0  0  0  0  0  0  0  0  0  0  0
  -29.4978  -13.7001   20.1974 C   0  0  0  0  0  0  0  0  0  0  0  0
  -18.2958  -27.4487   24.0668 C   0  0  0  0  0  0  0  0  0  0  0  0
  -23.9961  -25.6527   19.8051 C   0  0  0  0  0  0  0  0  0  0  0  0
  -19.6260  -27.5339   23.6134 C   0  0  0  0  0  0  0  0  0  0  0  0
  -24.8670  -24.7170   20.3814 C   0  0  0  0  0  0  0  0  0  0  0  0
  -31.5378  -23.2682   17.5444 C   0  0  0  0  0  0  0  0  0  0  0  0
  -31.4413  -20.9927   18.3505 C   0  0  0  0  0  0  0  0  0  0  0  0
  -24.4412  -12.5082   20.4885 C   0  0  0  0  0  0  0  0  0  0  0  0
  -26.7569  -26.1204   19.7742 C   0  0  0  0  0  0  0  0  0  0  0  0
  -23.0818  -10.6111   20.7630 C   0  0  0  0  0  0  0  0  0  0  0  0
  -22.8410   -7.9148   21.4370 C   0  0  0  0  0  0  0  0  0  0  0  0
  -31.7020  -22.7994   16.2409 C   0  0  0  0  0  0  0  0  0  0  0  0
  -22.2584  -10.2277   21.8216 C   0  0  0  0  0  0  0  0  0  0  0  0
  -28.2933  -14.2469   20.6790 C   0  0  0  0  0  0  0  0  0  0  0  0
  -30.4484  -14.6444   20.4993 C   0  0  0  0  0  0  0  0  0  0  0  0
  -29.7361  -12.4504   19.5362 C   0  0  0  0  0  0  0  0  0  0  0  0
  -22.0327  -25.0893   22.2405 C   0  0  0  0  0  0  0  0  0  0  0  0
  -22.2971  -22.0163   21.2360 C   0  0  0  0  0  0  0  0  0  0  0  0
  -24.1162  -19.6603   19.5665 C   0  0  0  0  0  0  0  0  0  0  0  0
  -31.1381  -20.3724   20.7732 C   0  0  0  0  0  0  0  0  0  0  0  0
  -17.7958  -26.2534   24.8388 C   0  0  0  0  0  0  0  0  0  0  0  0
  -22.5132  -25.4019   19.7855 C   0  0  0  0  0  0  0  0  0  0  0  0
  -24.3599  -23.4537   21.0259 C   0  0  0  0  0  0  0  0  0  0  0  0
  -18.6841  -25.0203   24.6949 C   0  0  0  0  0  0  0  0  0  0  0  0
  -30.7344  -18.3991   23.7093 C   0  0  0  0  0  0  0  0  0  0  0  0
  -20.1514  -25.3952   24.8767 C   0  0  0  0  0  0  0  0  0  0  0  0
  -30.1816  -17.0731   23.1818 C   0  0  0  0  0  0  0  0  0  0  0  0
  -30.1838  -19.5929   22.9311 C   0  0  0  0  0  0  0  0  0  0  0  0
  -29.7936  -18.1865   20.9464 C   0  0  0  0  0  0  0  0  0  0  0  0
  -20.6027  -26.3938   23.8040 C   0  0  1  0  0  0  0  0  0  0  0  0
  -22.0542  -24.4464   20.8826 C   0  0  1  0  0  0  0  0  0  0  0  0
  -30.3698  -16.9509   21.6569 C   0  0  2  0  0  0  0  0  0  0  0  0
  -24.0938  -17.2287   18.9468 C   0  0  0  0  0  0  0  0  0  0  0  0
  -23.0986  -21.2846   24.0877 C   0  0  0  0  0  0  0  0  0  0  0  0
  -23.9644  -19.1052   23.2110 C   0  0  0  0  0  0  0  0  0  0  0  0
  -21.5426  -19.6618   22.9925 C   0  0  0  0  0  0  0  0  0  0  0  0
  -24.1011  -20.2787   16.6723 C   0  0  0  0  0  0  0  0  0  0  0  0
  -31.4998  -24.7436   17.8140 C   0  0  0  0  0  0  0  0  0  0  0  0
  -30.0676  -26.6953   18.4292 C   0  0  0  0  0  0  0  0  0  0  0  0
  -28.6242  -27.0925   18.6678 C   0  0  0  0  0  0  0  0  0  1  0  0
  -23.2271  -20.8674   21.5431 C   0  0  1  0  0  0  0  0  0  0  0  0
  -23.7188  -18.6383   18.5167 C   0  0  2  0  0  0  0  0  0  0  0  0
  -22.9679  -20.2544   22.9482 C   0  0  0  0  0  0  0  0  0  0  0  0
  -28.4606  -15.4456   21.2440 N   0  0  0  0  0  0  0  0  0  0  0  0
  -29.7815  -15.6597   21.1195 N   0  0  0  0  0  0  0  0  0  0  0  0
  -22.9014  -23.2567   20.9868 N   0  0  0  0  0  0  0  0  0  0  0  0
  -30.4015  -19.4091   21.4946 N   0  0  0  0  0  0  0  0  0  0  0  0
  -31.7814  -14.6969   20.2922 N   0  0  0  0  0  0  0  0  0  0  0  0
  -28.6472  -11.5990   19.3043 N   0  0  0  0  0  0  0  0  0  0  0  0
  -31.3082  -20.0746   19.4216 N   0  0  0  0  0  0  0  0  0  0  0  0
  -20.8393  -25.7141   22.5484 N   0  0  0  0  0  0  0  0  0  0  0  0
  -23.0836  -19.9207   20.4424 N   0  0  0  0  0  0  0  0  0  0  0  0
  -24.3997  -18.9321   17.2240 N   0  3  0  0  0  0  0  0  0  0  0  0
  -30.1298  -25.2490   18.0995 N   0  3  0  0  0  0  0  0  0  0  0  0
  -30.8832  -12.0920   19.1768 O   0  0  0  0  0  0  0  0  0  0  0  0
  -23.0249  -25.0221   22.9566 O   0  0  0  0  0  0  0  0  0  0  0  0
  -21.0798  -21.8188   21.2109 O   0  0  0  0  0  0  0  0  0  0  0  0
  -25.2322  -20.1733   19.6078 O   0  0  0  0  0  0  0  0  0  0  0  0
  -31.6083  -21.3731   21.3204 O   0  0  0  0  0  0  0  0  0  0  0  0
  -23.2018  -11.9491   20.4267 O   0  0  0  0  0  0  0  0  0  0  0  0
  -28.0988  -26.3466   19.7651 O   0  0  0  0  0  0  0  0  0  1  0  0
  -22.7242   -6.6200   21.7595 F   0  0  0  0  0  0  0  0  0  0  0  0
  -31.8292  -23.6596   15.2210 F   0  0  0  0  0  0  0  0  0  0  0  0
  -21.5796  -11.1499   22.5178 F   0  0  0  0  0  0  0  0  0  0  0  0
  1  2  1  0  0  0  0
  1  5  2  0  0  0  0
  2  6  2  0  0  0  0
  3  9  2  0  0  0  0
  3 18  1  0  0  0  0
  4 10  1  0  0  0  0
  4 18  2  0  0  0  0
  5 20  1  0  0  0  0
  6 22  1  0  0  0  0
  7 11  2  0  0  0  0
  7 21  1  0  0  0  0
  8 13  2  0  0  0  0
  8 25  1  0  0  0  0
  9 26  1  0  0  0  0
 10 26  2  0  0  0  0
 11 27  1  0  0  0  0
 12 14  2  0  0  0  0
 12 28  1  0  0  0  0
 13 30  1  0  0  0  0
 14 29  1  0  0  0  0
 15 23  1  0  0  0  0
 15 27  2  0  0  0  0
 16 24  1  0  0  0  0
 16 25  2  0  0  0  0
 17 29  2  0  0  0  0
 17 31  1  0  0  0  0
 18 32  1  0  0  0  0
 19 32  1  0  0  0  0
 19 33  2  0  0  0  0
 19 34  1  0  0  0  0
 20 22  2  0  0  0  0
 20 39  1  0  0  0  0
 21 23  2  0  0  0  0
 21 40  1  0  0  0  0
 22 48  1  0  0  0  0
 23 41  1  0  0  0  0
 24 30  2  0  0  0  0
 24 56  1  0  0  0  0
 25 68  1  0  0  0  0
 26 78  1  0  0  0  0
 27 79  1  0  0  0  0
 28 31  2  0  0  0  0
 28 78  1  0  0  0  0
 29 80  1  0  0  0  0
 30 81  1  0  0  0  0
 31 82  1  0  0  0  0
 32 62  2  0  0  0  0
 33 63  1  0  0  0  0
 33 66  1  0  0  0  0
 34 67  1  0  0  0  0
 34 73  2  0  0  0  0
 35 49  1  0  0  0  0
 35 69  1  0  0  0  0
 35 74  2  0  0  0  0
 36 59  1  0  0  0  0
 36 64  1  0  0  0  0
 36 75  2  0  0  0  0
 37 60  1  0  0  0  0
 37 70  1  0  0  0  0
 37 76  2  0  0  0  0
 38 65  1  0  0  0  0
 38 68  1  0  0  0  0
 38 77  2  0  0  0  0
 39 42  1  0  0  0  0
 40 49  1  0  0  0  0
 41 64  1  0  0  0  0
 42 44  1  0  0  0  0
 43 45  1  0  0  0  0
 43 46  1  0  0  0  0
 44 48  1  0  0  0  0
 45 50  1  0  0  0  0
 46 65  1  0  0  0  0
 47 50  1  0  0  0  0
 47 65  1  0  0  0  0
 48 69  1  0  0  0  0
 49 64  1  0  0  0  0
 50 63  1  0  0  0  0
 51 60  1  0  0  0  0
 52 61  1  0  0  0  0
 53 61  1  0  0  0  0
 54 61  1  0  0  0  0
 55 71  1  0  0  0  0
 56 72  1  0  0  0  0
 57 58  1  0  0  0  0
 57 72  1  0  0  0  0
 58 79  1  0  0  0  0
 59 61  1  0  0  0  0
 59 70  1  0  0  0  0
 60 71  1  0  0  0  0
 62 63  1  0  0  0  0
M  CHG  2  71   1  72   1
M  ISO  4  38 100  58 101  68 100  79 101
M  END
> <Batch ID>
0012

> <Smiles>
CNC(C)C(=O)NC(C(=O)N1Cc2cc([101O:1][101CH2:1]CNCc3cc([100NH:0][100C:0](=O)N4CCCC(n5nc(-c6ccc(Oc7ccc(F)cc7F)cc6)c(C(N)=O)c5N)C4)ccc3F)ccc2CC1C(=O)NC1CCCc2ccccc21)C(C)(C)C

> <Shape>
0.225

> <Color>
0.070

> <Negative vol penalty>
0.000

$$$$

  -OEChem-04042320463D

 86 95  0     1  0  0  0  0  0999 V2000
  -28.6893  -33.2723   25.0765 C   0  0  0  0  0  0  0  0  0  0  0  0
  -28.6780  -32.0329   24.4447 C   0  0  0  0  0  0  0  0  0  0  0  0
  -23.5431  -10.3300   21.3558 C   0  0  0  0  0  0  0  0  0  0  0  0
  -22.9721  -12.2350   22.7277 C   0  0  0  0  0  0  0  0  0  0  0  0
  -27.5262  -33.7620   25.6693 C   0  0  0  0  0  0  0  0  0  0  0  0
  -27.5037  -31.2819   24.4063 C   0  0  0  0  0  0  0  0  0  0  0  0
  -26.6134  -29.3011   19.8315 C   0  0  0  0  0  0  0  0  0  0  0  0
  -30.1046  -21.1856   20.2271 C   0  0  0  0  0  0  0  0  0  0  0  0
  -30.0498  -19.7936   20.2956 C   0  0  0  0  0  0  0  0  0  0  0  0
  -22.7334   -9.5165   22.1484 C   0  0  0  0  0  0  0  0  0  0  0  0
  -22.1624  -11.4215   23.5203 C   0  0  0  0  0  0  0  0  0  0  0  0
  -27.3420  -28.1668   19.4760 C   0  0  0  0  0  0  0  0  0  0  0  0
  -22.5685   -9.1782   26.0170 C   0  0  0  0  0  0  0  0  0  0  0  0
  -22.6677   -9.3171   27.4013 C   0  0  0  0  0  0  0  0  0  0  0  0
  -25.4479  -26.7820   20.0364 C   0  0  0  0  0  0  0  0  0  0  0  0
  -27.9224  -19.8209   19.1509 C   0  0  0  0  0  0  0  0  0  0  0  0
  -20.3293   -9.9152   27.5089 C   0  0  0  0  0  0  0  0  0  0  0  0
  -23.6625  -11.6893   21.6455 C   0  0  0  0  0  0  0  0  0  0  0  0
  -24.1188  -13.2453   19.6761 C   0  0  0  0  0  0  0  0  0  0  0  0
  -26.3346  -33.0209   25.6297 C   0  0  0  0  0  0  0  0  0  0  0  0
  -25.2981  -29.1833   20.3032 C   0  0  0  0  0  0  0  0  0  0  0  0
  -26.3239  -31.7615   25.0002 C   0  0  0  0  0  0  0  0  0  0  0  0
  -24.7039  -27.9166   20.3947 C   0  0  0  0  0  0  0  0  0  0  0  0
  -27.9771  -21.2130   19.0824 C   0  0  0  0  0  0  0  0  0  0  0  0
  -29.0682  -21.8954   19.6205 C   0  0  0  0  0  0  0  0  0  0  0  0
  -28.9588  -19.1112   19.7575 C   0  0  0  0  0  0  0  0  0  0  0  0
  -22.0430  -10.0623   23.2306 C   0  0  0  0  0  0  0  0  0  0  0  0
  -26.7602  -26.9068   19.5812 C   0  0  0  0  0  0  0  0  0  0  0  0
  -21.3497   -9.4079   25.3785 C   0  0  0  0  0  0  0  0  0  0  0  0
  -21.5481   -9.6856   28.1473 C   0  0  0  0  0  0  0  0  0  0  0  0
  -20.2302   -9.7764   26.1245 C   0  0  0  0  0  0  0  0  0  0  0  0
  -24.4992  -12.5300   20.8274 C   0  0  0  0  0  0  0  0  0  0  0  0
  -25.2670  -13.8815   19.2721 C   0  0  0  0  0  0  0  0  0  0  0  0
  -22.8416  -13.3274   19.0298 C   0  0  0  0  0  0  0  0  0  0  0  0
  -23.8180  -29.8999   23.0233 C   0  0  0  0  0  0  0  0  0  0  0  0
  -21.1733  -29.0256   21.3610 C   0  0  0  0  0  0  0  0  0  0  0  0
  -19.8318  -27.2371   18.7825 C   0  0  0  0  0  0  0  0  0  0  0  0
  -29.8479  -16.8415   20.3934 C   0  0  0  0  0  0  0  0  0  0  0  0
  -25.1146  -33.5704   26.3255 C   0  0  0  0  0  0  0  0  0  0  0  0
  -24.5165  -30.4187   20.6572 C   0  0  0  0  0  0  0  0  0  0  0  0
  -23.2880  -27.7378   20.8761 C   0  0  0  0  0  0  0  0  0  0  0  0
  -23.8165  -32.8800   25.9149 C   0  0  0  0  0  0  0  0  0  0  0  0
  -30.0599  -13.3102   20.7965 C   0  0  0  0  0  0  0  0  0  0  0  0
  -23.9921  -31.3648   25.9227 C   0  0  0  0  0  0  0  0  0  0  0  0
  -28.6008  -12.8513   20.7458 C   0  0  0  0  0  0  0  0  0  0  0  0
  -29.8465  -25.4444   18.9891 C   0  0  0  0  0  0  0  0  0  0  0  0
  -30.2079  -14.6519   21.5119 C   0  0  0  0  0  0  0  0  0  0  0  0
  -29.7517  -24.0120   18.4638 C   0  0  0  0  0  0  0  0  0  0  0  0
  -27.8902  -15.2681   20.9481 C   0  0  0  0  0  0  0  0  0  0  0  0
  -28.6016  -24.1631   20.5911 C   0  0  0  0  0  0  0  0  0  0  0  0
  -25.0634  -30.9284   24.9160 C   0  0  1  0  0  0  0  0  0  0  0  0
  -23.3602  -30.1408   21.6127 C   0  0  1  0  0  0  0  0  0  0  0  0
  -27.6830  -13.9526   20.1799 C   0  0  2  0  0  0  0  0  0  0  0  0
  -28.6732  -25.5495   19.9524 C   0  0  2  0  0  0  0  0  0  1  0  0
  -17.6364  -26.6896   17.6972 C   0  0  0  0  0  0  0  0  0  0  0  0
  -20.5276  -27.1046   23.6419 C   0  0  0  0  0  0  0  0  0  0  0  0
  -18.9198  -25.9421   22.1149 C   0  0  0  0  0  0  0  0  0  0  0  0
  -18.5531  -28.3335   22.7224 C   0  0  0  0  0  0  0  0  0  0  0  0
  -20.6697  -28.4421   16.2125 C   0  0  0  0  0  0  0  0  0  0  0  0
  -20.4296  -27.7307   21.1390 C   0  0  1  0  0  0  0  0  0  0  0  0
  -18.8391  -27.6204   17.6999 C   0  0  2  0  0  0  0  0  0  0  0  0
  -26.8530  -21.9485   18.4284 C   0  0  0  0  0  0  0  0  0  0  0  0
  -19.6349  -27.2806   22.3973 C   0  0  0  0  0  0  0  0  0  0  0  0
  -25.7884  -12.6956   21.1348 N   0  0  0  0  0  0  0  0  0  0  0  0
  -26.2281  -13.5223   20.1707 N   0  0  0  0  0  0  0  0  0  0  0  0
  -29.1383  -23.2714   19.5622 N   0  0  3  0  0  0  0  0  0  0  0  0
  -22.5670  -28.9755   21.2163 N   0  0  0  0  0  0  0  0  0  0  0  0
  -29.3116  -15.6471   20.9193 N   0  0  0  0  0  0  0  0  0  0  0  0
  -25.5383  -14.7074   18.2393 N   0  0  0  0  0  0  0  0  0  0  0  0
  -21.7685  -12.6109   19.5770 N   0  0  0  0  0  0  0  0  0  0  0  0
  -28.9036  -17.6970   19.8267 N   0  0  0  0  0  0  0  0  0  0  0  0
  -24.5311  -30.9495   23.5704 N   0  0  0  0  0  0  0  0  0  0  0  0
  -19.6056  -27.9315   19.9520 N   0  0  0  0  0  0  0  0  0  0  0  0
  -19.4853  -27.5572   16.3585 N   0  3  0  0  0  0  0  0  0  0  0  0
  -22.6613  -14.0028   17.9882 O   0  0  0  0  0  0  0  0  0  0  0  0
  -23.5433  -28.8408   23.5752 O   0  0  0  0  0  0  0  0  0  0  0  0
  -20.5403  -30.0455   21.6450 O   0  0  0  0  0  0  0  0  0  0  0  0
  -20.7170  -26.4022   18.6092 O   0  0  0  0  0  0  0  0  0  0  0  0
  -31.0590  -17.0750   20.4177 O   0  0  0  0  0  0  0  0  0  0  0  0
  -21.2527   -9.2688   24.0041 O   0  0  0  0  0  0  0  0  0  0  0  0
  -27.4693  -25.7979   19.2355 O   0  0  0  0  0  0  0  0  0  1  0  0
  -21.6432   -9.8174   29.4768 F   0  0  0  0  0  0  0  0  0  0  0  0
  -19.0563   -9.9972   25.5169 F   0  0  0  0  0  0  0  0  0  0  0  0
  -25.8672  -21.1300   17.9578 F   0  0  0  0  0  0  0  0  0  0  0  0
  -26.2220  -22.8282   19.2594 F   0  0  0  0  0  0  0  0  0  0  0  0
  -27.2639  -22.6844   17.3562 F   0  0  0  0  0  0  0  0  0  0  0  0
  1  2  1  0  0  0  0
  1  5  2  0  0  0  0
  2  6  2  0  0  0  0
  3 10  2  0  0  0  0
  3 18  1  0  0  0  0
  4 11  1  0  0  0  0
  4 18  2  0  0  0  0
  5 20  1  0  0  0  0
  6 22  1  0  0  0  0
  7 12  2  0  0  0  0
  7 21  1  0  0  0  0
  8  9  2  0  0  0  0
  8 25  1  0  0  0  0
  9 26  1  0  0  0  0
 10 27  1  0  0  0  0
 11 27  2  0  0  0  0
 12 28  1  0  0  0  0
 13 14  2  0  0  0  0
 13 29  1  0  0  0  0
 14 30  1  0  0  0  0
 15 23  1  0  0  0  0
 15 28  2  0  0  0  0
 16 24  1  0  0  0  0
 16 26  2  0  0  0  0
 17 30  2  0  0  0  0
 17 31  1  0  0  0  0
 18 32  1  0  0  0  0
 19 32  1  0  0  0  0
 19 33  2  0  0  0  0
 19 34  1  0  0  0  0
 20 22  2  0  0  0  0
 20 39  1  0  0  0  0
 21 23  2  0  0  0  0
 21 40  1  0  0  0  0
 22 51  1  0  0  0  0
 23 41  1  0  0  0  0
 24 25  2  0  0  0  0
 24 62  1  0  0  0  0
 25 66  1  0  0  0  0
 26 71  1  0  0  0  0
 27 80  1  0  0  0  0
 28 81  1  0  0  0  0
 29 31  2  0  0  0  0
 29 80  1  0  0  0  0
 30 82  1  0  0  0  0
 31 83  1  0  0  0  0
 32 64  2  0  0  0  0
 33 65  1  0  0  0  0
 33 69  1  0  0  0  0
 34 70  1  0  0  0  0
 34 75  2  0  0  0  0
 35 52  1  0  0  0  0
 35 72  1  0  0  0  0
 35 76  2  0  0  0  0
 36 60  1  0  0  0  0
 36 67  1  0  0  0  0
 36 77  2  0  0  0  0
 37 61  1  0  0  0  0
 37 73  1  0  0  0  0
 37 78  2  0  0  0  0
 38 68  1  0  0  0  0
 38 71  1  0  0  0  0
 38 79  2  0  0  0  0
 39 42  1  0  0  0  0
 40 52  1  0  0  0  0
 41 67  1  0  0  0  0
 42 44  1  0  0  0  0
 43 45  1  0  0  0  0
 43 47  1  0  0  0  0
 44 51  1  0  0  0  0
 45 53  1  0  0  0  0
 46 48  1  0  0  0  0
 46 54  1  0  0  0  0
 47 68  1  0  0  0  0
 48 66  1  0  0  0  0
 49 53  1  0  0  0  0
 49 68  1  0  0  0  0
 50 54  1  0  0  0  0
 50 66  1  0  0  0  0
 51 72  1  0  0  0  0
 52 67  1  0  0  0  0
 53 65  1  0  0  0  0
 54 81  1  0  0  0  0
 55 61  1  0  0  0  0
 56 63  1  0  0  0  0
 57 63  1  0  0  0  0
 58 63  1  0  0  0  0
 59 74  1  0  0  0  0
 60 63  1  0  0  0  0
 60 73  1  0  0  0  0
 61 74  1  0  0  0  0
 62 84  1  0  0  0  0
 62 85  1  0  0  0  0
 62 86  1  0  0  0  0
 64 65  1  0  0  0  0
M  CHG  1  74   1
M  ISO  4  38 100  54 101  71 100  81 101
M  END
> <Batch ID>
0012

> <Smiles>
CNC(C)C(=O)NC(C(=O)N1Cc2cc([101O:1][101CH:1]3CCN(c4ccc([100NH:0][100C:0](=O)N5CCCC(n6nc(-c7ccc(Oc8ccc(F)cc8F)cc7)c(C(N)=O)c6N)C5)cc4C(F)(F)F)C3)ccc2CC1C(=O)NC1CCCc2ccccc21)C(C)(C)C

> <Shape>
0.325

> <Color>
0.065

> <Negative vol penalty>
0.000

$$$$

  -OEChem-04042320463D

 83 92  0     1  0  0  0  0  0999 V2000
  -27.4998  -34.2986   25.5374 C   0  0  0  0  0  0  0  0  0  0  0  0
  -28.0279  -33.0329   25.3038 C   0  0  0  0  0  0  0  0  0  0  0  0
  -23.1615   -9.7574   19.9114 C   0  0  0  0  0  0  0  0  0  0  0  0
  -23.9101   -9.7793   22.2084 C   0  0  0  0  0  0  0  0  0  0  0  0
  -26.1832  -34.5810   25.1756 C   0  0  0  0  0  0  0  0  0  0  0  0
  -27.2394  -32.0485   24.7093 C   0  0  0  0  0  0  0  0  0  0  0  0
  -29.1005  -27.6768   20.8453 C   0  0  0  0  0  0  0  0  0  0  0  0
  -29.3054  -19.4421   22.4652 C   0  0  0  0  0  0  0  0  0  0  0  0
  -29.2040  -18.0512   22.4442 C   0  0  0  0  0  0  0  0  0  0  0  0
  -22.4725   -8.5678   20.1473 C   0  0  0  0  0  0  0  0  0  0  0  0
  -23.2211   -8.5897   22.4443 C   0  0  0  0  0  0  0  0  0  0  0  0
  -29.4213  -26.3331   21.0334 C   0  0  0  0  0  0  0  0  0  0  0  0
  -20.0321   -7.6332   23.0240 C   0  0  0  0  0  0  0  0  0  0  0  0
  -19.2728   -7.5462   24.1908 C   0  0  0  0  0  0  0  0  0  0  0  0
  -27.1860  -25.7130   20.3713 C   0  0  0  0  0  0  0  0  0  0  0  0
  -30.8500  -17.9578   20.6781 C   0  0  0  0  0  0  0  0  0  0  0  0
  -20.6021   -5.6635   24.9156 C   0  0  0  0  0  0  0  0  0  0  0  0
  -23.8804  -10.3632   20.9419 C   0  0  0  0  0  0  0  0  0  0  0  0
  -24.1017  -12.9028   20.8465 C   0  0  0  0  0  0  0  0  0  0  0  0
  -25.3812  -33.6024   24.5675 C   0  0  0  0  0  0  0  0  0  0  0  0
  -27.8146  -28.0500   20.4286 C   0  0  0  0  0  0  0  0  0  0  0  0
  -25.9104  -32.3177   24.3402 C   0  0  0  0  0  0  0  0  0  0  0  0
  -26.8522  -27.0619   20.1761 C   0  0  0  0  0  0  0  0  0  0  0  0
  -30.1791  -20.0910   21.5927 C   0  0  0  0  0  0  0  0  0  0  0  0
  -29.9763  -17.3090   21.5507 C   0  0  0  0  0  0  0  0  0  0  0  0
  -22.5022   -7.9840   21.4137 C   0  0  0  0  0  0  0  0  0  0  0  0
  -28.4631  -25.3512   20.7992 C   0  0  0  0  0  0  0  0  0  0  0  0
  -21.0764   -6.7352   22.8029 C   0  0  0  0  0  0  0  0  0  0  0  0
  -19.5578   -6.5614   25.1366 C   0  0  0  0  0  0  0  0  0  0  0  0
  -30.9514  -19.3489   20.6992 C   0  0  0  0  0  0  0  0  0  0  0  0
  -21.3614   -5.7504   23.7487 C   0  0  0  0  0  0  0  0  0  0  0  0
  -24.5928  -11.5918   20.6987 C   0  0  0  0  0  0  0  0  0  0  0  0
  -25.1584  -13.7069   20.4953 C   0  0  0  0  0  0  0  0  0  0  0  0
  -22.8062  -13.3534   21.2640 C   0  0  0  0  0  0  0  0  0  0  0  0
  -25.4685  -29.7920   21.6796 C   0  0  0  0  0  0  0  0  0  0  0  0
  -24.0938  -29.3141   18.7806 C   0  0  0  0  0  0  0  0  0  0  0  0
  -23.8606  -27.3997   15.9650 C   0  0  0  0  0  0  0  0  0  0  0  0
  -30.5675  -15.0105   20.7058 C   0  0  0  0  0  0  0  0  0  0  0  0
  -23.9489  -33.9403   24.2370 C   0  0  0  0  0  0  0  0  0  0  0  0
  -27.4924  -29.5020   20.2045 C   0  0  0  0  0  0  0  0  0  0  0  0
  -25.4633  -27.4089   19.7080 C   0  0  0  0  0  0  0  0  0  0  0  0
  -23.2981  -32.9544   23.2702 C   0  0  0  0  0  0  0  0  0  0  0  0
  -29.5801  -12.5684   18.3104 C   0  0  0  0  0  0  0  0  0  0  0  0
  -23.5883  -31.5187   23.6959 C   0  0  0  0  0  0  0  0  0  0  0  0
  -28.1542  -12.2044   18.7304 C   0  0  0  0  0  0  0  0  0  0  0  0
  -31.1304  -23.6449   21.3382 C   0  0  0  0  0  0  0  0  0  0  0  0
  -30.4780  -12.8294   19.5185 C   0  0  0  0  0  0  0  0  0  0  0  0
  -31.1588  -22.2369   20.7438 C   0  0  0  0  0  0  0  0  0  0  0  0
  -28.5326  -13.4492   20.8970 C   0  0  0  0  0  0  0  0  0  0  0  0
  -29.5024  -22.3278   22.5099 C   0  0  0  0  0  0  0  0  0  0  0  0
  -25.0943  -31.2307   23.6748 C   0  0  1  0  0  0  0  0  0  0  0  0
  -25.9978  -29.8000   20.2733 C   0  0  1  0  0  0  0  0  0  0  0  0
  -27.5743  -13.2406   19.7130 C   0  0  2  0  0  0  0  0  0  0  0  0
  -29.7501  -23.7366   21.9724 C   0  0  2  0  0  0  0  0  0  1  0  0
  -22.6221  -27.2404   13.7883 C   0  0  0  0  0  0  0  0  0  0  0  0
  -21.6380  -28.2663   20.2574 C   0  0  0  0  0  0  0  0  0  0  0  0
  -20.8550  -27.2639   18.1009 C   0  0  0  0  0  0  0  0  0  0  0  0
  -21.1293  -29.7355   18.2985 C   0  0  0  0  0  0  0  0  0  0  0  0
  -26.3550  -27.6584   14.3935 C   0  0  0  0  0  0  0  0  0  0  0  0
  -23.1832  -28.2653   18.1890 C   0  0  1  0  0  0  0  0  0  0  0  0
  -23.8617  -27.7694   14.4926 C   0  0  2  0  0  0  0  0  0  0  0  0
  -21.7269  -28.3760   18.7221 C   0  0  0  0  0  0  0  0  0  0  0  0
  -25.8626  -11.5603   20.2857 N   0  0  0  0  0  0  0  0  0  0  0  0
  -26.1783  -12.8615   20.1708 N   0  0  0  0  0  0  0  0  0  0  0  0
  -30.2761  -21.4665   21.6148 N   0  0  3  0  0  0  0  0  0  0  0  0
  -25.1949  -28.8428   19.5095 N   0  0  0  0  0  0  0  0  0  0  0  0
  -29.8665  -13.8242   20.4025 N   0  0  0  0  0  0  0  0  0  0  0  0
  -25.3052  -15.0475   20.4354 N   0  0  0  0  0  0  0  0  0  0  0  0
  -21.8374  -12.3939   21.5881 N   0  0  0  0  0  0  0  0  0  0  0  0
  -29.8731  -15.8960   21.5295 N   0  0  0  0  0  0  0  0  0  0  0  0
  -25.5487  -31.0150   22.3178 N   0  0  0  0  0  0  0  0  0  0  0  0
  -23.3006  -28.3929   16.7405 N   0  0  0  0  0  0  0  0  0  0  0  0
  -25.0636  -27.2032   13.8174 N   0  3  0  0  0  0  0  0  0  0  0  0
  -22.5112  -14.5708   21.3313 O   0  0  0  0  0  0  0  0  0  0  0  0
  -25.0192  -28.7536   22.1502 O   0  0  0  0  0  0  0  0  0  0  0  0
  -23.8415  -30.5074   18.5965 O   0  0  0  0  0  0  0  0  0  0  0  0
  -24.3080  -26.3348   16.3847 O   0  0  0  0  0  0  0  0  0  0  0  0
  -31.6893  -15.2373   20.2452 O   0  0  0  0  0  0  0  0  0  0  0  0
  -21.8298   -6.8233   21.6443 O   0  0  0  0  0  0  0  0  0  0  0  0
  -28.7734  -24.0389   20.9826 O   0  0  0  0  0  0  0  0  0  1  0  0
  -18.8296   -6.4791   26.2578 F   0  0  0  0  0  0  0  0  0  0  0  0
  -31.7932  -19.9627   19.8554 F   0  0  0  0  0  0  0  0  0  0  0  0
  -22.3641   -4.8857   23.5424 F   0  0  0  0  0  0  0  0  0  0  0  0
  1  2  1  0  0  0  0
  1  5  2  0  0  0  0
  2  6  2  0  0  0  0
  3 10  2  0  0  0  0
  3 18  1  0  0  0  0
  4 11  1  0  0  0  0
  4 18  2  0  0  0  0
  5 20  1  0  0  0  0
  6 22  1  0  0  0  0
  7 12  2  0  0  0  0
  7 21  1  0  0  0  0
  8  9  2  0  0  0  0
  8 24  1  0  0  0  0
  9 25  1  0  0  0  0
 10 26  1  0  0  0  0
 11 26  2  0  0  0  0
 12 27  1  0  0  0  0
 13 14  2  0  0  0  0
 13 28  1  0  0  0  0
 14 29  1  0  0  0  0
 15 23  1  0  0  0  0
 15 27  2  0  0  0  0
 16 25  2  0  0  0  0
 16 30  1  0  0  0  0
 17 29  2  0  0  0  0
 17 31  1  0  0  0  0
 18 32  1  0  0  0  0
 19 32  1  0  0  0  0
 19 33  2  0  0  0  0
 19 34  1  0  0  0  0
 20 22  2  0  0  0  0
 20 39  1  0  0  0  0
 21 23  2  0  0  0  0
 21 40  1  0  0  0  0
 22 51  1  0  0  0  0
 23 41  1  0  0  0  0
 24 30  2  0  0  0  0
 24 65  1  0  0  0  0
 25 70  1  0  0  0  0
 26 79  1  0  0  0  0
 27 80  1  0  0  0  0
 28 31  2  0  0  0  0
 28 79  1  0  0  0  0
 29 81  1  0  0  0  0
 30 82  1  0  0  0  0
 31 83  1  0  0  0  0
 32 63  2  0  0  0  0
 33 64  1  0  0  0  0
 33 68  1  0  0  0  0
 34 69  1  0  0  0  0
 34 74  2  0  0  0  0
 35 52  1  0  0  0  0
 35 71  1  0  0  0  0
 35 75  2  0  0  0  0
 36 60  1  0  0  0  0
 36 66  1  0  0  0  0
 36 76  2  0  0  0  0
 37 61  1  0  0  0  0
 37 72  1  0  0  0  0
 37 77  2  0  0  0  0
 38 67  1  0  0  0  0
 38 70  1  0  0  0  0
 38 78  2  0  0  0  0
 39 42  1  0  0  0  0
 40 52  1  0  0  0  0
 41 66  1  0  0  0  0
 42 44  1  0  0  0  0
 43 45  1  0  0  0  0
 43 47  1  0  0  0  0
 44 51  1  0  0  0  0
 45 53  1  0  0  0  0
 46 48  1  0  0  0  0
 46 54  1  0  0  0  0
 47 67  1  0  0  0  0
 48 65  1  0  0  0  0
 49 53  1  0  0  0  0
 49 67  1  0  0  0  0
 50 54  1  0  0  0  0
 50 65  1  0  0  0  0
 51 71  1  0  0  0  0
 52 66  1  0  0  0  0
 53 64  1  0  0  0  0
 54 80  1  0  0  0  0
 55 61  1  0  0  0  0
 56 62  1  0  0  0  0
 57 62  1  0  0  0  0
 58 62  1  0  0  0  0
 59 73  1  0  0  0  0
 60 62  1  0  0  0  0
 60 72  1  0  0  0  0
 61 73  1  0  0  0  0
 63 64  1  0  0  0  0
M  CHG  1  73   1
M  ISO  4  38 100  54 101  70 100  80 101
M  END
> <Batch ID>
0012

> <Smiles>
CNC(C)C(=O)NC(C(=O)N1Cc2cc([101O:1][101CH:1]3CCN(c4ccc([100NH:0][100C:0](=O)N5CCCC(n6nc(-c7ccc(Oc8ccc(F)cc8F)cc7)c(C(N)=O)c6N)C5)cc4F)C3)ccc2CC1C(=O)NC1CCCc2ccccc21)C(C)(C)C

> <Shape>
0.352

> <Color>
0.209

> <Negative vol penalty>
0.000

$$$$

  -OEChem-04042320463D

 83 91  0     1  0  0  0  0  0999 V2000
  -28.3774  -31.9611   26.3316 C   0  0  0  0  0  0  0  0  0  0  0  0
  -28.9365  -30.9407   25.5689 C   0  0  0  0  0  0  0  0  0  0  0  0
  -23.2194   -9.8513   22.7831 C   0  0  0  0  0  0  0  0  0  0  0  0
  -23.3372  -10.0000   20.3746 C   0  0  0  0  0  0  0  0  0  0  0  0
  -26.9962  -32.0175   26.5133 C   0  0  0  0  0  0  0  0  0  0  0  0
  -28.1146  -29.9754   24.9883 C   0  0  0  0  0  0  0  0  0  0  0  0
  -28.9473  -27.1905   19.5979 C   0  0  0  0  0  0  0  0  0  0  0  0
  -28.6579  -19.0286   17.3547 C   0  0  0  0  0  0  0  0  0  0  0  0
  -27.9309  -18.3385   18.3247 C   0  0  0  0  0  0  0  0  0  0  0  0
  -22.5212   -8.6487   22.6747 C   0  0  0  0  0  0  0  0  0  0  0  0
  -22.6390   -8.7973   20.2662 C   0  0  0  0  0  0  0  0  0  0  0  0
  -29.4815  -25.9488   19.2563 C   0  0  0  0  0  0  0  0  0  0  0  0
  -23.2340   -5.4011   22.0597 C   0  0  0  0  0  0  0  0  0  0  0  0
  -23.6231   -4.3487   22.8883 C   0  0  0  0  0  0  0  0  0  0  0  0
  -27.2573  -25.0175   19.1880 C   0  0  0  0  0  0  0  0  0  0  0  0
  -26.1964  -20.0170   18.2188 C   0  0  0  0  0  0  0  0  0  0  0  0
  -21.4140   -4.3012   23.8653 C   0  0  0  0  0  0  0  0  0  0  0  0
  -23.6274  -10.5270   21.6330 C   0  0  0  0  0  0  0  0  0  0  0  0
  -25.7436  -11.9389   21.8229 C   0  0  0  0  0  0  0  0  0  0  0  0
  -26.1562  -31.0579   25.9267 C   0  0  0  0  0  0  0  0  0  0  0  0
  -27.5626  -27.3526   19.7481 C   0  0  0  0  0  0  0  0  0  0  0  0
  -26.7209  -30.0182   25.1635 C   0  0  0  0  0  0  0  0  0  0  0  0
  -26.7079  -26.2629   19.5291 C   0  0  0  0  0  0  0  0  0  0  0  0
  -28.1542  -20.2130   16.8168 C   0  0  0  0  0  0  0  0  0  0  0  0
  -26.7001  -18.8327   18.7567 C   0  0  0  0  0  0  0  0  0  0  0  0
  -22.2310   -8.1217   21.4163 C   0  0  0  0  0  0  0  0  0  0  0  0
  -28.6367  -24.8614   19.0541 C   0  0  0  0  0  0  0  0  0  0  0  0
  -21.9349   -5.9037   22.1340 C   0  0  0  0  0  0  0  0  0  0  0  0
  -22.7131   -3.7987   23.7910 C   0  0  0  0  0  0  0  0  0  0  0  0
  -26.9234  -20.7071   17.2488 C   0  0  0  0  0  0  0  0  0  0  0  0
  -21.0249   -5.3537   23.0367 C   0  0  0  0  0  0  0  0  0  0  0  0
  -24.3482  -11.7696   21.7443 C   0  0  0  0  0  0  0  0  0  0  0  0
  -25.9200  -13.2979   21.9145 C   0  0  0  0  0  0  0  0  0  0  0  0
  -26.7870  -10.9556   21.8136 C   0  0  0  0  0  0  0  0  0  0  0  0
  -25.6472  -28.1697   22.1497 C   0  0  0  0  0  0  0  0  0  0  0  0
  -23.3688  -28.1017   19.8418 C   0  0  0  0  0  0  0  0  0  0  0  0
  -22.3527  -26.9145   16.8078 C   0  0  0  0  0  0  0  0  0  0  0  0
  -24.7258  -18.4857   20.2825 C   0  0  0  0  0  0  0  0  0  0  0  0
  -24.6731  -31.1330   26.1904 C   0  0  0  0  0  0  0  0  0  0  0  0
  -27.0002  -28.7049   20.0909 C   0  0  0  0  0  0  0  0  0  0  0  0
  -25.2126  -26.3893   19.6581 C   0  0  0  0  0  0  0  0  0  0  0  0
  -23.8403  -30.2865   25.2312 C   0  0  0  0  0  0  0  0  0  0  0  0
  -22.5683  -17.0090   22.6993 C   0  0  0  0  0  0  0  0  0  0  0  0
  -24.4459  -28.8941   25.0847 C   0  0  0  0  0  0  0  0  0  0  0  0
  -22.9538  -15.5282   22.6728 C   0  0  0  0  0  0  0  0  0  0  0  0
  -22.6278  -17.6356   21.3074 C   0  0  0  0  0  0  0  0  0  0  0  0
  -24.2845  -15.9681   20.5698 C   0  0  0  0  0  0  0  0  0  0  0  0
  -25.8604  -28.9668   24.4970 C   0  0  1  0  0  0  0  0  0  0  0  0
  -25.6126  -28.6328   20.7207 C   0  0  1  0  0  0  0  0  0  0  0  0
  -24.3022  -15.3096   21.9590 C   0  0  2  0  0  0  0  0  0  0  0  0
  -20.4269  -27.0054   15.2014 C   0  0  0  0  0  0  0  0  0  0  0  0
  -21.7874  -26.2051   21.6341 C   0  0  0  0  0  0  0  0  0  0  0  0
  -20.3946  -25.5977   19.6443 C   0  0  0  0  0  0  0  0  0  0  0  0
  -20.4088  -27.9464   20.4844 C   0  0  0  0  0  0  0  0  0  0  0  0
  -24.0340  -28.0972   14.6786 C   0  0  0  0  0  0  0  0  0  0  0  0
  -29.5243  -23.2417   14.9909 C   0  0  0  0  0  0  0  0  0  0  0  0
  -28.9385  -20.9511   15.7723 C   0  0  0  0  0  0  0  0  0  0  0  0
  -30.4500  -22.3835   17.1377 C   0  0  0  0  0  0  0  0  0  0  0  0
  -30.3721  -23.6446   17.9755 C   0  0  0  0  0  0  0  0  0  1  0  0
  -22.4438  -27.0473   19.2834 C   0  0  1  0  0  0  0  0  0  0  0  0
  -21.7620  -27.6161   15.5981 C   0  0  2  0  0  0  0  0  0  0  0  0
  -21.2869  -26.6960   20.2609 C   0  0  0  0  0  0  0  0  0  0  0  0
  -23.6853  -12.9285   21.7829 N   0  0  0  0  0  0  0  0  0  0  0  0
  -24.6683  -13.8390   21.8868 N   0  0  0  0  0  0  0  0  0  0  0  0
  -24.7114  -27.7305   20.0011 N   0  0  0  0  0  0  0  0  0  0  0  0
  -23.9353  -17.3920   20.6943 N   0  0  0  0  0  0  0  0  0  0  0  0
  -27.0221  -14.0710   22.0155 N   0  0  0  0  0  0  0  0  0  0  0  0
  -26.4304   -9.6039   21.7135 N   0  0  0  0  0  0  0  0  0  0  0  0
  -25.9625  -18.1327   19.7435 N   0  0  0  0  0  0  0  0  0  0  0  0
  -25.8033  -29.1901   23.0683 N   0  0  0  0  0  0  0  0  0  0  0  0
  -21.9994  -27.5407   17.9844 N   0  0  0  0  0  0  0  0  0  0  0  0
  -22.6894  -27.5139   14.4360 N   0  3  0  0  0  0  0  0  0  0  0  0
  -29.3070  -22.3531   16.1906 N   0  3  1  0  0  0  0  0  0  0  0  0
  -27.9988  -11.2654   21.9084 O   0  0  0  0  0  0  0  0  0  0  0  0
  -25.5388  -26.9751   22.4004 O   0  0  0  0  0  0  0  0  0  0  0  0
  -22.9181  -29.2158   20.1195 O   0  0  0  0  0  0  0  0  0  0  0  0
  -23.0540  -25.9092   16.7182 O   0  0  0  0  0  0  0  0  0  0  0  0
  -24.3459  -19.6509   20.4244 O   0  0  0  0  0  0  0  0  0  0  0  0
  -21.5499   -6.9481   21.3101 O   0  0  0  0  0  0  0  0  0  0  0  0
  -29.1555  -23.6482   18.7212 O   0  0  0  0  0  0  0  0  0  1  0  0
  -23.0865   -2.7870   24.5856 F   0  0  0  0  0  0  0  0  0  0  0  0
  -26.4311  -21.8442   16.7378 F   0  0  0  0  0  0  0  0  0  0  0  0
  -19.7751   -5.8314   23.1118 F   0  0  0  0  0  0  0  0  0  0  0  0
  1  2  1  0  0  0  0
  1  5  2  0  0  0  0
  2  6  2  0  0  0  0
  3 10  2  0  0  0  0
  3 18  1  0  0  0  0
  4 11  1  0  0  0  0
  4 18  2  0  0  0  0
  5 20  1  0  0  0  0
  6 22  1  0  0  0  0
  7 12  2  0  0  0  0
  7 21  1  0  0  0  0
  8  9  2  0  0  0  0
  8 24  1  0  0  0  0
  9 25  1  0  0  0  0
 10 26  1  0  0  0  0
 11 26  2  0  0  0  0
 12 27  1  0  0  0  0
 13 14  2  0  0  0  0
 13 28  1  0  0  0  0
 14 29  1  0  0  0  0
 15 23  1  0  0  0  0
 15 27  2  0  0  0  0
 16 25  2  0  0  0  0
 16 30  1  0  0  0  0
 17 29  2  0  0  0  0
 17 31  1  0  0  0  0
 18 32  1  0  0  0  0
 19 32  1  0  0  0  0
 19 33  2  0  0  0  0
 19 34  1  0  0  0  0
 20 22  2  0  0  0  0
 20 39  1  0  0  0  0
 21 23  2  0  0  0  0
 21 40  1  0  0  0  0
 22 48  1  0  0  0  0
 23 41  1  0  0  0  0
 24 30  2  0  0  0  0
 24 57  1  0  0  0  0
 25 69  1  0  0  0  0
 26 79  1  0  0  0  0
 27 80  1  0  0  0  0
 28 31  2  0  0  0  0
 28 79  1  0  0  0  0
 29 81  1  0  0  0  0
 30 82  1  0  0  0  0
 31 83  1  0  0  0  0
 32 63  2  0  0  0  0
 33 64  1  0  0  0  0
 33 67  1  0  0  0  0
 34 68  1  0  0  0  0
 34 74  2  0  0  0  0
 35 49  1  0  0  0  0
 35 70  1  0  0  0  0
 35 75  2  0  0  0  0
 36 60  1  0  0  0  0
 36 65  1  0  0  0  0
 36 76  2  0  0  0  0
 37 61  1  0  0  0  0
 37 71  1  0  0  0  0
 37 77  2  0  0  0  0
 38 66  1  0  0  0  0
 38 69  1  0  0  0  0
 38 78  2  0  0  0  0
 39 42  1  0  0  0  0
 40 49  1  0  0  0  0
 41 65  1  0  0  0  0
 42 44  1  0  0  0  0
 43 45  1  0  0  0  0
 43 46  1  0  0  0  0
 44 48  1  0  0  0  0
 45 50  1  0  0  0  0
 46 66  1  0  0  0  0
 47 50  1  0  0  0  0
 47 66  1  0  0  0  0
 48 70  1  0  0  0  0
 49 65  1  0  0  0  0
 50 64  1  0  0  0  0
 51 61  1  0  0  0  0
 52 62  1  0  0  0  0
 53 62  1  0  0  0  0
 54 62  1  0  0  0  0
 55 72  1  0  0  0  0
 56 73  1  0  0  0  0
 57 73  1  0  0  0  0
 58 59  1  0  0  0  0
 58 73  1  0  0  0  0
 59 80  1  0  0  0  0
 60 62  1  0  0  0  0
 60 71  1  0  0  0  0
 61 72  1  0  0  0  0
 63 64  1  0  0  0  0
M  CHG  2  72   1  73   1
M  ISO  4  38 100  59 101  69 100  80 101
M  END
> <Batch ID>
0012

> <Smiles>
CNC(C)C(=O)NC(C(=O)N1Cc2cc([101O:1][101CH2:1]CN(C)Cc3ccc([100NH:0][100C:0](=O)N4CCCC(n5nc(-c6ccc(Oc7ccc(F)cc7F)cc6)c(C(N)=O)c5N)C4)cc3F)ccc2CC1C(=O)NC1CCCc2ccccc21)C(C)(C)C

> <Shape>
0.236

> <Color>
0.068

> <Negative vol penalty>
0.000

$$$$

  -OEChem-04042320463D

 84 92  0     1  0  0  0  0  0999 V2000
  -30.6415  -31.8101   15.2246 C   0  0  0  0  0  0  0  0  0  0  0  0
  -30.8337  -30.6226   15.9236 C   0  0  0  0  0  0  0  0  0  0  0  0
  -23.3288   -9.7398   20.0710 C   0  0  0  0  0  0  0  0  0  0  0  0
  -23.9113  -10.0410   22.3963 C   0  0  0  0  0  0  0  0  0  0  0  0
  -29.8602  -32.8242   15.7770 C   0  0  0  0  0  0  0  0  0  0  0  0
  -30.2455  -30.4491   17.1759 C   0  0  0  0  0  0  0  0  0  0  0  0
  -28.0632  -25.2323   19.5272 C   0  0  0  0  0  0  0  0  0  0  0  0
  -30.0298  -17.9505   24.1461 C   0  0  0  0  0  0  0  0  0  0  0  0
  -29.7502  -17.9491   21.7463 C   0  0  0  0  0  0  0  0  0  0  0  0
  -22.6715   -8.5515   20.3896 C   0  0  0  0  0  0  0  0  0  0  0  0
  -23.2539   -8.8527   22.7149 C   0  0  0  0  0  0  0  0  0  0  0  0
  -28.6044  -24.3063   20.4179 C   0  0  0  0  0  0  0  0  0  0  0  0
  -29.2853  -19.1269   24.2322 C   0  0  0  0  0  0  0  0  0  0  0  0
  -29.0056  -19.1255   21.8324 C   0  0  0  0  0  0  0  0  0  0  0  0
  -20.0714   -7.8168   23.1832 C   0  0  0  0  0  0  0  0  0  0  0  0
  -19.2353   -7.8197   24.2996 C   0  0  0  0  0  0  0  0  0  0  0  0
  -27.4552  -25.3948   22.2383 C   0  0  0  0  0  0  0  0  0  0  0  0
  -20.5820   -6.0885   25.3127 C   0  0  0  0  0  0  0  0  0  0  0  0
  -23.9487  -10.4845   21.0744 C   0  0  0  0  0  0  0  0  0  0  0  0
  -24.0775  -13.0070   20.7163 C   0  0  0  0  0  0  0  0  0  0  0  0
  -29.2542  -32.6592   17.0325 C   0  0  0  0  0  0  0  0  0  0  0  0
  -27.2213  -26.2548   19.9876 C   0  0  0  0  0  0  0  0  0  0  0  0
  -29.4565  -31.4625   17.7462 C   0  0  0  0  0  0  0  0  0  0  0  0
  -26.9026  -26.3310   21.3510 C   0  0  0  0  0  0  0  0  0  0  0  0
  -30.2623  -17.3616   22.9032 C   0  0  0  0  0  0  0  0  0  0  0  0
  -22.6340   -8.1079   21.7115 C   0  0  0  0  0  0  0  0  0  0  0  0
  -28.7732  -19.7144   23.0754 C   0  0  0  0  0  0  0  0  0  0  0  0
  -28.3027  -24.3892   21.7741 C   0  0  0  0  0  0  0  0  0  0  0  0
  -21.1628   -6.9497   23.1315 C   0  0  0  0  0  0  0  0  0  0  0  0
  -19.4905   -6.9556   25.3644 C   0  0  0  0  0  0  0  0  0  0  0  0
  -21.4181   -6.0855   24.1963 C   0  0  0  0  0  0  0  0  0  0  0  0
  -24.6284  -11.7118   20.7459 C   0  0  0  0  0  0  0  0  0  0  0  0
  -25.1244  -13.8171   20.3500 C   0  0  0  0  0  0  0  0  0  0  0  0
  -22.7391  -13.4391   20.9951 C   0  0  0  0  0  0  0  0  0  0  0  0
  -27.3505  -29.4308   20.0023 C   0  0  0  0  0  0  0  0  0  0  0  0
  -24.3348  -29.1595   21.1660 C   0  0  0  0  0  0  0  0  0  0  0  0
  -22.0218  -27.2592   22.8048 C   0  0  0  0  0  0  0  0  0  0  0  0
  -30.7441  -14.4626   20.9981 C   0  0  0  0  0  0  0  0  0  0  0  0
  -28.4572  -33.8020   17.6096 C   0  0  0  0  0  0  0  0  0  0  0  0
  -26.6243  -27.2298   19.0102 C   0  0  0  0  0  0  0  0  0  0  0  0
  -25.9877  -27.3975   21.8931 C   0  0  0  0  0  0  0  0  0  0  0  0
  -27.5618  -33.3923   18.7761 C   0  0  0  0  0  0  0  0  0  0  0  0
  -29.4469  -13.1283   18.0719 C   0  0  0  0  0  0  0  0  0  0  0  0
  -28.3345  -32.5221   19.7622 C   0  0  0  0  0  0  0  0  0  0  0  0
  -28.0154  -12.7457   18.4454 C   0  0  0  0  0  0  0  0  0  0  0  0
  -30.4126  -12.7922   19.2020 C   0  0  0  0  0  0  0  0  0  0  0  0
  -28.6288  -13.0624   20.8949 C   0  0  0  0  0  0  0  0  0  0  0  0
  -28.8147  -31.2269   19.0963 C   0  0  1  0  0  0  0  0  0  0  0  0
  -26.1901  -28.5390   19.6619 C   0  0  1  0  0  0  0  0  0  0  0  0
  -27.6064  -13.3825   19.7852 C   0  0  2  0  0  0  0  0  0  0  0  0
  -26.8296  -14.2282   23.6390 C   0  0  0  0  0  0  0  0  0  0  0  0
  -19.6566  -27.3216   23.6412 C   0  0  0  0  0  0  0  0  0  0  0  0
  -25.2059  -30.9344   23.4900 C   0  0  0  0  0  0  0  0  0  0  0  0
  -23.1635  -30.1908   24.7324 C   0  0  0  0  0  0  0  0  0  0  0  0
  -22.9296  -31.4411   22.5866 C   0  0  0  0  0  0  0  0  0  0  0  0
  -21.2327  -24.9795   21.0904 C   0  0  0  0  0  0  0  0  0  0  0  0
  -31.0577  -16.1036   22.8110 C   0  0  0  0  0  0  0  0  0  0  0  0
  -27.8818  -14.8464   22.7289 C   0  0  0  0  0  0  0  0  0  0  0  0
  -29.2965  -14.3959   23.0730 C   0  0  0  0  0  0  0  0  0  0  0  0
  -28.3571  -21.7510   24.2308 C   0  0  0  0  0  0  0  0  0  0  0  0
  -28.0574  -23.1750   23.8043 C   0  0  0  0  0  0  0  0  0  1  0  0
  -23.7266  -29.0422   22.5428 C   0  0  1  0  0  0  0  0  0  0  0  0
  -20.5716  -26.9416   22.4874 C   0  0  2  0  0  0  0  0  0  0  0  0
  -23.7752  -30.3831   23.3283 C   0  0  0  0  0  0  0  0  0  0  0  0
  -25.9245  -11.6953   20.4238 N   0  0  0  0  0  0  0  0  0  0  0  0
  -26.1968  -12.9901   20.1883 N   0  0  0  0  0  0  0  0  0  0  0  0
  -25.4340  -28.3313   20.8986 N   0  0  0  0  0  0  0  0  0  0  0  0
  -29.9908  -13.4087   20.4601 N   0  0  0  0  0  0  0  0  0  0  0  0
  -25.2230  -15.1490   20.1535 N   0  0  0  0  0  0  0  0  0  0  0  0
  -21.7878  -12.4758   21.3574 N   0  0  0  0  0  0  0  0  0  0  0  0
  -27.7235  -30.2833   18.9808 N   0  0  0  0  0  0  0  0  0  0  0  0
  -22.3817  -28.5105   22.3509 N   0  0  0  0  0  0  0  0  0  0  0  0
  -30.3021  -15.0135   22.2105 N   0  0  0  0  0  0  0  0  0  0  0  0
  -20.4075  -25.4852   22.2174 N   0  3  0  0  0  0  0  0  0  0  0  0
  -22.3931  -14.6418   20.9091 O   0  0  0  0  0  0  0  0  0  0  0  0
  -27.8681  -29.3523   21.1103 O   0  0  0  0  0  0  0  0  0  0  0  0
  -23.8478  -29.9514   20.3553 O   0  0  0  0  0  0  0  0  0  0  0  0
  -22.7602  -26.4771   23.3994 O   0  0  0  0  0  0  0  0  0  0  0  0
  -31.7605  -14.8842   20.4314 O   0  0  0  0  0  0  0  0  0  0  0  0
  -21.9925   -6.9485   22.0227 O   0  0  0  0  0  0  0  0  0  0  0  0
  -28.0408  -20.8691   23.1603 O   0  0  0  0  0  0  0  0  0  0  0  0
  -28.8300  -23.4870   22.6458 O   0  0  0  0  0  0  0  0  0  1  0  0
  -18.6884   -6.9596   26.4371 F   0  0  0  0  0  0  0  0  0  0  0  0
  -22.4658   -5.2511   24.1528 F   0  0  0  0  0  0  0  0  0  0  0  0
  1  2  1  0  0  0  0
  1  5  2  0  0  0  0
  2  6  2  0  0  0  0
  3 10  2  0  0  0  0
  3 19  1  0  0  0  0
  4 11  1  0  0  0  0
  4 19  2  0  0  0  0
  5 21  1  0  0  0  0
  6 23  1  0  0  0  0
  7 12  2  0  0  0  0
  7 22  1  0  0  0  0
  8 13  2  0  0  0  0
  8 25  1  0  0  0  0
  9 14  1  0  0  0  0
  9 25  2  0  0  0  0
 10 26  1  0  0  0  0
 11 26  2  0  0  0  0
 12 28  1  0  0  0  0
 13 27  1  0  0  0  0
 14 27  2  0  0  0  0
 15 16  2  0  0  0  0
 15 29  1  0  0  0  0
 16 30  1  0  0  0  0
 17 24  1  0  0  0  0
 17 28  2  0  0  0  0
 18 30  2  0  0  0  0
 18 31  1  0  0  0  0
 19 32  1  0  0  0  0
 20 32  1  0  0  0  0
 20 33  2  0  0  0  0
 20 34  1  0  0  0  0
 21 23  2  0  0  0  0
 21 39  1  0  0  0  0
 22 24  2  0  0  0  0
 22 40  1  0  0  0  0
 23 48  1  0  0  0  0
 24 41  1  0  0  0  0
 25 57  1  0  0  0  0
 26 80  1  0  0  0  0
 27 81  1  0  0  0  0
 28 82  1  0  0  0  0
 29 31  2  0  0  0  0
 29 80  1  0  0  0  0
 30 83  1  0  0  0  0
 31 84  1  0  0  0  0
 32 65  2  0  0  0  0
 33 66  1  0  0  0  0
 33 69  1  0  0  0  0
 34 70  1  0  0  0  0
 34 75  2  0  0  0  0
 35 49  1  0  0  0  0
 35 71  1  0  0  0  0
 35 76  2  0  0  0  0
 36 62  1  0  0  0  0
 36 67  1  0  0  0  0
 36 77  2  0  0  0  0
 37 63  1  0  0  0  0
 37 72  1  0  0  0  0
 37 78  2  0  0  0  0
 38 68  1  0  0  0  0
 38 73  1  0  0  0  0
 38 79  2  0  0  0  0
 39 42  1  0  0  0  0
 40 49  1  0  0  0  0
 41 67  1  0  0  0  0
 42 44  1  0  0  0  0
 43 45  1  0  0  0  0
 43 46  1  0  0  0  0
 44 48  1  0  0  0  0
 45 50  1  0  0  0  0
 46 68  1  0  0  0  0
 47 50  1  0  0  0  0
 47 68  1  0  0  0  0
 48 71  1  0  0  0  0
 49 67  1  0  0  0  0
 50 66  1  0  0  0  0
 51 58  1  0  0  0  0
 52 63  1  0  0  0  0
 53 64  1  0  0  0  0
 54 64  1  0  0  0  0
 55 64  1  0  0  0  0
 56 74  1  0  0  0  0
 57 73  1  0  0  0  0
 58 59  1  0  0  0  0
 59 73  1  0  0  0  0
 60 61  1  0  0  0  0
 60 81  1  0  0  0  0
 61 82  1  0  0  0  0
 62 64  1  0  0  0  0
 62 72  1  0  0  0  0
 63 74  1  0  0  0  0
 65 66  1  0  0  0  0
M  CHG  1  74   1
M  ISO  4  38 100  61 101  73 100  82 101
M  END
> <Batch ID>
0012

> <Smiles>
CCC[100N:0](Cc1ccc(OC[101CH2:1][101O:1]c2ccc3c(c2)CN(C(=O)C(NC(=O)C(C)NC)C(C)(C)C)C(C(=O)NC2CCCc4ccccc42)C3)cc1)[100C:0](=O)N1CCCC(n2nc(-c3ccc(Oc4ccc(F)cc4F)cc3)c(C(N)=O)c2N)C1

> <Shape>
0.298

> <Color>
0.198

> <Negative vol penalty>
0.000

$$$$

  -OEChem-04042320463D

 81 89  0     1  0  0  0  0  0999 V2000
  -16.6897  -29.4611   23.1319 C   0  0  0  0  0  0  0  0  0  0  0  0
  -17.6537  -29.5874   22.1369 C   0  0  0  0  0  0  0  0  0  0  0  0
  -26.5850  -12.6865   21.9931 C   0  0  0  0  0  0  0  0  0  0  0  0
  -25.7693  -14.3575   20.4506 C   0  0  0  0  0  0  0  0  0  0  0  0
  -17.0736  -29.1677   24.4398 C   0  0  0  0  0  0  0  0  0  0  0  0
  -19.0025  -29.4214   22.4495 C   0  0  0  0  0  0  0  0  0  0  0  0
  -25.1332  -27.0212   19.6262 C   0  0  0  0  0  0  0  0  0  0  0  0
  -28.8220  -22.0323   20.5317 C   0  0  0  0  0  0  0  0  0  0  0  0
  -30.6671  -22.6487   21.9643 C   0  0  0  0  0  0  0  0  0  0  0  0
  -25.3403  -12.0575   21.9700 C   0  0  0  0  0  0  0  0  0  0  0  0
  -24.5245  -13.7284   20.4274 C   0  0  0  0  0  0  0  0  0  0  0  0
  -26.4510  -27.4234   19.4131 C   0  0  0  0  0  0  0  0  0  0  0  0
  -29.1192  -23.1028   19.6883 C   0  0  0  0  0  0  0  0  0  0  0  0
  -30.9644  -23.7192   21.1209 C   0  0  0  0  0  0  0  0  0  0  0  0
  -22.4870   -9.8060   22.0365 C   0  0  0  0  0  0  0  0  0  0  0  0
  -22.4646   -8.4169   21.9129 C   0  0  0  0  0  0  0  0  0  0  0  0
  -26.9909  -26.8404   21.6907 C   0  0  0  0  0  0  0  0  0  0  0  0
  -23.6152   -8.5868   19.7952 C   0  0  0  0  0  0  0  0  0  0  0  0
  -26.7995  -13.8366   21.2335 C   0  0  0  0  0  0  0  0  0  0  0  0
  -29.1797  -14.2381   20.4083 C   0  0  0  0  0  0  0  0  0  0  0  0
  -18.4270  -28.9886   24.7666 C   0  0  0  0  0  0  0  0  0  0  0  0
  -24.7311  -26.5350   20.8786 C   0  0  0  0  0  0  0  0  0  0  0  0
  -19.4050  -29.1267   23.7632 C   0  0  0  0  0  0  0  0  0  0  0  0
  -25.6680  -26.4303   21.9165 C   0  0  0  0  0  0  0  0  0  0  0  0
  -29.5959  -21.8053   21.6698 C   0  0  0  0  0  0  0  0  0  0  0  0
  -24.3101  -12.5784   21.1871 C   0  0  0  0  0  0  0  0  0  0  0  0
  -30.1904  -23.9462   19.9829 C   0  0  0  0  0  0  0  0  0  0  0  0
  -27.3794  -27.3357   20.4462 C   0  0  0  0  0  0  0  0  0  0  0  0
  -23.0734  -10.5856   21.0395 C   0  0  0  0  0  0  0  0  0  0  0  0
  -23.0288   -7.8072   20.7923 C   0  0  0  0  0  0  0  0  0  0  0  0
  -23.6375   -9.9760   19.9189 C   0  0  0  0  0  0  0  0  0  0  0  0
  -28.0849  -14.4872   21.2574 C   0  0  0  0  0  0  0  0  0  0  0  0
  -30.1515  -15.1091   20.8365 C   0  0  0  0  0  0  0  0  0  0  0  0
  -29.3069  -13.3031   19.3288 C   0  0  0  0  0  0  0  0  0  0  0  0
  -22.6340  -27.4660   23.0784 C   0  0  0  0  0  0  0  0  0  0  0  0
  -23.4563  -24.6625   24.4878 C   0  0  0  0  0  0  0  0  0  0  0  0
  -25.7688  -22.1825   24.8734 C   0  0  0  0  0  0  0  0  0  0  0  0
  -29.9615  -20.3528   23.6953 C   0  0  0  0  0  0  0  0  0  0  0  0
  -18.7973  -28.7192   26.2036 C   0  0  0  0  0  0  0  0  0  0  0  0
  -23.3122  -26.0803   21.0845 C   0  0  0  0  0  0  0  0  0  0  0  0
  -25.2918  -25.8963   23.2735 C   0  0  0  0  0  0  0  0  0  0  0  0
  -20.2180  -28.1885   26.3773 C   0  0  0  0  0  0  0  0  0  0  0  0
  -31.6554  -17.4075   24.7596 C   0  0  0  0  0  0  0  0  0  0  0  0
  -21.2010  -29.0149   25.5542 C   0  0  0  0  0  0  0  0  0  0  0  0
  -31.0359  -16.3026   23.9007 C   0  0  0  0  0  0  0  0  0  0  0  0
  -30.6229  -18.4591   25.1620 C   0  0  0  0  0  0  0  0  0  0  0  0
  -29.2429  -17.9355   23.1896 C   0  0  0  0  0  0  0  0  0  0  0  0
  -20.8762  -28.9294   24.0580 C   0  0  1  0  0  0  0  0  0  0  0  0
  -22.8907  -26.0828   22.5507 C   0  0  1  0  0  0  0  0  0  0  0  0
  -30.2581  -16.8873   22.7054 C   0  0  2  0  0  0  0  0  0  0  0  0
  -26.7383  -20.0040   25.6554 C   0  0  0  0  0  0  0  0  0  0  0  0
  -24.0606  -26.2563   27.0185 C   0  0  0  0  0  0  0  0  0  0  0  0
  -25.3278  -24.2761   27.8794 C   0  0  0  0  0  0  0  0  0  0  0  0
  -22.8855  -24.0837   27.4097 C   0  0  0  0  0  0  0  0  0  0  0  0
  -24.6824  -20.7270   22.5367 C   0  0  0  0  0  0  0  0  0  0  0  0
  -30.6908  -27.3904   18.9728 C   0  0  0  0  0  0  0  0  0  0  0  0
  -31.0716  -26.1434   19.7552 C   0  0  0  0  0  0  0  0  0  0  0  0
  -29.1843  -27.5901   18.9186 C   0  0  0  0  0  0  0  0  0  1  0  0
  -24.5109  -24.2332   25.4790 C   0  0  1  0  0  0  0  0  0  0  0  0
  -25.6386  -20.6703   24.8434 C   0  0  2  0  0  0  0  0  0  0  0  0
  -24.2031  -24.7242   26.9218 C   0  0  0  0  0  0  0  0  0  0  0  0
  -28.3369  -15.4416   22.1572 N   0  0  0  0  0  0  0  0  0  0  0  0
  -29.6013  -15.7998   21.8759 N   0  0  0  0  0  0  0  0  0  0  0  0
  -23.8910  -25.4702   23.4273 N   0  0  0  0  0  0  0  0  0  0  0  0
  -29.9288  -18.9709   23.9784 N   0  0  0  0  0  0  0  0  0  0  0  0
  -31.4146  -15.3439   20.4217 N   0  0  0  0  0  0  0  0  0  0  0  0
  -28.2117  -12.4841   19.0219 N   0  0  0  0  0  0  0  0  0  0  0  0
  -29.2941  -20.7179   22.5266 N   0  0  0  0  0  0  0  0  0  0  0  0
  -21.3380  -27.6713   23.5117 N   0  0  0  0  0  0  0  0  0  0  0  0
  -24.6244  -22.7842   25.3524 N   0  0  0  0  0  0  0  0  0  0  0  0
  -25.7210  -20.1710   23.4417 N   0  3  0  0  0  0  0  0  0  0  0  0
  -30.3659  -13.1856   18.6670 O   0  0  0  0  0  0  0  0  0  0  0  0
  -23.5446  -28.2859   23.0928 O   0  0  0  0  0  0  0  0  0  0  0  0
  -22.2912  -24.2890   24.6446 O   0  0  0  0  0  0  0  0  0  0  0  0
  -26.7855  -22.7708   24.5118 O   0  0  0  0  0  0  0  0  0  0  0  0
  -30.5621  -21.1498   24.4207 O   0  0  0  0  0  0  0  0  0  0  0  0
  -23.0954  -11.9646   21.1640 O   0  0  0  0  0  0  0  0  0  0  0  0
  -30.4825  -24.9982   19.1542 O   0  0  0  0  0  0  0  0  0  0  0  0
  -28.6662  -27.7281   20.2411 O   0  0  0  0  0  0  0  0  0  1  0  0
  -23.0086   -6.4731   20.6744 F   0  0  0  0  0  0  0  0  0  0  0  0
  -24.2034  -10.7197   18.9583 F   0  0  0  0  0  0  0  0  0  0  0  0
  1  2  1  0  0  0  0
  1  5  2  0  0  0  0
  2  6  2  0  0  0  0
  3 10  2  0  0  0  0
  3 19  1  0  0  0  0
  4 11  1  0  0  0  0
  4 19  2  0  0  0  0
  5 21  1  0  0  0  0
  6 23  1  0  0  0  0
  7 12  2  0  0  0  0
  7 22  1  0  0  0  0
  8 13  2  0  0  0  0
  8 25  1  0  0  0  0
  9 14  1  0  0  0  0
  9 25  2  0  0  0  0
 10 26  1  0  0  0  0
 11 26  2  0  0  0  0
 12 28  1  0  0  0  0
 13 27  1  0  0  0  0
 14 27  2  0  0  0  0
 15 16  2  0  0  0  0
 15 29  1  0  0  0  0
 16 30  1  0  0  0  0
 17 24  1  0  0  0  0
 17 28  2  0  0  0  0
 18 30  2  0  0  0  0
 18 31  1  0  0  0  0
 19 32  1  0  0  0  0
 20 32  1  0  0  0  0
 20 33  2  0  0  0  0
 20 34  1  0  0  0  0
 21 23  2  0  0  0  0
 21 39  1  0  0  0  0
 22 24  2  0  0  0  0
 22 40  1  0  0  0  0
 23 48  1  0  0  0  0
 24 41  1  0  0  0  0
 25 68  1  0  0  0  0
 26 77  1  0  0  0  0
 27 78  1  0  0  0  0
 28 79  1  0  0  0  0
 29 31  2  0  0  0  0
 29 77  1  0  0  0  0
 30 80  1  0  0  0  0
 31 81  1  0  0  0  0
 32 62  2  0  0  0  0
 33 63  1  0  0  0  0
 33 66  1  0  0  0  0
 34 67  1  0  0  0  0
 34 72  2  0  0  0  0
 35 49  1  0  0  0  0
 35 69  1  0  0  0  0
 35 73  2  0  0  0  0
 36 59  1  0  0  0  0
 36 64  1  0  0  0  0
 36 74  2  0  0  0  0
 37 60  1  0  0  0  0
 37 70  1  0  0  0  0
 37 75  2  0  0  0  0
 38 65  1  0  0  0  0
 38 68  1  0  0  0  0
 38 76  2  0  0  0  0
 39 42  1  0  0  0  0
 40 49  1  0  0  0  0
 41 64  1  0  0  0  0
 42 44  1  0  0  0  0
 43 45  1  0  0  0  0
 43 46  1  0  0  0  0
 44 48  1  0  0  0  0
 45 50  1  0  0  0  0
 46 65  1  0  0  0  0
 47 50  1  0  0  0  0
 47 65  1  0  0  0  0
 48 69  1  0  0  0  0
 49 64  1  0  0  0  0
 50 63  1  0  0  0  0
 51 60  1  0  0  0  0
 52 61  1  0  0  0  0
 53 61  1  0  0  0  0
 54 61  1  0  0  0  0
 55 71  1  0  0  0  0
 56 57  1  0  0  0  0
 56 58  1  0  0  0  0
 57 78  1  0  0  0  0
 58 79  1  0  0  0  0
 59 61  1  0  0  0  0
 59 70  1  0  0  0  0
 60 71  1  0  0  0  0
 62 63  1  0  0  0  0
M  CHG  1  71   1
M  ISO  4  38 100  58 101  68 100  79 101
M  END
> <Batch ID>
0012

> <Smiles>
CNC(C)C(=O)NC(C(=O)N1Cc2cc([101O:1][101CH2:1]CCOc3ccc([100NH:0][100C:0](=O)N4CCCC(n5nc(-c6ccc(Oc7ccc(F)cc7F)cc6)c(C(N)=O)c5N)C4)cc3)ccc2CC1C(=O)NC1CCCc2ccccc21)C(C)(C)C

> <Shape>
0.239

> <Color>
0.096

> <Negative vol penalty>
0.000

$$$$

  -OEChem-04042320463D

 82 90  0     1  0  0  0  0  0999 V2000
  -24.5367  -23.1313   13.0288 C   0  0  0  0  0  0  0  0  0  0  0  0
  -24.5126  -22.7159   14.3563 C   0  0  0  0  0  0  0  0  0  0  0  0
  -30.5793  -19.6579   18.8402 C   0  0  0  0  0  0  0  0  0  0  0  0
  -29.1852  -19.9607   20.7901 C   0  0  0  0  0  0  0  0  0  0  0  0
  -24.7466  -24.4755   12.7239 C   0  0  0  0  0  0  0  0  0  0  0  0
  -24.6996  -23.6444   15.3797 C   0  0  0  0  0  0  0  0  0  0  0  0
  -21.3923  -23.0517   19.1686 C   0  0  0  0  0  0  0  0  0  0  0  0
  -25.7601  -16.3123   23.6846 C   0  0  0  0  0  0  0  0  0  0  0  0
  -26.1119  -16.2350   21.2956 C   0  0  0  0  0  0  0  0  0  0  0  0
  -30.2105  -20.9219   18.3802 C   0  0  0  0  0  0  0  0  0  0  0  0
  -28.8164  -21.2248   20.3301 C   0  0  0  0  0  0  0  0  0  0  0  0
  -21.6370  -22.0180   20.0715 C   0  0  0  0  0  0  0  0  0  0  0  0
  -25.2166  -17.5912   23.5633 C   0  0  0  0  0  0  0  0  0  0  0  0
  -25.5683  -17.5139   21.1743 C   0  0  0  0  0  0  0  0  0  0  0  0
  -27.7891  -24.6789   19.8478 C   0  0  0  0  0  0  0  0  0  0  0  0
  -27.7872  -25.7288   20.7660 C   0  0  0  0  0  0  0  0  0  0  0  0
  -22.5712  -23.6068   21.6279 C   0  0  0  0  0  0  0  0  0  0  0  0
  -30.1445  -25.3828   21.1667 C   0  0  0  0  0  0  0  0  0  0  0  0
  -30.0666  -19.1772   20.0452 C   0  0  0  0  0  0  0  0  0  0  0  0
  -31.5383  -17.5533   21.3507 C   0  0  0  0  0  0  0  0  0  0  0  0
  -24.9266  -25.4225   13.7444 C   0  0  0  0  0  0  0  0  0  0  0  0
  -21.7458  -24.3714   19.4846 C   0  0  0  0  0  0  0  0  0  0  0  0
  -24.9135  -25.0023   15.0881 C   0  0  0  0  0  0  0  0  0  0  0  0
  -22.3276  -24.6558   20.7283 C   0  0  0  0  0  0  0  0  0  0  0  0
  -26.2078  -15.6343   22.5508 C   0  0  0  0  0  0  0  0  0  0  0  0
  -29.3291  -21.7055   19.1251 C   0  0  0  0  0  0  0  0  0  0  0  0
  -25.1207  -18.1920   22.3081 C   0  0  0  0  0  0  0  0  0  0  0  0
  -22.2292  -22.2950   21.3002 C   0  0  0  0  0  0  0  0  0  0  0  0
  -28.9687  -23.9808   19.5891 C   0  0  0  0  0  0  0  0  0  0  0  0
  -28.9648  -26.0808   21.4255 C   0  0  0  0  0  0  0  0  0  0  0  0
  -30.1464  -24.3328   20.2485 C   0  0  0  0  0  0  0  0  0  0  0  0
  -30.4467  -17.8712   20.5206 C   0  0  0  0  0  0  0  0  0  0  0  0
  -31.4634  -16.1911   21.5098 C   0  0  0  0  0  0  0  0  0  0  0  0
  -32.5312  -18.4124   21.9266 C   0  0  0  0  0  0  0  0  0  0  0  0
  -23.7307  -26.5209   18.2421 C   0  0  0  0  0  0  0  0  0  0  0  0
  -22.3847  -28.4705   20.4579 C   0  0  0  0  0  0  0  0  0  0  0  0
  -20.7379  -28.7744   23.4316 C   0  0  0  0  0  0  0  0  0  0  0  0
  -26.5876  -12.5420   20.8398 C   0  0  0  0  0  0  0  0  0  0  0  0
  -25.1975  -26.8567   13.3643 C   0  0  0  0  0  0  0  0  0  0  0  0
  -21.4507  -25.4790   18.5106 C   0  0  0  0  0  0  0  0  0  0  0  0
  -22.7073  -26.0585   21.1240 C   0  0  0  0  0  0  0  0  0  0  0  0
  -25.0136  -27.8380   14.5191 C   0  0  0  0  0  0  0  0  0  0  0  0
  -29.9439  -12.2304   19.3101 C   0  0  0  0  0  0  0  0  0  0  0  0
  -25.6995  -27.3159   15.7776 C   0  0  0  0  0  0  0  0  0  0  0  0
  -30.5102  -13.6414   19.4593 C   0  0  0  0  0  0  0  0  0  0  0  0
  -28.4211  -12.2375   19.2159 C   0  0  0  0  0  0  0  0  0  0  0  0
  -28.3175  -14.3529   20.4919 C   0  0  0  0  0  0  0  0  0  0  0  0
  -25.0876  -25.9835   16.2270 C   0  0  1  0  0  0  0  0  0  0  0  0
  -22.3215  -26.7128   18.7270 C   0  0  1  0  0  0  0  0  0  0  0  0
  -29.8466  -14.3773   20.6363 C   0  0  2  0  0  0  0  0  0  0  0  0
  -19.8062  -30.4973   25.0003 C   0  0  0  0  0  0  0  0  0  0  0  0
  -25.2066  -29.1137   21.4238 C   0  0  0  0  0  0  0  0  0  0  0  0
  -24.2024  -30.0406   23.5215 C   0  0  0  0  0  0  0  0  0  0  0  0
  -23.6663  -31.0811   21.3186 C   0  0  0  0  0  0  0  0  0  0  0  0
  -24.7778  -12.8506   22.4857 C   0  0  0  0  0  0  0  0  0  0  0  0
  -17.9881  -27.7190   23.1424 C   0  0  0  0  0  0  0  0  0  0  0  0
  -26.7883  -14.2667   22.6803 C   0  0  0  0  0  0  0  0  0  0  0  0
  -24.1501  -20.0747   23.3892 C   0  0  0  0  0  0  0  0  0  0  0  0
  -23.5873  -21.4431   23.0568 C   0  0  0  0  0  0  0  0  0  1  0  0
  -22.6847  -28.8235   21.8947 C   0  0  1  0  0  0  0  0  0  0  0  0
  -19.5112  -29.5768   23.8263 C   0  0  2  0  0  0  0  0  0  0  0  0
  -23.9347  -29.7379   22.0317 C   0  0  0  0  0  0  0  0  0  0  0  0
  -29.7309  -16.7974   20.1762 N   0  0  0  0  0  0  0  0  0  0  0  0
  -30.3741  -15.7914   20.7929 N   0  0  0  0  0  0  0  0  0  0  0  0
  -22.4043  -27.1062   20.1351 N   0  0  0  0  0  0  0  0  0  0  0  0
  -27.8181  -12.9801   20.3231 N   0  0  0  0  0  0  0  0  0  0  0  0
  -32.2238  -15.3081   22.1914 N   0  0  0  0  0  0  0  0  0  0  0  0
  -32.4604  -19.7869   21.6616 N   0  0  0  0  0  0  0  0  0  0  0  0
  -23.8260  -26.2081   16.8996 N   0  0  0  0  0  0  0  0  0  0  0  0
  -21.4598  -29.4007   22.4376 N   0  0  0  0  0  0  0  0  0  0  0  0
  -26.0461  -13.2725   21.9083 N   0  0  0  0  0  0  0  0  0  0  0  0
  -18.3978  -28.6646   24.2125 N   0  3  0  0  0  0  0  0  0  0  0  0
  -33.4634  -17.9722   22.6413 O   0  0  0  0  0  0  0  0  0  0  0  0
  -24.6626  -26.6487   19.0276 O   0  0  0  0  0  0  0  0  0  0  0  0
  -22.1348  -29.3715   19.6533 O   0  0  0  0  0  0  0  0  0  0  0  0
  -21.0289  -27.7014   23.9555 O   0  0  0  0  0  0  0  0  0  0  0  0
  -26.0109  -11.5486   20.3788 O   0  0  0  0  0  0  0  0  0  0  0  0
  -28.9692  -22.9391   18.6766 O   0  0  0  0  0  0  0  0  0  0  0  0
  -24.5857  -19.4475   22.1890 O   0  0  0  0  0  0  0  0  0  0  0  0
  -22.4698  -21.2878   22.1831 O   0  0  0  0  0  0  0  0  0  1  0  0
  -28.9632  -27.0902   22.3060 F   0  0  0  0  0  0  0  0  0  0  0  0
  -31.2830  -23.6666   20.0032 F   0  0  0  0  0  0  0  0  0  0  0  0
  1  2  1  0  0  0  0
  1  5  2  0  0  0  0
  2  6  2  0  0  0  0
  3 10  2  0  0  0  0
  3 19  1  0  0  0  0
  4 11  1  0  0  0  0
  4 19  2  0  0  0  0
  5 21  1  0  0  0  0
  6 23  1  0  0  0  0
  7 12  2  0  0  0  0
  7 22  1  0  0  0  0
  8 13  2  0  0  0  0
  8 25  1  0  0  0  0
  9 14  1  0  0  0  0
  9 25  2  0  0  0  0
 10 26  1  0  0  0  0
 11 26  2  0  0  0  0
 12 28  1  0  0  0  0
 13 27  1  0  0  0  0
 14 27  2  0  0  0  0
 15 16  2  0  0  0  0
 15 29  1  0  0  0  0
 16 30  1  0  0  0  0
 17 24  1  0  0  0  0
 17 28  2  0  0  0  0
 18 30  2  0  0  0  0
 18 31  1  0  0  0  0
 19 32  1  0  0  0  0
 20 32  1  0  0  0  0
 20 33  2  0  0  0  0
 20 34  1  0  0  0  0
 21 23  2  0  0  0  0
 21 39  1  0  0  0  0
 22 24  2  0  0  0  0
 22 40  1  0  0  0  0
 23 48  1  0  0  0  0
 24 41  1  0  0  0  0
 25 57  1  0  0  0  0
 26 78  1  0  0  0  0
 27 79  1  0  0  0  0
 28 80  1  0  0  0  0
 29 31  2  0  0  0  0
 29 78  1  0  0  0  0
 30 81  1  0  0  0  0
 31 82  1  0  0  0  0
 32 63  2  0  0  0  0
 33 64  1  0  0  0  0
 33 67  1  0  0  0  0
 34 68  1  0  0  0  0
 34 73  2  0  0  0  0
 35 49  1  0  0  0  0
 35 69  1  0  0  0  0
 35 74  2  0  0  0  0
 36 60  1  0  0  0  0
 36 65  1  0  0  0  0
 36 75  2  0  0  0  0
 37 61  1  0  0  0  0
 37 70  1  0  0  0  0
 37 76  2  0  0  0  0
 38 66  1  0  0  0  0
 38 71  1  0  0  0  0
 38 77  2  0  0  0  0
 39 42  1  0  0  0  0
 40 49  1  0  0  0  0
 41 65  1  0  0  0  0
 42 44  1  0  0  0  0
 43 45  1  0  0  0  0
 43 46  1  0  0  0  0
 44 48  1  0  0  0  0
 45 50  1  0  0  0  0
 46 66  1  0  0  0  0
 47 50  1  0  0  0  0
 47 66  1  0  0  0  0
 48 69  1  0  0  0  0
 49 65  1  0  0  0  0
 50 64  1  0  0  0  0
 51 61  1  0  0  0  0
 52 62  1  0  0  0  0
 53 62  1  0  0  0  0
 54 62  1  0  0  0  0
 55 71  1  0  0  0  0
 56 72  1  0  0  0  0
 57 71  1  0  0  0  0
 58 59  1  0  0  0  0
 58 79  1  0  0  0  0
 59 80  1  0  0  0  0
 60 62  1  0  0  0  0
 60 70  1  0  0  0  0
 61 72  1  0  0  0  0
 63 64  1  0  0  0  0
M  CHG  1  72   1
M  ISO  4  38 100  59 101  71 100  80 101
M  END
> <Batch ID>
0012

> <Smiles>
CNC(C)C(=O)NC(C(=O)N1Cc2cc([101O:1][101CH2:1]COc3ccc(C[100N:0](C)[100C:0](=O)N4CCCC(n5nc(-c6ccc(Oc7ccc(F)cc7F)cc6)c(C(N)=O)c5N)C4)cc3)ccc2CC1C(=O)NC1CCCc2ccccc21)C(C)(C)C

> <Shape>
0.218

> <Color>
0.077

> <Negative vol penalty>
0.000

$$$$

  -OEChem-04042320463D

 85 94  0     1  0  0  0  0  0999 V2000
  -19.4347  -33.7638   20.4631 C   0  0  0  0  0  0  0  0  0  0  0  0
  -20.6783  -33.2613   20.0940 C   0  0  0  0  0  0  0  0  0  0  0  0
  -24.9564  -13.6965   20.0771 C   0  0  0  0  0  0  0  0  0  0  0  0
  -23.9004  -14.7831   21.9590 C   0  0  0  0  0  0  0  0  0  0  0  0
  -18.8498  -33.3615   21.6631 C   0  0  0  0  0  0  0  0  0  0  0  0
  -21.3383  -32.3570   20.9253 C   0  0  0  0  0  0  0  0  0  0  0  0
  -24.9027  -27.6883   19.1921 C   0  0  0  0  0  0  0  0  0  0  0  0
  -24.0639  -12.6307   20.1917 C   0  0  0  0  0  0  0  0  0  0  0  0
  -23.0079  -13.7173   22.0736 C   0  0  0  0  0  0  0  0  0  0  0  0
  -26.2867  -27.5503   19.0956 C   0  0  0  0  0  0  0  0  0  0  0  0
  -23.6920   -9.8922   22.1376 C   0  0  0  0  0  0  0  0  0  0  0  0
  -24.2121   -8.6006   22.0545 C   0  0  0  0  0  0  0  0  0  0  0  0
  -31.0092  -22.2470   18.9304 C   0  0  0  0  0  0  0  0  0  0  0  0
  -26.3320  -26.5351   21.2834 C   0  0  0  0  0  0  0  0  0  0  0  0
  -33.3585  -21.5125   17.5344 C   0  0  0  0  0  0  0  0  0  0  0  0
  -22.8148   -8.1617   20.1330 C   0  0  0  0  0  0  0  0  0  0  0  0
  -24.8747  -14.7727   20.9608 C   0  0  0  0  0  0  0  0  0  0  0  0
  -25.6317  -17.0425   20.0761 C   0  0  0  0  0  0  0  0  0  0  0  0
  -19.4986  -32.4444   22.5049 C   0  0  0  0  0  0  0  0  0  0  0  0
  -24.2231  -27.2599   20.3415 C   0  0  0  0  0  0  0  0  0  0  0  0
  -20.7622  -31.9431   22.1384 C   0  0  0  0  0  0  0  0  0  0  0  0
  -31.5774  -20.9960   19.0936 C   0  0  0  0  0  0  0  0  0  0  0  0
  -24.9391  -26.6664   21.3909 C   0  0  0  0  0  0  0  0  0  0  0  0
  -32.7381  -20.6328   18.4036 C   0  0  0  0  0  0  0  0  0  0  0  0
  -31.6289  -23.1436   18.0573 C   0  0  0  0  0  0  0  0  0  0  0  0
  -23.0897  -12.6411   21.1899 C   0  0  0  0  0  0  0  0  0  0  0  0
  -27.0019  -26.9763   20.1425 C   0  0  0  0  0  0  0  0  0  0  0  0
  -22.7333  -10.3185   21.2185 C   0  0  0  0  0  0  0  0  0  0  0  0
  -23.7735   -7.7353   21.0522 C   0  0  0  0  0  0  0  0  0  0  0  0
  -32.7945  -22.7788   17.3639 C   0  0  0  0  0  0  0  0  0  0  0  0
  -22.2947   -9.4533   20.2162 C   0  0  0  0  0  0  0  0  0  0  0  0
  -25.7966  -15.8737   20.8433 C   0  0  0  0  0  0  0  0  0  0  0  0
  -26.7770  -17.7661   20.3021 C   0  0  0  0  0  0  0  0  0  0  0  0
  -24.5406  -17.4388   19.2346 C   0  0  0  0  0  0  0  0  0  0  0  0
  -22.4553  -28.6867   22.5647 C   0  0  0  0  0  0  0  0  0  0  0  0
  -21.9742  -25.6436   23.5800 C   0  0  0  0  0  0  0  0  0  0  0  0
  -23.0824  -22.4178   23.6932 C   0  0  0  0  0  0  0  0  0  0  0  0
  -32.3991  -17.7461   20.6079 C   0  0  0  0  0  0  0  0  0  0  0  0
  -18.8483  -32.0755   23.8148 C   0  0  0  0  0  0  0  0  0  0  0  0
  -22.7268  -27.3914   20.4189 C   0  0  0  0  0  0  0  0  0  0  0  0
  -31.1006  -19.8618   19.9414 C   0  0  0  0  0  0  0  0  0  0  0  0
  -24.2543  -26.1718   22.6379 C   0  0  0  0  0  0  0  0  0  0  0  0
  -33.1400  -19.2420   18.7624 C   0  0  0  0  0  0  0  0  0  0  0  0
  -19.4436  -30.8267   24.4599 C   0  0  0  0  0  0  0  0  0  0  0  0
  -30.4901  -17.1139   23.6768 C   0  0  0  0  0  0  0  0  0  0  0  0
  -20.9676  -30.8900   24.4393 C   0  0  0  0  0  0  0  0  0  0  0  0
  -29.0946  -16.7880   23.1401 C   0  0  0  0  0  0  0  0  0  0  0  0
  -31.5902  -16.7088   22.6978 C   0  0  0  0  0  0  0  0  0  0  0  0
  -30.0288  -16.8977   20.8023 C   0  0  0  0  0  0  0  0  0  0  0  0
  -21.4982  -30.9414   23.0015 C   0  0  1  0  0  0  0  0  0  0  0  0
  -22.2001  -27.3895   21.8507 C   0  0  1  0  0  0  0  0  0  0  0  0
  -28.8931  -17.3612   21.7241 C   0  0  1  0  0  0  0  0  0  0  0  0
  -22.4949  -20.1648   24.6291 C   0  0  0  0  0  0  0  0  0  0  0  0
  -22.9058  -26.5502   26.3405 C   0  0  0  0  0  0  0  0  0  0  0  0
  -23.2071  -24.1414   26.9531 C   0  0  0  0  0  0  0  0  0  0  0  0
  -20.9422  -25.0015   26.3587 C   0  0  0  0  0  0  0  0  0  0  0  0
  -31.7055  -25.3715   16.9660 C   0  0  0  0  0  0  0  0  0  0  0  0
  -22.8881  -21.2186   20.9945 C   0  0  0  0  0  0  0  0  0  0  0  0
  -30.1807  -25.2820   19.9784 C   0  0  0  0  0  0  0  0  0  0  0  0
  -29.8647  -24.8146   18.5627 C   0  0  0  0  0  0  0  0  0  0  0  0
  -28.9451  -25.7434   20.7423 C   0  0  0  0  0  0  0  0  0  1  0  0
  -22.6753  -24.7136   24.5405 C   0  0  1  0  0  0  0  0  0  0  0  0
  -22.3743  -21.0999   23.4359 C   0  0  2  0  0  0  0  0  0  0  0  0
  -22.4460  -25.1127   26.0256 C   0  0  0  0  0  0  0  0  0  0  0  0
  -26.9556  -15.8519   21.5069 N   0  0  0  0  0  0  0  0  0  0  0  0
  -27.5293  -17.0158   21.1573 N   0  0  0  0  0  0  0  0  0  0  0  0
  -22.7907  -26.3284   22.6688 N   0  0  0  0  0  0  0  0  0  0  0  0
  -32.1417  -18.8279   19.7623 N   0  0  0  0  0  0  0  0  0  0  0  0
  -31.3312  -17.2600   21.3686 N   0  0  0  0  0  0  0  0  0  0  0  0
  -27.2041  -18.9645   19.8506 N   0  0  0  0  0  0  0  0  0  0  0  0
  -23.4419  -16.5768   19.1148 N   0  0  0  0  0  0  0  0  0  0  0  0
  -21.4554  -29.6260   22.3996 N   0  0  0  0  0  0  0  0  0  0  0  0
  -22.2242  -23.3668   24.2072 N   0  0  0  0  0  0  0  0  0  0  0  0
  -31.0758  -24.4291   17.8678 N   0  0  3  0  0  0  0  0  0  0  0  0
  -22.9601  -20.4209   22.2456 N   0  3  0  0  0  0  0  0  0  0  0  0
  -24.5472  -18.5175   18.5944 O   0  0  0  0  0  0  0  0  0  0  0  0
  -23.4827  -28.8246   23.2184 O   0  0  0  0  0  0  0  0  0  0  0  0
  -20.7466  -25.7530   23.6314 O   0  0  0  0  0  0  0  0  0  0  0  0
  -24.2781  -22.5873   23.4647 O   0  0  0  0  0  0  0  0  0  0  0  0
  -33.5374  -17.2733   20.7206 O   0  0  0  0  0  0  0  0  0  0  0  0
  -22.2185  -11.6014   21.3019 O   0  0  0  0  0  0  0  0  0  0  0  0
  -28.3626  -26.8401   20.0505 O   0  0  0  0  0  0  0  0  0  1  0  0
  -24.2742   -6.4956   20.9715 F   0  0  0  0  0  0  0  0  0  0  0  0
  -33.3799  -23.6485   16.5274 F   0  0  0  0  0  0  0  0  0  0  0  0
  -21.3747   -9.8575   19.3297 F   0  0  0  0  0  0  0  0  0  0  0  0
  1  2  1  0  0  0  0
  1  5  2  0  0  0  0
  2  6  2  0  0  0  0
  3  8  2  0  0  0  0
  3 17  1  0  0  0  0
  4  9  1  0  0  0  0
  4 17  2  0  0  0  0
  5 19  1  0  0  0  0
  6 21  1  0  0  0  0
  7 10  2  0  0  0  0
  7 20  1  0  0  0  0
  8 26  1  0  0  0  0
  9 26  2  0  0  0  0
 10 27  1  0  0  0  0
 11 12  2  0  0  0  0
 11 28  1  0  0  0  0
 12 29  1  0  0  0  0
 13 22  2  0  0  0  0
 13 25  1  0  0  0  0
 14 23  1  0  0  0  0
 14 27  2  0  0  0  0
 15 24  2  0  0  0  0
 15 30  1  0  0  0  0
 16 29  2  0  0  0  0
 16 31  1  0  0  0  0
 17 32  1  0  0  0  0
 18 32  1  0  0  0  0
 18 33  2  0  0  0  0
 18 34  1  0  0  0  0
 19 21  2  0  0  0  0
 19 39  1  0  0  0  0
 20 23  2  0  0  0  0
 20 40  1  0  0  0  0
 21 50  1  0  0  0  0
 22 24  1  0  0  0  0
 22 41  1  0  0  0  0
 23 42  1  0  0  0  0
 24 43  1  0  0  0  0
 25 30  2  0  0  0  0
 25 74  1  0  0  0  0
 26 81  1  0  0  0  0
 27 82  1  0  0  0  0
 28 31  2  0  0  0  0
 28 81  1  0  0  0  0
 29 83  1  0  0  0  0
 30 84  1  0  0  0  0
 31 85  1  0  0  0  0
 32 65  2  0  0  0  0
 33 66  1  0  0  0  0
 33 70  1  0  0  0  0
 34 71  1  0  0  0  0
 34 76  2  0  0  0  0
 35 51  1  0  0  0  0
 35 72  1  0  0  0  0
 35 77  2  0  0  0  0
 36 62  1  0  0  0  0
 36 67  1  0  0  0  0
 36 78  2  0  0  0  0
 37 63  1  0  0  0  0
 37 73  1  0  0  0  0
 37 79  2  0  0  0  0
 38 68  1  0  0  0  0
 38 69  1  0  0  0  0
 38 80  2  0  0  0  0
 39 44  1  0  0  0  0
 40 51  1  0  0  0  0
 41 68  1  0  0  0  0
 42 67  1  0  0  0  0
 43 68  1  0  0  0  0
 44 46  1  0  0  0  0
 45 47  1  0  0  0  0
 45 48  1  0  0  0  0
 46 50  1  0  0  0  0
 47 52  1  0  0  0  0
 48 69  1  0  0  0  0
 49 52  1  0  0  0  0
 49 69  1  0  0  0  0
 50 72  1  0  0  0  0
 51 67  1  0  0  0  0
 52 66  1  0  0  0  0
 53 63  1  0  0  0  0
 54 64  1  0  0  0  0
 55 64  1  0  0  0  0
 56 64  1  0  0  0  0
 57 74  1  0  0  0  0
 58 75  1  0  0  0  0
 59 60  1  0  0  0  0
 59 61  1  0  0  0  0
 60 74  1  0  0  0  0
 61 82  1  0  0  0  0
 62 64  1  0  0  0  0
 62 73  1  0  0  0  0
 63 75  1  0  0  0  0
 65 66  1  0  0  0  0
M  CHG  1  75   1
M  ISO  4  38 100  61 101  68 100  82 101
M  END
> <Batch ID>
0012

> <Smiles>
CNC(C)C(=O)NC(C(=O)N1Cc2cc([101O:1][101CH2:1]CCN(C)c3cc4c(cc3F)C[100N:0]([100C:0](=O)N3CCCC(n5nc(-c6ccc(Oc7ccc(F)cc7F)cc6)c(C(N)=O)c5N)C3)C4)ccc2CC1C(=O)NC1CCCc2ccccc21)C(C)(C)C

> <Shape>
0.202

> <Color>
0.083

> <Negative vol penalty>
0.000

$$$$

  -OEChem-04042320463D

 84 92  0     1  0  0  0  0  0999 V2000
  -27.7097  -36.3029   20.2857 C   0  0  0  0  0  0  0  0  0  0  0  0
  -28.5462  -35.1913   20.2731 C   0  0  0  0  0  0  0  0  0  0  0  0
  -23.3156   -9.7519   19.8932 C   0  0  0  0  0  0  0  0  0  0  0  0
  -24.1399   -9.7849   22.1640 C   0  0  0  0  0  0  0  0  0  0  0  0
  -26.5872  -36.3198   21.1125 C   0  0  0  0  0  0  0  0  0  0  0  0
  -28.2612  -34.0964   21.0881 C   0  0  0  0  0  0  0  0  0  0  0  0
  -27.2271  -27.5470   18.2724 C   0  0  0  0  0  0  0  0  0  0  0  0
  -22.7171   -8.5142   20.1284 C   0  0  0  0  0  0  0  0  0  0  0  0
  -23.5414   -8.5472   22.3992 C   0  0  0  0  0  0  0  0  0  0  0  0
  -27.2249  -26.2242   17.8293 C   0  0  0  0  0  0  0  0  0  0  0  0
  -20.4462   -7.3655   23.0658 C   0  0  0  0  0  0  0  0  0  0  0  0
  -19.7353   -7.2068   24.2553 C   0  0  0  0  0  0  0  0  0  0  0  0
  -26.7482  -25.4618   20.0742 C   0  0  0  0  0  0  0  0  0  0  0  0
  -28.2927  -19.2841   20.9157 C   0  0  0  0  0  0  0  0  0  0  0  0
  -29.3720  -19.6023   18.3629 C   0  0  0  0  0  0  0  0  0  0  0  0
  -21.2130   -5.4068   24.8983 C   0  0  0  0  0  0  0  0  0  0  0  0
  -24.0271  -10.3873   20.9109 C   0  0  0  0  0  0  0  0  0  0  0  0
  -24.0730  -12.9373   20.8582 C   0  0  0  0  0  0  0  0  0  0  0  0
  -26.2830  -35.2206   21.9310 C   0  0  0  0  0  0  0  0  0  0  0  0
  -26.9744  -27.8336   19.6168 C   0  0  0  0  0  0  0  0  0  0  0  0
  -27.1343  -34.0991   21.9276 C   0  0  0  0  0  0  0  0  0  0  0  0
  -26.7368  -26.7857   20.5214 C   0  0  0  0  0  0  0  0  0  0  0  0
  -28.7641  -18.1743   20.2145 C   0  0  0  0  0  0  0  0  0  0  0  0
  -22.8299   -7.9118   21.3814 C   0  0  0  0  0  0  0  0  0  0  0  0
  -26.9863  -25.1842   18.7280 C   0  0  0  0  0  0  0  0  0  0  0  0
  -21.5405   -6.5448   22.7925 C   0  0  0  0  0  0  0  0  0  0  0  0
  -28.9005  -20.7121   19.0641 C   0  0  0  0  0  0  0  0  0  0  0  0
  -20.1187   -6.2275   25.1716 C   0  0  0  0  0  0  0  0  0  0  0  0
  -28.3608  -20.5531   20.3404 C   0  0  0  0  0  0  0  0  0  0  0  0
  -21.9239   -5.5655   23.7087 C   0  0  0  0  0  0  0  0  0  0  0  0
  -29.3038  -18.3334   18.9382 C   0  0  0  0  0  0  0  0  0  0  0  0
  -24.6461  -11.6656   20.6684 C   0  0  0  0  0  0  0  0  0  0  0  0
  -25.0602  -13.8176   20.4879 C   0  0  0  0  0  0  0  0  0  0  0  0
  -22.7652  -13.2913   21.3273 C   0  0  0  0  0  0  0  0  0  0  0  0
  -26.5895  -30.4604   22.2677 C   0  0  0  0  0  0  0  0  0  0  0  0
  -24.4245  -28.3494   22.7841 C   0  0  0  0  0  0  0  0  0  0  0  0
  -21.9265  -26.0263   22.7567 C   0  0  0  0  0  0  0  0  0  0  0  0
  -30.5636  -15.1569   20.9729 C   0  0  0  0  0  0  0  0  0  0  0  0
  -25.0847  -35.3042   22.8430 C   0  0  0  0  0  0  0  0  0  0  0  0
  -27.0278  -29.2394   20.1503 C   0  0  0  0  0  0  0  0  0  0  0  0
  -26.5040  -27.1390   21.9650 C   0  0  0  0  0  0  0  0  0  0  0  0
  -24.6462  -33.9515   23.3981 C   0  0  0  0  0  0  0  0  0  0  0  0
  -29.4606  -13.0563   18.1317 C   0  0  0  0  0  0  0  0  0  0  0  0
  -25.8509  -33.1690   23.9110 C   0  0  0  0  0  0  0  0  0  0  0  0
  -28.0924  -12.5597   18.5960 C   0  0  0  0  0  0  0  0  0  0  0  0
  -30.3889  -13.3433   19.3079 C   0  0  0  0  0  0  0  0  0  0  0  0
  -28.4488  -13.7851   20.7759 C   0  0  0  0  0  0  0  0  0  0  0  0
  -26.8449  -32.8820   22.7791 C   0  0  1  0  0  0  0  0  0  0  0  0
  -26.0086  -29.4974   21.2745 C   0  0  1  0  0  0  0  0  0  0  0  0
  -27.4738  -13.5308   19.6166 C   0  0  2  0  0  0  0  0  0  0  0  0
  -19.8566  -25.3448   24.0012 C   0  0  0  0  0  0  0  0  0  0  0  0
  -26.1521  -27.1488   24.9927 C   0  0  0  0  0  0  0  0  0  0  0  0
  -24.2010  -25.7223   25.6459 C   0  0  0  0  0  0  0  0  0  0  0  0
  -24.0298  -28.2070   25.7868 C   0  0  0  0  0  0  0  0  0  0  0  0
  -30.7591  -17.3584   22.0658 C   0  0  0  0  0  0  0  0  0  0  0  0
  -20.2167  -26.4510   20.3787 C   0  0  0  0  0  0  0  0  0  0  0  0
  -28.6700  -16.8317   20.8643 C   0  0  0  0  0  0  0  0  0  0  0  0
  -27.8167  -23.5876   17.1728 C   0  0  0  0  0  0  0  0  0  1  0  0
  -28.2644  -22.1423   17.2736 C   0  0  0  0  0  0  0  0  0  0  0  0
  -24.0337  -27.0915   23.5180 C   0  0  1  0  0  0  0  0  0  0  0  0
  -20.4180  -26.1677   22.8521 C   0  0  2  0  0  0  0  0  0  0  0  0
  -24.6145  -27.0416   24.9593 C   0  0  0  0  0  0  0  0  0  0  0  0
  -25.9001  -11.7280   20.2128 N   0  0  0  0  0  0  0  0  0  0  0  0
  -26.1231  -13.0495   20.1131 N   0  0  0  0  0  0  0  0  0  0  0  0
  -25.6216  -28.3126   22.0589 N   0  0  0  0  0  0  0  0  0  0  0  0
  -29.7598  -14.2341   20.2836 N   0  0  0  0  0  0  0  0  0  0  0  0
  -25.1140  -15.1659   20.4495 N   0  0  0  0  0  0  0  0  0  0  0  0
  -21.8752  -12.2625   21.6645 N   0  0  0  0  0  0  0  0  0  0  0  0
  -26.3723  -31.7891   21.9565 N   0  0  0  0  0  0  0  0  0  0  0  0
  -22.5778  -27.0193   23.4575 N   0  0  0  0  0  0  0  0  0  0  0  0
  -29.9634  -16.3650   21.3588 N   0  0  0  0  0  0  0  0  0  0  0  0
  -19.7740  -25.7108   21.5882 N   0  3  0  0  0  0  0  0  0  0  0  0
  -22.3911  -14.4844   21.4284 O   0  0  0  0  0  0  0  0  0  0  0  0
  -27.1896  -30.0308   23.2460 O   0  0  0  0  0  0  0  0  0  0  0  0
  -23.6929  -29.3409   22.8549 O   0  0  0  0  0  0  0  0  0  0  0  0
  -22.4723  -25.1231   22.1269 O   0  0  0  0  0  0  0  0  0  0  0  0
  -31.7527  -14.9186   21.2204 O   0  0  0  0  0  0  0  0  0  0  0  0
  -22.2458   -6.7042   21.6114 O   0  0  0  0  0  0  0  0  0  0  0  0
  -26.9811  -23.8955   18.2879 O   0  0  0  0  0  0  0  0  0  1  0  0
  -28.9663  -21.9576   18.4969 O   0  0  0  0  0  0  0  0  0  0  0  0
  -19.4368   -6.0762   26.3145 F   0  0  0  0  0  0  0  0  0  0  0  0
  -27.9080  -21.6156   21.0200 F   0  0  0  0  0  0  0  0  0  0  0  0
  -22.9750   -4.7748   23.4522 F   0  0  0  0  0  0  0  0  0  0  0  0
  -29.8968  -16.9836   18.0408 Cl  0  0  0  0  0  0  0  0  0  0  0  0
  1  2  1  0  0  0  0
  1  5  2  0  0  0  0
  2  6  2  0  0  0  0
  3  8  2  0  0  0  0
  3 17  1  0  0  0  0
  4  9  1  0  0  0  0
  4 17  2  0  0  0  0
  5 19  1  0  0  0  0
  6 21  1  0  0  0  0
  7 10  2  0  0  0  0
  7 20  1  0  0  0  0
  8 24  1  0  0  0  0
  9 24  2  0  0  0  0
 10 25  1  0  0  0  0
 11 12  2  0  0  0  0
 11 26  1  0  0  0  0
 12 28  1  0  0  0  0
 13 22  1  0  0  0  0
 13 25  2  0  0  0  0
 14 23  2  0  0  0  0
 14 29  1  0  0  0  0
 15 27  1  0  0  0  0
 15 31  2  0  0  0  0
 16 28  2  0  0  0  0
 16 30  1  0  0  0  0
 17 32  1  0  0  0  0
 18 32  1  0  0  0  0
 18 33  2  0  0  0  0
 18 34  1  0  0  0  0
 19 21  2  0  0  0  0
 19 39  1  0  0  0  0
 20 22  2  0  0  0  0
 20 40  1  0  0  0  0
 21 48  1  0  0  0  0
 22 41  1  0  0  0  0
 23 31  1  0  0  0  0
 23 57  1  0  0  0  0
 24 78  1  0  0  0  0
 25 79  1  0  0  0  0
 26 30  2  0  0  0  0
 26 78  1  0  0  0  0
 27 29  2  0  0  0  0
 27 80  1  0  0  0  0
 28 81  1  0  0  0  0
 29 82  1  0  0  0  0
 30 83  1  0  0  0  0
 31 84  1  0  0  0  0
 32 63  2  0  0  0  0
 33 64  1  0  0  0  0
 33 67  1  0  0  0  0
 34 68  1  0  0  0  0
 34 73  2  0  0  0  0
 35 49  1  0  0  0  0
 35 69  1  0  0  0  0
 35 74  2  0  0  0  0
 36 60  1  0  0  0  0
 36 65  1  0  0  0  0
 36 75  2  0  0  0  0
 37 61  1  0  0  0  0
 37 70  1  0  0  0  0
 37 76  2  0  0  0  0
 38 66  1  0  0  0  0
 38 71  1  0  0  0  0
 38 77  2  0  0  0  0
 39 42  1  0  0  0  0
 40 49  1  0  0  0  0
 41 65  1  0  0  0  0
 42 44  1  0  0  0  0
 43 45  1  0  0  0  0
 43 46  1  0  0  0  0
 44 48  1  0  0  0  0
 45 50  1  0  0  0  0
 46 66  1  0  0  0  0
 47 50  1  0  0  0  0
 47 66  1  0  0  0  0
 48 69  1  0  0  0  0
 49 65  1  0  0  0  0
 50 64  1  0  0  0  0
 51 61  1  0  0  0  0
 52 62  1  0  0  0  0
 53 62  1  0  0  0  0
 54 62  1  0  0  0  0
 55 71  1  0  0  0  0
 56 72  1  0  0  0  0
 57 71  1  0  0  0  0
 58 59  1  0  0  0  0
 58 79  1  0  0  0  0
 59 80  1  0  0  0  0
 60 62  1  0  0  0  0
 60 70  1  0  0  0  0
 61 72  1  0  0  0  0
 63 64  1  0  0  0  0
M  CHG  1  72   1
M  ISO  4  38 100  58 101  71 100  79 101
M  END
> <Batch ID>
0012

> <Smiles>
CNC(C)C(=O)NC(C(=O)N1Cc2cc([101O:1][101CH2:1]COc3cc(Cl)c(C[100N:0](C)[100C:0](=O)N4CCCC(n5nc(-c6ccc(Oc7ccc(F)cc7F)cc6)c(C(N)=O)c5N)C4)cc3F)ccc2CC1C(=O)NC1CCCc2ccccc21)C(C)(C)C

> <Shape>
0.358

> <Color>
0.194

> <Negative vol penalty>
0.000

$$$$

  -OEChem-04042320463D

 86 94  0     1  0  0  0  0  0999 V2000
  -30.1586  -23.5282   16.7421 C   0  0  0  0  0  0  0  0  0  0  0  0
  -28.8690  -23.6354   17.2528 C   0  0  0  0  0  0  0  0  0  0  0  0
  -25.0212  -15.8087   20.7982 C   0  0  0  0  0  0  0  0  0  0  0  0
  -24.4825  -14.7207   22.8870 C   0  0  0  0  0  0  0  0  0  0  0  0
  -31.2299  -24.0926   17.4331 C   0  0  0  0  0  0  0  0  0  0  0  0
  -28.6501  -24.3063   18.4555 C   0  0  0  0  0  0  0  0  0  0  0  0
  -24.6721  -27.4326   18.2404 C   0  0  0  0  0  0  0  0  0  0  0  0
  -23.5621  -23.1392   23.8511 C   0  0  0  0  0  0  0  0  0  0  0  0
  -25.2907  -22.9344   22.1757 C   0  0  0  0  0  0  0  0  0  0  0  0
  -25.6644  -14.6509   20.3610 C   0  0  0  0  0  0  0  0  0  0  0  0
  -25.1257  -13.5628   22.4498 C   0  0  0  0  0  0  0  0  0  0  0  0
  -23.4053  -26.8587   18.3383 C   0  0  0  0  0  0  0  0  0  0  0  0
  -22.5906  -23.1263   22.8504 C   0  0  0  0  0  0  0  0  0  0  0  0
  -24.3191  -22.9215   21.1749 C   0  0  0  0  0  0  0  0  0  0  0  0
  -28.6381  -13.1194   20.8466 C   0  0  0  0  0  0  0  0  0  0  0  0
  -29.8822  -13.2627   20.2323 C   0  0  0  0  0  0  0  0  0  0  0  0
  -23.3060  -27.4894   20.6646 C   0  0  0  0  0  0  0  0  0  0  0  0
  -29.0076  -12.2446   18.2234 C   0  0  0  0  0  0  0  0  0  0  0  0
  -24.4303  -15.8437   22.0613 C   0  0  0  0  0  0  0  0  0  0  0  0
  -22.6646  -17.6791   21.9141 C   0  0  0  0  0  0  0  0  0  0  0  0
  -31.0229  -24.7790   18.6400 C   0  0  0  0  0  0  0  0  0  0  0  0
  -25.2710  -28.0305   19.3585 C   0  0  0  0  0  0  0  0  0  0  0  0
  -29.7199  -24.8792   19.1640 C   0  0  0  0  0  0  0  0  0  0  0  0
  -24.5795  -28.0724   20.5776 C   0  0  0  0  0  0  0  0  0  0  0  0
  -24.9122  -23.0434   23.5138 C   0  0  0  0  0  0  0  0  0  0  0  0
  -25.7167  -13.5279   21.1867 C   0  0  0  0  0  0  0  0  0  0  0  0
  -22.9691  -23.0174   21.5123 C   0  0  0  0  0  0  0  0  0  0  0  0
  -22.7232  -26.8845   19.5513 C   0  0  0  0  0  0  0  0  0  0  0  0
  -27.5788  -12.5387   20.1493 C   0  0  0  0  0  0  0  0  0  0  0  0
  -30.0670  -12.8253   18.9208 C   0  0  0  0  0  0  0  0  0  0  0  0
  -27.7635  -12.1013   18.8377 C   0  0  0  0  0  0  0  0  0  0  0  0
  -23.7662  -17.0397   22.5138 C   0  0  0  0  0  0  0  0  0  0  0  0
  -22.4152  -18.7622   22.7211 C   0  0  0  0  0  0  0  0  0  0  0  0
  -21.9323  -17.3255   20.7333 C   0  0  0  0  0  0  0  0  0  0  0  0
  -27.9049  -27.4855   21.0523 C   0  0  0  0  0  0  0  0  0  0  0  0
  -27.0462  -30.2352   22.5437 C   0  0  0  0  0  0  0  0  0  0  0  0
  -24.5657  -32.4248   23.3801 C   0  0  0  0  0  0  0  0  0  0  0  0
  -25.6938  -22.5639   25.8484 C   0  0  0  0  0  0  0  0  0  0  0  0
  -32.2183  -25.3317   19.3751 C   0  0  0  0  0  0  0  0  0  0  0  0
  -26.6269  -28.6687   19.2295 C   0  0  0  0  0  0  0  0  0  0  0  0
  -25.1700  -28.7201   21.8024 C   0  0  0  0  0  0  0  0  0  0  0  0
  -31.8536  -26.3497   20.4525 C   0  0  0  0  0  0  0  0  0  0  0  0
  -23.4969  -20.0056   27.3720 C   0  0  0  0  0  0  0  0  0  0  0  0
  -30.6969  -25.8352   21.3035 C   0  0  0  0  0  0  0  0  0  0  0  0
  -23.3132  -18.9977   26.2389 C   0  0  0  0  0  0  0  0  0  0  0  0
  -24.8346  -20.7324   27.2723 C   0  0  0  0  0  0  0  0  0  0  0  0
  -24.8683  -20.3919   24.8178 C   0  0  0  0  0  0  0  0  0  0  0  0
  -29.4391  -25.6206   20.4531 C   0  0  1  0  0  0  0  0  0  0  0  0
  -27.3566  -28.7962   20.5632 C   0  0  1  0  0  0  0  0  0  0  0  0
  -23.5108  -19.6754   24.8729 C   0  0  1  0  0  0  0  0  0  0  0  0
  -23.5102  -34.5037   24.3081 C   0  0  0  0  0  0  0  0  0  0  0  0
  -28.6441  -21.7783   24.5682 C   0  0  0  0  0  0  0  0  0  0  0  0
  -29.6196  -24.0791   24.7546 C   0  0  0  0  0  0  0  0  0  0  0  0
  -26.8895  -25.2953   24.7360 C   0  0  0  0  0  0  0  0  0  0  0  0
  -27.2304  -28.7145   25.1825 C   0  0  0  0  0  0  0  0  0  0  0  0
  -25.9310  -30.5641   26.2589 C   0  0  0  0  0  0  0  0  0  0  0  0
  -28.1626  -31.0342   25.2481 C   0  0  0  0  0  0  0  0  0  0  0  0
  -24.9084  -33.8788   20.8252 C   0  0  0  0  0  0  0  0  0  0  0  0
  -20.2447  -24.2624   19.4869 C   0  0  0  0  0  0  0  0  0  0  0  0
  -20.8165  -23.7238   20.7890 C   0  0  0  0  0  0  0  0  0  0  0  0
  -21.2057  -25.2167   18.7954 C   0  0  0  0  0  0  0  0  0  1  0  0
  -26.1875  -30.5816   23.7360 C   0  0  1  0  0  0  0  0  0  0  0  0
  -24.4835  -33.9377   23.2859 C   0  0  2  0  0  0  0  0  0  0  0  0
  -28.3706  -23.2235   24.9956 C   0  0  0  0  0  0  0  0  0  0  0  0
  -27.1257  -23.8452   24.3189 C   0  0  1  0  0  0  0  0  0  0  0  0
  -26.8673  -30.2096   25.0840 C   0  0  0  0  0  0  0  0  0  0  0  0
  -24.1876  -17.6646   23.6165 N   0  0  0  0  0  0  0  0  0  0  0  0
  -23.3465  -18.7080   23.7160 N   0  0  0  0  0  0  0  0  0  0  0  0
  -26.5009  -29.3248   21.6274 N   0  0  0  0  0  0  0  0  0  0  0  0
  -25.0350  -21.3212   25.9472 N   0  0  0  0  0  0  0  0  0  0  0  0
  -21.4924  -19.7461   22.6694 N   0  0  0  0  0  0  0  0  0  0  0  0
  -20.8240  -16.4774   20.8633 N   0  0  0  0  0  0  0  0  0  0  0  0
  -28.7923  -26.8859   20.1791 N   0  0  0  0  0  0  0  0  0  0  0  0
  -25.8571  -31.9964   23.6039 N   0  0  0  0  0  0  0  0  0  0  0  0
  -25.9171  -23.0568   24.5486 N   0  0  0  0  0  0  0  0  0  0  0  0
  -24.0294  -34.3481   21.9271 N   0  3  0  0  0  0  0  0  0  0  0  0
  -22.2610  -17.7359   19.5944 O   0  0  0  0  0  0  0  0  0  0  0  0
  -27.5504  -27.0512   22.1420 O   0  0  0  0  0  0  0  0  0  0  0  0
  -28.1569  -30.7588   22.4258 O   0  0  0  0  0  0  0  0  0  0  0  0
  -23.5821  -31.6961   23.2702 O   0  0  0  0  0  0  0  0  0  0  0  0
  -26.1053  -23.1676   26.8468 O   0  0  0  0  0  0  0  0  0  0  0  0
  -26.3440  -12.3978   20.7602 O   0  0  0  0  0  0  0  0  0  0  0  0
  -22.0144  -23.0047   20.5289 O   0  0  0  0  0  0  0  0  0  0  0  0
  -21.4869  -26.3245   19.6498 O   0  0  0  0  0  0  0  0  0  1  0  0
  -31.2613  -12.9643   18.3305 F   0  0  0  0  0  0  0  0  0  0  0  0
  -26.7492  -11.5437   18.1624 F   0  0  0  0  0  0  0  0  0  0  0  0
  1  2  1  0  0  0  0
  1  5  2  0  0  0  0
  2  6  2  0  0  0  0
  3 10  2  0  0  0  0
  3 19  1  0  0  0  0
  4 11  1  0  0  0  0
  4 19  2  0  0  0  0
  5 21  1  0  0  0  0
  6 23  1  0  0  0  0
  7 12  2  0  0  0  0
  7 22  1  0  0  0  0
  8 13  2  0  0  0  0
  8 25  1  0  0  0  0
  9 14  1  0  0  0  0
  9 25  2  0  0  0  0
 10 26  1  0  0  0  0
 11 26  2  0  0  0  0
 12 28  1  0  0  0  0
 13 27  1  0  0  0  0
 14 27  2  0  0  0  0
 15 16  2  0  0  0  0
 15 29  1  0  0  0  0
 16 30  1  0  0  0  0
 17 24  1  0  0  0  0
 17 28  2  0  0  0  0
 18 30  2  0  0  0  0
 18 31  1  0  0  0  0
 19 32  1  0  0  0  0
 20 32  1  0  0  0  0
 20 33  2  0  0  0  0
 20 34  1  0  0  0  0
 21 23  2  0  0  0  0
 21 39  1  0  0  0  0
 22 24  2  0  0  0  0
 22 40  1  0  0  0  0
 23 48  1  0  0  0  0
 24 41  1  0  0  0  0
 25 75  1  0  0  0  0
 26 82  1  0  0  0  0
 27 83  1  0  0  0  0
 28 84  1  0  0  0  0
 29 31  2  0  0  0  0
 29 82  1  0  0  0  0
 30 85  1  0  0  0  0
 31 86  1  0  0  0  0
 32 67  2  0  0  0  0
 33 68  1  0  0  0  0
 33 71  1  0  0  0  0
 34 72  1  0  0  0  0
 34 77  2  0  0  0  0
 35 49  1  0  0  0  0
 35 73  1  0  0  0  0
 35 78  2  0  0  0  0
 36 62  1  0  0  0  0
 36 69  1  0  0  0  0
 36 79  2  0  0  0  0
 37 63  1  0  0  0  0
 37 74  1  0  0  0  0
 37 80  2  0  0  0  0
 38 70  1  0  0  0  0
 38 75  1  0  0  0  0
 38 81  2  0  0  0  0
 39 42  1  0  0  0  0
 40 49  1  0  0  0  0
 41 69  1  0  0  0  0
 42 44  1  0  0  0  0
 43 45  1  0  0  0  0
 43 46  1  0  0  0  0
 44 48  1  0  0  0  0
 45 50  1  0  0  0  0
 46 70  1  0  0  0  0
 47 50  1  0  0  0  0
 47 70  1  0  0  0  0
 48 73  1  0  0  0  0
 49 69  1  0  0  0  0
 50 68  1  0  0  0  0
 51 63  1  0  0  0  0
 52 64  1  0  0  0  0
 53 64  1  0  0  0  0
 54 65  1  0  0  0  0
 55 66  1  0  0  0  0
 56 66  1  0  0  0  0
 57 66  1  0  0  0  0
 58 76  1  0  0  0  0
 59 60  1  0  0  0  0
 59 61  1  0  0  0  0
 60 83  1  0  0  0  0
 61 84  1  0  0  0  0
 62 66  1  0  0  0  0
 62 74  1  0  0  0  0
 63 76  1  0  0  0  0
 64 65  1  0  0  0  0
 65 75  1  0  0  0  0
 67 68  1  0  0  0  0
M  CHG  1  76   1
M  ISO  4  38 100  61 101  75 100  84 101
M  END
> <Batch ID>
0012

> <Smiles>
CNC(C)C(=O)NC(C(=O)N1Cc2cc([101O:1][101CH2:1]CCOc3ccc([100N:0](C(C)C(C)C)[100C:0](=O)N4CCCC(n5nc(-c6ccc(Oc7ccc(F)cc7F)cc6)c(C(N)=O)c5N)C4)cc3)ccc2CC1C(=O)NC1CCCc2ccccc21)C(C)(C)C

> <Shape>
0.217

> <Color>
0.058

> <Negative vol penalty>
0.000

$$$$

  -OEChem-04042320463D

 96105  0     1  0  0  0  0  0999 V2000
  -18.4993  -25.8300   23.7680 C   0  0  0  0  0  0  0  0  0  0  0  0
  -19.8871  -25.7711   23.6908 C   0  0  0  0  0  0  0  0  0  0  0  0
  -24.1347  -15.8603   22.6508 C   0  0  0  0  0  0  0  0  0  0  0  0
  -25.5148  -16.2208   20.7009 C   0  0  0  0  0  0  0  0  0  0  0  0
  -17.8051  -26.8203   23.0742 C   0  0  0  0  0  0  0  0  0  0  0  0
  -20.5814  -26.7019   22.9189 C   0  0  0  0  0  0  0  0  0  0  0  0
  -30.2414  -21.4543   21.7904 C   0  0  0  0  0  0  0  0  0  0  0  0
  -26.0943  -29.0899   24.1070 C   0  0  0  0  0  0  0  0  0  0  0  0
  -23.4343  -14.8639   21.9710 C   0  0  0  0  0  0  0  0  0  0  0  0
  -24.8145  -15.2243   20.0210 C   0  0  0  0  0  0  0  0  0  0  0  0
  -30.7796  -20.4075   22.5387 C   0  0  0  0  0  0  0  0  0  0  0  0
  -27.3711  -28.7799   23.6407 C   0  0  0  0  0  0  0  0  0  0  0  0
  -21.5199  -11.9762   20.8705 C   0  0  0  0  0  0  0  0  0  0  0  0
  -21.2611  -10.7862   21.5506 C   0  0  0  0  0  0  0  0  0  0  0  0
  -27.1786  -30.5163   21.9773 C   0  0  0  0  0  0  0  0  0  0  0  0
  -30.8515  -23.0133   23.5324 C   0  0  0  0  0  0  0  0  0  0  0  0
  -23.6345  -10.4266   21.8245 C   0  0  0  0  0  0  0  0  0  0  0  0
  -25.1749  -16.5389   22.0157 C   0  0  0  0  0  0  0  0  0  0  0  0
  -27.0539  -17.4094   23.5055 C   0  0  0  0  0  0  0  0  0  0  0  0
  -30.2774  -22.7573   22.2872 C   0  0  0  0  0  0  0  0  0  0  0  0
  -18.4919  -27.7696   22.3011 C   0  0  0  0  0  0  0  0  0  0  0  0
  -25.3445  -30.1099   23.5039 C   0  0  0  0  0  0  0  0  0  0  0  0
  -19.8957  -27.7050   22.2130 C   0  0  0  0  0  0  0  0  0  0  0  0
  -25.8936  -30.8391   22.4395 C   0  0  0  0  0  0  0  0  0  0  0  0
  -23.7742  -14.5459   20.6561 C   0  0  0  0  0  0  0  0  0  0  0  0
  -27.9123  -29.4912   22.5738 C   0  0  0  0  0  0  0  0  0  0  0  0
  -22.8360  -12.3914   20.6672 C   0  0  0  0  0  0  0  0  0  0  0  0
  -31.3537  -20.6635   23.7839 C   0  0  0  0  0  0  0  0  0  0  0  0
  -22.3184  -10.0115   22.0276 C   0  0  0  0  0  0  0  0  0  0  0  0
  -31.3896  -21.9664   24.2808 C   0  0  0  0  0  0  0  0  0  0  0  0
  -23.8932  -11.6166   21.1442 C   0  0  0  0  0  0  0  0  0  0  0  0
  -25.8983  -17.5687   22.7173 C   0  0  0  0  0  0  0  0  0  0  0  0
  -27.3465  -18.6770   23.9459 C   0  0  0  0  0  0  0  0  0  0  0  0
  -27.7964  -16.2218   23.8120 C   0  0  0  0  0  0  0  0  0  0  0  0
  -22.5718  -30.2397   21.9549 C   0  0  0  0  0  0  0  0  0  0  0  0
  -23.1133  -33.4366   22.0501 C   0  0  0  0  0  0  0  0  0  0  0  0
  -25.3666  -35.9871   22.3041 C   0  0  0  0  0  0  0  0  0  0  0  0
  -27.3747  -23.9952   22.3821 C   0  0  0  0  0  0  0  0  0  0  0  0
  -17.6950  -28.7925   21.5309 C   0  0  0  0  0  0  0  0  0  0  0  0
  -23.9793  -30.4500   24.0360 C   0  0  0  0  0  0  0  0  0  0  0  0
  -25.1377  -31.9569   21.7705 C   0  0  0  0  0  0  0  0  0  0  0  0
  -18.5315  -29.9696   21.0359 C   0  0  0  0  0  0  0  0  0  0  0  0
  -24.8050  -22.8799   24.4442 C   0  0  0  0  0  0  0  0  0  0  0  0
  -19.8229  -29.4738   20.3932 C   0  0  0  0  0  0  0  0  0  0  0  0
  -24.9311  -21.3641   24.2955 C   0  0  0  0  0  0  0  0  0  0  0  0
  -24.9929  -23.6052   23.1102 C   0  0  0  0  0  0  0  0  0  0  0  0
  -27.7792  -23.3837   19.9418 C   0  0  0  0  0  0  0  0  0  0  0  0
  -26.3728  -21.7374   22.2601 C   0  0  0  0  0  0  0  0  0  0  0  0
  -28.3342  -24.2501   18.8148 C   0  0  0  0  0  0  0  0  0  0  0  0
  -30.4477  -24.0636   20.1467 C   0  0  0  0  0  0  0  0  0  0  0  0
  -29.6885  -23.8976   21.4715 C   0  0  1  0  0  0  0  0  0  0  0  0
  -20.6862  -28.7119   21.4060 C   0  0  1  0  0  0  0  0  0  0  0  0
  -23.1008  -31.1650   23.0141 C   0  0  1  0  0  0  0  0  0  0  0  0
  -26.2485  -20.9872   23.5950 C   0  0  2  0  0  0  0  0  0  0  0  0
  -25.5137  -38.4922   22.3121 C   0  0  0  0  0  0  0  0  0  0  0  0
  -30.1385  -28.5448   17.6695 C   0  0  0  0  0  0  0  0  0  0  0  0
  -22.7189  -33.4670   19.0247 C   0  0  0  0  0  0  0  0  0  0  0  0
  -23.7914  -35.7288   18.9776 C   0  0  0  0  0  0  0  0  0  0  0  0
  -21.6637  -35.3852   20.2336 C   0  0  0  0  0  0  0  0  0  0  0  0
  -26.4981  -36.0277   25.0385 C   0  0  0  0  0  0  0  0  0  0  0  0
  -34.4077  -25.5311   16.1645 C   0  0  0  0  0  0  0  0  0  0  0  0
  -33.8158  -24.7626   18.4579 C   0  0  0  0  0  0  0  0  0  0  0  0
  -31.8069  -18.3344   23.9443 C   0  0  0  0  0  0  0  0  0  0  0  0
  -30.3979  -25.4333   18.0520 C   0  0  0  0  0  0  0  0  0  0  0  0
  -32.5760  -26.6570   17.4212 C   0  0  0  0  0  0  0  0  0  0  0  0
  -29.5907  -27.8374   22.2516 C   0  0  0  0  0  0  0  0  0  1  0  0
  -30.5555  -27.5039   21.1302 C   0  0  0  0  0  0  0  0  0  0  0  0
  -23.8152  -34.4291   21.1550 C   0  0  1  0  0  0  0  0  0  0  0  0
  -25.3785  -37.2388   23.1628 C   0  0  2  0  0  0  0  0  0  0  0  0
  -31.4563  -26.4707   18.4662 C   0  0  1  0  0  0  0  0  0  0  0  0
  -30.8546  -27.8556   18.8259 C   0  0  2  0  0  0  0  0  0  0  0  0
  -23.0110  -34.7302   19.8588 C   0  0  0  0  0  0  0  0  0  0  0  0
  -25.4850  -18.8374   22.6587 N   0  0  0  0  0  0  0  0  0  0  0  0
  -26.3857  -19.4869   23.4157 N   0  0  0  0  0  0  0  0  0  0  0  0
  -23.8042  -32.2474   22.3229 N   0  0  0  0  0  0  0  0  0  0  0  0
  -26.2362  -23.1818   22.4551 N   0  0  0  0  0  0  0  0  0  0  0  0
  -28.2242  -23.8155   21.2737 N   0  0  0  0  0  0  0  0  0  0  0  0
  -28.3293  -19.1667   24.7311 N   0  0  0  0  0  0  0  0  0  0  0  0
  -27.3577  -15.0029   23.2771 N   0  0  0  0  0  0  0  0  0  0  0  0
  -21.3722  -29.6371   22.2824 N   0  0  0  0  0  0  0  0  0  0  0  0
  -24.0829  -35.6033   21.9785 N   0  0  0  0  0  0  0  0  0  0  0  0
  -29.6178  -24.9302   19.2327 N   0  3  1  0  0  0  0  0  0  0  0  0
  -26.5175  -37.1975   24.1230 N   0  3  0  0  0  0  0  0  0  0  0  0
  -33.3031  -25.3865   17.1828 N   0  3  0  0  0  0  0  0  0  0  0  0
  -28.8091  -16.2385   24.5520 O   0  0  0  0  0  0  0  0  0  0  0  0
  -23.2044  -30.0851   20.9169 O   0  0  0  0  0  0  0  0  0  0  0  0
  -21.9964  -33.7095   22.4968 O   0  0  0  0  0  0  0  0  0  0  0  0
  -26.3935  -35.4097   21.9539 O   0  0  0  0  0  0  0  0  0  0  0  0
  -27.6222  -24.8255   23.2658 O   0  0  0  0  0  0  0  0  0  0  0  0
  -23.0912  -13.5734   19.9925 O   0  0  0  0  0  0  0  0  0  0  0  0
  -31.8779  -19.6409   24.5133 O   0  0  0  0  0  0  0  0  0  0  0  0
  -29.1666  -29.1882   22.1131 O   0  0  0  0  0  0  0  0  0  1  0  0
  -29.9057  -27.7024   19.8859 O   0  0  0  0  0  0  0  0  0  0  0  0
  -22.0697   -8.8696   22.6821 F   0  0  0  0  0  0  0  0  0  0  0  0
  -31.9395  -22.2185   25.4765 F   0  0  0  0  0  0  0  0  0  0  0  0
  -25.1597  -12.0109   20.9531 F   0  0  0  0  0  0  0  0  0  0  0  0
  1  2  1  0  0  0  0
  1  5  2  0  0  0  0
  2  6  2  0  0  0  0
  3  9  2  0  0  0  0
  3 18  1  0  0  0  0
  4 10  1  0  0  0  0
  4 18  2  0  0  0  0
  5 21  1  0  0  0  0
  6 23  1  0  0  0  0
  7 11  2  0  0  0  0
  7 20  1  0  0  0  0
  8 12  2  0  0  0  0
  8 22  1  0  0  0  0
  9 25  1  0  0  0  0
 10 25  2  0  0  0  0
 11 28  1  0  0  0  0
 12 26  1  0  0  0  0
 13 14  2  0  0  0  0
 13 27  1  0  0  0  0
 14 29  1  0  0  0  0
 15 24  1  0  0  0  0
 15 26  2  0  0  0  0
 16 20  2  0  0  0  0
 16 30  1  0  0  0  0
 17 29  2  0  0  0  0
 17 31  1  0  0  0  0
 18 32  1  0  0  0  0
 19 32  1  0  0  0  0
 19 33  2  0  0  0  0
 19 34  1  0  0  0  0
 20 51  1  0  0  0  0
 21 23  2  0  0  0  0
 21 39  1  0  0  0  0
 22 24  2  0  0  0  0
 22 40  1  0  0  0  0
 23 52  1  0  0  0  0
 24 41  1  0  0  0  0
 25 90  1  0  0  0  0
 26 92  1  0  0  0  0
 27 31  2  0  0  0  0
 27 90  1  0  0  0  0
 28 30  2  0  0  0  0
 28 91  1  0  0  0  0
 29 94  1  0  0  0  0
 30 95  1  0  0  0  0
 31 96  1  0  0  0  0
 32 73  2  0  0  0  0
 33 74  1  0  0  0  0
 33 78  1  0  0  0  0
 34 79  1  0  0  0  0
 34 85  2  0  0  0  0
 35 53  1  0  0  0  0
 35 80  1  0  0  0  0
 35 86  2  0  0  0  0
 36 68  1  0  0  0  0
 36 75  1  0  0  0  0
 36 87  2  0  0  0  0
 37 69  1  0  0  0  0
 37 81  1  0  0  0  0
 37 88  2  0  0  0  0
 38 76  1  0  0  0  0
 38 77  1  0  0  0  0
 38 89  2  0  0  0  0
 39 42  1  0  0  0  0
 40 53  1  0  0  0  0
 41 75  1  0  0  0  0
 42 44  1  0  0  0  0
 43 45  1  0  0  0  0
 43 46  1  0  0  0  0
 44 52  1  0  0  0  0
 45 54  1  0  0  0  0
 46 76  1  0  0  0  0
 47 49  1  0  0  0  0
 47 77  1  0  0  0  0
 48 54  1  0  0  0  0
 48 76  1  0  0  0  0
 49 82  1  0  0  0  0
 50 51  1  0  0  0  0
 50 82  1  0  0  0  0
 51 77  1  0  0  0  0
 52 80  1  0  0  0  0
 53 75  1  0  0  0  0
 54 74  1  0  0  0  0
 55 69  1  0  0  0  0
 56 71  1  0  0  0  0
 57 72  1  0  0  0  0
 58 72  1  0  0  0  0
 59 72  1  0  0  0  0
 60 83  1  0  0  0  0
 61 84  1  0  0  0  0
 62 84  1  0  0  0  0
 63 91  1  0  0  0  0
 64 70  1  0  0  0  0
 64 82  1  0  0  0  0
 65 70  1  0  0  0  0
 65 84  1  0  0  0  0
 66 67  1  0  0  0  0
 66 92  1  0  0  0  0
 67 93  1  0  0  0  0
 68 72  1  0  0  0  0
 68 81  1  0  0  0  0
 69 83  1  0  0  0  0
 70 71  1  0  0  0  0
 71 93  1  0  0  0  0
 73 74  1  0  0  0  0
M  CHG  3  82   1  83   1  84   1
M  ISO  4  38 100  66 101  77 100  92 101
M  END
> <Batch ID>
0012

> <Smiles>
CNC(C)C(=O)NC(C(=O)N1Cc2cc([101O:1][101CH2:1]COC(C)C(CN(C)C)CN3CC[100N:0]([100C:0](=O)N4CCCC(n5nc(-c6ccc(Oc7ccc(F)cc7F)cc6)c(C(N)=O)c5N)C4)C(c4ccc(OC)c(F)c4)C3)ccc2CC1C(=O)NC1CCCc2ccccc21)C(C)(C)C

> <Shape>
0.233

> <Color>
0.072

> <Negative vol penalty>
0.000

$$$$

  -OEChem-04042320463D

 83 91  0     1  0  0  0  0  0999 V2000
  -32.0418  -23.5754   18.0447 C   0  0  0  0  0  0  0  0  0  0  0  0
  -30.8106  -23.3853   18.6640 C   0  0  0  0  0  0  0  0  0  0  0  0
  -27.0748  -17.6544   19.0888 C   0  0  0  0  0  0  0  0  0  0  0  0
  -28.0122  -17.2376   21.2762 C   0  0  0  0  0  0  0  0  0  0  0  0
  -32.8279  -24.6764   18.3821 C   0  0  0  0  0  0  0  0  0  0  0  0
  -30.3654  -24.2956   19.6220 C   0  0  0  0  0  0  0  0  0  0  0  0
  -25.5022  -25.5584   18.9895 C   0  0  0  0  0  0  0  0  0  0  0  0
  -19.8813  -16.3134   20.9249 C   0  0  0  0  0  0  0  0  0  0  0  0
  -27.6447  -18.9275   19.0871 C   0  0  0  0  0  0  0  0  0  0  0  0
  -28.5822  -18.5107   21.2745 C   0  0  0  0  0  0  0  0  0  0  0  0
  -24.5449  -24.6430   19.4248 C   0  0  0  0  0  0  0  0  0  0  0  0
  -19.8901  -17.6703   21.2477 C   0  0  0  0  0  0  0  0  0  0  0  0
  -29.9840  -21.7842   22.0018 C   0  0  0  0  0  0  0  0  0  0  0  0
  -29.8681  -22.5480   23.1631 C   0  0  0  0  0  0  0  0  0  0  0  0
  -24.2346  -25.9343   21.4386 C   0  0  0  0  0  0  0  0  0  0  0  0
  -20.7248  -18.1899   19.0408 C   0  0  0  0  0  0  0  0  0  0  0  0
  -27.4605  -22.4566   22.9828 C   0  0  0  0  0  0  0  0  0  0  0  0
  -27.2585  -16.8095   20.1834 C   0  0  0  0  0  0  0  0  0  0  0  0
  -27.2487  -14.3026   19.7108 C   0  0  0  0  0  0  0  0  0  0  0  0
  -32.3877  -25.6058   19.3376 C   0  0  0  0  0  0  0  0  0  0  0  0
  -25.8414  -26.6645   19.7818 C   0  0  0  0  0  0  0  0  0  0  0  0
  -31.1469  -25.4093   19.9734 C   0  0  0  0  0  0  0  0  0  0  0  0
  -25.1947  -26.8636   21.0100 C   0  0  0  0  0  0  0  0  0  0  0  0
  -20.2944  -15.8947   19.6601 C   0  0  0  0  0  0  0  0  0  0  0  0
  -28.3985  -19.3556   20.1799 C   0  0  0  0  0  0  0  0  0  0  0  0
  -23.9130  -24.8293   20.6508 C   0  0  0  0  0  0  0  0  0  0  0  0
  -20.3118  -18.6086   20.3057 C   0  0  0  0  0  0  0  0  0  0  0  0
  -28.8382  -21.3566   21.3309 C   0  0  0  0  0  0  0  0  0  0  0  0
  -28.6064  -22.8842   23.6537 C   0  0  0  0  0  0  0  0  0  0  0  0
  -20.7161  -16.8330   18.7181 C   0  0  0  0  0  0  0  0  0  0  0  0
  -27.5765  -21.6928   21.8214 C   0  0  0  0  0  0  0  0  0  0  0  0
  -26.6695  -15.4945   20.1860 C   0  0  0  0  0  0  0  0  0  0  0  0
  -26.2935  -13.3422   19.9381 C   0  0  0  0  0  0  0  0  0  0  0  0
  -28.5352  -14.0832   19.1172 C   0  0  0  0  0  0  0  0  0  0  0  0
  -28.5005  -27.6790   21.1973 C   0  0  0  0  0  0  0  0  0  0  0  0
  -26.6831  -30.2786   21.8765 C   0  0  0  0  0  0  0  0  0  0  0  0
  -23.5682  -31.5992   22.3239 C   0  0  0  0  0  0  0  0  0  0  0  0
  -20.4843  -13.5027   20.3187 C   0  0  0  0  0  0  0  0  0  0  0  0
  -33.2935  -26.7548   19.7038 C   0  0  0  0  0  0  0  0  0  0  0  0
  -26.8567  -27.6572   19.2859 C   0  0  0  0  0  0  0  0  0  0  0  0
  -25.5083  -28.0459   21.8888 C   0  0  0  0  0  0  0  0  0  0  0  0
  -32.5815  -27.8757   20.4567 C   0  0  0  0  0  0  0  0  0  0  0  0
  -22.6599  -12.2792   22.8510 C   0  0  0  0  0  0  0  0  0  0  0  0
  -31.7101  -27.3018   21.5694 C   0  0  0  0  0  0  0  0  0  0  0  0
  -24.0004  -12.8644   22.4081 C   0  0  0  0  0  0  0  0  0  0  0  0
  -21.5080  -13.2620   22.6383 C   0  0  0  0  0  0  0  0  0  0  0  0
  -22.7561  -14.3749   20.8140 C   0  0  0  0  0  0  0  0  0  0  0  0
  -30.6184  -26.3881   20.9994 C   0  0  1  0  0  0  0  0  0  0  0  0
  -27.4957  -28.4696   20.4080 C   0  0  1  0  0  0  0  0  0  0  0  0
  -23.9241  -13.3875   20.9629 C   0  0  1  0  0  0  0  0  0  0  0  0
  -22.4031  -33.7434   22.9089 C   0  0  0  0  0  0  0  0  0  0  0  0
  -27.4468  -29.8917   24.8052 C   0  0  0  0  0  0  0  0  0  0  0  0
  -25.5561  -31.4107   25.4266 C   0  0  0  0  0  0  0  0  0  0  0  0
  -27.4390  -32.2710   24.0346 C   0  0  0  0  0  0  0  0  0  0  0  0
  -19.8224  -14.0875   17.9959 C   0  0  0  0  0  0  0  0  0  0  0  0
  -22.1520  -31.6736   19.7263 C   0  0  0  0  0  0  0  0  0  0  0  0
  -21.6520  -21.9331   20.8650 C   0  0  0  0  0  0  0  0  0  0  0  0
  -22.6946  -22.8328   20.2203 C   0  0  0  0  0  0  0  0  0  1  0  0
  -21.2977  -20.7482   19.9803 C   0  0  0  0  0  0  0  0  0  0  0  0
  -25.7669  -30.6763   23.0085 C   0  0  1  0  0  0  0  0  0  0  0  0
  -22.9225  -32.8623   21.7835 C   0  0  2  0  0  0  0  0  0  0  0  0
  -26.5475  -31.0390   24.3033 C   0  0  0  0  0  0  0  0  0  0  0  0
  -25.4413  -15.3106   20.6778 N   0  0  0  0  0  0  0  0  0  0  0  0
  -25.2410  -13.9920   20.5129 N   0  0  0  0  0  0  0  0  0  0  0  0
  -26.5127  -28.9851   21.3630 N   0  0  0  0  0  0  0  0  0  0  0  0
  -21.5002  -13.7646   21.2572 N   0  0  0  0  0  0  0  0  0  0  0  0
  -26.2595  -12.0138   19.7003 N   0  0  0  0  0  0  0  0  0  0  0  0
  -29.3932  -15.1799   18.9576 N   0  0  0  0  0  0  0  0  0  0  0  0
  -29.5411  -27.1761   20.4399 N   0  0  0  0  0  0  0  0  0  0  0  0
  -24.9277  -31.7536   22.4951 N   0  0  0  0  0  0  0  0  0  0  0  0
  -20.2843  -14.4891   19.3291 N   0  0  0  0  0  0  0  0  0  0  0  0
  -21.7802  -32.5187   20.8902 N   0  3  0  0  0  0  0  0  0  0  0  0
  -28.9063  -12.9512   18.7244 O   0  0  0  0  0  0  0  0  0  0  0  0
  -28.3441  -27.5370   22.4044 O   0  0  0  0  0  0  0  0  0  0  0  0
  -27.5145  -31.0884   21.4585 O   0  0  0  0  0  0  0  0  0  0  0  0
  -22.9299  -30.5790   22.5731 O   0  0  0  0  0  0  0  0  0  0  0  0
  -19.8245  -12.4568   20.3466 O   0  0  0  0  0  0  0  0  0  0  0  0
  -28.9550  -20.5977   20.1785 O   0  0  0  0  0  0  0  0  0  0  0  0
  -22.9787  -23.9371   21.0784 O   0  0  0  0  0  0  0  0  0  1  0  0
  -20.3192  -19.9421   20.6226 O   0  0  0  0  0  0  0  0  0  0  0  0
  -28.4952  -23.6164   24.7698 F   0  0  0  0  0  0  0  0  0  0  0  0
  -21.1157  -16.4418   17.4995 F   0  0  0  0  0  0  0  0  0  0  0  0
  -26.4721  -21.2840   21.1819 F   0  0  0  0  0  0  0  0  0  0  0  0
  1  2  1  0  0  0  0
  1  5  2  0  0  0  0
  2  6  2  0  0  0  0
  3  9  2  0  0  0  0
  3 18  1  0  0  0  0
  4 10  1  0  0  0  0
  4 18  2  0  0  0  0
  5 20  1  0  0  0  0
  6 22  1  0  0  0  0
  7 11  2  0  0  0  0
  7 21  1  0  0  0  0
  8 12  2  0  0  0  0
  8 24  1  0  0  0  0
  9 25  1  0  0  0  0
 10 25  2  0  0  0  0
 11 26  1  0  0  0  0
 12 27  1  0  0  0  0
 13 14  2  0  0  0  0
 13 28  1  0  0  0  0
 14 29  1  0  0  0  0
 15 23  1  0  0  0  0
 15 26  2  0  0  0  0
 16 27  2  0  0  0  0
 16 30  1  0  0  0  0
 17 29  2  0  0  0  0
 17 31  1  0  0  0  0
 18 32  1  0  0  0  0
 19 32  1  0  0  0  0
 19 33  2  0  0  0  0
 19 34  1  0  0  0  0
 20 22  2  0  0  0  0
 20 39  1  0  0  0  0
 21 23  2  0  0  0  0
 21 40  1  0  0  0  0
 22 48  1  0  0  0  0
 23 41  1  0  0  0  0
 24 30  2  0  0  0  0
 24 71  1  0  0  0  0
 25 78  1  0  0  0  0
 26 79  1  0  0  0  0
 27 80  1  0  0  0  0
 28 31  2  0  0  0  0
 28 78  1  0  0  0  0
 29 81  1  0  0  0  0
 30 82  1  0  0  0  0
 31 83  1  0  0  0  0
 32 63  2  0  0  0  0
 33 64  1  0  0  0  0
 33 67  1  0  0  0  0
 34 68  1  0  0  0  0
 34 73  2  0  0  0  0
 35 49  1  0  0  0  0
 35 69  1  0  0  0  0
 35 74  2  0  0  0  0
 36 60  1  0  0  0  0
 36 65  1  0  0  0  0
 36 75  2  0  0  0  0
 37 61  1  0  0  0  0
 37 70  1  0  0  0  0
 37 76  2  0  0  0  0
 38 66  1  0  0  0  0
 38 71  1  0  0  0  0
 38 77  2  0  0  0  0
 39 42  1  0  0  0  0
 40 49  1  0  0  0  0
 41 65  1  0  0  0  0
 42 44  1  0  0  0  0
 43 45  1  0  0  0  0
 43 46  1  0  0  0  0
 44 48  1  0  0  0  0
 45 50  1  0  0  0  0
 46 66  1  0  0  0  0
 47 50  1  0  0  0  0
 47 66  1  0  0  0  0
 48 69  1  0  0  0  0
 49 65  1  0  0  0  0
 50 64  1  0  0  0  0
 51 61  1  0  0  0  0
 52 62  1  0  0  0  0
 53 62  1  0  0  0  0
 54 62  1  0  0  0  0
 55 71  1  0  0  0  0
 56 72  1  0  0  0  0
 57 58  1  0  0  0  0
 57 59  1  0  0  0  0
 58 79  1  0  0  0  0
 59 80  1  0  0  0  0
 60 62  1  0  0  0  0
 60 70  1  0  0  0  0
 61 72  1  0  0  0  0
 63 64  1  0  0  0  0
M  CHG  1  72   1
M  ISO  4  38 100  58 101  71 100  79 101
M  END
> <Batch ID>
0012

> <Smiles>
CNC(C)C(=O)NC(C(=O)N1Cc2cc([101O:1][101CH2:1]CCOc3ccc([100N:0](C)[100C:0](=O)N4CCCC(n5nc(-c6ccc(Oc7ccc(F)cc7F)cc6)c(C(N)=O)c5N)C4)c(F)c3)ccc2CC1C(=O)NC1CCCc2ccccc21)C(C)(C)C

> <Shape>
0.251

> <Color>
0.064

> <Negative vol penalty>
0.000

$$$$

  -OEChem-04042320463D

 83 92  0     1  0  0  0  0  0999 V2000
  -17.2178  -29.3988   24.4941 C   0  0  0  0  0  0  0  0  0  0  0  0
  -17.8302  -28.1513   24.4280 C   0  0  0  0  0  0  0  0  0  0  0  0
  -27.8882  -17.2601   17.6515 C   0  0  0  0  0  0  0  0  0  0  0  0
  -27.1117  -18.3466   18.0208 C   0  0  0  0  0  0  0  0  0  0  0  0
  -23.4417   -9.6636   20.5913 C   0  0  0  0  0  0  0  0  0  0  0  0
  -24.1946  -10.2235   22.8177 C   0  0  0  0  0  0  0  0  0  0  0  0
  -17.5501  -30.3871   23.5685 C   0  0  0  0  0  0  0  0  0  0  0  0
  -18.7744  -27.8911   23.4355 C   0  0  0  0  0  0  0  0  0  0  0  0
  -23.7563  -24.3635   23.9276 C   0  0  0  0  0  0  0  0  0  0  0  0
  -28.7727  -16.7008   18.5694 C   0  0  0  0  0  0  0  0  0  0  0  0
  -27.2279  -18.8812   19.3053 C   0  0  0  0  0  0  0  0  0  0  0  0
  -22.8691   -8.4894   21.0802 C   0  0  0  0  0  0  0  0  0  0  0  0
  -23.6220   -9.0493   23.3066 C   0  0  0  0  0  0  0  0  0  0  0  0
  -24.0132  -23.0455   23.5523 C   0  0  0  0  0  0  0  0  0  0  0  0
  -20.5402   -7.9435   24.1433 C   0  0  0  0  0  0  0  0  0  0  0  0
  -19.7974   -8.0280   25.3208 C   0  0  0  0  0  0  0  0  0  0  0  0
  -24.9945  -23.8296   21.4929 C   0  0  0  0  0  0  0  0  0  0  0  0
  -21.3017   -6.4632   26.3819 C   0  0  0  0  0  0  0  0  0  0  0  0
  -24.1045  -10.5307   21.4601 C   0  0  0  0  0  0  0  0  0  0  0  0
  -24.0845  -13.0064   20.8452 C   0  0  0  0  0  0  0  0  0  0  0  0
  -18.5060  -30.1421   22.5701 C   0  0  0  0  0  0  0  0  0  0  0  0
  -24.1073  -25.4256   23.0820 C   0  0  0  0  0  0  0  0  0  0  0  0
  -19.1188  -28.8767   22.4948 C   0  0  0  0  0  0  0  0  0  0  0  0
  -24.7433  -25.1603   21.8609 C   0  0  0  0  0  0  0  0  0  0  0  0
  -28.8789  -17.2105   19.8771 C   0  0  0  0  0  0  0  0  0  0  0  0
  -28.1090  -18.3388   20.2645 C   0  0  0  0  0  0  0  0  0  0  0  0
  -22.9593   -8.1823   22.4378 C   0  0  0  0  0  0  0  0  0  0  0  0
  -24.6298  -22.7783   22.3335 C   0  0  0  0  0  0  0  0  0  0  0  0
  -21.6637   -7.1188   24.0849 C   0  0  0  0  0  0  0  0  0  0  0  0
  -20.1782   -7.2878   26.4402 C   0  0  0  0  0  0  0  0  0  0  0  0
  -22.0445   -6.3787   25.2042 C   0  0  0  0  0  0  0  0  0  0  0  0
  -24.6966  -11.7435   20.9556 C   0  0  0  0  0  0  0  0  0  0  0  0
  -25.0589  -13.8150   20.3132 C   0  0  0  0  0  0  0  0  0  0  0  0
  -22.7539  -13.4123   21.1926 C   0  0  0  0  0  0  0  0  0  0  0  0
  -22.5007  -27.7123   21.5675 C   0  0  0  0  0  0  0  0  0  0  0  0
  -25.4756  -28.7666   20.8184 C   0  0  0  0  0  0  0  0  0  0  0  0
  -28.7820  -28.0419   20.3832 C   0  0  0  0  0  0  0  0  0  0  0  0
  -30.4976  -15.4333   20.6216 C   0  0  0  0  0  0  0  0  0  0  0  0
  -18.7978  -31.2260   21.5628 C   0  0  0  0  0  0  0  0  0  0  0  0
  -23.8475  -26.8430   23.5134 C   0  0  0  0  0  0  0  0  0  0  0  0
  -25.1584  -26.2659   20.9262 C   0  0  0  0  0  0  0  0  0  0  0  0
  -20.0827  -30.9929   20.7722 C   0  0  0  0  0  0  0  0  0  0  0  0
  -29.5467  -12.7250   18.2830 C   0  0  0  0  0  0  0  0  0  0  0  0
  -20.1498  -29.5523   20.2753 C   0  0  0  0  0  0  0  0  0  0  0  0
  -28.1877  -12.2783   18.8180 C   0  0  0  0  0  0  0  0  0  0  0  0
  -30.4321  -13.2906   19.3892 C   0  0  0  0  0  0  0  0  0  0  0  0
  -30.2196  -17.5112   21.9037 C   0  0  0  0  0  0  0  0  0  0  0  0
  -29.0220  -18.1883   22.5409 C   0  0  0  0  0  0  0  0  0  0  0  0
  -28.4296  -13.9614   20.6871 C   0  0  0  0  0  0  0  0  0  0  0  0
  -20.1661  -28.5644   21.4480 C   0  0  1  0  0  0  0  0  0  0  0  0
  -23.7823  -27.8209   22.3443 C   0  0  1  0  0  0  0  0  0  0  0  0
  -27.5046  -13.4219   19.5857 C   0  0  2  0  0  0  0  0  0  0  0  0
  -30.9619  -29.1015   19.7334 C   0  0  0  0  0  0  0  0  0  0  0  0
  -24.6091  -28.7495   17.8929 C   0  0  0  0  0  0  0  0  0  0  0  0
  -27.0249  -28.8801   17.2489 C   0  0  0  0  0  0  0  0  0  0  0  0
  -25.9842  -30.7282   18.5620 C   0  0  0  0  0  0  0  0  0  0  0  0
  -30.0019  -27.4139   23.0055 C   0  0  0  0  0  0  0  0  0  0  0  0
  -26.0422  -19.4536   22.4846 C   0  0  0  0  0  0  0  0  0  0  0  0
  -27.3808  -19.9844   21.9858 C   0  0  0  0  0  0  0  0  0  0  0  0
  -25.1244  -20.5520   23.0081 C   0  0  0  0  0  0  0  0  0  1  0  0
  -26.4470  -28.5138   19.6908 C   0  0  1  0  0  0  0  0  0  0  0  0
  -30.0386  -28.7311   20.8836 C   0  0  2  0  0  0  0  0  0  0  0  0
  -26.0068  -29.1968   18.3652 C   0  0  0  0  0  0  0  0  0  0  0  0
  -25.9619  -11.7447   20.5279 N   0  0  0  0  0  0  0  0  0  0  0  0
  -26.1528  -13.0183   20.1435 N   0  0  0  0  0  0  0  0  0  0  0  0
  -29.8002  -16.6350   20.8168 N   0  0  0  0  0  0  0  0  0  0  0  0
  -28.2335  -18.8928   21.5388 N   0  0  3  0  0  0  0  0  0  0  0  0
  -24.8772  -27.6347   21.3898 N   0  0  0  0  0  0  0  0  0  0  0  0
  -29.7485  -14.3365   20.1514 N   0  0  0  0  0  0  0  0  0  0  0  0
  -25.0782  -15.1227   19.9786 N   0  0  0  0  0  0  0  0  0  0  0  0
  -21.8815  -12.4547   21.7276 N   0  0  0  0  0  0  0  0  0  0  0  0
  -21.4822  -28.5133   22.0476 N   0  0  0  0  0  0  0  0  0  0  0  0
  -27.7554  -28.9389   20.1762 N   0  0  0  0  0  0  0  0  0  0  0  0
  -30.7834  -27.8376   21.8152 N   0  3  0  0  0  0  0  0  0  0  0  0
  -22.3455  -14.5854   21.0180 O   0  0  0  0  0  0  0  0  0  0  0  0
  -22.4408  -26.9587   20.6030 O   0  0  0  0  0  0  0  0  0  0  0  0
  -25.2612  -29.9251   21.1837 O   0  0  0  0  0  0  0  0  0  0  0  0
  -28.7186  -26.8296   20.1914 O   0  0  0  0  0  0  0  0  0  0  0  0
  -31.6959  -15.3335   20.9126 O   0  0  0  0  0  0  0  0  0  0  0  0
  -22.4005   -7.0367   22.9153 O   0  0  0  0  0  0  0  0  0  0  0  0
  -24.8829  -21.4836   21.9619 O   0  0  0  0  0  0  0  0  0  1  0  0
  -19.4657   -7.3702   27.5714 F   0  0  0  0  0  0  0  0  0  0  0  0
  -23.1235   -5.5857   25.1546 F   0  0  0  0  0  0  0  0  0  0  0  0
  1  2  1  0  0  0  0
  1  7  2  0  0  0  0
  2  8  2  0  0  0  0
  3  4  1  0  0  0  0
  3 10  2  0  0  0  0
  4 11  2  0  0  0  0
  5 12  2  0  0  0  0
  5 19  1  0  0  0  0
  6 13  1  0  0  0  0
  6 19  2  0  0  0  0
  7 21  1  0  0  0  0
  8 23  1  0  0  0  0
  9 14  2  0  0  0  0
  9 22  1  0  0  0  0
 10 25  1  0  0  0  0
 11 26  1  0  0  0  0
 12 27  1  0  0  0  0
 13 27  2  0  0  0  0
 14 28  1  0  0  0  0
 15 16  2  0  0  0  0
 15 29  1  0  0  0  0
 16 30  1  0  0  0  0
 17 24  1  0  0  0  0
 17 28  2  0  0  0  0
 18 30  2  0  0  0  0
 18 31  1  0  0  0  0
 19 32  1  0  0  0  0
 20 32  1  0  0  0  0
 20 33  2  0  0  0  0
 20 34  1  0  0  0  0
 21 23  2  0  0  0  0
 21 39  1  0  0  0  0
 22 24  2  0  0  0  0
 22 40  1  0  0  0  0
 23 50  1  0  0  0  0
 24 41  1  0  0  0  0
 25 26  2  0  0  0  0
 25 66  1  0  0  0  0
 26 67  1  0  0  0  0
 27 80  1  0  0  0  0
 28 81  1  0  0  0  0
 29 31  2  0  0  0  0
 29 80  1  0  0  0  0
 30 82  1  0  0  0  0
 31 83  1  0  0  0  0
 32 64  2  0  0  0  0
 33 65  1  0  0  0  0
 33 70  1  0  0  0  0
 34 71  1  0  0  0  0
 34 75  2  0  0  0  0
 35 51  1  0  0  0  0
 35 72  1  0  0  0  0
 35 76  2  0  0  0  0
 36 61  1  0  0  0  0
 36 68  1  0  0  0  0
 36 77  2  0  0  0  0
 37 62  1  0  0  0  0
 37 73  1  0  0  0  0
 37 78  2  0  0  0  0
 38 66  1  0  0  0  0
 38 69  1  0  0  0  0
 38 79  2  0  0  0  0
 39 42  1  0  0  0  0
 40 51  1  0  0  0  0
 41 68  1  0  0  0  0
 42 44  1  0  0  0  0
 43 45  1  0  0  0  0
 43 46  1  0  0  0  0
 44 50  1  0  0  0  0
 45 52  1  0  0  0  0
 46 69  1  0  0  0  0
 47 48  1  0  0  0  0
 47 66  1  0  0  0  0
 48 67  1  0  0  0  0
 49 52  1  0  0  0  0
 49 69  1  0  0  0  0
 50 72  1  0  0  0  0
 51 68  1  0  0  0  0
 52 65  1  0  0  0  0
 53 62  1  0  0  0  0
 54 63  1  0  0  0  0
 55 63  1  0  0  0  0
 56 63  1  0  0  0  0
 57 74  1  0  0  0  0
 58 59  1  0  0  0  0
 58 60  1  0  0  0  0
 59 67  1  0  0  0  0
 60 81  1  0  0  0  0
 61 63  1  0  0  0  0
 61 73  1  0  0  0  0
 62 74  1  0  0  0  0
 64 65  1  0  0  0  0
M  CHG  1  74   1
M  ISO  4  38 100  60 101  66 100  81 101
M  END
> <Batch ID>
0012

> <Smiles>
CNC(C)C(=O)NC(C(=O)N1Cc2cc([101O:1][101CH2:1]CCN3CC[100N:0]([100C:0](=O)N4CCCC(n5nc(-c6ccc(Oc7ccc(F)cc7F)cc6)c(C(N)=O)c5N)C4)c4ccccc43)ccc2CC1C(=O)NC1CCCc2ccccc21)C(C)(C)C

> <Shape>
0.292

> <Color>
0.196

> <Negative vol penalty>
0.000

$$$$

  -OEChem-04042320463D

 81 89  0     1  0  0  0  0  0999 V2000
  -23.6146  -32.7404   26.6417 C   0  0  0  0  0  0  0  0  0  0  0  0
  -24.8879  -32.2906   26.3072 C   0  0  0  0  0  0  0  0  0  0  0  0
  -24.0433   -9.7225   21.7174 C   0  0  0  0  0  0  0  0  0  0  0  0
  -24.6463  -10.9946   23.6809 C   0  0  0  0  0  0  0  0  0  0  0  0
  -22.4922  -32.0271   26.2230 C   0  0  0  0  0  0  0  0  0  0  0  0
  -25.0395  -31.1265   25.5547 C   0  0  0  0  0  0  0  0  0  0  0  0
  -29.3143  -28.1906   20.6127 C   0  0  0  0  0  0  0  0  0  0  0  0
  -30.7820  -18.9585   20.2106 C   0  0  0  0  0  0  0  0  0  0  0  0
  -23.6164   -8.6717   22.5293 C   0  0  0  0  0  0  0  0  0  0  0  0
  -24.2193   -9.9438   24.4928 C   0  0  0  0  0  0  0  0  0  0  0  0
  -30.0451  -27.0275   20.3746 C   0  0  0  0  0  0  0  0  0  0  0  0
  -31.0681  -20.2797   20.5541 C   0  0  0  0  0  0  0  0  0  0  0  0
  -20.9059   -7.9145   24.4036 C   0  0  0  0  0  0  0  0  0  0  0  0
  -19.6862   -7.3118   24.0959 C   0  0  0  0  0  0  0  0  0  0  0  0
  -28.0319  -25.9204   19.6392 C   0  0  0  0  0  0  0  0  0  0  0  0
  -28.7097  -20.7140   20.8479 C   0  0  0  0  0  0  0  0  0  0  0  0
  -20.8098   -5.1954   23.7874 C   0  0  0  0  0  0  0  0  0  0  0  0
  -24.5583  -10.8839   22.2932 C   0  0  0  0  0  0  0  0  0  0  0  0
  -24.2298  -13.0524   20.9902 C   0  0  0  0  0  0  0  0  0  0  0  0
  -22.6299  -30.8589   25.4568 C   0  0  0  0  0  0  0  0  0  0  0  0
  -27.9326  -28.2242   20.3757 C   0  0  0  0  0  0  0  0  0  0  0  0
  -23.9180  -30.3961   25.1265 C   0  0  0  0  0  0  0  0  0  0  0  0
  -27.2863  -27.0860   19.8726 C   0  0  0  0  0  0  0  0  0  0  0  0
  -29.4598  -18.5150   20.1855 C   0  0  0  0  0  0  0  0  0  0  0  0
  -23.7044   -8.7823   23.9170 C   0  0  0  0  0  0  0  0  0  0  0  0
  -29.4035  -25.8912   19.8905 C   0  0  0  0  0  0  0  0  0  0  0  0
  -30.0320  -21.1575   20.8728 C   0  0  0  0  0  0  0  0  0  0  0  0
  -22.0776   -7.1576   24.4031 C   0  0  0  0  0  0  0  0  0  0  0  0
  -19.6381   -5.9523   23.7878 C   0  0  0  0  0  0  0  0  0  0  0  0
  -28.4236  -19.3928   20.5042 C   0  0  0  0  0  0  0  0  0  0  0  0
  -22.0296   -5.7981   24.0950 C   0  0  0  0  0  0  0  0  0  0  0  0
  -25.0000  -11.9695   21.4550 C   0  0  0  0  0  0  0  0  0  0  0  0
  -25.1046  -13.7986   20.2391 C   0  0  0  0  0  0  0  0  0  0  0  0
  -22.8471  -13.3565   21.2173 C   0  0  0  0  0  0  0  0  0  0  0  0
  -25.3581  -28.6945   22.1797 C   0  0  0  0  0  0  0  0  0  0  0  0
  -23.8210  -28.6090   19.3245 C   0  0  0  0  0  0  0  0  0  0  0  0
  -23.8043  -27.5722   16.0731 C   0  0  0  0  0  0  0  0  0  0  0  0
  -30.0847  -16.1747   19.4935 C   0  0  0  0  0  0  0  0  0  0  0  0
  -21.3887  -30.0957   25.0674 C   0  0  0  0  0  0  0  0  0  0  0  0
  -27.1632  -29.4948   20.6123 C   0  0  0  0  0  0  0  0  0  0  0  0
  -25.8084  -27.0763   19.5826 C   0  0  0  0  0  0  0  0  0  0  0  0
  -21.6240  -29.0770   23.9551 C   0  0  0  0  0  0  0  0  0  0  0  0
  -29.7777  -12.7400   18.6070 C   0  0  0  0  0  0  0  0  0  0  0  0
  -22.8783  -28.2567   24.2391 C   0  0  0  0  0  0  0  0  0  0  0  0
  -28.4440  -12.3225   19.2307 C   0  0  0  0  0  0  0  0  0  0  0  0
  -30.5323  -13.7304   19.4921 C   0  0  0  0  0  0  0  0  0  0  0  0
  -28.4284  -14.4960   20.5202 C   0  0  0  0  0  0  0  0  0  0  0  0
  -24.1226  -29.1513   24.2906 C   0  0  1  0  0  0  0  0  0  0  0  0
  -25.6707  -29.2593   20.8229 C   0  0  1  0  0  0  0  0  0  0  0  0
  -27.6023  -13.5488   19.6347 C   0  0  2  0  0  0  0  0  0  0  0  0
  -22.3954  -27.6215   13.9970 C   0  0  0  0  0  0  0  0  0  0  0  0
  -22.0091  -26.4570   20.5059 C   0  0  0  0  0  0  0  0  0  0  0  0
  -21.2863  -25.8860   18.1779 C   0  0  0  0  0  0  0  0  0  0  0  0
  -20.8302  -28.1578   19.1017 C   0  0  0  0  0  0  0  0  0  0  0  0
  -25.8768  -29.0487   14.5620 C   0  0  0  0  0  0  0  0  0  0  0  0
  -31.2612  -24.5267   20.4758 C   0  0  0  0  0  0  0  0  0  1  0  0
  -31.4737  -23.0327   20.6261 C   0  0  0  0  0  0  0  0  0  0  0  0
  -23.1974  -27.5257   18.4781 C   0  0  1  0  0  0  0  0  0  0  0  0
  -23.5008  -28.3106   14.7819 C   0  0  2  0  0  0  0  0  0  0  0  0
  -21.8583  -27.0059   19.0731 C   0  0  0  0  0  0  0  0  0  0  0  0
  -26.2666  -12.0195   21.0342 N   0  0  0  0  0  0  0  0  0  0  0  0
  -26.2990  -13.1428   20.2971 N   0  0  0  0  0  0  0  0  0  0  0  0
  -25.0986  -28.3411   19.8361 N   0  0  0  0  0  0  0  0  0  0  0  0
  -29.6740  -14.8677   19.8310 N   0  0  0  0  0  0  0  0  0  0  0  0
  -24.9610  -14.9452   19.5412 N   0  0  0  0  0  0  0  0  0  0  0  0
  -22.0930  -12.4837   22.0134 N   0  0  0  0  0  0  0  0  0  0  0  0
  -29.1724  -17.1722   19.8360 N   0  0  0  0  0  0  0  0  0  0  0  0
  -24.5475  -29.5037   22.9528 N   0  0  0  0  0  0  0  0  0  0  0  0
  -23.0794  -28.0763   17.1322 N   0  0  0  0  0  0  0  0  0  0  0  0
  -24.7173  -28.3743   13.9234 N   0  3  0  0  0  0  0  0  0  0  0  0
  -22.2926  -14.3634   20.7151 O   0  0  0  0  0  0  0  0  0  0  0  0
  -25.8170  -27.6046   22.5009 O   0  0  0  0  0  0  0  0  0  0  0  0
  -23.2006  -29.6574   19.5185 O   0  0  0  0  0  0  0  0  0  0  0  0
  -24.6016  -26.6390   16.1351 O   0  0  0  0  0  0  0  0  0  0  0  0
  -31.1537  -16.3905   18.9167 O   0  0  0  0  0  0  0  0  0  0  0  0
  -23.2877   -7.7573   24.7095 O   0  0  0  0  0  0  0  0  0  0  0  0
  -30.1143  -24.7543   19.6579 O   0  0  0  0  0  0  0  0  0  1  0  0
  -30.3131  -22.4549   21.2114 O   0  0  0  0  0  0  0  0  0  0  0  0
  -18.4666   -5.3733   23.4939 F   0  0  0  0  0  0  0  0  0  0  0  0
  -27.1490  -18.9774   20.4830 F   0  0  0  0  0  0  0  0  0  0  0  0
  -23.1517   -5.0655   24.0941 F   0  0  0  0  0  0  0  0  0  0  0  0
  1  2  1  0  0  0  0
  1  5  2  0  0  0  0
  2  6  2  0  0  0  0
  3  9  2  0  0  0  0
  3 18  1  0  0  0  0
  4 10  1  0  0  0  0
  4 18  2  0  0  0  0
  5 20  1  0  0  0  0
  6 22  1  0  0  0  0
  7 11  2  0  0  0  0
  7 21  1  0  0  0  0
  8 12  2  0  0  0  0
  8 24  1  0  0  0  0
  9 25  1  0  0  0  0
 10 25  2  0  0  0  0
 11 26  1  0  0  0  0
 12 27  1  0  0  0  0
 13 14  2  0  0  0  0
 13 28  1  0  0  0  0
 14 29  1  0  0  0  0
 15 23  1  0  0  0  0
 15 26  2  0  0  0  0
 16 27  2  0  0  0  0
 16 30  1  0  0  0  0
 17 29  2  0  0  0  0
 17 31  1  0  0  0  0
 18 32  1  0  0  0  0
 19 32  1  0  0  0  0
 19 33  2  0  0  0  0
 19 34  1  0  0  0  0
 20 22  2  0  0  0  0
 20 39  1  0  0  0  0
 21 23  2  0  0  0  0
 21 40  1  0  0  0  0
 22 48  1  0  0  0  0
 23 41  1  0  0  0  0
 24 30  2  0  0  0  0
 24 67  1  0  0  0  0
 25 76  1  0  0  0  0
 26 77  1  0  0  0  0
 27 78  1  0  0  0  0
 28 31  2  0  0  0  0
 28 76  1  0  0  0  0
 29 79  1  0  0  0  0
 30 80  1  0  0  0  0
 31 81  1  0  0  0  0
 32 61  2  0  0  0  0
 33 62  1  0  0  0  0
 33 65  1  0  0  0  0
 34 66  1  0  0  0  0
 34 71  2  0  0  0  0
 35 49  1  0  0  0  0
 35 68  1  0  0  0  0
 35 72  2  0  0  0  0
 36 58  1  0  0  0  0
 36 63  1  0  0  0  0
 36 73  2  0  0  0  0
 37 59  1  0  0  0  0
 37 69  1  0  0  0  0
 37 74  2  0  0  0  0
 38 64  1  0  0  0  0
 38 67  1  0  0  0  0
 38 75  2  0  0  0  0
 39 42  1  0  0  0  0
 40 49  1  0  0  0  0
 41 63  1  0  0  0  0
 42 44  1  0  0  0  0
 43 45  1  0  0  0  0
 43 46  1  0  0  0  0
 44 48  1  0  0  0  0
 45 50  1  0  0  0  0
 46 64  1  0  0  0  0
 47 50  1  0  0  0  0
 47 64  1  0  0  0  0
 48 68  1  0  0  0  0
 49 63  1  0  0  0  0
 50 62  1  0  0  0  0
 51 59  1  0  0  0  0
 52 60  1  0  0  0  0
 53 60  1  0  0  0  0
 54 60  1  0  0  0  0
 55 70  1  0  0  0  0
 56 57  1  0  0  0  0
 56 77  1  0  0  0  0
 57 78  1  0  0  0  0
 58 60  1  0  0  0  0
 58 69  1  0  0  0  0
 59 70  1  0  0  0  0
 61 62  1  0  0  0  0
M  CHG  1  70   1
M  ISO  4  38 100  56 101  67 100  77 101
M  END
> <Batch ID>
0012

> <Smiles>
CNC(C)C(=O)NC(C(=O)N1Cc2cc([101O:1][101CH2:1]COc3ccc([100NH:0][100C:0](=O)N4CCCC(n5nc(-c6ccc(Oc7ccc(F)cc7F)cc6)c(C(N)=O)c5N)C4)c(F)c3)ccc2CC1C(=O)NC1CCCc2ccccc21)C(C)(C)C

> <Shape>
0.293

> <Color>
0.123

> <Negative vol penalty>
0.000

$$$$

  -OEChem-04042320463D

 85 93  0     1  0  0  0  0  0999 V2000
  -22.5616  -14.0677   11.3813 C   0  0  0  0  0  0  0  0  0  0  0  0
  -23.3135  -14.1501   12.5490 C   0  0  0  0  0  0  0  0  0  0  0  0
  -29.7097  -14.7538   24.9098 C   0  0  0  0  0  0  0  0  0  0  0  0
  -30.6233  -15.7965   24.7560 C   0  0  0  0  0  0  0  0  0  0  0  0
  -27.3738  -26.1832   17.8288 C   0  0  0  0  0  0  0  0  0  0  0  0
  -26.9995  -25.8667   20.1946 C   0  0  0  0  0  0  0  0  0  0  0  0
  -21.9655  -15.2130   10.8552 C   0  0  0  0  0  0  0  0  0  0  0  0
  -23.4705  -15.3782   13.1906 C   0  0  0  0  0  0  0  0  0  0  0  0
  -22.8432  -15.0447   18.2046 C   0  0  0  0  0  0  0  0  0  0  0  0
  -29.3714  -13.9559   23.8168 C   0  0  0  0  0  0  0  0  0  0  0  0
  -26.3877  -27.1694   17.8047 C   0  0  0  0  0  0  0  0  0  0  0  0
  -26.0134  -26.8529   20.1705 C   0  0  0  0  0  0  0  0  0  0  0  0
  -23.9055  -14.5296   18.9463 C   0  0  0  0  0  0  0  0  0  0  0  0
  -25.8698  -30.2292   20.1444 C   0  0  0  0  0  0  0  0  0  0  0  0
  -25.8809  -31.1797   21.1652 C   0  0  0  0  0  0  0  0  0  0  0  0
  -31.1986  -16.0414   23.5091 C   0  0  0  0  0  0  0  0  0  0  0  0
  -24.5631  -16.7707   19.5497 C   0  0  0  0  0  0  0  0  0  0  0  0
  -23.6618  -30.4927   21.8291 C   0  0  0  0  0  0  0  0  0  0  0  0
  -27.6797  -25.5318   19.0237 C   0  0  0  0  0  0  0  0  0  0  0  0
  -30.0732  -24.6907   19.2908 C   0  0  0  0  0  0  0  0  0  0  0  0
  -22.1072  -16.4539   11.4959 C   0  0  0  0  0  0  0  0  0  0  0  0
  -22.6391  -16.4295   18.1208 C   0  0  0  0  0  0  0  0  0  0  0  0
  -22.8768  -16.5414   12.6717 C   0  0  0  0  0  0  0  0  0  0  0  0
  -23.4960  -17.3008   18.8084 C   0  0  0  0  0  0  0  0  0  0  0  0
  -29.9468  -14.2008   22.5699 C   0  0  0  0  0  0  0  0  0  0  0  0
  -25.7075  -27.5043   18.9756 C   0  0  0  0  0  0  0  0  0  0  0  0
  -24.7673  -15.3927   19.6166 C   0  0  0  0  0  0  0  0  0  0  0  0
  -24.7546  -29.4105   19.9659 C   0  0  0  0  0  0  0  0  0  0  0  0
  -24.7770  -31.3114   22.0076 C   0  0  0  0  0  0  0  0  0  0  0  0
  -23.6507  -29.5422   20.8083 C   0  0  0  0  0  0  0  0  0  0  0  0
  -30.8604  -15.2435   22.4161 C   0  0  0  0  0  0  0  0  0  0  0  0
  -28.6978  -24.5125   19.0491 C   0  0  0  0  0  0  0  0  0  0  0  0
  -30.6032  -23.4264   19.2063 C   0  0  0  0  0  0  0  0  0  0  0  0
  -30.8061  -25.8916   19.5670 C   0  0  0  0  0  0  0  0  0  0  0  0
  -22.6292  -18.5567   15.7588 C   0  0  0  0  0  0  0  0  0  0  0  0
  -21.6474  -20.5737   18.1019 C   0  0  0  0  0  0  0  0  0  0  0  0
  -21.5290  -21.3057   21.4331 C   0  0  0  0  0  0  0  0  0  0  0  0
  -30.4683  -18.1103   20.4661 C   0  0  0  0  0  0  0  0  0  0  0  0
  -21.4835  -17.6728   10.8636 C   0  0  0  0  0  0  0  0  0  0  0  0
  -21.4728  -16.9682   17.3385 C   0  0  0  0  0  0  0  0  0  0  0  0
  -23.3081  -18.7946   18.7670 C   0  0  0  0  0  0  0  0  0  0  0  0
  -21.3871  -18.8676   11.8089 C   0  0  0  0  0  0  0  0  0  0  0  0
  -28.5656  -19.0997   17.5655 C   0  0  0  0  0  0  0  0  0  0  0  0
  -22.7060  -19.0714   12.5477 C   0  0  0  0  0  0  0  0  0  0  0  0
  -28.5419  -20.6212   17.7193 C   0  0  0  0  0  0  0  0  0  0  0  0
  -28.4512  -18.4008   18.9178 C   0  0  0  0  0  0  0  0  0  0  0  0
  -29.4513  -20.3389   20.0678 C   0  0  0  0  0  0  0  0  0  0  0  0
  -23.0495  -17.8509   13.4102 C   0  0  1  0  0  0  0  0  0  0  0  0
  -21.6642  -18.4174   16.9021 C   0  0  1  0  0  0  0  0  0  0  0  0
  -29.5967  -21.0957   18.7358 C   0  0  2  0  0  0  0  0  0  0  0  0
  -20.6908  -23.0414   23.0400 C   0  0  0  0  0  0  0  0  0  0  0  0
  -23.9439  -22.4176   17.3042 C   0  0  0  0  0  0  0  0  0  0  0  0
  -23.6501  -23.6120   19.4849 C   0  0  0  0  0  0  0  0  0  0  0  0
  -21.7950  -23.5896   17.8173 C   0  0  0  0  0  0  0  0  0  0  0  0
  -30.3555  -12.1685   21.2050 C   0  0  0  0  0  0  0  0  0  0  0  0
  -19.7742  -19.3563   22.8040 C   0  0  0  0  0  0  0  0  0  0  0  0
  -27.1794  -13.1249   21.2046 C   0  0  0  0  0  0  0  0  0  0  0  0
  -28.4688  -13.7071   20.6381 C   0  0  0  0  0  0  0  0  0  0  0  0
  -25.9523  -13.4735   20.3705 C   0  0  0  0  0  0  0  0  0  1  0  0
  -22.3391  -21.4766   19.0945 C   0  0  1  0  0  0  0  0  0  0  0  0
  -20.3813  -21.7324   22.3305 C   0  0  2  0  0  0  0  0  0  0  0  0
  -22.9370  -22.7460   18.4246 C   0  0  0  0  0  0  0  0  0  0  0  0
  -28.3743  -23.2357   18.8276 N   0  0  0  0  0  0  0  0  0  0  0  0
  -29.5540  -22.6001   18.9296 N   0  0  0  0  0  0  0  0  0  0  0  0
  -22.1571  -19.2729   17.9835 N   0  0  0  0  0  0  0  0  0  0  0  0
  -29.4837  -18.8906   19.8384 N   0  0  0  0  0  0  0  0  0  0  0  0
  -31.8598  -22.9521   19.3424 N   0  0  0  0  0  0  0  0  0  0  0  0
  -30.1061  -27.1048   19.6178 N   0  0  0  0  0  0  0  0  0  0  0  0
  -22.2647  -17.8542   14.6261 N   0  0  0  0  0  0  0  0  0  0  0  0
  -21.3620  -21.7572   20.1410 N   0  0  0  0  0  0  0  0  0  0  0  0
  -30.4901  -16.7003   20.1860 N   0  0  0  0  0  0  0  0  0  0  0  0
  -29.5906  -13.3849   21.4865 N   0  0  3  0  0  0  0  0  0  0  0  0
  -20.1152  -20.6902   23.3620 N   0  3  0  0  0  0  0  0  0  0  0  0
  -32.0476  -25.8912   19.7467 O   0  0  0  0  0  0  0  0  0  0  0  0
  -23.6297  -19.2512   15.8939 O   0  0  0  0  0  0  0  0  0  0  0  0
  -20.6858  -21.0044   17.4606 O   0  0  0  0  0  0  0  0  0  0  0  0
  -22.4804  -20.6418   21.8387 O   0  0  0  0  0  0  0  0  0  0  0  0
  -31.3032  -18.5982   21.2289 O   0  0  0  0  0  0  0  0  0  0  0  0
  -32.8581  -16.2731   21.1317 O   0  0  0  0  0  0  0  0  0  0  0  0
  -31.6015  -14.3670   20.0681 O   0  0  0  0  0  0  0  0  0  0  0  0
  -24.7454  -28.4668   18.9525 O   0  0  0  0  0  0  0  0  0  0  0  0
  -25.8052  -14.8926   20.3408 O   0  0  0  0  0  0  0  0  0  1  0  0
  -24.7885  -32.2232   22.9888 F   0  0  0  0  0  0  0  0  0  0  0  0
  -22.5769  -28.7577   20.6424 F   0  0  0  0  0  0  0  0  0  0  0  0
  -31.6117  -15.5861   20.8535 S   0  0  0  0  0  0  0  0  0  0  0  0
  1  2  1  0  0  0  0
  1  7  2  0  0  0  0
  2  8  2  0  0  0  0
  3  4  1  0  0  0  0
  3 10  2  0  0  0  0
  4 16  2  0  0  0  0
  5 11  2  0  0  0  0
  5 19  1  0  0  0  0
  6 12  1  0  0  0  0
  6 19  2  0  0  0  0
  7 21  1  0  0  0  0
  8 23  1  0  0  0  0
  9 13  2  0  0  0  0
  9 22  1  0  0  0  0
 10 25  1  0  0  0  0
 11 26  1  0  0  0  0
 12 26  2  0  0  0  0
 13 27  1  0  0  0  0
 14 15  2  0  0  0  0
 14 28  1  0  0  0  0
 15 29  1  0  0  0  0
 16 31  1  0  0  0  0
 17 24  1  0  0  0  0
 17 27  2  0  0  0  0
 18 29  2  0  0  0  0
 18 30  1  0  0  0  0
 19 32  1  0  0  0  0
 20 32  1  0  0  0  0
 20 33  2  0  0  0  0
 20 34  1  0  0  0  0
 21 23  2  0  0  0  0
 21 39  1  0  0  0  0
 22 24  2  0  0  0  0
 22 40  1  0  0  0  0
 23 48  1  0  0  0  0
 24 41  1  0  0  0  0
 25 31  2  0  0  0  0
 25 72  1  0  0  0  0
 26 81  1  0  0  0  0
 27 82  1  0  0  0  0
 28 30  2  0  0  0  0
 28 81  1  0  0  0  0
 29 83  1  0  0  0  0
 30 84  1  0  0  0  0
 31 85  1  0  0  0  0
 32 63  2  0  0  0  0
 33 64  1  0  0  0  0
 33 67  1  0  0  0  0
 34 68  1  0  0  0  0
 34 74  2  0  0  0  0
 35 49  1  0  0  0  0
 35 69  1  0  0  0  0
 35 75  2  0  0  0  0
 36 60  1  0  0  0  0
 36 65  1  0  0  0  0
 36 76  2  0  0  0  0
 37 61  1  0  0  0  0
 37 70  1  0  0  0  0
 37 77  2  0  0  0  0
 38 66  1  0  0  0  0
 38 71  1  0  0  0  0
 38 78  2  0  0  0  0
 39 42  1  0  0  0  0
 40 49  1  0  0  0  0
 41 65  1  0  0  0  0
 42 44  1  0  0  0  0
 43 45  1  0  0  0  0
 43 46  1  0  0  0  0
 44 48  1  0  0  0  0
 45 50  1  0  0  0  0
 46 66  1  0  0  0  0
 47 50  1  0  0  0  0
 47 66  1  0  0  0  0
 48 69  1  0  0  0  0
 49 65  1  0  0  0  0
 50 64  1  0  0  0  0
 51 61  1  0  0  0  0
 52 62  1  0  0  0  0
 53 62  1  0  0  0  0
 54 62  1  0  0  0  0
 55 72  1  0  0  0  0
 56 73  1  0  0  0  0
 57 58  1  0  0  0  0
 57 59  1  0  0  0  0
 58 72  1  0  0  0  0
 59 82  1  0  0  0  0
 60 62  1  0  0  0  0
 60 70  1  0  0  0  0
 61 73  1  0  0  0  0
 63 64  1  0  0  0  0
 71 85  1  0  0  0  0
 79 85  2  0  0  0  0
 80 85  2  0  0  0  0
M  CHG  1  73   1
M  ISO  4  38 100  59 101  71 100  82 101
M  END
> <Batch ID>
0012

> <Smiles>
CNC(C)C(=O)NC(C(=O)N1Cc2cc([101O:1][101CH2:1]CCN(C)c3ccccc3S(=O)(=O)[100NH:0][100C:0](=O)N3CCCC(n4nc(-c5ccc(Oc6ccc(F)cc6F)cc5)c(C(N)=O)c4N)C3)ccc2CC1C(=O)NC1CCCc2ccccc21)C(C)(C)C

> <Shape>
0.206

> <Color>
0.065

> <Negative vol penalty>
0.000

$$$$

  -OEChem-04042320463D

 82 90  0     1  0  0  0  0  0999 V2000
  -25.4119  -22.3621   25.6810 C   0  0  0  0  0  0  0  0  0  0  0  0
  -24.9390  -23.5158   25.0639 C   0  0  0  0  0  0  0  0  0  0  0  0
  -29.3001  -17.8003   20.4207 C   0  0  0  0  0  0  0  0  0  0  0  0
  -27.1178  -18.3608   19.5488 C   0  0  0  0  0  0  0  0  0  0  0  0
  -25.3042  -21.1322   25.0333 C   0  0  0  0  0  0  0  0  0  0  0  0
  -24.3590  -23.4403   23.7980 C   0  0  0  0  0  0  0  0  0  0  0  0
  -20.0940  -26.1484   23.4507 C   0  0  0  0  0  0  0  0  0  0  0  0
  -25.6637  -29.9944   22.4169 C   0  0  0  0  0  0  0  0  0  0  0  0
  -25.7587  -29.7481   20.0154 C   0  0  0  0  0  0  0  0  0  0  0  0
  -24.3496  -30.4514   22.3181 C   0  0  0  0  0  0  0  0  0  0  0  0
  -24.4445  -30.2051   19.9166 C   0  0  0  0  0  0  0  0  0  0  0  0
  -28.8898  -16.4791   20.5985 C   0  0  0  0  0  0  0  0  0  0  0  0
  -26.7075  -17.0395   19.7265 C   0  0  0  0  0  0  0  0  0  0  0  0
  -20.2263  -27.5281   23.2999 C   0  0  0  0  0  0  0  0  0  0  0  0
  -28.4526  -13.7274   18.6827 C   0  0  0  0  0  0  0  0  0  0  0  0
  -29.3226  -12.7176   18.2717 C   0  0  0  0  0  0  0  0  0  0  0  0
  -19.8371  -27.3002   20.9301 C   0  0  0  0  0  0  0  0  0  0  0  0
  -29.4020  -11.8663   20.5314 C   0  0  0  0  0  0  0  0  0  0  0  0
  -28.4141  -18.7412   19.8959 C   0  0  0  0  0  0  0  0  0  0  0  0
  -29.4375  -20.6638   18.5679 C   0  0  0  0  0  0  0  0  0  0  0  0
  -24.7138  -21.0402   23.7630 C   0  0  0  0  0  0  0  0  0  0  0  0
  -19.8426  -25.3317   22.3389 C   0  0  0  0  0  0  0  0  0  0  0  0
  -24.2444  -22.2081   23.1321 C   0  0  0  0  0  0  0  0  0  0  0  0
  -19.6995  -25.9108   21.0699 C   0  0  0  0  0  0  0  0  0  0  0  0
  -26.3683  -29.6427   21.2655 C   0  0  0  0  0  0  0  0  0  0  0  0
  -23.7400  -30.5568   21.0680 C   0  0  0  0  0  0  0  0  0  0  0  0
  -27.5935  -16.0987   20.2513 C   0  0  0  0  0  0  0  0  0  0  0  0
  -20.1008  -28.1039   22.0390 C   0  0  0  0  0  0  0  0  0  0  0  0
  -28.0573  -13.8068   20.0181 C   0  0  0  0  0  0  0  0  0  0  0  0
  -29.7973  -11.7871   19.1960 C   0  0  0  0  0  0  0  0  0  0  0  0
  -28.5320  -12.8762   20.9424 C   0  0  0  0  0  0  0  0  0  0  0  0
  -28.8371  -20.1063   19.7127 C   0  0  0  0  0  0  0  0  0  0  0  0
  -29.6440  -21.9815   18.8957 C   0  0  0  0  0  0  0  0  0  0  0  0
  -29.7780  -20.0458   17.3197 C   0  0  0  0  0  0  0  0  0  0  0  0
  -21.3918  -22.9548   20.9056 C   0  0  0  0  0  0  0  0  0  0  0  0
  -18.6786  -22.7723   19.1370 C   0  0  0  0  0  0  0  0  0  0  0  0
  -15.8920  -24.3347   17.9368 C   0  0  0  0  0  0  0  0  0  0  0  0
  -27.8321  -26.7039   20.9844 C   0  0  0  0  0  0  0  0  0  0  0  0
  -24.6622  -19.6954   23.0821 C   0  0  0  0  0  0  0  0  0  0  0  0
  -19.6760  -23.8481   22.5224 C   0  0  0  0  0  0  0  0  0  0  0  0
  -19.4095  -25.0802   19.8474 C   0  0  0  0  0  0  0  0  0  0  0  0
  -23.6955  -19.6470   21.9017 C   0  0  0  0  0  0  0  0  0  0  0  0
  -29.2757  -24.3674   23.3412 C   0  0  0  0  0  0  0  0  0  0  0  0
  -23.8846  -20.8674   21.0064 C   0  0  0  0  0  0  0  0  0  0  0  0
  -29.3385  -23.0894   22.5028 C   0  0  0  0  0  0  0  0  0  0  0  0
  -28.0137  -25.1684   23.0343 C   0  0  0  0  0  0  0  0  0  0  0  0
  -27.8999  -24.2370   20.7554 C   0  0  0  0  0  0  0  0  0  0  0  0
  -23.5865  -22.1633   21.7701 C   0  0  1  0  0  0  0  0  0  0  0  0
  -19.9313  -23.0556   21.2441 C   0  0  1  0  0  0  0  0  0  0  0  0
  -29.1640  -23.3940   21.0031 C   0  0  2  0  0  0  0  0  0  0  0  0
  -13.8823  -23.9393   16.4868 C   0  0  0  0  0  0  0  0  0  0  0  0
  -20.4344  -22.9827   16.6504 C   0  0  0  0  0  0  0  0  0  0  0  0
  -18.3794  -23.5358   15.3314 C   0  0  0  0  0  0  0  0  0  0  0  0
  -18.5692  -21.3261   16.4734 C   0  0  0  0  0  0  0  0  0  0  0  0
  -21.7782  -31.1252   19.6578 C   0  0  0  0  0  0  0  0  0  0  0  0
  -14.0288  -24.8717   20.1727 C   0  0  0  0  0  0  0  0  0  0  0  0
  -27.7735  -29.1544   21.3702 C   0  0  0  0  0  0  0  0  0  0  0  0
  -21.6563  -31.3717   22.1423 C   0  0  0  0  0  0  0  0  0  0  0  0
  -21.0914  -30.1261   22.8042 C   0  0  0  0  0  0  0  0  0  1  0  0
  -18.1919  -23.4081   17.8572 C   0  0  1  0  0  0  0  0  0  0  0  0
  -14.4348  -23.9103   17.9034 C   0  0  2  0  0  0  0  0  0  0  0  0
  -18.9011  -22.8289   16.6007 C   0  0  0  0  0  0  0  0  0  0  0  0
  -28.6731  -20.9969   20.6944 N   0  0  0  0  0  0  0  0  0  0  0  0
  -29.1735  -22.1274   20.1674 N   0  0  0  0  0  0  0  0  0  0  0  0
  -19.2614  -23.6336   20.0774 N   0  0  0  0  0  0  0  0  0  0  0  0
  -27.9172  -25.4408   21.5933 N   0  0  0  0  0  0  0  0  0  0  0  0
  -30.1805  -23.0180   18.2172 N   0  0  0  0  0  0  0  0  0  0  0  0
  -29.4967  -18.6833   17.1501 N   0  0  0  0  0  0  0  0  0  0  0  0
  -22.1580  -22.3617   21.8907 N   0  0  0  0  0  0  0  0  0  0  0  0
  -16.7414  -23.2520   17.8498 N   0  0  0  0  0  0  0  0  0  0  0  0
  -27.8479  -27.7918   21.8486 N   0  0  0  0  0  0  0  0  0  0  0  0
  -22.4192  -31.0141   20.9684 N   0  0  3  0  0  0  0  0  0  0  0  0
  -13.6107  -24.8205   18.7480 N   0  3  0  0  0  0  0  0  0  0  0  0
  -30.3307  -20.6791   16.3886 O   0  0  0  0  0  0  0  0  0  0  0  0
  -21.7934  -23.3822   19.8296 O   0  0  0  0  0  0  0  0  0  0  0  0
  -18.5401  -21.5574   19.2994 O   0  0  0  0  0  0  0  0  0  0  0  0
  -16.2417  -25.5094   18.0270 O   0  0  0  0  0  0  0  0  0  0  0  0
  -27.7533  -26.8517   19.7601 O   0  0  0  0  0  0  0  0  0  0  0  0
  -27.1929  -14.8095   20.4244 O   0  0  0  0  0  0  0  0  0  0  0  0
  -20.2301  -29.4502   21.8889 O   0  0  0  0  0  0  0  0  0  1  0  0
  -30.6315  -10.8165   18.8009 F   0  0  0  0  0  0  0  0  0  0  0  0
  -28.1548  -12.9466   22.2264 F   0  0  0  0  0  0  0  0  0  0  0  0
  1  2  1  0  0  0  0
  1  5  2  0  0  0  0
  2  6  2  0  0  0  0
  3 12  2  0  0  0  0
  3 19  1  0  0  0  0
  4 13  1  0  0  0  0
  4 19  2  0  0  0  0
  5 21  1  0  0  0  0
  6 23  1  0  0  0  0
  7 14  2  0  0  0  0
  7 22  1  0  0  0  0
  8 10  2  0  0  0  0
  8 25  1  0  0  0  0
  9 11  1  0  0  0  0
  9 25  2  0  0  0  0
 10 26  1  0  0  0  0
 11 26  2  0  0  0  0
 12 27  1  0  0  0  0
 13 27  2  0  0  0  0
 14 28  1  0  0  0  0
 15 16  2  0  0  0  0
 15 29  1  0  0  0  0
 16 30  1  0  0  0  0
 17 24  1  0  0  0  0
 17 28  2  0  0  0  0
 18 30  2  0  0  0  0
 18 31  1  0  0  0  0
 19 32  1  0  0  0  0
 20 32  1  0  0  0  0
 20 33  2  0  0  0  0
 20 34  1  0  0  0  0
 21 23  2  0  0  0  0
 21 39  1  0  0  0  0
 22 24  2  0  0  0  0
 22 40  1  0  0  0  0
 23 48  1  0  0  0  0
 24 41  1  0  0  0  0
 25 57  1  0  0  0  0
 26 72  1  0  0  0  0
 27 79  1  0  0  0  0
 28 80  1  0  0  0  0
 29 31  2  0  0  0  0
 29 79  1  0  0  0  0
 30 81  1  0  0  0  0
 31 82  1  0  0  0  0
 32 63  2  0  0  0  0
 33 64  1  0  0  0  0
 33 67  1  0  0  0  0
 34 68  1  0  0  0  0
 34 74  2  0  0  0  0
 35 49  1  0  0  0  0
 35 69  1  0  0  0  0
 35 75  2  0  0  0  0
 36 60  1  0  0  0  0
 36 65  1  0  0  0  0
 36 76  2  0  0  0  0
 37 61  1  0  0  0  0
 37 70  1  0  0  0  0
 37 77  2  0  0  0  0
 38 66  1  0  0  0  0
 38 71  1  0  0  0  0
 38 78  2  0  0  0  0
 39 42  1  0  0  0  0
 40 49  1  0  0  0  0
 41 65  1  0  0  0  0
 42 44  1  0  0  0  0
 43 45  1  0  0  0  0
 43 46  1  0  0  0  0
 44 48  1  0  0  0  0
 45 50  1  0  0  0  0
 46 66  1  0  0  0  0
 47 50  1  0  0  0  0
 47 66  1  0  0  0  0
 48 69  1  0  0  0  0
 49 65  1  0  0  0  0
 50 64  1  0  0  0  0
 51 61  1  0  0  0  0
 52 62  1  0  0  0  0
 53 62  1  0  0  0  0
 54 62  1  0  0  0  0
 55 72  1  0  0  0  0
 56 73  1  0  0  0  0
 57 71  1  0  0  0  0
 58 59  1  0  0  0  0
 58 72  1  0  0  0  0
 59 80  1  0  0  0  0
 60 62  1  0  0  0  0
 60 70  1  0  0  0  0
 61 73  1  0  0  0  0
 63 64  1  0  0  0  0
M  CHG  1  73   1
M  ISO  4  38 100  59 101  71 100  80 101
M  END
> <Batch ID>
0012

> <Smiles>
CNC(C)C(=O)NC(C(=O)N1Cc2cc([101O:1][101CH2:1]CN(C)c3ccc(C[100NH:0][100C:0](=O)N4CCCC(n5nc(-c6ccc(Oc7ccc(F)cc7F)cc6)c(C(N)=O)c5N)C4)cc3)ccc2CC1C(=O)NC1CCCc2ccccc21)C(C)(C)C

> <Shape>
0.221

> <Color>
0.063

> <Negative vol penalty>
0.000

$$$$

  -OEChem-04042320463D

 86 94  0     1  0  0  0  0  0999 V2000
  -30.3389  -25.5456   17.1907 C   0  0  0  0  0  0  0  0  0  0  0  0
  -28.9494  -25.6041   17.2264 C   0  0  0  0  0  0  0  0  0  0  0  0
  -24.3068  -13.7026   19.2943 C   0  0  0  0  0  0  0  0  0  0  0  0
  -26.1501  -14.2383   20.7613 C   0  0  0  0  0  0  0  0  0  0  0  0
  -31.0803  -25.9232   18.3095 C   0  0  0  0  0  0  0  0  0  0  0  0
  -28.3004  -26.0392   18.3814 C   0  0  0  0  0  0  0  0  0  0  0  0
  -23.1052  -29.2673   18.6908 C   0  0  0  0  0  0  0  0  0  0  0  0
  -20.8735  -22.9387   18.4396 C   0  0  0  0  0  0  0  0  0  0  0  0
  -23.8457  -12.7632   20.2165 C   0  0  0  0  0  0  0  0  0  0  0  0
  -25.6890  -13.2989   21.6836 C   0  0  0  0  0  0  0  0  0  0  0  0
  -21.7811  -28.8941   18.9169 C   0  0  0  0  0  0  0  0  0  0  0  0
  -20.0992  -23.5974   19.3946 C   0  0  0  0  0  0  0  0  0  0  0  0
  -24.6084   -9.6046   21.1469 C   0  0  0  0  0  0  0  0  0  0  0  0
  -24.2142   -8.3585   20.6597 C   0  0  0  0  0  0  0  0  0  0  0  0
  -22.0369  -29.4252   21.2560 C   0  0  0  0  0  0  0  0  0  0  0  0
  -22.7965  -24.2449   19.0977 C   0  0  0  0  0  0  0  0  0  0  0  0
  -21.9918   -8.7188   21.5363 C   0  0  0  0  0  0  0  0  0  0  0  0
  -25.4590  -14.4401   19.5666 C   0  0  0  0  0  0  0  0  0  0  0  0
  -26.3295  -15.1728   17.2834 C   0  0  0  0  0  0  0  0  0  0  0  0
  -30.4404  -26.3723   19.4755 C   0  0  0  0  0  0  0  0  0  0  0  0
  -23.9098  -29.7127   19.7495 C   0  0  0  0  0  0  0  0  0  0  0  0
  -29.0339  -26.4219   19.5173 C   0  0  0  0  0  0  0  0  0  0  0  0
  -23.3702  -29.8059   21.0403 C   0  0  0  0  0  0  0  0  0  0  0  0
  -22.2222  -23.2624   18.2911 C   0  0  0  0  0  0  0  0  0  0  0  0
  -24.5368  -12.5614   21.4112 C   0  0  0  0  0  0  0  0  0  0  0  0
  -21.2476  -28.9703   20.2001 C   0  0  0  0  0  0  0  0  0  0  0  0
  -23.6944  -10.4078   21.8290 C   0  0  0  0  0  0  0  0  0  0  0  0
  -20.6735  -24.5799   20.2012 C   0  0  0  0  0  0  0  0  0  0  0  0
  -22.9059   -7.9156   20.8543 C   0  0  0  0  0  0  0  0  0  0  0  0
  -22.0221  -24.9037   20.0527 C   0  0  0  0  0  0  0  0  0  0  0  0
  -22.3861   -9.9649   22.0237 C   0  0  0  0  0  0  0  0  0  0  0  0
  -25.9361  -15.4103   18.6141 C   0  0  0  0  0  0  0  0  0  0  0  0
  -26.6962  -16.4082   16.8081 C   0  0  0  0  0  0  0  0  0  0  0  0
  -22.7324  -18.2382   17.0808 C   0  0  0  0  0  0  0  0  0  0  0  0
  -23.5680  -19.2547   17.3223 C   0  0  0  0  0  0  0  0  0  0  0  0
  -26.3606  -13.9454   16.5431 C   0  0  0  0  0  0  0  0  0  0  0  0
  -26.5905  -28.6867   21.1152 C   0  0  0  0  0  0  0  0  0  0  0  0
  -26.3498  -31.4653   22.7714 C   0  0  0  0  0  0  0  0  0  0  0  0
  -24.3572  -33.9742   23.9471 C   0  0  0  0  0  0  0  0  0  0  0  0
  -25.2481  -21.9445   18.1971 C   0  0  0  0  0  0  0  0  0  0  0  0
  -31.2826  -26.7249   20.6759 C   0  0  0  0  0  0  0  0  0  0  0  0
  -25.3283  -30.1369   19.4843 C   0  0  0  0  0  0  0  0  0  0  0  0
  -24.1861  -30.2968   22.2073 C   0  0  0  0  0  0  0  0  0  0  0  0
  -30.5305  -27.5305   21.7322 C   0  0  0  0  0  0  0  0  0  0  0  0
  -28.4498  -20.6129   18.2412 C   0  0  0  0  0  0  0  0  0  0  0  0
  -29.1648  -26.9085   22.0056 C   0  0  0  0  0  0  0  0  0  0  0  0
  -28.2200  -19.1024   18.2160 C   0  0  0  0  0  0  0  0  0  0  0  0
  -27.4399  -21.3021   19.1510 C   0  0  0  0  0  0  0  0  0  0  0  0
  -25.7680  -19.5224   18.7528 C   0  0  0  0  0  0  0  0  0  0  0  0
  -28.2943  -26.9120   20.7432 C   0  0  1  0  0  0  0  0  0  0  0  0
  -26.2092  -30.0878   20.7289 C   0  0  1  0  0  0  0  0  0  0  0  0
  -26.7638  -18.7726   17.8442 C   0  0  2  0  0  0  0  0  0  0  0  0
  -24.4406  -36.0859   25.3003 C   0  0  0  0  0  0  0  0  0  0  0  0
  -26.5733  -29.8152   25.3282 C   0  0  0  0  0  0  0  0  0  0  0  0
  -25.7112  -31.7935   26.5976 C   0  0  0  0  0  0  0  0  0  0  0  0
  -27.8663  -31.9558   25.3518 C   0  0  0  0  0  0  0  0  0  0  0  0
  -23.3910  -35.6059   21.6748 C   0  0  0  0  0  0  0  0  0  0  0  0
  -23.0486  -22.5592   17.2685 C   0  0  0  0  0  0  0  0  0  0  0  0
  -23.2963  -20.3377   18.3128 C   0  0  0  0  0  0  0  0  0  0  0  0
  -18.4779  -27.1057   21.6014 C   0  0  0  0  0  0  0  0  0  0  0  0
  -19.6437  -28.0758   21.7112 C   0  0  0  0  0  0  0  0  0  1  0  0
  -18.7854  -25.9508   20.6613 C   0  0  0  0  0  0  0  0  0  0  0  0
  -25.6920  -31.8864   24.0634 C   0  0  1  0  0  0  0  0  0  0  0  0
  -24.5085  -35.4841   23.9053 C   0  0  2  0  0  0  0  0  0  0  0  0
  -26.4456  -31.3516   25.3138 C   0  0  0  0  0  0  0  0  0  0  0  0
  -26.0430  -16.6954   18.9619 N   0  0  0  0  0  0  0  0  0  0  0  0
  -26.5078  -17.2766   17.8428 N   0  0  0  0  0  0  0  0  0  0  0  0
  -25.5697  -30.6940   21.8984 N   0  0  0  0  0  0  0  0  0  0  0  0
  -26.0680  -20.9624   18.7725 N   0  0  0  0  0  0  0  0  0  0  0  0
  -27.1582  -16.8255   15.6103 N   0  0  0  0  0  0  0  0  0  0  0  0
  -25.2191  -13.5715   15.8210 N   0  0  0  0  0  0  0  0  0  0  0  0
  -27.7466  -28.2312   20.5106 N   0  0  0  0  0  0  0  0  0  0  0  0
  -25.5800  -33.3400   24.0096 N   0  0  0  0  0  0  0  0  0  0  0  0
  -23.9385  -21.5703   17.8601 N   0  0  0  0  0  0  0  0  0  0  0  0
  -23.4268  -36.0904   23.0787 N   0  3  0  0  0  0  0  0  0  0  0  0
  -27.3650  -13.1940   16.5359 O   0  0  0  0  0  0  0  0  0  0  0  0
  -25.8885  -28.0653   21.9044 O   0  0  0  0  0  0  0  0  0  0  0  0
  -27.5106  -31.8142   22.5421 O   0  0  0  0  0  0  0  0  0  0  0  0
  -23.2636  -33.4136   23.9299 O   0  0  0  0  0  0  0  0  0  0  0  0
  -25.6599  -23.0953   18.0016 O   0  0  0  0  0  0  0  0  0  0  0  0
  -24.0871  -11.6450   22.3115 O   0  0  0  0  0  0  0  0  0  0  0  0
  -19.9556  -28.6060   20.4236 O   0  0  0  0  0  0  0  0  0  1  0  0
  -19.9113  -25.2267   21.1388 O   0  0  0  0  0  0  0  0  0  0  0  0
  -22.5270   -6.7196   20.3850 F   0  0  0  0  0  0  0  0  0  0  0  0
  -22.5794  -25.8469   20.8245 F   0  0  0  0  0  0  0  0  0  0  0  0
  -21.5032  -10.7326   22.6771 F   0  0  0  0  0  0  0  0  0  0  0  0
  1  2  1  0  0  0  0
  1  5  2  0  0  0  0
  2  6  2  0  0  0  0
  3  9  2  0  0  0  0
  3 18  1  0  0  0  0
  4 10  1  0  0  0  0
  4 18  2  0  0  0  0
  5 20  1  0  0  0  0
  6 22  1  0  0  0  0
  7 11  2  0  0  0  0
  7 21  1  0  0  0  0
  8 12  2  0  0  0  0
  8 24  1  0  0  0  0
  9 25  1  0  0  0  0
 10 25  2  0  0  0  0
 11 26  1  0  0  0  0
 12 28  1  0  0  0  0
 13 14  2  0  0  0  0
 13 27  1  0  0  0  0
 14 29  1  0  0  0  0
 15 23  1  0  0  0  0
 15 26  2  0  0  0  0
 16 24  2  0  0  0  0
 16 30  1  0  0  0  0
 17 29  2  0  0  0  0
 17 31  1  0  0  0  0
 18 32  1  0  0  0  0
 19 32  1  0  0  0  0
 19 33  2  0  0  0  0
 19 36  1  0  0  0  0
 20 22  2  0  0  0  0
 20 41  1  0  0  0  0
 21 23  2  0  0  0  0
 21 42  1  0  0  0  0
 22 50  1  0  0  0  0
 23 43  1  0  0  0  0
 24 58  1  0  0  0  0
 25 81  1  0  0  0  0
 26 82  1  0  0  0  0
 27 31  2  0  0  0  0
 27 81  1  0  0  0  0
 28 30  2  0  0  0  0
 28 83  1  0  0  0  0
 29 84  1  0  0  0  0
 30 85  1  0  0  0  0
 31 86  1  0  0  0  0
 32 66  2  0  0  0  0
 33 67  1  0  0  0  0
 33 70  1  0  0  0  0
 34 35  2  0  0  0  0
 35 59  1  0  0  0  0
 36 71  1  0  0  0  0
 36 76  2  0  0  0  0
 37 51  1  0  0  0  0
 37 72  1  0  0  0  0
 37 77  2  0  0  0  0
 38 63  1  0  0  0  0
 38 68  1  0  0  0  0
 38 78  2  0  0  0  0
 39 64  1  0  0  0  0
 39 73  1  0  0  0  0
 39 79  2  0  0  0  0
 40 69  1  0  0  0  0
 40 74  1  0  0  0  0
 40 80  2  0  0  0  0
 41 44  1  0  0  0  0
 42 51  1  0  0  0  0
 43 68  1  0  0  0  0
 44 46  1  0  0  0  0
 45 47  1  0  0  0  0
 45 48  1  0  0  0  0
 46 50  1  0  0  0  0
 47 52  1  0  0  0  0
 48 69  1  0  0  0  0
 49 52  1  0  0  0  0
 49 69  1  0  0  0  0
 50 72  1  0  0  0  0
 51 68  1  0  0  0  0
 52 67  1  0  0  0  0
 53 64  1  0  0  0  0
 54 65  1  0  0  0  0
 55 65  1  0  0  0  0
 56 65  1  0  0  0  0
 57 75  1  0  0  0  0
 58 74  1  0  0  0  0
 59 74  1  0  0  0  0
 60 61  1  0  0  0  0
 60 62  1  0  0  0  0
 61 82  1  0  0  0  0
 62 83  1  0  0  0  0
 63 65  1  0  0  0  0
 63 73  1  0  0  0  0
 64 75  1  0  0  0  0
 66 67  1  0  0  0  0
M  CHG  1  75   1
M  ISO  4  40 100  61 101  74 100  82 101
M  END
> <Batch ID>
0012

> <Smiles>
C=CC[100N:0](Cc1ccc(OCC[101CH2:1][101O:1]c2ccc3c(c2)CN(C(=O)C(NC(=O)C(C)NC)C(C)(C)C)C(C(=O)NC2CCCc4ccccc42)C3)c(F)c1)[100C:0](=O)N1CCCC(n2nc(-c3ccc(Oc4ccc(F)cc4F)cc3)c(C(N)=O)c2N)C1

> <Shape>
0.283

> <Color>
0.082

> <Negative vol penalty>
0.000

$$$$

  -OEChem-04042320463D

 82 90  0     1  0  0  0  0  0999 V2000
  -27.4889  -32.5961   27.6850 C   0  0  0  0  0  0  0  0  0  0  0  0
  -27.7032  -31.5470   26.7968 C   0  0  0  0  0  0  0  0  0  0  0  0
  -24.2715   -9.0390   21.4587 C   0  0  0  0  0  0  0  0  0  0  0  0
  -24.8126  -10.3196   23.4347 C   0  0  0  0  0  0  0  0  0  0  0  0
  -26.1962  -33.0708   27.9026 C   0  0  0  0  0  0  0  0  0  0  0  0
  -26.6245  -30.9712   26.1264 C   0  0  0  0  0  0  0  0  0  0  0  0
  -27.5693  -30.2235   21.2078 C   0  0  0  0  0  0  0  0  0  0  0  0
  -30.1758  -18.8156   19.9873 C   0  0  0  0  0  0  0  0  0  0  0  0
  -23.9553   -7.9401   22.2574 C   0  0  0  0  0  0  0  0  0  0  0  0
  -24.4963   -9.2206   24.2334 C   0  0  0  0  0  0  0  0  0  0  0  0
  -28.3567  -29.1234   20.8707 C   0  0  0  0  0  0  0  0  0  0  0  0
  -30.3881  -20.1469   20.3451 C   0  0  0  0  0  0  0  0  0  0  0  0
  -21.3656   -6.9183   24.1763 C   0  0  0  0  0  0  0  0  0  0  0  0
  -20.1942   -6.2200   23.8837 C   0  0  0  0  0  0  0  0  0  0  0  0
  -26.3684  -27.8833   20.2980 C   0  0  0  0  0  0  0  0  0  0  0  0
  -28.0167  -20.4260   20.7135 C   0  0  0  0  0  0  0  0  0  0  0  0
  -21.4853   -4.2134   23.5043 C   0  0  0  0  0  0  0  0  0  0  0  0
  -24.7002  -10.2288   22.0473 C   0  0  0  0  0  0  0  0  0  0  0  0
  -24.1572  -12.3862   20.7990 C   0  0  0  0  0  0  0  0  0  0  0  0
  -25.1023  -32.5070   27.2272 C   0  0  0  0  0  0  0  0  0  0  0  0
  -26.1725  -30.1580   21.1027 C   0  0  0  0  0  0  0  0  0  0  0  0
  -25.3158  -31.4380   26.3361 C   0  0  0  0  0  0  0  0  0  0  0  0
  -25.5657  -28.9848   20.6319 C   0  0  0  0  0  0  0  0  0  0  0  0
  -28.8839  -18.2894   19.9925 C   0  0  0  0  0  0  0  0  0  0  0  0
  -24.0677   -8.0309   23.6447 C   0  0  0  0  0  0  0  0  0  0  0  0
  -27.7561  -27.9522   20.4185 C   0  0  0  0  0  0  0  0  0  0  0  0
  -29.3085  -20.9521   20.7083 C   0  0  0  0  0  0  0  0  0  0  0  0
  -22.5969   -6.2643   24.1329 C   0  0  0  0  0  0  0  0  0  0  0  0
  -20.2540   -4.8675   23.5477 C   0  0  0  0  0  0  0  0  0  0  0  0
  -22.6567   -4.9118   23.7969 C   0  0  0  0  0  0  0  0  0  0  0  0
  -27.8044  -19.0946   20.3556 C   0  0  0  0  0  0  0  0  0  0  0  0
  -25.0276  -11.3641   21.2228 C   0  0  0  0  0  0  0  0  0  0  0  0
  -24.9469  -13.2188   20.0443 C   0  0  0  0  0  0  0  0  0  0  0  0
  -22.7597  -12.5669   21.0640 C   0  0  0  0  0  0  0  0  0  0  0  0
  -23.7551  -30.3976   23.1526 C   0  0  0  0  0  0  0  0  0  0  0  0
  -21.9622  -30.2542   20.4531 C   0  0  0  0  0  0  0  0  0  0  0  0
  -21.7099  -29.2843   17.1909 C   0  0  0  0  0  0  0  0  0  0  0  0
  -29.6878  -16.0248   19.2363 C   0  0  0  0  0  0  0  0  0  0  0  0
  -23.7177  -33.0224   27.5306 C   0  0  0  0  0  0  0  0  0  0  0  0
  -25.3389  -31.3623   21.4448 C   0  0  0  0  0  0  0  0  0  0  0  0
  -24.0714  -28.8701   20.4818 C   0  0  0  0  0  0  0  0  0  0  0  0
  -22.6730  -32.6061   26.4983 C   0  0  0  0  0  0  0  0  0  0  0  0
  -29.6514  -12.5943   18.2836 C   0  0  0  0  0  0  0  0  0  0  0  0
  -22.8019  -31.1203   26.1777 C   0  0  0  0  0  0  0  0  0  0  0  0
  -28.3736  -12.0526   18.9285 C   0  0  0  0  0  0  0  0  0  0  0  0
  -30.3408  -13.6281   19.1724 C   0  0  0  0  0  0  0  0  0  0  0  0
  -28.2055  -14.1913   20.2643 C   0  0  0  0  0  0  0  0  0  0  0  0
  -24.1743  -30.8037   25.5713 C   0  0  1  0  0  0  0  0  0  0  0  0
  -23.8945  -31.0112   21.7882 C   0  0  1  0  0  0  0  0  0  0  0  0
  -27.4411  -13.1946   19.3778 C   0  0  2  0  0  0  0  0  0  0  0  0
  -20.1090  -29.2693   15.2584 C   0  0  0  0  0  0  0  0  0  0  0  0
  -20.4332  -27.9490   21.7409 C   0  0  0  0  0  0  0  0  0  0  0  0
  -19.5343  -27.3721   19.4765 C   0  0  0  0  0  0  0  0  0  0  0  0
  -19.0046  -29.5843   20.5002 C   0  0  0  0  0  0  0  0  0  0  0  0
  -23.5153  -30.9421   15.5322 C   0  0  0  0  0  0  0  0  0  0  0  0
  -29.0319  -24.5665   20.5636 C   0  0  0  0  0  0  0  0  0  0  0  0
  -27.9420  -25.5858   20.2713 C   0  0  0  0  0  0  0  0  0  1  0  0
  -28.4635  -23.1737   20.7859 C   0  0  0  0  0  0  0  0  0  0  0  0
  -21.3409  -29.1442   19.6401 C   0  0  1  0  0  0  0  0  0  0  0  0
  -21.2313  -30.0236   15.9544 C   0  0  2  0  0  0  0  0  0  0  0  0
  -20.1063  -28.5136   20.3440 C   0  0  0  0  0  0  0  0  0  0  0  0
  -26.2747  -11.5301   20.7743 N   0  0  0  0  0  0  0  0  0  0  0  0
  -26.1937  -12.6661   20.0609 N   0  0  0  0  0  0  0  0  0  0  0  0
  -23.2990  -30.0726   20.8350 N   0  0  0  0  0  0  0  0  0  0  0  0
  -29.3979  -14.6813   19.5550 N   0  0  0  0  0  0  0  0  0  0  0  0
  -24.6895  -14.3623   19.3746 N   0  0  0  0  0  0  0  0  0  0  0  0
  -22.1021  -11.6177   21.8582 N   0  0  0  0  0  0  0  0  0  0  0  0
  -28.7029  -16.9341   19.6209 N   0  0  0  0  0  0  0  0  0  0  0  0
  -24.2154  -31.1992   24.1798 N   0  0  0  0  0  0  0  0  0  0  0  0
  -21.0549  -29.7113   18.3266 N   0  0  0  0  0  0  0  0  0  0  0  0
  -22.3522  -30.1956   14.9874 N   0  3  0  0  0  0  0  0  0  0  0  0
  -22.1097  -13.5324   20.5963 O   0  0  0  0  0  0  0  0  0  0  0  0
  -23.2647  -29.2802   23.2653 O   0  0  0  0  0  0  0  0  0  0  0  0
  -21.2884  -31.2489   20.7329 O   0  0  0  0  0  0  0  0  0  0  0  0
  -22.5753  -28.4125   17.1524 O   0  0  0  0  0  0  0  0  0  0  0  0
  -30.7202  -16.3421   18.6401 O   0  0  0  0  0  0  0  0  0  0  0  0
  -23.7589   -6.9588   24.4244 O   0  0  0  0  0  0  0  0  0  0  0  0
  -28.5223  -26.8767   20.0894 O   0  0  0  0  0  0  0  0  0  1  0  0
  -29.5175  -22.2605   21.0592 O   0  0  0  0  0  0  0  0  0  0  0  0
  -19.1289   -4.1966   23.2683 F   0  0  0  0  0  0  0  0  0  0  0  0
  -23.8366   -4.2778   23.7547 F   0  0  0  0  0  0  0  0  0  0  0  0
  -26.1889  -18.4829   20.3772 Cl  0  0  0  0  0  0  0  0  0  0  0  0
  1  2  1  0  0  0  0
  1  5  2  0  0  0  0
  2  6  2  0  0  0  0
  3  9  2  0  0  0  0
  3 18  1  0  0  0  0
  4 10  1  0  0  0  0
  4 18  2  0  0  0  0
  5 20  1  0  0  0  0
  6 22  1  0  0  0  0
  7 11  2  0  0  0  0
  7 21  1  0  0  0  0
  8 12  2  0  0  0  0
  8 24  1  0  0  0  0
  9 25  1  0  0  0  0
 10 25  2  0  0  0  0
 11 26  1  0  0  0  0
 12 27  1  0  0  0  0
 13 14  2  0  0  0  0
 13 28  1  0  0  0  0
 14 29  1  0  0  0  0
 15 23  1  0  0  0  0
 15 26  2  0  0  0  0
 16 27  2  0  0  0  0
 16 31  1  0  0  0  0
 17 29  2  0  0  0  0
 17 30  1  0  0  0  0
 18 32  1  0  0  0  0
 19 32  1  0  0  0  0
 19 33  2  0  0  0  0
 19 34  1  0  0  0  0
 20 22  2  0  0  0  0
 20 39  1  0  0  0  0
 21 23  2  0  0  0  0
 21 40  1  0  0  0  0
 22 48  1  0  0  0  0
 23 41  1  0  0  0  0
 24 31  2  0  0  0  0
 24 68  1  0  0  0  0
 25 77  1  0  0  0  0
 26 78  1  0  0  0  0
 27 79  1  0  0  0  0
 28 30  2  0  0  0  0
 28 77  1  0  0  0  0
 29 80  1  0  0  0  0
 30 81  1  0  0  0  0
 31 82  1  0  0  0  0
 32 62  2  0  0  0  0
 33 63  1  0  0  0  0
 33 66  1  0  0  0  0
 34 67  1  0  0  0  0
 34 72  2  0  0  0  0
 35 49  1  0  0  0  0
 35 69  1  0  0  0  0
 35 73  2  0  0  0  0
 36 59  1  0  0  0  0
 36 64  1  0  0  0  0
 36 74  2  0  0  0  0
 37 60  1  0  0  0  0
 37 70  1  0  0  0  0
 37 75  2  0  0  0  0
 38 65  1  0  0  0  0
 38 68  1  0  0  0  0
 38 76  2  0  0  0  0
 39 42  1  0  0  0  0
 40 49  1  0  0  0  0
 41 64  1  0  0  0  0
 42 44  1  0  0  0  0
 43 45  1  0  0  0  0
 43 46  1  0  0  0  0
 44 48  1  0  0  0  0
 45 50  1  0  0  0  0
 46 65  1  0  0  0  0
 47 50  1  0  0  0  0
 47 65  1  0  0  0  0
 48 69  1  0  0  0  0
 49 64  1  0  0  0  0
 50 63  1  0  0  0  0
 51 60  1  0  0  0  0
 52 61  1  0  0  0  0
 53 61  1  0  0  0  0
 54 61  1  0  0  0  0
 55 71  1  0  0  0  0
 56 57  1  0  0  0  0
 56 58  1  0  0  0  0
 57 78  1  0  0  0  0
 58 79  1  0  0  0  0
 59 61  1  0  0  0  0
 59 70  1  0  0  0  0
 60 71  1  0  0  0  0
 62 63  1  0  0  0  0
M  CHG  1  71   1
M  ISO  4  38 100  57 101  68 100  78 101
M  END
> <Batch ID>
0012

> <Smiles>
CNC(C)C(=O)NC(C(=O)N1Cc2cc([101O:1][101CH2:1]CCOc3ccc([100NH:0][100C:0](=O)N4CCCC(n5nc(-c6ccc(Oc7ccc(F)cc7F)cc6)c(C(N)=O)c5N)C4)c(Cl)c3)ccc2CC1C(=O)NC1CCCc2ccccc21)C(C)(C)C

> <Shape>
0.332

> <Color>
0.141

> <Negative vol penalty>
0.000

$$$$

  -OEChem-04042320463D

 85 94  0     1  0  0  0  0  0999 V2000
  -27.0903  -29.2105   12.3020 C   0  0  0  0  0  0  0  0  0  0  0  0
  -26.2873  -29.4282   13.4171 C   0  0  0  0  0  0  0  0  0  0  0  0
  -24.4122  -12.4022   19.6079 C   0  0  0  0  0  0  0  0  0  0  0  0
  -25.3784  -13.5440   21.5053 C   0  0  0  0  0  0  0  0  0  0  0  0
  -27.8779  -28.0627   12.2251 C   0  0  0  0  0  0  0  0  0  0  0  0
  -26.2707  -28.4976   14.4553 C   0  0  0  0  0  0  0  0  0  0  0  0
  -25.6523  -29.6642   20.4355 C   0  0  0  0  0  0  0  0  0  0  0  0
  -22.4726  -24.8846   21.1680 C   0  0  0  0  0  0  0  0  0  0  0  0
  -22.7318  -23.7685   20.3726 C   0  0  0  0  0  0  0  0  0  0  0  0
  -25.2121  -11.2900   19.8699 C   0  0  0  0  0  0  0  0  0  0  0  0
  -26.1783  -12.4317   21.7673 C   0  0  0  0  0  0  0  0  0  0  0  0
  -24.5542  -29.6110   21.2929 C   0  0  0  0  0  0  0  0  0  0  0  0
  -25.2168   -8.6740   22.0123 C   0  0  0  0  0  0  0  0  0  0  0  0
  -24.6145   -7.4169   21.9655 C   0  0  0  0  0  0  0  0  0  0  0  0
  -25.2049  -27.3916   21.9786 C   0  0  0  0  0  0  0  0  0  0  0  0
  -21.0617  -23.5397   22.5954 C   0  0  0  0  0  0  0  0  0  0  0  0
  -26.1351   -6.7537   20.2090 C   0  0  0  0  0  0  0  0  0  0  0  0
  -24.4954  -13.5292   20.4256 C   0  0  0  0  0  0  0  0  0  0  0  0
  -22.3800  -14.9360   20.6573 C   0  0  0  0  0  0  0  0  0  0  0  0
  -27.8783  -27.1222   13.2673 C   0  0  0  0  0  0  0  0  0  0  0  0
  -26.5303  -28.5754   20.3350 C   0  0  0  0  0  0  0  0  0  0  0  0
  -27.0581  -27.3354   14.3916 C   0  0  0  0  0  0  0  0  0  0  0  0
  -26.3148  -27.4345   21.1211 C   0  0  0  0  0  0  0  0  0  0  0  0
  -21.6376  -24.7702   22.2795 C   0  0  0  0  0  0  0  0  0  0  0  0
  -22.1559  -22.5380   20.6885 C   0  0  0  0  0  0  0  0  0  0  0  0
  -26.0952  -11.3047   20.9496 C   0  0  0  0  0  0  0  0  0  0  0  0
  -24.3287  -28.4735   22.0625 C   0  0  0  0  0  0  0  0  0  0  0  0
  -26.2783   -8.9711   21.1574 C   0  0  0  0  0  0  0  0  0  0  0  0
  -25.0736   -6.4567   21.0639 C   0  0  0  0  0  0  0  0  0  0  0  0
  -26.7374   -8.0110   20.2558 C   0  0  0  0  0  0  0  0  0  0  0  0
  -21.3208  -22.4236   21.8000 C   0  0  0  0  0  0  0  0  0  0  0  0
  -23.6697  -14.6787   20.1552 C   0  0  0  0  0  0  0  0  0  0  0  0
  -22.0324  -16.1457   20.1074 C   0  0  0  0  0  0  0  0  0  0  0  0
  -21.5686  -14.1518   21.5418 C   0  0  0  0  0  0  0  0  0  0  0  0
  -27.4033  -26.6063   17.9975 C   0  0  0  0  0  0  0  0  0  0  0  0
  -29.5045  -25.5261   20.2202 C   0  0  0  0  0  0  0  0  0  0  0  0
  -30.3051  -25.1701   23.5185 C   0  0  0  0  0  0  0  0  0  0  0  0
  -23.2540  -21.3999   18.7275 C   0  0  0  0  0  0  0  0  0  0  0  0
  -28.7105  -25.8733   13.1178 C   0  0  0  0  0  0  0  0  0  0  0  0
  -27.7252  -28.6590   19.4252 C   0  0  0  0  0  0  0  0  0  0  0  0
  -27.2391  -26.2467   21.0651 C   0  0  0  0  0  0  0  0  0  0  0  0
  -28.9204  -25.1206   14.4291 C   0  0  0  0  0  0  0  0  0  0  0  0
  -24.2368  -18.8528   16.4421 C   0  0  0  0  0  0  0  0  0  0  0  0
  -18.5393  -28.0462   22.8015 C   0  0  0  0  0  0  0  0  0  0  0  0
  -27.6018  -24.9854   15.1840 C   0  0  0  0  0  0  0  0  0  0  0  0
  -24.0708  -17.5609   17.2457 C   0  0  0  0  0  0  0  0  0  0  0  0
  -19.5619  -29.1613   22.7098 C   0  0  0  0  0  0  0  0  0  0  0  0
  -24.7432  -20.0013   17.3129 C   0  0  0  0  0  0  0  0  0  0  0  0
  -23.7929  -18.9588   19.3327 C   0  0  0  0  0  0  0  0  0  0  0  0
  -19.2262  -26.8737   22.1281 C   0  0  0  0  0  0  0  0  0  0  0  0
  -27.0318  -26.3613   15.5494 C   0  0  1  0  0  0  0  0  0  0  0  0
  -28.2650  -27.2907   19.0206 C   0  0  1  0  0  0  0  0  0  0  0  0
  -23.2230  -17.7902   18.5123 C   0  0  2  0  0  0  0  0  0  0  0  0
  -20.8641  -28.4506   23.0475 C   0  0  2  0  0  0  0  0  0  0  0  0
  -32.0679  -24.2112   25.0254 C   0  0  0  0  0  0  0  0  0  0  0  0
  -28.4184  -22.7221   19.7023 C   0  0  0  0  0  0  0  0  0  0  0  0
  -29.4946  -21.9861   21.8397 C   0  0  0  0  0  0  0  0  0  0  0  0
  -30.9020  -22.8462   19.9684 C   0  0  0  0  0  0  0  0  0  0  0  0
  -30.9310  -27.8246   24.6680 C   0  0  0  0  0  0  0  0  0  0  0  0
  -21.3590  -25.9712   23.1344 C   0  0  0  0  0  0  0  0  0  0  0  0
  -22.0981  -29.1595   22.5205 C   0  0  0  0  0  0  0  0  0  1  0  0
  -29.4757  -24.4617   21.2904 C   0  0  1  0  0  0  0  0  0  0  0  0
  -31.5896  -25.4468   24.2788 C   0  0  2  0  0  0  0  0  0  0  0  0
  -29.5540  -23.0255   20.7000 C   0  0  0  0  0  0  0  0  0  0  0  0
  -24.1115  -15.6470   19.3481 N   0  0  0  0  0  0  0  0  0  0  0  0
  -23.0936  -16.5245   19.3389 N   0  0  0  0  0  0  0  0  0  0  0  0
  -28.3898  -26.3741   20.1557 N   0  0  0  0  0  0  0  0  0  0  0  0
  -23.8889  -20.1622   18.4916 N   0  0  0  0  0  0  0  0  0  0  0  0
  -20.9256  -16.9116   20.2109 N   0  0  0  0  0  0  0  0  0  0  0  0
  -22.0788  -12.9346   22.0136 N   0  0  0  0  0  0  0  0  0  0  0  0
  -22.4410  -21.4242   19.8603 N   0  0  0  0  0  0  0  0  0  0  0  0
  -27.7317  -26.9115   16.6904 N   0  0  0  0  0  0  0  0  0  0  0  0
  -30.5541  -24.7862   22.2178 N   0  0  0  0  0  0  0  0  0  0  0  0
  -20.7088  -27.0908   22.3802 N   0  3  1  0  0  0  0  0  0  0  0  0
  -31.3805  -26.5419   25.2678 N   0  3  0  0  0  0  0  0  0  0  0  0
  -20.4185  -14.5117   21.8901 O   0  0  0  0  0  0  0  0  0  0  0  0
  -26.5078  -25.8555   18.3665 O   0  0  0  0  0  0  0  0  0  0  0  0
  -30.4832  -25.6068   19.4737 O   0  0  0  0  0  0  0  0  0  0  0  0
  -29.1923  -25.2798   24.0286 O   0  0  0  0  0  0  0  0  0  0  0  0
  -23.3978  -22.3589   17.9648 O   0  0  0  0  0  0  0  0  0  0  0  0
  -26.8757  -10.2195   21.2057 O   0  0  0  0  0  0  0  0  0  0  0  0
  -23.2573  -28.4187   22.8997 O   0  0  0  0  0  0  0  0  0  1  0  0
  -24.4961   -5.2489   21.0201 F   0  0  0  0  0  0  0  0  0  0  0  0
  -27.7575   -8.2901   19.4329 F   0  0  0  0  0  0  0  0  0  0  0  0
  -20.5868  -20.9189   22.2268 Cl  0  0  0  0  0  0  0  0  0  0  0  0
  1  2  1  0  0  0  0
  1  5  2  0  0  0  0
  2  6  2  0  0  0  0
  3 10  2  0  0  0  0
  3 18  1  0  0  0  0
  4 11  1  0  0  0  0
  4 18  2  0  0  0  0
  5 20  1  0  0  0  0
  6 22  1  0  0  0  0
  7 12  2  0  0  0  0
  7 21  1  0  0  0  0
  8  9  2  0  0  0  0
  8 24  1  0  0  0  0
  9 25  1  0  0  0  0
 10 26  1  0  0  0  0
 11 26  2  0  0  0  0
 12 27  1  0  0  0  0
 13 14  2  0  0  0  0
 13 28  1  0  0  0  0
 14 29  1  0  0  0  0
 15 23  1  0  0  0  0
 15 27  2  0  0  0  0
 16 24  2  0  0  0  0
 16 31  1  0  0  0  0
 17 29  2  0  0  0  0
 17 30  1  0  0  0  0
 18 32  1  0  0  0  0
 19 32  1  0  0  0  0
 19 33  2  0  0  0  0
 19 34  1  0  0  0  0
 20 22  2  0  0  0  0
 20 39  1  0  0  0  0
 21 23  2  0  0  0  0
 21 40  1  0  0  0  0
 22 51  1  0  0  0  0
 23 41  1  0  0  0  0
 24 60  1  0  0  0  0
 25 31  2  0  0  0  0
 25 71  1  0  0  0  0
 26 81  1  0  0  0  0
 27 82  1  0  0  0  0
 28 30  2  0  0  0  0
 28 81  1  0  0  0  0
 29 83  1  0  0  0  0
 30 84  1  0  0  0  0
 31 85  1  0  0  0  0
 32 65  2  0  0  0  0
 33 66  1  0  0  0  0
 33 69  1  0  0  0  0
 34 70  1  0  0  0  0
 34 76  2  0  0  0  0
 35 52  1  0  0  0  0
 35 72  1  0  0  0  0
 35 77  2  0  0  0  0
 36 62  1  0  0  0  0
 36 67  1  0  0  0  0
 36 78  2  0  0  0  0
 37 63  1  0  0  0  0
 37 73  1  0  0  0  0
 37 79  2  0  0  0  0
 38 68  1  0  0  0  0
 38 71  1  0  0  0  0
 38 80  2  0  0  0  0
 39 42  1  0  0  0  0
 40 52  1  0  0  0  0
 41 67  1  0  0  0  0
 42 45  1  0  0  0  0
 43 46  1  0  0  0  0
 43 48  1  0  0  0  0
 44 47  1  0  0  0  0
 44 50  1  0  0  0  0
 45 51  1  0  0  0  0
 46 53  1  0  0  0  0
 47 54  1  0  0  0  0
 48 68  1  0  0  0  0
 49 53  1  0  0  0  0
 49 68  1  0  0  0  0
 50 74  1  0  0  0  0
 51 72  1  0  0  0  0
 52 67  1  0  0  0  0
 53 66  1  0  0  0  0
 54 61  1  0  0  0  0
 54 74  1  0  0  0  0
 55 63  1  0  0  0  0
 56 64  1  0  0  0  0
 57 64  1  0  0  0  0
 58 64  1  0  0  0  0
 59 75  1  0  0  0  0
 60 74  1  0  0  0  0
 61 82  1  0  0  0  0
 62 64  1  0  0  0  0
 62 73  1  0  0  0  0
 63 75  1  0  0  0  0
 65 66  1  0  0  0  0
M  CHG  2  74   1  75   1
M  ISO  4  38 100  61 101  71 100  82 101
M  END
> <Batch ID>
0012

> <Smiles>
CNC(C)C(=O)NC(C(=O)N1Cc2cc([101O:1][101CH2:1]C3CCCN3Cc3ccc([100NH:0][100C:0](=O)N4CCCC(n5nc(-c6ccc(Oc7ccc(F)cc7F)cc6)c(C(N)=O)c5N)C4)c(Cl)c3)ccc2CC1C(=O)NC1CCCc2ccccc21)C(C)(C)C

> <Shape>
0.170

> <Color>
0.089

> <Negative vol penalty>
0.000

$$$$
