
  -OEChem-04042320483D

 84 92  0     1  0  0  0  0  0999 V2000
  -39.8173  -27.5812   21.7671 C   0  0  0  0  0  0  0  0  0  0  0  0
  -38.8081  -27.0230   20.9891 C   0  0  0  0  0  0  0  0  0  0  0  0
  -23.0741   -9.8788   19.9535 C   0  0  0  0  0  0  0  0  0  0  0  0
  -23.7533   -9.9483   22.2710 C   0  0  0  0  0  0  0  0  0  0  0  0
  -41.0733  -26.9778   21.8153 C   0  0  0  0  0  0  0  0  0  0  0  0
  -39.0547  -25.8616   20.2578 C   0  0  0  0  0  0  0  0  0  0  0  0
  -35.3074  -22.4793   20.6616 C   0  0  0  0  0  0  0  0  0  0  0  0
  -30.0474  -17.6448   18.9985 C   0  0  0  0  0  0  0  0  0  0  0  0
  -30.3111  -18.8466   18.3415 C   0  0  0  0  0  0  0  0  0  0  0  0
  -22.3252   -8.7297   20.2075 C   0  0  0  0  0  0  0  0  0  0  0  0
  -23.0044   -8.7993   22.5250 C   0  0  0  0  0  0  0  0  0  0  0  0
  -34.1607  -22.7057   19.9016 C   0  0  0  0  0  0  0  0  0  0  0  0
  -23.3240   -5.4650   22.0653 C   0  0  0  0  0  0  0  0  0  0  0  0
  -23.9170   -4.4611   22.8308 C   0  0  0  0  0  0  0  0  0  0  0  0
  -34.9325  -21.1043   18.2710 C   0  0  0  0  0  0  0  0  0  0  0  0
  -29.0355  -18.8639   20.8224 C   0  0  0  0  0  0  0  0  0  0  0  0
  -22.1565   -4.6727   24.4719 C   0  0  0  0  0  0  0  0  0  0  0  0
  -23.7882  -10.4880   20.9853 C   0  0  0  0  0  0  0  0  0  0  0  0
  -24.1269  -13.0105   20.8112 C   0  0  0  0  0  0  0  0  0  0  0  0
  -41.3325  -25.8030   21.0919 C   0  0  0  0  0  0  0  0  0  0  0  0
  -36.2821  -21.5702   20.2258 C   0  0  0  0  0  0  0  0  0  0  0  0
  -40.3157  -25.2426   20.2953 C   0  0  0  0  0  0  0  0  0  0  0  0
  -36.0895  -20.8662   19.0285 C   0  0  0  0  0  0  0  0  0  0  0  0
  -29.4095  -17.6534   20.2390 C   0  0  0  0  0  0  0  0  0  0  0  0
  -29.9371  -20.0571   18.9249 C   0  0  0  0  0  0  0  0  0  0  0  0
  -22.2903   -8.1900   21.4932 C   0  0  0  0  0  0  0  0  0  0  0  0
  -33.9745  -22.0203   18.7046 C   0  0  0  0  0  0  0  0  0  0  0  0
  -22.1474   -6.0729   22.5030 C   0  0  0  0  0  0  0  0  0  0  0  0
  -23.3332   -4.0649   24.0341 C   0  0  0  0  0  0  0  0  0  0  0  0
  -29.2993  -20.0658   20.1654 C   0  0  0  0  0  0  0  0  0  0  0  0
  -21.5636   -5.6767   23.7063 C   0  0  0  0  0  0  0  0  0  0  0  0
  -24.5625  -11.6747   20.7234 C   0  0  0  0  0  0  0  0  0  0  0  0
  -25.2289  -13.7543   20.4667 C   0  0  0  0  0  0  0  0  0  0  0  0
  -22.8411  -13.5323   21.1719 C   0  0  0  0  0  0  0  0  0  0  0  0
  -39.3498  -21.7848   19.4217 C   0  0  0  0  0  0  0  0  0  0  0  0
  -39.1278  -18.5533   19.2468 C   0  0  0  0  0  0  0  0  0  0  0  0
  -37.1514  -15.8039   18.8205 C   0  0  0  0  0  0  0  0  0  0  0  0
  -30.8078  -14.5040   21.2610 C   0  0  0  0  0  0  0  0  0  0  0  0
  -42.7199  -25.2133   21.1380 C   0  0  0  0  0  0  0  0  0  0  0  0
  -37.5008  -21.3175   21.0704 C   0  0  0  0  0  0  0  0  0  0  0  0
  -37.0962  -19.8647   18.5267 C   0  0  0  0  0  0  0  0  0  0  0  0
  -42.7879  -23.7758   20.6290 C   0  0  0  0  0  0  0  0  0  0  0  0
  -29.6528  -12.3813   18.4570 C   0  0  0  0  0  0  0  0  0  0  0  0
  -42.0220  -23.6371   19.3172 C   0  0  0  0  0  0  0  0  0  0  0  0
  -28.2108  -12.0656   18.8504 C   0  0  0  0  0  0  0  0  0  0  0  0
  -30.5325  -12.6300   19.6785 C   0  0  0  0  0  0  0  0  0  0  0  0
  -28.5673  -13.3648   20.9871 C   0  0  0  0  0  0  0  0  0  0  0  0
  -40.5371  -23.9697   19.5075 C   0  0  1  0  0  0  0  0  0  0  0  0
  -38.6721  -20.7500   20.2747 C   0  0  1  0  0  0  0  0  0  0  0  0
  -27.6440  -13.1548   19.7776 C   0  0  2  0  0  0  0  0  0  0  0  0
  -37.2611  -13.3003   18.6890 C   0  0  0  0  0  0  0  0  0  0  0  0
  -40.2580  -18.7537   16.4198 C   0  0  0  0  0  0  0  0  0  0  0  0
  -39.4648  -16.4144   16.0117 C   0  0  0  0  0  0  0  0  0  0  0  0
  -41.1705  -16.8612   17.7764 C   0  0  0  0  0  0  0  0  0  0  0  0
  -29.8129  -22.5353   18.8710 C   0  0  0  0  0  0  0  0  0  0  0  0
  -31.1837  -16.7285   22.2558 C   0  0  0  0  0  0  0  0  0  0  0  0
  -35.3898  -15.4871   21.1775 C   0  0  0  0  0  0  0  0  0  0  0  0
  -29.1274  -16.3685   20.9414 C   0  0  0  0  0  0  0  0  0  0  0  0
  -30.8746  -21.2869   16.9836 C   0  0  0  0  0  0  0  0  0  0  0  0
  -32.3762  -21.1511   17.1730 C   0  0  0  0  0  0  0  0  0  1  0  0
  -38.7727  -17.5631   18.1640 C   0  0  1  0  0  0  0  0  0  0  0  0
  -37.0545  -14.5029   19.5967 C   0  0  2  0  0  0  0  0  0  0  0  0
  -39.8983  -17.4183   17.1012 C   0  0  0  0  0  0  0  0  0  0  0  0
  -25.8414  -11.5727   20.3522 N   0  0  0  0  0  0  0  0  0  0  0  0
  -26.2189  -12.8539   20.2035 N   0  0  0  0  0  0  0  0  0  0  0  0
  -38.2743  -19.6571   19.3849 N   0  0  0  0  0  0  0  0  0  0  0  0
  -29.9489  -13.6382   20.5642 N   0  0  0  0  0  0  0  0  0  0  0  0
  -25.4380  -15.0842   20.3663 N   0  0  0  0  0  0  0  0  0  0  0  0
  -21.8206  -12.6284   21.4974 N   0  0  0  0  0  0  0  0  0  0  0  0
  -39.8468  -22.8613   20.1314 N   0  0  0  0  0  0  0  0  0  0  0  0
  -38.4302  -16.3191   18.8448 N   0  0  0  0  0  0  0  0  0  0  0  0
  -30.2033  -21.2630   18.2629 N   0  0  3  0  0  0  0  0  0  0  0  0
  -30.3259  -15.7906   21.5455 N   0  0  0  0  0  0  0  0  0  0  0  0
  -35.7155  -14.3819   20.2397 N   0  3  0  0  0  0  0  0  0  0  0  0
  -22.5995  -14.7631   21.1888 O   0  0  0  0  0  0  0  0  0  0  0  0
  -39.4182  -21.6182   18.2095 O   0  0  0  0  0  0  0  0  0  0  0  0
  -40.1215  -18.3510   19.9491 O   0  0  0  0  0  0  0  0  0  0  0  0
  -36.1898  -16.3104   18.2466 O   0  0  0  0  0  0  0  0  0  0  0  0
  -31.9443  -14.1504   21.6005 O   0  0  0  0  0  0  0  0  0  0  0  0
  -21.5595   -7.0690   21.7414 O   0  0  0  0  0  0  0  0  0  0  0  0
  -32.8564  -22.2399   17.9606 O   0  0  0  0  0  0  0  0  0  1  0  0
  -23.9018   -3.0997   24.7684 F   0  0  0  0  0  0  0  0  0  0  0  0
  -28.9354  -21.2234   20.7353 F   0  0  0  0  0  0  0  0  0  0  0  0
  -20.4325   -6.2562   24.1314 F   0  0  0  0  0  0  0  0  0  0  0  0
  1  2  1  0  0  0  0
  1  5  2  0  0  0  0
  2  6  2  0  0  0  0
  3 10  2  0  0  0  0
  3 18  1  0  0  0  0
  4 11  1  0  0  0  0
  4 18  2  0  0  0  0
  5 20  1  0  0  0  0
  6 22  1  0  0  0  0
  7 12  2  0  0  0  0
  7 21  1  0  0  0  0
  8  9  2  0  0  0  0
  8 24  1  0  0  0  0
  9 25  1  0  0  0  0
 10 26  1  0  0  0  0
 11 26  2  0  0  0  0
 12 27  1  0  0  0  0
 13 14  2  0  0  0  0
 13 28  1  0  0  0  0
 14 29  1  0  0  0  0
 15 23  1  0  0  0  0
 15 27  2  0  0  0  0
 16 24  2  0  0  0  0
 16 30  1  0  0  0  0
 17 29  2  0  0  0  0
 17 31  1  0  0  0  0
 18 32  1  0  0  0  0
 19 32  1  0  0  0  0
 19 33  2  0  0  0  0
 19 34  1  0  0  0  0
 20 22  2  0  0  0  0
 20 39  1  0  0  0  0
 21 23  2  0  0  0  0
 21 40  1  0  0  0  0
 22 48  1  0  0  0  0
 23 41  1  0  0  0  0
 24 58  1  0  0  0  0
 25 30  2  0  0  0  0
 25 72  1  0  0  0  0
 26 80  1  0  0  0  0
 27 81  1  0  0  0  0
 28 31  2  0  0  0  0
 28 80  1  0  0  0  0
 29 82  1  0  0  0  0
 30 83  1  0  0  0  0
 31 84  1  0  0  0  0
 32 64  2  0  0  0  0
 33 65  1  0  0  0  0
 33 68  1  0  0  0  0
 34 69  1  0  0  0  0
 34 75  2  0  0  0  0
 35 49  1  0  0  0  0
 35 70  1  0  0  0  0
 35 76  2  0  0  0  0
 36 61  1  0  0  0  0
 36 66  1  0  0  0  0
 36 77  2  0  0  0  0
 37 62  1  0  0  0  0
 37 71  1  0  0  0  0
 37 78  2  0  0  0  0
 38 67  1  0  0  0  0
 38 73  1  0  0  0  0
 38 79  2  0  0  0  0
 39 42  1  0  0  0  0
 40 49  1  0  0  0  0
 41 66  1  0  0  0  0
 42 44  1  0  0  0  0
 43 45  1  0  0  0  0
 43 46  1  0  0  0  0
 44 48  1  0  0  0  0
 45 50  1  0  0  0  0
 46 67  1  0  0  0  0
 47 50  1  0  0  0  0
 47 67  1  0  0  0  0
 48 70  1  0  0  0  0
 49 66  1  0  0  0  0
 50 65  1  0  0  0  0
 51 62  1  0  0  0  0
 52 63  1  0  0  0  0
 53 63  1  0  0  0  0
 54 63  1  0  0  0  0
 55 72  1  0  0  0  0
 56 73  1  0  0  0  0
 57 74  1  0  0  0  0
 58 73  1  0  0  0  0
 59 60  1  0  0  0  0
 59 72  1  0  0  0  0
 60 81  1  0  0  0  0
 61 63  1  0  0  0  0
 61 71  1  0  0  0  0
 62 74  1  0  0  0  0
 64 65  1  0  0  0  0
M  CHG  1  74   1
M  ISO  4  38 100  60 101  73 100  81 101
M  END
> <Batch ID>
0013

> <Smiles>
CNC(C)C(=O)NC(C(=O)N1Cc2cc([101O:1][101CH2:1]CN(C)c3ccc(C[100N:0](C)[100C:0](=O)N4CCCC(n5nc(-c6ccc(Oc7ccc(F)cc7F)cc6)c(C(N)=O)c5N)C4)cc3F)ccc2CC1C(=O)NC1CCCc2ccccc21)C(C)(C)C

> <Shape>
0.216

> <Color>
0.189

> <Negative vol penalty>
0.000

$$$$

  -OEChem-04042320483D

 84 92  0     1  0  0  0  0  0999 V2000
  -24.2532  -30.2506   14.1020 C   0  0  0  0  0  0  0  0  0  0  0  0
  -25.3463  -29.6673   14.7348 C   0  0  0  0  0  0  0  0  0  0  0  0
  -23.9888   -9.6626   21.6772 C   0  0  0  0  0  0  0  0  0  0  0  0
  -24.4640  -10.9324   23.6769 C   0  0  0  0  0  0  0  0  0  0  0  0
  -23.5115  -31.2322   14.7579 C   0  0  0  0  0  0  0  0  0  0  0  0
  -25.6989  -30.0661   16.0236 C   0  0  0  0  0  0  0  0  0  0  0  0
  -26.7543  -26.1454   19.0500 C   0  0  0  0  0  0  0  0  0  0  0  0
  -31.0810  -20.2161   20.9824 C   0  0  0  0  0  0  0  0  0  0  0  0
  -30.8170  -18.8953   20.6200 C   0  0  0  0  0  0  0  0  0  0  0  0
  -23.5094   -8.6114   22.4586 C   0  0  0  0  0  0  0  0  0  0  0  0
  -23.9846   -9.8811   24.4584 C   0  0  0  0  0  0  0  0  0  0  0  0
  -28.0037  -25.5449   18.9017 C   0  0  0  0  0  0  0  0  0  0  0  0
  -20.6826   -7.8543   24.1524 C   0  0  0  0  0  0  0  0  0  0  0  0
  -19.4850   -7.2528   23.7656 C   0  0  0  0  0  0  0  0  0  0  0  0
  -28.8115  -26.7662   20.8188 C   0  0  0  0  0  0  0  0  0  0  0  0
  -28.7088  -20.6520   21.1226 C   0  0  0  0  0  0  0  0  0  0  0  0
  -20.6249   -5.1358   23.5285 C   0  0  0  0  0  0  0  0  0  0  0  0
  -24.4661  -10.8232   22.2864 C   0  0  0  0  0  0  0  0  0  0  0  0
  -24.2242  -12.9931   20.9671 C   0  0  0  0  0  0  0  0  0  0  0  0
  -23.8494  -31.6363   16.0591 C   0  0  0  0  0  0  0  0  0  0  0  0
  -26.5268  -27.0706   20.0789 C   0  0  0  0  0  0  0  0  0  0  0  0
  -24.9618  -31.0550   16.6970 C   0  0  0  0  0  0  0  0  0  0  0  0
  -27.5575  -27.3751   20.9795 C   0  0  0  0  0  0  0  0  0  0  0  0
  -30.0269  -21.0944   21.2338 C   0  0  0  0  0  0  0  0  0  0  0  0
  -29.4988  -18.4528   20.5089 C   0  0  0  0  0  0  0  0  0  0  0  0
  -23.5073   -8.7206   23.8492 C   0  0  0  0  0  0  0  0  0  0  0  0
  -29.0334  -25.8574   19.7844 C   0  0  0  0  0  0  0  0  0  0  0  0
  -21.8514   -7.0966   24.2271 C   0  0  0  0  0  0  0  0  0  0  0  0
  -19.4562   -5.8935   23.4537 C   0  0  0  0  0  0  0  0  0  0  0  0
  -28.4447  -19.3311   20.7602 C   0  0  0  0  0  0  0  0  0  0  0  0
  -21.8225   -5.7374   23.9152 C   0  0  0  0  0  0  0  0  0  0  0  0
  -24.9619  -11.9093   21.4797 C   0  0  0  0  0  0  0  0  0  0  0  0
  -25.1464  -13.7395   20.2750 C   0  0  0  0  0  0  0  0  0  0  0  0
  -22.8299  -13.2980   21.1042 C   0  0  0  0  0  0  0  0  0  0  0  0
  -25.7312  -30.1458   20.1948 C   0  0  0  0  0  0  0  0  0  0  0  0
  -25.5627  -29.5807   23.3846 C   0  0  0  0  0  0  0  0  0  0  0  0
  -26.5406  -27.6815   26.0461 C   0  0  0  0  0  0  0  0  0  0  0  0
  -30.1658  -16.1128   19.8564 C   0  0  0  0  0  0  0  0  0  0  0  0
  -23.0464  -32.7348   16.7096 C   0  0  0  0  0  0  0  0  0  0  0  0
  -25.1656  -27.6894   20.2415 C   0  0  0  0  0  0  0  0  0  0  0  0
  -27.3587  -28.3466   22.1132 C   0  0  0  0  0  0  0  0  0  0  0  0
  -23.2596  -32.8337   18.2179 C   0  0  0  0  0  0  0  0  0  0  0  0
  -29.9148  -12.6792   18.9484 C   0  0  0  0  0  0  0  0  0  0  0  0
  -24.7468  -32.7752   18.5518 C   0  0  0  0  0  0  0  0  0  0  0  0
  -28.5431  -12.2620   19.4838 C   0  0  0  0  0  0  0  0  0  0  0  0
  -30.6110  -13.6682   19.8816 C   0  0  0  0  0  0  0  0  0  0  0  0
  -28.4454  -14.4342   20.7718 C   0  0  0  0  0  0  0  0  0  0  0  0
  -25.3607  -31.4432   18.1043 C   0  0  1  0  0  0  0  0  0  0  0  0
  -25.1957  -29.0051   21.0132 C   0  0  1  0  0  0  0  0  0  0  0  0
  -27.6778  -13.4885   19.8336 C   0  0  2  0  0  0  0  0  0  0  0  0
  -29.2096  -22.4629   23.7821 C   0  0  0  0  0  0  0  0  0  0  0  0
  -26.2676  -27.4862   28.5330 C   0  0  0  0  0  0  0  0  0  0  0  0
  -27.4604  -31.9377   23.7757 C   0  0  0  0  0  0  0  0  0  0  0  0
  -27.8927  -31.1141   26.1001 C   0  0  0  0  0  0  0  0  0  0  0  0
  -25.5931  -31.8154   25.4348 C   0  0  0  0  0  0  0  0  0  0  0  0
  -25.3432  -24.9845   25.8194 C   0  0  0  0  0  0  0  0  0  0  0  0
  -31.4981  -23.2210   19.6317 C   0  0  0  0  0  0  0  0  0  0  0  0
  -29.3572  -23.1435   22.4639 C   0  0  0  0  0  0  0  0  0  0  0  0
  -31.4838  -23.1021   21.1509 C   0  0  0  0  0  0  0  0  0  0  0  0
  -30.2847  -23.9611   19.0813 C   0  0  0  0  0  0  0  0  0  1  0  0
  -26.5372  -29.6494   24.5354 C   0  0  1  0  0  0  0  0  0  0  0  0
  -25.7490  -27.0438   27.1735 C   0  0  2  0  0  0  0  0  0  0  0  0
  -26.8755  -31.1123   24.9391 C   0  0  0  0  0  0  0  0  0  0  0  0
  -26.2532  -11.9588   21.1420 N   0  0  0  0  0  0  0  0  0  0  0  0
  -26.3341  -13.0827   20.4097 N   0  0  0  0  0  0  0  0  0  0  0  0
  -26.0118  -28.9301   22.2266 N   0  0  0  0  0  0  0  0  0  0  0  0
  -29.7334  -14.8057   20.1652 N   0  0  0  0  0  0  0  0  0  0  0  0
  -25.0490  -14.8869   19.5704 N   0  0  0  0  0  0  0  0  0  0  0  0
  -22.0252  -12.4250   21.8489 N   0  0  0  0  0  0  0  0  0  0  0  0
  -29.2339  -17.1106   20.1401 N   0  0  0  0  0  0  0  0  0  0  0  0
  -25.0185  -30.3904   19.0365 N   0  0  0  0  0  0  0  0  0  0  0  0
  -25.9564  -28.8520   25.6103 N   0  0  0  0  0  0  0  0  0  0  0  0
  -30.2925  -22.4221   21.5987 N   0  0  3  0  0  0  0  0  0  0  0  0
  -25.8417  -25.5584   27.0958 N   0  3  0  0  0  0  0  0  0  0  0  0
  -22.3098  -14.3058   20.5682 O   0  0  0  0  0  0  0  0  0  0  0  0
  -26.7170  -30.7596   20.5861 O   0  0  0  0  0  0  0  0  0  0  0  0
  -24.4415  -30.0794   23.5110 O   0  0  0  0  0  0  0  0  0  0  0  0
  -27.5759  -27.1924   25.5993 O   0  0  0  0  0  0  0  0  0  0  0  0
  -31.2702  -16.3284   19.3504 O   0  0  0  0  0  0  0  0  0  0  0  0
  -23.0394   -7.6951   24.6120 O   0  0  0  0  0  0  0  0  0  0  0  0
  -30.2541  -25.2732   19.6416 O   0  0  0  0  0  0  0  0  0  1  0  0
  -18.3058   -5.3157   23.0838 F   0  0  0  0  0  0  0  0  0  0  0  0
  -27.1740  -18.9166   20.6559 F   0  0  0  0  0  0  0  0  0  0  0  0
  -22.9419   -5.0040   23.9863 F   0  0  0  0  0  0  0  0  0  0  0  0
  1  2  1  0  0  0  0
  1  5  2  0  0  0  0
  2  6  2  0  0  0  0
  3 10  2  0  0  0  0
  3 18  1  0  0  0  0
  4 11  1  0  0  0  0
  4 18  2  0  0  0  0
  5 20  1  0  0  0  0
  6 22  1  0  0  0  0
  7 12  2  0  0  0  0
  7 21  1  0  0  0  0
  8  9  2  0  0  0  0
  8 24  1  0  0  0  0
  9 25  1  0  0  0  0
 10 26  1  0  0  0  0
 11 26  2  0  0  0  0
 12 27  1  0  0  0  0
 13 14  2  0  0  0  0
 13 28  1  0  0  0  0
 14 29  1  0  0  0  0
 15 23  1  0  0  0  0
 15 27  2  0  0  0  0
 16 24  2  0  0  0  0
 16 30  1  0  0  0  0
 17 29  2  0  0  0  0
 17 31  1  0  0  0  0
 18 32  1  0  0  0  0
 19 32  1  0  0  0  0
 19 33  2  0  0  0  0
 19 34  1  0  0  0  0
 20 22  2  0  0  0  0
 20 39  1  0  0  0  0
 21 23  2  0  0  0  0
 21 40  1  0  0  0  0
 22 48  1  0  0  0  0
 23 41  1  0  0  0  0
 24 73  1  0  0  0  0
 25 30  2  0  0  0  0
 25 70  1  0  0  0  0
 26 80  1  0  0  0  0
 27 81  1  0  0  0  0
 28 31  2  0  0  0  0
 28 80  1  0  0  0  0
 29 82  1  0  0  0  0
 30 83  1  0  0  0  0
 31 84  1  0  0  0  0
 32 64  2  0  0  0  0
 33 65  1  0  0  0  0
 33 68  1  0  0  0  0
 34 69  1  0  0  0  0
 34 75  2  0  0  0  0
 35 49  1  0  0  0  0
 35 71  1  0  0  0  0
 35 76  2  0  0  0  0
 36 61  1  0  0  0  0
 36 66  1  0  0  0  0
 36 77  2  0  0  0  0
 37 62  1  0  0  0  0
 37 72  1  0  0  0  0
 37 78  2  0  0  0  0
 38 67  1  0  0  0  0
 38 70  1  0  0  0  0
 38 79  2  0  0  0  0
 39 42  1  0  0  0  0
 40 49  1  0  0  0  0
 41 66  1  0  0  0  0
 42 44  1  0  0  0  0
 43 45  1  0  0  0  0
 43 46  1  0  0  0  0
 44 48  1  0  0  0  0
 45 50  1  0  0  0  0
 46 67  1  0  0  0  0
 47 50  1  0  0  0  0
 47 67  1  0  0  0  0
 48 71  1  0  0  0  0
 49 66  1  0  0  0  0
 50 65  1  0  0  0  0
 51 58  1  0  0  0  0
 52 62  1  0  0  0  0
 53 63  1  0  0  0  0
 54 63  1  0  0  0  0
 55 63  1  0  0  0  0
 56 74  1  0  0  0  0
 57 59  1  0  0  0  0
 57 60  1  0  0  0  0
 58 73  1  0  0  0  0
 59 73  1  0  0  0  0
 60 81  1  0  0  0  0
 61 63  1  0  0  0  0
 61 72  1  0  0  0  0
 62 74  1  0  0  0  0
 64 65  1  0  0  0  0
M  CHG  1  74   1
M  ISO  4  38 100  60 101  70 100  81 101
M  END
> <Batch ID>
0013

> <Smiles>
CCN(CC[101CH2:1][101O:1]c1ccc2c(c1)CN(C(=O)C(NC(=O)C(C)NC)C(C)(C)C)C(C(=O)NC1CCCc3ccccc31)C2)c1ccc([100NH:0][100C:0](=O)N2CCCC(n3nc(-c4ccc(Oc5ccc(F)cc5F)cc4)c(C(N)=O)c3N)C2)c(F)c1

> <Shape>
0.291

> <Color>
0.142

> <Negative vol penalty>
0.000

$$$$

  -OEChem-04042320483D

 83 91  0     1  0  0  0  0  0999 V2000
  -27.2810  -11.8658   22.9744 C   0  0  0  0  0  0  0  0  0  0  0  0
  -27.9934  -13.0232   22.6772 C   0  0  0  0  0  0  0  0  0  0  0  0
  -23.8156  -29.9307   21.9260 C   0  0  0  0  0  0  0  0  0  0  0  0
  -22.9927  -27.6648   22.0859 C   0  0  0  0  0  0  0  0  0  0  0  0
  -26.0886  -11.5915   22.3059 C   0  0  0  0  0  0  0  0  0  0  0  0
  -27.5144  -13.9065   21.7104 C   0  0  0  0  0  0  0  0  0  0  0  0
  -28.0190  -20.0099   21.7268 C   0  0  0  0  0  0  0  0  0  0  0  0
  -29.5455  -26.3448   15.5375 C   0  0  0  0  0  0  0  0  0  0  0  0
  -29.9465  -25.1397   16.1140 C   0  0  0  0  0  0  0  0  0  0  0  0
  -22.7522  -30.3724   22.7132 C   0  0  0  0  0  0  0  0  0  0  0  0
  -21.9294  -28.1065   22.8731 C   0  0  0  0  0  0  0  0  0  0  0  0
  -28.9045  -20.8795   21.0917 C   0  0  0  0  0  0  0  0  0  0  0  0
  -18.7985  -28.6872   24.6253 C   0  0  0  0  0  0  0  0  0  0  0  0
  -17.5265  -28.1958   24.3317 C   0  0  0  0  0  0  0  0  0  0  0  0
  -27.3064  -21.1982   19.3130 C   0  0  0  0  0  0  0  0  0  0  0  0
  -30.9000  -27.5570   17.1290 C   0  0  0  0  0  0  0  0  0  0  0  0
  -17.6746  -29.1387   22.1122 C   0  0  0  0  0  0  0  0  0  0  0  0
  -23.9358  -28.5769   21.6123 C   0  0  0  0  0  0  0  0  0  0  0  0
  -26.2994  -27.6915   21.2417 C   0  0  0  0  0  0  0  0  0  0  0  0
  -25.5897  -12.4767   21.3373 C   0  0  0  0  0  0  0  0  0  0  0  0
  -26.7729  -19.7188   21.1533 C   0  0  0  0  0  0  0  0  0  0  0  0
  -26.3149  -13.6431   21.0273 C   0  0  0  0  0  0  0  0  0  0  0  0
  -26.4059  -20.3265   19.9441 C   0  0  0  0  0  0  0  0  0  0  0  0
  -30.0223  -27.5535   16.0449 C   0  0  0  0  0  0  0  0  0  0  0  0
  -30.8242  -25.1431   17.1981 C   0  0  0  0  0  0  0  0  0  0  0  0
  -21.8091  -29.4604   23.1868 C   0  0  0  0  0  0  0  0  0  0  0  0
  -28.5495  -21.4716   19.8832 C   0  0  0  0  0  0  0  0  0  0  0  0
  -19.5085  -29.4045   23.6624 C   0  0  0  0  0  0  0  0  0  0  0  0
  -16.9646  -28.4215   23.0751 C   0  0  0  0  0  0  0  0  0  0  0  0
  -31.3010  -26.3518   17.7056 C   0  0  0  0  0  0  0  0  0  0  0  0
  -18.9466  -29.6302   22.4059 C   0  0  0  0  0  0  0  0  0  0  0  0
  -25.0337  -28.1201   20.7987 C   0  0  0  0  0  0  0  0  0  0  0  0
  -26.9736  -27.3646   20.0906 C   0  0  0  0  0  0  0  0  0  0  0  0
  -26.8191  -27.5973   22.5746 C   0  0  0  0  0  0  0  0  0  0  0  0
  -25.3604  -17.0833   20.0750 C   0  0  0  0  0  0  0  0  0  0  0  0
  -22.8042  -19.0540   19.7513 C   0  0  0  0  0  0  0  0  0  0  0  0
  -21.6283  -22.2349   19.3690 C   0  0  0  0  0  0  0  0  0  0  0  0
  -28.3561  -28.9798   14.8282 C   0  0  0  0  0  0  0  0  0  0  0  0
  -24.3207  -12.1141   20.6073 C   0  0  0  0  0  0  0  0  0  0  0  0
  -25.8181  -18.7994   21.8643 C   0  0  0  0  0  0  0  0  0  0  0  0
  -25.0716  -20.0629   19.2970 C   0  0  0  0  0  0  0  0  0  0  0  0
  -23.6891  -13.2881   19.8636 C   0  0  0  0  0  0  0  0  0  0  0  0
  -25.3772  -26.8430   15.3318 C   0  0  0  0  0  0  0  0  0  0  0  0
  -24.7472  -14.0501   19.0721 C   0  0  0  0  0  0  0  0  0  0  0  0
  -25.0799  -27.0205   16.8196 C   0  0  0  0  0  0  0  0  0  0  0  0
  -26.0556  -28.0742   14.7389 C   0  0  0  0  0  0  0  0  0  0  0  0
  -27.0020  -28.6543   16.9546 C   0  0  0  0  0  0  0  0  0  0  0  0
  -25.8150  -14.6382   20.0025 C   0  0  1  0  0  0  0  0  0  0  0  0
  -24.7844  -18.1746   20.9323 C   0  0  1  0  0  0  0  0  0  0  0  0
  -26.3551  -27.4117   17.5846 C   0  0  1  0  0  0  0  0  0  0  0  0
  -19.9490  -24.0921   19.2008 C   0  0  0  0  0  0  0  0  0  0  0  0
  -22.6282  -18.1431   16.8446 C   0  0  0  0  0  0  0  0  0  0  0  0
  -21.1488  -20.1111   16.3902 C   0  0  0  0  0  0  0  0  0  0  0  0
  -20.4239  -18.3549   18.0067 C   0  0  0  0  0  0  0  0  0  0  0  0
  -30.6192  -29.8347   15.2511 C   0  0  0  0  0  0  0  0  0  0  0  0
  -32.1452  -23.9294   18.9133 C   0  0  0  0  0  0  0  0  0  0  0  0
  -21.6138  -22.6435   22.3002 C   0  0  0  0  0  0  0  0  0  0  0  0
  -30.7365  -22.6641   17.2814 C   0  0  0  0  0  0  0  0  0  0  0  0
  -29.3509  -22.3796   17.8365 C   0  0  0  0  0  0  0  0  0  1  0  0
  -22.2760  -19.9487   18.6561 C   0  0  1  0  0  0  0  0  0  0  0  0
  -20.5219  -22.9922   20.0810 C   0  0  2  0  0  0  0  0  0  0  0  0
  -21.6452  -19.1431   17.4854 C   0  0  0  0  0  0  0  0  0  0  0  0
  -24.9089  -28.0711   19.4697 N   0  0  0  0  0  0  0  0  0  0  0  0
  -26.1047  -27.6080   19.0678 N   0  0  0  0  0  0  0  0  0  0  0  0
  -24.1753  -19.1518   20.0277 N   0  0  0  0  0  0  0  0  0  0  0  0
  -27.2333  -28.4705   15.5125 N   0  0  0  0  0  0  0  0  0  0  0  0
  -28.2189  -26.8955   19.8636 N   0  0  0  0  0  0  0  0  0  0  0  0
  -25.9927  -27.9735   23.6422 N   0  0  0  0  0  0  0  0  0  0  0  0
  -25.3162  -15.8298   20.6548 N   0  0  0  0  0  0  0  0  0  0  0  0
  -21.3599  -20.8842   19.2995 N   0  0  0  0  0  0  0  0  0  0  0  0
  -29.6070  -28.7996   15.4486 N   0  0  0  0  0  0  0  0  0  0  0  0
  -31.2247  -23.9310   17.7759 N   0  0  3  0  0  0  0  0  0  0  0  0
  -21.0416  -23.6139   21.3317 N   0  3  0  0  0  0  0  0  0  0  0  0
  -27.9876  -27.2070   22.8108 O   0  0  0  0  0  0  0  0  0  0  0  0
  -25.8101  -17.3580   18.9687 O   0  0  0  0  0  0  0  0  0  0  0  0
  -22.0275  -18.3015   20.3447 O   0  0  0  0  0  0  0  0  0  0  0  0
  -22.6287  -22.7869   18.9163 O   0  0  0  0  0  0  0  0  0  0  0  0
  -28.2473  -29.6019   13.7644 O   0  0  0  0  0  0  0  0  0  0  0  0
  -20.7715  -29.8910   23.9552 O   0  0  0  0  0  0  0  0  0  0  0  0
  -29.4122  -22.3204   19.2609 O   0  0  0  0  0  0  0  0  0  1  0  0
  -15.7438  -27.9482   22.7927 F   0  0  0  0  0  0  0  0  0  0  0  0
  -32.1436  -26.3666   18.7483 F   0  0  0  0  0  0  0  0  0  0  0  0
  -19.6244  -30.3175   21.4763 F   0  0  0  0  0  0  0  0  0  0  0  0
  1  2  1  0  0  0  0
  1  5  2  0  0  0  0
  2  6  2  0  0  0  0
  3 10  2  0  0  0  0
  3 18  1  0  0  0  0
  4 11  1  0  0  0  0
  4 18  2  0  0  0  0
  5 20  1  0  0  0  0
  6 22  1  0  0  0  0
  7 12  2  0  0  0  0
  7 21  1  0  0  0  0
  8  9  2  0  0  0  0
  8 24  1  0  0  0  0
  9 25  1  0  0  0  0
 10 26  1  0  0  0  0
 11 26  2  0  0  0  0
 12 27  1  0  0  0  0
 13 14  2  0  0  0  0
 13 28  1  0  0  0  0
 14 29  1  0  0  0  0
 15 23  1  0  0  0  0
 15 27  2  0  0  0  0
 16 24  2  0  0  0  0
 16 30  1  0  0  0  0
 17 29  2  0  0  0  0
 17 31  1  0  0  0  0
 18 32  1  0  0  0  0
 19 32  1  0  0  0  0
 19 33  2  0  0  0  0
 19 34  1  0  0  0  0
 20 22  2  0  0  0  0
 20 39  1  0  0  0  0
 21 23  2  0  0  0  0
 21 40  1  0  0  0  0
 22 48  1  0  0  0  0
 23 41  1  0  0  0  0
 24 71  1  0  0  0  0
 25 30  2  0  0  0  0
 25 72  1  0  0  0  0
 26 79  1  0  0  0  0
 27 80  1  0  0  0  0
 28 31  2  0  0  0  0
 28 79  1  0  0  0  0
 29 81  1  0  0  0  0
 30 82  1  0  0  0  0
 31 83  1  0  0  0  0
 32 63  2  0  0  0  0
 33 64  1  0  0  0  0
 33 67  1  0  0  0  0
 34 68  1  0  0  0  0
 34 74  2  0  0  0  0
 35 49  1  0  0  0  0
 35 69  1  0  0  0  0
 35 75  2  0  0  0  0
 36 60  1  0  0  0  0
 36 65  1  0  0  0  0
 36 76  2  0  0  0  0
 37 61  1  0  0  0  0
 37 70  1  0  0  0  0
 37 77  2  0  0  0  0
 38 66  1  0  0  0  0
 38 71  1  0  0  0  0
 38 78  2  0  0  0  0
 39 42  1  0  0  0  0
 40 49  1  0  0  0  0
 41 65  1  0  0  0  0
 42 44  1  0  0  0  0
 43 45  1  0  0  0  0
 43 46  1  0  0  0  0
 44 48  1  0  0  0  0
 45 50  1  0  0  0  0
 46 66  1  0  0  0  0
 47 50  1  0  0  0  0
 47 66  1  0  0  0  0
 48 69  1  0  0  0  0
 49 65  1  0  0  0  0
 50 64  1  0  0  0  0
 51 61  1  0  0  0  0
 52 62  1  0  0  0  0
 53 62  1  0  0  0  0
 54 62  1  0  0  0  0
 55 71  1  0  0  0  0
 56 72  1  0  0  0  0
 57 73  1  0  0  0  0
 58 59  1  0  0  0  0
 58 72  1  0  0  0  0
 59 80  1  0  0  0  0
 60 62  1  0  0  0  0
 60 70  1  0  0  0  0
 61 73  1  0  0  0  0
 63 64  1  0  0  0  0
M  CHG  1  73   1
M  ISO  4  38 100  59 101  71 100  80 101
M  END
> <Batch ID>
0013

> <Smiles>
CNC(C)C(=O)NC(C(=O)N1Cc2cc([101O:1][101CH2:1]CN(C)c3ccc([100N:0](C)[100C:0](=O)N4CCCC(n5nc(-c6ccc(Oc7ccc(F)cc7F)cc6)c(C(N)=O)c5N)C4)cc3F)ccc2CC1C(=O)NC1CCCc2ccccc21)C(C)(C)C

> <Shape>
0.188

> <Color>
0.082

> <Negative vol penalty>
0.000

$$$$

  -OEChem-04042320483D

 83 91  0     1  0  0  0  0  0999 V2000
  -30.8366  -24.7640   18.2704 C   0  0  0  0  0  0  0  0  0  0  0  0
  -29.4550  -24.6631   18.3982 C   0  0  0  0  0  0  0  0  0  0  0  0
  -26.3035  -12.8957   19.7361 C   0  0  0  0  0  0  0  0  0  0  0  0
  -24.1278  -13.5653   20.5454 C   0  0  0  0  0  0  0  0  0  0  0  0
  -31.5751  -25.4593   19.2270 C   0  0  0  0  0  0  0  0  0  0  0  0
  -28.8111  -25.2566   19.4834 C   0  0  0  0  0  0  0  0  0  0  0  0
  -23.2558  -27.8341   19.5084 C   0  0  0  0  0  0  0  0  0  0  0  0
  -26.3592  -11.8991   20.7103 C   0  0  0  0  0  0  0  0  0  0  0  0
  -24.1835  -12.5686   21.5197 C   0  0  0  0  0  0  0  0  0  0  0  0
  -22.0052  -27.3635   19.9065 C   0  0  0  0  0  0  0  0  0  0  0  0
  -27.0269  -11.6832   24.0167 C   0  0  0  0  0  0  0  0  0  0  0  0
  -28.2174  -11.5404   24.7293 C   0  0  0  0  0  0  0  0  0  0  0  0
  -22.3021  -28.4129   22.0582 C   0  0  0  0  0  0  0  0  0  0  0  0
  -23.6339  -23.0176   20.9699 C   0  0  0  0  0  0  0  0  0  0  0  0
  -21.0641  -22.1328   21.5993 C   0  0  0  0  0  0  0  0  0  0  0  0
  -28.4241   -9.2701   23.9292 C   0  0  0  0  0  0  0  0  0  0  0  0
  -25.1878  -13.7289   19.6536 C   0  0  0  0  0  0  0  0  0  0  0  0
  -24.6100  -14.6461   17.3444 C   0  0  0  0  0  0  0  0  0  0  0  0
  -30.9389  -26.0698   20.3194 C   0  0  0  0  0  0  0  0  0  0  0  0
  -24.0449  -28.5896   20.3875 C   0  0  0  0  0  0  0  0  0  0  0  0
  -29.5419  -25.9596   20.4563 C   0  0  0  0  0  0  0  0  0  0  0  0
  -23.5612  -28.8940   21.6679 C   0  0  0  0  0  0  0  0  0  0  0  0
  -23.1560  -21.8232   20.4308 C   0  0  0  0  0  0  0  0  0  0  0  0
  -25.2993  -11.7355   21.6021 C   0  0  0  0  0  0  0  0  0  0  0  0
  -21.5294  -27.6505   21.1825 C   0  0  0  0  0  0  0  0  0  0  0  0
  -26.5349  -10.6194   23.2604 C   0  0  0  0  0  0  0  0  0  0  0  0
  -21.5421  -23.3272   22.1385 C   0  0  0  0  0  0  0  0  0  0  0  0
  -28.9161  -10.3339   24.6856 C   0  0  0  0  0  0  0  0  0  0  0  0
  -22.8269  -23.7696   21.8238 C   0  0  0  0  0  0  0  0  0  0  0  0
  -21.8711  -21.3808   20.7455 C   0  0  0  0  0  0  0  0  0  0  0  0
  -27.2335   -9.4129   23.2166 C   0  0  0  0  0  0  0  0  0  0  0  0
  -25.1299  -14.7589   18.6478 C   0  0  0  0  0  0  0  0  0  0  0  0
  -24.7881  -15.8921   16.7947 C   0  0  0  0  0  0  0  0  0  0  0  0
  -24.0190  -13.5160   16.6892 C   0  0  0  0  0  0  0  0  0  0  0  0
  -26.9010  -28.2084   21.7295 C   0  0  0  0  0  0  0  0  0  0  0  0
  -26.3757  -31.2299   22.7862 C   0  0  0  0  0  0  0  0  0  0  0  0
  -24.1282  -33.6779   23.5628 C   0  0  0  0  0  0  0  0  0  0  0  0
  -25.2761  -21.3616   19.1508 C   0  0  0  0  0  0  0  0  0  0  0  0
  -31.7845  -26.7705   21.3532 C   0  0  0  0  0  0  0  0  0  0  0  0
  -25.3802  -29.1124   19.9334 C   0  0  0  0  0  0  0  0  0  0  0  0
  -24.3607  -29.7184   22.6424 C   0  0  0  0  0  0  0  0  0  0  0  0
  -30.9847  -27.6894   22.2731 C   0  0  0  0  0  0  0  0  0  0  0  0
  -27.6451  -19.7267   17.0552 C   0  0  0  0  0  0  0  0  0  0  0  0
  -29.7283  -26.9831   22.7722 C   0  0  0  0  0  0  0  0  0  0  0  0
  -27.2180  -18.2578   17.1023 C   0  0  0  0  0  0  0  0  0  0  0  0
  -27.4499  -20.4176   18.4036 C   0  0  0  0  0  0  0  0  0  0  0  0
  -25.6762  -18.8241   19.0230 C   0  0  0  0  0  0  0  0  0  0  0  0
  -28.8045  -26.6108   21.6061 C   0  0  1  0  0  0  0  0  0  0  0  0
  -26.3194  -29.4378   21.0908 C   0  0  1  0  0  0  0  0  0  0  0  0
  -25.7935  -18.1031   17.6702 C   0  0  2  0  0  0  0  0  0  0  0  0
  -23.9972  -36.0262   24.4379 C   0  0  0  0  0  0  0  0  0  0  0  0
  -26.9397  -30.2082   25.6054 C   0  0  0  0  0  0  0  0  0  0  0  0
  -25.8862  -32.2967   26.4980 C   0  0  0  0  0  0  0  0  0  0  0  0
  -27.9377  -32.4418   25.0862 C   0  0  0  0  0  0  0  0  0  0  0  0
  -22.8452  -34.6547   21.0811 C   0  0  0  0  0  0  0  0  0  0  0  0
  -19.1023  -25.8159   23.1459 C   0  0  0  0  0  0  0  0  0  0  0  0
  -20.1334  -26.9185   22.9634 C   0  0  0  0  0  0  0  0  0  1  0  0
  -19.5139  -24.5305   22.4455 C   0  0  0  0  0  0  0  0  0  0  0  0
  -25.7316  -31.8382   24.0086 C   0  0  1  0  0  0  0  0  0  0  0  0
  -24.0762  -35.1504   23.1972 C   0  0  2  0  0  0  0  0  0  0  0  0
  -26.6093  -31.6790   25.2821 C   0  0  0  0  0  0  0  0  0  0  0  0
  -25.6028  -15.9801   18.9104 N   0  0  0  0  0  0  0  0  0  0  0  0
  -25.3809  -16.6461   17.7643 N   0  0  0  0  0  0  0  0  0  0  0  0
  -25.6629  -30.2014   22.1539 N   0  0  0  0  0  0  0  0  0  0  0  0
  -26.0765  -20.2323   18.8771 N   0  0  0  0  0  0  0  0  0  0  0  0
  -24.4938  -16.4054   15.5813 N   0  0  0  0  0  0  0  0  0  0  0  0
  -23.9133  -12.3121   17.3989 N   0  0  0  0  0  0  0  0  0  0  0  0
  -23.9782  -21.0621   19.5634 N   0  0  0  0  0  0  0  0  0  0  0  0
  -28.0764  -27.7742   21.1470 N   0  0  0  0  0  0  0  0  0  0  0  0
  -25.4257  -33.2221   23.6629 N   0  0  0  0  0  0  0  0  0  0  0  0
  -22.8848  -35.4312   22.3470 N   0  3  0  0  0  0  0  0  0  0  0  0
  -23.6120  -13.5676   15.5038 O   0  0  0  0  0  0  0  0  0  0  0  0
  -26.3267  -27.6928   22.6814 O   0  0  0  0  0  0  0  0  0  0  0  0
  -27.4675  -31.6567   22.4023 O   0  0  0  0  0  0  0  0  0  0  0  0
  -23.1189  -33.0008   23.7452 O   0  0  0  0  0  0  0  0  0  0  0  0
  -25.7016  -22.5100   19.0022 O   0  0  0  0  0  0  0  0  0  0  0  0
  -25.3532  -10.7629   22.5528 O   0  0  0  0  0  0  0  0  0  0  0  0
  -20.3094  -27.1919   21.5739 O   0  0  0  0  0  0  0  0  0  1  0  0
  -20.7475  -24.0656   22.9764 O   0  0  0  0  0  0  0  0  0  0  0  0
  -30.0601  -10.1975   25.3687 F   0  0  0  0  0  0  0  0  0  0  0  0
  -23.2910  -24.9163   22.3386 F   0  0  0  0  0  0  0  0  0  0  0  0
  -21.4019  -20.2339   20.2334 F   0  0  0  0  0  0  0  0  0  0  0  0
  -26.7665   -8.3877   22.4908 F   0  0  0  0  0  0  0  0  0  0  0  0
  1  2  1  0  0  0  0
  1  5  2  0  0  0  0
  2  6  2  0  0  0  0
  3  8  2  0  0  0  0
  3 17  1  0  0  0  0
  4  9  1  0  0  0  0
  4 17  2  0  0  0  0
  5 19  1  0  0  0  0
  6 21  1  0  0  0  0
  7 10  2  0  0  0  0
  7 20  1  0  0  0  0
  8 24  1  0  0  0  0
  9 24  2  0  0  0  0
 10 25  1  0  0  0  0
 11 12  2  0  0  0  0
 11 26  1  0  0  0  0
 12 28  1  0  0  0  0
 13 22  1  0  0  0  0
 13 25  2  0  0  0  0
 14 23  2  0  0  0  0
 14 29  1  0  0  0  0
 15 27  1  0  0  0  0
 15 30  2  0  0  0  0
 16 28  2  0  0  0  0
 16 31  1  0  0  0  0
 17 32  1  0  0  0  0
 18 32  1  0  0  0  0
 18 33  2  0  0  0  0
 18 34  1  0  0  0  0
 19 21  2  0  0  0  0
 19 39  1  0  0  0  0
 20 22  2  0  0  0  0
 20 40  1  0  0  0  0
 21 48  1  0  0  0  0
 22 41  1  0  0  0  0
 23 30  1  0  0  0  0
 23 68  1  0  0  0  0
 24 77  1  0  0  0  0
 25 78  1  0  0  0  0
 26 31  2  0  0  0  0
 26 77  1  0  0  0  0
 27 29  2  0  0  0  0
 27 79  1  0  0  0  0
 28 80  1  0  0  0  0
 29 81  1  0  0  0  0
 30 82  1  0  0  0  0
 31 83  1  0  0  0  0
 32 62  2  0  0  0  0
 33 63  1  0  0  0  0
 33 66  1  0  0  0  0
 34 67  1  0  0  0  0
 34 72  2  0  0  0  0
 35 49  1  0  0  0  0
 35 69  1  0  0  0  0
 35 73  2  0  0  0  0
 36 59  1  0  0  0  0
 36 64  1  0  0  0  0
 36 74  2  0  0  0  0
 37 60  1  0  0  0  0
 37 70  1  0  0  0  0
 37 75  2  0  0  0  0
 38 65  1  0  0  0  0
 38 68  1  0  0  0  0
 38 76  2  0  0  0  0
 39 42  1  0  0  0  0
 40 49  1  0  0  0  0
 41 64  1  0  0  0  0
 42 44  1  0  0  0  0
 43 45  1  0  0  0  0
 43 46  1  0  0  0  0
 44 48  1  0  0  0  0
 45 50  1  0  0  0  0
 46 65  1  0  0  0  0
 47 50  1  0  0  0  0
 47 65  1  0  0  0  0
 48 69  1  0  0  0  0
 49 64  1  0  0  0  0
 50 63  1  0  0  0  0
 51 60  1  0  0  0  0
 52 61  1  0  0  0  0
 53 61  1  0  0  0  0
 54 61  1  0  0  0  0
 55 71  1  0  0  0  0
 56 57  1  0  0  0  0
 56 58  1  0  0  0  0
 57 78  1  0  0  0  0
 58 79  1  0  0  0  0
 59 61  1  0  0  0  0
 59 70  1  0  0  0  0
 60 71  1  0  0  0  0
 62 63  1  0  0  0  0
M  CHG  1  71   1
M  ISO  4  38 100  57 101  68 100  78 101
M  END
> <Batch ID>
0013

> <Smiles>
CNC(C)C(=O)NC(C(=O)N1Cc2cc([101O:1][101CH2:1]CCOc3cc(F)c([100NH:0][100C:0](=O)N4CCCC(n5nc(-c6ccc(Oc7ccc(F)cc7F)cc6)c(C(N)=O)c5N)C4)cc3F)ccc2CC1C(=O)NC1CCCc2ccccc21)C(C)(C)C

> <Shape>
0.219

> <Color>
0.063

> <Negative vol penalty>
0.000

$$$$

  -OEChem-04042320483D

 85 94  0     1  0  0  0  0  0999 V2000
  -25.5057  -36.5060   25.1023 C   0  0  0  0  0  0  0  0  0  0  0  0
  -26.6331  -35.7683   24.7556 C   0  0  0  0  0  0  0  0  0  0  0  0
  -22.8950  -16.4394   22.3619 C   0  0  0  0  0  0  0  0  0  0  0  0
  -22.7181  -16.4951   19.9530 C   0  0  0  0  0  0  0  0  0  0  0  0
  -24.3987  -35.8657   25.6576 C   0  0  0  0  0  0  0  0  0  0  0  0
  -26.6545  -34.3899   24.9651 C   0  0  0  0  0  0  0  0  0  0  0  0
  -27.9663  -28.5821   19.9078 C   0  0  0  0  0  0  0  0  0  0  0  0
  -29.6829  -19.3036   19.0544 C   0  0  0  0  0  0  0  0  0  0  0  0
  -30.2094  -18.0480   19.3576 C   0  0  0  0  0  0  0  0  0  0  0  0
  -21.9212  -17.4335   22.4565 C   0  0  0  0  0  0  0  0  0  0  0  0
  -21.7442  -17.4892   20.0476 C   0  0  0  0  0  0  0  0  0  0  0  0
  -28.0267  -27.4633   19.0768 C   0  0  0  0  0  0  0  0  0  0  0  0
  -21.6338  -20.8260   20.5813 C   0  0  0  0  0  0  0  0  0  0  0  0
  -21.7403  -21.9211   19.7241 C   0  0  0  0  0  0  0  0  0  0  0  0
  -26.6697  -26.2147   20.6413 C   0  0  0  0  0  0  0  0  0  0  0  0
  -29.0190  -19.5822   21.3606 C   0  0  0  0  0  0  0  0  0  0  0  0
  -19.5788  -21.3941   18.7822 C   0  0  0  0  0  0  0  0  0  0  0  0
  -23.2935  -15.9702   21.1102 C   0  0  0  0  0  0  0  0  0  0  0  0
  -24.2432  -13.6435   21.5484 C   0  0  0  0  0  0  0  0  0  0  0  0
  -24.4029  -34.4773   25.8651 C   0  0  0  0  0  0  0  0  0  0  0  0
  -27.2437  -28.5262   21.1029 C   0  0  0  0  0  0  0  0  0  0  0  0
  -25.5470  -33.7306   25.5250 C   0  0  0  0  0  0  0  0  0  0  0  0
  -26.5953  -27.3362   21.4718 C   0  0  0  0  0  0  0  0  0  0  0  0
  -29.0878  -20.0707   20.0559 C   0  0  0  0  0  0  0  0  0  0  0  0
  -30.1406  -17.5595   20.6623 C   0  0  0  0  0  0  0  0  0  0  0  0
  -21.3457  -17.9584   21.2993 C   0  0  0  0  0  0  0  0  0  0  0  0
  -27.3802  -26.2824   19.4428 C   0  0  0  0  0  0  0  0  0  0  0  0
  -20.4998  -20.0148   20.5389 C   0  0  0  0  0  0  0  0  0  0  0  0
  -20.7128  -22.2052   18.8246 C   0  0  0  0  0  0  0  0  0  0  0  0
  -29.5454  -18.3265   21.6638 C   0  0  0  0  0  0  0  0  0  0  0  0
  -19.4723  -20.2988   19.6394 C   0  0  0  0  0  0  0  0  0  0  0  0
  -24.2999  -14.9438   21.0118 C   0  0  0  0  0  0  0  0  0  0  0  0
  -25.4352  -13.0683   21.1813 C   0  0  0  0  0  0  0  0  0  0  0  0
  -23.2058  -13.0121   22.3105 C   0  0  0  0  0  0  0  0  0  0  0  0
  -26.0895  -30.3309   24.1830 C   0  0  0  0  0  0  0  0  0  0  0  0
  -23.7287  -28.6317   23.2085 C   0  0  0  0  0  0  0  0  0  0  0  0
  -21.2516  -26.9509   21.5726 C   0  0  0  0  0  0  0  0  0  0  0  0
  -30.7151  -15.2283   20.0089 C   0  0  0  0  0  0  0  0  0  0  0  0
  -23.2007  -33.8363   26.5120 C   0  0  0  0  0  0  0  0  0  0  0  0
  -27.2026  -29.6878   22.0583 C   0  0  0  0  0  0  0  0  0  0  0  0
  -25.8585  -27.3114   22.7831 C   0  0  0  0  0  0  0  0  0  0  0  0
  -23.1613  -32.3184   26.3549 C   0  0  0  0  0  0  0  0  0  0  0  0
  -28.7907  -13.2293   17.7854 C   0  0  0  0  0  0  0  0  0  0  0  0
  -24.5238  -31.7128   26.6771 C   0  0  0  0  0  0  0  0  0  0  0  0
  -27.4015  -13.3270   18.4147 C   0  0  0  0  0  0  0  0  0  0  0  0
  -27.4370  -22.8440   18.1633 C   0  0  0  0  0  0  0  0  0  0  0  0
  -28.5458  -23.7536   20.2104 C   0  0  0  0  0  0  0  0  0  0  0  0
  -29.5428  -14.5590   17.8491 C   0  0  0  0  0  0  0  0  0  0  0  0
  -27.4848  -21.4394   18.7584 C   0  0  0  0  0  0  0  0  0  0  0  0
  -28.5903  -22.3514   20.8096 C   0  0  0  0  0  0  0  0  0  0  0  0
  -28.2375  -15.2350   19.8400 C   0  0  0  0  0  0  0  0  0  0  0  0
  -25.5991  -32.2300   25.7139 C   0  0  1  0  0  0  0  0  0  0  0  0
  -25.8560  -29.8182   22.7923 C   0  0  1  0  0  0  0  0  0  0  0  0
  -27.4805  -13.8978   19.8416 C   0  0  1  0  0  0  0  0  0  0  0  0
  -27.3782  -23.9161   19.2439 C   0  0  0  0  0  0  0  0  0  1  0  0
  -18.8159  -26.3728   21.7470 C   0  0  0  0  0  0  0  0  0  0  0  0
  -24.3800  -26.5453   25.3362 C   0  0  0  0  0  0  0  0  0  0  0  0
  -22.2191  -25.4087   24.7818 C   0  0  0  0  0  0  0  0  0  0  0  0
  -22.2080  -27.7380   25.6745 C   0  0  0  0  0  0  0  0  0  0  0  0
  -31.4317  -16.0938   22.2253 C   0  0  0  0  0  0  0  0  0  0  0  0
  -20.6189  -28.3520   19.0436 C   0  0  0  0  0  0  0  0  0  0  0  0
  -22.9874  -27.3223   23.3056 C   0  0  1  0  0  0  0  0  0  0  0  0
  -19.8376  -27.3556   21.1967 C   0  0  2  0  0  0  0  0  0  0  0  0
  -22.9682  -26.7582   24.7544 C   0  0  0  0  0  0  0  0  0  0  0  0
  -25.4379  -15.1810   20.3540 N   0  0  0  0  0  0  0  0  0  0  0  0
  -26.1073  -14.0219   20.4749 N   0  0  0  0  0  0  0  0  0  0  0  0
  -28.5597  -21.3318   19.7514 N   0  0  0  0  0  0  0  0  0  0  0  0
  -25.1048  -28.5625   22.9596 N   0  0  0  0  0  0  0  0  0  0  0  0
  -29.5570  -15.0844   19.2217 N   0  0  0  0  0  0  0  0  0  0  0  0
  -25.9635  -11.8449   21.3971 N   0  0  0  0  0  0  0  0  0  0  0  0
  -22.2052  -12.3106   21.6242 N   0  0  0  0  0  0  0  0  0  0  0  0
  -25.5010  -31.5550   24.4375 N   0  0  0  0  0  0  0  0  0  0  0  0
  -21.6641  -27.5594   22.7391 N   0  0  0  0  0  0  0  0  0  0  0  0
  -30.6862  -16.2590   20.9728 N   0  0  0  0  0  0  0  0  0  0  0  0
  -19.6900  -27.4064   19.7146 N   0  3  0  0  0  0  0  0  0  0  0  0
  -23.1582  -13.0821   23.5621 O   0  0  0  0  0  0  0  0  0  0  0  0
  -26.7533  -29.6650   24.9689 O   0  0  0  0  0  0  0  0  0  0  0  0
  -23.1080  -29.6884   23.3547 O   0  0  0  0  0  0  0  0  0  0  0  0
  -21.9218  -26.1699   20.9007 O   0  0  0  0  0  0  0  0  0  0  0  0
  -31.6894  -14.4775   19.8788 O   0  0  0  0  0  0  0  0  0  0  0  0
  -20.3952  -18.9283   21.3912 O   0  0  0  0  0  0  0  0  0  0  0  0
  -27.4394  -25.1953   18.6247 O   0  0  0  0  0  0  0  0  0  1  0  0
  -20.8145  -23.2579   18.0025 F   0  0  0  0  0  0  0  0  0  0  0  0
  -29.4734  -17.8666   22.9211 F   0  0  0  0  0  0  0  0  0  0  0  0
  -18.3800  -19.5239   19.5949 F   0  0  0  0  0  0  0  0  0  0  0  0
  1  2  1  0  0  0  0
  1  5  2  0  0  0  0
  2  6  2  0  0  0  0
  3 10  2  0  0  0  0
  3 18  1  0  0  0  0
  4 11  1  0  0  0  0
  4 18  2  0  0  0  0
  5 20  1  0  0  0  0
  6 22  1  0  0  0  0
  7 12  2  0  0  0  0
  7 21  1  0  0  0  0
  8  9  2  0  0  0  0
  8 24  1  0  0  0  0
  9 25  1  0  0  0  0
 10 26  1  0  0  0  0
 11 26  2  0  0  0  0
 12 27  1  0  0  0  0
 13 14  2  0  0  0  0
 13 28  1  0  0  0  0
 14 29  1  0  0  0  0
 15 23  1  0  0  0  0
 15 27  2  0  0  0  0
 16 24  2  0  0  0  0
 16 30  1  0  0  0  0
 17 29  2  0  0  0  0
 17 31  1  0  0  0  0
 18 32  1  0  0  0  0
 19 32  1  0  0  0  0
 19 33  2  0  0  0  0
 19 34  1  0  0  0  0
 20 22  2  0  0  0  0
 20 39  1  0  0  0  0
 21 23  2  0  0  0  0
 21 40  1  0  0  0  0
 22 52  1  0  0  0  0
 23 41  1  0  0  0  0
 24 67  1  0  0  0  0
 25 30  2  0  0  0  0
 25 74  1  0  0  0  0
 26 81  1  0  0  0  0
 27 82  1  0  0  0  0
 28 31  2  0  0  0  0
 28 81  1  0  0  0  0
 29 83  1  0  0  0  0
 30 84  1  0  0  0  0
 31 85  1  0  0  0  0
 32 65  2  0  0  0  0
 33 66  1  0  0  0  0
 33 70  1  0  0  0  0
 34 71  1  0  0  0  0
 34 76  2  0  0  0  0
 35 53  1  0  0  0  0
 35 72  1  0  0  0  0
 35 77  2  0  0  0  0
 36 62  1  0  0  0  0
 36 68  1  0  0  0  0
 36 78  2  0  0  0  0
 37 63  1  0  0  0  0
 37 73  1  0  0  0  0
 37 79  2  0  0  0  0
 38 69  1  0  0  0  0
 38 74  1  0  0  0  0
 38 80  2  0  0  0  0
 39 42  1  0  0  0  0
 40 53  1  0  0  0  0
 41 68  1  0  0  0  0
 42 44  1  0  0  0  0
 43 45  1  0  0  0  0
 43 48  1  0  0  0  0
 44 52  1  0  0  0  0
 45 54  1  0  0  0  0
 46 49  1  0  0  0  0
 46 55  1  0  0  0  0
 47 50  1  0  0  0  0
 47 55  1  0  0  0  0
 48 69  1  0  0  0  0
 49 67  1  0  0  0  0
 50 67  1  0  0  0  0
 51 54  1  0  0  0  0
 51 69  1  0  0  0  0
 52 72  1  0  0  0  0
 53 68  1  0  0  0  0
 54 66  1  0  0  0  0
 55 82  1  0  0  0  0
 56 63  1  0  0  0  0
 57 64  1  0  0  0  0
 58 64  1  0  0  0  0
 59 64  1  0  0  0  0
 60 74  1  0  0  0  0
 61 75  1  0  0  0  0
 62 64  1  0  0  0  0
 62 73  1  0  0  0  0
 63 75  1  0  0  0  0
 65 66  1  0  0  0  0
M  CHG  1  75   1
M  ISO  4  38 100  55 101  74 100  82 101
M  END
> <Batch ID>
0013

> <Smiles>
CNC(C)C(=O)NC(C(=O)N1Cc2cc([101O:1][101CH:1]3CCN(c4ccc([100N:0](C)[100C:0](=O)N5CCCC(n6nc(-c7ccc(Oc8ccc(F)cc8F)cc7)c(C(N)=O)c6N)C5)c(F)c4)CC3)ccc2CC1C(=O)NC1CCCc2ccccc21)C(C)(C)C

> <Shape>
0.280

> <Color>
0.076

> <Negative vol penalty>
0.000

$$$$

  -OEChem-04042320483D

 85 93  0     1  0  0  0  0  0999 V2000
  -25.5042  -27.0025   27.4355 C   0  0  0  0  0  0  0  0  0  0  0  0
  -25.9568  -26.4018   26.2651 C   0  0  0  0  0  0  0  0  0  0  0  0
  -23.0871   -9.8642   19.9599 C   0  0  0  0  0  0  0  0  0  0  0  0
  -23.7615   -9.9562   22.2781 C   0  0  0  0  0  0  0  0  0  0  0  0
  -25.6541  -28.3770   27.6152 C   0  0  0  0  0  0  0  0  0  0  0  0
  -26.5585  -27.1755   25.2733 C   0  0  0  0  0  0  0  0  0  0  0  0
  -30.7569  -25.0349   23.4194 C   0  0  0  0  0  0  0  0  0  0  0  0
  -28.9911  -18.8908   20.7711 C   0  0  0  0  0  0  0  0  0  0  0  0
  -29.2477  -20.0905   20.1076 C   0  0  0  0  0  0  0  0  0  0  0  0
  -22.3447   -8.7127   20.2216 C   0  0  0  0  0  0  0  0  0  0  0  0
  -23.0191   -8.8047   22.5398 C   0  0  0  0  0  0  0  0  0  0  0  0
  -30.5913  -23.9992   22.5009 C   0  0  0  0  0  0  0  0  0  0  0  0
  -23.3599   -5.4689   22.1070 C   0  0  0  0  0  0  0  0  0  0  0  0
  -23.9575   -4.4747   22.8816 C   0  0  0  0  0  0  0  0  0  0  0  0
  -31.0236  -25.5393   20.6953 C   0  0  0  0  0  0  0  0  0  0  0  0
  -30.2712  -18.8678   18.2925 C   0  0  0  0  0  0  0  0  0  0  0  0
  -22.1926   -4.6885   24.5176 C   0  0  0  0  0  0  0  0  0  0  0  0
  -23.7955  -10.4860   20.9882 C   0  0  0  0  0  0  0  0  0  0  0  0
  -24.1191  -13.0090   20.7948 C   0  0  0  0  0  0  0  0  0  0  0  0
  -26.2666  -29.1664   26.6292 C   0  0  0  0  0  0  0  0  0  0  0  0
  -31.0469  -26.3351   22.9814 C   0  0  0  0  0  0  0  0  0  0  0  0
  -26.7155  -28.5620   25.4394 C   0  0  0  0  0  0  0  0  0  0  0  0
  -31.1950  -26.5893   21.6104 C   0  0  0  0  0  0  0  0  0  0  0  0
  -29.3746  -17.6795   20.1954 C   0  0  0  0  0  0  0  0  0  0  0  0
  -29.8877  -20.0791   18.8683 C   0  0  0  0  0  0  0  0  0  0  0  0
  -22.3107   -8.1829   21.5115 C   0  0  0  0  0  0  0  0  0  0  0  0
  -30.7218  -24.2519   21.1385 C   0  0  0  0  0  0  0  0  0  0  0  0
  -22.1787   -6.0730   22.5377 C   0  0  0  0  0  0  0  0  0  0  0  0
  -23.3739   -4.0845   24.0869 C   0  0  0  0  0  0  0  0  0  0  0  0
  -30.0147  -17.6680   18.9561 C   0  0  0  0  0  0  0  0  0  0  0  0
  -21.5951   -5.6828   23.7430 C   0  0  0  0  0  0  0  0  0  0  0  0
  -24.5630  -11.6752   20.7184 C   0  0  0  0  0  0  0  0  0  0  0  0
  -25.2173  -13.7568   20.4465 C   0  0  0  0  0  0  0  0  0  0  0  0
  -22.8295  -13.5257   21.1490 C   0  0  0  0  0  0  0  0  0  0  0  0
  -29.5827  -29.1491   23.1838 C   0  0  0  0  0  0  0  0  0  0  0  0
  -32.3272  -30.2354   21.8386 C   0  0  0  0  0  0  0  0  0  0  0  0
  -35.0911  -29.5669   19.9515 C   0  0  0  0  0  0  0  0  0  0  0  0
  -30.7900  -14.5468   21.2451 C   0  0  0  0  0  0  0  0  0  0  0  0
  -26.3637  -30.6555   26.8481 C   0  0  0  0  0  0  0  0  0  0  0  0
  -31.2490  -27.4358   23.9864 C   0  0  0  0  0  0  0  0  0  0  0  0
  -31.5257  -27.9633   21.0898 C   0  0  0  0  0  0  0  0  0  0  0  0
  -27.3499  -31.3461   25.9096 C   0  0  0  0  0  0  0  0  0  0  0  0
  -29.6533  -12.3951   18.4559 C   0  0  0  0  0  0  0  0  0  0  0  0
  -27.1434  -30.8712   24.4748 C   0  0  0  0  0  0  0  0  0  0  0  0
  -28.2124  -12.0736   18.8491 C   0  0  0  0  0  0  0  0  0  0  0  0
  -30.5290  -12.6587   19.6770 C   0  0  0  0  0  0  0  0  0  0  0  0
  -28.5569  -13.3918   20.9761 C   0  0  0  0  0  0  0  0  0  0  0  0
  -27.3958  -29.3637   24.3510 C   0  0  1  0  0  0  0  0  0  0  0  0
  -31.0345  -28.8276   23.3994 C   0  0  1  0  0  0  0  0  0  0  0  0
  -27.6372  -13.1666   19.7666 C   0  0  2  0  0  0  0  0  0  0  0  0
  -37.1329  -30.6646   18.9907 C   0  0  0  0  0  0  0  0  0  0  0  0
  -28.6884  -22.7901   16.9978 C   0  0  0  0  0  0  0  0  0  0  0  0
  -30.6061  -31.5499   19.6892 C   0  0  0  0  0  0  0  0  0  0  0  0
  -32.6666  -31.7962   18.2885 C   0  0  0  0  0  0  0  0  0  0  0  0
  -32.5161  -32.9483   20.4959 C   0  0  0  0  0  0  0  0  0  0  0  0
  -31.3018  -21.4066   17.3197 C   0  0  0  0  0  0  0  0  0  0  0  0
  -31.1504  -16.7814   22.2230 C   0  0  0  0  0  0  0  0  0  0  0  0
  -36.9042  -27.7834   21.4649 C   0  0  0  0  0  0  0  0  0  0  0  0
  -29.0988  -16.3984   20.9076 C   0  0  0  0  0  0  0  0  0  0  0  0
  -30.0569  -23.5949   18.9517 C   0  0  0  0  0  0  0  0  0  1  0  0
  -32.8175  -30.4391   20.4254 C   0  0  1  0  0  0  0  0  0  0  0  0
  -36.5591  -29.8886   20.1659 C   0  0  2  0  0  0  0  0  0  0  0  0
  -29.2704  -22.4282   18.3579 C   0  0  2  0  0  0  0  0  0  0  0  0
  -32.1434  -31.6578   19.7341 C   0  0  0  0  0  0  0  0  0  0  0  0
  -25.8433  -11.5781   20.3503 N   0  0  0  0  0  0  0  0  0  0  0  0
  -26.2133  -12.8604   20.1922 N   0  0  0  0  0  0  0  0  0  0  0  0
  -31.7075  -29.0077   22.1115 N   0  0  0  0  0  0  0  0  0  0  0  0
  -29.9377  -13.6703   20.5536 N   0  0  0  0  0  0  0  0  0  0  0  0
  -25.4184  -15.0871   20.3359 N   0  0  0  0  0  0  0  0  0  0  0  0
  -21.8139  -12.6182   21.4797 N   0  0  0  0  0  0  0  0  0  0  0  0
  -28.8165  -29.0890   24.3323 N   0  0  0  0  0  0  0  0  0  0  0  0
  -34.2715  -30.5269   20.5064 N   0  0  0  0  0  0  0  0  0  0  0  0
  -30.1445  -21.2827   18.2030 N   0  0  3  0  0  0  0  0  0  0  0  0
  -30.2997  -15.8327   21.5185 N   0  0  0  0  0  0  0  0  0  0  0  0
  -37.3459  -28.6336   20.3296 N   0  3  0  0  0  0  0  0  0  0  0  0
  -22.5803  -14.7551   21.1556 O   0  0  0  0  0  0  0  0  0  0  0  0
  -29.1871  -29.4324   22.0591 O   0  0  0  0  0  0  0  0  0  0  0  0
  -32.4945  -31.1298   22.6715 O   0  0  0  0  0  0  0  0  0  0  0  0
  -34.7097  -28.5662   19.3486 O   0  0  0  0  0  0  0  0  0  0  0  0
  -31.9280  -14.2029   21.5896 O   0  0  0  0  0  0  0  0  0  0  0  0
  -21.5862   -7.0594   21.7672 O   0  0  0  0  0  0  0  0  0  0  0  0
  -30.5600  -23.2429   20.2399 O   0  0  0  0  0  0  0  0  0  1  0  0
  -23.9470   -3.1286   24.8298 F   0  0  0  0  0  0  0  0  0  0  0  0
  -30.3880  -16.5091   18.3956 F   0  0  0  0  0  0  0  0  0  0  0  0
  -20.4597   -6.2587   24.1615 F   0  0  0  0  0  0  0  0  0  0  0  0
  1  2  1  0  0  0  0
  1  5  2  0  0  0  0
  2  6  2  0  0  0  0
  3 10  2  0  0  0  0
  3 18  1  0  0  0  0
  4 11  1  0  0  0  0
  4 18  2  0  0  0  0
  5 20  1  0  0  0  0
  6 22  1  0  0  0  0
  7 12  2  0  0  0  0
  7 21  1  0  0  0  0
  8  9  2  0  0  0  0
  8 24  1  0  0  0  0
  9 25  1  0  0  0  0
 10 26  1  0  0  0  0
 11 26  2  0  0  0  0
 12 27  1  0  0  0  0
 13 14  2  0  0  0  0
 13 28  1  0  0  0  0
 14 29  1  0  0  0  0
 15 23  1  0  0  0  0
 15 27  2  0  0  0  0
 16 25  2  0  0  0  0
 16 30  1  0  0  0  0
 17 29  2  0  0  0  0
 17 31  1  0  0  0  0
 18 32  1  0  0  0  0
 19 32  1  0  0  0  0
 19 33  2  0  0  0  0
 19 34  1  0  0  0  0
 20 22  2  0  0  0  0
 20 39  1  0  0  0  0
 21 23  2  0  0  0  0
 21 40  1  0  0  0  0
 22 48  1  0  0  0  0
 23 41  1  0  0  0  0
 24 30  2  0  0  0  0
 24 59  1  0  0  0  0
 25 73  1  0  0  0  0
 26 81  1  0  0  0  0
 27 82  1  0  0  0  0
 28 31  2  0  0  0  0
 28 81  1  0  0  0  0
 29 83  1  0  0  0  0
 30 84  1  0  0  0  0
 31 85  1  0  0  0  0
 32 65  2  0  0  0  0
 33 66  1  0  0  0  0
 33 69  1  0  0  0  0
 34 70  1  0  0  0  0
 34 76  2  0  0  0  0
 35 49  1  0  0  0  0
 35 71  1  0  0  0  0
 35 77  2  0  0  0  0
 36 61  1  0  0  0  0
 36 67  1  0  0  0  0
 36 78  2  0  0  0  0
 37 62  1  0  0  0  0
 37 72  1  0  0  0  0
 37 79  2  0  0  0  0
 38 68  1  0  0  0  0
 38 74  1  0  0  0  0
 38 80  2  0  0  0  0
 39 42  1  0  0  0  0
 40 49  1  0  0  0  0
 41 67  1  0  0  0  0
 42 44  1  0  0  0  0
 43 45  1  0  0  0  0
 43 46  1  0  0  0  0
 44 48  1  0  0  0  0
 45 50  1  0  0  0  0
 46 68  1  0  0  0  0
 47 50  1  0  0  0  0
 47 68  1  0  0  0  0
 48 71  1  0  0  0  0
 49 67  1  0  0  0  0
 50 66  1  0  0  0  0
 51 62  1  0  0  0  0
 52 63  1  0  0  0  0
 53 64  1  0  0  0  0
 54 64  1  0  0  0  0
 55 64  1  0  0  0  0
 56 73  1  0  0  0  0
 57 74  1  0  0  0  0
 58 75  1  0  0  0  0
 59 74  1  0  0  0  0
 60 63  1  0  0  0  0
 60 82  1  0  0  0  0
 61 64  1  0  0  0  0
 61 72  1  0  0  0  0
 62 75  1  0  0  0  0
 63 73  1  0  0  0  0
 65 66  1  0  0  0  0
M  CHG  1  75   1
M  ISO  4  38 100  60 101  74 100  82 101
M  END
> <Batch ID>
0013

> <Smiles>
CNC(C)C(=O)NC(C(=O)N1Cc2cc([101O:1][101CH2:1]C(C)N(C)c3ccc(C[100N:0](C)[100C:0](=O)N4CCCC(n5nc(-c6ccc(Oc7ccc(F)cc7F)cc6)c(C(N)=O)c5N)C4)c(F)c3)ccc2CC1C(=O)NC1CCCc2ccccc21)C(C)(C)C

> <Shape>
0.279

> <Color>
0.189

> <Negative vol penalty>
0.000

$$$$

  -OEChem-04042320483D

 82 91  0     1  0  0  0  0  0999 V2000
  -28.1054  -34.5534   22.6537 C   0  0  0  0  0  0  0  0  0  0  0  0
  -28.2080  -33.1667   22.6107 C   0  0  0  0  0  0  0  0  0  0  0  0
  -22.8527  -10.4525   20.9753 C   0  0  0  0  0  0  0  0  0  0  0  0
  -24.6452   -8.9962   21.6848 C   0  0  0  0  0  0  0  0  0  0  0  0
  -26.8956  -35.1513   23.0041 C   0  0  0  0  0  0  0  0  0  0  0  0
  -27.1010  -32.3769   22.9194 C   0  0  0  0  0  0  0  0  0  0  0  0
  -26.4576  -28.5687   19.6439 C   0  0  0  0  0  0  0  0  0  0  0  0
  -28.6305  -19.3133   18.6459 C   0  0  0  0  0  0  0  0  0  0  0  0
  -28.6847  -20.6884   18.8918 C   0  0  0  0  0  0  0  0  0  0  0  0
  -21.9691   -9.3734   20.9926 C   0  0  0  0  0  0  0  0  0  0  0  0
  -23.7615   -7.9171   21.7022 C   0  0  0  0  0  0  0  0  0  0  0  0
  -27.2839  -27.4555   19.7915 C   0  0  0  0  0  0  0  0  0  0  0  0
  -21.3614   -6.6978   23.7451 C   0  0  0  0  0  0  0  0  0  0  0  0
  -21.4075   -5.8420   24.8455 C   0  0  0  0  0  0  0  0  0  0  0  0
  -26.3177  -20.9166   18.3975 C   0  0  0  0  0  0  0  0  0  0  0  0
  -25.5019  -26.2908   20.9261 C   0  0  0  0  0  0  0  0  0  0  0  0
  -21.9446   -3.9935   23.3855 C   0  0  0  0  0  0  0  0  0  0  0  0
  -24.1908  -10.2639   21.3213 C   0  0  0  0  0  0  0  0  0  0  0  0
  -25.3967  -12.2550   22.3648 C   0  0  0  0  0  0  0  0  0  0  0  0
  -25.7705  -34.3685   23.3078 C   0  0  0  0  0  0  0  0  0  0  0  0
  -25.1486  -28.5552   20.1468 C   0  0  0  0  0  0  0  0  0  0  0  0
  -25.8753  -32.9648   23.2755 C   0  0  0  0  0  0  0  0  0  0  0  0
  -26.2710  -19.5514   18.1630 C   0  0  0  0  0  0  0  0  0  0  0  0
  -24.6602  -27.4042   20.7813 C   0  0  0  0  0  0  0  0  0  0  0  0
  -27.4130  -18.7572   18.2817 C   0  0  0  0  0  0  0  0  0  0  0  0
  -27.5367  -21.4847   18.7689 C   0  0  0  0  0  0  0  0  0  0  0  0
  -22.4234   -8.1057   21.3561 C   0  0  0  0  0  0  0  0  0  0  0  0
  -26.8070  -26.3173   20.4352 C   0  0  0  0  0  0  0  0  0  0  0  0
  -21.6068   -6.2015   22.4648 C   0  0  0  0  0  0  0  0  0  0  0  0
  -21.6992   -4.4898   24.6657 C   0  0  0  0  0  0  0  0  0  0  0  0
  -21.8984   -4.8493   22.2850 C   0  0  0  0  0  0  0  0  0  0  0  0
  -25.1042  -11.3781   21.3031 C   0  0  0  0  0  0  0  0  0  0  0  0
  -26.3165  -13.1314   21.8428 C   0  0  0  0  0  0  0  0  0  0  0  0
  -24.8830  -12.2755   23.7032 C   0  0  0  0  0  0  0  0  0  0  0  0
  -23.5673  -30.2384   22.3308 C   0  0  0  0  0  0  0  0  0  0  0  0
  -21.0335  -28.5239   21.2525 C   0  0  0  0  0  0  0  0  0  0  0  0
  -19.8900  -25.7029   19.7095 C   0  0  0  0  0  0  0  0  0  0  0  0
  -28.0488  -16.4252   17.7024 C   0  0  0  0  0  0  0  0  0  0  0  0
  -24.4972  -35.0595   23.7271 C   0  0  0  0  0  0  0  0  0  0  0  0
  -24.2611  -29.7545   19.9559 C   0  0  0  0  0  0  0  0  0  0  0  0
  -25.0977  -18.7520   17.6957 C   0  0  0  0  0  0  0  0  0  0  0  0
  -23.2559  -27.3316   21.3210 C   0  0  0  0  0  0  0  0  0  0  0  0
  -23.2682  -34.1555   23.6757 C   0  0  0  0  0  0  0  0  0  0  0  0
  -28.9279  -13.0098   17.5335 C   0  0  0  0  0  0  0  0  0  0  0  0
  -23.5689  -32.8084   24.3251 C   0  0  0  0  0  0  0  0  0  0  0  0
  -28.0181  -12.3388   18.5590 C   0  0  0  0  0  0  0  0  0  0  0  0
  -25.6310  -17.3189   17.8179 C   0  0  0  0  0  0  0  0  0  0  0  0
  -28.1894  -14.1231   16.8031 C   0  0  0  0  0  0  0  0  0  0  0  0
  -26.7416  -14.5343   18.7769 C   0  0  0  0  0  0  0  0  0  0  0  0
  -24.6900  -32.0745   23.5795 C   0  0  1  0  0  0  0  0  0  0  0  0
  -23.1155  -29.8162   20.9614 C   0  0  1  0  0  0  0  0  0  0  0  0
  -27.4347  -13.3788   19.5281 C   0  0  1  0  0  0  0  0  0  0  0  0
  -17.7668  -24.5658   19.0049 C   0  0  0  0  0  0  0  0  0  0  0  0
  -20.5102  -27.7127   24.1470 C   0  0  0  0  0  0  0  0  0  0  0  0
  -19.0312  -25.8818   23.2933 C   0  0  0  0  0  0  0  0  0  0  0  0
  -18.4566  -28.2648   22.8308 C   0  0  0  0  0  0  0  0  0  0  0  0
  -20.6692  -25.7617   16.8549 C   0  0  0  0  0  0  0  0  0  0  0  0
  -28.8330  -23.5217   19.3982 C   0  0  0  0  0  0  0  0  0  0  0  0
  -28.6005  -25.0127   19.5764 C   0  0  0  0  0  0  0  0  0  1  0  0
  -20.4039  -27.2015   21.6185 C   0  0  1  0  0  0  0  0  0  0  0  0
  -18.8877  -25.5047   18.5867 C   0  0  2  0  0  0  0  0  0  0  0  0
  -19.6276  -27.2669   22.9641 C   0  0  0  0  0  0  0  0  0  0  0  0
  -25.7831  -11.6708   20.1906 N   0  0  0  0  0  0  0  0  0  0  0  0
  -26.5112  -12.7415   20.5504 N   0  0  0  0  0  0  0  0  0  0  0  0
  -27.1016  -17.4084   17.9962 N   0  0  0  0  0  0  0  0  0  0  0  0
  -22.4288  -28.5320   21.1154 N   0  0  0  0  0  0  0  0  0  0  0  0
  -27.6105  -15.0930   17.7338 N   0  0  0  0  0  0  0  0  0  0  0  0
  -26.9696  -14.1898   22.3678 N   0  0  0  0  0  0  0  0  0  0  0  0
  -23.9448  -11.3025   24.0737 N   0  0  0  0  0  0  0  0  0  0  0  0
  -27.6177  -22.8716   19.0186 N   0  0  0  0  0  0  0  0  0  0  0  0
  -24.1811  -31.4760   22.3641 N   0  0  0  0  0  0  0  0  0  0  0  0
  -19.5867  -26.8084   20.4757 N   0  0  0  0  0  0  0  0  0  0  0  0
  -19.5601  -24.9292   17.3877 N   0  3  0  0  0  0  0  0  0  0  0  0
  -25.2330  -13.1413   24.5407 O   0  0  0  0  0  0  0  0  0  0  0  0
  -23.3720  -29.4970   23.2868 O   0  0  0  0  0  0  0  0  0  0  0  0
  -20.3132  -29.5115   21.0872 O   0  0  0  0  0  0  0  0  0  0  0  0
  -20.8443  -24.9499   19.8911 O   0  0  0  0  0  0  0  0  0  0  0  0
  -29.2051  -16.7013   17.3596 O   0  0  0  0  0  0  0  0  0  0  0  0
  -21.5614   -7.0526   21.3733 O   0  0  0  0  0  0  0  0  0  0  0  0
  -27.6173  -25.2220   20.5822 O   0  0  0  0  0  0  0  0  0  1  0  0
  -21.7450   -3.6684   25.7228 F   0  0  0  0  0  0  0  0  0  0  0  0
  -22.1363   -4.3669   21.0575 F   0  0  0  0  0  0  0  0  0  0  0  0
  1  2  1  0  0  0  0
  1  5  2  0  0  0  0
  2  6  2  0  0  0  0
  3 10  2  0  0  0  0
  3 18  1  0  0  0  0
  4 11  1  0  0  0  0
  4 18  2  0  0  0  0
  5 20  1  0  0  0  0
  6 22  1  0  0  0  0
  7 12  2  0  0  0  0
  7 21  1  0  0  0  0
  8  9  2  0  0  0  0
  8 25  1  0  0  0  0
  9 26  1  0  0  0  0
 10 27  1  0  0  0  0
 11 27  2  0  0  0  0
 12 28  1  0  0  0  0
 13 14  2  0  0  0  0
 13 29  1  0  0  0  0
 14 30  1  0  0  0  0
 15 23  1  0  0  0  0
 15 26  2  0  0  0  0
 16 24  1  0  0  0  0
 16 28  2  0  0  0  0
 17 30  2  0  0  0  0
 17 31  1  0  0  0  0
 18 32  1  0  0  0  0
 19 32  1  0  0  0  0
 19 33  2  0  0  0  0
 19 34  1  0  0  0  0
 20 22  2  0  0  0  0
 20 39  1  0  0  0  0
 21 24  2  0  0  0  0
 21 40  1  0  0  0  0
 22 50  1  0  0  0  0
 23 25  2  0  0  0  0
 23 41  1  0  0  0  0
 24 42  1  0  0  0  0
 25 65  1  0  0  0  0
 26 70  1  0  0  0  0
 27 79  1  0  0  0  0
 28 80  1  0  0  0  0
 29 31  2  0  0  0  0
 29 79  1  0  0  0  0
 30 81  1  0  0  0  0
 31 82  1  0  0  0  0
 32 63  2  0  0  0  0
 33 64  1  0  0  0  0
 33 68  1  0  0  0  0
 34 69  1  0  0  0  0
 34 74  2  0  0  0  0
 35 51  1  0  0  0  0
 35 71  1  0  0  0  0
 35 75  2  0  0  0  0
 36 60  1  0  0  0  0
 36 66  1  0  0  0  0
 36 76  2  0  0  0  0
 37 61  1  0  0  0  0
 37 72  1  0  0  0  0
 37 77  2  0  0  0  0
 38 65  1  0  0  0  0
 38 67  1  0  0  0  0
 38 78  2  0  0  0  0
 39 43  1  0  0  0  0
 40 51  1  0  0  0  0
 41 47  1  0  0  0  0
 42 66  1  0  0  0  0
 43 45  1  0  0  0  0
 44 46  1  0  0  0  0
 44 48  1  0  0  0  0
 45 50  1  0  0  0  0
 46 52  1  0  0  0  0
 47 65  1  0  0  0  0
 48 67  1  0  0  0  0
 49 52  1  0  0  0  0
 49 67  1  0  0  0  0
 50 71  1  0  0  0  0
 51 66  1  0  0  0  0
 52 64  1  0  0  0  0
 53 61  1  0  0  0  0
 54 62  1  0  0  0  0
 55 62  1  0  0  0  0
 56 62  1  0  0  0  0
 57 73  1  0  0  0  0
 58 59  1  0  0  0  0
 58 70  1  0  0  0  0
 59 80  1  0  0  0  0
 60 62  1  0  0  0  0
 60 72  1  0  0  0  0
 61 73  1  0  0  0  0
 63 64  1  0  0  0  0
M  CHG  1  73   1
M  ISO  4  38 100  59 101  65 100  80 101
M  END
> <Batch ID>
0013

> <Smiles>
CNC(C)C(=O)NC(C(=O)N1Cc2cc([101O:1][101CH2:1]CNc3ccc4c(c3)CC[100N:0]4[100C:0](=O)N3CCCC(n4nc(-c5ccc(Oc6ccc(F)cc6F)cc5)c(C(N)=O)c4N)C3)ccc2CC1C(=O)NC1CCCc2ccccc21)C(C)(C)C

> <Shape>
0.317

> <Color>
0.109

> <Negative vol penalty>
0.000

$$$$

  -OEChem-04042320483D

 84 92  0     1  0  0  0  0  0999 V2000
  -18.0787  -23.5032   25.7320 C   0  0  0  0  0  0  0  0  0  0  0  0
  -18.8026  -23.1494   24.5978 C   0  0  0  0  0  0  0  0  0  0  0  0
  -23.0219  -15.7272   21.3385 C   0  0  0  0  0  0  0  0  0  0  0  0
  -22.3798  -14.5883   19.3068 C   0  0  0  0  0  0  0  0  0  0  0  0
  -18.0324  -24.8355   26.1404 C   0  0  0  0  0  0  0  0  0  0  0  0
  -19.4797  -24.1278   23.8709 C   0  0  0  0  0  0  0  0  0  0  0  0
  -24.1646  -22.6986   22.5848 C   0  0  0  0  0  0  0  0  0  0  0  0
  -30.0805  -17.3758   19.2516 C   0  0  0  0  0  0  0  0  0  0  0  0
  -29.0877  -17.8312   21.4066 C   0  0  0  0  0  0  0  0  0  0  0  0
  -29.4742  -18.5188   18.7307 C   0  0  0  0  0  0  0  0  0  0  0  0
  -28.4813  -18.9743   20.8857 C   0  0  0  0  0  0  0  0  0  0  0  0
  -21.9490  -16.6052   21.1854 C   0  0  0  0  0  0  0  0  0  0  0  0
  -21.3068  -15.4664   19.1538 C   0  0  0  0  0  0  0  0  0  0  0  0
  -24.2898  -21.8220   21.5078 C   0  0  0  0  0  0  0  0  0  0  0  0
  -21.2170  -19.3468   19.3490 C   0  0  0  0  0  0  0  0  0  0  0  0
  -21.4591  -20.7058   19.5486 C   0  0  0  0  0  0  0  0  0  0  0  0
  -24.8597  -23.6757   20.0731 C   0  0  0  0  0  0  0  0  0  0  0  0
  -19.8334  -20.7329   21.3356 C   0  0  0  0  0  0  0  0  0  0  0  0
  -23.2374  -14.7187   20.3992 C   0  0  0  0  0  0  0  0  0  0  0  0
  -24.3482  -12.5834   21.2440 C   0  0  0  0  0  0  0  0  0  0  0  0
  -18.7173  -25.8294   25.4236 C   0  0  0  0  0  0  0  0  0  0  0  0
  -24.3757  -24.0740   22.4113 C   0  0  0  0  0  0  0  0  0  0  0  0
  -19.4415  -25.4748   24.2694 C   0  0  0  0  0  0  0  0  0  0  0  0
  -24.7391  -24.5673   21.1500 C   0  0  0  0  0  0  0  0  0  0  0  0
  -29.8873  -17.0320   20.5896 C   0  0  0  0  0  0  0  0  0  0  0  0
  -28.6746  -19.3181   19.5477 C   0  0  0  0  0  0  0  0  0  0  0  0
  -21.0914  -16.4748   20.0931 C   0  0  0  0  0  0  0  0  0  0  0  0
  -24.6346  -22.3109   20.2512 C   0  0  0  0  0  0  0  0  0  0  0  0
  -20.2829  -18.6808   20.1425 C   0  0  0  0  0  0  0  0  0  0  0  0
  -20.7674  -21.3989   20.5420 C   0  0  0  0  0  0  0  0  0  0  0  0
  -19.5912  -19.3739   21.1359 C   0  0  0  0  0  0  0  0  0  0  0  0
  -24.3459  -13.8118   20.5564 C   0  0  0  0  0  0  0  0  0  0  0  0
  -25.6306  -12.1126   21.1016 C   0  0  0  0  0  0  0  0  0  0  0  0
  -23.2861  -11.9265   21.9485 C   0  0  0  0  0  0  0  0  0  0  0  0
  -22.5815  -26.6775   22.7375 C   0  0  0  0  0  0  0  0  0  0  0  0
  -25.3789  -28.2064   22.1378 C   0  0  0  0  0  0  0  0  0  0  0  0
  -28.4975  -28.1051   20.7555 C   0  0  0  0  0  0  0  0  0  0  0  0
  -30.7763  -14.7243   20.3148 C   0  0  0  0  0  0  0  0  0  0  0  0
  -18.5991  -27.2630   25.8767 C   0  0  0  0  0  0  0  0  0  0  0  0
  -24.2629  -25.0029   23.5889 C   0  0  0  0  0  0  0  0  0  0  0  0
  -24.9963  -26.0326   20.9156 C   0  0  0  0  0  0  0  0  0  0  0  0
  -19.6517  -28.1839   25.2650 C   0  0  0  0  0  0  0  0  0  0  0  0
  -29.3810  -12.2749   18.1476 C   0  0  0  0  0  0  0  0  0  0  0  0
  -19.7652  -27.9416   23.7633 C   0  0  0  0  0  0  0  0  0  0  0  0
  -27.9167  -12.2814   18.5851 C   0  0  0  0  0  0  0  0  0  0  0  0
  -29.9800  -13.6817   18.1318 C   0  0  0  0  0  0  0  0  0  0  0  0
  -28.3562  -14.4236   19.8457 C   0  0  0  0  0  0  0  0  0  0  0  0
  -20.2096  -26.5038   23.4685 C   0  0  1  0  0  0  0  0  0  0  0  0
  -23.9977  -26.4500   23.1852 C   0  0  1  0  0  0  0  0  0  0  0  0
  -27.7443  -13.0163   19.9262 C   0  0  1  0  0  0  0  0  0  0  0  0
  -29.6626  -22.3086   19.0786 C   0  0  0  0  0  0  0  0  0  0  0  0
  -30.5377  -29.5202   20.3912 C   0  0  0  0  0  0  0  0  0  0  0  0
  -23.9344  -29.7115   19.9111 C   0  0  0  0  0  0  0  0  0  0  0  0
  -26.1715  -30.3662   18.9975 C   0  0  0  0  0  0  0  0  0  0  0  0
  -25.4906  -31.1127   21.2782 C   0  0  0  0  0  0  0  0  0  0  0  0
  -31.0961  -15.9140   22.4730 C   0  0  0  0  0  0  0  0  0  0  0  0
  -30.2017  -26.2544   22.3142 C   0  0  0  0  0  0  0  0  0  0  0  0
  -25.9204  -19.5697   18.2810 C   0  0  0  0  0  0  0  0  0  0  0  0
  -28.3683  -21.7806   19.5968 C   0  0  0  0  0  0  0  0  0  0  0  0
  -27.1482  -20.3937   17.9126 C   0  0  0  0  0  0  0  0  0  0  0  0
  -25.1724  -20.1236   19.4880 C   0  0  0  0  0  0  0  0  0  1  0  0
  -26.0899  -28.6865   20.8957 C   0  0  1  0  0  0  0  0  0  0  0  0
  -29.8548  -28.5109   21.3011 C   0  0  2  0  0  0  0  0  0  0  0  0
  -25.4149  -29.9418   20.2743 C   0  0  0  0  0  0  0  0  0  0  0  0
  -25.5327  -14.1032   20.0173 N   0  0  0  0  0  0  0  0  0  0  0  0
  -26.2927  -13.0513   20.3663 N   0  0  0  0  0  0  0  0  0  0  0  0
  -24.8673  -26.9016   22.0970 N   0  0  0  0  0  0  0  0  0  0  0  0
  -29.7556  -14.3579   19.4173 N   0  0  0  0  0  0  0  0  0  0  0  0
  -26.2452  -10.9915   21.5349 N   0  0  0  0  0  0  0  0  0  0  0  0
  -22.0314  -12.5490   21.9970 N   0  0  0  0  0  0  0  0  0  0  0  0
  -21.6324  -26.3591   23.6900 N   0  0  0  0  0  0  0  0  0  0  0  0
  -27.4849  -28.8840   21.2744 N   0  0  0  0  0  0  0  0  0  0  0  0
  -30.5138  -15.8476   21.1282 N   0  0  0  0  0  0  0  0  0  0  0  0
  -28.0659  -20.4676   19.0237 N   0  0  3  0  0  0  0  0  0  0  0  0
  -30.7396  -27.3185   21.4280 N   0  3  0  0  0  0  0  0  0  0  0  0
  -23.4495  -10.8282   22.5319 O   0  0  0  0  0  0  0  0  0  0  0  0
  -22.3660  -27.1112   21.6118 O   0  0  0  0  0  0  0  0  0  0  0  0
  -25.2873  -28.9587   23.1111 O   0  0  0  0  0  0  0  0  0  0  0  0
  -28.3508  -27.1912   19.9470 O   0  0  0  0  0  0  0  0  0  0  0  0
  -31.8298  -14.0820   20.4017 O   0  0  0  0  0  0  0  0  0  0  0  0
  -20.0442  -17.3313   19.9436 O   0  0  0  0  0  0  0  0  0  0  0  0
  -24.7568  -21.4576   19.1982 O   0  0  0  0  0  0  0  0  0  1  0  0
  -21.0012  -22.7037   20.7347 F   0  0  0  0  0  0  0  0  0  0  0  0
  -18.6935  -18.7392   21.9022 F   0  0  0  0  0  0  0  0  0  0  0  0
  1  2  1  0  0  0  0
  1  5  2  0  0  0  0
  2  6  2  0  0  0  0
  3 12  2  0  0  0  0
  3 19  1  0  0  0  0
  4 13  1  0  0  0  0
  4 19  2  0  0  0  0
  5 21  1  0  0  0  0
  6 23  1  0  0  0  0
  7 14  2  0  0  0  0
  7 22  1  0  0  0  0
  8 10  2  0  0  0  0
  8 25  1  0  0  0  0
  9 11  1  0  0  0  0
  9 25  2  0  0  0  0
 10 26  1  0  0  0  0
 11 26  2  0  0  0  0
 12 27  1  0  0  0  0
 13 27  2  0  0  0  0
 14 28  1  0  0  0  0
 15 16  2  0  0  0  0
 15 29  1  0  0  0  0
 16 30  1  0  0  0  0
 17 24  1  0  0  0  0
 17 28  2  0  0  0  0
 18 30  2  0  0  0  0
 18 31  1  0  0  0  0
 19 32  1  0  0  0  0
 20 32  1  0  0  0  0
 20 33  2  0  0  0  0
 20 34  1  0  0  0  0
 21 23  2  0  0  0  0
 21 39  1  0  0  0  0
 22 24  2  0  0  0  0
 22 40  1  0  0  0  0
 23 48  1  0  0  0  0
 24 41  1  0  0  0  0
 25 73  1  0  0  0  0
 26 74  1  0  0  0  0
 27 81  1  0  0  0  0
 28 82  1  0  0  0  0
 29 31  2  0  0  0  0
 29 81  1  0  0  0  0
 30 83  1  0  0  0  0
 31 84  1  0  0  0  0
 32 65  2  0  0  0  0
 33 66  1  0  0  0  0
 33 69  1  0  0  0  0
 34 70  1  0  0  0  0
 34 76  2  0  0  0  0
 35 49  1  0  0  0  0
 35 71  1  0  0  0  0
 35 77  2  0  0  0  0
 36 62  1  0  0  0  0
 36 67  1  0  0  0  0
 36 78  2  0  0  0  0
 37 63  1  0  0  0  0
 37 72  1  0  0  0  0
 37 79  2  0  0  0  0
 38 68  1  0  0  0  0
 38 73  1  0  0  0  0
 38 80  2  0  0  0  0
 39 42  1  0  0  0  0
 40 49  1  0  0  0  0
 41 67  1  0  0  0  0
 42 44  1  0  0  0  0
 43 45  1  0  0  0  0
 43 46  1  0  0  0  0
 44 48  1  0  0  0  0
 45 50  1  0  0  0  0
 46 68  1  0  0  0  0
 47 50  1  0  0  0  0
 47 68  1  0  0  0  0
 48 71  1  0  0  0  0
 49 67  1  0  0  0  0
 50 66  1  0  0  0  0
 51 59  1  0  0  0  0
 52 63  1  0  0  0  0
 53 64  1  0  0  0  0
 54 64  1  0  0  0  0
 55 64  1  0  0  0  0
 56 73  1  0  0  0  0
 57 75  1  0  0  0  0
 58 60  1  0  0  0  0
 58 61  1  0  0  0  0
 59 74  1  0  0  0  0
 60 74  1  0  0  0  0
 61 82  1  0  0  0  0
 62 64  1  0  0  0  0
 62 72  1  0  0  0  0
 63 75  1  0  0  0  0
 65 66  1  0  0  0  0
M  CHG  1  75   1
M  ISO  4  38 100  61 101  73 100  82 101
M  END
> <Batch ID>
0013

> <Smiles>
CCN(CC[101CH2:1][101O:1]c1ccc2c(c1)CN(C(=O)C(NC(=O)C(C)NC)C(C)(C)C)C(C(=O)NC1CCCc3ccccc31)C2)c1ccc([100N:0](C)[100C:0](=O)N2CCCC(n3nc(-c4ccc(Oc5ccc(F)cc5F)cc4)c(C(N)=O)c3N)C2)cc1

> <Shape>
0.240

> <Color>
0.086

> <Negative vol penalty>
0.000

$$$$

  -OEChem-04042320483D

 84 92  0     1  0  0  0  0  0999 V2000
  -23.0761  -37.3800   23.9376 C   0  0  0  0  0  0  0  0  0  0  0  0
  -24.2125  -36.5924   23.7839 C   0  0  0  0  0  0  0  0  0  0  0  0
  -26.9083  -12.9371   20.9831 C   0  0  0  0  0  0  0  0  0  0  0  0
  -26.9344  -13.1125   18.5736 C   0  0  0  0  0  0  0  0  0  0  0  0
  -21.8364  -36.7788   24.1514 C   0  0  0  0  0  0  0  0  0  0  0  0
  -24.1100  -35.2031   23.8449 C   0  0  0  0  0  0  0  0  0  0  0  0
  -27.3810  -31.1267   20.6528 C   0  0  0  0  0  0  0  0  0  0  0  0
  -29.7361  -23.2683   20.1222 C   0  0  0  0  0  0  0  0  0  0  0  0
  -28.9986  -22.2637   19.4957 C   0  0  0  0  0  0  0  0  0  0  0  0
  -26.3282  -11.6724   20.8847 C   0  0  0  0  0  0  0  0  0  0  0  0
  -26.3543  -11.8478   18.4752 C   0  0  0  0  0  0  0  0  0  0  0  0
  -28.5058  -30.3683   20.9743 C   0  0  0  0  0  0  0  0  0  0  0  0
  -23.2593  -10.3780   20.3095 C   0  0  0  0  0  0  0  0  0  0  0  0
  -22.1856  -10.0910   21.1523 C   0  0  0  0  0  0  0  0  0  0  0  0
  -27.0808  -28.5070   21.5435 C   0  0  0  0  0  0  0  0  0  0  0  0
  -31.0120  -23.5951   18.0968 C   0  0  0  0  0  0  0  0  0  0  0  0
  -23.4333   -8.2617   22.1189 C   0  0  0  0  0  0  0  0  0  0  0  0
  -27.2113  -13.6572   19.8275 C   0  0  0  0  0  0  0  0  0  0  0  0
  -29.1838  -15.2690   19.9653 C   0  0  0  0  0  0  0  0  0  0  0  0
  -21.7172  -35.3811   24.2054 C   0  0  0  0  0  0  0  0  0  0  0  0
  -26.0949  -30.5836   20.7849 C   0  0  0  0  0  0  0  0  0  0  0  0
  -22.8678  -34.5827   24.0609 C   0  0  0  0  0  0  0  0  0  0  0  0
  -25.9414  -29.2597   21.2206 C   0  0  0  0  0  0  0  0  0  0  0  0
  -30.7427  -23.9340   19.4228 C   0  0  0  0  0  0  0  0  0  0  0  0
  -29.2679  -21.9248   18.1697 C   0  0  0  0  0  0  0  0  0  0  0  0
  -26.0513  -11.1277   19.6308 C   0  0  0  0  0  0  0  0  0  0  0  0
  -28.3558  -29.0592   21.4225 C   0  0  0  0  0  0  0  0  0  0  0  0
  -24.4200   -9.6068   20.3713 C   0  0  0  0  0  0  0  0  0  0  0  0
  -22.2725   -9.0329   22.0570 C   0  0  0  0  0  0  0  0  0  0  0  0
  -30.2746  -22.5904   17.4702 C   0  0  0  0  0  0  0  0  0  0  0  0
  -24.5070   -8.5487   21.2760 C   0  0  0  0  0  0  0  0  0  0  0  0
  -27.8100  -14.9639   19.9284 C   0  0  0  0  0  0  0  0  0  0  0  0
  -29.2289  -16.6381   20.0646 C   0  0  0  0  0  0  0  0  0  0  0  0
  -30.3178  -14.3931   19.9143 C   0  0  0  0  0  0  0  0  0  0  0  0
  -23.5307  -31.2873   22.5266 C   0  0  0  0  0  0  0  0  0  0  0  0
  -22.1592  -28.9506   20.7430 C   0  0  0  0  0  0  0  0  0  0  0  0
  -22.5594  -26.1438   18.8434 C   0  0  0  0  0  0  0  0  0  0  0  0
  -26.0031  -21.1307   17.9446 C   0  0  0  0  0  0  0  0  0  0  0  0
  -20.3634  -34.7783   24.4858 C   0  0  0  0  0  0  0  0  0  0  0  0
  -24.8930  -31.4058   20.4085 C   0  0  0  0  0  0  0  0  0  0  0  0
  -24.5835  -28.6232   21.3603 C   0  0  0  0  0  0  0  0  0  0  0  0
  -20.2814  -33.2885   24.1633 C   0  0  0  0  0  0  0  0  0  0  0  0
  -26.0759  -20.1484   21.5127 C   0  0  0  0  0  0  0  0  0  0  0  0
  -21.4943  -32.5533   24.7248 C   0  0  0  0  0  0  0  0  0  0  0  0
  -26.5921  -18.7118   21.4523 C   0  0  0  0  0  0  0  0  0  0  0  0
  -25.3255  -20.5355   20.2420 C   0  0  0  0  0  0  0  0  0  0  0  0
  -26.6228  -18.8873   18.9326 C   0  0  0  0  0  0  0  0  0  0  0  0
  -22.7934  -33.0716   24.0961 C   0  0  1  0  0  0  0  0  0  0  0  0
  -23.6068  -30.9220   21.0711 C   0  0  1  0  0  0  0  0  0  0  0  0
  -27.4239  -18.4809   20.1786 C   0  0  2  0  0  0  0  0  0  0  0  0
  -21.2505  -24.4362   17.5517 C   0  0  0  0  0  0  0  0  0  0  0  0
  -21.3153  -27.6234   23.3577 C   0  0  0  0  0  0  0  0  0  0  0  0
  -20.8799  -25.5214   22.0691 C   0  0  0  0  0  0  0  0  0  0  0  0
  -19.5766  -27.5866   21.5604 C   0  0  0  0  0  0  0  0  0  0  0  0
  -27.0659  -22.1888   15.9875 C   0  0  0  0  0  0  0  0  0  0  0  0
  -23.9064  -26.8597   16.3072 C   0  0  0  0  0  0  0  0  0  0  0  0
  -28.4786  -20.8493   17.5026 C   0  0  0  0  0  0  0  0  0  0  0  0
  -31.5362  -25.0143   20.0968 C   0  0  0  0  0  0  0  0  0  0  0  0
  -31.5166  -27.3562   20.9652 C   0  0  0  0  0  0  0  0  0  0  0  0
  -30.6559  -28.6026   21.0268 C   0  0  0  0  0  0  0  0  0  1  0  0
  -22.0069  -27.4546   20.8759 C   0  0  1  0  0  0  0  0  0  0  0  0
  -21.9997  -25.7580   17.4860 C   0  0  2  0  0  0  0  0  0  0  0  0
  -20.9703  -27.0588   21.9651 C   0  0  0  0  0  0  0  0  0  0  0  0
  -27.0381  -16.0517   19.9988 N   0  0  0  0  0  0  0  0  0  0  0  0
  -27.9300  -17.0537   20.0809 N   0  0  0  0  0  0  0  0  0  0  0  0
  -23.4388  -29.4699   20.9860 N   0  0  0  0  0  0  0  0  0  0  0  0
  -26.1220  -20.2655   19.0446 N   0  0  0  0  0  0  0  0  0  0  0  0
  -30.2525  -17.5151   20.1389 N   0  0  0  0  0  0  0  0  0  0  0  0
  -30.0924  -13.0136   19.8121 N   0  0  0  0  0  0  0  0  0  0  0  0
  -22.9650  -32.5249   22.7672 N   0  0  0  0  0  0  0  0  0  0  0  0
  -21.6912  -26.9563   19.5415 N   0  0  0  0  0  0  0  0  0  0  0  0
  -27.1362  -21.2932   17.1333 N   0  0  0  0  0  0  0  0  0  0  0  0
  -23.1008  -25.6250   16.4905 N   0  3  0  0  0  0  0  0  0  0  0  0
  -30.7787  -26.2860   20.2480 N   0  3  0  0  0  0  0  0  0  0  0  0
  -31.4958  -14.8199   19.9745 O   0  0  0  0  0  0  0  0  0  0  0  0
  -23.9527  -30.5038   23.3690 O   0  0  0  0  0  0  0  0  0  0  0  0
  -21.1807  -29.6325   20.4281 O   0  0  0  0  0  0  0  0  0  0  0  0
  -23.6553  -25.7597   19.2457 O   0  0  0  0  0  0  0  0  0  0  0  0
  -24.9474  -21.7315   17.7072 O   0  0  0  0  0  0  0  0  0  0  0  0
  -25.4855   -9.8935   19.5345 O   0  0  0  0  0  0  0  0  0  0  0  0
  -29.4520  -28.3170   21.7376 O   0  0  0  0  0  0  0  0  0  1  0  0
  -21.2419   -8.7584   22.8673 F   0  0  0  0  0  0  0  0  0  0  0  0
  -30.5411  -22.2709   16.1961 F   0  0  0  0  0  0  0  0  0  0  0  0
  -25.6199   -7.8051   21.3409 F   0  0  0  0  0  0  0  0  0  0  0  0
  1  2  1  0  0  0  0
  1  5  2  0  0  0  0
  2  6  2  0  0  0  0
  3 10  2  0  0  0  0
  3 18  1  0  0  0  0
  4 11  1  0  0  0  0
  4 18  2  0  0  0  0
  5 20  1  0  0  0  0
  6 22  1  0  0  0  0
  7 12  2  0  0  0  0
  7 21  1  0  0  0  0
  8  9  2  0  0  0  0
  8 24  1  0  0  0  0
  9 25  1  0  0  0  0
 10 26  1  0  0  0  0
 11 26  2  0  0  0  0
 12 27  1  0  0  0  0
 13 14  2  0  0  0  0
 13 28  1  0  0  0  0
 14 29  1  0  0  0  0
 15 23  1  0  0  0  0
 15 27  2  0  0  0  0
 16 24  2  0  0  0  0
 16 30  1  0  0  0  0
 17 29  2  0  0  0  0
 17 31  1  0  0  0  0
 18 32  1  0  0  0  0
 19 32  1  0  0  0  0
 19 33  2  0  0  0  0
 19 34  1  0  0  0  0
 20 22  2  0  0  0  0
 20 39  1  0  0  0  0
 21 23  2  0  0  0  0
 21 40  1  0  0  0  0
 22 48  1  0  0  0  0
 23 41  1  0  0  0  0
 24 58  1  0  0  0  0
 25 30  2  0  0  0  0
 25 57  1  0  0  0  0
 26 80  1  0  0  0  0
 27 81  1  0  0  0  0
 28 31  2  0  0  0  0
 28 80  1  0  0  0  0
 29 82  1  0  0  0  0
 30 83  1  0  0  0  0
 31 84  1  0  0  0  0
 32 64  2  0  0  0  0
 33 65  1  0  0  0  0
 33 68  1  0  0  0  0
 34 69  1  0  0  0  0
 34 75  2  0  0  0  0
 35 49  1  0  0  0  0
 35 70  1  0  0  0  0
 35 76  2  0  0  0  0
 36 61  1  0  0  0  0
 36 66  1  0  0  0  0
 36 77  2  0  0  0  0
 37 62  1  0  0  0  0
 37 71  1  0  0  0  0
 37 78  2  0  0  0  0
 38 67  1  0  0  0  0
 38 72  1  0  0  0  0
 38 79  2  0  0  0  0
 39 42  1  0  0  0  0
 40 49  1  0  0  0  0
 41 66  1  0  0  0  0
 42 44  1  0  0  0  0
 43 45  1  0  0  0  0
 43 46  1  0  0  0  0
 44 48  1  0  0  0  0
 45 50  1  0  0  0  0
 46 67  1  0  0  0  0
 47 50  1  0  0  0  0
 47 67  1  0  0  0  0
 48 70  1  0  0  0  0
 49 66  1  0  0  0  0
 50 65  1  0  0  0  0
 51 62  1  0  0  0  0
 52 63  1  0  0  0  0
 53 63  1  0  0  0  0
 54 63  1  0  0  0  0
 55 72  1  0  0  0  0
 56 73  1  0  0  0  0
 57 72  1  0  0  0  0
 58 74  1  0  0  0  0
 59 60  1  0  0  0  0
 59 74  1  0  0  0  0
 60 81  1  0  0  0  0
 61 63  1  0  0  0  0
 61 71  1  0  0  0  0
 62 73  1  0  0  0  0
 64 65  1  0  0  0  0
M  CHG  2  73   1  74   1
M  ISO  4  38 100  60 101  72 100  81 101
M  END
> <Batch ID>
0013

> <Smiles>
CNC(C)C(=O)NC(C(=O)N1Cc2cc([101O:1][101CH2:1]CNCc3ccc(C[100N:0](C)[100C:0](=O)N4CCCC(n5nc(-c6ccc(Oc7ccc(F)cc7F)cc6)c(C(N)=O)c5N)C4)c(F)c3)ccc2CC1C(=O)NC1CCCc2ccccc21)C(C)(C)C

> <Shape>
0.276

> <Color>
0.078

> <Negative vol penalty>
0.000

$$$$

  -OEChem-04042320483D

 89 98  0     1  0  0  0  0  0999 V2000
  -28.2500  -36.3600   18.1109 C   0  0  0  0  0  0  0  0  0  0  0  0
  -28.7405  -35.0882   17.8326 C   0  0  0  0  0  0  0  0  0  0  0  0
  -22.3177  -13.1567   20.9717 C   0  0  0  0  0  0  0  0  0  0  0  0
  -23.0476  -14.8228   19.3815 C   0  0  0  0  0  0  0  0  0  0  0  0
  -27.5529  -36.5933   19.2956 C   0  0  0  0  0  0  0  0  0  0  0  0
  -28.5351  -34.0491   18.7396 C   0  0  0  0  0  0  0  0  0  0  0  0
  -27.4678  -26.9693   18.9701 C   0  0  0  0  0  0  0  0  0  0  0  0
  -21.0214  -13.2394   20.4633 C   0  0  0  0  0  0  0  0  0  0  0  0
  -21.7513  -14.9055   18.8731 C   0  0  0  0  0  0  0  0  0  0  0  0
  -27.9716  -25.8235   19.5843 C   0  0  0  0  0  0  0  0  0  0  0  0
  -19.3179  -12.0778   17.7835 C   0  0  0  0  0  0  0  0  0  0  0  0
  -18.6379  -10.8836   17.5447 C   0  0  0  0  0  0  0  0  0  0  0  0
  -26.6845  -26.3250   21.5619 C   0  0  0  0  0  0  0  0  0  0  0  0
  -28.5456  -17.2112   18.2887 C   0  0  0  0  0  0  0  0  0  0  0  0
  -29.8300  -16.8916   20.7444 C   0  0  0  0  0  0  0  0  0  0  0  0
  -16.9169  -11.5520   19.1031 C   0  0  0  0  0  0  0  0  0  0  0  0
  -23.3308  -13.9485   20.4308 C   0  0  0  0  0  0  0  0  0  0  0  0
  -25.0840  -14.1288   22.2751 C   0  0  0  0  0  0  0  0  0  0  0  0
  -27.3305  -35.5543   20.2130 C   0  0  0  0  0  0  0  0  0  0  0  0
  -26.5755  -27.8088   19.6523 C   0  0  0  0  0  0  0  0  0  0  0  0
  -27.8355  -34.2690   19.9383 C   0  0  0  0  0  0  0  0  0  0  0  0
  -26.1688  -27.4794   20.9532 C   0  0  0  0  0  0  0  0  0  0  0  0
  -28.2224  -18.0458   19.3585 C   0  0  0  0  0  0  0  0  0  0  0  0
  -28.8646  -17.8860   20.5864 C   0  0  0  0  0  0  0  0  0  0  0  0
  -29.5109  -16.2168   18.4466 C   0  0  0  0  0  0  0  0  0  0  0  0
  -20.7382  -14.1138   19.4140 C   0  0  0  0  0  0  0  0  0  0  0  0
  -27.5822  -25.5028   20.8814 C   0  0  0  0  0  0  0  0  0  0  0  0
  -18.7975  -13.0091   18.6821 C   0  0  0  0  0  0  0  0  0  0  0  0
  -17.4374  -10.6207   18.2045 C   0  0  0  0  0  0  0  0  0  0  0  0
  -30.1532  -16.0570   19.6745 C   0  0  0  0  0  0  0  0  0  0  0  0
  -17.5970  -12.7462   19.3419 C   0  0  0  0  0  0  0  0  0  0  0  0
  -24.6699  -13.8639   20.9559 C   0  0  0  0  0  0  0  0  0  0  0  0
  -26.4392  -13.9058   22.2608 C   0  0  0  0  0  0  0  0  0  0  0  0
  -28.3965  -21.2886   21.6070 C   0  0  0  0  0  0  0  0  0  0  0  0
  -24.3127  -14.5395   23.4117 C   0  0  0  0  0  0  0  0  0  0  0  0
  -26.6323  -30.8401   20.6071 C   0  0  0  0  0  0  0  0  0  0  0  0
  -23.5553  -30.2303   21.4334 C   0  0  0  0  0  0  0  0  0  0  0  0
  -21.1856  -27.9257   22.2820 C   0  0  0  0  0  0  0  0  0  0  0  0
  -30.2826  -14.0270   17.4977 C   0  0  0  0  0  0  0  0  0  0  0  0
  -26.6124  -35.8656   21.5023 C   0  0  0  0  0  0  0  0  0  0  0  0
  -26.0204  -29.0267   18.9660 C   0  0  0  0  0  0  0  0  0  0  0  0
  -25.1976  -28.3368   21.7213 C   0  0  0  0  0  0  0  0  0  0  0  0
  -26.1127  -34.6239   22.2363 C   0  0  0  0  0  0  0  0  0  0  0  0
  -29.8169  -11.3664   20.0269 C   0  0  0  0  0  0  0  0  0  0  0  0
  -27.2060  -33.5617   22.2940 C   0  0  0  0  0  0  0  0  0  0  0  0
  -28.4383  -11.6837   20.6032 C   0  0  0  0  0  0  0  0  0  0  0  0
  -30.6729  -21.7092   21.0304 C   0  0  0  0  0  0  0  0  0  0  0  0
  -29.9449  -11.8273   18.5782 C   0  0  0  0  0  0  0  0  0  0  0  0
  -30.5395  -20.2874   21.5427 C   0  0  0  0  0  0  0  0  0  0  0  0
  -28.2500  -13.5942   18.9613 C   0  0  0  0  0  0  0  0  0  0  0  0
  -27.6115  -33.1104   20.8857 C   0  0  1  0  0  0  0  0  0  0  0  0
  -29.4232  -22.4068   21.5725 C   0  0  1  0  0  0  0  0  0  0  0  0
  -25.5162  -30.0849   19.9424 C   0  0  1  0  0  0  0  0  0  0  0  0
  -28.1095  -13.1760   20.4326 C   0  0  1  0  0  0  0  0  0  0  0  0
  -27.1854  -19.1031   19.1661 C   0  0  0  0  0  0  0  0  0  0  0  0
  -31.3142  -16.6605   15.8544 C   0  0  0  0  0  0  0  0  0  0  0  0
  -18.7711  -27.7329   22.9380 C   0  0  0  0  0  0  0  0  0  0  0  0
  -24.2364  -31.2449   24.2292 C   0  0  0  0  0  0  0  0  0  0  0  0
  -22.1360  -30.1632   25.0577 C   0  0  0  0  0  0  0  0  0  0  0  0
  -22.0116  -31.9891   23.3626 C   0  0  0  0  0  0  0  0  0  0  0  0
  -20.5589  -26.2495   19.9248 C   0  0  0  0  0  0  0  0  0  0  0  0
  -28.5336  -18.7718   21.7525 C   0  0  0  0  0  0  0  0  0  0  0  0
  -28.9829  -23.5869   20.7279 C   0  0  0  0  0  0  0  0  0  1  0  0
  -29.9791  -15.9622   16.0163 C   0  0  0  0  0  0  0  0  0  0  0  0
  -22.8633  -29.7114   22.6707 C   0  0  1  0  0  0  0  0  0  0  0  0
  -19.7662  -27.7118   21.7882 C   0  0  2  0  0  0  0  0  0  0  0  0
  -22.8316  -30.7618   23.8165 C   0  0  0  0  0  0  0  0  0  0  0  0
  -25.6802  -13.5007   20.1614 N   0  0  0  0  0  0  0  0  0  0  0  0
  -26.7427  -13.5357   20.9836 N   0  0  0  0  0  0  0  0  0  0  0  0
  -29.1102  -20.0912   21.6110 N   0  0  0  0  0  0  0  0  0  0  0  0
  -24.6877  -29.5204   21.0096 N   0  0  0  0  0  0  0  0  0  0  0  0
  -29.5710  -13.2338   18.4210 N   0  0  0  0  0  0  0  0  0  0  0  0
  -27.3890  -13.9922   23.2162 N   0  0  0  0  0  0  0  0  0  0  0  0
  -24.1442  -15.9113   23.6445 N   0  0  0  0  0  0  0  0  0  0  0  0
  -26.6280  -32.1968   20.3450 N   0  0  0  0  0  0  0  0  0  0  0  0
  -21.5456  -29.2561   22.2408 N   0  0  0  0  0  0  0  0  0  0  0  0
  -29.8436  -15.3553   17.3385 N   0  0  0  0  0  0  0  0  0  0  0  0
  -19.6522  -26.3989   21.0921 N   0  3  0  0  0  0  0  0  0  0  0  0
  -27.1859  -21.4425   21.6704 O   0  0  0  0  0  0  0  0  0  0  0  0
  -23.8021  -13.7146   24.2070 O   0  0  0  0  0  0  0  0  0  0  0  0
  -27.4369  -30.2367   21.3074 O   0  0  0  0  0  0  0  0  0  0  0  0
  -23.1035  -31.2245   20.8598 O   0  0  0  0  0  0  0  0  0  0  0  0
  -21.9020  -27.0052   22.6694 O   0  0  0  0  0  0  0  0  0  0  0  0
  -31.2105  -13.5687   16.8197 O   0  0  0  0  0  0  0  0  0  0  0  0
  -19.4735  -14.1945   18.9175 O   0  0  0  0  0  0  0  0  0  0  0  0
  -28.0730  -24.3854   21.4835 O   0  0  0  0  0  0  0  0  0  1  0  0
  -16.7836   -9.4746   17.9739 F   0  0  0  0  0  0  0  0  0  0  0  0
  -31.0828  -15.1049   19.8377 F   0  0  0  0  0  0  0  0  0  0  0  0
  -17.0916  -13.6376   20.2055 F   0  0  0  0  0  0  0  0  0  0  0  0
  1  2  1  0  0  0  0
  1  5  2  0  0  0  0
  2  6  2  0  0  0  0
  3  8  2  0  0  0  0
  3 17  1  0  0  0  0
  4  9  1  0  0  0  0
  4 17  2  0  0  0  0
  5 19  1  0  0  0  0
  6 21  1  0  0  0  0
  7 10  2  0  0  0  0
  7 20  1  0  0  0  0
  8 26  1  0  0  0  0
  9 26  2  0  0  0  0
 10 27  1  0  0  0  0
 11 12  2  0  0  0  0
 11 28  1  0  0  0  0
 12 29  1  0  0  0  0
 13 22  1  0  0  0  0
 13 27  2  0  0  0  0
 14 23  2  0  0  0  0
 14 25  1  0  0  0  0
 15 24  2  0  0  0  0
 15 30  1  0  0  0  0
 16 29  2  0  0  0  0
 16 31  1  0  0  0  0
 17 32  1  0  0  0  0
 18 32  1  0  0  0  0
 18 33  2  0  0  0  0
 18 35  1  0  0  0  0
 19 21  2  0  0  0  0
 19 40  1  0  0  0  0
 20 22  2  0  0  0  0
 20 41  1  0  0  0  0
 21 51  1  0  0  0  0
 22 42  1  0  0  0  0
 23 24  1  0  0  0  0
 23 55  1  0  0  0  0
 24 62  1  0  0  0  0
 25 30  2  0  0  0  0
 25 77  1  0  0  0  0
 26 85  1  0  0  0  0
 27 86  1  0  0  0  0
 28 31  2  0  0  0  0
 28 85  1  0  0  0  0
 29 87  1  0  0  0  0
 30 88  1  0  0  0  0
 31 89  1  0  0  0  0
 32 68  2  0  0  0  0
 33 69  1  0  0  0  0
 33 73  1  0  0  0  0
 34 52  1  0  0  0  0
 34 70  1  0  0  0  0
 34 79  2  0  0  0  0
 35 74  1  0  0  0  0
 35 80  2  0  0  0  0
 36 53  1  0  0  0  0
 36 75  1  0  0  0  0
 36 81  2  0  0  0  0
 37 65  1  0  0  0  0
 37 71  1  0  0  0  0
 37 82  2  0  0  0  0
 38 66  1  0  0  0  0
 38 76  1  0  0  0  0
 38 83  2  0  0  0  0
 39 72  1  0  0  0  0
 39 77  1  0  0  0  0
 39 84  2  0  0  0  0
 40 43  1  0  0  0  0
 41 53  1  0  0  0  0
 42 71  1  0  0  0  0
 43 45  1  0  0  0  0
 44 46  1  0  0  0  0
 44 48  1  0  0  0  0
 45 51  1  0  0  0  0
 46 54  1  0  0  0  0
 47 49  1  0  0  0  0
 47 52  1  0  0  0  0
 48 72  1  0  0  0  0
 49 70  1  0  0  0  0
 50 54  1  0  0  0  0
 50 72  1  0  0  0  0
 51 75  1  0  0  0  0
 52 63  1  0  0  0  0
 53 71  1  0  0  0  0
 54 69  1  0  0  0  0
 56 64  1  0  0  0  0
 57 66  1  0  0  0  0
 58 67  1  0  0  0  0
 59 67  1  0  0  0  0
 60 67  1  0  0  0  0
 61 78  1  0  0  0  0
 62 70  1  0  0  0  0
 63 86  1  0  0  0  0
 64 77  1  0  0  0  0
 65 67  1  0  0  0  0
 65 76  1  0  0  0  0
 66 78  1  0  0  0  0
 68 69  1  0  0  0  0
M  CHG  1  78   1
M  ISO  4  39 100  63 101  77 100  86 101
M  END
> <Batch ID>
0013

> <Smiles>
CC[100N:0](c1cc(C)c(CN2CCC([101CH2:1][101O:1]c3ccc4c(c3)CN(C(=O)C(NC(=O)C(C)NC)C(C)(C)C)C(C(=O)NC3CCCc5ccccc53)C4)C2=O)cc1F)[100C:0](=O)N1CCCC(n2nc(-c3ccc(Oc4ccc(F)cc4F)cc3)c(C(N)=O)c2N)C1

> <Shape>
0.261

> <Color>
0.054

> <Negative vol penalty>
0.000

$$$$

  -OEChem-04042320483D

 86 94  0     1  0  0  0  0  0999 V2000
  -22.3587  -24.7769   14.1457 C   0  0  0  0  0  0  0  0  0  0  0  0
  -22.0126  -25.6654   15.1587 C   0  0  0  0  0  0  0  0  0  0  0  0
  -27.1424  -14.6724   21.0186 C   0  0  0  0  0  0  0  0  0  0  0  0
  -25.5232  -14.5644   19.2288 C   0  0  0  0  0  0  0  0  0  0  0  0
  -23.3936  -23.8640   14.3442 C   0  0  0  0  0  0  0  0  0  0  0  0
  -22.7005  -25.6407   16.3714 C   0  0  0  0  0  0  0  0  0  0  0  0
  -24.0306  -30.4309   19.9478 C   0  0  0  0  0  0  0  0  0  0  0  0
  -21.6592  -26.1421   20.8595 C   0  0  0  0  0  0  0  0  0  0  0  0
  -21.3409  -27.3062   21.5588 C   0  0  0  0  0  0  0  0  0  0  0  0
  -26.9201  -13.3247   21.3010 C   0  0  0  0  0  0  0  0  0  0  0  0
  -25.3009  -13.2166   19.5111 C   0  0  0  0  0  0  0  0  0  0  0  0
  -23.4229  -30.9438   21.0929 C   0  0  0  0  0  0  0  0  0  0  0  0
  -24.0429   -9.8408   19.9921 C   0  0  0  0  0  0  0  0  0  0  0  0
  -22.7214   -9.3965   20.0338 C   0  0  0  0  0  0  0  0  0  0  0  0
  -24.9848  -29.7185   22.4634 C   0  0  0  0  0  0  0  0  0  0  0  0
  -22.2547  -10.9524   21.8222 C   0  0  0  0  0  0  0  0  0  0  0  0
  -26.4439  -15.2923   19.9825 C   0  0  0  0  0  0  0  0  0  0  0  0
  -27.6211  -17.2219   18.7999 C   0  0  0  0  0  0  0  0  0  0  0  0
  -24.1009  -23.8345   15.5565 C   0  0  0  0  0  0  0  0  0  0  0  0
  -25.1149  -29.5478   20.0522 C   0  0  0  0  0  0  0  0  0  0  0  0
  -23.7449  -24.7255   16.5869 C   0  0  0  0  0  0  0  0  0  0  0  0
  -25.6061  -29.1977   21.3180 C   0  0  0  0  0  0  0  0  0  0  0  0
  -20.8409  -25.0176   20.9676 C   0  0  0  0  0  0  0  0  0  0  0  0
  -20.2043  -27.3458   22.3665 C   0  0  0  0  0  0  0  0  0  0  0  0
  -25.9994  -12.5968   20.5473 C   0  0  0  0  0  0  0  0  0  0  0  0
  -23.8981  -30.5854   22.3510 C   0  0  0  0  0  0  0  0  0  0  0  0
  -24.4704  -10.8409   20.8655 C   0  0  0  0  0  0  0  0  0  0  0  0
  -21.8273   -9.9523   20.9488 C   0  0  0  0  0  0  0  0  0  0  0  0
  -23.5762  -11.3967   21.7805 C   0  0  0  0  0  0  0  0  0  0  0  0
  -19.7043  -25.0573   21.7753 C   0  0  0  0  0  0  0  0  0  0  0  0
  -19.3860  -26.2214   22.4747 C   0  0  0  0  0  0  0  0  0  0  0  0
  -26.6726  -16.6847   19.6907 C   0  0  0  0  0  0  0  0  0  0  0  0
  -27.4384  -18.5807   18.8821 C   0  0  0  0  0  0  0  0  0  0  0  0
  -28.5815  -16.5525   17.9721 C   0  0  0  0  0  0  0  0  0  0  0  0
  -25.6458  -26.5354   19.1876 C   0  0  0  0  0  0  0  0  0  0  0  0
  -28.6597  -27.1873   20.1945 C   0  0  0  0  0  0  0  0  0  0  0  0
  -30.7134  -29.0815   22.1544 C   0  0  0  0  0  0  0  0  0  0  0  0
  -22.7297  -21.8358   20.3270 C   0  0  0  0  0  0  0  0  0  0  0  0
  -25.1807  -22.7980   15.7419 C   0  0  0  0  0  0  0  0  0  0  0  0
  -25.7763  -29.0242   18.8069 C   0  0  0  0  0  0  0  0  0  0  0  0
  -26.7802  -28.2691   21.4840 C   0  0  0  0  0  0  0  0  0  0  0  0
  -26.1077  -23.0881   16.9195 C   0  0  0  0  0  0  0  0  0  0  0  0
  -25.9797  -21.9864   21.9120 C   0  0  0  0  0  0  0  0  0  0  0  0
  -25.2982  -23.4705   18.1546 C   0  0  0  0  0  0  0  0  0  0  0  0
  -26.6147  -20.6814   21.4284 C   0  0  0  0  0  0  0  0  0  0  0  0
  -24.4912  -21.8054   22.1948 C   0  0  0  0  0  0  0  0  0  0  0  0
  -24.3395  -19.9660   20.5616 C   0  0  0  0  0  0  0  0  0  0  0  0
  -24.4839  -24.7461   17.9073 C   0  0  1  0  0  0  0  0  0  0  0  0
  -26.5472  -27.7284   19.0395 C   0  0  1  0  0  0  0  0  0  0  0  0
  -25.8393  -20.0888   20.2369 C   0  0  2  0  0  0  0  0  0  0  0  0
  -33.1246  -29.3544   22.7942 C   0  0  0  0  0  0  0  0  0  0  0  0
  -28.4628  -24.7203   21.9792 C   0  0  0  0  0  0  0  0  0  0  0  0
  -30.4440  -25.5694   23.2529 C   0  0  0  0  0  0  0  0  0  0  0  0
  -30.6673  -25.0056   20.8332 C   0  0  0  0  0  0  0  0  0  0  0  0
  -30.8008  -31.8453   21.0997 C   0  0  0  0  0  0  0  0  0  0  0  0
  -20.3800  -27.8930   25.4496 C   0  0  0  0  0  0  0  0  0  0  0  0
  -21.1845  -23.7744   20.2189 C   0  0  0  0  0  0  0  0  0  0  0  0
  -19.8650  -28.5993   23.1180 C   0  0  0  0  0  0  0  0  0  0  0  0
  -22.0895  -30.5531   25.4680 C   0  0  0  0  0  0  0  0  0  0  0  0
  -20.7884  -30.2455   24.7421 C   0  0  0  0  0  0  0  0  0  0  0  0
  -23.3361  -30.2669   24.6398 C   0  0  0  0  0  0  0  0  0  1  0  0
  -29.3937  -27.0823   21.5095 C   0  0  1  0  0  0  0  0  0  0  0  0
  -32.0173  -29.7971   21.8505 C   0  0  2  0  0  0  0  0  0  0  0  0
  -29.7186  -25.6104   21.8909 C   0  0  0  0  0  0  0  0  0  0  0  0
  -25.9416  -17.6254   20.2945 N   0  0  0  0  0  0  0  0  0  0  0  0
  -26.4310  -18.7675   19.7823 N   0  0  0  0  0  0  0  0  0  0  0  0
  -27.3891  -27.7787   20.2365 N   0  0  0  0  0  0  0  0  0  0  0  0
  -23.8084  -21.2558   21.0150 N   0  0  0  0  0  0  0  0  0  0  0  0
  -28.0428  -19.6219   18.2715 N   0  0  0  0  0  0  0  0  0  0  0  0
  -28.6350  -15.1524   18.0091 N   0  0  0  0  0  0  0  0  0  0  0  0
  -25.3349  -25.9135   17.9934 N   0  0  0  0  0  0  0  0  0  0  0  0
  -30.5666  -27.9419   21.3921 N   0  0  0  0  0  0  0  0  0  0  0  0
  -22.2822  -23.0536   20.8244 N   0  0  0  0  0  0  0  0  0  0  0  0
  -31.8436  -31.2708   21.9882 N   0  3  0  0  0  0  0  0  0  0  0  0
  -20.7490  -28.8254   24.3209 N   0  3  1  0  0  0  0  0  0  0  0  0
  -29.3799  -17.1781   17.2341 O   0  0  0  0  0  0  0  0  0  0  0  0
  -25.2620  -26.2029   20.3029 O   0  0  0  0  0  0  0  0  0  0  0  0
  -29.1969  -26.7668   19.1668 O   0  0  0  0  0  0  0  0  0  0  0  0
  -29.9077  -29.4903   22.9876 O   0  0  0  0  0  0  0  0  0  0  0  0
  -22.2070  -21.3098   19.3384 O   0  0  0  0  0  0  0  0  0  0  0  0
  -25.7825  -11.2815   20.8224 O   0  0  0  0  0  0  0  0  0  0  0  0
  -23.3063  -31.0842   23.4704 O   0  0  0  0  0  0  0  0  0  1  0  0
  -20.5578   -9.5266   20.9876 F   0  0  0  0  0  0  0  0  0  0  0  0
  -23.9807  -12.3586   22.6213 F   0  0  0  0  0  0  0  0  0  0  0  0
  -18.9130  -23.9812   21.8867 F   0  0  0  0  0  0  0  0  0  0  0  0
  -18.2925  -26.2496   23.2494 F   0  0  0  0  0  0  0  0  0  0  0  0
  1  2  1  0  0  0  0
  1  5  2  0  0  0  0
  2  6  2  0  0  0  0
  3 10  2  0  0  0  0
  3 17  1  0  0  0  0
  4 11  1  0  0  0  0
  4 17  2  0  0  0  0
  5 19  1  0  0  0  0
  6 21  1  0  0  0  0
  7 12  2  0  0  0  0
  7 20  1  0  0  0  0
  8  9  2  0  0  0  0
  8 23  1  0  0  0  0
  9 24  1  0  0  0  0
 10 25  1  0  0  0  0
 11 25  2  0  0  0  0
 12 26  1  0  0  0  0
 13 14  2  0  0  0  0
 13 27  1  0  0  0  0
 14 28  1  0  0  0  0
 15 22  1  0  0  0  0
 15 26  2  0  0  0  0
 16 28  2  0  0  0  0
 16 29  1  0  0  0  0
 17 32  1  0  0  0  0
 18 32  1  0  0  0  0
 18 33  2  0  0  0  0
 18 34  1  0  0  0  0
 19 21  2  0  0  0  0
 19 39  1  0  0  0  0
 20 22  2  0  0  0  0
 20 40  1  0  0  0  0
 21 48  1  0  0  0  0
 22 41  1  0  0  0  0
 23 30  2  0  0  0  0
 23 57  1  0  0  0  0
 24 31  2  0  0  0  0
 24 58  1  0  0  0  0
 25 81  1  0  0  0  0
 26 82  1  0  0  0  0
 27 29  2  0  0  0  0
 27 81  1  0  0  0  0
 28 83  1  0  0  0  0
 29 84  1  0  0  0  0
 30 31  1  0  0  0  0
 30 85  1  0  0  0  0
 31 86  1  0  0  0  0
 32 65  2  0  0  0  0
 33 66  1  0  0  0  0
 33 69  1  0  0  0  0
 34 70  1  0  0  0  0
 34 76  2  0  0  0  0
 35 49  1  0  0  0  0
 35 71  1  0  0  0  0
 35 77  2  0  0  0  0
 36 62  1  0  0  0  0
 36 67  1  0  0  0  0
 36 78  2  0  0  0  0
 37 63  1  0  0  0  0
 37 72  1  0  0  0  0
 37 79  2  0  0  0  0
 38 68  1  0  0  0  0
 38 73  1  0  0  0  0
 38 80  2  0  0  0  0
 39 42  1  0  0  0  0
 40 49  1  0  0  0  0
 41 67  1  0  0  0  0
 42 44  1  0  0  0  0
 43 45  1  0  0  0  0
 43 46  1  0  0  0  0
 44 48  1  0  0  0  0
 45 50  1  0  0  0  0
 46 68  1  0  0  0  0
 47 50  1  0  0  0  0
 47 68  1  0  0  0  0
 48 71  1  0  0  0  0
 49 67  1  0  0  0  0
 50 66  1  0  0  0  0
 51 63  1  0  0  0  0
 52 64  1  0  0  0  0
 53 64  1  0  0  0  0
 54 64  1  0  0  0  0
 55 74  1  0  0  0  0
 56 75  1  0  0  0  0
 57 73  1  0  0  0  0
 58 75  1  0  0  0  0
 59 60  1  0  0  0  0
 59 61  1  0  0  0  0
 60 75  1  0  0  0  0
 61 82  1  0  0  0  0
 62 64  1  0  0  0  0
 62 72  1  0  0  0  0
 63 74  1  0  0  0  0
 65 66  1  0  0  0  0
M  CHG  2  74   1  75   1
M  ISO  4  38 100  61 101  73 100  82 101
M  END
> <Batch ID>
0013

> <Smiles>
CNC(C)C(=O)NC(C(=O)N1Cc2cc([101O:1][101CH2:1]CCN(C)Cc3ccc(C[100NH:0][100C:0](=O)N4CCCC(n5nc(-c6ccc(Oc7ccc(F)cc7F)cc6)c(C(N)=O)c5N)C4)c(F)c3F)ccc2CC1C(=O)NC1CCCc2ccccc21)C(C)(C)C

> <Shape>
0.217

> <Color>
0.066

> <Negative vol penalty>
0.000

$$$$

  -OEChem-04042320483D

 83 91  0     1  0  0  0  0  0999 V2000
  -27.2810  -11.8658   22.9744 C   0  0  0  0  0  0  0  0  0  0  0  0
  -27.9934  -13.0232   22.6772 C   0  0  0  0  0  0  0  0  0  0  0  0
  -23.8156  -29.9307   21.9260 C   0  0  0  0  0  0  0  0  0  0  0  0
  -22.9927  -27.6648   22.0859 C   0  0  0  0  0  0  0  0  0  0  0  0
  -26.0886  -11.5915   22.3059 C   0  0  0  0  0  0  0  0  0  0  0  0
  -27.5144  -13.9065   21.7104 C   0  0  0  0  0  0  0  0  0  0  0  0
  -28.0190  -20.0099   21.7268 C   0  0  0  0  0  0  0  0  0  0  0  0
  -29.5455  -26.3448   15.5375 C   0  0  0  0  0  0  0  0  0  0  0  0
  -29.9465  -25.1397   16.1140 C   0  0  0  0  0  0  0  0  0  0  0  0
  -22.7522  -30.3724   22.7132 C   0  0  0  0  0  0  0  0  0  0  0  0
  -21.9294  -28.1065   22.8731 C   0  0  0  0  0  0  0  0  0  0  0  0
  -28.9045  -20.8795   21.0917 C   0  0  0  0  0  0  0  0  0  0  0  0
  -18.7985  -28.6872   24.6253 C   0  0  0  0  0  0  0  0  0  0  0  0
  -17.5265  -28.1958   24.3317 C   0  0  0  0  0  0  0  0  0  0  0  0
  -27.3064  -21.1982   19.3130 C   0  0  0  0  0  0  0  0  0  0  0  0
  -30.9000  -27.5570   17.1290 C   0  0  0  0  0  0  0  0  0  0  0  0
  -17.6746  -29.1387   22.1122 C   0  0  0  0  0  0  0  0  0  0  0  0
  -23.9358  -28.5769   21.6123 C   0  0  0  0  0  0  0  0  0  0  0  0
  -26.2994  -27.6915   21.2417 C   0  0  0  0  0  0  0  0  0  0  0  0
  -25.5897  -12.4767   21.3373 C   0  0  0  0  0  0  0  0  0  0  0  0
  -26.7729  -19.7188   21.1533 C   0  0  0  0  0  0  0  0  0  0  0  0
  -26.3149  -13.6431   21.0273 C   0  0  0  0  0  0  0  0  0  0  0  0
  -26.4059  -20.3265   19.9441 C   0  0  0  0  0  0  0  0  0  0  0  0
  -30.0223  -27.5535   16.0449 C   0  0  0  0  0  0  0  0  0  0  0  0
  -30.8242  -25.1431   17.1981 C   0  0  0  0  0  0  0  0  0  0  0  0
  -21.8091  -29.4604   23.1868 C   0  0  0  0  0  0  0  0  0  0  0  0
  -28.5495  -21.4716   19.8832 C   0  0  0  0  0  0  0  0  0  0  0  0
  -19.5085  -29.4045   23.6624 C   0  0  0  0  0  0  0  0  0  0  0  0
  -16.9646  -28.4215   23.0751 C   0  0  0  0  0  0  0  0  0  0  0  0
  -31.3010  -26.3518   17.7056 C   0  0  0  0  0  0  0  0  0  0  0  0
  -18.9466  -29.6302   22.4059 C   0  0  0  0  0  0  0  0  0  0  0  0
  -25.0337  -28.1201   20.7987 C   0  0  0  0  0  0  0  0  0  0  0  0
  -26.9736  -27.3646   20.0906 C   0  0  0  0  0  0  0  0  0  0  0  0
  -26.8191  -27.5973   22.5746 C   0  0  0  0  0  0  0  0  0  0  0  0
  -25.3604  -17.0833   20.0750 C   0  0  0  0  0  0  0  0  0  0  0  0
  -22.8042  -19.0540   19.7513 C   0  0  0  0  0  0  0  0  0  0  0  0
  -21.6283  -22.2349   19.3690 C   0  0  0  0  0  0  0  0  0  0  0  0
  -28.3561  -28.9798   14.8282 C   0  0  0  0  0  0  0  0  0  0  0  0
  -24.3207  -12.1141   20.6073 C   0  0  0  0  0  0  0  0  0  0  0  0
  -25.8181  -18.7994   21.8643 C   0  0  0  0  0  0  0  0  0  0  0  0
  -25.0716  -20.0629   19.2970 C   0  0  0  0  0  0  0  0  0  0  0  0
  -23.6891  -13.2881   19.8636 C   0  0  0  0  0  0  0  0  0  0  0  0
  -25.3772  -26.8430   15.3318 C   0  0  0  0  0  0  0  0  0  0  0  0
  -24.7472  -14.0501   19.0721 C   0  0  0  0  0  0  0  0  0  0  0  0
  -25.0799  -27.0205   16.8196 C   0  0  0  0  0  0  0  0  0  0  0  0
  -26.0556  -28.0742   14.7389 C   0  0  0  0  0  0  0  0  0  0  0  0
  -27.0020  -28.6543   16.9546 C   0  0  0  0  0  0  0  0  0  0  0  0
  -25.8150  -14.6382   20.0025 C   0  0  1  0  0  0  0  0  0  0  0  0
  -24.7844  -18.1746   20.9323 C   0  0  1  0  0  0  0  0  0  0  0  0
  -26.3551  -27.4117   17.5846 C   0  0  1  0  0  0  0  0  0  0  0  0
  -19.9490  -24.0921   19.2008 C   0  0  0  0  0  0  0  0  0  0  0  0
  -22.6282  -18.1431   16.8446 C   0  0  0  0  0  0  0  0  0  0  0  0
  -21.1488  -20.1111   16.3902 C   0  0  0  0  0  0  0  0  0  0  0  0
  -20.4239  -18.3549   18.0067 C   0  0  0  0  0  0  0  0  0  0  0  0
  -30.6192  -29.8347   15.2511 C   0  0  0  0  0  0  0  0  0  0  0  0
  -32.1452  -23.9294   18.9133 C   0  0  0  0  0  0  0  0  0  0  0  0
  -21.6138  -22.6435   22.3002 C   0  0  0  0  0  0  0  0  0  0  0  0
  -30.7365  -22.6641   17.2814 C   0  0  0  0  0  0  0  0  0  0  0  0
  -29.3509  -22.3796   17.8365 C   0  0  0  0  0  0  0  0  0  1  0  0
  -22.2760  -19.9487   18.6561 C   0  0  1  0  0  0  0  0  0  0  0  0
  -20.5219  -22.9922   20.0810 C   0  0  2  0  0  0  0  0  0  0  0  0
  -21.6452  -19.1431   17.4854 C   0  0  0  0  0  0  0  0  0  0  0  0
  -24.9089  -28.0711   19.4697 N   0  0  0  0  0  0  0  0  0  0  0  0
  -26.1047  -27.6080   19.0678 N   0  0  0  0  0  0  0  0  0  0  0  0
  -24.1753  -19.1518   20.0277 N   0  0  0  0  0  0  0  0  0  0  0  0
  -27.2333  -28.4705   15.5125 N   0  0  0  0  0  0  0  0  0  0  0  0
  -28.2189  -26.8955   19.8636 N   0  0  0  0  0  0  0  0  0  0  0  0
  -25.9927  -27.9735   23.6422 N   0  0  0  0  0  0  0  0  0  0  0  0
  -25.3162  -15.8298   20.6548 N   0  0  0  0  0  0  0  0  0  0  0  0
  -21.3599  -20.8842   19.2995 N   0  0  0  0  0  0  0  0  0  0  0  0
  -29.6070  -28.7996   15.4486 N   0  0  0  0  0  0  0  0  0  0  0  0
  -31.2247  -23.9310   17.7759 N   0  0  3  0  0  0  0  0  0  0  0  0
  -21.0416  -23.6139   21.3317 N   0  3  0  0  0  0  0  0  0  0  0  0
  -27.9876  -27.2070   22.8108 O   0  0  0  0  0  0  0  0  0  0  0  0
  -25.8101  -17.3580   18.9687 O   0  0  0  0  0  0  0  0  0  0  0  0
  -22.0275  -18.3015   20.3447 O   0  0  0  0  0  0  0  0  0  0  0  0
  -22.6287  -22.7869   18.9163 O   0  0  0  0  0  0  0  0  0  0  0  0
  -28.2473  -29.6019   13.7644 O   0  0  0  0  0  0  0  0  0  0  0  0
  -20.7715  -29.8910   23.9552 O   0  0  0  0  0  0  0  0  0  0  0  0
  -29.4122  -22.3204   19.2609 O   0  0  0  0  0  0  0  0  0  1  0  0
  -15.7438  -27.9482   22.7927 F   0  0  0  0  0  0  0  0  0  0  0  0
  -32.1436  -26.3666   18.7483 F   0  0  0  0  0  0  0  0  0  0  0  0
  -19.6244  -30.3175   21.4763 F   0  0  0  0  0  0  0  0  0  0  0  0
  1  2  1  0  0  0  0
  1  5  2  0  0  0  0
  2  6  2  0  0  0  0
  3 10  2  0  0  0  0
  3 18  1  0  0  0  0
  4 11  1  0  0  0  0
  4 18  2  0  0  0  0
  5 20  1  0  0  0  0
  6 22  1  0  0  0  0
  7 12  2  0  0  0  0
  7 21  1  0  0  0  0
  8  9  2  0  0  0  0
  8 24  1  0  0  0  0
  9 25  1  0  0  0  0
 10 26  1  0  0  0  0
 11 26  2  0  0  0  0
 12 27  1  0  0  0  0
 13 14  2  0  0  0  0
 13 28  1  0  0  0  0
 14 29  1  0  0  0  0
 15 23  1  0  0  0  0
 15 27  2  0  0  0  0
 16 24  2  0  0  0  0
 16 30  1  0  0  0  0
 17 29  2  0  0  0  0
 17 31  1  0  0  0  0
 18 32  1  0  0  0  0
 19 32  1  0  0  0  0
 19 33  2  0  0  0  0
 19 34  1  0  0  0  0
 20 22  2  0  0  0  0
 20 39  1  0  0  0  0
 21 23  2  0  0  0  0
 21 40  1  0  0  0  0
 22 48  1  0  0  0  0
 23 41  1  0  0  0  0
 24 71  1  0  0  0  0
 25 30  2  0  0  0  0
 25 72  1  0  0  0  0
 26 79  1  0  0  0  0
 27 80  1  0  0  0  0
 28 31  2  0  0  0  0
 28 79  1  0  0  0  0
 29 81  1  0  0  0  0
 30 82  1  0  0  0  0
 31 83  1  0  0  0  0
 32 63  2  0  0  0  0
 33 64  1  0  0  0  0
 33 67  1  0  0  0  0
 34 68  1  0  0  0  0
 34 74  2  0  0  0  0
 35 49  1  0  0  0  0
 35 69  1  0  0  0  0
 35 75  2  0  0  0  0
 36 60  1  0  0  0  0
 36 65  1  0  0  0  0
 36 76  2  0  0  0  0
 37 61  1  0  0  0  0
 37 70  1  0  0  0  0
 37 77  2  0  0  0  0
 38 66  1  0  0  0  0
 38 71  1  0  0  0  0
 38 78  2  0  0  0  0
 39 42  1  0  0  0  0
 40 49  1  0  0  0  0
 41 65  1  0  0  0  0
 42 44  1  0  0  0  0
 43 45  1  0  0  0  0
 43 46  1  0  0  0  0
 44 48  1  0  0  0  0
 45 50  1  0  0  0  0
 46 66  1  0  0  0  0
 47 50  1  0  0  0  0
 47 66  1  0  0  0  0
 48 69  1  0  0  0  0
 49 65  1  0  0  0  0
 50 64  1  0  0  0  0
 51 61  1  0  0  0  0
 52 62  1  0  0  0  0
 53 62  1  0  0  0  0
 54 62  1  0  0  0  0
 55 71  1  0  0  0  0
 56 72  1  0  0  0  0
 57 73  1  0  0  0  0
 58 59  1  0  0  0  0
 58 72  1  0  0  0  0
 59 80  1  0  0  0  0
 60 62  1  0  0  0  0
 60 70  1  0  0  0  0
 61 73  1  0  0  0  0
 63 64  1  0  0  0  0
M  CHG  1  73   1
M  ISO  4  38 100  59 101  71 100  80 101
M  END
> <Batch ID>
0013

> <Smiles>
CNC(C)C(=O)NC(C(=O)N1Cc2cc([101O:1][101CH2:1]CN(C)c3ccc([100N:0](C)[100C:0](=O)N4CCCC(n5nc(-c6ccc(Oc7ccc(F)cc7F)cc6)c(C(N)=O)c5N)C4)cc3F)ccc2CC1C(=O)NC1CCCc2ccccc21)C(C)(C)C

> <Shape>
0.188

> <Color>
0.082

> <Negative vol penalty>
0.000

$$$$

  -OEChem-04042320483D

 82 90  0     1  0  0  0  0  0999 V2000
  -19.9718  -28.8396   25.1160 C   0  0  0  0  0  0  0  0  0  0  0  0
  -19.9023  -27.8938   24.0981 C   0  0  0  0  0  0  0  0  0  0  0  0
  -23.7096  -15.8855   21.6585 C   0  0  0  0  0  0  0  0  0  0  0  0
  -23.0042  -15.1455   19.4694 C   0  0  0  0  0  0  0  0  0  0  0  0
  -20.9122  -29.8667   25.0487 C   0  0  0  0  0  0  0  0  0  0  0  0
  -20.7727  -27.9753   23.0117 C   0  0  0  0  0  0  0  0  0  0  0  0
  -25.2293  -22.5456   21.4153 C   0  0  0  0  0  0  0  0  0  0  0  0
  -31.1108  -16.0547   20.2067 C   0  0  0  0  0  0  0  0  0  0  0  0
  -22.8777  -16.9998   21.5499 C   0  0  0  0  0  0  0  0  0  0  0  0
  -22.1723  -16.2599   19.3608 C   0  0  0  0  0  0  0  0  0  0  0  0
  -25.9616  -21.4666   20.9197 C   0  0  0  0  0  0  0  0  0  0  0  0
  -30.8253  -17.3552   19.7912 C   0  0  0  0  0  0  0  0  0  0  0  0
  -20.6676  -19.8506   22.0006 C   0  0  0  0  0  0  0  0  0  0  0  0
  -19.8840  -20.1851   23.1050 C   0  0  0  0  0  0  0  0  0  0  0  0
  -26.8402  -22.8617   19.1506 C   0  0  0  0  0  0  0  0  0  0  0  0
  -29.7801  -17.8066   21.9221 C   0  0  0  0  0  0  0  0  0  0  0  0
  -18.8011  -18.0284   22.9898 C   0  0  0  0  0  0  0  0  0  0  0  0
  -23.7728  -14.9583   20.6182 C   0  0  0  0  0  0  0  0  0  0  0  0
  -24.3008  -12.5470   21.2622 C   0  0  0  0  0  0  0  0  0  0  0  0
  -21.8010  -29.9552   23.9657 C   0  0  0  0  0  0  0  0  0  0  0  0
  -25.3118  -23.7922   20.7887 C   0  0  0  0  0  0  0  0  0  0  0  0
  -21.7250  -29.0053   22.9292 C   0  0  0  0  0  0  0  0  0  0  0  0
  -26.1187  -23.9493   19.6499 C   0  0  0  0  0  0  0  0  0  0  0  0
  -30.7309  -15.6301   21.4799 C   0  0  0  0  0  0  0  0  0  0  0  0
  -22.1091  -17.1871   20.4010 C   0  0  0  0  0  0  0  0  0  0  0  0
  -26.7648  -21.6242   19.7900 C   0  0  0  0  0  0  0  0  0  0  0  0
  -30.1600  -18.2312   20.6489 C   0  0  0  0  0  0  0  0  0  0  0  0
  -20.5178  -18.6051   21.3907 C   0  0  0  0  0  0  0  0  0  0  0  0
  -18.9508  -19.2740   23.5997 C   0  0  0  0  0  0  0  0  0  0  0  0
  -30.0655  -16.5060   22.3376 C   0  0  0  0  0  0  0  0  0  0  0  0
  -19.5846  -17.6940   21.8854 C   0  0  0  0  0  0  0  0  0  0  0  0
  -24.6324  -13.8073   20.7296 C   0  0  0  0  0  0  0  0  0  0  0  0
  -25.4524  -11.8087   21.1397 C   0  0  0  0  0  0  0  0  0  0  0  0
  -23.0624  -12.0851   21.8179 C   0  0  0  0  0  0  0  0  0  0  0  0
  -24.2246  -27.3827   20.7446 C   0  0  0  0  0  0  0  0  0  0  0  0
  -27.2131  -27.3481   20.0532 C   0  0  0  0  0  0  0  0  0  0  0  0
  -30.5823  -26.9125   19.7437 C   0  0  0  0  0  0  0  0  0  0  0  0
  -31.1003  -13.2206   20.9805 C   0  0  0  0  0  0  0  0  0  0  0  0
  -22.7689  -31.1106   23.9135 C   0  0  0  0  0  0  0  0  0  0  0  0
  -24.4929  -24.9666   21.2514 C   0  0  0  0  0  0  0  0  0  0  0  0
  -26.1498  -25.2998   18.9880 C   0  0  0  0  0  0  0  0  0  0  0  0
  -23.9043  -30.9093   22.9131 C   0  0  0  0  0  0  0  0  0  0  0  0
  -29.3816  -11.4026   18.4538 C   0  0  0  0  0  0  0  0  0  0  0  0
  -23.3587  -30.4048   21.5809 C   0  0  0  0  0  0  0  0  0  0  0  0
  -27.9242  -11.7035   18.8017 C   0  0  0  0  0  0  0  0  0  0  0  0
  -30.2797  -12.6254   18.6441 C   0  0  0  0  0  0  0  0  0  0  0  0
  -28.7235  -13.5412   20.3364 C   0  0  0  0  0  0  0  0  0  0  0  0
  -22.6684  -29.0456   21.7466 C   0  0  1  0  0  0  0  0  0  0  0  0
  -25.2202  -26.3128   21.0842 C   0  0  1  0  0  0  0  0  0  0  0  0
  -27.8072  -12.3141   20.2094 C   0  0  1  0  0  0  0  0  0  0  0  0
  -32.7090  -28.1941   19.3800 C   0  0  0  0  0  0  0  0  0  0  0  0
  -26.5120  -27.6667   17.1018 C   0  0  0  0  0  0  0  0  0  0  0  0
  -28.9431  -28.0449   16.6382 C   0  0  0  0  0  0  0  0  0  0  0  0
  -27.6954  -29.6253   18.1106 C   0  0  0  0  0  0  0  0  0  0  0  0
  -31.4933  -14.0715   23.2820 C   0  0  0  0  0  0  0  0  0  0  0  0
  -31.6993  -26.0208   22.3352 C   0  0  0  0  0  0  0  0  0  0  0  0
  -28.7094  -20.8629   18.6513 C   0  0  0  0  0  0  0  0  0  1  0  0
  -29.6687  -19.7051   18.8483 C   0  0  0  0  0  0  0  0  0  0  0  0
  -28.2603  -27.3153   18.9689 C   0  0  1  0  0  0  0  0  0  0  0  0
  -31.7539  -27.6110   20.4099 C   0  0  2  0  0  0  0  0  0  0  0  0
  -27.8440  -28.1393   17.7178 C   0  0  0  0  0  0  0  0  0  0  0  0
  -25.8958  -13.8696   20.3008 N   0  0  0  0  0  0  0  0  0  0  0  0
  -26.3683  -12.6393   20.5640 N   0  0  0  0  0  0  0  0  0  0  0  0
  -26.2246  -26.3575   20.0080 N   0  0  0  0  0  0  0  0  0  0  0  0
  -30.1038  -13.1973   19.9865 N   0  0  0  0  0  0  0  0  0  0  0  0
  -25.7609  -10.5365   21.4696 N   0  0  0  0  0  0  0  0  0  0  0  0
  -21.9796  -12.9736   21.8673 N   0  0  0  0  0  0  0  0  0  0  0  0
  -23.6515  -27.9883   21.8466 N   0  0  0  0  0  0  0  0  0  0  0  0
  -29.5042  -27.7582   19.5893 N   0  0  0  0  0  0  0  0  0  0  0  0
  -31.0279  -14.2830   21.9071 N   0  0  0  0  0  0  0  0  0  0  0  0
  -32.5112  -26.6524   21.2634 N   0  3  0  0  0  0  0  0  0  0  0  0
  -22.9251  -10.9241   22.2726 O   0  0  0  0  0  0  0  0  0  0  0  0
  -23.9935  -27.6419   19.5694 O   0  0  0  0  0  0  0  0  0  0  0  0
  -27.2644  -28.2303   20.9148 O   0  0  0  0  0  0  0  0  0  0  0  0
  -30.6210  -25.7356   19.3918 O   0  0  0  0  0  0  0  0  0  0  0  0
  -31.9718  -12.3457   21.0510 O   0  0  0  0  0  0  0  0  0  0  0  0
  -21.2971  -18.2742   20.2948 O   0  0  0  0  0  0  0  0  0  0  0  0
  -27.4806  -20.5678   19.3141 O   0  0  0  0  0  0  0  0  0  1  0  0
  -29.8806  -19.5090   20.2411 O   0  0  0  0  0  0  0  0  0  0  0  0
  -18.1995  -19.5947   24.6612 F   0  0  0  0  0  0  0  0  0  0  0  0
  -29.6953  -16.1085   23.5633 F   0  0  0  0  0  0  0  0  0  0  0  0
  -19.4371  -16.4954   21.3044 F   0  0  0  0  0  0  0  0  0  0  0  0
  1  2  1  0  0  0  0
  1  5  2  0  0  0  0
  2  6  2  0  0  0  0
  3  9  2  0  0  0  0
  3 18  1  0  0  0  0
  4 10  1  0  0  0  0
  4 18  2  0  0  0  0
  5 20  1  0  0  0  0
  6 22  1  0  0  0  0
  7 11  2  0  0  0  0
  7 21  1  0  0  0  0
  8 12  2  0  0  0  0
  8 24  1  0  0  0  0
  9 25  1  0  0  0  0
 10 25  2  0  0  0  0
 11 26  1  0  0  0  0
 12 27  1  0  0  0  0
 13 14  2  0  0  0  0
 13 28  1  0  0  0  0
 14 29  1  0  0  0  0
 15 23  1  0  0  0  0
 15 26  2  0  0  0  0
 16 27  2  0  0  0  0
 16 30  1  0  0  0  0
 17 29  2  0  0  0  0
 17 31  1  0  0  0  0
 18 32  1  0  0  0  0
 19 32  1  0  0  0  0
 19 33  2  0  0  0  0
 19 34  1  0  0  0  0
 20 22  2  0  0  0  0
 20 39  1  0  0  0  0
 21 23  2  0  0  0  0
 21 40  1  0  0  0  0
 22 48  1  0  0  0  0
 23 41  1  0  0  0  0
 24 30  2  0  0  0  0
 24 70  1  0  0  0  0
 25 77  1  0  0  0  0
 26 78  1  0  0  0  0
 27 79  1  0  0  0  0
 28 31  2  0  0  0  0
 28 77  1  0  0  0  0
 29 80  1  0  0  0  0
 30 81  1  0  0  0  0
 31 82  1  0  0  0  0
 32 62  2  0  0  0  0
 33 63  1  0  0  0  0
 33 66  1  0  0  0  0
 34 67  1  0  0  0  0
 34 72  2  0  0  0  0
 35 49  1  0  0  0  0
 35 68  1  0  0  0  0
 35 73  2  0  0  0  0
 36 59  1  0  0  0  0
 36 64  1  0  0  0  0
 36 74  2  0  0  0  0
 37 60  1  0  0  0  0
 37 69  1  0  0  0  0
 37 75  2  0  0  0  0
 38 65  1  0  0  0  0
 38 70  1  0  0  0  0
 38 76  2  0  0  0  0
 39 42  1  0  0  0  0
 40 49  1  0  0  0  0
 41 64  1  0  0  0  0
 42 44  1  0  0  0  0
 43 45  1  0  0  0  0
 43 46  1  0  0  0  0
 44 48  1  0  0  0  0
 45 50  1  0  0  0  0
 46 65  1  0  0  0  0
 47 50  1  0  0  0  0
 47 65  1  0  0  0  0
 48 68  1  0  0  0  0
 49 64  1  0  0  0  0
 50 63  1  0  0  0  0
 51 60  1  0  0  0  0
 52 61  1  0  0  0  0
 53 61  1  0  0  0  0
 54 61  1  0  0  0  0
 55 70  1  0  0  0  0
 56 71  1  0  0  0  0
 57 58  1  0  0  0  0
 57 78  1  0  0  0  0
 58 79  1  0  0  0  0
 59 61  1  0  0  0  0
 59 69  1  0  0  0  0
 60 71  1  0  0  0  0
 62 63  1  0  0  0  0
M  CHG  1  71   1
M  ISO  4  38 100  57 101  70 100  78 101
M  END
> <Batch ID>
0013

> <Smiles>
CNC(C)C(=O)NC(C(=O)N1Cc2cc([101O:1][101CH2:1]COc3ccc([100N:0](C)[100C:0](=O)N4CCCC(n5nc(-c6ccc(Oc7ccc(F)cc7F)cc6)c(C(N)=O)c5N)C4)c(F)c3)ccc2CC1C(=O)NC1CCCc2ccccc21)C(C)(C)C

> <Shape>
0.265

> <Color>
0.084

> <Negative vol penalty>
0.000

$$$$

  -OEChem-04042320483D

 83 91  0     1  0  0  0  0  0999 V2000
  -16.6220  -28.0476   23.6655 C   0  0  0  0  0  0  0  0  0  0  0  0
  -17.5553  -27.5543   22.7594 C   0  0  0  0  0  0  0  0  0  0  0  0
  -23.8142  -13.3473   24.6198 C   0  0  0  0  0  0  0  0  0  0  0  0
  -23.1004  -15.4664   23.7050 C   0  0  0  0  0  0  0  0  0  0  0  0
  -30.6184  -21.2318   19.4987 C   0  0  0  0  0  0  0  0  0  0  0  0
  -16.9471  -29.1330   24.4779 C   0  0  0  0  0  0  0  0  0  0  0  0
  -18.8140  -28.1469   22.6645 C   0  0  0  0  0  0  0  0  0  0  0  0
  -24.1253  -25.3389   21.4767 C   0  0  0  0  0  0  0  0  0  0  0  0
  -30.4590  -19.8556   19.6605 C   0  0  0  0  0  0  0  0  0  0  0  0
  -23.0729  -13.5962   25.7748 C   0  0  0  0  0  0  0  0  0  0  0  0
  -22.3589  -15.7153   24.8600 C   0  0  0  0  0  0  0  0  0  0  0  0
  -24.8672  -25.1919   20.3055 C   0  0  0  0  0  0  0  0  0  0  0  0
  -19.8366  -13.4337   26.7407 C   0  0  0  0  0  0  0  0  0  0  0  0
  -19.0552  -12.3946   27.2459 C   0  0  0  0  0  0  0  0  0  0  0  0
  -28.2515  -21.4556   19.0692 C   0  0  0  0  0  0  0  0  0  0  0  0
  -26.2191  -27.0894   20.9310 C   0  0  0  0  0  0  0  0  0  0  0  0
  -20.2946  -12.4702   29.3184 C   0  0  0  0  0  0  0  0  0  0  0  0
  -23.8280  -14.2825   23.5849 C   0  0  0  0  0  0  0  0  0  0  0  0
  -29.5147  -22.0318   19.2031 C   0  0  0  0  0  0  0  0  0  0  0  0
  -24.1556  -13.3744   21.2236 C   0  0  0  0  0  0  0  0  0  0  0  0
  -18.2137  -29.7332   24.3997 C   0  0  0  0  0  0  0  0  0  0  0  0
  -24.4182  -26.3706   22.3801 C   0  0  0  0  0  0  0  0  0  0  0  0
  -19.1558  -29.2423   23.4756 C   0  0  0  0  0  0  0  0  0  0  0  0
  -25.4810  -27.2457   22.1141 C   0  0  0  0  0  0  0  0  0  0  0  0
  -29.1958  -19.2794   19.5266 C   0  0  0  0  0  0  0  0  0  0  0  0
  -22.3452  -14.7801   25.8949 C   0  0  0  0  0  0  0  0  0  0  0  0
  -25.9124  -26.0690   20.0310 C   0  0  0  0  0  0  0  0  0  0  0  0
  -20.8471  -13.9911   27.5244 C   0  0  0  0  0  0  0  0  0  0  0  0
  -19.2842  -11.9129   28.5347 C   0  0  0  0  0  0  0  0  0  0  0  0
  -28.0920  -20.0794   19.2310 C   0  0  0  0  0  0  0  0  0  0  0  0
  -21.0760  -13.5093   28.8132 C   0  0  0  0  0  0  0  0  0  0  0  0
  -24.5941  -14.0262   22.3918 C   0  0  0  0  0  0  0  0  0  0  0  0
  -25.2495  -13.3853   20.3931 C   0  0  0  0  0  0  0  0  0  0  0  0
  -29.6847  -23.4976   19.0306 C   0  0  0  0  0  0  0  0  0  0  0  0
  -22.8740  -12.8096   20.9166 C   0  0  0  0  0  0  0  0  0  0  0  0
  -22.8337  -28.8880   23.5007 C   0  0  0  0  0  0  0  0  0  0  0  0
  -25.4402  -29.1894   25.4079 C   0  0  0  0  0  0  0  0  0  0  0  0
  -28.7543  -28.5462   25.9078 C   0  0  0  0  0  0  0  0  0  0  0  0
  -30.0300  -16.9470   19.9856 C   0  0  0  0  0  0  0  0  0  0  0  0
  -18.5026  -30.9342   25.2650 C   0  0  0  0  0  0  0  0  0  0  0  0
  -23.6256  -26.4993   23.6519 C   0  0  0  0  0  0  0  0  0  0  0  0
  -25.8489  -28.3574   23.0614 C   0  0  0  0  0  0  0  0  0  0  0  0
  -19.9887  -31.2681   25.3670 C   0  0  0  0  0  0  0  0  0  0  0  0
  -30.0370  -13.4248   20.5064 C   0  0  0  0  0  0  0  0  0  0  0  0
  -20.6384  -31.2388   23.9872 C   0  0  0  0  0  0  0  0  0  0  0  0
  -28.6005  -13.1192   20.9368 C   0  0  0  0  0  0  0  0  0  0  0  0
  -30.5231  -14.7623   21.0620 C   0  0  0  0  0  0  0  0  0  0  0  0
  -28.2115  -15.6014   21.2094 C   0  0  0  0  0  0  0  0  0  0  0  0
  -20.5402  -29.8426   23.3607 C   0  0  1  0  0  0  0  0  0  0  0  0
  -23.6817  -27.9008   24.2518 C   0  0  1  0  0  0  0  0  0  0  0  0
  -27.6552  -14.2947   20.6205 C   0  0  2  0  0  0  0  0  0  0  0  0
  -30.6152  -28.9524   27.5417 C   0  0  0  0  0  0  0  0  0  0  0  0
  -25.6706  -32.0691   24.4260 C   0  0  0  0  0  0  0  0  0  0  0  0
  -28.0111  -32.1111   25.3141 C   0  0  0  0  0  0  0  0  0  0  0  0
  -26.0939  -31.7639   26.8718 C   0  0  0  0  0  0  0  0  0  0  0  0
  -29.1314  -25.6484   26.3762 C   0  0  0  0  0  0  0  0  0  0  0  0
  -28.8052  -25.5368   17.9241 C   0  0  0  0  0  0  0  0  0  0  0  0
  -28.0028  -26.3422   18.9303 C   0  0  0  0  0  0  0  0  0  1  0  0
  -26.7671  -29.9013   25.3003 C   0  0  1  0  0  0  0  0  0  0  0  0
  -29.5052  -28.0060   27.1115 C   0  0  2  0  0  0  0  0  0  0  0  0
  -26.6277  -31.4417   25.4591 C   0  0  0  0  0  0  0  0  0  0  0  0
  -25.8674  -14.4223   22.3142 N   0  0  0  0  0  0  0  0  0  0  0  0
  -26.2383  -14.0181   21.0874 N   0  0  0  0  0  0  0  0  0  0  0  0
  -25.0403  -28.4459   24.2885 N   0  0  0  0  0  0  0  0  0  0  0  0
  -29.5802  -15.8293   20.7199 N   0  0  0  0  0  0  0  0  0  0  0  0
  -25.4525  -12.9153   19.1440 N   0  0  0  0  0  0  0  0  0  0  0  0
  -21.8618  -12.8850   21.8831 N   0  0  0  0  0  0  0  0  0  0  0  0
  -29.0373  -17.8809   19.6910 N   0  0  0  0  0  0  0  0  0  0  0  0
  -28.7585  -24.1270   18.2083 N   0  0  0  0  0  0  0  0  0  0  0  0
  -21.5262  -28.9571   23.9424 N   0  0  0  0  0  0  0  0  0  0  0  0
  -27.6464  -29.2765   26.2826 N   0  0  0  0  0  0  0  0  0  0  0  0
  -30.1128  -26.6833   26.7921 N   0  3  0  0  0  0  0  0  0  0  0  0
  -30.6205  -24.0630   19.5901 O   0  0  0  0  0  0  0  0  0  0  0  0
  -22.6385  -12.2400   19.8241 O   0  0  0  0  0  0  0  0  0  0  0  0
  -23.3293  -29.5398   22.5890 O   0  0  0  0  0  0  0  0  0  0  0  0
  -24.7862  -29.2834   26.4496 O   0  0  0  0  0  0  0  0  0  0  0  0
  -29.1166  -28.3439   24.7510 O   0  0  0  0  0  0  0  0  0  0  0  0
  -31.2035  -17.0537   19.6200 O   0  0  0  0  0  0  0  0  0  0  0  0
  -21.6215  -15.0232   27.0217 O   0  0  0  0  0  0  0  0  0  0  0  0
  -26.6378  -25.9282   18.8883 O   0  0  0  0  0  0  0  0  0  1  0  0
  -18.5327  -10.9160   29.0203 F   0  0  0  0  0  0  0  0  0  0  0  0
  -26.8730  -19.5365   19.0994 F   0  0  0  0  0  0  0  0  0  0  0  0
  -22.0445  -14.0415   29.5712 F   0  0  0  0  0  0  0  0  0  0  0  0
  1  2  1  0  0  0  0
  1  6  2  0  0  0  0
  2  7  2  0  0  0  0
  3 10  2  0  0  0  0
  3 18  1  0  0  0  0
  4 11  1  0  0  0  0
  4 18  2  0  0  0  0
  5  9  2  0  0  0  0
  5 19  1  0  0  0  0
  6 21  1  0  0  0  0
  7 23  1  0  0  0  0
  8 12  2  0  0  0  0
  8 22  1  0  0  0  0
  9 25  1  0  0  0  0
 10 26  1  0  0  0  0
 11 26  2  0  0  0  0
 12 27  1  0  0  0  0
 13 14  2  0  0  0  0
 13 28  1  0  0  0  0
 14 29  1  0  0  0  0
 15 19  2  0  0  0  0
 15 30  1  0  0  0  0
 16 24  1  0  0  0  0
 16 27  2  0  0  0  0
 17 29  2  0  0  0  0
 17 31  1  0  0  0  0
 18 32  1  0  0  0  0
 19 34  1  0  0  0  0
 20 32  1  0  0  0  0
 20 33  2  0  0  0  0
 20 35  1  0  0  0  0
 21 23  2  0  0  0  0
 21 40  1  0  0  0  0
 22 24  2  0  0  0  0
 22 41  1  0  0  0  0
 23 49  1  0  0  0  0
 24 42  1  0  0  0  0
 25 30  2  0  0  0  0
 25 68  1  0  0  0  0
 26 79  1  0  0  0  0
 27 80  1  0  0  0  0
 28 31  2  0  0  0  0
 28 79  1  0  0  0  0
 29 81  1  0  0  0  0
 30 82  1  0  0  0  0
 31 83  1  0  0  0  0
 32 62  2  0  0  0  0
 33 63  1  0  0  0  0
 33 66  1  0  0  0  0
 34 69  1  0  0  0  0
 34 73  2  0  0  0  0
 35 67  1  0  0  0  0
 35 74  2  0  0  0  0
 36 50  1  0  0  0  0
 36 70  1  0  0  0  0
 36 75  2  0  0  0  0
 37 59  1  0  0  0  0
 37 64  1  0  0  0  0
 37 76  2  0  0  0  0
 38 60  1  0  0  0  0
 38 71  1  0  0  0  0
 38 77  2  0  0  0  0
 39 65  1  0  0  0  0
 39 68  1  0  0  0  0
 39 78  2  0  0  0  0
 40 43  1  0  0  0  0
 41 50  1  0  0  0  0
 42 64  1  0  0  0  0
 43 45  1  0  0  0  0
 44 46  1  0  0  0  0
 44 47  1  0  0  0  0
 45 49  1  0  0  0  0
 46 51  1  0  0  0  0
 47 65  1  0  0  0  0
 48 51  1  0  0  0  0
 48 65  1  0  0  0  0
 49 70  1  0  0  0  0
 50 64  1  0  0  0  0
 51 63  1  0  0  0  0
 52 60  1  0  0  0  0
 53 61  1  0  0  0  0
 54 61  1  0  0  0  0
 55 61  1  0  0  0  0
 56 72  1  0  0  0  0
 57 58  1  0  0  0  0
 57 69  1  0  0  0  0
 58 80  1  0  0  0  0
 59 61  1  0  0  0  0
 59 71  1  0  0  0  0
 60 72  1  0  0  0  0
 62 63  1  0  0  0  0
M  CHG  1  72   1
M  ISO  4  39 100  58 101  68 100  80 101
M  END
> <Batch ID>
0013

> <Smiles>
CNC(C)C(=O)NC(C(=O)N1Cc2cc([101O:1][101CH2:1]CNC(=O)c3ccc([100NH:0][100C:0](=O)N4CCCC(n5nc(-c6ccc(Oc7ccc(F)cc7F)cc6)c(C(N)=O)c5N)C4)c(F)c3)ccc2CC1C(=O)NC1CCCc2ccccc21)C(C)(C)C

> <Shape>
0.250

> <Color>
0.066

> <Negative vol penalty>
0.000

$$$$

  -OEChem-04042320483D

 82 90  0     1  0  0  0  0  0999 V2000
  -24.5775  -25.9682   36.9384 C   0  0  0  0  0  0  0  0  0  0  0  0
  -25.5147  -25.5869   35.9837 C   0  0  0  0  0  0  0  0  0  0  0  0
  -23.0742   -9.8686   19.9404 C   0  0  0  0  0  0  0  0  0  0  0  0
  -23.8338   -9.8748   22.2338 C   0  0  0  0  0  0  0  0  0  0  0  0
  -23.8030  -25.0014   37.5783 C   0  0  0  0  0  0  0  0  0  0  0  0
  -25.6788  -24.2384   35.6690 C   0  0  0  0  0  0  0  0  0  0  0  0
  -27.0489  -21.8777   30.1866 C   0  0  0  0  0  0  0  0  0  0  0  0
  -29.8813  -17.4535   23.1395 C   0  0  0  0  0  0  0  0  0  0  0  0
  -32.0652  -16.6033   22.5523 C   0  0  0  0  0  0  0  0  0  0  0  0
  -30.4686  -18.3363   24.0458 C   0  0  0  0  0  0  0  0  0  0  0  0
  -32.6526  -17.4861   23.4585 C   0  0  0  0  0  0  0  0  0  0  0  0
  -22.3295   -8.7159   20.1901 C   0  0  0  0  0  0  0  0  0  0  0  0
  -23.0891   -8.7221   22.4836 C   0  0  0  0  0  0  0  0  0  0  0  0
  -28.2493  -21.4443   29.6254 C   0  0  0  0  0  0  0  0  0  0  0  0
  -19.8603   -7.9263   23.0857 C   0  0  0  0  0  0  0  0  0  0  0  0
  -19.1032   -7.8867   24.2564 C   0  0  0  0  0  0  0  0  0  0  0  0
  -27.7247  -19.1790   30.2674 C   0  0  0  0  0  0  0  0  0  0  0  0
  -20.3433   -5.9484   24.9928 C   0  0  0  0  0  0  0  0  0  0  0  0
  -23.8264  -10.4480   20.9622 C   0  0  0  0  0  0  0  0  0  0  0  0
  -24.1698  -12.9730   20.8425 C   0  0  0  0  0  0  0  0  0  0  0  0
  -23.9509  -23.6411   37.2643 C   0  0  0  0  0  0  0  0  0  0  0  0
  -26.1810  -20.9650   30.8032 C   0  0  0  0  0  0  0  0  0  0  0  0
  -24.9066  -23.2524   36.3062 C   0  0  0  0  0  0  0  0  0  0  0  0
  -26.5127  -19.6029   30.8335 C   0  0  0  0  0  0  0  0  0  0  0  0
  -30.6796  -16.5869   22.3928 C   0  0  0  0  0  0  0  0  0  0  0  0
  -31.8542  -18.3526   24.2053 C   0  0  0  0  0  0  0  0  0  0  0  0
  -22.3369   -8.1426   21.4617 C   0  0  0  0  0  0  0  0  0  0  0  0
  -28.5887  -20.0952   29.6683 C   0  0  0  0  0  0  0  0  0  0  0  0
  -20.8589   -6.9769   22.8684 C   0  0  0  0  0  0  0  0  0  0  0  0
  -19.3447   -6.8978   25.2101 C   0  0  0  0  0  0  0  0  0  0  0  0
  -21.1004   -5.9880   23.8220 C   0  0  0  0  0  0  0  0  0  0  0  0
  -24.5962  -11.6384   20.7047 C   0  0  0  0  0  0  0  0  0  0  0  0
  -25.2625  -13.7218   20.4795 C   0  0  0  0  0  0  0  0  0  0  0  0
  -22.8997  -13.4896   21.2614 C   0  0  0  0  0  0  0  0  0  0  0  0
  -25.0412  -20.5908   33.7467 C   0  0  0  0  0  0  0  0  0  0  0  0
  -23.2609  -18.2707   32.3432 C   0  0  0  0  0  0  0  0  0  0  0  0
  -22.8988  -16.0502   29.7771 C   0  0  0  0  0  0  0  0  0  0  0  0
  -30.7294  -14.7638   20.6550 C   0  0  0  0  0  0  0  0  0  0  0  0
  -23.1244  -22.6284   38.0165 C   0  0  0  0  0  0  0  0  0  0  0  0
  -24.8774  -21.4445   31.3802 C   0  0  0  0  0  0  0  0  0  0  0  0
  -25.6060  -18.5798   31.4657 C   0  0  0  0  0  0  0  0  0  0  0  0
  -23.0967  -21.2528   37.3554 C   0  0  0  0  0  0  0  0  0  0  0  0
  -29.6137  -12.3509   18.2863 C   0  0  0  0  0  0  0  0  0  0  0  0
  -24.5037  -20.8288   36.9462 C   0  0  0  0  0  0  0  0  0  0  0  0
  -28.1738  -12.0603   18.7157 C   0  0  0  0  0  0  0  0  0  0  0  0
  -30.5288  -12.5790   19.4881 C   0  0  0  0  0  0  0  0  0  0  0  0
  -28.6222  -13.3046   20.8692 C   0  0  0  0  0  0  0  0  0  0  0  0
  -25.0964  -21.8016   35.9197 C   0  0  1  0  0  0  0  0  0  0  0  0
  -24.3094  -20.5026   32.4374 C   0  0  1  0  0  0  0  0  0  0  0  0
  -27.6494  -13.1321   19.6912 C   0  0  2  0  0  0  0  0  0  0  0  0
  -21.3598  -14.2622   28.9215 C   0  0  0  0  0  0  0  0  0  0  0  0
  -24.3109  -16.3522   34.4708 C   0  0  0  0  0  0  0  0  0  0  0  0
  -23.5309  -14.4504   33.0413 C   0  0  0  0  0  0  0  0  0  0  0  0
  -21.8810  -16.0919   33.9392 C   0  0  0  0  0  0  0  0  0  0  0  0
  -33.8988  -19.2575   25.2828 C   0  0  0  0  0  0  0  0  0  0  0  0
  -22.3889  -17.5290   27.2647 C   0  0  0  0  0  0  0  0  0  0  0  0
  -31.0777  -19.4702   27.1260 C   0  0  0  0  0  0  0  0  0  0  0  0
  -31.6493  -20.1604   25.8935 C   0  0  0  0  0  0  0  0  0  0  0  0
  -30.2643  -20.4084   28.0099 C   0  0  0  0  0  0  0  0  0  1  0  0
  -23.4431  -16.7954   32.0799 C   0  0  1  0  0  0  0  0  0  0  0  0
  -21.7197  -15.7390   28.8731 C   0  0  2  0  0  0  0  0  0  0  0  0
  -23.3097  -15.9418   33.3725 C   0  0  0  0  0  0  0  0  0  0  0  0
  -25.8611  -11.5418   20.2866 N   0  0  0  0  0  0  0  0  0  0  0  0
  -26.2389  -12.8251   20.1585 N   0  0  0  0  0  0  0  0  0  0  0  0
  -24.3456  -19.0989   32.0218 N   0  0  0  0  0  0  0  0  0  0  0  0
  -29.9704  -13.6101   20.3655 N   0  0  0  0  0  0  0  0  0  0  0  0
  -25.4738  -15.0531   20.4067 N   0  0  0  0  0  0  0  0  0  0  0  0
  -21.8871  -12.5810   21.5984 N   0  0  0  0  0  0  0  0  0  0  0  0
  -30.0825  -15.6891   21.4734 N   0  0  0  0  0  0  0  0  0  0  0  0
  -24.5421  -21.5505   34.6066 N   0  0  0  0  0  0  0  0  0  0  0  0
  -22.4892  -16.4469   31.0325 N   0  0  0  0  0  0  0  0  0  0  0  0
  -32.4443  -19.2409   25.1159 N   0  0  3  0  0  0  0  0  0  0  0  0
  -22.0393  -16.0988   27.4626 N   0  3  0  0  0  0  0  0  0  0  0  0
  -22.6642  -14.7203   21.3188 O   0  0  0  0  0  0  0  0  0  0  0  0
  -25.9876  -19.8425   33.9616 O   0  0  0  0  0  0  0  0  0  0  0  0
  -22.1927  -18.6743   32.8100 O   0  0  0  0  0  0  0  0  0  0  0  0
  -24.0666  -15.9477   29.4078 O   0  0  0  0  0  0  0  0  0  0  0  0
  -31.8586  -14.9318   20.1875 O   0  0  0  0  0  0  0  0  0  0  0  0
  -21.6102   -7.0180   21.7058 O   0  0  0  0  0  0  0  0  0  0  0  0
  -29.7601  -19.6697   29.1219 O   0  0  0  0  0  0  0  0  0  1  0  0
  -18.6186   -6.8609   26.3350 F   0  0  0  0  0  0  0  0  0  0  0  0
  -22.0591   -5.0739   23.6194 F   0  0  0  0  0  0  0  0  0  0  0  0
  1  2  1  0  0  0  0
  1  5  2  0  0  0  0
  2  6  2  0  0  0  0
  3 12  2  0  0  0  0
  3 19  1  0  0  0  0
  4 13  1  0  0  0  0
  4 19  2  0  0  0  0
  5 21  1  0  0  0  0
  6 23  1  0  0  0  0
  7 14  2  0  0  0  0
  7 22  1  0  0  0  0
  8 10  2  0  0  0  0
  8 25  1  0  0  0  0
  9 11  1  0  0  0  0
  9 25  2  0  0  0  0
 10 26  1  0  0  0  0
 11 26  2  0  0  0  0
 12 27  1  0  0  0  0
 13 27  2  0  0  0  0
 14 28  1  0  0  0  0
 15 16  2  0  0  0  0
 15 29  1  0  0  0  0
 16 30  1  0  0  0  0
 17 24  1  0  0  0  0
 17 28  2  0  0  0  0
 18 30  2  0  0  0  0
 18 31  1  0  0  0  0
 19 32  1  0  0  0  0
 20 32  1  0  0  0  0
 20 33  2  0  0  0  0
 20 34  1  0  0  0  0
 21 23  2  0  0  0  0
 21 39  1  0  0  0  0
 22 24  2  0  0  0  0
 22 40  1  0  0  0  0
 23 48  1  0  0  0  0
 24 41  1  0  0  0  0
 25 69  1  0  0  0  0
 26 72  1  0  0  0  0
 27 79  1  0  0  0  0
 28 80  1  0  0  0  0
 29 31  2  0  0  0  0
 29 79  1  0  0  0  0
 30 81  1  0  0  0  0
 31 82  1  0  0  0  0
 32 63  2  0  0  0  0
 33 64  1  0  0  0  0
 33 67  1  0  0  0  0
 34 68  1  0  0  0  0
 34 74  2  0  0  0  0
 35 49  1  0  0  0  0
 35 70  1  0  0  0  0
 35 75  2  0  0  0  0
 36 60  1  0  0  0  0
 36 65  1  0  0  0  0
 36 76  2  0  0  0  0
 37 61  1  0  0  0  0
 37 71  1  0  0  0  0
 37 77  2  0  0  0  0
 38 66  1  0  0  0  0
 38 69  1  0  0  0  0
 38 78  2  0  0  0  0
 39 42  1  0  0  0  0
 40 49  1  0  0  0  0
 41 65  1  0  0  0  0
 42 44  1  0  0  0  0
 43 45  1  0  0  0  0
 43 46  1  0  0  0  0
 44 48  1  0  0  0  0
 45 50  1  0  0  0  0
 46 66  1  0  0  0  0
 47 50  1  0  0  0  0
 47 66  1  0  0  0  0
 48 70  1  0  0  0  0
 49 65  1  0  0  0  0
 50 64  1  0  0  0  0
 51 61  1  0  0  0  0
 52 62  1  0  0  0  0
 53 62  1  0  0  0  0
 54 62  1  0  0  0  0
 55 72  1  0  0  0  0
 56 73  1  0  0  0  0
 57 58  1  0  0  0  0
 57 59  1  0  0  0  0
 58 72  1  0  0  0  0
 59 80  1  0  0  0  0
 60 62  1  0  0  0  0
 60 71  1  0  0  0  0
 61 73  1  0  0  0  0
 63 64  1  0  0  0  0
M  CHG  1  73   1
M  ISO  4  38 100  59 101  69 100  80 101
M  END
> <Batch ID>
0013

> <Smiles>
CNC(C)C(=O)NC(C(=O)N1Cc2cc([101O:1][101CH2:1]CCN(C)c3ccc([100NH:0][100C:0](=O)N4CCCC(n5nc(-c6ccc(Oc7ccc(F)cc7F)cc6)c(C(N)=O)c5N)C4)cc3)ccc2CC1C(=O)NC1CCCc2ccccc21)C(C)(C)C

> <Shape>
0.167

> <Color>
0.200

> <Negative vol penalty>
0.000

$$$$

  -OEChem-04042320482D

  0  0  0     0  0  0  0  0  0999 V2000
M  END
$$$$

  -OEChem-04042320483D

 86 95  0     1  0  0  0  0  0999 V2000
  -14.1101  -23.1085   27.3645 C   0  0  0  0  0  0  0  0  0  0  0  0
  -15.4421  -22.9701   27.7414 C   0  0  0  0  0  0  0  0  0  0  0  0
  -32.1547  -17.9611   23.5539 C   0  0  0  0  0  0  0  0  0  0  0  0
  -31.2695  -18.8124   24.2152 C   0  0  0  0  0  0  0  0  0  0  0  0
  -29.2965  -20.0783   25.9389 C   0  0  0  0  0  0  0  0  0  0  0  0
  -27.7774  -19.9538   24.0643 C   0  0  0  0  0  0  0  0  0  0  0  0
  -23.2303   -9.6367   19.9189 C   0  0  0  0  0  0  0  0  0  0  0  0
  -23.8594   -9.7946   22.2462 C   0  0  0  0  0  0  0  0  0  0  0  0
  -13.7924  -23.5845   26.0931 C   0  0  0  0  0  0  0  0  0  0  0  0
  -16.4572  -23.3066   26.8466 C   0  0  0  0  0  0  0  0  0  0  0  0
  -21.8975  -25.7679   28.2071 C   0  0  0  0  0  0  0  0  0  0  0  0
  -31.6682  -17.0044   22.6629 C   0  0  0  0  0  0  0  0  0  0  0  0
  -28.4113  -20.9299   26.5997 C   0  0  0  0  0  0  0  0  0  0  0  0
  -26.8921  -20.8054   24.7252 C   0  0  0  0  0  0  0  0  0  0  0  0
  -22.5390   -8.4550   20.1859 C   0  0  0  0  0  0  0  0  0  0  0  0
  -23.1681   -8.6129   22.5132 C   0  0  0  0  0  0  0  0  0  0  0  0
  -23.1657  -25.2109   28.3658 C   0  0  0  0  0  0  0  0  0  0  0  0
  -19.5634   -7.5560   21.5163 C   0  0  0  0  0  0  0  0  0  0  0  0
  -18.2902   -7.4111   20.9652 C   0  0  0  0  0  0  0  0  0  0  0  0
  -29.4111  -17.7503   23.0947 C   0  0  0  0  0  0  0  0  0  0  0  0
  -23.6900  -25.7675   26.0779 C   0  0  0  0  0  0  0  0  0  0  0  0
  -19.0303   -5.4447   19.7725 C   0  0  0  0  0  0  0  0  0  0  0  0
  -28.9796  -19.5902   24.6711 C   0  0  0  0  0  0  0  0  0  0  0  0
  -23.8905  -10.3065   20.9491 C   0  0  0  0  0  0  0  0  0  0  0  0
  -29.8977  -18.7070   23.9856 C   0  0  0  0  0  0  0  0  0  0  0  0
  -24.0972  -12.8390   20.7223 C   0  0  0  0  0  0  0  0  0  0  0  0
  -14.8041  -23.9361   25.1857 C   0  0  0  0  0  0  0  0  0  0  0  0
  -21.5115  -26.3200   26.9772 C   0  0  0  0  0  0  0  0  0  0  0  0
  -16.1528  -23.7864   25.5613 C   0  0  0  0  0  0  0  0  0  0  0  0
  -22.4172  -26.3331   25.9069 C   0  0  0  0  0  0  0  0  0  0  0  0
  -27.2091  -21.2934   25.9929 C   0  0  0  0  0  0  0  0  0  0  0  0
  -30.2964  -16.8990   22.4333 C   0  0  0  0  0  0  0  0  0  0  0  0
  -22.5079   -7.9431   21.4830 C   0  0  0  0  0  0  0  0  0  0  0  0
  -24.0611  -25.2080   27.3003 C   0  0  0  0  0  0  0  0  0  0  0  0
  -20.5700   -6.6453   21.1954 C   0  0  0  0  0  0  0  0  0  0  0  0
  -18.0236   -6.3554   20.0934 C   0  0  0  0  0  0  0  0  0  0  0  0
  -20.3035   -5.5896   20.3236 C   0  0  0  0  0  0  0  0  0  0  0  0
  -24.6052  -11.5270   20.6738 C   0  0  0  0  0  0  0  0  0  0  0  0
  -25.1645  -13.6332   20.3808 C   0  0  0  0  0  0  0  0  0  0  0  0
  -22.7786  -13.2987   21.0471 C   0  0  0  0  0  0  0  0  0  0  0  0
  -19.2437  -25.6797   24.8439 C   0  0  0  0  0  0  0  0  0  0  0  0
  -20.3393  -28.3927   23.4434 C   0  0  0  0  0  0  0  0  0  0  0  0
  -22.9118  -30.5923   23.0064 C   0  0  0  0  0  0  0  0  0  0  0  0
  -30.5456  -15.0030   20.7934 C   0  0  0  0  0  0  0  0  0  0  0  0
  -14.4120  -24.4013   23.8057 C   0  0  0  0  0  0  0  0  0  0  0  0
  -20.1495  -26.9409   26.8301 C   0  0  0  0  0  0  0  0  0  0  0  0
  -22.0588  -26.9316   24.5720 C   0  0  0  0  0  0  0  0  0  0  0  0
  -15.5456  -25.0901   23.0501 C   0  0  0  0  0  0  0  0  0  0  0  0
  -29.7014  -12.4209   18.4919 C   0  0  0  0  0  0  0  0  0  0  0  0
  -16.8334  -24.2808   23.1659 C   0  0  0  0  0  0  0  0  0  0  0  0
  -28.2585  -12.0661   18.8584 C   0  0  0  0  0  0  0  0  0  0  0  0
  -30.5338  -12.7583   19.7276 C   0  0  0  0  0  0  0  0  0  0  0  0
  -28.5153  -13.4336   20.9681 C   0  0  0  0  0  0  0  0  0  0  0  0
  -17.2821  -24.1643   24.6276 C   0  0  1  0  0  0  0  0  0  0  0  0
  -19.6794  -27.0138   25.3806 C   0  0  1  0  0  0  0  0  0  0  0  0
  -27.6210  -13.1493   19.7503 C   0  0  2  0  0  0  0  0  0  0  0  0
  -23.5208  -32.6915   21.7735 C   0  0  0  0  0  0  0  0  0  0  0  0
  -20.6631  -26.7848   20.8706 C   0  0  0  0  0  0  0  0  0  0  0  0
  -22.1228  -28.6186   19.9905 C   0  0  0  0  0  0  0  0  0  0  0  0
  -19.7380  -29.0864   20.5528 C   0  0  0  0  0  0  0  0  0  0  0  0
  -23.3720  -32.0764   25.5253 C   0  0  0  0  0  0  0  0  0  0  0  0
  -26.5777  -22.6903   27.9616 C   0  0  0  0  0  0  0  0  0  0  0  0
  -25.4270  -23.5893   28.3820 C   0  0  0  0  0  0  0  0  0  1  0  0
  -21.4015  -28.7136   22.4199 C   0  0  1  0  0  0  0  0  0  0  0  0
  -22.9610  -32.1086   23.0618 C   0  0  2  0  0  0  0  0  0  0  0  0
  -20.9877  -28.2878   20.9829 C   0  0  0  0  0  0  0  0  0  0  0  0
  -25.8948  -11.4858   20.3285 N   0  0  0  0  0  0  0  0  0  0  0  0
  -26.2062  -12.7818   20.1569 N   0  0  0  0  0  0  0  0  0  0  0  0
  -20.7131  -27.5210   24.4760 N   0  0  0  0  0  0  0  0  0  0  0  0
  -29.8702  -13.7944   20.5219 N   0  0  0  0  0  0  0  0  0  0  0  0
  -25.3041  -14.9699   20.2532 N   0  0  0  0  0  0  0  0  0  0  0  0
  -21.8016  -12.3487   21.3749 N   0  0  0  0  0  0  0  0  0  0  0  0
  -29.8030  -15.9257   21.5294 N   0  0  0  0  0  0  0  0  0  0  0  0
  -26.3301  -22.1391   26.6490 N   0  0  0  0  0  0  0  0  0  0  0  0
  -17.9097  -25.3935   25.0632 N   0  0  0  0  0  0  0  0  0  0  0  0
  -21.6885  -30.1370   22.5619 N   0  0  0  0  0  0  0  0  0  0  0  0
  -23.8204  -32.5579   24.1933 N   0  3  0  0  0  0  0  0  0  0  0  0
  -22.4713  -14.5148   21.0308 O   0  0  0  0  0  0  0  0  0  0  0  0
  -20.0572  -24.9636   24.2720 O   0  0  0  0  0  0  0  0  0  0  0  0
  -19.2213  -28.9025   23.3349 O   0  0  0  0  0  0  0  0  0  0  0  0
  -23.8645  -29.8829   23.3221 O   0  0  0  0  0  0  0  0  0  0  0  0
  -31.6879  -15.2154   20.3786 O   0  0  0  0  0  0  0  0  0  0  0  0
  -21.8333   -6.7901   21.7439 O   0  0  0  0  0  0  0  0  0  0  0  0
  -25.2994  -24.6644   27.4524 O   0  0  0  0  0  0  0  0  0  1  0  0
  -16.8006   -6.2155   19.5655 F   0  0  0  0  0  0  0  0  0  0  0  0
  -21.2662   -4.7109   20.0125 F   0  0  0  0  0  0  0  0  0  0  0  0
  1  2  1  0  0  0  0
  1  9  2  0  0  0  0
  2 10  2  0  0  0  0
  3  4  2  0  0  0  0
  3 12  1  0  0  0  0
  4 25  1  0  0  0  0
  5 13  2  0  0  0  0
  5 23  1  0  0  0  0
  6 14  1  0  0  0  0
  6 23  2  0  0  0  0
  7 15  2  0  0  0  0
  7 24  1  0  0  0  0
  8 16  1  0  0  0  0
  8 24  2  0  0  0  0
  9 27  1  0  0  0  0
 10 29  1  0  0  0  0
 11 17  2  0  0  0  0
 11 28  1  0  0  0  0
 12 32  2  0  0  0  0
 13 31  1  0  0  0  0
 14 31  2  0  0  0  0
 15 33  1  0  0  0  0
 16 33  2  0  0  0  0
 17 34  1  0  0  0  0
 18 19  2  0  0  0  0
 18 35  1  0  0  0  0
 19 36  1  0  0  0  0
 20 25  2  0  0  0  0
 20 32  1  0  0  0  0
 21 30  1  0  0  0  0
 21 34  2  0  0  0  0
 22 36  2  0  0  0  0
 22 37  1  0  0  0  0
 23 25  1  0  0  0  0
 24 38  1  0  0  0  0
 26 38  1  0  0  0  0
 26 39  2  0  0  0  0
 26 40  1  0  0  0  0
 27 29  2  0  0  0  0
 27 45  1  0  0  0  0
 28 30  2  0  0  0  0
 28 46  1  0  0  0  0
 29 54  1  0  0  0  0
 30 47  1  0  0  0  0
 31 74  1  0  0  0  0
 32 73  1  0  0  0  0
 33 83  1  0  0  0  0
 34 84  1  0  0  0  0
 35 37  2  0  0  0  0
 35 83  1  0  0  0  0
 36 85  1  0  0  0  0
 37 86  1  0  0  0  0
 38 67  2  0  0  0  0
 39 68  1  0  0  0  0
 39 71  1  0  0  0  0
 40 72  1  0  0  0  0
 40 78  2  0  0  0  0
 41 55  1  0  0  0  0
 41 75  1  0  0  0  0
 41 79  2  0  0  0  0
 42 64  1  0  0  0  0
 42 69  1  0  0  0  0
 42 80  2  0  0  0  0
 43 65  1  0  0  0  0
 43 76  1  0  0  0  0
 43 81  2  0  0  0  0
 44 70  1  0  0  0  0
 44 73  1  0  0  0  0
 44 82  2  0  0  0  0
 45 48  1  0  0  0  0
 46 55  1  0  0  0  0
 47 69  1  0  0  0  0
 48 50  1  0  0  0  0
 49 51  1  0  0  0  0
 49 52  1  0  0  0  0
 50 54  1  0  0  0  0
 51 56  1  0  0  0  0
 52 70  1  0  0  0  0
 53 56  1  0  0  0  0
 53 70  1  0  0  0  0
 54 75  1  0  0  0  0
 55 69  1  0  0  0  0
 56 68  1  0  0  0  0
 57 65  1  0  0  0  0
 58 66  1  0  0  0  0
 59 66  1  0  0  0  0
 60 66  1  0  0  0  0
 61 77  1  0  0  0  0
 62 63  1  0  0  0  0
 62 74  1  0  0  0  0
 63 84  1  0  0  0  0
 64 66  1  0  0  0  0
 64 76  1  0  0  0  0
 65 77  1  0  0  0  0
 67 68  1  0  0  0  0
M  CHG  1  77   1
M  ISO  4  44 100  63 101  73 100  84 101
M  END
> <Batch ID>
0013

> <Smiles>
CNC(C)C(=O)NC(C(=O)N1Cc2cc([101O:1][101CH2:1]CNc3ccc(-c4cccc([100NH:0][100C:0](=O)N5CCCC(n6nc(-c7ccc(Oc8ccc(F)cc8F)cc7)c(C(N)=O)c6N)C5)c4)cc3)ccc2CC1C(=O)NC1CCCc2ccccc21)C(C)(C)C

> <Shape>
0.217

> <Color>
0.199

> <Negative vol penalty>
0.000

$$$$

  -OEChem-04042320483D

 82 91  0     1  0  0  0  0  0999 V2000
  -20.0322   -8.0630   18.5444 C   0  0  0  0  0  0  0  0  0  0  0  0
  -20.6134   -9.1481   17.8961 C   0  0  0  0  0  0  0  0  0  0  0  0
  -24.6500  -30.9587   20.7871 C   0  0  0  0  0  0  0  0  0  0  0  0
  -25.1720  -29.4944   22.6365 C   0  0  0  0  0  0  0  0  0  0  0  0
  -28.8985  -22.2411   19.8389 C   0  0  0  0  0  0  0  0  0  0  0  0
  -19.6846   -8.1615   19.8910 C   0  0  0  0  0  0  0  0  0  0  0  0
  -20.8464  -10.3327   18.5939 C   0  0  0  0  0  0  0  0  0  0  0  0
  -25.5331  -14.1987   17.8232 C   0  0  0  0  0  0  0  0  0  0  0  0
  -27.8531  -21.4206   19.4152 C   0  0  0  0  0  0  0  0  0  0  0  0
  -24.0325  -31.8486   21.6659 C   0  0  0  0  0  0  0  0  0  0  0  0
  -24.5545  -30.3843   23.5154 C   0  0  0  0  0  0  0  0  0  0  0  0
  -25.6549  -15.3970   17.1211 C   0  0  0  0  0  0  0  0  0  0  0  0
  -24.9777  -34.2313   23.8710 C   0  0  0  0  0  0  0  0  0  0  0  0
  -25.2636  -35.5888   23.7262 C   0  0  0  0  0  0  0  0  0  0  0  0
  -25.2132  -16.6239   19.1506 C   0  0  0  0  0  0  0  0  0  0  0  0
  -28.0080  -22.3680   17.1983 C   0  0  0  0  0  0  0  0  0  0  0  0
  -22.9239  -36.0390   23.3260 C   0  0  0  0  0  0  0  0  0  0  0  0
  -25.2197  -29.7816   21.2724 C   0  0  0  0  0  0  0  0  0  0  0  0
  -29.4988  -23.1250   18.9423 C   0  0  0  0  0  0  0  0  0  0  0  0
  -25.2664  -28.1973   19.2735 C   0  0  0  0  0  0  0  0  0  0  0  0
  -19.9222   -9.3446   20.6081 C   0  0  0  0  0  0  0  0  0  0  0  0
  -25.2393  -14.2038   19.1943 C   0  0  0  0  0  0  0  0  0  0  0  0
  -20.5004  -10.4475   19.9510 C   0  0  0  0  0  0  0  0  0  0  0  0
  -25.0908  -15.4244   19.8683 C   0  0  0  0  0  0  0  0  0  0  0  0
  -27.4079  -21.4841   18.0948 C   0  0  0  0  0  0  0  0  0  0  0  0
  -23.9847  -31.5614   23.0301 C   0  0  0  0  0  0  0  0  0  0  0  0
  -25.4921  -16.6098   17.7841 C   0  0  0  0  0  0  0  0  0  0  0  0
  -23.6648  -33.7776   23.7432 C   0  0  0  0  0  0  0  0  0  0  0  0
  -24.2368  -36.4927   23.4538 C   0  0  0  0  0  0  0  0  0  0  0  0
  -29.0535  -23.1885   17.6220 C   0  0  0  0  0  0  0  0  0  0  0  0
  -22.6380  -34.6814   23.4708 C   0  0  0  0  0  0  0  0  0  0  0  0
  -25.8573  -28.8617   20.3650 C   0  0  0  0  0  0  0  0  0  0  0  0
  -26.2834  -27.4456   18.7377 C   0  0  0  0  0  0  0  0  0  0  0  0
  -30.5986  -23.9873   19.3935 C   0  0  0  0  0  0  0  0  0  0  0  0
  -23.9188  -28.2545   18.7875 C   0  0  0  0  0  0  0  0  0  0  0  0
  -22.8489  -13.1079   20.9802 C   0  0  0  0  0  0  0  0  0  0  0  0
  -24.7558  -14.0598   23.4256 C   0  0  0  0  0  0  0  0  0  0  0  0
  -27.2805  -16.0824   24.5126 C   0  0  0  0  0  0  0  0  0  0  0  0
  -19.4860   -9.4196   22.0499 C   0  0  0  0  0  0  0  0  0  0  0  0
  -25.1376  -12.9031   19.9428 C   0  0  0  0  0  0  0  0  0  0  0  0
  -24.7945  -15.4846   21.3438 C   0  0  0  0  0  0  0  0  0  0  0  0
  -20.1096  -10.5840   22.8152 C   0  0  0  0  0  0  0  0  0  0  0  0
  -31.2581  -27.4862   19.6477 C   0  0  0  0  0  0  0  0  0  0  0  0
  -20.0187  -11.8692   21.9986 C   0  0  0  0  0  0  0  0  0  0  0  0
  -29.8653  -28.1031   19.7873 C   0  0  0  0  0  0  0  0  0  0  0  0
  -24.5548  -19.8473   16.4274 C   0  0  0  0  0  0  0  0  0  0  0  0
  -31.3503  -26.1367   20.3553 C   0  0  0  0  0  0  0  0  0  0  0  0
  -25.8406  -20.6665   16.3171 C   0  0  0  0  0  0  0  0  0  0  0  0
  -28.9206  -25.7756   20.0890 C   0  0  0  0  0  0  0  0  0  0  0  0
  -25.6879  -19.7100   18.5380 C   0  0  0  0  0  0  0  0  0  0  0  0
  -20.7916  -11.7411   20.6804 C   0  0  1  0  0  0  0  0  0  0  0  0
  -24.3277  -13.0165   21.2307 C   0  0  1  0  0  0  0  0  0  0  0  0
  -28.7702  -27.1136   19.3465 C   0  0  1  0  0  0  0  0  0  0  0  0
  -24.8424  -18.8839   17.5697 C   0  0  2  0  0  0  0  0  0  1  0  0
  -28.5934  -16.6608   26.5716 C   0  0  0  0  0  0  0  0  0  0  0  0
  -22.3874  -15.6681   24.4810 C   0  0  0  0  0  0  0  0  0  0  0  0
  -23.9844  -16.9339   25.9355 C   0  0  0  0  0  0  0  0  0  0  0  0
  -23.7043  -14.4739   26.2400 C   0  0  0  0  0  0  0  0  0  0  0  0
  -29.8268  -15.2269   23.2703 C   0  0  0  0  0  0  0  0  0  0  0  0
  -24.9335  -15.3391   24.2072 C   0  0  1  0  0  0  0  0  0  0  0  0
  -28.5268  -15.7882   25.3279 C   0  0  2  0  0  0  0  0  0  0  0  0
  -23.7561  -15.6029   25.1877 C   0  0  0  0  0  0  0  0  0  0  0  0
  -27.1494  -28.5586   20.5150 N   0  0  0  0  0  0  0  0  0  0  0  0
  -27.3789  -27.6955   19.5108 N   0  0  0  0  0  0  0  0  0  0  0  0
  -26.3749  -20.6722   17.6757 N   0  0  3  0  0  0  0  0  0  0  0  0
  -30.2797  -25.2452   19.9108 N   0  0  0  0  0  0  0  0  0  0  0  0
  -24.6983  -14.1858   22.0303 N   0  0  0  0  0  0  0  0  0  0  0  0
  -26.3386  -26.6019   17.6853 N   0  0  0  0  0  0  0  0  0  0  0  0
  -22.9851  -27.3423   19.2980 N   0  0  0  0  0  0  0  0  0  0  0  0
  -22.2131  -11.8830   20.9121 N   0  0  0  0  0  0  0  0  0  0  0  0
  -26.2387  -15.2454   24.8522 N   0  0  0  0  0  0  0  0  0  0  0  0
  -29.7495  -16.0371   24.5131 N   0  3  0  0  0  0  0  0  0  0  0  0
  -31.7339  -23.5311   19.2670 O   0  0  0  0  0  0  0  0  0  0  0  0
  -23.5572  -29.0790   17.9140 O   0  0  0  0  0  0  0  0  0  0  0  0
  -22.3235  -14.2084   20.8591 O   0  0  0  0  0  0  0  0  0  0  0  0
  -24.6783  -12.9875   24.0303 O   0  0  0  0  0  0  0  0  0  0  0  0
  -27.2346  -16.9688   23.6625 O   0  0  0  0  0  0  0  0  0  0  0  0
  -23.3824  -32.4296   23.8880 O   0  0  0  0  0  0  0  0  0  0  0  0
  -25.6097  -17.7809   17.1011 O   0  0  0  0  0  0  0  0  0  1  0  0
  -24.5113  -37.7965   23.3163 F   0  0  0  0  0  0  0  0  0  0  0  0
  -29.6242  -24.0335   16.7517 F   0  0  0  0  0  0  0  0  0  0  0  0
  -21.3746  -34.2517   23.3481 F   0  0  0  0  0  0  0  0  0  0  0  0
  1  2  1  0  0  0  0
  1  6  2  0  0  0  0
  2  7  2  0  0  0  0
  3 10  2  0  0  0  0
  3 18  1  0  0  0  0
  4 11  1  0  0  0  0
  4 18  2  0  0  0  0
  5  9  2  0  0  0  0
  5 19  1  0  0  0  0
  6 21  1  0  0  0  0
  7 23  1  0  0  0  0
  8 12  2  0  0  0  0
  8 22  1  0  0  0  0
  9 25  1  0  0  0  0
 10 26  1  0  0  0  0
 11 26  2  0  0  0  0
 12 27  1  0  0  0  0
 13 14  2  0  0  0  0
 13 28  1  0  0  0  0
 14 29  1  0  0  0  0
 15 24  1  0  0  0  0
 15 27  2  0  0  0  0
 16 25  2  0  0  0  0
 16 30  1  0  0  0  0
 17 29  2  0  0  0  0
 17 31  1  0  0  0  0
 18 32  1  0  0  0  0
 19 30  2  0  0  0  0
 19 34  1  0  0  0  0
 20 32  1  0  0  0  0
 20 33  2  0  0  0  0
 20 35  1  0  0  0  0
 21 23  2  0  0  0  0
 21 39  1  0  0  0  0
 22 24  2  0  0  0  0
 22 40  1  0  0  0  0
 23 51  1  0  0  0  0
 24 41  1  0  0  0  0
 25 65  1  0  0  0  0
 26 78  1  0  0  0  0
 27 79  1  0  0  0  0
 28 31  2  0  0  0  0
 28 78  1  0  0  0  0
 29 80  1  0  0  0  0
 30 81  1  0  0  0  0
 31 82  1  0  0  0  0
 32 63  2  0  0  0  0
 33 64  1  0  0  0  0
 33 68  1  0  0  0  0
 34 66  1  0  0  0  0
 34 73  2  0  0  0  0
 35 69  1  0  0  0  0
 35 74  2  0  0  0  0
 36 52  1  0  0  0  0
 36 70  1  0  0  0  0
 36 75  2  0  0  0  0
 37 60  1  0  0  0  0
 37 67  1  0  0  0  0
 37 76  2  0  0  0  0
 38 61  1  0  0  0  0
 38 71  1  0  0  0  0
 38 77  2  0  0  0  0
 39 42  1  0  0  0  0
 40 52  1  0  0  0  0
 41 67  1  0  0  0  0
 42 44  1  0  0  0  0
 43 45  1  0  0  0  0
 43 47  1  0  0  0  0
 44 51  1  0  0  0  0
 45 53  1  0  0  0  0
 46 48  1  0  0  0  0
 46 54  1  0  0  0  0
 47 66  1  0  0  0  0
 48 65  1  0  0  0  0
 49 53  1  0  0  0  0
 49 66  1  0  0  0  0
 50 54  1  0  0  0  0
 50 65  1  0  0  0  0
 51 70  1  0  0  0  0
 52 67  1  0  0  0  0
 53 64  1  0  0  0  0
 54 79  1  0  0  0  0
 55 61  1  0  0  0  0
 56 62  1  0  0  0  0
 57 62  1  0  0  0  0
 58 62  1  0  0  0  0
 59 72  1  0  0  0  0
 60 62  1  0  0  0  0
 60 71  1  0  0  0  0
 61 72  1  0  0  0  0
 63 64  1  0  0  0  0
M  CHG  1  72   1
M  ISO  4  19 100  34 100  54 101  79 101
M  END
> <Batch ID>
0013

> <Smiles>
CNC(C)C(=O)NC(C(=O)N1Cc2cc([101O:1][101CH:1]3CCN(c4cc[100c:0]([100C:0](=O)N5CCCC(n6nc(-c7ccc(Oc8ccc(F)cc8F)cc7)c(C(N)=O)c6N)C5)c(F)c4)C3)ccc2CC1C(=O)NC1CCCc2ccccc21)C(C)(C)C

> <Shape>
0.213

> <Color>
0.056

> <Negative vol penalty>
0.000

$$$$

  -OEChem-04042320483D

 84 93  0     1  0  0  0  0  0999 V2000
  -25.6734  -35.2287   21.7943 C   0  0  0  0  0  0  0  0  0  0  0  0
  -26.2752  -33.9748   21.7651 C   0  0  0  0  0  0  0  0  0  0  0  0
  -22.1945  -10.6680   22.6584 C   0  0  0  0  0  0  0  0  0  0  0  0
  -23.5053  -10.5360   20.6332 C   0  0  0  0  0  0  0  0  0  0  0  0
  -24.3986  -35.3764   22.3393 C   0  0  0  0  0  0  0  0  0  0  0  0
  -25.6029  -32.8678   22.2819 C   0  0  0  0  0  0  0  0  0  0  0  0
  -25.9168  -28.8180   19.2579 C   0  0  0  0  0  0  0  0  0  0  0  0
  -28.5841  -19.9987   18.7377 C   0  0  0  0  0  0  0  0  0  0  0  0
  -26.9715  -21.2671   17.4617 C   0  0  0  0  0  0  0  0  0  0  0  0
  -27.5462  -19.3046   19.3595 C   0  0  0  0  0  0  0  0  0  0  0  0
  -25.9336  -20.5729   18.0835 C   0  0  0  0  0  0  0  0  0  0  0  0
  -21.7869   -9.3459   22.4808 C   0  0  0  0  0  0  0  0  0  0  0  0
  -23.0978   -9.2139   20.4556 C   0  0  0  0  0  0  0  0  0  0  0  0
  -27.1093  -28.0960   19.2822 C   0  0  0  0  0  0  0  0  0  0  0  0
  -23.0682   -6.2564   22.9770 C   0  0  0  0  0  0  0  0  0  0  0  0
  -23.0948   -5.4150   24.0891 C   0  0  0  0  0  0  0  0  0  0  0  0
  -26.0869  -26.4680   20.7395 C   0  0  0  0  0  0  0  0  0  0  0  0
  -20.7172   -5.0476   23.8681 C   0  0  0  0  0  0  0  0  0  0  0  0
  -23.0536  -11.2631   21.7345 C   0  0  0  0  0  0  0  0  0  0  0  0
  -24.6065  -13.0830   22.6200 C   0  0  0  0  0  0  0  0  0  0  0  0
  -23.7064  -34.2690   22.8543 C   0  0  0  0  0  0  0  0  0  0  0  0
  -24.8019  -28.3753   19.9842 C   0  0  0  0  0  0  0  0  0  0  0  0
  -24.3182  -33.0010   22.8356 C   0  0  0  0  0  0  0  0  0  0  0  0
  -24.8807  -27.1847   20.7206 C   0  0  0  0  0  0  0  0  0  0  0  0
  -28.2967  -20.9800   17.7888 C   0  0  0  0  0  0  0  0  0  0  0  0
  -26.2210  -19.5917   19.0324 C   0  0  0  0  0  0  0  0  0  0  0  0
  -22.2386   -8.6188   21.3795 C   0  0  0  0  0  0  0  0  0  0  0  0
  -27.1954  -26.9224   20.0254 C   0  0  0  0  0  0  0  0  0  0  0  0
  -21.8660   -6.4936   22.3105 C   0  0  0  0  0  0  0  0  0  0  0  0
  -21.9193   -4.8105   24.5347 C   0  0  0  0  0  0  0  0  0  0  0  0
  -20.6905   -5.8891   22.7560 C   0  0  0  0  0  0  0  0  0  0  0  0
  -23.4744  -12.6290   21.9171 C   0  0  0  0  0  0  0  0  0  0  0  0
  -24.5598  -14.4504   22.4997 C   0  0  0  0  0  0  0  0  0  0  0  0
  -25.6106  -12.3355   23.3191 C   0  0  0  0  0  0  0  0  0  0  0  0
  -23.0699  -29.5540   22.3747 C   0  0  0  0  0  0  0  0  0  0  0  0
  -21.2186  -26.9532   21.7995 C   0  0  0  0  0  0  0  0  0  0  0  0
  -20.9782  -23.7880   20.5463 C   0  0  0  0  0  0  0  0  0  0  0  0
  -23.7973  -19.0489   19.4540 C   0  0  0  0  0  0  0  0  0  0  0  0
  -22.3497  -34.4861   23.4763 C   0  0  0  0  0  0  0  0  0  0  0  0
  -23.5146  -29.1513   19.9260 C   0  0  0  0  0  0  0  0  0  0  0  0
  -23.7062  -26.6559   21.5013 C   0  0  0  0  0  0  0  0  0  0  0  0
  -21.5521  -33.1979   23.6630 C   0  0  0  0  0  0  0  0  0  0  0  0
  -20.8886  -17.4825   20.7818 C   0  0  0  0  0  0  0  0  0  0  0  0
  -22.4284  -32.1120   24.2792 C   0  0  0  0  0  0  0  0  0  0  0  0
  -21.3952  -16.1175   21.2533 C   0  0  0  0  0  0  0  0  0  0  0  0
  -30.8812  -24.9632   17.5473 C   0  0  0  0  0  0  0  0  0  0  0  0
  -21.5790  -17.9298   19.4945 C   0  0  0  0  0  0  0  0  0  0  0  0
  -23.5532  -16.5498   20.0112 C   0  0  0  0  0  0  0  0  0  0  0  0
  -31.2120  -23.4897   17.3751 C   0  0  0  0  0  0  0  0  0  0  0  0
  -29.0809  -23.7855   18.5346 C   0  0  0  0  0  0  0  0  0  0  0  0
  -23.6109  -31.7720   23.3640 C   0  0  1  0  0  0  0  0  0  0  0  0
  -22.5996  -28.8808   21.1164 C   0  0  1  0  0  0  0  0  0  0  0  0
  -29.9685  -24.9965   18.7651 C   0  0  2  0  0  0  0  0  0  0  0  0
  -22.9337  -16.0865   21.3398 C   0  0  2  0  0  0  0  0  0  0  0  0
  -19.3466  -21.9039   20.2533 C   0  0  0  0  0  0  0  0  0  0  0  0
  -21.4914  -26.2600   24.7584 C   0  0  0  0  0  0  0  0  0  0  0  0
  -20.6839  -23.9520   24.2205 C   0  0  0  0  0  0  0  0  0  0  0  0
  -19.2016  -25.9166   23.8133 C   0  0  0  0  0  0  0  0  0  0  0  0
  -21.2250  -23.8787   17.5984 C   0  0  0  0  0  0  0  0  0  0  0  0
  -29.4132  -21.7265   17.1201 C   0  0  0  0  0  0  0  0  0  0  0  0
  -29.1871  -26.2868   18.8919 C   0  0  0  0  0  0  0  0  0  1  0  0
  -21.1899  -25.5294   22.3004 C   0  0  1  0  0  0  0  0  0  0  0  0
  -19.9593  -23.1449   19.6229 C   0  0  2  0  0  0  0  0  0  0  0  0
  -20.6646  -25.4252   23.7601 C   0  0  0  0  0  0  0  0  0  0  0  0
  -22.7606  -13.6270   21.3894 N   0  0  0  0  0  0  0  0  0  0  0  0
  -23.4458  -14.7218   21.7610 N   0  0  0  0  0  0  0  0  0  0  0  0
  -22.4715  -27.4536   21.4180 N   0  0  0  0  0  0  0  0  0  0  0  0
  -23.0341  -17.8789   19.6523 N   0  0  0  0  0  0  0  0  0  0  0  0
  -25.3633  -15.4351   22.9547 N   0  0  0  0  0  0  0  0  0  0  0  0
  -25.5069  -10.9380   23.3440 N   0  0  0  0  0  0  0  0  0  0  0  0
  -25.1664  -18.8866   19.6636 N   0  0  0  0  0  0  0  0  0  0  0  0
  -23.1778  -30.9277   22.2712 N   0  0  0  0  0  0  0  0  0  0  0  0
  -20.4096  -24.7705   21.3290 N   0  0  0  0  0  0  0  0  0  0  0  0
  -30.0485  -22.7482   18.0073 N   0  3  1  0  0  0  0  0  0  0  0  0
  -20.6016  -22.7506   18.3372 N   0  3  0  0  0  0  0  0  0  0  0  0
  -26.5622  -12.8913   23.9183 O   0  0  0  0  0  0  0  0  0  0  0  0
  -23.3152  -28.8773   23.3665 O   0  0  0  0  0  0  0  0  0  0  0  0
  -20.1669  -27.5953   21.7418 O   0  0  0  0  0  0  0  0  0  0  0  0
  -22.1595  -23.4498   20.5734 O   0  0  0  0  0  0  0  0  0  0  0  0
  -23.2718  -20.1226   19.1492 O   0  0  0  0  0  0  0  0  0  0  0  0
  -21.8414   -7.3286   21.2060 O   0  0  0  0  0  0  0  0  0  0  0  0
  -28.3583  -26.2162   20.0514 O   0  0  0  0  0  0  0  0  0  1  0  0
  -21.9454   -4.0013   25.6018 F   0  0  0  0  0  0  0  0  0  0  0  0
  -19.5328   -6.1122   22.1191 F   0  0  0  0  0  0  0  0  0  0  0  0
  1  2  1  0  0  0  0
  1  5  2  0  0  0  0
  2  6  2  0  0  0  0
  3 12  2  0  0  0  0
  3 19  1  0  0  0  0
  4 13  1  0  0  0  0
  4 19  2  0  0  0  0
  5 21  1  0  0  0  0
  6 23  1  0  0  0  0
  7 14  2  0  0  0  0
  7 22  1  0  0  0  0
  8 10  2  0  0  0  0
  8 25  1  0  0  0  0
  9 11  1  0  0  0  0
  9 25  2  0  0  0  0
 10 26  1  0  0  0  0
 11 26  2  0  0  0  0
 12 27  1  0  0  0  0
 13 27  2  0  0  0  0
 14 28  1  0  0  0  0
 15 16  2  0  0  0  0
 15 29  1  0  0  0  0
 16 30  1  0  0  0  0
 17 24  1  0  0  0  0
 17 28  2  0  0  0  0
 18 30  2  0  0  0  0
 18 31  1  0  0  0  0
 19 32  1  0  0  0  0
 20 32  1  0  0  0  0
 20 33  2  0  0  0  0
 20 34  1  0  0  0  0
 21 23  2  0  0  0  0
 21 39  1  0  0  0  0
 22 24  2  0  0  0  0
 22 40  1  0  0  0  0
 23 51  1  0  0  0  0
 24 41  1  0  0  0  0
 25 60  1  0  0  0  0
 26 71  1  0  0  0  0
 27 81  1  0  0  0  0
 28 82  1  0  0  0  0
 29 31  2  0  0  0  0
 29 81  1  0  0  0  0
 30 83  1  0  0  0  0
 31 84  1  0  0  0  0
 32 65  2  0  0  0  0
 33 66  1  0  0  0  0
 33 69  1  0  0  0  0
 34 70  1  0  0  0  0
 34 76  2  0  0  0  0
 35 52  1  0  0  0  0
 35 72  1  0  0  0  0
 35 77  2  0  0  0  0
 36 62  1  0  0  0  0
 36 67  1  0  0  0  0
 36 78  2  0  0  0  0
 37 63  1  0  0  0  0
 37 73  1  0  0  0  0
 37 79  2  0  0  0  0
 38 68  1  0  0  0  0
 38 71  1  0  0  0  0
 38 80  2  0  0  0  0
 39 42  1  0  0  0  0
 40 52  1  0  0  0  0
 41 67  1  0  0  0  0
 42 44  1  0  0  0  0
 43 45  1  0  0  0  0
 43 47  1  0  0  0  0
 44 51  1  0  0  0  0
 45 54  1  0  0  0  0
 46 49  1  0  0  0  0
 46 53  1  0  0  0  0
 47 68  1  0  0  0  0
 48 54  1  0  0  0  0
 48 68  1  0  0  0  0
 49 74  1  0  0  0  0
 50 53  1  0  0  0  0
 50 74  1  0  0  0  0
 51 72  1  0  0  0  0
 52 67  1  0  0  0  0
 53 61  1  0  0  0  0
 54 66  1  0  0  0  0
 55 63  1  0  0  0  0
 56 64  1  0  0  0  0
 57 64  1  0  0  0  0
 58 64  1  0  0  0  0
 59 75  1  0  0  0  0
 60 74  1  0  0  0  0
 61 82  1  0  0  0  0
 62 64  1  0  0  0  0
 62 73  1  0  0  0  0
 63 75  1  0  0  0  0
 65 66  1  0  0  0  0
M  CHG  2  74   1  75   1
M  ISO  4  38 100  61 101  71 100  82 101
M  END
> <Batch ID>
0013

> <Smiles>
CNC(C)C(=O)NC(C(=O)N1Cc2cc([101O:1][101CH2:1]C3CCN(Cc4ccc([100NH:0][100C:0](=O)N5CCCC(n6nc(-c7ccc(Oc8ccc(F)cc8F)cc7)c(C(N)=O)c6N)C5)cc4)C3)ccc2CC1C(=O)NC1CCCc2ccccc21)C(C)(C)C

> <Shape>
0.236

> <Color>
0.087

> <Negative vol penalty>
0.000

$$$$

  -OEChem-04042320483D

 87 95  0     1  0  0  0  0  0999 V2000
  -34.3898  -30.6726   25.0754 C   0  0  0  0  0  0  0  0  0  0  0  0
  -33.6118  -29.5659   24.7508 C   0  0  0  0  0  0  0  0  0  0  0  0
  -23.2561   -9.8454   21.3410 C   0  0  0  0  0  0  0  0  0  0  0  0
  -23.9686  -10.7000   23.4855 C   0  0  0  0  0  0  0  0  0  0  0  0
  -33.7986  -31.9303   25.1875 C   0  0  0  0  0  0  0  0  0  0  0  0
  -32.2417  -29.7161   24.5393 C   0  0  0  0  0  0  0  0  0  0  0  0
  -30.6226  -27.2161   20.4438 C   0  0  0  0  0  0  0  0  0  0  0  0
  -30.4004  -18.5324   22.8975 C   0  0  0  0  0  0  0  0  0  0  0  0
  -29.9967  -17.9354   20.5915 C   0  0  0  0  0  0  0  0  0  0  0  0
  -29.6970  -19.7226   22.7125 C   0  0  0  0  0  0  0  0  0  0  0  0
  -29.2933  -19.1257   20.4065 C   0  0  0  0  0  0  0  0  0  0  0  0
  -22.5817   -8.8048   21.9796 C   0  0  0  0  0  0  0  0  0  0  0  0
  -23.2941   -9.6594   24.1242 C   0  0  0  0  0  0  0  0  0  0  0  0
  -30.4452  -25.8388   20.5674 C   0  0  0  0  0  0  0  0  0  0  0  0
  -23.3565   -5.8404   23.4066 C   0  0  0  0  0  0  0  0  0  0  0  0
  -23.5068   -4.5554   22.8853 C   0  0  0  0  0  0  0  0  0  0  0  0
  -28.0726  -26.1753   20.8443 C   0  0  0  0  0  0  0  0  0  0  0  0
  -21.1240   -4.4306   22.5062 C   0  0  0  0  0  0  0  0  0  0  0  0
  -23.9496  -10.7930   22.0939 C   0  0  0  0  0  0  0  0  0  0  0  0
  -24.1337  -13.1354   21.1004 C   0  0  0  0  0  0  0  0  0  0  0  0
  -32.4222  -32.0976   24.9678 C   0  0  0  0  0  0  0  0  0  0  0  0
  -29.5259  -28.0856   20.5306 C   0  0  0  0  0  0  0  0  0  0  0  0
  -31.6312  -30.9770   24.6500 C   0  0  0  0  0  0  0  0  0  0  0  0
  -28.2384  -27.5631   20.7189 C   0  0  0  0  0  0  0  0  0  0  0  0
  -30.5502  -17.6388   21.8370 C   0  0  0  0  0  0  0  0  0  0  0  0
  -29.1435  -20.0193   21.4671 C   0  0  0  0  0  0  0  0  0  0  0  0
  -22.6007   -8.7118   23.3712 C   0  0  0  0  0  0  0  0  0  0  0  0
  -29.1705  -25.3184   20.7706 C   0  0  0  0  0  0  0  0  0  0  0  0
  -22.0900   -6.4205   23.4778 C   0  0  0  0  0  0  0  0  0  0  0  0
  -22.3906   -3.8505   22.4351 C   0  0  0  0  0  0  0  0  0  0  0  0
  -20.9737   -5.7156   23.0275 C   0  0  0  0  0  0  0  0  0  0  0  0
  -24.6469  -11.8679   21.4347 C   0  0  0  0  0  0  0  0  0  0  0  0
  -25.1833  -13.7821   20.4949 C   0  0  0  0  0  0  0  0  0  0  0  0
  -22.8251  -13.6796   21.3177 C   0  0  0  0  0  0  0  0  0  0  0  0
  -28.6831  -30.4448   22.4870 C   0  0  0  0  0  0  0  0  0  0  0  0
  -26.2589  -30.8164   20.3639 C   0  0  0  0  0  0  0  0  0  0  0  0
  -24.2754  -29.4273   17.9591 C   0  0  0  0  0  0  0  0  0  0  0  0
  -30.8458  -14.3348   20.7135 C   0  0  0  0  0  0  0  0  0  0  0  0
  -31.8199  -33.4687   25.1468 C   0  0  0  0  0  0  0  0  0  0  0  0
  -29.7306  -29.5669   20.3685 C   0  0  0  0  0  0  0  0  0  0  0  0
  -27.0255  -28.4524   20.7991 C   0  0  0  0  0  0  0  0  0  0  0  0
  -30.4262  -33.6058   24.5393 C   0  0  0  0  0  0  0  0  0  0  0  0
  -29.3580  -12.3596   18.2823 C   0  0  0  0  0  0  0  0  0  0  0  0
  -29.5561  -32.4137   24.9249 C   0  0  0  0  0  0  0  0  0  0  0  0
  -27.9375  -12.1441   18.8025 C   0  0  0  0  0  0  0  0  0  0  0  0
  -30.3715  -12.2799   19.4177 C   0  0  0  0  0  0  0  0  0  0  0  0
  -28.6877  -13.0438   21.0618 C   0  0  0  0  0  0  0  0  0  0  0  0
  -30.1460  -31.1037   24.3887 C   0  0  1  0  0  0  0  0  0  0  0  0
  -28.6094  -30.3962   20.9870 C   0  0  1  0  0  0  0  0  0  0  0  0
  -27.6184  -13.1154   19.9524 C   0  0  2  0  0  0  0  0  0  0  0  0
  -22.3580  -29.9676   16.4330 C   0  0  0  0  0  0  0  0  0  0  0  0
  -27.1135  -21.6998   23.2387 C   0  0  0  0  0  0  0  0  0  0  0  0
  -24.3315  -30.6243   22.7215 C   0  0  0  0  0  0  0  0  0  0  0  0
  -22.4811  -30.2148   21.0855 C   0  0  0  0  0  0  0  0  0  0  0  0
  -23.7394  -32.3680   21.0293 C   0  0  0  0  0  0  0  0  0  0  0  0
  -25.8958  -28.8877   15.5421 C   0  0  0  0  0  0  0  0  0  0  0  0
  -25.7477  -15.3803   23.2255 C   0  0  0  0  0  0  0  0  0  0  0  0
  -27.2123  -13.4895   23.9187 C   0  0  0  0  0  0  0  0  0  0  0  0
  -31.3024  -16.3662   22.0337 C   0  0  0  0  0  0  0  0  0  0  0  0
  -29.5078  -14.8554   22.7976 C   0  0  0  0  0  0  0  0  0  0  0  0
  -28.0981  -15.2623   22.4110 C   0  0  0  0  0  0  0  0  0  0  0  0
  -27.9099  -23.5325   21.7073 C   0  0  0  0  0  0  0  0  0  1  0  0
  -24.8655  -30.2529   20.2229 C   0  0  1  0  0  0  0  0  0  0  0  0
  -23.8708  -29.9172   16.5804 C   0  0  2  0  0  0  0  0  0  0  0  0
  -28.2394  -22.1782   22.3315 C   0  0  2  0  0  0  0  0  0  0  0  0
  -23.8773  -30.8481   21.2653 C   0  0  0  0  0  0  0  0  0  0  0  0
  -25.9233  -11.7163   21.0717 N   0  0  0  0  0  0  0  0  0  0  0  0
  -26.2209  -12.8969   20.5028 N   0  0  0  0  0  0  0  0  0  0  0  0
  -27.2781  -29.8942   20.6410 N   0  0  0  0  0  0  0  0  0  0  0  0
  -30.0346  -13.2116   20.4945 N   0  0  0  0  0  0  0  0  0  0  0  0
  -25.3107  -15.0157   19.9618 N   0  0  0  0  0  0  0  0  0  0  0  0
  -21.8661  -12.8798   21.9541 N   0  0  0  0  0  0  0  0  0  0  0  0
  -28.4446  -21.1982   21.2838 N   0  0  0  0  0  0  0  0  0  0  0  0
  -29.8666  -30.9647   22.9756 N   0  0  0  0  0  0  0  0  0  0  0  0
  -24.4745  -30.4736   18.8348 N   0  0  0  0  0  0  0  0  0  0  0  0
  -30.4846  -15.1923   21.7636 N   0  0  0  0  0  0  0  0  0  0  0  0
  -24.4155  -29.0126   15.5288 N   0  3  0  0  0  0  0  0  0  0  0  0
  -27.1624  -14.9434   23.5173 N   0  3  0  0  0  0  0  0  0  0  0  0
  -22.5106  -14.8348   20.9435 O   0  0  0  0  0  0  0  0  0  0  0  0
  -27.7358  -30.0419   23.1519 O   0  0  0  0  0  0  0  0  0  0  0  0
  -26.4377  -32.0291   20.2259 O   0  0  0  0  0  0  0  0  0  0  0  0
  -24.3986  -28.2355   18.2330 O   0  0  0  0  0  0  0  0  0  0  0  0
  -31.8431  -14.5566   20.0146 O   0  0  0  0  0  0  0  0  0  0  0  0
  -21.9425   -7.6967   23.9948 O   0  0  0  0  0  0  0  0  0  0  0  0
  -28.9946  -23.9744   20.8922 O   0  0  0  0  0  0  0  0  0  1  0  0
  -22.5352   -2.6171   21.9331 F   0  0  0  0  0  0  0  0  0  0  0  0
  -19.7546   -6.2681   23.0922 F   0  0  0  0  0  0  0  0  0  0  0  0
  1  2  1  0  0  0  0
  1  5  2  0  0  0  0
  2  6  2  0  0  0  0
  3 12  2  0  0  0  0
  3 19  1  0  0  0  0
  4 13  1  0  0  0  0
  4 19  2  0  0  0  0
  5 21  1  0  0  0  0
  6 23  1  0  0  0  0
  7 14  2  0  0  0  0
  7 22  1  0  0  0  0
  8 10  2  0  0  0  0
  8 25  1  0  0  0  0
  9 11  1  0  0  0  0
  9 25  2  0  0  0  0
 10 26  1  0  0  0  0
 11 26  2  0  0  0  0
 12 27  1  0  0  0  0
 13 27  2  0  0  0  0
 14 28  1  0  0  0  0
 15 16  2  0  0  0  0
 15 29  1  0  0  0  0
 16 30  1  0  0  0  0
 17 24  1  0  0  0  0
 17 28  2  0  0  0  0
 18 30  2  0  0  0  0
 18 31  1  0  0  0  0
 19 32  1  0  0  0  0
 20 32  1  0  0  0  0
 20 33  2  0  0  0  0
 20 34  1  0  0  0  0
 21 23  2  0  0  0  0
 21 39  1  0  0  0  0
 22 24  2  0  0  0  0
 22 40  1  0  0  0  0
 23 48  1  0  0  0  0
 24 41  1  0  0  0  0
 25 59  1  0  0  0  0
 26 73  1  0  0  0  0
 27 84  1  0  0  0  0
 28 85  1  0  0  0  0
 29 31  2  0  0  0  0
 29 84  1  0  0  0  0
 30 86  1  0  0  0  0
 31 87  1  0  0  0  0
 32 67  2  0  0  0  0
 33 68  1  0  0  0  0
 33 71  1  0  0  0  0
 34 72  1  0  0  0  0
 34 79  2  0  0  0  0
 35 49  1  0  0  0  0
 35 74  1  0  0  0  0
 35 80  2  0  0  0  0
 36 63  1  0  0  0  0
 36 69  1  0  0  0  0
 36 81  2  0  0  0  0
 37 64  1  0  0  0  0
 37 75  1  0  0  0  0
 37 82  2  0  0  0  0
 38 70  1  0  0  0  0
 38 76  1  0  0  0  0
 38 83  2  0  0  0  0
 39 42  1  0  0  0  0
 40 49  1  0  0  0  0
 41 69  1  0  0  0  0
 42 44  1  0  0  0  0
 43 45  1  0  0  0  0
 43 46  1  0  0  0  0
 44 48  1  0  0  0  0
 45 50  1  0  0  0  0
 46 70  1  0  0  0  0
 47 50  1  0  0  0  0
 47 70  1  0  0  0  0
 48 74  1  0  0  0  0
 49 69  1  0  0  0  0
 50 68  1  0  0  0  0
 51 64  1  0  0  0  0
 52 65  1  0  0  0  0
 53 66  1  0  0  0  0
 54 66  1  0  0  0  0
 55 66  1  0  0  0  0
 56 77  1  0  0  0  0
 57 78  1  0  0  0  0
 58 78  1  0  0  0  0
 59 76  1  0  0  0  0
 60 61  1  0  0  0  0
 60 76  1  0  0  0  0
 61 78  1  0  0  0  0
 62 65  1  0  0  0  0
 62 85  1  0  0  0  0
 63 66  1  0  0  0  0
 63 75  1  0  0  0  0
 64 77  1  0  0  0  0
 65 73  1  0  0  0  0
 67 68  1  0  0  0  0
M  CHG  2  77   1  78   1
M  ISO  4  38 100  62 101  76 100  85 101
M  END
> <Batch ID>
0013

> <Smiles>
CNC(C)C(=O)NC(C(=O)N1Cc2cc([101O:1][101CH2:1]C(C)Nc3ccc(C[100N:0](CCN(C)C)[100C:0](=O)N4CCCC(n5nc(-c6ccc(Oc7ccc(F)cc7F)cc6)c(C(N)=O)c5N)C4)cc3)ccc2CC1C(=O)NC1CCCc2ccccc21)C(C)(C)C

> <Shape>
0.311

> <Color>
0.157

> <Negative vol penalty>
0.000

$$$$

  -OEChem-04042320483D

 84 92  0     1  0  0  0  0  0999 V2000
  -31.0688  -32.3811   20.1025 C   0  0  0  0  0  0  0  0  0  0  0  0
  -31.1685  -31.1309   20.7046 C   0  0  0  0  0  0  0  0  0  0  0  0
  -23.0761   -9.8674   19.9409 C   0  0  0  0  0  0  0  0  0  0  0  0
  -23.8355   -9.8748   22.2344 C   0  0  0  0  0  0  0  0  0  0  0  0
  -29.8140  -32.9296   19.8410 C   0  0  0  0  0  0  0  0  0  0  0  0
  -30.0132  -30.4290   21.0466 C   0  0  0  0  0  0  0  0  0  0  0  0
  -30.2550  -25.5398   19.7496 C   0  0  0  0  0  0  0  0  0  0  0  0
  -22.3323   -8.7142   20.1909 C   0  0  0  0  0  0  0  0  0  0  0  0
  -23.0917   -8.7216   22.4845 C   0  0  0  0  0  0  0  0  0  0  0  0
  -31.0014  -24.6986   20.5737 C   0  0  0  0  0  0  0  0  0  0  0  0
  -19.8635   -7.9236   23.0865 C   0  0  0  0  0  0  0  0  0  0  0  0
  -19.1063   -7.8838   24.2573 C   0  0  0  0  0  0  0  0  0  0  0  0
  -28.9691  -23.9371   21.6268 C   0  0  0  0  0  0  0  0  0  0  0  0
  -30.3234  -18.9790   23.1935 C   0  0  0  0  0  0  0  0  0  0  0  0
  -31.8670  -17.3338   21.5523 C   0  0  0  0  0  0  0  0  0  0  0  0
  -20.3478   -5.9466   24.9943 C   0  0  0  0  0  0  0  0  0  0  0  0
  -23.8278  -10.4477   20.9627 C   0  0  0  0  0  0  0  0  0  0  0  0
  -24.1694  -12.9728   20.8423 C   0  0  0  0  0  0  0  0  0  0  0  0
  -28.6427  -32.2298   20.1712 C   0  0  0  0  0  0  0  0  0  0  0  0
  -28.8586  -25.5941   19.8656 C   0  0  0  0  0  0  0  0  0  0  0  0
  -28.7414  -30.9692   20.7905 C   0  0  0  0  0  0  0  0  0  0  0  0
  -28.2071  -24.7779   20.8013 C   0  0  0  0  0  0  0  0  0  0  0  0
  -31.6060  -19.3764   22.8160 C   0  0  0  0  0  0  0  0  0  0  0  0
  -30.5843  -16.9364   21.9299 C   0  0  0  0  0  0  0  0  0  0  0  0
  -22.3400   -8.1413   21.4627 C   0  0  0  0  0  0  0  0  0  0  0  0
  -30.3587  -23.8992   21.5145 C   0  0  0  0  0  0  0  0  0  0  0  0
  -20.8628   -6.9748   22.8696 C   0  0  0  0  0  0  0  0  0  0  0  0
  -29.8126  -17.7589   22.7506 C   0  0  0  0  0  0  0  0  0  0  0  0
  -19.3484   -6.8953   25.2112 C   0  0  0  0  0  0  0  0  0  0  0  0
  -32.3778  -18.5539   21.9953 C   0  0  0  0  0  0  0  0  0  0  0  0
  -21.1049   -5.9864   23.8235 C   0  0  0  0  0  0  0  0  0  0  0  0
  -24.5968  -11.6386   20.7049 C   0  0  0  0  0  0  0  0  0  0  0  0
  -25.2615  -13.7223   20.4791 C   0  0  0  0  0  0  0  0  0  0  0  0
  -22.8988  -13.4886   21.2609 C   0  0  0  0  0  0  0  0  0  0  0  0
  -26.7561  -27.8580   20.6125 C   0  0  0  0  0  0  0  0  0  0  0  0
  -24.5978  -25.5713   19.8157 C   0  0  0  0  0  0  0  0  0  0  0  0
  -23.8950  -22.2516   19.4516 C   0  0  0  0  0  0  0  0  0  0  0  0
  -30.7276  -14.7685   20.6547 C   0  0  0  0  0  0  0  0  0  0  0  0
  -27.3087  -32.8841   19.9122 C   0  0  0  0  0  0  0  0  0  0  0  0
  -28.0658  -26.4869   18.9509 C   0  0  0  0  0  0  0  0  0  0  0  0
  -26.7085  -24.7841   20.9516 C   0  0  0  0  0  0  0  0  0  0  0  0
  -26.1331  -31.9118   19.9643 C   0  0  0  0  0  0  0  0  0  0  0  0
  -29.6139  -12.3542   18.2866 C   0  0  0  0  0  0  0  0  0  0  0  0
  -26.2354  -31.0159   21.1946 C   0  0  0  0  0  0  0  0  0  0  0  0
  -28.1742  -12.0625   18.7160 C   0  0  0  0  0  0  0  0  0  0  0  0
  -30.5287  -12.5832   19.4884 C   0  0  0  0  0  0  0  0  0  0  0  0
  -28.6214  -13.3078   20.8692 C   0  0  0  0  0  0  0  0  0  0  0  0
  -27.5113  -30.1662   21.1537 C   0  0  1  0  0  0  0  0  0  0  0  0
  -26.6904  -26.8422   19.5073 C   0  0  1  0  0  0  0  0  0  0  0  0
  -27.6489  -13.1342   19.6912 C   0  0  2  0  0  0  0  0  0  0  0  0
  -22.0346  -20.6893   18.8227 C   0  0  0  0  0  0  0  0  0  0  0  0
  -23.3009  -26.0228   22.5405 C   0  0  0  0  0  0  0  0  0  0  0  0
  -22.0956  -23.8477   22.2494 C   0  0  0  0  0  0  0  0  0  0  0  0
  -21.6869  -25.7214   20.6541 C   0  0  0  0  0  0  0  0  0  0  0  0
  -33.4628  -21.0225   22.8690 C   0  0  0  0  0  0  0  0  0  0  0  0
  -25.4213  -21.1717   17.1574 C   0  0  0  0  0  0  0  0  0  0  0  0
  -27.4805  -17.7872   22.2853 C   0  0  0  0  0  0  0  0  0  0  0  0
  -31.3381  -21.4815   24.1033 C   0  0  0  0  0  0  0  0  0  0  0  0
  -30.3615  -22.2863   23.2621 C   0  0  0  0  0  0  0  0  0  1  0  0
  -23.8821  -24.4706   20.5608 C   0  0  1  0  0  0  0  0  0  0  0  0
  -23.2342  -21.4797   18.3238 C   0  0  2  0  0  0  0  0  0  0  0  0
  -22.7698  -25.0167   21.4999 C   0  0  0  0  0  0  0  0  0  0  0  0
  -25.8617  -11.5428   20.2869 N   0  0  0  0  0  0  0  0  0  0  0  0
  -26.2385  -12.8264   20.1584 N   0  0  0  0  0  0  0  0  0  0  0  0
  -25.9778  -25.6786   20.0387 N   0  0  0  0  0  0  0  0  0  0  0  0
  -29.9695  -13.6142   20.3655 N   0  0  0  0  0  0  0  0  0  0  0  0
  -25.4718  -15.0538   20.4059 N   0  0  0  0  0  0  0  0  0  0  0  0
  -21.8869  -12.5794   21.5981 N   0  0  0  0  0  0  0  0  0  0  0  0
  -30.0800  -15.6936   21.4729 N   0  0  0  0  0  0  0  0  0  0  0  0
  -27.3474  -29.0517   20.2451 N   0  0  0  0  0  0  0  0  0  0  0  0
  -23.4034  -23.5363   19.5478 N   0  0  0  0  0  0  0  0  0  0  0  0
  -32.1178  -20.6019   23.2628 N   0  0  3  0  0  0  0  0  0  0  0  0
  -24.2028  -20.5271   17.7111 N   0  3  0  0  0  0  0  0  0  0  0  0
  -22.6624  -14.7192   21.3180 O   0  0  0  0  0  0  0  0  0  0  0  0
  -26.3026  -27.5799   21.7164 O   0  0  0  0  0  0  0  0  0  0  0  0
  -23.9572  -26.3043   19.0581 O   0  0  0  0  0  0  0  0  0  0  0  0
  -24.7581  -21.7626   20.1771 O   0  0  0  0  0  0  0  0  0  0  0  0
  -31.8568  -14.9372   20.1873 O   0  0  0  0  0  0  0  0  0  0  0  0
  -21.6141   -7.0162   21.7071 O   0  0  0  0  0  0  0  0  0  0  0  0
  -28.5569  -17.3891   23.1313 O   0  0  0  0  0  0  0  0  0  0  0  0
  -31.0849  -23.0777   22.3205 O   0  0  0  0  0  0  0  0  0  1  0  0
  -18.6223   -6.8581   26.3361 F   0  0  0  0  0  0  0  0  0  0  0  0
  -33.6107  -18.9269   21.6239 F   0  0  0  0  0  0  0  0  0  0  0  0
  -22.0644   -5.0729   23.6212 F   0  0  0  0  0  0  0  0  0  0  0  0
  1  2  1  0  0  0  0
  1  5  2  0  0  0  0
  2  6  2  0  0  0  0
  3  8  2  0  0  0  0
  3 17  1  0  0  0  0
  4  9  1  0  0  0  0
  4 17  2  0  0  0  0
  5 19  1  0  0  0  0
  6 21  1  0  0  0  0
  7 10  2  0  0  0  0
  7 20  1  0  0  0  0
  8 25  1  0  0  0  0
  9 25  2  0  0  0  0
 10 26  1  0  0  0  0
 11 12  2  0  0  0  0
 11 27  1  0  0  0  0
 12 29  1  0  0  0  0
 13 22  1  0  0  0  0
 13 26  2  0  0  0  0
 14 23  1  0  0  0  0
 14 28  2  0  0  0  0
 15 24  2  0  0  0  0
 15 30  1  0  0  0  0
 16 29  2  0  0  0  0
 16 31  1  0  0  0  0
 17 32  1  0  0  0  0
 18 32  1  0  0  0  0
 18 33  2  0  0  0  0
 18 34  1  0  0  0  0
 19 21  2  0  0  0  0
 19 39  1  0  0  0  0
 20 22  2  0  0  0  0
 20 40  1  0  0  0  0
 21 48  1  0  0  0  0
 22 41  1  0  0  0  0
 23 30  2  0  0  0  0
 23 72  1  0  0  0  0
 24 28  1  0  0  0  0
 24 69  1  0  0  0  0
 25 79  1  0  0  0  0
 26 81  1  0  0  0  0
 27 31  2  0  0  0  0
 27 79  1  0  0  0  0
 28 80  1  0  0  0  0
 29 82  1  0  0  0  0
 30 83  1  0  0  0  0
 31 84  1  0  0  0  0
 32 63  2  0  0  0  0
 33 64  1  0  0  0  0
 33 67  1  0  0  0  0
 34 68  1  0  0  0  0
 34 74  2  0  0  0  0
 35 49  1  0  0  0  0
 35 70  1  0  0  0  0
 35 75  2  0  0  0  0
 36 60  1  0  0  0  0
 36 65  1  0  0  0  0
 36 76  2  0  0  0  0
 37 61  1  0  0  0  0
 37 71  1  0  0  0  0
 37 77  2  0  0  0  0
 38 66  1  0  0  0  0
 38 69  1  0  0  0  0
 38 78  2  0  0  0  0
 39 42  1  0  0  0  0
 40 49  1  0  0  0  0
 41 65  1  0  0  0  0
 42 44  1  0  0  0  0
 43 45  1  0  0  0  0
 43 46  1  0  0  0  0
 44 48  1  0  0  0  0
 45 50  1  0  0  0  0
 46 66  1  0  0  0  0
 47 50  1  0  0  0  0
 47 66  1  0  0  0  0
 48 70  1  0  0  0  0
 49 65  1  0  0  0  0
 50 64  1  0  0  0  0
 51 61  1  0  0  0  0
 52 62  1  0  0  0  0
 53 62  1  0  0  0  0
 54 62  1  0  0  0  0
 55 72  1  0  0  0  0
 56 73  1  0  0  0  0
 57 80  1  0  0  0  0
 58 59  1  0  0  0  0
 58 72  1  0  0  0  0
 59 81  1  0  0  0  0
 60 62  1  0  0  0  0
 60 71  1  0  0  0  0
 61 73  1  0  0  0  0
 63 64  1  0  0  0  0
M  CHG  1  73   1
M  ISO  4  38 100  59 101  69 100  81 101
M  END
> <Batch ID>
0013

> <Smiles>
CNC(C)C(=O)NC(C(=O)N1Cc2cc([101O:1][101CH2:1]CN(C)c3cc(OC)c([100NH:0][100C:0](=O)N4CCCC(n5nc(-c6ccc(Oc7ccc(F)cc7F)cc6)c(C(N)=O)c5N)C4)cc3F)ccc2CC1C(=O)NC1CCCc2ccccc21)C(C)(C)C

> <Shape>
0.251

> <Color>
0.196

> <Negative vol penalty>
0.000

$$$$

  -OEChem-04042320483D

 83 91  0     1  0  0  0  0  0999 V2000
  -26.2932  -25.9273   13.1148 C   0  0  0  0  0  0  0  0  0  0  0  0
  -25.6805  -25.5385   14.3017 C   0  0  0  0  0  0  0  0  0  0  0  0
  -25.1078  -15.7313   21.2009 C   0  0  0  0  0  0  0  0  0  0  0  0
  -25.8624  -14.2387   19.4573 C   0  0  0  0  0  0  0  0  0  0  0  0
  -27.5925  -26.4327   13.1353 C   0  0  0  0  0  0  0  0  0  0  0  0
  -26.3671  -25.6538   15.5099 C   0  0  0  0  0  0  0  0  0  0  0  0
  -23.5042  -27.6284   19.1908 C   0  0  0  0  0  0  0  0  0  0  0  0
  -25.7437  -23.0586   18.7431 C   0  0  0  0  0  0  0  0  0  0  0  0
  -26.2234  -22.6667   21.0783 C   0  0  0  0  0  0  0  0  0  0  0  0
  -24.3767  -23.0270   19.0186 C   0  0  0  0  0  0  0  0  0  0  0  0
  -24.8564  -22.6351   21.3538 C   0  0  0  0  0  0  0  0  0  0  0  0
  -24.0094  -14.9038   21.4339 C   0  0  0  0  0  0  0  0  0  0  0  0
  -24.7639  -13.4112   19.6904 C   0  0  0  0  0  0  0  0  0  0  0  0
  -22.5821  -26.7813   19.8040 C   0  0  0  0  0  0  0  0  0  0  0  0
  -22.3521  -10.7174   20.0707 C   0  0  0  0  0  0  0  0  0  0  0  0
  -22.5771   -9.3423   20.1345 C   0  0  0  0  0  0  0  0  0  0  0  0
  -24.1001  -26.4783   21.6542 C   0  0  0  0  0  0  0  0  0  0  0  0
  -24.0795   -9.6745   21.9972 C   0  0  0  0  0  0  0  0  0  0  0  0
  -26.0343  -15.3988   20.2125 C   0  0  0  0  0  0  0  0  0  0  0  0
  -28.4348  -16.1790   20.5823 C   0  0  0  0  0  0  0  0  0  0  0  0
  -28.2919  -26.5633   14.3455 C   0  0  0  0  0  0  0  0  0  0  0  0
  -24.7377  -27.8986   19.8006 C   0  0  0  0  0  0  0  0  0  0  0  0
  -27.6775  -26.1602   15.5465 C   0  0  0  0  0  0  0  0  0  0  0  0
  -25.0350  -27.3311   21.0478 C   0  0  0  0  0  0  0  0  0  0  0  0
  -26.6671  -22.8784   19.7730 C   0  0  0  0  0  0  0  0  0  0  0  0
  -23.9331  -22.8153   20.3239 C   0  0  0  0  0  0  0  0  0  0  0  0
  -23.8374  -13.7438   20.6787 C   0  0  0  0  0  0  0  0  0  0  0  0
  -22.8812  -26.2038   21.0345 C   0  0  0  0  0  0  0  0  0  0  0  0
  -22.9909  -11.5711   20.9701 C   0  0  0  0  0  0  0  0  0  0  0  0
  -23.4408   -8.8208   21.0977 C   0  0  0  0  0  0  0  0  0  0  0  0
  -23.8545  -11.0496   21.9334 C   0  0  0  0  0  0  0  0  0  0  0  0
  -27.1689  -16.2535   19.9709 C   0  0  0  0  0  0  0  0  0  0  0  0
  -29.1514  -17.2037   20.0140 C   0  0  0  0  0  0  0  0  0  0  0  0
  -28.9196  -15.2651   21.5750 C   0  0  0  0  0  0  0  0  0  0  0  0
  -27.7799  -27.4002   19.0256 C   0  0  0  0  0  0  0  0  0  0  0  0
  -28.3418  -29.1363   21.7076 C   0  0  0  0  0  0  0  0  0  0  0  0
  -27.2189  -30.2300   24.7390 C   0  0  0  0  0  0  0  0  0  0  0  0
  -28.5849  -22.4988   18.2338 C   0  0  0  0  0  0  0  0  0  0  0  0
  -29.7118  -27.0707   14.3122 C   0  0  0  0  0  0  0  0  0  0  0  0
  -25.7104  -28.8357   19.1387 C   0  0  0  0  0  0  0  0  0  0  0  0
  -26.3370  -27.6053   21.7537 C   0  0  0  0  0  0  0  0  0  0  0  0
  -30.2334  -27.5110   15.6776 C   0  0  0  0  0  0  0  0  0  0  0  0
  -28.7723  -19.8521   15.8667 C   0  0  0  0  0  0  0  0  0  0  0  0
  -29.8976  -26.4682   16.7390 C   0  0  0  0  0  0  0  0  0  0  0  0
  -28.4899  -18.6361   16.7483 C   0  0  0  0  0  0  0  0  0  0  0  0
  -27.9055  -21.0516   16.2512 C   0  0  0  0  0  0  0  0  0  0  0  0
  -27.7043  -20.2008   18.5664 C   0  0  0  0  0  0  0  0  0  0  0  0
  -28.3807  -26.2932   16.8799 C   0  0  1  0  0  0  0  0  0  0  0  0
  -27.1481  -28.6333   19.6072 C   0  0  1  0  0  0  0  0  0  0  0  0
  -28.6023  -18.9973   18.2399 C   0  0  1  0  0  0  0  0  0  0  0  0
  -27.9172  -31.6034   26.7198 C   0  0  0  0  0  0  0  0  0  0  0  0
  -21.9961  -24.5844   23.8802 C   0  0  0  0  0  0  0  0  0  0  0  0
  -30.1125  -26.8450   22.6690 C   0  0  0  0  0  0  0  0  0  0  0  0
  -30.0018  -27.8187   24.9729 C   0  0  0  0  0  0  0  0  0  0  0  0
  -31.0283  -29.1291   23.1150 C   0  0  0  0  0  0  0  0  0  0  0  0
  -28.9709  -23.6014   20.4271 C   0  0  0  0  0  0  0  0  0  0  0  0
  -21.6001  -22.5347   19.5247 C   0  0  0  0  0  0  0  0  0  0  0  0
  -25.0083  -32.1548   24.3301 C   0  0  0  0  0  0  0  0  0  0  0  0
  -22.0576  -22.9824   21.9410 C   0  0  0  0  0  0  0  0  0  0  0  0
  -28.5203  -28.8144   23.1716 C   0  0  1  0  0  0  0  0  0  0  0  0
  -27.2116  -31.6095   25.3726 C   0  0  2  0  0  0  0  0  0  0  0  0
  -22.5081  -24.3430   22.4677 C   0  0  1  0  0  0  0  0  0  1  0  0
  -29.8919  -28.1449   23.4682 C   0  0  0  0  0  0  0  0  0  0  0  0
  -27.0830  -17.2471   19.0825 N   0  0  0  0  0  0  0  0  0  0  0  0
  -28.3040  -17.8064   19.1314 N   0  0  0  0  0  0  0  0  0  0  0  0
  -27.2579  -28.5232   21.0632 N   0  0  0  0  0  0  0  0  0  0  0  0
  -28.0138  -21.3329   17.6897 N   0  0  0  0  0  0  0  0  0  0  0  0
  -30.4173  -17.6390   20.1882 N   0  0  0  0  0  0  0  0  0  0  0  0
  -28.0516  -14.2725   22.0502 N   0  0  0  0  0  0  0  0  0  0  0  0
  -27.8149  -27.3840   17.6444 N   0  0  0  0  0  0  0  0  0  0  0  0
  -28.2956  -30.0617   23.8942 N   0  0  0  0  0  0  0  0  0  0  0  0
  -28.0823  -22.9095   19.4872 N   0  0  0  0  0  0  0  0  0  0  0  0
  -22.5599  -22.7845   20.6003 N   0  0  3  0  0  0  0  0  0  0  0  0
  -25.8118  -32.0780   25.5773 N   0  3  0  0  0  0  0  0  0  0  0  0
  -30.0827  -15.3372   22.0393 O   0  0  0  0  0  0  0  0  0  0  0  0
  -28.2055  -26.5288   19.7747 O   0  0  0  0  0  0  0  0  0  0  0  0
  -29.1305  -29.9091   21.1577 O   0  0  0  0  0  0  0  0  0  0  0  0
  -26.3579  -29.3848   24.9733 O   0  0  0  0  0  0  0  0  0  0  0  0
  -29.4920  -23.1109   17.6572 O   0  0  0  0  0  0  0  0  0  0  0  0
  -22.7658  -12.9360   20.9060 O   0  0  0  0  0  0  0  0  0  0  0  0
  -21.9833  -25.3761   21.6349 O   0  0  0  0  0  0  0  0  0  1  0  0
  -23.6555   -7.5001   21.1599 F   0  0  0  0  0  0  0  0  0  0  0  0
  -24.4701  -11.8647   22.8009 F   0  0  0  0  0  0  0  0  0  0  0  0
  1  2  1  0  0  0  0
  1  5  2  0  0  0  0
  2  6  2  0  0  0  0
  3 12  2  0  0  0  0
  3 19  1  0  0  0  0
  4 13  1  0  0  0  0
  4 19  2  0  0  0  0
  5 21  1  0  0  0  0
  6 23  1  0  0  0  0
  7 14  2  0  0  0  0
  7 22  1  0  0  0  0
  8 10  2  0  0  0  0
  8 25  1  0  0  0  0
  9 11  1  0  0  0  0
  9 25  2  0  0  0  0
 10 26  1  0  0  0  0
 11 26  2  0  0  0  0
 12 27  1  0  0  0  0
 13 27  2  0  0  0  0
 14 28  1  0  0  0  0
 15 16  2  0  0  0  0
 15 29  1  0  0  0  0
 16 30  1  0  0  0  0
 17 24  1  0  0  0  0
 17 28  2  0  0  0  0
 18 30  2  0  0  0  0
 18 31  1  0  0  0  0
 19 32  1  0  0  0  0
 20 32  1  0  0  0  0
 20 33  2  0  0  0  0
 20 34  1  0  0  0  0
 21 23  2  0  0  0  0
 21 39  1  0  0  0  0
 22 24  2  0  0  0  0
 22 40  1  0  0  0  0
 23 48  1  0  0  0  0
 24 41  1  0  0  0  0
 25 72  1  0  0  0  0
 26 73  1  0  0  0  0
 27 80  1  0  0  0  0
 28 81  1  0  0  0  0
 29 31  2  0  0  0  0
 29 80  1  0  0  0  0
 30 82  1  0  0  0  0
 31 83  1  0  0  0  0
 32 64  2  0  0  0  0
 33 65  1  0  0  0  0
 33 68  1  0  0  0  0
 34 69  1  0  0  0  0
 34 75  2  0  0  0  0
 35 49  1  0  0  0  0
 35 70  1  0  0  0  0
 35 76  2  0  0  0  0
 36 60  1  0  0  0  0
 36 66  1  0  0  0  0
 36 77  2  0  0  0  0
 37 61  1  0  0  0  0
 37 71  1  0  0  0  0
 37 78  2  0  0  0  0
 38 67  1  0  0  0  0
 38 72  1  0  0  0  0
 38 79  2  0  0  0  0
 39 42  1  0  0  0  0
 40 49  1  0  0  0  0
 41 66  1  0  0  0  0
 42 44  1  0  0  0  0
 43 45  1  0  0  0  0
 43 46  1  0  0  0  0
 44 48  1  0  0  0  0
 45 50  1  0  0  0  0
 46 67  1  0  0  0  0
 47 50  1  0  0  0  0
 47 67  1  0  0  0  0
 48 70  1  0  0  0  0
 49 66  1  0  0  0  0
 50 65  1  0  0  0  0
 51 61  1  0  0  0  0
 52 62  1  0  0  0  0
 53 63  1  0  0  0  0
 54 63  1  0  0  0  0
 55 63  1  0  0  0  0
 56 72  1  0  0  0  0
 57 73  1  0  0  0  0
 58 74  1  0  0  0  0
 59 62  1  0  0  0  0
 59 73  1  0  0  0  0
 60 63  1  0  0  0  0
 60 71  1  0  0  0  0
 61 74  1  0  0  0  0
 62 81  1  0  0  0  0
 64 65  1  0  0  0  0
M  CHG  1  74   1
M  ISO  4  38 100  62 101  72 100  81 101
M  END
> <Batch ID>
0013

> <Smiles>
CNC(C)C(=O)NC(C(=O)N1Cc2cc([101O:1][101CH:1](C)CN(C)c3ccc([100N:0](C)[100C:0](=O)N4CCCC(n5nc(-c6ccc(Oc7ccc(F)cc7F)cc6)c(C(N)=O)c5N)C4)cc3)ccc2CC1C(=O)NC1CCCc2ccccc21)C(C)(C)C

> <Shape>
0.224

> <Color>
0.068

> <Negative vol penalty>
0.000

$$$$

  -OEChem-04042320483D

 95105  0     1  0  0  0  0  0999 V2000
  -25.3299  -35.6806   25.9264 C   0  0  0  0  0  0  0  0  0  0  0  0
  -26.1202  -34.6856   25.3598 C   0  0  0  0  0  0  0  0  0  0  0  0
  -21.8197   -4.2363   26.5504 C   0  0  0  0  0  0  0  0  0  0  0  0
  -24.1173   -4.5386   25.8672 C   0  0  0  0  0  0  0  0  0  0  0  0
  -23.9757  -35.4449   26.1602 C   0  0  0  0  0  0  0  0  0  0  0  0
  -25.5569  -33.4540   25.0277 C   0  0  0  0  0  0  0  0  0  0  0  0
  -27.0467  -29.8850   20.2792 C   0  0  0  0  0  0  0  0  0  0  0  0
  -26.2015  -18.5941   21.2243 C   0  0  0  0  0  0  0  0  0  0  0  0
  -25.2873  -17.5481   21.3487 C   0  0  0  0  0  0  0  0  0  0  0  0
  -22.2500   -3.7850   27.7980 C   0  0  0  0  0  0  0  0  0  0  0  0
  -24.5477   -4.0873   27.1149 C   0  0  0  0  0  0  0  0  0  0  0  0
  -27.8657  -28.7619   20.1705 C   0  0  0  0  0  0  0  0  0  0  0  0
  -24.8460   -5.3289   30.2438 C   0  0  0  0  0  0  0  0  0  0  0  0
  -25.8581   -6.0492   30.8781 C   0  0  0  0  0  0  0  0  0  0  0  0
  -25.9327  -27.3374   20.4012 C   0  0  0  0  0  0  0  0  0  0  0  0
  -27.9021  -17.0252   20.5288 C   0  0  0  0  0  0  0  0  0  0  0  0
  -27.2578   -4.0800   30.8811 C   0  0  0  0  0  0  0  0  0  0  0  0
  -22.7534   -4.6131   25.5849 C   0  0  0  0  0  0  0  0  0  0  0  0
  -21.5341   -4.3718   23.3572 C   0  0  0  0  0  0  0  0  0  0  0  0
  -23.3935  -34.2132   25.8219 C   0  0  0  0  0  0  0  0  0  0  0  0
  -25.6635  -29.7423   20.4610 C   0  0  0  0  0  0  0  0  0  0  0  0
  -24.1940  -33.2012   25.2585 C   0  0  0  0  0  0  0  0  0  0  0  0
  -25.0980  -28.4602   20.5094 C   0  0  0  0  0  0  0  0  0  0  0  0
  -27.5089  -18.3327   20.8143 C   0  0  0  0  0  0  0  0  0  0  0  0
  -25.6804  -16.2405   21.0632 C   0  0  0  0  0  0  0  0  0  0  0  0
  -23.6140   -3.7105   28.0804 C   0  0  0  0  0  0  0  0  0  0  0  0
  -27.3091  -27.4879   20.2344 C   0  0  0  0  0  0  0  0  0  0  0  0
  -25.0398   -3.9840   29.9282 C   0  0  0  0  0  0  0  0  0  0  0  0
  -27.0640   -5.4248   31.1967 C   0  0  0  0  0  0  0  0  0  0  0  0
  -26.9878  -15.9791   20.6532 C   0  0  0  0  0  0  0  0  0  0  0  0
  -26.2457   -3.3596   30.2468 C   0  0  0  0  0  0  0  0  0  0  0  0
  -22.3095   -5.0788   24.2957 C   0  0  0  0  0  0  0  0  0  0  0  0
  -21.3858   -5.2447   22.3071 C   0  0  0  0  0  0  0  0  0  0  0  0
  -20.9959   -3.0448   23.4283 C   0  0  0  0  0  0  0  0  0  0  0  0
  -23.6037  -30.5647   22.7379 C   0  0  0  0  0  0  0  0  0  0  0  0
  -21.4129  -29.4797   20.6059 C   0  0  0  0  0  0  0  0  0  0  0  0
  -19.6708  -27.9460   18.1039 C   0  0  0  0  0  0  0  0  0  0  0  0
  -21.3633  -11.0270   21.8920 C   0  0  0  0  0  0  0  0  0  0  0  0
  -21.9358  -33.9883   26.1371 C   0  0  0  0  0  0  0  0  0  0  0  0
  -24.7904  -30.9639   20.5497 C   0  0  0  0  0  0  0  0  0  0  0  0
  -23.6163  -28.2531   20.6830 C   0  0  0  0  0  0  0  0  0  0  0  0
  -21.3338  -32.7879   25.4113 C   0  0  0  0  0  0  0  0  0  0  0  0
  -23.5575   -8.8967   20.1259 C   0  0  0  0  0  0  0  0  0  0  0  0
  -29.7393  -20.6962   17.6054 C   0  0  0  0  0  0  0  0  0  0  0  0
  -22.2583  -31.5794   25.5204 C   0  0  0  0  0  0  0  0  0  0  0  0
  -23.4171   -7.5959   20.9153 C   0  0  0  0  0  0  0  0  0  0  0  0
  -29.1999  -22.0191   18.1123 C   0  0  0  0  0  0  0  0  0  0  0  0
  -23.5543  -13.2846   20.1957 C   0  0  0  0  0  0  0  0  0  0  0  0
  -22.8137  -14.2569   22.3807 C   0  0  0  0  0  0  0  0  0  0  0  0
  -23.5766  -10.1238   21.0391 C   0  0  0  0  0  0  0  0  0  0  0  0
  -24.8915  -14.0140   20.3256 C   0  0  0  0  0  0  0  0  0  0  0  0
  -24.1538  -14.9795   22.5098 C   0  0  0  0  0  0  0  0  0  0  0  0
  -22.2842   -8.8965   22.7556 C   0  0  0  0  0  0  0  0  0  0  0  0
  -28.7757  -19.6727   18.1769 C   0  0  0  0  0  0  0  0  0  0  0  0
  -23.6142  -31.8608   24.8618 C   0  0  1  0  0  0  0  0  0  0  0  0
  -23.4604  -30.6982   21.2482 C   0  0  1  0  0  0  0  0  0  0  0  0
  -22.2021   -7.6526   21.8575 C   0  0  2  0  0  0  0  0  0  0  0  0
  -22.9461  -12.9739   21.5619 C   0  0  0  0  0  0  0  0  0  0  0  0
  -28.8426  -21.6995   19.5592 C   0  0  1  0  0  0  0  0  0  0  0  0
  -17.3437  -27.2713   17.4509 C   0  0  0  0  0  0  0  0  0  0  0  0
  -21.5369  -27.1537   22.5767 C   0  0  0  0  0  0  0  0  0  0  0  0
  -19.7309  -26.0297   21.2564 C   0  0  0  0  0  0  0  0  0  0  0  0
  -19.2852  -28.2207   22.3626 C   0  0  0  0  0  0  0  0  0  0  0  0
  -20.5524  -13.1781   21.0015 C   0  0  0  0  0  0  0  0  0  0  0  0
  -27.6146  -22.3646   21.5142 C   0  0  0  0  0  0  0  0  0  0  0  0
  -19.7336  -29.6445   15.6811 C   0  0  0  0  0  0  0  0  0  0  0  0
  -28.4923  -19.4578   20.6803 C   0  0  0  0  0  0  0  0  0  0  0  0
  -28.5241  -24.0314   20.0420 C   0  0  0  0  0  0  0  0  0  0  0  0
  -27.4693  -25.1153   20.2032 C   0  0  0  0  0  0  0  0  0  1  0  0
  -20.7711  -28.1438   20.3186 C   0  0  1  0  0  0  0  0  0  0  0  0
  -18.4114  -28.3503   17.3591 C   0  0  2  0  0  0  0  0  0  0  0  0
  -20.3554  -27.3948   21.6161 C   0  0  0  0  0  0  0  0  0  0  0  0
  -22.6314   -6.3061   23.8785 N   0  0  0  0  0  0  0  0  0  0  0  0
  -22.0556   -6.3772   22.6664 N   0  0  0  0  0  0  0  0  0  0  0  0
  -24.7605  -15.1919   21.1890 N   0  0  0  0  0  0  0  0  0  0  0  0
  -22.8052  -29.4786   20.7713 N   0  0  0  0  0  0  0  0  0  0  0  0
  -22.4265  -10.1141   21.9535 N   0  0  0  0  0  0  0  0  0  0  0  0
  -20.7491   -5.1463   21.1208 N   0  0  0  0  0  0  0  0  0  0  0  0
  -21.7727   -1.9821   22.9470 N   0  0  0  0  0  0  0  0  0  0  0  0
  -23.5070  -31.7614   23.4219 N   0  0  0  0  0  0  0  0  0  0  0  0
  -19.6674  -28.4098   19.4024 N   0  0  0  0  0  0  0  0  0  0  0  0
  -21.6496  -12.3151   21.4157 N   0  0  0  0  0  0  0  0  0  0  0  0
  -27.9370  -22.7015   20.1258 N   0  0  1  0  0  0  0  0  0  0  0  0
  -28.2614  -20.2967   19.4623 N   0  3  2  0  0  0  0  0  0  0  0  0
  -18.7151  -28.5896   15.9198 N   0  3  0  0  0  0  0  0  0  0  0  0
  -19.8531   -2.8103   23.8894 O   0  0  0  0  0  0  0  0  0  0  0  0
  -23.7869  -29.4576   23.2305 O   0  0  0  0  0  0  0  0  0  0  0  0
  -20.7058  -30.4882   20.6738 O   0  0  0  0  0  0  0  0  0  0  0  0
  -20.5663  -27.2818   17.5868 O   0  0  0  0  0  0  0  0  0  0  0  0
  -20.2213  -10.7120   22.2507 O   0  0  0  0  0  0  0  0  0  0  0  0
  -24.0343   -3.2704   29.2978 O   0  0  0  0  0  0  0  0  0  0  0  0
  -28.1063  -26.3900   20.1292 O   0  0  0  0  0  0  0  0  0  1  0  0
  -28.0364   -6.1171   31.8044 F   0  0  0  0  0  0  0  0  0  0  0  0
  -27.3763  -14.7262   20.3761 F   0  0  0  0  0  0  0  0  0  0  0  0
  -26.4381   -2.0682   29.9451 F   0  0  0  0  0  0  0  0  0  0  0  0
  1  2  1  0  0  0  0
  1  5  2  0  0  0  0
  2  6  2  0  0  0  0
  3 10  2  0  0  0  0
  3 18  1  0  0  0  0
  4 11  1  0  0  0  0
  4 18  2  0  0  0  0
  5 20  1  0  0  0  0
  6 22  1  0  0  0  0
  7 12  2  0  0  0  0
  7 21  1  0  0  0  0
  8  9  2  0  0  0  0
  8 24  1  0  0  0  0
  9 25  1  0  0  0  0
 10 26  1  0  0  0  0
 11 26  2  0  0  0  0
 12 27  1  0  0  0  0
 13 14  2  0  0  0  0
 13 28  1  0  0  0  0
 14 29  1  0  0  0  0
 15 23  1  0  0  0  0
 15 27  2  0  0  0  0
 16 24  2  0  0  0  0
 16 30  1  0  0  0  0
 17 29  2  0  0  0  0
 17 31  1  0  0  0  0
 18 32  1  0  0  0  0
 19 32  1  0  0  0  0
 19 33  2  0  0  0  0
 19 34  1  0  0  0  0
 20 22  2  0  0  0  0
 20 39  1  0  0  0  0
 21 23  2  0  0  0  0
 21 40  1  0  0  0  0
 22 55  1  0  0  0  0
 23 41  1  0  0  0  0
 24 67  1  0  0  0  0
 25 30  2  0  0  0  0
 25 75  1  0  0  0  0
 26 91  1  0  0  0  0
 27 92  1  0  0  0  0
 28 31  2  0  0  0  0
 28 91  1  0  0  0  0
 29 93  1  0  0  0  0
 30 94  1  0  0  0  0
 31 95  1  0  0  0  0
 32 73  2  0  0  0  0
 33 74  1  0  0  0  0
 33 78  1  0  0  0  0
 34 79  1  0  0  0  0
 34 86  2  0  0  0  0
 35 56  1  0  0  0  0
 35 80  1  0  0  0  0
 35 87  2  0  0  0  0
 36 70  1  0  0  0  0
 36 76  1  0  0  0  0
 36 88  2  0  0  0  0
 37 71  1  0  0  0  0
 37 81  1  0  0  0  0
 37 89  2  0  0  0  0
 38 77  1  0  0  0  0
 38 82  1  0  0  0  0
 38 90  2  0  0  0  0
 39 42  1  0  0  0  0
 40 56  1  0  0  0  0
 41 76  1  0  0  0  0
 42 45  1  0  0  0  0
 43 46  1  0  0  0  0
 43 50  1  0  0  0  0
 44 47  1  0  0  0  0
 44 54  1  0  0  0  0
 45 55  1  0  0  0  0
 46 57  1  0  0  0  0
 47 59  1  0  0  0  0
 48 51  1  0  0  0  0
 48 58  1  0  0  0  0
 49 52  1  0  0  0  0
 49 58  1  0  0  0  0
 50 77  1  0  0  0  0
 51 75  1  0  0  0  0
 52 75  1  0  0  0  0
 53 57  1  0  0  0  0
 53 77  1  0  0  0  0
 54 84  1  0  0  0  0
 55 80  1  0  0  0  0
 56 76  1  0  0  0  0
 57 74  1  0  0  0  0
 58 82  1  0  0  0  0
 59 83  1  0  0  0  0
 59 84  1  0  0  0  0
 60 71  1  0  0  0  0
 61 72  1  0  0  0  0
 62 72  1  0  0  0  0
 63 72  1  0  0  0  0
 64 82  1  0  0  0  0
 65 83  1  0  0  0  0
 66 85  1  0  0  0  0
 67 84  1  0  0  0  0
 68 69  1  0  0  0  0
 68 83  1  0  0  0  0
 69 92  1  0  0  0  0
 70 72  1  0  0  0  0
 70 81  1  0  0  0  0
 71 85  1  0  0  0  0
 73 74  1  0  0  0  0
M  CHG  2  84   1  85   1
M  ISO  4  38 100  69 101  82 100  92 101
M  END
> <Batch ID>
0013

> <Smiles>
CNC(C)C(=O)NC(C(=O)N1Cc2cc([101O:1][101CH2:1]CN(C)C3CCCN3Cc3ccc(N4CCC([100N:0](C)[100C:0](=O)N5CCCC(n6nc(-c7ccc(Oc8ccc(F)cc8F)cc7)c(C(N)=O)c6N)C5)CC4)c(F)c3)ccc2CC1C(=O)NC1CCCc2ccccc21)C(C)(C)C

> <Shape>
0.276

> <Color>
0.077

> <Negative vol penalty>
0.000

$$$$

  -OEChem-04042320483D

 83 92  0     1  0  0  0  0  0999 V2000
  -27.5490  -34.3165   25.5178 C   0  0  0  0  0  0  0  0  0  0  0  0
  -28.0726  -33.0487   25.2858 C   0  0  0  0  0  0  0  0  0  0  0  0
  -23.1626   -9.7560   19.9100 C   0  0  0  0  0  0  0  0  0  0  0  0
  -23.9124   -9.7760   22.2066 C   0  0  0  0  0  0  0  0  0  0  0  0
  -26.2331  -34.6028   25.1569 C   0  0  0  0  0  0  0  0  0  0  0  0
  -27.2802  -32.0660   24.6937 C   0  0  0  0  0  0  0  0  0  0  0  0
  -29.1225  -27.6817   20.8350 C   0  0  0  0  0  0  0  0  0  0  0  0
  -30.9477  -19.3500   20.7005 C   0  0  0  0  0  0  0  0  0  0  0  0
  -30.8454  -17.9591   20.6808 C   0  0  0  0  0  0  0  0  0  0  0  0
  -22.4747   -8.5656   20.1449 C   0  0  0  0  0  0  0  0  0  0  0  0
  -23.2244   -8.5855   22.4416 C   0  0  0  0  0  0  0  0  0  0  0  0
  -29.4390  -26.3372   21.0250 C   0  0  0  0  0  0  0  0  0  0  0  0
  -20.0366   -7.6256   23.0218 C   0  0  0  0  0  0  0  0  0  0  0  0
  -19.2780   -7.5367   24.1889 C   0  0  0  0  0  0  0  0  0  0  0  0
  -27.2010  -25.7236   20.3661 C   0  0  0  0  0  0  0  0  0  0  0  0
  -29.3027  -19.4461   22.4673 C   0  0  0  0  0  0  0  0  0  0  0  0
  -20.6093   -5.6543   24.9109 C   0  0  0  0  0  0  0  0  0  0  0  0
  -23.8815  -10.3613   20.9409 C   0  0  0  0  0  0  0  0  0  0  0  0
  -24.1006  -12.9011   20.8482 C   0  0  0  0  0  0  0  0  0  0  0  0
  -25.4271  -33.6259   24.5512 C   0  0  0  0  0  0  0  0  0  0  0  0
  -27.8375  -28.0585   20.4190 C   0  0  0  0  0  0  0  0  0  0  0  0
  -25.9518  -32.3390   24.3255 C   0  0  0  0  0  0  0  0  0  0  0  0
  -26.8715  -27.0733   20.1692 C   0  0  0  0  0  0  0  0  0  0  0  0
  -30.1764  -20.0935   21.5938 C   0  0  0  0  0  0  0  0  0  0  0  0
  -29.9717  -17.3116   21.5544 C   0  0  0  0  0  0  0  0  0  0  0  0
  -22.5056   -7.9803   21.4107 C   0  0  0  0  0  0  0  0  0  0  0  0
  -28.4773  -25.3581   20.7933 C   0  0  0  0  0  0  0  0  0  0  0  0
  -21.0815   -6.7288   22.7992 C   0  0  0  0  0  0  0  0  0  0  0  0
  -19.5643   -6.5511   25.1335 C   0  0  0  0  0  0  0  0  0  0  0  0
  -29.2004  -18.0551   22.4476 C   0  0  0  0  0  0  0  0  0  0  0  0
  -21.3679   -5.7432   23.7437 C   0  0  0  0  0  0  0  0  0  0  0  0
  -24.5927  -11.5907   20.6987 C   0  0  0  0  0  0  0  0  0  0  0  0
  -25.1564  -13.7065   20.4974 C   0  0  0  0  0  0  0  0  0  0  0  0
  -22.8049  -13.3502   21.2668 C   0  0  0  0  0  0  0  0  0  0  0  0
  -25.4986  -29.8105   21.6695 C   0  0  0  0  0  0  0  0  0  0  0  0
  -24.1193  -29.3325   18.7727 C   0  0  0  0  0  0  0  0  0  0  0  0
  -23.8767  -27.4143   15.9605 C   0  0  0  0  0  0  0  0  0  0  0  0
  -30.5646  -15.0146   20.7066 C   0  0  0  0  0  0  0  0  0  0  0  0
  -23.9957  -33.9680   24.2217 C   0  0  0  0  0  0  0  0  0  0  0  0
  -27.5200  -29.5113   20.1929 C   0  0  0  0  0  0  0  0  0  0  0  0
  -25.4834  -27.4242   19.7019 C   0  0  0  0  0  0  0  0  0  0  0  0
  -23.3405  -32.9828   23.2571 C   0  0  0  0  0  0  0  0  0  0  0  0
  -29.5780  -12.5743   18.3089 C   0  0  0  0  0  0  0  0  0  0  0  0
  -23.6263  -31.5468   23.6849 C   0  0  0  0  0  0  0  0  0  0  0  0
  -28.1526  -12.2087   18.7292 C   0  0  0  0  0  0  0  0  0  0  0  0
  -31.1393  -23.6438   21.3325 C   0  0  0  0  0  0  0  0  0  0  0  0
  -30.4762  -12.8348   19.5168 C   0  0  0  0  0  0  0  0  0  0  0  0
  -31.1624  -22.2347   20.7404 C   0  0  0  0  0  0  0  0  0  0  0  0
  -28.5310  -13.4513   20.8971 C   0  0  0  0  0  0  0  0  0  0  0  0
  -29.5082  -22.3341   22.5080 C   0  0  0  0  0  0  0  0  0  0  0  0
  -25.1313  -31.2538   23.6627 C   0  0  1  0  0  0  0  0  0  0  0  0
  -26.0265  -29.8144   20.2627 C   0  0  1  0  0  0  0  0  0  0  0  0
  -27.5723  -13.2433   19.7133 C   0  0  2  0  0  0  0  0  0  0  0  0
  -29.7600  -23.7412   21.9679 C   0  0  2  0  0  0  0  0  0  1  0  0
  -22.6355  -27.2556   13.7853 C   0  0  0  0  0  0  0  0  0  0  0  0
  -21.6615  -28.2954   20.2537 C   0  0  0  0  0  0  0  0  0  0  0  0
  -20.8730  -27.2921   18.0997 C   0  0  0  0  0  0  0  0  0  0  0  0
  -21.1558  -29.7630   18.2929 C   0  0  0  0  0  0  0  0  0  0  0  0
  -26.3705  -27.6620   14.3860 C   0  0  0  0  0  0  0  0  0  0  0  0
  -23.2046  -28.2858   18.1838 C   0  0  1  0  0  0  0  0  0  0  0  0
  -23.8776  -27.7815   14.4875 C   0  0  2  0  0  0  0  0  0  0  0  0
  -21.7492  -28.4023   18.7182 C   0  0  0  0  0  0  0  0  0  0  0  0
  -25.8624  -11.5608   20.2850 N   0  0  0  0  0  0  0  0  0  0  0  0
  -26.1769  -12.8624   20.1714 N   0  0  0  0  0  0  0  0  0  0  0  0
  -30.2780  -21.4687   21.6135 N   0  0  3  0  0  0  0  0  0  0  0  0
  -25.2196  -28.8587   19.5013 N   0  0  0  0  0  0  0  0  0  0  0  0
  -29.8644  -13.8280   20.4023 N   0  0  0  0  0  0  0  0  0  0  0  0
  -25.3021  -15.0473   20.4389 N   0  0  0  0  0  0  0  0  0  0  0  0
  -21.8371  -12.3895   21.5904 N   0  0  0  0  0  0  0  0  0  0  0  0
  -29.8698  -15.8985   21.5316 N   0  0  0  0  0  0  0  0  0  0  0  0
  -25.5836  -31.0343   22.3056 N   0  0  0  0  0  0  0  0  0  0  0  0
  -23.3210  -28.4106   16.7349 N   0  0  0  0  0  0  0  0  0  0  0  0
  -25.0769  -27.2102   13.8120 N   0  3  0  0  0  0  0  0  0  0  0  0
  -22.5089  -14.5673   21.3357 O   0  0  0  0  0  0  0  0  0  0  0  0
  -25.0463  -28.7744   22.1423 O   0  0  0  0  0  0  0  0  0  0  0  0
  -23.8709  -30.5263   18.5869 O   0  0  0  0  0  0  0  0  0  0  0  0
  -24.3210  -26.3485   16.3815 O   0  0  0  0  0  0  0  0  0  0  0  0
  -31.6859  -15.2428   20.2457 O   0  0  0  0  0  0  0  0  0  0  0  0
  -21.8343   -6.8188   21.6403 O   0  0  0  0  0  0  0  0  0  0  0  0
  -28.7834  -24.0452   20.9786 O   0  0  0  0  0  0  0  0  0  1  0  0
  -18.8367   -6.4668   26.2549 F   0  0  0  0  0  0  0  0  0  0  0  0
  -28.3571  -17.4432   23.2914 F   0  0  0  0  0  0  0  0  0  0  0  0
  -22.3713   -4.8795   23.5360 F   0  0  0  0  0  0  0  0  0  0  0  0
  1  2  1  0  0  0  0
  1  5  2  0  0  0  0
  2  6  2  0  0  0  0
  3 10  2  0  0  0  0
  3 18  1  0  0  0  0
  4 11  1  0  0  0  0
  4 18  2  0  0  0  0
  5 20  1  0  0  0  0
  6 22  1  0  0  0  0
  7 12  2  0  0  0  0
  7 21  1  0  0  0  0
  8  9  2  0  0  0  0
  8 24  1  0  0  0  0
  9 25  1  0  0  0  0
 10 26  1  0  0  0  0
 11 26  2  0  0  0  0
 12 27  1  0  0  0  0
 13 14  2  0  0  0  0
 13 28  1  0  0  0  0
 14 29  1  0  0  0  0
 15 23  1  0  0  0  0
 15 27  2  0  0  0  0
 16 24  2  0  0  0  0
 16 30  1  0  0  0  0
 17 29  2  0  0  0  0
 17 31  1  0  0  0  0
 18 32  1  0  0  0  0
 19 32  1  0  0  0  0
 19 33  2  0  0  0  0
 19 34  1  0  0  0  0
 20 22  2  0  0  0  0
 20 39  1  0  0  0  0
 21 23  2  0  0  0  0
 21 40  1  0  0  0  0
 22 51  1  0  0  0  0
 23 41  1  0  0  0  0
 24 65  1  0  0  0  0
 25 30  2  0  0  0  0
 25 70  1  0  0  0  0
 26 79  1  0  0  0  0
 27 80  1  0  0  0  0
 28 31  2  0  0  0  0
 28 79  1  0  0  0  0
 29 81  1  0  0  0  0
 30 82  1  0  0  0  0
 31 83  1  0  0  0  0
 32 63  2  0  0  0  0
 33 64  1  0  0  0  0
 33 68  1  0  0  0  0
 34 69  1  0  0  0  0
 34 74  2  0  0  0  0
 35 52  1  0  0  0  0
 35 71  1  0  0  0  0
 35 75  2  0  0  0  0
 36 60  1  0  0  0  0
 36 66  1  0  0  0  0
 36 76  2  0  0  0  0
 37 61  1  0  0  0  0
 37 72  1  0  0  0  0
 37 77  2  0  0  0  0
 38 67  1  0  0  0  0
 38 70  1  0  0  0  0
 38 78  2  0  0  0  0
 39 42  1  0  0  0  0
 40 52  1  0  0  0  0
 41 66  1  0  0  0  0
 42 44  1  0  0  0  0
 43 45  1  0  0  0  0
 43 47  1  0  0  0  0
 44 51  1  0  0  0  0
 45 53  1  0  0  0  0
 46 48  1  0  0  0  0
 46 54  1  0  0  0  0
 47 67  1  0  0  0  0
 48 65  1  0  0  0  0
 49 53  1  0  0  0  0
 49 67  1  0  0  0  0
 50 54  1  0  0  0  0
 50 65  1  0  0  0  0
 51 71  1  0  0  0  0
 52 66  1  0  0  0  0
 53 64  1  0  0  0  0
 54 80  1  0  0  0  0
 55 61  1  0  0  0  0
 56 62  1  0  0  0  0
 57 62  1  0  0  0  0
 58 62  1  0  0  0  0
 59 73  1  0  0  0  0
 60 62  1  0  0  0  0
 60 72  1  0  0  0  0
 61 73  1  0  0  0  0
 63 64  1  0  0  0  0
M  CHG  1  73   1
M  ISO  4  38 100  54 101  70 100  80 101
M  END
> <Batch ID>
0013

> <Smiles>
CNC(C)C(=O)NC(C(=O)N1Cc2cc([101O:1][101CH:1]3CCN(c4ccc([100NH:0][100C:0](=O)N5CCCC(n6nc(-c7ccc(Oc8ccc(F)cc8F)cc7)c(C(N)=O)c6N)C5)c(F)c4)C3)ccc2CC1C(=O)NC1CCCc2ccccc21)C(C)(C)C

> <Shape>
0.353

> <Color>
0.208

> <Negative vol penalty>
0.000

$$$$

  -OEChem-04042320483D

 82 90  0     1  0  0  0  0  0999 V2000
  -19.9718  -28.8396   25.1160 C   0  0  0  0  0  0  0  0  0  0  0  0
  -19.9023  -27.8938   24.0981 C   0  0  0  0  0  0  0  0  0  0  0  0
  -23.7096  -15.8855   21.6585 C   0  0  0  0  0  0  0  0  0  0  0  0
  -23.0042  -15.1455   19.4694 C   0  0  0  0  0  0  0  0  0  0  0  0
  -20.9122  -29.8667   25.0487 C   0  0  0  0  0  0  0  0  0  0  0  0
  -20.7727  -27.9753   23.0117 C   0  0  0  0  0  0  0  0  0  0  0  0
  -25.2293  -22.5456   21.4153 C   0  0  0  0  0  0  0  0  0  0  0  0
  -31.1108  -16.0547   20.2067 C   0  0  0  0  0  0  0  0  0  0  0  0
  -22.8777  -16.9998   21.5499 C   0  0  0  0  0  0  0  0  0  0  0  0
  -22.1723  -16.2599   19.3608 C   0  0  0  0  0  0  0  0  0  0  0  0
  -25.9616  -21.4666   20.9197 C   0  0  0  0  0  0  0  0  0  0  0  0
  -30.8253  -17.3552   19.7912 C   0  0  0  0  0  0  0  0  0  0  0  0
  -20.6676  -19.8506   22.0006 C   0  0  0  0  0  0  0  0  0  0  0  0
  -19.8840  -20.1851   23.1050 C   0  0  0  0  0  0  0  0  0  0  0  0
  -26.8402  -22.8617   19.1506 C   0  0  0  0  0  0  0  0  0  0  0  0
  -29.7801  -17.8066   21.9221 C   0  0  0  0  0  0  0  0  0  0  0  0
  -18.8011  -18.0284   22.9898 C   0  0  0  0  0  0  0  0  0  0  0  0
  -23.7728  -14.9583   20.6182 C   0  0  0  0  0  0  0  0  0  0  0  0
  -24.3008  -12.5470   21.2622 C   0  0  0  0  0  0  0  0  0  0  0  0
  -21.8010  -29.9552   23.9657 C   0  0  0  0  0  0  0  0  0  0  0  0
  -25.3118  -23.7922   20.7887 C   0  0  0  0  0  0  0  0  0  0  0  0
  -21.7250  -29.0053   22.9292 C   0  0  0  0  0  0  0  0  0  0  0  0
  -26.1187  -23.9493   19.6499 C   0  0  0  0  0  0  0  0  0  0  0  0
  -30.7309  -15.6301   21.4799 C   0  0  0  0  0  0  0  0  0  0  0  0
  -22.1091  -17.1871   20.4010 C   0  0  0  0  0  0  0  0  0  0  0  0
  -26.7648  -21.6242   19.7900 C   0  0  0  0  0  0  0  0  0  0  0  0
  -30.1600  -18.2312   20.6489 C   0  0  0  0  0  0  0  0  0  0  0  0
  -20.5178  -18.6051   21.3907 C   0  0  0  0  0  0  0  0  0  0  0  0
  -18.9508  -19.2740   23.5997 C   0  0  0  0  0  0  0  0  0  0  0  0
  -30.0655  -16.5060   22.3376 C   0  0  0  0  0  0  0  0  0  0  0  0
  -19.5846  -17.6940   21.8854 C   0  0  0  0  0  0  0  0  0  0  0  0
  -24.6324  -13.8073   20.7296 C   0  0  0  0  0  0  0  0  0  0  0  0
  -25.4524  -11.8087   21.1397 C   0  0  0  0  0  0  0  0  0  0  0  0
  -23.0624  -12.0851   21.8179 C   0  0  0  0  0  0  0  0  0  0  0  0
  -24.2246  -27.3827   20.7446 C   0  0  0  0  0  0  0  0  0  0  0  0
  -27.2131  -27.3481   20.0532 C   0  0  0  0  0  0  0  0  0  0  0  0
  -30.5823  -26.9125   19.7437 C   0  0  0  0  0  0  0  0  0  0  0  0
  -31.1003  -13.2206   20.9805 C   0  0  0  0  0  0  0  0  0  0  0  0
  -22.7689  -31.1106   23.9135 C   0  0  0  0  0  0  0  0  0  0  0  0
  -24.4929  -24.9666   21.2514 C   0  0  0  0  0  0  0  0  0  0  0  0
  -26.1498  -25.2998   18.9880 C   0  0  0  0  0  0  0  0  0  0  0  0
  -23.9043  -30.9093   22.9131 C   0  0  0  0  0  0  0  0  0  0  0  0
  -29.3816  -11.4026   18.4538 C   0  0  0  0  0  0  0  0  0  0  0  0
  -23.3587  -30.4048   21.5809 C   0  0  0  0  0  0  0  0  0  0  0  0
  -27.9242  -11.7035   18.8017 C   0  0  0  0  0  0  0  0  0  0  0  0
  -30.2797  -12.6254   18.6441 C   0  0  0  0  0  0  0  0  0  0  0  0
  -28.7235  -13.5412   20.3364 C   0  0  0  0  0  0  0  0  0  0  0  0
  -22.6684  -29.0456   21.7466 C   0  0  1  0  0  0  0  0  0  0  0  0
  -25.2202  -26.3128   21.0842 C   0  0  1  0  0  0  0  0  0  0  0  0
  -27.8072  -12.3141   20.2094 C   0  0  1  0  0  0  0  0  0  0  0  0
  -32.7090  -28.1941   19.3800 C   0  0  0  0  0  0  0  0  0  0  0  0
  -26.5120  -27.6667   17.1018 C   0  0  0  0  0  0  0  0  0  0  0  0
  -28.9431  -28.0449   16.6382 C   0  0  0  0  0  0  0  0  0  0  0  0
  -27.6954  -29.6253   18.1106 C   0  0  0  0  0  0  0  0  0  0  0  0
  -31.4933  -14.0715   23.2820 C   0  0  0  0  0  0  0  0  0  0  0  0
  -31.6993  -26.0208   22.3352 C   0  0  0  0  0  0  0  0  0  0  0  0
  -28.7094  -20.8629   18.6513 C   0  0  0  0  0  0  0  0  0  1  0  0
  -29.6687  -19.7051   18.8483 C   0  0  0  0  0  0  0  0  0  0  0  0
  -28.2603  -27.3153   18.9689 C   0  0  1  0  0  0  0  0  0  0  0  0
  -31.7539  -27.6110   20.4099 C   0  0  2  0  0  0  0  0  0  0  0  0
  -27.8440  -28.1393   17.7178 C   0  0  0  0  0  0  0  0  0  0  0  0
  -25.8958  -13.8696   20.3008 N   0  0  0  0  0  0  0  0  0  0  0  0
  -26.3683  -12.6393   20.5640 N   0  0  0  0  0  0  0  0  0  0  0  0
  -26.2246  -26.3575   20.0080 N   0  0  0  0  0  0  0  0  0  0  0  0
  -30.1038  -13.1973   19.9865 N   0  0  0  0  0  0  0  0  0  0  0  0
  -25.7609  -10.5365   21.4696 N   0  0  0  0  0  0  0  0  0  0  0  0
  -21.9796  -12.9736   21.8673 N   0  0  0  0  0  0  0  0  0  0  0  0
  -23.6515  -27.9883   21.8466 N   0  0  0  0  0  0  0  0  0  0  0  0
  -29.5042  -27.7582   19.5893 N   0  0  0  0  0  0  0  0  0  0  0  0
  -31.0279  -14.2830   21.9071 N   0  0  0  0  0  0  0  0  0  0  0  0
  -32.5112  -26.6524   21.2634 N   0  3  0  0  0  0  0  0  0  0  0  0
  -22.9251  -10.9241   22.2726 O   0  0  0  0  0  0  0  0  0  0  0  0
  -23.9935  -27.6419   19.5694 O   0  0  0  0  0  0  0  0  0  0  0  0
  -27.2644  -28.2303   20.9148 O   0  0  0  0  0  0  0  0  0  0  0  0
  -30.6210  -25.7356   19.3918 O   0  0  0  0  0  0  0  0  0  0  0  0
  -31.9718  -12.3457   21.0510 O   0  0  0  0  0  0  0  0  0  0  0  0
  -21.2971  -18.2742   20.2948 O   0  0  0  0  0  0  0  0  0  0  0  0
  -27.4806  -20.5678   19.3141 O   0  0  0  0  0  0  0  0  0  1  0  0
  -29.8806  -19.5090   20.2411 O   0  0  0  0  0  0  0  0  0  0  0  0
  -18.1995  -19.5947   24.6612 F   0  0  0  0  0  0  0  0  0  0  0  0
  -29.6953  -16.1085   23.5633 F   0  0  0  0  0  0  0  0  0  0  0  0
  -19.4371  -16.4954   21.3044 F   0  0  0  0  0  0  0  0  0  0  0  0
  1  2  1  0  0  0  0
  1  5  2  0  0  0  0
  2  6  2  0  0  0  0
  3  9  2  0  0  0  0
  3 18  1  0  0  0  0
  4 10  1  0  0  0  0
  4 18  2  0  0  0  0
  5 20  1  0  0  0  0
  6 22  1  0  0  0  0
  7 11  2  0  0  0  0
  7 21  1  0  0  0  0
  8 12  2  0  0  0  0
  8 24  1  0  0  0  0
  9 25  1  0  0  0  0
 10 25  2  0  0  0  0
 11 26  1  0  0  0  0
 12 27  1  0  0  0  0
 13 14  2  0  0  0  0
 13 28  1  0  0  0  0
 14 29  1  0  0  0  0
 15 23  1  0  0  0  0
 15 26  2  0  0  0  0
 16 27  2  0  0  0  0
 16 30  1  0  0  0  0
 17 29  2  0  0  0  0
 17 31  1  0  0  0  0
 18 32  1  0  0  0  0
 19 32  1  0  0  0  0
 19 33  2  0  0  0  0
 19 34  1  0  0  0  0
 20 22  2  0  0  0  0
 20 39  1  0  0  0  0
 21 23  2  0  0  0  0
 21 40  1  0  0  0  0
 22 48  1  0  0  0  0
 23 41  1  0  0  0  0
 24 30  2  0  0  0  0
 24 70  1  0  0  0  0
 25 77  1  0  0  0  0
 26 78  1  0  0  0  0
 27 79  1  0  0  0  0
 28 31  2  0  0  0  0
 28 77  1  0  0  0  0
 29 80  1  0  0  0  0
 30 81  1  0  0  0  0
 31 82  1  0  0  0  0
 32 62  2  0  0  0  0
 33 63  1  0  0  0  0
 33 66  1  0  0  0  0
 34 67  1  0  0  0  0
 34 72  2  0  0  0  0
 35 49  1  0  0  0  0
 35 68  1  0  0  0  0
 35 73  2  0  0  0  0
 36 59  1  0  0  0  0
 36 64  1  0  0  0  0
 36 74  2  0  0  0  0
 37 60  1  0  0  0  0
 37 69  1  0  0  0  0
 37 75  2  0  0  0  0
 38 65  1  0  0  0  0
 38 70  1  0  0  0  0
 38 76  2  0  0  0  0
 39 42  1  0  0  0  0
 40 49  1  0  0  0  0
 41 64  1  0  0  0  0
 42 44  1  0  0  0  0
 43 45  1  0  0  0  0
 43 46  1  0  0  0  0
 44 48  1  0  0  0  0
 45 50  1  0  0  0  0
 46 65  1  0  0  0  0
 47 50  1  0  0  0  0
 47 65  1  0  0  0  0
 48 68  1  0  0  0  0
 49 64  1  0  0  0  0
 50 63  1  0  0  0  0
 51 60  1  0  0  0  0
 52 61  1  0  0  0  0
 53 61  1  0  0  0  0
 54 61  1  0  0  0  0
 55 70  1  0  0  0  0
 56 71  1  0  0  0  0
 57 58  1  0  0  0  0
 57 78  1  0  0  0  0
 58 79  1  0  0  0  0
 59 61  1  0  0  0  0
 59 69  1  0  0  0  0
 60 71  1  0  0  0  0
 62 63  1  0  0  0  0
M  CHG  1  71   1
M  ISO  4  38 100  57 101  70 100  78 101
M  END
> <Batch ID>
0013

> <Smiles>
CNC(C)C(=O)NC(C(=O)N1Cc2cc([101O:1][101CH2:1]COc3ccc([100N:0](C)[100C:0](=O)N4CCCC(n5nc(-c6ccc(Oc7ccc(F)cc7F)cc6)c(C(N)=O)c5N)C4)c(F)c3)ccc2CC1C(=O)NC1CCCc2ccccc21)C(C)(C)C

> <Shape>
0.265

> <Color>
0.084

> <Negative vol penalty>
0.000

$$$$

  -OEChem-04042320483D

 81 89  0     1  0  0  0  0  0999 V2000
  -17.7155  -33.3419   18.0836 C   0  0  0  0  0  0  0  0  0  0  0  0
  -18.9138  -32.9824   17.4751 C   0  0  0  0  0  0  0  0  0  0  0  0
  -24.8012  -10.2786   22.6259 C   0  0  0  0  0  0  0  0  0  0  0  0
  -24.4888  -11.7693   24.5013 C   0  0  0  0  0  0  0  0  0  0  0  0
  -17.7254  -33.9232   19.3508 C   0  0  0  0  0  0  0  0  0  0  0  0
  -20.1229  -33.2051   18.1332 C   0  0  0  0  0  0  0  0  0  0  0  0
  -24.6112  -27.7615   19.5870 C   0  0  0  0  0  0  0  0  0  0  0  0
  -29.5131  -20.7821   21.9189 C   0  0  0  0  0  0  0  0  0  0  0  0
  -24.3855   -9.2034   23.4112 C   0  0  0  0  0  0  0  0  0  0  0  0
  -24.0729  -10.6941   25.2866 C   0  0  0  0  0  0  0  0  0  0  0  0
  -25.6185  -26.8047   19.7133 C   0  0  0  0  0  0  0  0  0  0  0  0
  -29.3851  -22.1504   22.1577 C   0  0  0  0  0  0  0  0  0  0  0  0
  -21.4645   -7.9153   24.5255 C   0  0  0  0  0  0  0  0  0  0  0  0
  -20.5567   -7.0164   23.9656 C   0  0  0  0  0  0  0  0  0  0  0  0
  -27.0248  -28.4182   20.8389 C   0  0  0  0  0  0  0  0  0  0  0  0
  -27.1423  -20.6374   21.4769 C   0  0  0  0  0  0  0  0  0  0  0  0
  -22.1505   -5.2245   24.2582 C   0  0  0  0  0  0  0  0  0  0  0  0
  -24.8529  -11.5615   23.1710 C   0  0  0  0  0  0  0  0  0  0  0  0
  -24.4755  -13.5061   21.5635 C   0  0  0  0  0  0  0  0  0  0  0  0
  -18.9346  -34.1443   20.0288 C   0  0  0  0  0  0  0  0  0  0  0  0
  -24.8012  -29.0475   20.1004 C   0  0  0  0  0  0  0  0  0  0  0  0
  -20.1490  -33.7912   19.4101 C   0  0  0  0  0  0  0  0  0  0  0  0
  -26.0146  -29.3772   20.7264 C   0  0  0  0  0  0  0  0  0  0  0  0
  -28.3917  -20.0256   21.5784 C   0  0  0  0  0  0  0  0  0  0  0  0
  -24.0213   -9.4111   24.7416 C   0  0  0  0  0  0  0  0  0  0  0  0
  -26.8224  -27.1323   20.3375 C   0  0  0  0  0  0  0  0  0  0  0  0
  -22.7154   -7.4688   24.9517 C   0  0  0  0  0  0  0  0  0  0  0  0
  -28.1357  -22.7621   22.0562 C   0  0  0  0  0  0  0  0  0  0  0  0
  -20.8997   -5.6710   23.8320 C   0  0  0  0  0  0  0  0  0  0  0  0
  -27.0143  -22.0057   21.7158 C   0  0  0  0  0  0  0  0  0  0  0  0
  -23.0584   -6.1234   24.8181 C   0  0  0  0  0  0  0  0  0  0  0  0
  -25.2829  -12.6725   22.3604 C   0  0  0  0  0  0  0  0  0  0  0  0
  -25.3542  -14.3993   21.0010 C   0  0  0  0  0  0  0  0  0  0  0  0
  -23.0579  -13.4758   21.3509 C   0  0  0  0  0  0  0  0  0  0  0  0
  -23.3724  -32.4735   20.6455 C   0  0  0  0  0  0  0  0  0  0  0  0
  -24.8881  -31.7227   23.2046 C   0  0  0  0  0  0  0  0  0  0  0  0
  -26.3005  -30.3471   25.9886 C   0  0  0  0  0  0  0  0  0  0  0  0
  -29.6878  -17.8733   21.3941 C   0  0  0  0  0  0  0  0  0  0  0  0
  -18.8980  -34.8190   21.3772 C   0  0  0  0  0  0  0  0  0  0  0  0
  -23.7676  -30.1278   19.9324 C   0  0  0  0  0  0  0  0  0  0  0  0
  -26.1880  -30.7830   21.2329 C   0  0  0  0  0  0  0  0  0  0  0  0
  -20.1981  -34.6777   22.1645 C   0  0  0  0  0  0  0  0  0  0  0  0
  -30.4150  -14.4228   20.9013 C   0  0  0  0  0  0  0  0  0  0  0  0
  -21.3979  -34.9814   21.2727 C   0  0  0  0  0  0  0  0  0  0  0  0
  -29.0782  -13.7284   21.1714 C   0  0  0  0  0  0  0  0  0  0  0  0
  -30.6319  -15.6163   21.8299 C   0  0  0  0  0  0  0  0  0  0  0  0
  -28.2019  -15.9022   22.1169 C   0  0  0  0  0  0  0  0  0  0  0  0
  -21.4794  -33.9940   20.1023 C   0  0  1  0  0  0  0  0  0  0  0  0
  -23.7025  -31.0923   21.1301 C   0  0  1  0  0  0  0  0  0  0  0  0
  -27.9093  -14.7331   21.1623 C   0  0  2  0  0  0  0  0  0  0  0  0
  -26.8460  -30.8668   28.3823 C   0  0  0  0  0  0  0  0  0  0  0  0
  -27.2368  -33.4417   22.2923 C   0  0  0  0  0  0  0  0  0  0  0  0
  -28.2509  -33.1347   24.5607 C   0  0  0  0  0  0  0  0  0  0  0  0
  -26.0517  -34.2882   24.3254 C   0  0  0  0  0  0  0  0  0  0  0  0
  -24.5818  -28.1504   26.9783 C   0  0  0  0  0  0  0  0  0  0  0  0
  -28.6649  -26.3010   21.5911 C   0  0  0  0  0  0  0  0  0  1  0  0
  -29.1408  -24.9163   21.9857 C   0  0  0  0  0  0  0  0  0  0  0  0
  -26.1840  -31.7882   23.9726 C   0  0  1  0  0  0  0  0  0  0  0  0
  -25.8232  -30.2708   27.4276 C   0  0  2  0  0  0  0  0  0  0  0  0
  -26.9242  -33.1407   23.7717 C   0  0  0  0  0  0  0  0  0  0  0  0
  -26.5752  -13.0063   22.3111 N   0  0  0  0  0  0  0  0  0  0  0  0
  -26.5866  -14.0595   21.4764 N   0  0  0  0  0  0  0  0  0  0  0  0
  -24.9536  -31.2347   21.8939 N   0  0  0  0  0  0  0  0  0  0  0  0
  -29.4868  -16.5270   21.7655 N   0  0  0  0  0  0  0  0  0  0  0  0
  -25.1853  -15.4344   20.1511 N   0  0  0  0  0  0  0  0  0  0  0  0
  -22.3048  -12.4921   22.0063 N   0  0  0  0  0  0  0  0  0  0  0  0
  -28.5216  -18.6356   21.3358 N   0  0  0  0  0  0  0  0  0  0  0  0
  -22.0175  -32.7263   20.5470 N   0  0  0  0  0  0  0  0  0  0  0  0
  -25.8510  -31.4898   25.3613 N   0  0  0  0  0  0  0  0  0  0  0  0
  -25.5846  -28.8529   27.8197 N   0  3  0  0  0  0  0  0  0  0  0  0
  -22.4784  -14.2864   20.5889 O   0  0  0  0  0  0  0  0  0  0  0  0
  -24.2795  -33.2539   20.3813 O   0  0  0  0  0  0  0  0  0  0  0  0
  -23.8455  -32.0986   23.7477 O   0  0  0  0  0  0  0  0  0  0  0  0
  -27.0049  -29.4816   25.4736 O   0  0  0  0  0  0  0  0  0  0  0  0
  -30.8084  -18.3104   21.1197 O   0  0  0  0  0  0  0  0  0  0  0  0
  -23.6153   -8.3622   25.5081 O   0  0  0  0  0  0  0  0  0  0  0  0
  -27.7998  -26.1921   20.4615 O   0  0  0  0  0  0  0  0  0  1  0  0
  -28.0119  -24.1064   22.2905 O   0  0  0  0  0  0  0  0  0  0  0  0
  -20.0272   -4.8077   23.2957 F   0  0  0  0  0  0  0  0  0  0  0  0
  -25.8115  -22.5881   21.6156 F   0  0  0  0  0  0  0  0  0  0  0  0
  -24.2582   -5.6883   25.2268 F   0  0  0  0  0  0  0  0  0  0  0  0
  1  2  1  0  0  0  0
  1  5  2  0  0  0  0
  2  6  2  0  0  0  0
  3  9  2  0  0  0  0
  3 18  1  0  0  0  0
  4 10  1  0  0  0  0
  4 18  2  0  0  0  0
  5 20  1  0  0  0  0
  6 22  1  0  0  0  0
  7 11  2  0  0  0  0
  7 21  1  0  0  0  0
  8 12  2  0  0  0  0
  8 24  1  0  0  0  0
  9 25  1  0  0  0  0
 10 25  2  0  0  0  0
 11 26  1  0  0  0  0
 12 28  1  0  0  0  0
 13 14  2  0  0  0  0
 13 27  1  0  0  0  0
 14 29  1  0  0  0  0
 15 23  1  0  0  0  0
 15 26  2  0  0  0  0
 16 24  2  0  0  0  0
 16 30  1  0  0  0  0
 17 29  2  0  0  0  0
 17 31  1  0  0  0  0
 18 32  1  0  0  0  0
 19 32  1  0  0  0  0
 19 33  2  0  0  0  0
 19 34  1  0  0  0  0
 20 22  2  0  0  0  0
 20 39  1  0  0  0  0
 21 23  2  0  0  0  0
 21 40  1  0  0  0  0
 22 48  1  0  0  0  0
 23 41  1  0  0  0  0
 24 67  1  0  0  0  0
 25 76  1  0  0  0  0
 26 77  1  0  0  0  0
 27 31  2  0  0  0  0
 27 76  1  0  0  0  0
 28 30  2  0  0  0  0
 28 78  1  0  0  0  0
 29 79  1  0  0  0  0
 30 80  1  0  0  0  0
 31 81  1  0  0  0  0
 32 61  2  0  0  0  0
 33 62  1  0  0  0  0
 33 65  1  0  0  0  0
 34 66  1  0  0  0  0
 34 71  2  0  0  0  0
 35 49  1  0  0  0  0
 35 68  1  0  0  0  0
 35 72  2  0  0  0  0
 36 58  1  0  0  0  0
 36 63  1  0  0  0  0
 36 73  2  0  0  0  0
 37 59  1  0  0  0  0
 37 69  1  0  0  0  0
 37 74  2  0  0  0  0
 38 64  1  0  0  0  0
 38 67  1  0  0  0  0
 38 75  2  0  0  0  0
 39 42  1  0  0  0  0
 40 49  1  0  0  0  0
 41 63  1  0  0  0  0
 42 44  1  0  0  0  0
 43 45  1  0  0  0  0
 43 46  1  0  0  0  0
 44 48  1  0  0  0  0
 45 50  1  0  0  0  0
 46 64  1  0  0  0  0
 47 50  1  0  0  0  0
 47 64  1  0  0  0  0
 48 68  1  0  0  0  0
 49 63  1  0  0  0  0
 50 62  1  0  0  0  0
 51 59  1  0  0  0  0
 52 60  1  0  0  0  0
 53 60  1  0  0  0  0
 54 60  1  0  0  0  0
 55 70  1  0  0  0  0
 56 57  1  0  0  0  0
 56 77  1  0  0  0  0
 57 78  1  0  0  0  0
 58 60  1  0  0  0  0
 58 69  1  0  0  0  0
 59 70  1  0  0  0  0
 61 62  1  0  0  0  0
M  CHG  1  70   1
M  ISO  4  38 100  56 101  67 100  77 101
M  END
> <Batch ID>
0013

> <Smiles>
CNC(C)C(=O)NC(C(=O)N1Cc2cc([101O:1][101CH2:1]COc3ccc([100NH:0][100C:0](=O)N4CCCC(n5nc(-c6ccc(Oc7ccc(F)cc7F)cc6)c(C(N)=O)c5N)C4)cc3F)ccc2CC1C(=O)NC1CCCc2ccccc21)C(C)(C)C

> <Shape>
0.265

> <Color>
0.145

> <Negative vol penalty>
0.000

$$$$

  -OEChem-04042320483D

 83 91  0     1  0  0  0  0  0999 V2000
  -36.0471  -28.2137   15.6321 C   0  0  0  0  0  0  0  0  0  0  0  0
  -36.0338  -27.6678   16.9116 C   0  0  0  0  0  0  0  0  0  0  0  0
  -23.4535   -9.7229   21.1217 C   0  0  0  0  0  0  0  0  0  0  0  0
  -24.0909  -10.5180   23.3122 C   0  0  0  0  0  0  0  0  0  0  0  0
  -34.8468  -28.4419   14.9603 C   0  0  0  0  0  0  0  0  0  0  0  0
  -34.8201  -27.3508   17.5206 C   0  0  0  0  0  0  0  0  0  0  0  0
  -33.7146  -22.6676   21.3089 C   0  0  0  0  0  0  0  0  0  0  0  0
  -32.8289  -16.7419   23.2403 C   0  0  0  0  0  0  0  0  0  0  0  0
  -32.3016  -15.7038   22.4724 C   0  0  0  0  0  0  0  0  0  0  0  0
  -22.8269   -8.6211   21.7039 C   0  0  0  0  0  0  0  0  0  0  0  0
  -23.4643   -9.4162   23.8945 C   0  0  0  0  0  0  0  0  0  0  0  0
  -33.6451  -22.5816   22.6987 C   0  0  0  0  0  0  0  0  0  0  0  0
  -21.3694   -5.4104   22.5930 C   0  0  0  0  0  0  0  0  0  0  0  0
  -21.5911   -4.1583   22.0197 C   0  0  0  0  0  0  0  0  0  0  0  0
  -31.2472  -22.8208   22.5875 C   0  0  0  0  0  0  0  0  0  0  0  0
  -31.4823  -16.0370   25.1182 C   0  0  0  0  0  0  0  0  0  0  0  0
  -23.9596   -4.3860   22.4386 C   0  0  0  0  0  0  0  0  0  0  0  0
  -24.0855  -10.6714   21.9258 C   0  0  0  0  0  0  0  0  0  0  0  0
  -24.1580  -13.0618   21.0380 C   0  0  0  0  0  0  0  0  0  0  0  0
  -33.6183  -28.1185   15.5575 C   0  0  0  0  0  0  0  0  0  0  0  0
  -32.5500  -22.8420   20.5474 C   0  0  0  0  0  0  0  0  0  0  0  0
  -33.6022  -27.5760   16.8567 C   0  0  0  0  0  0  0  0  0  0  0  0
  -31.3044  -22.9061   21.1880 C   0  0  0  0  0  0  0  0  0  0  0  0
  -32.4193  -16.9085   24.5633 C   0  0  0  0  0  0  0  0  0  0  0  0
  -31.3646  -14.8322   23.0274 C   0  0  0  0  0  0  0  0  0  0  0  0
  -22.8323   -8.4677   23.0903 C   0  0  0  0  0  0  0  0  0  0  0  0
  -32.4116  -22.6611   23.3384 C   0  0  0  0  0  0  0  0  0  0  0  0
  -22.4427   -6.1503   23.0892 C   0  0  0  0  0  0  0  0  0  0  0  0
  -22.8863   -3.6461   21.9425 C   0  0  0  0  0  0  0  0  0  0  0  0
  -30.9549  -14.9988   24.3503 C   0  0  0  0  0  0  0  0  0  0  0  0
  -23.7378   -5.6381   23.0120 C   0  0  0  0  0  0  0  0  0  0  0  0
  -24.7334  -11.8095   21.3249 C   0  0  0  0  0  0  0  0  0  0  0  0
  -25.1797  -13.7889   20.4777 C   0  0  0  0  0  0  0  0  0  0  0  0
  -22.8196  -13.5264   21.2584 C   0  0  0  0  0  0  0  0  0  0  0  0
  -31.4749  -25.0921   18.5764 C   0  0  0  0  0  0  0  0  0  0  0  0
  -29.0800  -22.9619   18.0772 C   0  0  0  0  0  0  0  0  0  0  0  0
  -27.2717  -20.3110   19.2387 C   0  0  0  0  0  0  0  0  0  0  0  0
  -31.1307  -13.4763   20.9171 C   0  0  0  0  0  0  0  0  0  0  0  0
  -32.3447  -28.4271   14.8109 C   0  0  0  0  0  0  0  0  0  0  0  0
  -32.6393  -22.9061   19.0473 C   0  0  0  0  0  0  0  0  0  0  0  0
  -30.0227  -23.0728   20.4148 C   0  0  0  0  0  0  0  0  0  0  0  0
  -31.1188  -27.7156   15.3776 C   0  0  0  0  0  0  0  0  0  0  0  0
  -29.2011  -13.2511   17.9334 C   0  0  0  0  0  0  0  0  0  0  0  0
  -31.0785  -27.8495   16.8966 C   0  0  0  0  0  0  0  0  0  0  0  0
  -27.7829  -12.9759   18.4386 C   0  0  0  0  0  0  0  0  0  0  0  0
  -30.2539  -12.5457   18.7863 C   0  0  0  0  0  0  0  0  0  0  0  0
  -28.7447  -12.5335   20.7335 C   0  0  0  0  0  0  0  0  0  0  0  0
  -32.3070  -27.1959   17.5408 C   0  0  1  0  0  0  0  0  0  0  0  0
  -31.4410  -23.5995   18.4065 C   0  0  1  0  0  0  0  0  0  0  0  0
  -27.6533  -13.2756   19.9449 C   0  0  2  0  0  0  0  0  0  0  0  0
  -25.3540  -18.8137   18.6238 C   0  0  0  0  0  0  0  0  0  0  0  0
  -27.1186  -25.1963   18.7633 C   0  0  0  0  0  0  0  0  0  0  0  0
  -25.3463  -23.4535   19.0634 C   0  0  0  0  0  0  0  0  0  0  0  0
  -26.4293  -23.7581   16.8370 C   0  0  0  0  0  0  0  0  0  0  0  0
  -28.9871  -17.8998   19.2884 C   0  0  0  0  0  0  0  0  0  0  0  0
  -32.9855  -18.0258   25.3891 C   0  0  0  0  0  0  0  0  0  0  0  0
  -31.4979  -21.3491   26.5742 C   0  0  0  0  0  0  0  0  0  0  0  0
  -32.5346  -20.2429   26.4474 C   0  0  0  0  0  0  0  0  0  0  0  0
  -31.1513  -22.0192   25.2504 C   0  0  0  0  0  0  0  0  0  1  0  0
  -27.7398  -22.6907   18.7172 C   0  0  1  0  0  0  0  0  0  0  0  0
  -26.8620  -19.0055   18.5811 C   0  0  2  0  0  0  0  0  0  0  0  0
  -26.6826  -23.7734   18.3602 C   0  0  0  0  0  0  0  0  0  0  0  0
  -26.0208  -11.7413   20.9756 N   0  0  0  0  0  0  0  0  0  0  0  0
  -26.2627  -12.9600   20.4633 N   0  0  0  0  0  0  0  0  0  0  0  0
  -30.1627  -23.1368   18.9507 N   0  0  0  0  0  0  0  0  0  0  0  0
  -30.0717  -12.8799   20.2005 N   0  0  0  0  0  0  0  0  0  0  0  0
  -25.2484  -15.0499   20.0008 N   0  0  0  0  0  0  0  0  0  0  0  0
  -21.8961  -12.6500   21.8444 N   0  0  0  0  0  0  0  0  0  0  0  0
  -30.8301  -13.7788   22.2448 N   0  0  0  0  0  0  0  0  0  0  0  0
  -32.1550  -25.7570   17.5740 N   0  0  0  0  0  0  0  0  0  0  0  0
  -27.3655  -21.3370   18.3224 N   0  0  0  0  0  0  0  0  0  0  0  0
  -27.5023  -17.8526   19.2753 N   0  3  0  0  0  0  0  0  0  0  0  0
  -32.0292  -19.1507   25.5830 N   0  3  0  0  0  0  0  0  0  0  0  0
  -22.4491  -14.6789   20.9298 O   0  0  0  0  0  0  0  0  0  0  0  0
  -30.9236  -25.6027   19.5443 O   0  0  0  0  0  0  0  0  0  0  0  0
  -29.1643  -23.0096   16.8475 O   0  0  0  0  0  0  0  0  0  0  0  0
  -27.4833  -20.4114   20.4453 O   0  0  0  0  0  0  0  0  0  0  0  0
  -32.2147  -13.7270   20.3842 O   0  0  0  0  0  0  0  0  0  0  0  0
  -22.2208   -7.3928   23.6588 O   0  0  0  0  0  0  0  0  0  0  0  0
  -32.3409  -22.5782   24.6949 O   0  0  0  0  0  0  0  0  0  1  0  0
  -23.0989   -2.4431   21.3932 F   0  0  0  0  0  0  0  0  0  0  0  0
  -30.0537  -14.1680   24.8936 F   0  0  0  0  0  0  0  0  0  0  0  0
  -24.7729   -6.3438   23.4880 F   0  0  0  0  0  0  0  0  0  0  0  0
  1  2  1  0  0  0  0
  1  5  2  0  0  0  0
  2  6  2  0  0  0  0
  3 10  2  0  0  0  0
  3 18  1  0  0  0  0
  4 11  1  0  0  0  0
  4 18  2  0  0  0  0
  5 20  1  0  0  0  0
  6 22  1  0  0  0  0
  7 12  2  0  0  0  0
  7 21  1  0  0  0  0
  8  9  2  0  0  0  0
  8 24  1  0  0  0  0
  9 25  1  0  0  0  0
 10 26  1  0  0  0  0
 11 26  2  0  0  0  0
 12 27  1  0  0  0  0
 13 14  2  0  0  0  0
 13 28  1  0  0  0  0
 14 29  1  0  0  0  0
 15 23  1  0  0  0  0
 15 27  2  0  0  0  0
 16 24  2  0  0  0  0
 16 30  1  0  0  0  0
 17 29  2  0  0  0  0
 17 31  1  0  0  0  0
 18 32  1  0  0  0  0
 19 32  1  0  0  0  0
 19 33  2  0  0  0  0
 19 34  1  0  0  0  0
 20 22  2  0  0  0  0
 20 39  1  0  0  0  0
 21 23  2  0  0  0  0
 21 40  1  0  0  0  0
 22 48  1  0  0  0  0
 23 41  1  0  0  0  0
 24 56  1  0  0  0  0
 25 30  2  0  0  0  0
 25 69  1  0  0  0  0
 26 79  1  0  0  0  0
 27 80  1  0  0  0  0
 28 31  2  0  0  0  0
 28 79  1  0  0  0  0
 29 81  1  0  0  0  0
 30 82  1  0  0  0  0
 31 83  1  0  0  0  0
 32 63  2  0  0  0  0
 33 64  1  0  0  0  0
 33 67  1  0  0  0  0
 34 68  1  0  0  0  0
 34 74  2  0  0  0  0
 35 49  1  0  0  0  0
 35 70  1  0  0  0  0
 35 75  2  0  0  0  0
 36 60  1  0  0  0  0
 36 65  1  0  0  0  0
 36 76  2  0  0  0  0
 37 61  1  0  0  0  0
 37 71  1  0  0  0  0
 37 77  2  0  0  0  0
 38 66  1  0  0  0  0
 38 69  1  0  0  0  0
 38 78  2  0  0  0  0
 39 42  1  0  0  0  0
 40 49  1  0  0  0  0
 41 65  1  0  0  0  0
 42 44  1  0  0  0  0
 43 45  1  0  0  0  0
 43 46  1  0  0  0  0
 44 48  1  0  0  0  0
 45 50  1  0  0  0  0
 46 66  1  0  0  0  0
 47 50  1  0  0  0  0
 47 66  1  0  0  0  0
 48 70  1  0  0  0  0
 49 65  1  0  0  0  0
 50 64  1  0  0  0  0
 51 61  1  0  0  0  0
 52 62  1  0  0  0  0
 53 62  1  0  0  0  0
 54 62  1  0  0  0  0
 55 72  1  0  0  0  0
 56 73  1  0  0  0  0
 57 58  1  0  0  0  0
 57 59  1  0  0  0  0
 58 73  1  0  0  0  0
 59 80  1  0  0  0  0
 60 62  1  0  0  0  0
 60 71  1  0  0  0  0
 61 72  1  0  0  0  0
 63 64  1  0  0  0  0
M  CHG  2  72   1  73   1
M  ISO  4  38 100  59 101  69 100  80 101
M  END
> <Batch ID>
0013

> <Smiles>
CNC(C)C(=O)NC(C(=O)N1Cc2cc([101O:1][101CH2:1]CCNCc3ccc([100NH:0][100C:0](=O)N4CCCC(n5nc(-c6ccc(Oc7ccc(F)cc7F)cc6)c(C(N)=O)c5N)C4)c(F)c3)ccc2CC1C(=O)NC1CCCc2ccccc21)C(C)(C)C

> <Shape>
0.216

> <Color>
0.158

> <Negative vol penalty>
0.000

$$$$

  -OEChem-04042320483D

 84 92  0     1  0  0  0  0  0999 V2000
  -23.0208  -23.7889   18.4987 C   0  0  0  0  0  0  0  0  0  0  0  0
  -23.9774  -22.7888   18.3659 C   0  0  0  0  0  0  0  0  0  0  0  0
  -26.1996  -26.5234   22.6039 C   0  0  0  0  0  0  0  0  0  0  0  0
  -24.2600  -25.9173   21.2971 C   0  0  0  0  0  0  0  0  0  0  0  0
  -21.9615  -23.6213   19.3881 C   0  0  0  0  0  0  0  0  0  0  0  0
  -23.8685  -21.6158   19.1136 C   0  0  0  0  0  0  0  0  0  0  0  0
  -27.0612  -18.0133   18.0972 C   0  0  0  0  0  0  0  0  0  0  0  0
  -32.8883  -22.6546   20.7848 C   0  0  0  0  0  0  0  0  0  0  0  0
  -32.7126  -23.8280   20.0514 C   0  0  0  0  0  0  0  0  0  0  0  0
  -25.4863  -27.5782   23.1734 C   0  0  0  0  0  0  0  0  0  0  0  0
  -23.5467  -26.9721   21.8666 C   0  0  0  0  0  0  0  0  0  0  0  0
  -28.4105  -18.0830   18.4409 C   0  0  0  0  0  0  0  0  0  0  0  0
  -24.2860  -30.6506   24.7041 C   0  0  0  0  0  0  0  0  0  0  0  0
  -24.9221  -31.8882   24.8008 C   0  0  0  0  0  0  0  0  0  0  0  0
  -28.0133  -16.5753   20.2817 C   0  0  0  0  0  0  0  0  0  0  0  0
  -32.4279  -21.3483   18.8052 C   0  0  0  0  0  0  0  0  0  0  0  0
  -25.1779  -31.9444   22.3990 C   0  0  0  0  0  0  0  0  0  0  0  0
  -25.5864  -25.6930   21.6657 C   0  0  0  0  0  0  0  0  0  0  0  0
  -26.4137  -23.2824   21.5542 C   0  0  0  0  0  0  0  0  0  0  0  0
  -21.8472  -22.4506   20.1558 C   0  0  0  0  0  0  0  0  0  0  0  0
  -26.1741  -17.2315   18.8510 C   0  0  0  0  0  0  0  0  0  0  0  0
  -22.7936  -21.4176   19.9989 C   0  0  0  0  0  0  0  0  0  0  0  0
  -26.6536  -16.4954   19.9439 C   0  0  0  0  0  0  0  0  0  0  0  0
  -32.7461  -21.4148   20.1617 C   0  0  0  0  0  0  0  0  0  0  0  0
  -32.3944  -23.7616   18.6949 C   0  0  0  0  0  0  0  0  0  0  0  0
  -24.1599  -27.8025   22.8047 C   0  0  0  0  0  0  0  0  0  0  0  0
  -28.8862  -17.3662   19.5350 C   0  0  0  0  0  0  0  0  0  0  0  0
  -24.0959  -30.0599   23.4548 C   0  0  0  0  0  0  0  0  0  0  0  0
  -25.3681  -32.5351   23.6483 C   0  0  0  0  0  0  0  0  0  0  0  0
  -32.2521  -22.5217   18.0718 C   0  0  0  0  0  0  0  0  0  0  0  0
  -24.5418  -30.7068   22.3023 C   0  0  0  0  0  0  0  0  0  0  0  0
  -26.3229  -24.6036   21.0767 C   0  0  0  0  0  0  0  0  0  0  0  0
  -27.2235  -22.6442   20.6468 C   0  0  0  0  0  0  0  0  0  0  0  0
  -25.8192  -22.6854   22.7143 C   0  0  0  0  0  0  0  0  0  0  0  0
  -23.5820  -17.8273   20.5917 C   0  0  0  0  0  0  0  0  0  0  0  0
  -23.4446  -14.5922   20.7854 C   0  0  0  0  0  0  0  0  0  0  0  0
  -25.0943  -11.6083   20.6384 C   0  0  0  0  0  0  0  0  0  0  0  0
  -31.3481  -25.0758   16.8324 C   0  0  0  0  0  0  0  0  0  0  0  0
  -20.6763  -22.3181   21.0974 C   0  0  0  0  0  0  0  0  0  0  0  0
  -24.7266  -17.1459   18.4512 C   0  0  0  0  0  0  0  0  0  0  0  0
  -25.7463  -15.6252   20.7734 C   0  0  0  0  0  0  0  0  0  0  0  0
  -20.8874  -21.2460   22.1615 C   0  0  0  0  0  0  0  0  0  0  0  0
  -28.5671  -22.7598   16.0610 C   0  0  0  0  0  0  0  0  0  0  0  0
  -21.3545  -19.9526   21.5108 C   0  0  0  0  0  0  0  0  0  0  0  0
  -27.6436  -22.9251   17.2665 C   0  0  0  0  0  0  0  0  0  0  0  0
  -29.3678  -24.0283   15.7828 C   0  0  0  0  0  0  0  0  0  0  0  0
  -29.2242  -24.6760   18.1705 C   0  0  0  0  0  0  0  0  0  0  0  0
  -22.7125  -20.1461   20.8242 C   0  0  1  0  0  0  0  0  0  0  0  0
  -23.8138  -16.7239   19.5984 C   0  0  1  0  0  0  0  0  0  0  0  0
  -28.4362  -23.3984   18.4961 C   0  0  1  0  0  0  0  0  0  0  0  0
  -24.7222   -9.1379   20.8753 C   0  0  0  0  0  0  0  0  0  0  0  0
  -23.3215  -14.9041   23.8182 C   0  0  0  0  0  0  0  0  0  0  0  0
  -23.9062  -12.4782   24.0215 C   0  0  0  0  0  0  0  0  0  0  0  0
  -21.7920  -13.1587   22.8860 C   0  0  0  0  0  0  0  0  0  0  0  0
  -33.1525  -26.0720   18.1678 C   0  0  0  0  0  0  0  0  0  0  0  0
  -25.9470  -11.0951   17.8512 C   0  0  0  0  0  0  0  0  0  0  0  0
  -30.8865  -20.1761   22.3675 C   0  0  0  0  0  0  0  0  0  0  0  0
  -32.9340  -20.1525   20.9506 C   0  0  0  0  0  0  0  0  0  0  0  0
  -31.8165  -18.0120   21.5591 C   0  0  0  0  0  0  0  0  0  0  0  0
  -30.5277  -17.2747   21.2535 C   0  0  0  0  0  0  0  0  0  1  0  0
  -24.0039  -13.5529   21.7266 C   0  0  1  0  0  0  0  0  0  0  0  0
  -24.7728  -10.3142   19.9128 C   0  0  2  0  0  0  0  0  0  0  0  0
  -23.2729  -13.5413   23.0988 C   0  0  0  0  0  0  0  0  0  0  0  0
  -27.0195  -24.7948   19.9532 N   0  0  0  0  0  0  0  0  0  0  0  0
  -27.5559  -23.5854   19.7173 N   0  0  0  0  0  0  0  0  0  0  0  0
  -24.3381  -15.5794   20.3463 N   0  0  0  0  0  0  0  0  0  0  0  0
  -30.0689  -24.5006   16.9778 N   0  0  0  0  0  0  0  0  0  0  0  0
  -27.6767  -21.3755   20.5613 N   0  0  0  0  0  0  0  0  0  0  0  0
  -25.0150  -23.4840   23.5389 N   0  0  0  0  0  0  0  0  0  0  0  0
  -23.0206  -18.9662   20.0465 N   0  0  0  0  0  0  0  0  0  0  0  0
  -23.9507  -12.2829   21.0106 N   0  0  0  0  0  0  0  0  0  0  0  0
  -32.2127  -24.9767   17.9391 N   0  0  0  0  0  0  0  0  0  0  0  0
  -25.8065  -10.0303   18.8775 N   0  3  0  0  0  0  0  0  0  0  0  0
  -31.6342  -19.4572   21.2720 N   0  3  1  0  0  0  0  0  0  0  0  0
  -26.0091  -21.4837   23.0198 O   0  0  0  0  0  0  0  0  0  0  0  0
  -23.8884  -17.6574   21.7659 O   0  0  0  0  0  0  0  0  0  0  0  0
  -22.2603  -14.5263   20.4465 O   0  0  0  0  0  0  0  0  0  0  0  0
  -26.2448  -11.9814   20.8568 O   0  0  0  0  0  0  0  0  0  0  0  0
  -31.6789  -25.6852   15.8078 O   0  0  0  0  0  0  0  0  0  0  0  0
  -23.4635  -28.8315   23.3604 O   0  0  0  0  0  0  0  0  0  0  0  0
  -30.2027  -17.4329   19.8730 O   0  0  0  0  0  0  0  0  0  1  0  0
  -25.9775  -33.7242   23.7412 F   0  0  0  0  0  0  0  0  0  0  0  0
  -31.9451  -22.4460   16.7689 F   0  0  0  0  0  0  0  0  0  0  0  0
  -24.3610  -30.1448   21.0993 F   0  0  0  0  0  0  0  0  0  0  0  0
  1  2  1  0  0  0  0
  1  5  2  0  0  0  0
  2  6  2  0  0  0  0
  3 10  2  0  0  0  0
  3 18  1  0  0  0  0
  4 11  1  0  0  0  0
  4 18  2  0  0  0  0
  5 20  1  0  0  0  0
  6 22  1  0  0  0  0
  7 12  2  0  0  0  0
  7 21  1  0  0  0  0
  8  9  2  0  0  0  0
  8 24  1  0  0  0  0
  9 25  1  0  0  0  0
 10 26  1  0  0  0  0
 11 26  2  0  0  0  0
 12 27  1  0  0  0  0
 13 14  2  0  0  0  0
 13 28  1  0  0  0  0
 14 29  1  0  0  0  0
 15 23  1  0  0  0  0
 15 27  2  0  0  0  0
 16 24  2  0  0  0  0
 16 30  1  0  0  0  0
 17 29  2  0  0  0  0
 17 31  1  0  0  0  0
 18 32  1  0  0  0  0
 19 32  1  0  0  0  0
 19 33  2  0  0  0  0
 19 34  1  0  0  0  0
 20 22  2  0  0  0  0
 20 39  1  0  0  0  0
 21 23  2  0  0  0  0
 21 40  1  0  0  0  0
 22 48  1  0  0  0  0
 23 41  1  0  0  0  0
 24 58  1  0  0  0  0
 25 30  2  0  0  0  0
 25 72  1  0  0  0  0
 26 80  1  0  0  0  0
 27 81  1  0  0  0  0
 28 31  2  0  0  0  0
 28 80  1  0  0  0  0
 29 82  1  0  0  0  0
 30 83  1  0  0  0  0
 31 84  1  0  0  0  0
 32 64  2  0  0  0  0
 33 65  1  0  0  0  0
 33 68  1  0  0  0  0
 34 69  1  0  0  0  0
 34 75  2  0  0  0  0
 35 49  1  0  0  0  0
 35 70  1  0  0  0  0
 35 76  2  0  0  0  0
 36 61  1  0  0  0  0
 36 66  1  0  0  0  0
 36 77  2  0  0  0  0
 37 62  1  0  0  0  0
 37 71  1  0  0  0  0
 37 78  2  0  0  0  0
 38 67  1  0  0  0  0
 38 72  1  0  0  0  0
 38 79  2  0  0  0  0
 39 42  1  0  0  0  0
 40 49  1  0  0  0  0
 41 66  1  0  0  0  0
 42 44  1  0  0  0  0
 43 45  1  0  0  0  0
 43 46  1  0  0  0  0
 44 48  1  0  0  0  0
 45 50  1  0  0  0  0
 46 67  1  0  0  0  0
 47 50  1  0  0  0  0
 47 67  1  0  0  0  0
 48 70  1  0  0  0  0
 49 66  1  0  0  0  0
 50 65  1  0  0  0  0
 51 62  1  0  0  0  0
 52 63  1  0  0  0  0
 53 63  1  0  0  0  0
 54 63  1  0  0  0  0
 55 72  1  0  0  0  0
 56 73  1  0  0  0  0
 57 74  1  0  0  0  0
 58 74  1  0  0  0  0
 59 60  1  0  0  0  0
 59 74  1  0  0  0  0
 60 81  1  0  0  0  0
 61 63  1  0  0  0  0
 61 71  1  0  0  0  0
 62 73  1  0  0  0  0
 64 65  1  0  0  0  0
M  CHG  2  73   1  74   1
M  ISO  4  38 100  60 101  72 100  81 101
M  END
> <Batch ID>
0013

> <Smiles>
CNC(C)C(=O)NC(C(=O)N1Cc2cc([101O:1][101CH2:1]CN(C)Cc3ccc([100N:0](C)[100C:0](=O)N4CCCC(n5nc(-c6ccc(Oc7ccc(F)cc7F)cc6)c(C(N)=O)c5N)C4)c(F)c3)ccc2CC1C(=O)NC1CCCc2ccccc21)C(C)(C)C

> <Shape>
0.169

> <Color>
0.071

> <Negative vol penalty>
0.000

$$$$

  -OEChem-04042320483D

 81 89  0     1  0  0  0  0  0999 V2000
  -23.6146  -32.7404   26.6417 C   0  0  0  0  0  0  0  0  0  0  0  0
  -24.8879  -32.2906   26.3072 C   0  0  0  0  0  0  0  0  0  0  0  0
  -24.0433   -9.7225   21.7174 C   0  0  0  0  0  0  0  0  0  0  0  0
  -24.6463  -10.9946   23.6809 C   0  0  0  0  0  0  0  0  0  0  0  0
  -22.4922  -32.0271   26.2230 C   0  0  0  0  0  0  0  0  0  0  0  0
  -25.0395  -31.1265   25.5547 C   0  0  0  0  0  0  0  0  0  0  0  0
  -29.3143  -28.1906   20.6127 C   0  0  0  0  0  0  0  0  0  0  0  0
  -30.7820  -18.9585   20.2106 C   0  0  0  0  0  0  0  0  0  0  0  0
  -23.6164   -8.6717   22.5293 C   0  0  0  0  0  0  0  0  0  0  0  0
  -24.2193   -9.9438   24.4928 C   0  0  0  0  0  0  0  0  0  0  0  0
  -30.0451  -27.0275   20.3746 C   0  0  0  0  0  0  0  0  0  0  0  0
  -31.0681  -20.2797   20.5541 C   0  0  0  0  0  0  0  0  0  0  0  0
  -20.9059   -7.9145   24.4036 C   0  0  0  0  0  0  0  0  0  0  0  0
  -19.6862   -7.3118   24.0959 C   0  0  0  0  0  0  0  0  0  0  0  0
  -28.0319  -25.9204   19.6392 C   0  0  0  0  0  0  0  0  0  0  0  0
  -28.7097  -20.7140   20.8479 C   0  0  0  0  0  0  0  0  0  0  0  0
  -20.8098   -5.1954   23.7874 C   0  0  0  0  0  0  0  0  0  0  0  0
  -24.5583  -10.8839   22.2932 C   0  0  0  0  0  0  0  0  0  0  0  0
  -24.2298  -13.0524   20.9902 C   0  0  0  0  0  0  0  0  0  0  0  0
  -22.6299  -30.8589   25.4568 C   0  0  0  0  0  0  0  0  0  0  0  0
  -27.9326  -28.2242   20.3757 C   0  0  0  0  0  0  0  0  0  0  0  0
  -23.9180  -30.3961   25.1265 C   0  0  0  0  0  0  0  0  0  0  0  0
  -27.2863  -27.0860   19.8726 C   0  0  0  0  0  0  0  0  0  0  0  0
  -29.4598  -18.5150   20.1855 C   0  0  0  0  0  0  0  0  0  0  0  0
  -23.7044   -8.7823   23.9170 C   0  0  0  0  0  0  0  0  0  0  0  0
  -29.4035  -25.8912   19.8905 C   0  0  0  0  0  0  0  0  0  0  0  0
  -30.0320  -21.1575   20.8728 C   0  0  0  0  0  0  0  0  0  0  0  0
  -22.0776   -7.1576   24.4031 C   0  0  0  0  0  0  0  0  0  0  0  0
  -19.6381   -5.9523   23.7878 C   0  0  0  0  0  0  0  0  0  0  0  0
  -28.4236  -19.3928   20.5042 C   0  0  0  0  0  0  0  0  0  0  0  0
  -22.0296   -5.7981   24.0950 C   0  0  0  0  0  0  0  0  0  0  0  0
  -25.0000  -11.9695   21.4550 C   0  0  0  0  0  0  0  0  0  0  0  0
  -25.1046  -13.7986   20.2391 C   0  0  0  0  0  0  0  0  0  0  0  0
  -22.8471  -13.3565   21.2173 C   0  0  0  0  0  0  0  0  0  0  0  0
  -25.3581  -28.6945   22.1797 C   0  0  0  0  0  0  0  0  0  0  0  0
  -23.8210  -28.6090   19.3245 C   0  0  0  0  0  0  0  0  0  0  0  0
  -23.8043  -27.5722   16.0731 C   0  0  0  0  0  0  0  0  0  0  0  0
  -30.0847  -16.1747   19.4935 C   0  0  0  0  0  0  0  0  0  0  0  0
  -21.3887  -30.0957   25.0674 C   0  0  0  0  0  0  0  0  0  0  0  0
  -27.1632  -29.4948   20.6123 C   0  0  0  0  0  0  0  0  0  0  0  0
  -25.8084  -27.0763   19.5826 C   0  0  0  0  0  0  0  0  0  0  0  0
  -21.6240  -29.0770   23.9551 C   0  0  0  0  0  0  0  0  0  0  0  0
  -29.7777  -12.7400   18.6070 C   0  0  0  0  0  0  0  0  0  0  0  0
  -22.8783  -28.2567   24.2391 C   0  0  0  0  0  0  0  0  0  0  0  0
  -28.4440  -12.3225   19.2307 C   0  0  0  0  0  0  0  0  0  0  0  0
  -30.5323  -13.7304   19.4921 C   0  0  0  0  0  0  0  0  0  0  0  0
  -28.4284  -14.4960   20.5202 C   0  0  0  0  0  0  0  0  0  0  0  0
  -24.1226  -29.1513   24.2906 C   0  0  1  0  0  0  0  0  0  0  0  0
  -25.6707  -29.2593   20.8229 C   0  0  1  0  0  0  0  0  0  0  0  0
  -27.6023  -13.5488   19.6347 C   0  0  2  0  0  0  0  0  0  0  0  0
  -22.3954  -27.6215   13.9970 C   0  0  0  0  0  0  0  0  0  0  0  0
  -22.0091  -26.4570   20.5059 C   0  0  0  0  0  0  0  0  0  0  0  0
  -21.2863  -25.8860   18.1779 C   0  0  0  0  0  0  0  0  0  0  0  0
  -20.8302  -28.1578   19.1017 C   0  0  0  0  0  0  0  0  0  0  0  0
  -25.8768  -29.0487   14.5620 C   0  0  0  0  0  0  0  0  0  0  0  0
  -31.2612  -24.5267   20.4758 C   0  0  0  0  0  0  0  0  0  1  0  0
  -31.4737  -23.0327   20.6261 C   0  0  0  0  0  0  0  0  0  0  0  0
  -23.1974  -27.5257   18.4781 C   0  0  1  0  0  0  0  0  0  0  0  0
  -23.5008  -28.3106   14.7819 C   0  0  2  0  0  0  0  0  0  0  0  0
  -21.8583  -27.0059   19.0731 C   0  0  0  0  0  0  0  0  0  0  0  0
  -26.2666  -12.0195   21.0342 N   0  0  0  0  0  0  0  0  0  0  0  0
  -26.2990  -13.1428   20.2971 N   0  0  0  0  0  0  0  0  0  0  0  0
  -25.0986  -28.3411   19.8361 N   0  0  0  0  0  0  0  0  0  0  0  0
  -29.6740  -14.8677   19.8310 N   0  0  0  0  0  0  0  0  0  0  0  0
  -24.9610  -14.9452   19.5412 N   0  0  0  0  0  0  0  0  0  0  0  0
  -22.0930  -12.4837   22.0134 N   0  0  0  0  0  0  0  0  0  0  0  0
  -29.1724  -17.1722   19.8360 N   0  0  0  0  0  0  0  0  0  0  0  0
  -24.5475  -29.5037   22.9528 N   0  0  0  0  0  0  0  0  0  0  0  0
  -23.0794  -28.0763   17.1322 N   0  0  0  0  0  0  0  0  0  0  0  0
  -24.7173  -28.3743   13.9234 N   0  3  0  0  0  0  0  0  0  0  0  0
  -22.2926  -14.3634   20.7151 O   0  0  0  0  0  0  0  0  0  0  0  0
  -25.8170  -27.6046   22.5009 O   0  0  0  0  0  0  0  0  0  0  0  0
  -23.2006  -29.6574   19.5185 O   0  0  0  0  0  0  0  0  0  0  0  0
  -24.6016  -26.6390   16.1351 O   0  0  0  0  0  0  0  0  0  0  0  0
  -31.1537  -16.3905   18.9167 O   0  0  0  0  0  0  0  0  0  0  0  0
  -23.2877   -7.7573   24.7095 O   0  0  0  0  0  0  0  0  0  0  0  0
  -30.1143  -24.7543   19.6579 O   0  0  0  0  0  0  0  0  0  1  0  0
  -30.3131  -22.4549   21.2114 O   0  0  0  0  0  0  0  0  0  0  0  0
  -18.4666   -5.3733   23.4939 F   0  0  0  0  0  0  0  0  0  0  0  0
  -27.1490  -18.9774   20.4830 F   0  0  0  0  0  0  0  0  0  0  0  0
  -23.1517   -5.0655   24.0941 F   0  0  0  0  0  0  0  0  0  0  0  0
  1  2  1  0  0  0  0
  1  5  2  0  0  0  0
  2  6  2  0  0  0  0
  3  9  2  0  0  0  0
  3 18  1  0  0  0  0
  4 10  1  0  0  0  0
  4 18  2  0  0  0  0
  5 20  1  0  0  0  0
  6 22  1  0  0  0  0
  7 11  2  0  0  0  0
  7 21  1  0  0  0  0
  8 12  2  0  0  0  0
  8 24  1  0  0  0  0
  9 25  1  0  0  0  0
 10 25  2  0  0  0  0
 11 26  1  0  0  0  0
 12 27  1  0  0  0  0
 13 14  2  0  0  0  0
 13 28  1  0  0  0  0
 14 29  1  0  0  0  0
 15 23  1  0  0  0  0
 15 26  2  0  0  0  0
 16 27  2  0  0  0  0
 16 30  1  0  0  0  0
 17 29  2  0  0  0  0
 17 31  1  0  0  0  0
 18 32  1  0  0  0  0
 19 32  1  0  0  0  0
 19 33  2  0  0  0  0
 19 34  1  0  0  0  0
 20 22  2  0  0  0  0
 20 39  1  0  0  0  0
 21 23  2  0  0  0  0
 21 40  1  0  0  0  0
 22 48  1  0  0  0  0
 23 41  1  0  0  0  0
 24 30  2  0  0  0  0
 24 67  1  0  0  0  0
 25 76  1  0  0  0  0
 26 77  1  0  0  0  0
 27 78  1  0  0  0  0
 28 31  2  0  0  0  0
 28 76  1  0  0  0  0
 29 79  1  0  0  0  0
 30 80  1  0  0  0  0
 31 81  1  0  0  0  0
 32 61  2  0  0  0  0
 33 62  1  0  0  0  0
 33 65  1  0  0  0  0
 34 66  1  0  0  0  0
 34 71  2  0  0  0  0
 35 49  1  0  0  0  0
 35 68  1  0  0  0  0
 35 72  2  0  0  0  0
 36 58  1  0  0  0  0
 36 63  1  0  0  0  0
 36 73  2  0  0  0  0
 37 59  1  0  0  0  0
 37 69  1  0  0  0  0
 37 74  2  0  0  0  0
 38 64  1  0  0  0  0
 38 67  1  0  0  0  0
 38 75  2  0  0  0  0
 39 42  1  0  0  0  0
 40 49  1  0  0  0  0
 41 63  1  0  0  0  0
 42 44  1  0  0  0  0
 43 45  1  0  0  0  0
 43 46  1  0  0  0  0
 44 48  1  0  0  0  0
 45 50  1  0  0  0  0
 46 64  1  0  0  0  0
 47 50  1  0  0  0  0
 47 64  1  0  0  0  0
 48 68  1  0  0  0  0
 49 63  1  0  0  0  0
 50 62  1  0  0  0  0
 51 59  1  0  0  0  0
 52 60  1  0  0  0  0
 53 60  1  0  0  0  0
 54 60  1  0  0  0  0
 55 70  1  0  0  0  0
 56 57  1  0  0  0  0
 56 77  1  0  0  0  0
 57 78  1  0  0  0  0
 58 60  1  0  0  0  0
 58 69  1  0  0  0  0
 59 70  1  0  0  0  0
 61 62  1  0  0  0  0
M  CHG  1  70   1
M  ISO  4  38 100  56 101  67 100  77 101
M  END
> <Batch ID>
0013

> <Smiles>
CNC(C)C(=O)NC(C(=O)N1Cc2cc([101O:1][101CH2:1]COc3ccc([100NH:0][100C:0](=O)N4CCCC(n5nc(-c6ccc(Oc7ccc(F)cc7F)cc6)c(C(N)=O)c5N)C4)c(F)c3)ccc2CC1C(=O)NC1CCCc2ccccc21)C(C)(C)C

> <Shape>
0.293

> <Color>
0.123

> <Negative vol penalty>
0.000

$$$$

  -OEChem-04042320483D

 94103  0     1  0  0  0  0  0999 V2000
  -17.4712  -29.7465   22.4387 C   0  0  0  0  0  0  0  0  0  0  0  0
  -18.6613  -29.6219   21.7292 C   0  0  0  0  0  0  0  0  0  0  0  0
  -25.1907   -9.3518   20.3414 C   0  0  0  0  0  0  0  0  0  0  0  0
  -24.4221   -9.7256   22.6012 C   0  0  0  0  0  0  0  0  0  0  0  0
  -17.4577  -29.5384   23.8173 C   0  0  0  0  0  0  0  0  0  0  0  0
  -19.8391  -29.2904   22.3981 C   0  0  0  0  0  0  0  0  0  0  0  0
  -24.4426  -25.8597   20.2665 C   0  0  0  0  0  0  0  0  0  0  0  0
  -25.0184   -7.9780   20.5100 C   0  0  0  0  0  0  0  0  0  0  0  0
  -24.2497   -8.3517   22.7698 C   0  0  0  0  0  0  0  0  0  0  0  0
  -25.6720  -26.1887   19.6972 C   0  0  0  0  0  0  0  0  0  0  0  0
  -23.2648   -4.9709   23.6745 C   0  0  0  0  0  0  0  0  0  0  0  0
  -22.0869   -4.5338   24.2804 C   0  0  0  0  0  0  0  0  0  0  0  0
  -26.7285  -25.9442   21.8520 C   0  0  0  0  0  0  0  0  0  0  0  0
  -28.2885  -20.9492   21.1043 C   0  0  0  0  0  0  0  0  0  0  0  0
  -28.0638  -19.2943   18.1699 C   0  0  0  0  0  0  0  0  0  0  0  0
  -30.4803  -22.6615   20.8881 C   0  0  0  0  0  0  0  0  0  0  0  0
  -20.7973   -5.5644   22.5163 C   0  0  0  0  0  0  0  0  0  0  0  0
  -29.6430  -19.0814   15.8800 C   0  0  0  0  0  0  0  0  0  0  0  0
  -24.8926  -10.2257   21.3871 C   0  0  0  0  0  0  0  0  0  0  0  0
  -24.1215  -12.5691   20.7382 C   0  0  0  0  0  0  0  0  0  0  0  0
  -18.6340  -29.1946   24.5020 C   0  0  0  0  0  0  0  0  0  0  0  0
  -24.3449  -25.5807   21.6373 C   0  0  0  0  0  0  0  0  0  0  0  0
  -19.8416  -29.0788   23.7873 C   0  0  0  0  0  0  0  0  0  0  0  0
  -25.4972  -25.6094   22.4358 C   0  0  0  0  0  0  0  0  0  0  0  0
  -28.3577  -21.8643   20.0538 C   0  0  0  0  0  0  0  0  0  0  0  0
  -28.2838  -20.4141   17.3679 C   0  0  0  0  0  0  0  0  0  0  0  0
  -30.4111  -21.7465   21.9386 C   0  0  0  0  0  0  0  0  0  0  0  0
  -24.5479   -7.4779   21.7242 C   0  0  0  0  0  0  0  0  0  0  0  0
  -26.8147  -26.2339   20.4905 C   0  0  0  0  0  0  0  0  0  0  0  0
  -23.2090   -5.7048   22.4896 C   0  0  0  0  0  0  0  0  0  0  0  0
  -29.4536  -22.7204   19.9457 C   0  0  0  0  0  0  0  0  0  0  0  0
  -28.6335  -18.0681   17.8271 C   0  0  0  0  0  0  0  0  0  0  0  0
  -20.8531   -4.8306   23.7013 C   0  0  0  0  0  0  0  0  0  0  0  0
  -29.0734  -20.3077   16.2229 C   0  0  0  0  0  0  0  0  0  0  0  0
  -21.9752   -6.0015   21.9105 C   0  0  0  0  0  0  0  0  0  0  0  0
  -29.4230  -17.9617   16.6821 C   0  0  0  0  0  0  0  0  0  0  0  0
  -29.3152  -20.8904   22.0468 C   0  0  0  0  0  0  0  0  0  0  0  0
  -25.0709  -11.6449   21.2137 C   0  0  0  0  0  0  0  0  0  0  0  0
  -24.7759  -13.7765   20.7619 C   0  0  0  0  0  0  0  0  0  0  0  0
  -22.7690  -12.3554   20.3130 C   0  0  0  0  0  0  0  0  0  0  0  0
  -22.8047  -26.8920   24.0892 C   0  0  0  0  0  0  0  0  0  0  0  0
  -23.9548  -24.3140   25.6871 C   0  0  0  0  0  0  0  0  0  0  0  0
  -26.3152  -21.8593   25.9093 C   0  0  0  0  0  0  0  0  0  0  0  0
  -29.3553  -16.7751   19.6481 C   0  0  0  0  0  0  0  0  0  0  0  0
  -18.5793  -29.0259   25.9997 C   0  0  0  0  0  0  0  0  0  0  0  0
  -23.0160  -25.2013   22.2310 C   0  0  0  0  0  0  0  0  0  0  0  0
  -25.4493  -25.2983   23.9087 C   0  0  0  0  0  0  0  0  0  0  0  0
  -19.7978  -28.3102   26.5770 C   0  0  0  0  0  0  0  0  0  0  0  0
  -29.1869  -15.1046   22.8323 C   0  0  0  0  0  0  0  0  0  0  0  0
  -21.0829  -28.8894   25.9939 C   0  0  0  0  0  0  0  0  0  0  0  0
  -28.0466  -14.1052   22.6407 C   0  0  0  0  0  0  0  0  0  0  0  0
  -29.9805  -15.3012   21.5445 C   0  0  0  0  0  0  0  0  0  0  0  0
  -27.9966  -14.7071   20.1794 C   0  0  0  0  0  0  0  0  0  0  0  0
  -21.1350  -28.6963   24.4736 C   0  0  1  0  0  0  0  0  0  0  0  0
  -22.9447  -25.4382   23.7364 C   0  0  1  0  0  0  0  0  0  0  0  0
  -27.1552  -14.5051   21.4514 C   0  0  1  0  0  0  0  0  0  0  0  0
  -27.4582  -19.7994   26.7741 C   0  0  0  0  0  0  0  0  0  0  0  0
  -25.1133  -26.2569   27.7348 C   0  0  0  0  0  0  0  0  0  0  0  0
  -26.5623  -24.3967   28.5765 C   0  0  0  0  0  0  0  0  0  0  0  0
  -24.0793  -24.2018   28.7154 C   0  0  0  0  0  0  0  0  0  0  0  0
  -27.5578  -22.6912   16.6984 C   0  0  0  0  0  0  0  0  0  0  0  0
  -24.7312  -20.0957   24.1374 C   0  0  0  0  0  0  0  0  0  0  0  0
  -27.2499  -21.9136   19.0540 C   0  0  0  0  0  0  0  0  0  0  0  0
  -29.6928  -25.9505   18.3115 C   0  0  0  0  0  0  0  0  0  0  0  0
  -28.2157  -26.2038   18.5689 C   0  0  0  0  0  0  0  0  0  1  0  0
  -30.2390  -24.8326   19.1857 C   0  0  0  0  0  0  0  0  0  0  0  0
  -25.2135  -24.0118   26.4638 C   0  0  1  0  0  0  0  0  0  0  0  0
  -26.1948  -20.3643   26.1435 C   0  0  2  0  0  0  0  0  0  0  0  0
  -25.2430  -24.7246   27.8453 C   0  0  0  0  0  0  0  0  0  0  0  0
  -26.2395  -12.2161   21.5172 N   0  0  0  0  0  0  0  0  0  0  0  0
  -26.0288  -13.5123   21.2317 N   0  0  0  0  0  0  0  0  0  0  0  0
  -24.1256  -24.9390   24.4437 N   0  0  0  0  0  0  0  0  0  0  0  0
  -29.0989  -15.6436   20.4292 N   0  0  0  0  0  0  0  0  0  0  0  0
  -31.4666  -21.7106   22.8776 N   0  0  0  0  0  0  0  0  0  0  0  0
  -24.3960  -15.0278   20.4266 N   0  0  0  0  0  0  0  0  0  0  0  0
  -22.2542  -11.0525   20.3526 N   0  0  0  0  0  0  0  0  0  0  0  0
  -21.4965  -27.3329   24.1494 N   0  0  0  0  0  0  0  0  0  0  0  0
  -25.3072  -22.5578   26.5395 N   0  0  0  0  0  0  0  0  0  0  0  0
  -27.7101  -21.6472   17.7155 N   0  0  3  0  0  0  0  0  0  0  0  0
  -25.9556  -19.6556   24.8545 N   0  3  0  0  0  0  0  0  0  0  0  0
  -22.0440  -13.2896   19.8945 O   0  0  0  0  0  0  0  0  0  0  0  0
  -23.8091  -27.5637   24.2932 O   0  0  0  0  0  0  0  0  0  0  0  0
  -22.8607  -24.0005   26.1629 O   0  0  0  0  0  0  0  0  0  0  0  0
  -27.2157  -22.3579   25.2377 O   0  0  0  0  0  0  0  0  0  0  0  0
  -30.3017  -17.5405   19.8282 O   0  0  0  0  0  0  0  0  0  0  0  0
  -24.3794   -6.1374   21.8890 O   0  0  0  0  0  0  0  0  0  0  0  0
  -28.4115  -16.9457   18.6314 O   0  0  0  0  0  0  0  0  0  0  0  0
  -28.0158  -26.5554   19.9375 O   0  0  0  0  0  0  0  0  0  1  0  0
  -29.5372  -23.6257   18.9200 O   0  0  0  0  0  0  0  0  0  0  0  0
  -19.7221   -4.4094   24.2823 F   0  0  0  0  0  0  0  0  0  0  0  0
  -29.2910  -21.3774   15.4447 F   0  0  0  0  0  0  0  0  0  0  0  0
  -21.9153   -6.7052   20.7716 F   0  0  0  0  0  0  0  0  0  0  0  0
  -29.9731  -16.7863   16.3477 F   0  0  0  0  0  0  0  0  0  0  0  0
  -29.1903  -19.7427   23.3319 Cl  0  0  0  0  0  0  0  0  0  0  0  0
  1  2  1  0  0  0  0
  1  5  2  0  0  0  0
  2  6  2  0  0  0  0
  3  8  2  0  0  0  0
  3 19  1  0  0  0  0
  4  9  1  0  0  0  0
  4 19  2  0  0  0  0
  5 21  1  0  0  0  0
  6 23  1  0  0  0  0
  7 10  2  0  0  0  0
  7 22  1  0  0  0  0
  8 28  1  0  0  0  0
  9 28  2  0  0  0  0
 10 29  1  0  0  0  0
 11 12  2  0  0  0  0
 11 30  1  0  0  0  0
 12 33  1  0  0  0  0
 13 24  1  0  0  0  0
 13 29  2  0  0  0  0
 14 25  1  0  0  0  0
 14 37  2  0  0  0  0
 15 26  1  0  0  0  0
 15 32  2  0  0  0  0
 16 27  2  0  0  0  0
 16 31  1  0  0  0  0
 17 33  2  0  0  0  0
 17 35  1  0  0  0  0
 18 34  1  0  0  0  0
 18 36  2  0  0  0  0
 19 38  1  0  0  0  0
 20 38  1  0  0  0  0
 20 39  2  0  0  0  0
 20 40  1  0  0  0  0
 21 23  2  0  0  0  0
 21 45  1  0  0  0  0
 22 24  2  0  0  0  0
 22 46  1  0  0  0  0
 23 54  1  0  0  0  0
 24 47  1  0  0  0  0
 25 31  2  0  0  0  0
 25 63  1  0  0  0  0
 26 34  2  0  0  0  0
 26 79  1  0  0  0  0
 27 37  1  0  0  0  0
 27 74  1  0  0  0  0
 28 86  1  0  0  0  0
 29 88  1  0  0  0  0
 30 35  2  0  0  0  0
 30 86  1  0  0  0  0
 31 89  1  0  0  0  0
 32 36  1  0  0  0  0
 32 87  1  0  0  0  0
 33 90  1  0  0  0  0
 34 91  1  0  0  0  0
 35 92  1  0  0  0  0
 36 93  1  0  0  0  0
 37 94  1  0  0  0  0
 38 70  2  0  0  0  0
 39 71  1  0  0  0  0
 39 75  1  0  0  0  0
 40 76  1  0  0  0  0
 40 81  2  0  0  0  0
 41 55  1  0  0  0  0
 41 77  1  0  0  0  0
 41 82  2  0  0  0  0
 42 67  1  0  0  0  0
 42 72  1  0  0  0  0
 42 83  2  0  0  0  0
 43 68  1  0  0  0  0
 43 78  1  0  0  0  0
 43 84  2  0  0  0  0
 44 73  1  0  0  0  0
 44 85  2  0  0  0  0
 44 87  1  0  0  0  0
 45 48  1  0  0  0  0
 46 55  1  0  0  0  0
 47 72  1  0  0  0  0
 48 50  1  0  0  0  0
 49 51  1  0  0  0  0
 49 52  1  0  0  0  0
 50 54  1  0  0  0  0
 51 56  1  0  0  0  0
 52 73  1  0  0  0  0
 53 56  1  0  0  0  0
 53 73  1  0  0  0  0
 54 77  1  0  0  0  0
 55 72  1  0  0  0  0
 56 71  1  0  0  0  0
 57 68  1  0  0  0  0
 58 69  1  0  0  0  0
 59 69  1  0  0  0  0
 60 69  1  0  0  0  0
 61 79  1  0  0  0  0
 62 80  1  0  0  0  0
 63 79  1  0  0  0  0
 64 65  1  0  0  0  0
 64 66  1  0  0  0  0
 65 88  1  0  0  0  0
 66 89  1  0  0  0  0
 67 69  1  0  0  0  0
 67 78  1  0  0  0  0
 68 80  1  0  0  0  0
 70 71  1  0  0  0  0
M  CHG  1  80   1
M  ISO  4  44 100  65 101  87 100  88 101
M  END
> <Batch ID>
0013

> <Smiles>
CNC(C)C(=O)NC(C(=O)N1Cc2cc([101O:1][101CH2:1]CCOc3cc(N)c(Cl)cc3CN(C)c3cc([100O:0][100C:0](=O)N4CCCC(n5nc(-c6ccc(Oc7ccc(F)cc7F)cc6)c(C(N)=O)c5N)C4)c(F)cc3F)ccc2CC1C(=O)NC1CCCc2ccccc21)C(C)(C)C

> <Shape>
0.229

> <Color>
0.106

> <Negative vol penalty>
0.000

$$$$

  -OEChem-04042320483D

 83 91  0     1  0  0  0  0  0999 V2000
  -28.3287  -38.0367   24.2618 C   0  0  0  0  0  0  0  0  0  0  0  0
  -28.7520  -36.9838   23.4570 C   0  0  0  0  0  0  0  0  0  0  0  0
  -26.4990  -12.5857   21.6256 C   0  0  0  0  0  0  0  0  0  0  0  0
  -26.1065  -13.6175   19.4765 C   0  0  0  0  0  0  0  0  0  0  0  0
  -27.4166  -37.8034   25.2902 C   0  0  0  0  0  0  0  0  0  0  0  0
  -28.2643  -35.6968   23.6809 C   0  0  0  0  0  0  0  0  0  0  0  0
  -27.1086  -31.4119   19.4607 C   0  0  0  0  0  0  0  0  0  0  0  0
  -28.5584  -23.6715   18.8778 C   0  0  0  0  0  0  0  0  0  0  0  0
  -29.0454  -22.6232   19.6584 C   0  0  0  0  0  0  0  0  0  0  0  0
  -25.2362  -11.9956   21.5729 C   0  0  0  0  0  0  0  0  0  0  0  0
  -24.8437  -13.0274   19.4239 C   0  0  0  0  0  0  0  0  0  0  0  0
  -27.8411  -30.3125   19.0153 C   0  0  0  0  0  0  0  0  0  0  0  0
  -22.2590   -9.9265   21.8384 C   0  0  0  0  0  0  0  0  0  0  0  0
  -22.1562   -8.5818   22.1945 C   0  0  0  0  0  0  0  0  0  0  0  0
  -26.6173  -28.8903   20.5315 C   0  0  0  0  0  0  0  0  0  0  0  0
  -28.3009  -22.1610   17.0099 C   0  0  0  0  0  0  0  0  0  0  0  0
  -23.6846   -7.9944   20.4180 C   0  0  0  0  0  0  0  0  0  0  0  0
  -26.9341  -13.3967   20.5774 C   0  0  0  0  0  0  0  0  0  0  0  0
  -29.4484  -13.4703   20.1526 C   0  0  0  0  0  0  0  0  0  0  0  0
  -26.9101  -36.5147   25.5207 C   0  0  0  0  0  0  0  0  0  0  0  0
  -26.1308  -31.2604   20.4544 C   0  0  0  0  0  0  0  0  0  0  0  0
  -27.3456  -35.4458   24.7142 C   0  0  0  0  0  0  0  0  0  0  0  0
  -25.8720  -29.9890   20.9860 C   0  0  0  0  0  0  0  0  0  0  0  0
  -28.1860  -23.4404   17.5535 C   0  0  0  0  0  0  0  0  0  0  0  0
  -29.1603  -21.3438   19.1148 C   0  0  0  0  0  0  0  0  0  0  0  0
  -24.4085  -12.2165   20.4721 C   0  0  0  0  0  0  0  0  0  0  0  0
  -27.5975  -29.0519   19.5527 C   0  0  0  0  0  0  0  0  0  0  0  0
  -23.0746  -10.3052   20.7721 C   0  0  0  0  0  0  0  0  0  0  0  0
  -22.8690   -7.6158   21.4844 C   0  0  0  0  0  0  0  0  0  0  0  0
  -28.7880  -21.1126   17.7905 C   0  0  0  0  0  0  0  0  0  0  0  0
  -23.7874   -9.3392   20.0619 C   0  0  0  0  0  0  0  0  0  0  0  0
  -28.2383  -14.0069   20.6315 C   0  0  0  0  0  0  0  0  0  0  0  0
  -30.3876  -14.4301   20.4410 C   0  0  0  0  0  0  0  0  0  0  0  0
  -29.7010  -12.2163   19.5049 C   0  0  0  0  0  0  0  0  0  0  0  0
  -25.7254  -32.3985   23.3945 C   0  0  0  0  0  0  0  0  0  0  0  0
  -22.8596  -30.8968   23.1609 C   0  0  0  0  0  0  0  0  0  0  0  0
  -20.9829  -28.4467   21.7043 C   0  0  0  0  0  0  0  0  0  0  0  0
  -30.0687  -20.3431   21.2408 C   0  0  0  0  0  0  0  0  0  0  0  0
  -25.9621  -36.3029   26.6744 C   0  0  0  0  0  0  0  0  0  0  0  0
  -25.3308  -32.4517   20.9050 C   0  0  0  0  0  0  0  0  0  0  0  0
  -24.8190  -29.7696   22.0404 C   0  0  0  0  0  0  0  0  0  0  0  0
  -25.2073  -34.9777   26.6072 C   0  0  0  0  0  0  0  0  0  0  0  0
  -31.3145  -17.9449   23.5589 C   0  0  0  0  0  0  0  0  0  0  0  0
  -26.1632  -33.8348   26.2802 C   0  0  0  0  0  0  0  0  0  0  0  0
  -30.7822  -16.6134   23.0243 C   0  0  0  0  0  0  0  0  0  0  0  0
  -30.3072  -19.0770   23.3657 C   0  0  0  0  0  0  0  0  0  0  0  0
  -29.2767  -17.9058   21.4590 C   0  0  0  0  0  0  0  0  0  0  0  0
  -26.8204  -34.0402   24.9100 C   0  0  1  0  0  0  0  0  0  0  0  0
  -24.7158  -32.2696   22.2892 C   0  0  1  0  0  0  0  0  0  0  0  0
  -30.2823  -16.7484   21.5726 C   0  0  2  0  0  0  0  0  0  0  0  0
  -18.6853  -27.4383   21.7455 C   0  0  0  0  0  0  0  0  0  0  0  0
  -23.5347  -29.4715   25.7730 C   0  0  0  0  0  0  0  0  0  0  0  0
  -21.7104  -27.8326   25.2691 C   0  0  0  0  0  0  0  0  0  0  0  0
  -21.1636  -30.2453   25.5893 C   0  0  0  0  0  0  0  0  0  0  0  0
  -27.3053  -24.2505   15.3791 C   0  0  0  0  0  0  0  0  0  0  0  0
  -20.5037  -29.1347   18.8660 C   0  0  0  0  0  0  0  0  0  0  0  0
  -28.8784  -26.5734   17.2581 C   0  0  0  0  0  0  0  0  0  0  0  0
  -27.5508  -25.8266   17.3036 C   0  0  0  0  0  0  0  0  0  0  0  0
  -28.7736  -28.0051   17.7703 C   0  0  0  0  0  0  0  0  0  1  0  0
  -22.3490  -29.5124   23.4798 C   0  0  1  0  0  0  0  0  0  0  0  0
  -19.5927  -28.4708   21.0949 C   0  0  2  0  0  0  0  0  0  0  0  0
  -22.2107  -29.2696   25.0093 C   0  0  0  0  0  0  0  0  0  0  0  0
  -28.3917  -15.2139   21.1824 N   0  0  0  0  0  0  0  0  0  0  0  0
  -29.7093  -15.4437   21.0516 N   0  0  0  0  0  0  0  0  0  0  0  0
  -24.0677  -30.9667   22.4527 N   0  0  0  0  0  0  0  0  0  0  0  0
  -29.8818  -19.1474   21.9660 N   0  0  0  0  0  0  0  0  0  0  0  0
  -31.7192  -14.4975   20.2294 N   0  0  0  0  0  0  0  0  0  0  0  0
  -28.6227  -11.3483   19.2859 N   0  0  0  0  0  0  0  0  0  0  0  0
  -29.6559  -20.2810   19.9103 N   0  0  0  0  0  0  0  0  0  0  0  0
  -25.8987  -33.6915   23.8501 N   0  0  0  0  0  0  0  0  0  0  0  0
  -21.1046  -29.3547   22.7349 N   0  0  0  0  0  0  0  0  0  0  0  0
  -27.6958  -24.4942   16.7690 N   0  0  3  0  0  0  0  0  0  0  0  0
  -19.6623  -28.1817   19.6346 N   0  3  0  0  0  0  0  0  0  0  0  0
  -30.8517  -11.8687   19.1462 O   0  0  0  0  0  0  0  0  0  0  0  0
  -26.3032  -31.3988   23.8047 O   0  0  0  0  0  0  0  0  0  0  0  0
  -22.2070  -31.8798   23.5204 O   0  0  0  0  0  0  0  0  0  0  0  0
  -21.8708  -27.6948   21.3084 O   0  0  0  0  0  0  0  0  0  0  0  0
  -30.5840  -21.3397   21.7541 O   0  0  0  0  0  0  0  0  0  0  0  0
  -23.1763  -11.6407   20.4203 O   0  0  0  0  0  0  0  0  0  0  0  0
  -28.3115  -27.9772   19.1201 O   0  0  0  0  0  0  0  0  0  1  0  0
  -22.7713   -6.3247   21.8274 F   0  0  0  0  0  0  0  0  0  0  0  0
  -28.8947  -19.8870   17.2577 F   0  0  0  0  0  0  0  0  0  0  0  0
  -24.5735   -9.6970   19.0373 F   0  0  0  0  0  0  0  0  0  0  0  0
  1  2  1  0  0  0  0
  1  5  2  0  0  0  0
  2  6  2  0  0  0  0
  3 10  2  0  0  0  0
  3 18  1  0  0  0  0
  4 11  1  0  0  0  0
  4 18  2  0  0  0  0
  5 20  1  0  0  0  0
  6 22  1  0  0  0  0
  7 12  2  0  0  0  0
  7 21  1  0  0  0  0
  8  9  2  0  0  0  0
  8 24  1  0  0  0  0
  9 25  1  0  0  0  0
 10 26  1  0  0  0  0
 11 26  2  0  0  0  0
 12 27  1  0  0  0  0
 13 14  2  0  0  0  0
 13 28  1  0  0  0  0
 14 29  1  0  0  0  0
 15 23  1  0  0  0  0
 15 27  2  0  0  0  0
 16 24  2  0  0  0  0
 16 30  1  0  0  0  0
 17 29  2  0  0  0  0
 17 31  1  0  0  0  0
 18 32  1  0  0  0  0
 19 32  1  0  0  0  0
 19 33  2  0  0  0  0
 19 34  1  0  0  0  0
 20 22  2  0  0  0  0
 20 39  1  0  0  0  0
 21 23  2  0  0  0  0
 21 40  1  0  0  0  0
 22 48  1  0  0  0  0
 23 41  1  0  0  0  0
 24 72  1  0  0  0  0
 25 30  2  0  0  0  0
 25 69  1  0  0  0  0
 26 79  1  0  0  0  0
 27 80  1  0  0  0  0
 28 31  2  0  0  0  0
 28 79  1  0  0  0  0
 29 81  1  0  0  0  0
 30 82  1  0  0  0  0
 31 83  1  0  0  0  0
 32 63  2  0  0  0  0
 33 64  1  0  0  0  0
 33 67  1  0  0  0  0
 34 68  1  0  0  0  0
 34 74  2  0  0  0  0
 35 49  1  0  0  0  0
 35 70  1  0  0  0  0
 35 75  2  0  0  0  0
 36 60  1  0  0  0  0
 36 65  1  0  0  0  0
 36 76  2  0  0  0  0
 37 61  1  0  0  0  0
 37 71  1  0  0  0  0
 37 77  2  0  0  0  0
 38 66  1  0  0  0  0
 38 69  1  0  0  0  0
 38 78  2  0  0  0  0
 39 42  1  0  0  0  0
 40 49  1  0  0  0  0
 41 65  1  0  0  0  0
 42 44  1  0  0  0  0
 43 45  1  0  0  0  0
 43 46  1  0  0  0  0
 44 48  1  0  0  0  0
 45 50  1  0  0  0  0
 46 66  1  0  0  0  0
 47 50  1  0  0  0  0
 47 66  1  0  0  0  0
 48 70  1  0  0  0  0
 49 65  1  0  0  0  0
 50 64  1  0  0  0  0
 51 61  1  0  0  0  0
 52 62  1  0  0  0  0
 53 62  1  0  0  0  0
 54 62  1  0  0  0  0
 55 72  1  0  0  0  0
 56 73  1  0  0  0  0
 57 58  1  0  0  0  0
 57 59  1  0  0  0  0
 58 72  1  0  0  0  0
 59 80  1  0  0  0  0
 60 62  1  0  0  0  0
 60 71  1  0  0  0  0
 61 73  1  0  0  0  0
 63 64  1  0  0  0  0
M  CHG  1  73   1
M  ISO  4  38 100  59 101  69 100  80 101
M  END
> <Batch ID>
0013

> <Smiles>
CNC(C)C(=O)NC(C(=O)N1Cc2cc([101O:1][101CH2:1]CCN(C)c3ccc([100NH:0][100C:0](=O)N4CCCC(n5nc(-c6ccc(Oc7ccc(F)cc7F)cc6)c(C(N)=O)c5N)C4)c(F)c3)ccc2CC1C(=O)NC1CCCc2ccccc21)C(C)(C)C

> <Shape>
0.328

> <Color>
0.095

> <Negative vol penalty>
0.000

$$$$

  -OEChem-04042320483D

 84 93  0     1  0  0  0  0  0999 V2000
  -19.1702  -24.2076   22.6977 C   0  0  0  0  0  0  0  0  0  0  0  0
  -20.3832  -23.6051   23.0157 C   0  0  0  0  0  0  0  0  0  0  0  0
  -23.4603   -9.7481   21.7357 C   0  0  0  0  0  0  0  0  0  0  0  0
  -24.0761  -10.9527   23.7373 C   0  0  0  0  0  0  0  0  0  0  0  0
  -19.1115  -25.5843   22.4851 C   0  0  0  0  0  0  0  0  0  0  0  0
  -21.5385  -24.3789   23.1202 C   0  0  0  0  0  0  0  0  0  0  0  0
  -26.2123  -23.5136   26.9818 C   0  0  0  0  0  0  0  0  0  0  0  0
  -31.9832  -19.1801   21.1001 C   0  0  0  0  0  0  0  0  0  0  0  0
  -31.5151  -17.9168   20.7389 C   0  0  0  0  0  0  0  0  0  0  0  0
  -22.8293   -8.7776   22.5138 C   0  0  0  0  0  0  0  0  0  0  0  0
  -23.4451   -9.9822   24.5155 C   0  0  0  0  0  0  0  0  0  0  0  0
  -27.4595  -22.9106   26.8247 C   0  0  0  0  0  0  0  0  0  0  0  0
  -19.9005   -8.4269   24.1667 C   0  0  0  0  0  0  0  0  0  0  0  0
  -18.6374   -7.9935   23.7639 C   0  0  0  0  0  0  0  0  0  0  0  0
  -28.4447  -25.0720   26.4039 C   0  0  0  0  0  0  0  0  0  0  0  0
  -29.7096  -19.9889   21.2177 C   0  0  0  0  0  0  0  0  0  0  0  0
  -19.4785   -5.7384   23.5530 C   0  0  0  0  0  0  0  0  0  0  0  0
  -24.0837  -10.8357   22.3474 C   0  0  0  0  0  0  0  0  0  0  0  0
  -24.1623  -13.0101   21.0157 C   0  0  0  0  0  0  0  0  0  0  0  0
  -20.2649  -26.3767   22.5965 C   0  0  0  0  0  0  0  0  0  0  0  0
  -26.0698  -24.9014   26.8401 C   0  0  0  0  0  0  0  0  0  0  0  0
  -21.4954  -25.7673   22.9075 C   0  0  0  0  0  0  0  0  0  0  0  0
  -27.1951  -25.6904   26.5622 C   0  0  0  0  0  0  0  0  0  0  0  0
  -31.0804  -20.2162   21.3396 C   0  0  0  0  0  0  0  0  0  0  0  0
  -30.1443  -17.6895   20.6170 C   0  0  0  0  0  0  0  0  0  0  0  0
  -22.8217   -8.8946   23.9038 C   0  0  0  0  0  0  0  0  0  0  0  0
  -28.5755  -23.6895   26.5328 C   0  0  0  0  0  0  0  0  0  0  0  0
  -20.9527   -7.5162   24.2626 C   0  0  0  0  0  0  0  0  0  0  0  0
  -18.4264   -6.6493   23.4571 C   0  0  0  0  0  0  0  0  0  0  0  0
  -20.7416   -6.1719   23.9558 C   0  0  0  0  0  0  0  0  0  0  0  0
  -29.2415  -18.7255   20.8564 C   0  0  0  0  0  0  0  0  0  0  0  0
  -24.7362  -11.8382   21.5441 C   0  0  0  0  0  0  0  0  0  0  0  0
  -25.1885  -13.6182   20.3350 C   0  0  0  0  0  0  0  0  0  0  0  0
  -22.8214  -13.5047   21.1300 C   0  0  0  0  0  0  0  0  0  0  0  0
  -24.4486  -26.8006   24.8732 C   0  0  0  0  0  0  0  0  0  0  0  0
  -25.5474  -29.1305   26.8447 C   0  0  0  0  0  0  0  0  0  0  0  0
  -27.9011  -30.1489   29.0962 C   0  0  0  0  0  0  0  0  0  0  0  0
  -30.4925  -15.2760   19.9845 C   0  0  0  0  0  0  0  0  0  0  0  0
  -20.1610  -27.8540   22.3112 C   0  0  0  0  0  0  0  0  0  0  0  0
  -24.7223  -25.5395   27.0390 C   0  0  0  0  0  0  0  0  0  0  0  0
  -27.0989  -27.1868   26.4202 C   0  0  0  0  0  0  0  0  0  0  0  0
  -21.3604  -28.6564   22.8091 C   0  0  0  0  0  0  0  0  0  0  0  0
  -29.7847  -11.9040   19.0867 C   0  0  0  0  0  0  0  0  0  0  0  0
  -22.6635  -27.9674   22.4168 C   0  0  0  0  0  0  0  0  0  0  0  0
  -28.3610  -11.6827   19.6025 C   0  0  0  0  0  0  0  0  0  0  0  0
  -30.5966  -12.7935   20.0265 C   0  0  0  0  0  0  0  0  0  0  0  0
  -28.5441  -13.8556   20.8799 C   0  0  0  0  0  0  0  0  0  0  0  0
  -30.9375  -21.5502   24.0900 C   0  0  0  0  0  0  0  0  0  0  0  0
  -32.3138  -23.0292   23.5587 C   0  0  0  0  0  0  0  0  0  0  0  0
  -22.7658  -26.5765   23.0542 C   0  0  1  0  0  0  0  0  0  0  0  0
  -24.6012  -26.9025   26.3645 C   0  0  1  0  0  0  0  0  0  0  0  0
  -31.6185  -22.6798   24.8916 C   0  0  0  0  0  0  0  0  0  0  0  0
  -27.6676  -13.0187   19.9339 C   0  0  2  0  0  0  0  0  0  0  0  0
  -28.5558  -32.1185   30.5068 C   0  0  0  0  0  0  0  0  0  0  0  0
  -26.6364  -30.5397   24.3672 C   0  0  0  0  0  0  0  0  0  0  0  0
  -28.0583  -31.9432   25.8761 C   0  0  0  0  0  0  0  0  0  0  0  0
  -25.5722  -32.0564   26.0469 C   0  0  0  0  0  0  0  0  0  0  0  0
  -27.5955  -28.6035   31.6017 C   0  0  0  0  0  0  0  0  0  0  0  0
  -31.5845  -21.5749   21.7278 C   0  0  0  0  0  0  0  0  0  0  0  0
  -30.7119  -23.7383   25.4892 C   0  0  0  0  0  0  0  0  0  1  0  0
  -26.7801  -30.0008   26.8881 C   0  0  1  0  0  0  0  0  0  0  0  0
  -27.7742  -30.8150   30.4544 C   0  0  2  0  0  0  0  0  0  0  0  0
  -26.7636  -31.1066   25.7953 C   0  0  0  0  0  0  0  0  0  0  0  0
  -26.0269  -11.7076   21.2263 N   0  0  0  0  0  0  0  0  0  0  0  0
  -26.2725  -12.8052   20.4907 N   0  0  0  0  0  0  0  0  0  0  0  0
  -25.7586  -27.7631   26.6174 N   0  0  0  0  0  0  0  0  0  0  0  0
  -29.8797  -14.0427   20.2919 N   0  0  0  0  0  0  0  0  0  0  0  0
  -25.2605  -14.7637   19.6243 N   0  0  0  0  0  0  0  0  0  0  0  0
  -21.8932  -12.7552   21.8657 N   0  0  0  0  0  0  0  0  0  0  0  0
  -29.7027  -16.3942   20.2496 N   0  0  0  0  0  0  0  0  0  0  0  0
  -23.1388  -26.6856   24.4483 N   0  0  0  0  0  0  0  0  0  0  0  0
  -26.8724  -30.5101   28.2521 N   0  0  0  0  0  0  0  0  0  0  0  0
  -32.0552  -21.6400   23.1285 N   0  3  0  0  0  0  0  0  0  0  0  0
  -28.2906  -29.9141   31.5234 N   0  3  0  0  0  0  0  0  0  0  0  0
  -22.4528  -14.5711   20.5819 O   0  0  0  0  0  0  0  0  0  0  0  0
  -25.4453  -26.8260   24.1607 O   0  0  0  0  0  0  0  0  0  0  0  0
  -24.4385  -29.6437   27.0135 O   0  0  0  0  0  0  0  0  0  0  0  0
  -28.8229  -29.3876   28.8112 O   0  0  0  0  0  0  0  0  0  0  0  0
  -31.6233  -15.3345   19.4948 O   0  0  0  0  0  0  0  0  0  0  0  0
  -22.2059   -7.9479   24.6634 O   0  0  0  0  0  0  0  0  0  0  0  0
  -29.7939  -23.1035   26.3784 O   0  0  0  0  0  0  0  0  0  1  0  0
  -17.2130   -6.2329   23.0718 F   0  0  0  0  0  0  0  0  0  0  0  0
  -21.7483   -5.2921   24.0472 F   0  0  0  0  0  0  0  0  0  0  0  0
  -27.5360  -18.4874   20.7164 Cl  0  0  0  0  0  0  0  0  0  0  0  0
  1  2  1  0  0  0  0
  1  5  2  0  0  0  0
  2  6  2  0  0  0  0
  3 10  2  0  0  0  0
  3 18  1  0  0  0  0
  4 11  1  0  0  0  0
  4 18  2  0  0  0  0
  5 20  1  0  0  0  0
  6 22  1  0  0  0  0
  7 12  2  0  0  0  0
  7 21  1  0  0  0  0
  8  9  2  0  0  0  0
  8 24  1  0  0  0  0
  9 25  1  0  0  0  0
 10 26  1  0  0  0  0
 11 26  2  0  0  0  0
 12 27  1  0  0  0  0
 13 14  2  0  0  0  0
 13 28  1  0  0  0  0
 14 29  1  0  0  0  0
 15 23  1  0  0  0  0
 15 27  2  0  0  0  0
 16 24  2  0  0  0  0
 16 31  1  0  0  0  0
 17 29  2  0  0  0  0
 17 30  1  0  0  0  0
 18 32  1  0  0  0  0
 19 32  1  0  0  0  0
 19 33  2  0  0  0  0
 19 34  1  0  0  0  0
 20 22  2  0  0  0  0
 20 39  1  0  0  0  0
 21 23  2  0  0  0  0
 21 40  1  0  0  0  0
 22 50  1  0  0  0  0
 23 41  1  0  0  0  0
 24 59  1  0  0  0  0
 25 31  2  0  0  0  0
 25 70  1  0  0  0  0
 26 80  1  0  0  0  0
 27 81  1  0  0  0  0
 28 30  2  0  0  0  0
 28 80  1  0  0  0  0
 29 82  1  0  0  0  0
 30 83  1  0  0  0  0
 31 84  1  0  0  0  0
 32 64  2  0  0  0  0
 33 65  1  0  0  0  0
 33 68  1  0  0  0  0
 34 69  1  0  0  0  0
 34 75  2  0  0  0  0
 35 51  1  0  0  0  0
 35 71  1  0  0  0  0
 35 76  2  0  0  0  0
 36 61  1  0  0  0  0
 36 66  1  0  0  0  0
 36 77  2  0  0  0  0
 37 62  1  0  0  0  0
 37 72  1  0  0  0  0
 37 78  2  0  0  0  0
 38 67  1  0  0  0  0
 38 70  1  0  0  0  0
 38 79  2  0  0  0  0
 39 42  1  0  0  0  0
 40 51  1  0  0  0  0
 41 66  1  0  0  0  0
 42 44  1  0  0  0  0
 43 45  1  0  0  0  0
 43 46  1  0  0  0  0
 44 50  1  0  0  0  0
 45 53  1  0  0  0  0
 46 67  1  0  0  0  0
 47 53  1  0  0  0  0
 47 67  1  0  0  0  0
 48 52  1  0  0  0  0
 48 73  1  0  0  0  0
 49 52  1  0  0  0  0
 49 73  1  0  0  0  0
 50 71  1  0  0  0  0
 51 66  1  0  0  0  0
 52 60  1  0  0  0  0
 53 65  1  0  0  0  0
 54 62  1  0  0  0  0
 55 63  1  0  0  0  0
 56 63  1  0  0  0  0
 57 63  1  0  0  0  0
 58 74  1  0  0  0  0
 59 73  1  0  0  0  0
 60 81  1  0  0  0  0
 61 63  1  0  0  0  0
 61 72  1  0  0  0  0
 62 74  1  0  0  0  0
 64 65  1  0  0  0  0
M  CHG  2  73   1  74   1
M  ISO  4  38 100  60 101  70 100  81 101
M  END
> <Batch ID>
0013

> <Smiles>
CNC(C)C(=O)NC(C(=O)N1Cc2cc([101O:1][101CH2:1]C3CN(Cc4ccc([100NH:0][100C:0](=O)N5CCCC(n6nc(-c7ccc(Oc8ccc(F)cc8F)cc7)c(C(N)=O)c6N)C5)c(Cl)c4)C3)ccc2CC1C(=O)NC1CCCc2ccccc21)C(C)(C)C

> <Shape>
0.220

> <Color>
0.133

> <Negative vol penalty>
0.000

$$$$

  -OEChem-04042320483D

 81 89  0     1  0  0  0  0  0999 V2000
  -23.6146  -32.7404   26.6417 C   0  0  0  0  0  0  0  0  0  0  0  0
  -24.8879  -32.2906   26.3072 C   0  0  0  0  0  0  0  0  0  0  0  0
  -24.0433   -9.7225   21.7174 C   0  0  0  0  0  0  0  0  0  0  0  0
  -24.6463  -10.9946   23.6809 C   0  0  0  0  0  0  0  0  0  0  0  0
  -22.4922  -32.0271   26.2230 C   0  0  0  0  0  0  0  0  0  0  0  0
  -25.0395  -31.1265   25.5547 C   0  0  0  0  0  0  0  0  0  0  0  0
  -29.3143  -28.1906   20.6127 C   0  0  0  0  0  0  0  0  0  0  0  0
  -30.7820  -18.9585   20.2106 C   0  0  0  0  0  0  0  0  0  0  0  0
  -23.6164   -8.6717   22.5293 C   0  0  0  0  0  0  0  0  0  0  0  0
  -24.2193   -9.9438   24.4928 C   0  0  0  0  0  0  0  0  0  0  0  0
  -30.0451  -27.0275   20.3746 C   0  0  0  0  0  0  0  0  0  0  0  0
  -31.0681  -20.2797   20.5541 C   0  0  0  0  0  0  0  0  0  0  0  0
  -20.9059   -7.9145   24.4036 C   0  0  0  0  0  0  0  0  0  0  0  0
  -19.6862   -7.3118   24.0959 C   0  0  0  0  0  0  0  0  0  0  0  0
  -28.0319  -25.9204   19.6392 C   0  0  0  0  0  0  0  0  0  0  0  0
  -28.7097  -20.7140   20.8479 C   0  0  0  0  0  0  0  0  0  0  0  0
  -20.8098   -5.1954   23.7874 C   0  0  0  0  0  0  0  0  0  0  0  0
  -24.5583  -10.8839   22.2932 C   0  0  0  0  0  0  0  0  0  0  0  0
  -24.2298  -13.0524   20.9902 C   0  0  0  0  0  0  0  0  0  0  0  0
  -22.6299  -30.8589   25.4568 C   0  0  0  0  0  0  0  0  0  0  0  0
  -27.9326  -28.2242   20.3757 C   0  0  0  0  0  0  0  0  0  0  0  0
  -23.9180  -30.3961   25.1265 C   0  0  0  0  0  0  0  0  0  0  0  0
  -27.2863  -27.0860   19.8726 C   0  0  0  0  0  0  0  0  0  0  0  0
  -29.4598  -18.5150   20.1855 C   0  0  0  0  0  0  0  0  0  0  0  0
  -23.7044   -8.7823   23.9170 C   0  0  0  0  0  0  0  0  0  0  0  0
  -29.4035  -25.8912   19.8905 C   0  0  0  0  0  0  0  0  0  0  0  0
  -30.0320  -21.1575   20.8728 C   0  0  0  0  0  0  0  0  0  0  0  0
  -22.0776   -7.1576   24.4031 C   0  0  0  0  0  0  0  0  0  0  0  0
  -19.6381   -5.9523   23.7878 C   0  0  0  0  0  0  0  0  0  0  0  0
  -28.4236  -19.3928   20.5042 C   0  0  0  0  0  0  0  0  0  0  0  0
  -22.0296   -5.7981   24.0950 C   0  0  0  0  0  0  0  0  0  0  0  0
  -25.0000  -11.9695   21.4550 C   0  0  0  0  0  0  0  0  0  0  0  0
  -25.1046  -13.7986   20.2391 C   0  0  0  0  0  0  0  0  0  0  0  0
  -22.8471  -13.3565   21.2173 C   0  0  0  0  0  0  0  0  0  0  0  0
  -25.3581  -28.6945   22.1797 C   0  0  0  0  0  0  0  0  0  0  0  0
  -23.8210  -28.6090   19.3245 C   0  0  0  0  0  0  0  0  0  0  0  0
  -23.8043  -27.5722   16.0731 C   0  0  0  0  0  0  0  0  0  0  0  0
  -30.0847  -16.1747   19.4935 C   0  0  0  0  0  0  0  0  0  0  0  0
  -21.3887  -30.0957   25.0674 C   0  0  0  0  0  0  0  0  0  0  0  0
  -27.1632  -29.4948   20.6123 C   0  0  0  0  0  0  0  0  0  0  0  0
  -25.8084  -27.0763   19.5826 C   0  0  0  0  0  0  0  0  0  0  0  0
  -21.6240  -29.0770   23.9551 C   0  0  0  0  0  0  0  0  0  0  0  0
  -29.7777  -12.7400   18.6070 C   0  0  0  0  0  0  0  0  0  0  0  0
  -22.8783  -28.2567   24.2391 C   0  0  0  0  0  0  0  0  0  0  0  0
  -28.4440  -12.3225   19.2307 C   0  0  0  0  0  0  0  0  0  0  0  0
  -30.5323  -13.7304   19.4921 C   0  0  0  0  0  0  0  0  0  0  0  0
  -28.4284  -14.4960   20.5202 C   0  0  0  0  0  0  0  0  0  0  0  0
  -24.1226  -29.1513   24.2906 C   0  0  1  0  0  0  0  0  0  0  0  0
  -25.6707  -29.2593   20.8229 C   0  0  1  0  0  0  0  0  0  0  0  0
  -27.6023  -13.5488   19.6347 C   0  0  2  0  0  0  0  0  0  0  0  0
  -22.3954  -27.6215   13.9970 C   0  0  0  0  0  0  0  0  0  0  0  0
  -22.0091  -26.4570   20.5059 C   0  0  0  0  0  0  0  0  0  0  0  0
  -21.2863  -25.8860   18.1779 C   0  0  0  0  0  0  0  0  0  0  0  0
  -20.8302  -28.1578   19.1017 C   0  0  0  0  0  0  0  0  0  0  0  0
  -25.8768  -29.0487   14.5620 C   0  0  0  0  0  0  0  0  0  0  0  0
  -31.2612  -24.5267   20.4758 C   0  0  0  0  0  0  0  0  0  1  0  0
  -31.4737  -23.0327   20.6261 C   0  0  0  0  0  0  0  0  0  0  0  0
  -23.1974  -27.5257   18.4781 C   0  0  1  0  0  0  0  0  0  0  0  0
  -23.5008  -28.3106   14.7819 C   0  0  2  0  0  0  0  0  0  0  0  0
  -21.8583  -27.0059   19.0731 C   0  0  0  0  0  0  0  0  0  0  0  0
  -26.2666  -12.0195   21.0342 N   0  0  0  0  0  0  0  0  0  0  0  0
  -26.2990  -13.1428   20.2971 N   0  0  0  0  0  0  0  0  0  0  0  0
  -25.0986  -28.3411   19.8361 N   0  0  0  0  0  0  0  0  0  0  0  0
  -29.6740  -14.8677   19.8310 N   0  0  0  0  0  0  0  0  0  0  0  0
  -24.9610  -14.9452   19.5412 N   0  0  0  0  0  0  0  0  0  0  0  0
  -22.0930  -12.4837   22.0134 N   0  0  0  0  0  0  0  0  0  0  0  0
  -29.1724  -17.1722   19.8360 N   0  0  0  0  0  0  0  0  0  0  0  0
  -24.5475  -29.5037   22.9528 N   0  0  0  0  0  0  0  0  0  0  0  0
  -23.0794  -28.0763   17.1322 N   0  0  0  0  0  0  0  0  0  0  0  0
  -24.7173  -28.3743   13.9234 N   0  3  0  0  0  0  0  0  0  0  0  0
  -22.2926  -14.3634   20.7151 O   0  0  0  0  0  0  0  0  0  0  0  0
  -25.8170  -27.6046   22.5009 O   0  0  0  0  0  0  0  0  0  0  0  0
  -23.2006  -29.6574   19.5185 O   0  0  0  0  0  0  0  0  0  0  0  0
  -24.6016  -26.6390   16.1351 O   0  0  0  0  0  0  0  0  0  0  0  0
  -31.1537  -16.3905   18.9167 O   0  0  0  0  0  0  0  0  0  0  0  0
  -23.2877   -7.7573   24.7095 O   0  0  0  0  0  0  0  0  0  0  0  0
  -30.1143  -24.7543   19.6579 O   0  0  0  0  0  0  0  0  0  1  0  0
  -30.3131  -22.4549   21.2114 O   0  0  0  0  0  0  0  0  0  0  0  0
  -18.4666   -5.3733   23.4939 F   0  0  0  0  0  0  0  0  0  0  0  0
  -27.1490  -18.9774   20.4830 F   0  0  0  0  0  0  0  0  0  0  0  0
  -23.1517   -5.0655   24.0941 F   0  0  0  0  0  0  0  0  0  0  0  0
  1  2  1  0  0  0  0
  1  5  2  0  0  0  0
  2  6  2  0  0  0  0
  3  9  2  0  0  0  0
  3 18  1  0  0  0  0
  4 10  1  0  0  0  0
  4 18  2  0  0  0  0
  5 20  1  0  0  0  0
  6 22  1  0  0  0  0
  7 11  2  0  0  0  0
  7 21  1  0  0  0  0
  8 12  2  0  0  0  0
  8 24  1  0  0  0  0
  9 25  1  0  0  0  0
 10 25  2  0  0  0  0
 11 26  1  0  0  0  0
 12 27  1  0  0  0  0
 13 14  2  0  0  0  0
 13 28  1  0  0  0  0
 14 29  1  0  0  0  0
 15 23  1  0  0  0  0
 15 26  2  0  0  0  0
 16 27  2  0  0  0  0
 16 30  1  0  0  0  0
 17 29  2  0  0  0  0
 17 31  1  0  0  0  0
 18 32  1  0  0  0  0
 19 32  1  0  0  0  0
 19 33  2  0  0  0  0
 19 34  1  0  0  0  0
 20 22  2  0  0  0  0
 20 39  1  0  0  0  0
 21 23  2  0  0  0  0
 21 40  1  0  0  0  0
 22 48  1  0  0  0  0
 23 41  1  0  0  0  0
 24 30  2  0  0  0  0
 24 67  1  0  0  0  0
 25 76  1  0  0  0  0
 26 77  1  0  0  0  0
 27 78  1  0  0  0  0
 28 31  2  0  0  0  0
 28 76  1  0  0  0  0
 29 79  1  0  0  0  0
 30 80  1  0  0  0  0
 31 81  1  0  0  0  0
 32 61  2  0  0  0  0
 33 62  1  0  0  0  0
 33 65  1  0  0  0  0
 34 66  1  0  0  0  0
 34 71  2  0  0  0  0
 35 49  1  0  0  0  0
 35 68  1  0  0  0  0
 35 72  2  0  0  0  0
 36 58  1  0  0  0  0
 36 63  1  0  0  0  0
 36 73  2  0  0  0  0
 37 59  1  0  0  0  0
 37 69  1  0  0  0  0
 37 74  2  0  0  0  0
 38 64  1  0  0  0  0
 38 67  1  0  0  0  0
 38 75  2  0  0  0  0
 39 42  1  0  0  0  0
 40 49  1  0  0  0  0
 41 63  1  0  0  0  0
 42 44  1  0  0  0  0
 43 45  1  0  0  0  0
 43 46  1  0  0  0  0
 44 48  1  0  0  0  0
 45 50  1  0  0  0  0
 46 64  1  0  0  0  0
 47 50  1  0  0  0  0
 47 64  1  0  0  0  0
 48 68  1  0  0  0  0
 49 63  1  0  0  0  0
 50 62  1  0  0  0  0
 51 59  1  0  0  0  0
 52 60  1  0  0  0  0
 53 60  1  0  0  0  0
 54 60  1  0  0  0  0
 55 70  1  0  0  0  0
 56 57  1  0  0  0  0
 56 77  1  0  0  0  0
 57 78  1  0  0  0  0
 58 60  1  0  0  0  0
 58 69  1  0  0  0  0
 59 70  1  0  0  0  0
 61 62  1  0  0  0  0
M  CHG  1  70   1
M  ISO  4  38 100  56 101  67 100  77 101
M  END
> <Batch ID>
0013

> <Smiles>
CNC(C)C(=O)NC(C(=O)N1Cc2cc([101O:1][101CH2:1]COc3ccc([100NH:0][100C:0](=O)N4CCCC(n5nc(-c6ccc(Oc7ccc(F)cc7F)cc6)c(C(N)=O)c5N)C4)c(F)c3)ccc2CC1C(=O)NC1CCCc2ccccc21)C(C)(C)C

> <Shape>
0.293

> <Color>
0.123

> <Negative vol penalty>
0.000

$$$$

  -OEChem-04042320483D

 84 93  0     1  0  0  0  0  0999 V2000
  -27.3863  -33.5196   12.8768 C   0  0  0  0  0  0  0  0  0  0  0  0
  -27.2418  -32.2320   13.3835 C   0  0  0  0  0  0  0  0  0  0  0  0
  -23.6948   -9.6341   19.9177 C   0  0  0  0  0  0  0  0  0  0  0  0
  -24.4032   -9.8260   22.2196 C   0  0  0  0  0  0  0  0  0  0  0  0
  -28.1261  -34.4666   13.5837 C   0  0  0  0  0  0  0  0  0  0  0  0
  -27.8379  -31.8905   14.5969 C   0  0  0  0  0  0  0  0  0  0  0  0
  -25.6433  -28.0375   18.8212 C   0  0  0  0  0  0  0  0  0  0  0  0
  -27.9870  -20.2989   22.3469 C   0  0  0  0  0  0  0  0  0  0  0  0
  -28.1354  -18.9120   22.3496 C   0  0  0  0  0  0  0  0  0  0  0  0
  -23.2264   -8.3446   20.1693 C   0  0  0  0  0  0  0  0  0  0  0  0
  -23.9347   -8.5364   22.4712 C   0  0  0  0  0  0  0  0  0  0  0  0
  -25.9143  -26.6988   19.1007 C   0  0  0  0  0  0  0  0  0  0  0  0
  -20.9613   -7.0358   23.0435 C   0  0  0  0  0  0  0  0  0  0  0  0
  -20.2173   -6.8336   24.2059 C   0  0  0  0  0  0  0  0  0  0  0  0
  -27.4865  -27.3780   20.7996 C   0  0  0  0  0  0  0  0  0  0  0  0
  -29.7903  -19.0856   20.5979 C   0  0  0  0  0  0  0  0  0  0  0  0
  -21.8531   -5.2300   24.9738 C   0  0  0  0  0  0  0  0  0  0  0  0
  -24.2833  -10.3748   20.9429 C   0  0  0  0  0  0  0  0  0  0  0  0
  -24.0495  -12.9113   20.8043 C   0  0  0  0  0  0  0  0  0  0  0  0
  -28.7235  -34.1393   14.8111 C   0  0  0  0  0  0  0  0  0  0  0  0
  -26.3011  -29.0583   19.5224 C   0  0  0  0  0  0  0  0  0  0  0  0
  -28.5875  -32.8337   15.3202 C   0  0  0  0  0  0  0  0  0  0  0  0
  -27.2202  -28.7289   20.5288 C   0  0  0  0  0  0  0  0  0  0  0  0
  -28.7401  -21.0792   21.4696 C   0  0  0  0  0  0  0  0  0  0  0  0
  -29.0370  -18.3054   21.4752 C   0  0  0  0  0  0  0  0  0  0  0  0
  -23.3463   -7.7958   21.4461 C   0  0  0  0  0  0  0  0  0  0  0  0
  -26.8381  -26.3688   20.0881 C   0  0  0  0  0  0  0  0  0  0  0  0
  -22.1512   -6.3351   22.8462 C   0  0  0  0  0  0  0  0  0  0  0  0
  -20.6632   -5.9307   25.1711 C   0  0  0  0  0  0  0  0  0  0  0  0
  -29.6418  -20.4726   20.5952 C   0  0  0  0  0  0  0  0  0  0  0  0
  -22.5971   -5.4322   23.8114 C   0  0  0  0  0  0  0  0  0  0  0  0
  -24.7679  -11.7067   20.6834 C   0  0  0  0  0  0  0  0  0  0  0  0
  -24.9496  -13.8852   20.4470 C   0  0  0  0  0  0  0  0  0  0  0  0
  -28.7590  -23.3587   20.3683 C   0  0  0  0  0  0  0  0  0  0  0  0
  -22.6901  -13.1303   21.2039 C   0  0  0  0  0  0  0  0  0  0  0  0
  -28.2672  -31.4237   18.7206 C   0  0  0  0  0  0  0  0  0  0  0  0
  -27.9059  -32.2578   21.8344 C   0  0  0  0  0  0  0  0  0  0  0  0
  -27.1485  -31.3001   25.0212 C   0  0  0  0  0  0  0  0  0  0  0  0
  -30.0374  -16.1360   20.6755 C   0  0  0  0  0  0  0  0  0  0  0  0
  -29.5533  -35.1831   15.5159 C   0  0  0  0  0  0  0  0  0  0  0  0
  -25.9779  -30.4974   19.2274 C   0  0  0  0  0  0  0  0  0  0  0  0
  -27.9382  -29.7872   21.3244 C   0  0  0  0  0  0  0  0  0  0  0  0
  -29.8397  -34.8487   16.9775 C   0  0  0  0  0  0  0  0  0  0  0  0
  -29.5264  -13.5189   18.3161 C   0  0  0  0  0  0  0  0  0  0  0  0
  -30.2926  -33.3985   17.1144 C   0  0  0  0  0  0  0  0  0  0  0  0
  -28.1838  -12.9132   18.7316 C   0  0  0  0  0  0  0  0  0  0  0  0
  -28.4572  -24.6756   22.3442 C   0  0  0  0  0  0  0  0  0  0  0  0
  -30.3505  -13.9552   19.5262 C   0  0  0  0  0  0  0  0  0  0  0  0
  -28.1330  -23.2232   22.6410 C   0  0  0  0  0  0  0  0  0  0  0  0
  -28.3113  -14.2400   20.8788 C   0  0  0  0  0  0  0  0  0  0  0  0
  -29.1983  -32.4322   16.6453 C   0  0  1  0  0  0  0  0  0  0  0  0
  -28.4032  -24.7559   20.8290 C   0  0  2  0  0  0  0  0  0  1  0  0
  -27.0862  -31.4572   19.6489 C   0  0  1  0  0  0  0  0  0  0  0  0
  -27.4181  -13.8449   19.6914 C   0  0  2  0  0  0  0  0  0  0  0  0
  -26.9757  -32.1959   27.3590 C   0  0  0  0  0  0  0  0  0  0  0  0
  -30.9488  -32.2501   22.0597 C   0  0  0  0  0  0  0  0  0  0  0  0
  -30.6948  -32.2032   24.5499 C   0  0  0  0  0  0  0  0  0  0  0  0
  -29.8198  -34.1408   23.2450 C   0  0  0  0  0  0  0  0  0  0  0  0
  -24.2695  -30.6348   25.1875 C   0  0  0  0  0  0  0  0  0  0  0  0
  -28.6187  -31.9195   23.1215 C   0  0  1  0  0  0  0  0  0  0  0  0
  -26.2300  -31.9097   26.0649 C   0  0  2  0  0  0  0  0  0  0  0  0
  -30.0086  -32.6082   23.2279 C   0  0  0  0  0  0  0  0  0  0  0  0
  -26.0273  -11.8956   20.2807 N   0  0  0  0  0  0  0  0  0  0  0  0
  -26.1073  -13.2303   20.1453 N   0  0  0  0  0  0  0  0  0  0  0  0
  -28.5861  -22.4981   21.4690 N   0  0  0  0  0  0  0  0  0  0  0  0
  -27.5928  -31.1798   20.9945 N   0  0  0  0  0  0  0  0  0  0  0  0
  -29.5623  -14.8389   20.3878 N   0  0  0  0  0  0  0  0  0  0  0  0
  -24.8559  -15.2294   20.3646 N   0  0  0  0  0  0  0  0  0  0  0  0
  -21.9044  -12.0186   21.5376 N   0  0  0  0  0  0  0  0  0  0  0  0
  -29.1876  -16.8964   21.4781 N   0  0  0  0  0  0  0  0  0  0  0  0
  -28.1721  -32.3010   17.6572 N   0  0  0  0  0  0  0  0  0  0  0  0
  -27.6980  -32.2619   24.2001 N   0  0  0  0  0  0  0  0  0  0  0  0
  -25.1025  -30.9833   26.3672 N   0  3  0  0  0  0  0  0  0  0  0  0
  -29.0669  -23.1054   19.2124 O   0  0  0  0  0  0  0  0  0  0  0  0
  -22.1821  -14.2764   21.2476 O   0  0  0  0  0  0  0  0  0  0  0  0
  -29.1967  -30.6595   18.9527 O   0  0  0  0  0  0  0  0  0  0  0  0
  -27.6306  -33.4345   21.5869 O   0  0  0  0  0  0  0  0  0  0  0  0
  -27.3604  -30.0919   24.9446 O   0  0  0  0  0  0  0  0  0  0  0  0
  -31.1056  -16.5518   20.2195 O   0  0  0  0  0  0  0  0  0  0  0  0
  -22.8891   -6.5376   21.6920 O   0  0  0  0  0  0  0  0  0  0  0  0
  -27.1049  -25.0629   20.3625 O   0  0  0  0  0  0  0  0  0  1  0  0
  -19.9494   -5.7377   26.2880 F   0  0  0  0  0  0  0  0  0  0  0  0
  -30.3706  -21.2126   19.7472 F   0  0  0  0  0  0  0  0  0  0  0  0
  -23.7400   -4.7570   23.6280 F   0  0  0  0  0  0  0  0  0  0  0  0
  1  2  1  0  0  0  0
  1  5  2  0  0  0  0
  2  6  2  0  0  0  0
  3 10  2  0  0  0  0
  3 18  1  0  0  0  0
  4 11  1  0  0  0  0
  4 18  2  0  0  0  0
  5 20  1  0  0  0  0
  6 22  1  0  0  0  0
  7 12  2  0  0  0  0
  7 21  1  0  0  0  0
  8  9  2  0  0  0  0
  8 24  1  0  0  0  0
  9 25  1  0  0  0  0
 10 26  1  0  0  0  0
 11 26  2  0  0  0  0
 12 27  1  0  0  0  0
 13 14  2  0  0  0  0
 13 28  1  0  0  0  0
 14 29  1  0  0  0  0
 15 23  1  0  0  0  0
 15 27  2  0  0  0  0
 16 25  2  0  0  0  0
 16 30  1  0  0  0  0
 17 29  2  0  0  0  0
 17 31  1  0  0  0  0
 18 32  1  0  0  0  0
 19 32  1  0  0  0  0
 19 33  2  0  0  0  0
 19 35  1  0  0  0  0
 20 22  2  0  0  0  0
 20 40  1  0  0  0  0
 21 23  2  0  0  0  0
 21 41  1  0  0  0  0
 22 51  1  0  0  0  0
 23 42  1  0  0  0  0
 24 30  2  0  0  0  0
 24 65  1  0  0  0  0
 25 70  1  0  0  0  0
 26 80  1  0  0  0  0
 27 81  1  0  0  0  0
 28 31  2  0  0  0  0
 28 80  1  0  0  0  0
 29 82  1  0  0  0  0
 30 83  1  0  0  0  0
 31 84  1  0  0  0  0
 32 63  2  0  0  0  0
 33 64  1  0  0  0  0
 33 68  1  0  0  0  0
 34 52  1  0  0  0  0
 34 65  1  0  0  0  0
 34 74  2  0  0  0  0
 35 69  1  0  0  0  0
 35 75  2  0  0  0  0
 36 53  1  0  0  0  0
 36 71  1  0  0  0  0
 36 76  2  0  0  0  0
 37 60  1  0  0  0  0
 37 66  1  0  0  0  0
 37 77  2  0  0  0  0
 38 61  1  0  0  0  0
 38 72  1  0  0  0  0
 38 78  2  0  0  0  0
 39 67  1  0  0  0  0
 39 70  1  0  0  0  0
 39 79  2  0  0  0  0
 40 43  1  0  0  0  0
 41 53  1  0  0  0  0
 42 66  1  0  0  0  0
 43 45  1  0  0  0  0
 44 46  1  0  0  0  0
 44 48  1  0  0  0  0
 45 51  1  0  0  0  0
 46 54  1  0  0  0  0
 47 49  1  0  0  0  0
 47 52  1  0  0  0  0
 48 67  1  0  0  0  0
 49 65  1  0  0  0  0
 50 54  1  0  0  0  0
 50 67  1  0  0  0  0
 51 71  1  0  0  0  0
 52 81  1  0  0  0  0
 53 66  1  0  0  0  0
 54 64  1  0  0  0  0
 55 61  1  0  0  0  0
 56 62  1  0  0  0  0
 57 62  1  0  0  0  0
 58 62  1  0  0  0  0
 59 73  1  0  0  0  0
 60 62  1  0  0  0  0
 60 72  1  0  0  0  0
 61 73  1  0  0  0  0
 63 64  1  0  0  0  0
M  CHG  1  73   1
M  ISO  4  39 100  52 101  70 100  81 101
M  END
> <Batch ID>
0013

> <Smiles>
CNC(C)C(=O)NC(C(=O)N1Cc2cc([101O:1][101CH:1]3CCN(c4ccc([100NH:0][100C:0](=O)N5CCCC(n6nc(-c7ccc(Oc8ccc(F)cc8F)cc7)c(C(N)=O)c6N)C5)cc4F)C3=O)ccc2CC1C(=O)NC1CCCc2ccccc21)C(C)(C)C

> <Shape>
0.302

> <Color>
0.152

> <Negative vol penalty>
0.000

$$$$

  -OEChem-04042320483D

 83 91  0     1  0  0  0  0  0999 V2000
  -28.3669  -37.9925   24.3063 C   0  0  0  0  0  0  0  0  0  0  0  0
  -28.7850  -36.9449   23.4919 C   0  0  0  0  0  0  0  0  0  0  0  0
  -26.4901  -12.6066   21.6221 C   0  0  0  0  0  0  0  0  0  0  0  0
  -26.1015  -13.6101   19.4589 C   0  0  0  0  0  0  0  0  0  0  0  0
  -27.4549  -37.7541   25.3336 C   0  0  0  0  0  0  0  0  0  0  0  0
  -28.2920  -35.6581   23.7050 C   0  0  0  0  0  0  0  0  0  0  0  0
  -27.1140  -31.4153   19.4486 C   0  0  0  0  0  0  0  0  0  0  0  0
  -28.5303  -23.6748   18.7962 C   0  0  0  0  0  0  0  0  0  0  0  0
  -29.0153  -22.6183   19.5670 C   0  0  0  0  0  0  0  0  0  0  0  0
  -25.2298  -12.0110   21.5722 C   0  0  0  0  0  0  0  0  0  0  0  0
  -24.8412  -13.0143   19.4090 C   0  0  0  0  0  0  0  0  0  0  0  0
  -27.8414  -30.3167   18.9927 C   0  0  0  0  0  0  0  0  0  0  0  0
  -23.7978   -9.3323   20.0865 C   0  0  0  0  0  0  0  0  0  0  0  0
  -23.6998   -7.9908   20.4555 C   0  0  0  0  0  0  0  0  0  0  0  0
  -26.6131  -28.8865   20.4977 C   0  0  0  0  0  0  0  0  0  0  0  0
  -28.2664  -22.1814   16.9154 C   0  0  0  0  0  0  0  0  0  0  0  0
  -22.1621   -8.5885   22.2205 C   0  0  0  0  0  0  0  0  0  0  0  0
  -26.9259  -13.4063   20.5654 C   0  0  0  0  0  0  0  0  0  0  0  0
  -29.4414  -13.4847   20.1489 C   0  0  0  0  0  0  0  0  0  0  0  0
  -26.9432  -36.4655   25.5533 C   0  0  0  0  0  0  0  0  0  0  0  0
  -26.1366  -31.2592   20.4420 C   0  0  0  0  0  0  0  0  0  0  0  0
  -27.3734  -35.4020   24.7370 C   0  0  0  0  0  0  0  0  0  0  0  0
  -25.8729  -29.9843   20.9627 C   0  0  0  0  0  0  0  0  0  0  0  0
  -28.1558  -23.4563   17.4704 C   0  0  0  0  0  0  0  0  0  0  0  0
  -29.1259  -21.3434   19.0120 C   0  0  0  0  0  0  0  0  0  0  0  0
  -24.4054  -12.2148   20.4656 C   0  0  0  0  0  0  0  0  0  0  0  0
  -27.5930  -29.0526   19.5193 C   0  0  0  0  0  0  0  0  0  0  0  0
  -23.0780  -10.3020   20.7846 C   0  0  0  0  0  0  0  0  0  0  0  0
  -22.8820   -7.6188   21.5225 C   0  0  0  0  0  0  0  0  0  0  0  0
  -22.2601   -9.9301   21.8515 C   0  0  0  0  0  0  0  0  0  0  0  0
  -28.7515  -21.1249   17.6862 C   0  0  0  0  0  0  0  0  0  0  0  0
  -28.2274  -14.0223   20.6166 C   0  0  0  0  0  0  0  0  0  0  0  0
  -30.3757  -14.4518   20.4287 C   0  0  0  0  0  0  0  0  0  0  0  0
  -29.7014  -12.2238   19.5178 C   0  0  0  0  0  0  0  0  0  0  0  0
  -25.7389  -32.3732   23.3923 C   0  0  0  0  0  0  0  0  0  0  0  0
  -22.8666  -30.8857   23.1486 C   0  0  0  0  0  0  0  0  0  0  0  0
  -20.9781  -28.4564   21.6726 C   0  0  0  0  0  0  0  0  0  0  0  0
  -30.0305  -20.3730   21.1536 C   0  0  0  0  0  0  0  0  0  0  0  0
  -25.9955  -36.2476   26.7061 C   0  0  0  0  0  0  0  0  0  0  0  0
  -25.3420  -32.4499   20.9038 C   0  0  0  0  0  0  0  0  0  0  0  0
  -24.8201  -29.7601   22.0162 C   0  0  0  0  0  0  0  0  0  0  0  0
  -25.2350  -34.9262   26.6280 C   0  0  0  0  0  0  0  0  0  0  0  0
  -31.2772  -18.0088   23.5060 C   0  0  0  0  0  0  0  0  0  0  0  0
  -26.1858  -33.7823   26.2901 C   0  0  0  0  0  0  0  0  0  0  0  0
  -30.7521  -16.6686   22.9860 C   0  0  0  0  0  0  0  0  0  0  0  0
  -30.2661  -19.1344   23.2950 C   0  0  0  0  0  0  0  0  0  0  0  0
  -29.2473  -17.9354   21.3993 C   0  0  0  0  0  0  0  0  0  0  0  0
  -26.8424  -33.9968   24.9210 C   0  0  1  0  0  0  0  0  0  0  0  0
  -24.7276  -32.2582   22.2870 C   0  0  1  0  0  0  0  0  0  0  0  0
  -30.2571  -16.7835   21.5309 C   0  0  2  0  0  0  0  0  0  0  0  0
  -18.6763  -27.4573   21.7074 C   0  0  0  0  0  0  0  0  0  0  0  0
  -23.5383  -29.4347   25.7473 C   0  0  0  0  0  0  0  0  0  0  0  0
  -21.7066  -27.8079   25.2310 C   0  0  0  0  0  0  0  0  0  0  0  0
  -21.1703  -30.2200   25.5730 C   0  0  0  0  0  0  0  0  0  0  0  0
  -27.2762  -24.2892   15.3041 C   0  0  0  0  0  0  0  0  0  0  0  0
  -20.4989  -29.1713   18.8409 C   0  0  0  0  0  0  0  0  0  0  0  0
  -28.8611  -26.5889   17.2017 C   0  0  0  0  0  0  0  0  0  0  0  0
  -27.5304  -25.8474   17.2421 C   0  0  0  0  0  0  0  0  0  0  0  0
  -28.7628  -28.0165   17.7266 C   0  0  0  0  0  0  0  0  0  1  0  0
  -22.3504  -29.5007   23.4559 C   0  0  1  0  0  0  0  0  0  0  0  0
  -19.5874  -28.4917   21.0649 C   0  0  2  0  0  0  0  0  0  0  0  0
  -22.2127  -29.2450   24.9834 C   0  0  0  0  0  0  0  0  0  0  0  0
  -28.3740  -15.2368   21.1531 N   0  0  0  0  0  0  0  0  0  0  0  0
  -29.6912  -15.4701   21.0242 N   0  0  0  0  0  0  0  0  0  0  0  0
  -24.0743  -30.9567   22.4398 N   0  0  0  0  0  0  0  0  0  0  0  0
  -29.8456  -19.1856   21.8930 N   0  0  0  0  0  0  0  0  0  0  0  0
  -31.7078  -14.5219   20.2212 N   0  0  0  0  0  0  0  0  0  0  0  0
  -28.6273  -11.3487   19.3057 N   0  0  0  0  0  0  0  0  0  0  0  0
  -29.6228  -20.2926   19.8225 N   0  0  0  0  0  0  0  0  0  0  0  0
  -25.9182  -33.6614   23.8591 N   0  0  0  0  0  0  0  0  0  0  0  0
  -21.1046  -29.3548   22.7109 N   0  0  0  0  0  0  0  0  0  0  0  0
  -27.6692  -24.5191   16.6956 N   0  0  3  0  0  0  0  0  0  0  0  0
  -19.6542  -28.2151   19.6020 N   0  3  0  0  0  0  0  0  0  0  0  0
  -30.8547  -11.8763   19.1677 O   0  0  0  0  0  0  0  0  0  0  0  0
  -26.3130  -31.3674   23.7931 O   0  0  0  0  0  0  0  0  0  0  0  0
  -22.2185  -31.8683   23.5174 O   0  0  0  0  0  0  0  0  0  0  0  0
  -21.8624  -27.7042   21.2691 O   0  0  0  0  0  0  0  0  0  0  0  0
  -30.5399  -21.3778   21.6563 O   0  0  0  0  0  0  0  0  0  0  0  0
  -23.1757  -11.6334   20.4165 O   0  0  0  0  0  0  0  0  0  0  0  0
  -28.3020  -27.9787   19.0766 O   0  0  0  0  0  0  0  0  0  1  0  0
  -22.7868   -6.3303   21.8757 F   0  0  0  0  0  0  0  0  0  0  0  0
  -21.5652  -10.8570   22.5252 F   0  0  0  0  0  0  0  0  0  0  0  0
  -28.8728  -19.5621   16.9594 Cl  0  0  0  0  0  0  0  0  0  0  0  0
  1  2  1  0  0  0  0
  1  5  2  0  0  0  0
  2  6  2  0  0  0  0
  3 10  2  0  0  0  0
  3 18  1  0  0  0  0
  4 11  1  0  0  0  0
  4 18  2  0  0  0  0
  5 20  1  0  0  0  0
  6 22  1  0  0  0  0
  7 12  2  0  0  0  0
  7 21  1  0  0  0  0
  8  9  2  0  0  0  0
  8 24  1  0  0  0  0
  9 25  1  0  0  0  0
 10 26  1  0  0  0  0
 11 26  2  0  0  0  0
 12 27  1  0  0  0  0
 13 14  2  0  0  0  0
 13 28  1  0  0  0  0
 14 29  1  0  0  0  0
 15 23  1  0  0  0  0
 15 27  2  0  0  0  0
 16 24  2  0  0  0  0
 16 31  1  0  0  0  0
 17 29  2  0  0  0  0
 17 30  1  0  0  0  0
 18 32  1  0  0  0  0
 19 32  1  0  0  0  0
 19 33  2  0  0  0  0
 19 34  1  0  0  0  0
 20 22  2  0  0  0  0
 20 39  1  0  0  0  0
 21 23  2  0  0  0  0
 21 40  1  0  0  0  0
 22 48  1  0  0  0  0
 23 41  1  0  0  0  0
 24 72  1  0  0  0  0
 25 31  2  0  0  0  0
 25 69  1  0  0  0  0
 26 79  1  0  0  0  0
 27 80  1  0  0  0  0
 28 30  2  0  0  0  0
 28 79  1  0  0  0  0
 29 81  1  0  0  0  0
 30 82  1  0  0  0  0
 31 83  1  0  0  0  0
 32 63  2  0  0  0  0
 33 64  1  0  0  0  0
 33 67  1  0  0  0  0
 34 68  1  0  0  0  0
 34 74  2  0  0  0  0
 35 49  1  0  0  0  0
 35 70  1  0  0  0  0
 35 75  2  0  0  0  0
 36 60  1  0  0  0  0
 36 65  1  0  0  0  0
 36 76  2  0  0  0  0
 37 61  1  0  0  0  0
 37 71  1  0  0  0  0
 37 77  2  0  0  0  0
 38 66  1  0  0  0  0
 38 69  1  0  0  0  0
 38 78  2  0  0  0  0
 39 42  1  0  0  0  0
 40 49  1  0  0  0  0
 41 65  1  0  0  0  0
 42 44  1  0  0  0  0
 43 45  1  0  0  0  0
 43 46  1  0  0  0  0
 44 48  1  0  0  0  0
 45 50  1  0  0  0  0
 46 66  1  0  0  0  0
 47 50  1  0  0  0  0
 47 66  1  0  0  0  0
 48 70  1  0  0  0  0
 49 65  1  0  0  0  0
 50 64  1  0  0  0  0
 51 61  1  0  0  0  0
 52 62  1  0  0  0  0
 53 62  1  0  0  0  0
 54 62  1  0  0  0  0
 55 72  1  0  0  0  0
 56 73  1  0  0  0  0
 57 58  1  0  0  0  0
 57 59  1  0  0  0  0
 58 72  1  0  0  0  0
 59 80  1  0  0  0  0
 60 62  1  0  0  0  0
 60 71  1  0  0  0  0
 61 73  1  0  0  0  0
 63 64  1  0  0  0  0
M  CHG  1  73   1
M  ISO  4  38 100  59 101  69 100  80 101
M  END
> <Batch ID>
0013

> <Smiles>
CNC(C)C(=O)NC(C(=O)N1Cc2cc([101O:1][101CH2:1]CCN(C)c3ccc([100NH:0][100C:0](=O)N4CCCC(n5nc(-c6ccc(Oc7ccc(F)cc7F)cc6)c(C(N)=O)c5N)C4)c(Cl)c3)ccc2CC1C(=O)NC1CCCc2ccccc21)C(C)(C)C

> <Shape>
0.328

> <Color>
0.096

> <Negative vol penalty>
0.000

$$$$

  -OEChem-04042320483D

 85 94  0     1  0  0  0  0  0999 V2000
  -16.6367  -30.3162   23.1380 C   0  0  0  0  0  0  0  0  0  0  0  0
  -17.6575  -30.6485   22.2531 C   0  0  0  0  0  0  0  0  0  0  0  0
  -26.8477  -12.8161   20.0542 C   0  0  0  0  0  0  0  0  0  0  0  0
  -26.8828  -13.7834   22.2678 C   0  0  0  0  0  0  0  0  0  0  0  0
  -16.9337  -29.6418   24.3215 C   0  0  0  0  0  0  0  0  0  0  0  0
  -18.9761  -30.3074   22.5518 C   0  0  0  0  0  0  0  0  0  0  0  0
  -25.0984  -28.3714   19.3759 C   0  0  0  0  0  0  0  0  0  0  0  0
  -32.2245  -23.8827   18.6767 C   0  0  0  0  0  0  0  0  0  0  0  0
  -32.3828  -22.5885   19.1721 C   0  0  0  0  0  0  0  0  0  0  0  0
  -26.3454  -11.6267   20.5819 C   0  0  0  0  0  0  0  0  0  0  0  0
  -26.3804  -12.5940   22.7955 C   0  0  0  0  0  0  0  0  0  0  0  0
  -26.4465  -28.7237   19.3306 C   0  0  0  0  0  0  0  0  0  0  0  0
  -23.3633  -10.4341   21.6393 C   0  0  0  0  0  0  0  0  0  0  0  0
  -22.3012   -9.8258   20.9705 C   0  0  0  0  0  0  0  0  0  0  0  0
  -26.8314  -27.4892   21.3670 C   0  0  0  0  0  0  0  0  0  0  0  0
  -30.1482  -24.0947   19.8937 C   0  0  0  0  0  0  0  0  0  0  0  0
  -23.6482   -7.8495   20.6289 C   0  0  0  0  0  0  0  0  0  0  0  0
  -27.1165  -13.8945   20.8971 C   0  0  0  0  0  0  0  0  0  0  0  0
  -26.8960  -16.2249   19.8832 C   0  0  0  0  0  0  0  0  0  0  0  0
  -18.2555  -29.2838   24.6304 C   0  0  0  0  0  0  0  0  0  0  0  0
  -24.6036  -27.5830   20.4248 C   0  0  0  0  0  0  0  0  0  0  0  0
  -19.2913  -29.6288   23.7413 C   0  0  0  0  0  0  0  0  0  0  0  0
  -25.4771  -27.1261   21.4220 C   0  0  0  0  0  0  0  0  0  0  0  0
  -31.1073  -24.6359   19.0375 C   0  0  0  0  0  0  0  0  0  0  0  0
  -31.4237  -22.0473   20.0282 C   0  0  0  0  0  0  0  0  0  0  0  0
  -26.1117  -11.5156   21.9525 C   0  0  0  0  0  0  0  0  0  0  0  0
  -27.3127  -28.2851   20.3278 C   0  0  0  0  0  0  0  0  0  0  0  0
  -24.5680   -9.7502   21.8029 C   0  0  0  0  0  0  0  0  0  0  0  0
  -22.4436   -8.5335   20.4653 C   0  0  0  0  0  0  0  0  0  0  0  0
  -30.3064  -22.8004   20.3890 C   0  0  0  0  0  0  0  0  0  0  0  0
  -24.7104   -8.4578   21.2977 C   0  0  0  0  0  0  0  0  0  0  0  0
  -27.6360  -15.1232   20.3527 C   0  0  0  0  0  0  0  0  0  0  0  0
  -27.8466  -17.1280   19.4744 C   0  0  0  0  0  0  0  0  0  0  0  0
  -25.4761  -16.4150   19.8222 C   0  0  0  0  0  0  0  0  0  0  0  0
  -22.4508  -28.0046   22.7251 C   0  0  0  0  0  0  0  0  0  0  0  0
  -23.0350  -24.8679   23.3102 C   0  0  0  0  0  0  0  0  0  0  0  0
  -25.1773  -22.2235   23.0566 C   0  0  0  0  0  0  0  0  0  0  0  0
  -32.6371  -19.8527   20.2685 C   0  0  0  0  0  0  0  0  0  0  0  0
  -18.5336  -28.5972   25.9441 C   0  0  0  0  0  0  0  0  0  0  0  0
  -23.1520  -27.1894   20.4448 C   0  0  0  0  0  0  0  0  0  0  0  0
  -24.9999  -26.2608   22.5586 C   0  0  0  0  0  0  0  0  0  0  0  0
  -19.9102  -27.9407   26.0089 C   0  0  0  0  0  0  0  0  0  0  0  0
  -32.8408  -16.5955   18.8449 C   0  0  0  0  0  0  0  0  0  0  0  0
  -32.6768  -28.4673   20.3441 C   0  0  0  0  0  0  0  0  0  0  0  0
  -20.9811  -28.8937   25.4877 C   0  0  0  0  0  0  0  0  0  0  0  0
  -31.4440  -16.0128   19.0716 C   0  0  0  0  0  0  0  0  0  0  0  0
  -31.4697  -29.3337   20.0441 C   0  0  0  0  0  0  0  0  0  0  0  0
  -33.2884  -17.4679   20.0164 C   0  0  0  0  0  0  0  0  0  0  0  0
  -30.9490  -17.9448   20.6237 C   0  0  0  0  0  0  0  0  0  0  0  0
  -32.0919  -27.0757   20.4895 C   0  0  0  0  0  0  0  0  0  0  0  0
  -20.7311  -29.2541   24.0183 C   0  0  1  0  0  0  0  0  0  0  0  0
  -22.6549  -26.8103   21.8364 C   0  0  1  0  0  0  0  0  0  0  0  0
  -30.4282  -17.1114   19.4414 C   0  0  2  0  0  0  0  0  0  0  0  0
  -30.6832  -28.4831   19.0578 C   0  0  2  0  0  0  0  0  0  0  0  0
  -25.3921  -19.7974   23.6610 C   0  0  0  0  0  0  0  0  0  0  0  0
  -23.5961  -25.6419   26.2078 C   0  0  0  0  0  0  0  0  0  0  0  0
  -24.7001  -23.4160   26.5155 C   0  0  0  0  0  0  0  0  0  0  0  0
  -22.2788  -23.5346   25.9273 C   0  0  0  0  0  0  0  0  0  0  0  0
  -25.4090  -21.4174   20.2184 C   0  0  0  0  0  0  0  0  0  0  0  0
  -30.9363  -26.0277   18.5040 C   0  0  0  0  0  0  0  0  0  0  0  0
  -29.2071  -28.8303   18.9975 C   0  0  0  0  0  0  0  0  0  1  0  0
  -24.0096  -24.1051   24.1748 C   0  0  1  0  0  0  0  0  0  0  0  0
  -24.9620  -20.7934   22.5953 C   0  0  2  0  0  0  0  0  0  0  0  0
  -23.6551  -24.1923   25.6861 C   0  0  0  0  0  0  0  0  0  0  0  0
  -28.9550  -15.3074   20.2518 N   0  0  0  0  0  0  0  0  0  0  0  0
  -29.0513  -16.5353   19.7142 N   0  0  0  0  0  0  0  0  0  0  0  0
  -23.5706  -25.9080   22.5374 N   0  0  0  0  0  0  0  0  0  0  0  0
  -32.2790  -18.4884   20.3067 N   0  0  0  0  0  0  0  0  0  0  0  0
  -27.7612  -18.3633   18.9367 N   0  0  0  0  0  0  0  0  0  0  0  0
  -24.6439  -15.3862   20.2841 N   0  0  0  0  0  0  0  0  0  0  0  0
  -31.5868  -20.7320   20.5295 N   0  0  0  0  0  0  0  0  0  0  0  0
  -21.1478  -28.1705   23.1542 N   0  0  0  0  0  0  0  0  0  0  0  0
  -24.0458  -22.7455   23.6470 N   0  0  0  0  0  0  0  0  0  0  0  0
  -30.8730  -27.0662   19.5822 N   0  3  1  0  0  0  0  0  0  0  0  0
  -25.7466  -20.5249   21.3570 N   0  3  0  0  0  0  0  0  0  0  0  0
  -24.9606  -17.4593   19.3562 O   0  0  0  0  0  0  0  0  0  0  0  0
  -23.4052  -28.7216   23.0023 O   0  0  0  0  0  0  0  0  0  0  0  0
  -21.8437  -24.5480   23.3149 O   0  0  0  0  0  0  0  0  0  0  0  0
  -26.2438  -22.8168   22.9115 O   0  0  0  0  0  0  0  0  0  0  0  0
  -33.7844  -20.2150   19.9956 O   0  0  0  0  0  0  0  0  0  0  0  0
  -25.6213  -10.3552   22.4678 O   0  0  0  0  0  0  0  0  0  0  0  0
  -28.6290  -28.6281   20.2863 O   0  0  0  0  0  0  0  0  0  1  0  0
  -21.4230   -7.9488   19.8244 F   0  0  0  0  0  0  0  0  0  0  0  0
  -29.3776  -22.2898   21.2100 F   0  0  0  0  0  0  0  0  0  0  0  0
  -25.8648   -7.7953   21.4528 F   0  0  0  0  0  0  0  0  0  0  0  0
  1  2  1  0  0  0  0
  1  5  2  0  0  0  0
  2  6  2  0  0  0  0
  3 10  2  0  0  0  0
  3 18  1  0  0  0  0
  4 11  1  0  0  0  0
  4 18  2  0  0  0  0
  5 20  1  0  0  0  0
  6 22  1  0  0  0  0
  7 12  2  0  0  0  0
  7 21  1  0  0  0  0
  8  9  2  0  0  0  0
  8 24  1  0  0  0  0
  9 25  1  0  0  0  0
 10 26  1  0  0  0  0
 11 26  2  0  0  0  0
 12 27  1  0  0  0  0
 13 14  2  0  0  0  0
 13 28  1  0  0  0  0
 14 29  1  0  0  0  0
 15 23  1  0  0  0  0
 15 27  2  0  0  0  0
 16 24  2  0  0  0  0
 16 30  1  0  0  0  0
 17 29  2  0  0  0  0
 17 31  1  0  0  0  0
 18 32  1  0  0  0  0
 19 32  1  0  0  0  0
 19 33  2  0  0  0  0
 19 34  1  0  0  0  0
 20 22  2  0  0  0  0
 20 39  1  0  0  0  0
 21 23  2  0  0  0  0
 21 40  1  0  0  0  0
 22 51  1  0  0  0  0
 23 41  1  0  0  0  0
 24 60  1  0  0  0  0
 25 30  2  0  0  0  0
 25 71  1  0  0  0  0
 26 81  1  0  0  0  0
 27 82  1  0  0  0  0
 28 31  2  0  0  0  0
 28 81  1  0  0  0  0
 29 83  1  0  0  0  0
 30 84  1  0  0  0  0
 31 85  1  0  0  0  0
 32 65  2  0  0  0  0
 33 66  1  0  0  0  0
 33 69  1  0  0  0  0
 34 70  1  0  0  0  0
 34 76  2  0  0  0  0
 35 52  1  0  0  0  0
 35 72  1  0  0  0  0
 35 77  2  0  0  0  0
 36 62  1  0  0  0  0
 36 67  1  0  0  0  0
 36 78  2  0  0  0  0
 37 63  1  0  0  0  0
 37 73  1  0  0  0  0
 37 79  2  0  0  0  0
 38 68  1  0  0  0  0
 38 71  1  0  0  0  0
 38 80  2  0  0  0  0
 39 42  1  0  0  0  0
 40 52  1  0  0  0  0
 41 67  1  0  0  0  0
 42 45  1  0  0  0  0
 43 46  1  0  0  0  0
 43 48  1  0  0  0  0
 44 47  1  0  0  0  0
 44 50  1  0  0  0  0
 45 51  1  0  0  0  0
 46 53  1  0  0  0  0
 47 54  1  0  0  0  0
 48 68  1  0  0  0  0
 49 53  1  0  0  0  0
 49 68  1  0  0  0  0
 50 74  1  0  0  0  0
 51 72  1  0  0  0  0
 52 67  1  0  0  0  0
 53 66  1  0  0  0  0
 54 61  1  0  0  0  0
 54 74  1  0  0  0  0
 55 63  1  0  0  0  0
 56 64  1  0  0  0  0
 57 64  1  0  0  0  0
 58 64  1  0  0  0  0
 59 75  1  0  0  0  0
 60 74  1  0  0  0  0
 61 82  1  0  0  0  0
 62 64  1  0  0  0  0
 62 73  1  0  0  0  0
 63 75  1  0  0  0  0
 65 66  1  0  0  0  0
M  CHG  2  74   1  75   1
M  ISO  4  38 100  61 101  71 100  82 101
M  END
> <Batch ID>
0013

> <Smiles>
CNC(C)C(=O)NC(C(=O)N1Cc2cc([101O:1][101CH2:1]C3CCCN3Cc3ccc([100NH:0][100C:0](=O)N4CCCC(n5nc(-c6ccc(Oc7ccc(F)cc7F)cc6)c(C(N)=O)c5N)C4)c(F)c3)ccc2CC1C(=O)NC1CCCc2ccccc21)C(C)(C)C

> <Shape>
0.219

> <Color>
0.078

> <Negative vol penalty>
0.000

$$$$

  -OEChem-04042320483D

 85 93  0     1  0  0  0  0  0999 V2000
  -16.7485  -29.1848   21.0214 C   0  0  0  0  0  0  0  0  0  0  0  0
  -17.7864  -28.5971   20.3053 C   0  0  0  0  0  0  0  0  0  0  0  0
  -26.8319  -14.5839   20.8042 C   0  0  0  0  0  0  0  0  0  0  0  0
  -24.6536  -14.5355   19.7604 C   0  0  0  0  0  0  0  0  0  0  0  0
  -17.0276  -30.1618   21.9761 C   0  0  0  0  0  0  0  0  0  0  0  0
  -19.1040  -28.9868   20.5427 C   0  0  0  0  0  0  0  0  0  0  0  0
  -24.0897  -25.4373   20.3223 C   0  0  0  0  0  0  0  0  0  0  0  0
  -27.7042  -23.3457   22.3801 C   0  0  0  0  0  0  0  0  0  0  0  0
  -26.9651  -22.7369   23.3943 C   0  0  0  0  0  0  0  0  0  0  0  0
  -26.8201  -13.1920   20.8934 C   0  0  0  0  0  0  0  0  0  0  0  0
  -24.6418  -13.1435   19.8496 C   0  0  0  0  0  0  0  0  0  0  0  0
  -25.0543  -25.2350   19.3362 C   0  0  0  0  0  0  0  0  0  0  0  0
  -24.0545  -10.8039   22.2186 C   0  0  0  0  0  0  0  0  0  0  0  0
  -22.8844  -10.1934   22.6700 C   0  0  0  0  0  0  0  0  0  0  0  0
  -26.4806  -26.8595   20.4067 C   0  0  0  0  0  0  0  0  0  0  0  0
  -28.7748  -21.1834   23.7805 C   0  0  0  0  0  0  0  0  0  0  0  0
  -22.7076   -8.9892   20.5830 C   0  0  0  0  0  0  0  0  0  0  0  0
  -25.7486  -15.2557   20.2377 C   0  0  0  0  0  0  0  0  0  0  0  0
  -26.2522  -17.4735   19.0821 C   0  0  0  0  0  0  0  0  0  0  0  0
  -18.3501  -30.5568   22.2323 C   0  0  0  0  0  0  0  0  0  0  0  0
  -24.3092  -26.3617   21.3537 C   0  0  0  0  0  0  0  0  0  0  0  0
  -19.4010  -29.9710   21.5008 C   0  0  0  0  0  0  0  0  0  0  0  0
  -25.5183  -27.0697   21.4061 C   0  0  0  0  0  0  0  0  0  0  0  0
  -28.9786  -22.8734   22.0660 C   0  0  0  0  0  0  0  0  0  0  0  0
  -27.5004  -21.6557   24.0945 C   0  0  0  0  0  0  0  0  0  0  0  0
  -25.7250  -12.4718   20.4161 C   0  0  0  0  0  0  0  0  0  0  0  0
  -26.2488  -25.9483   19.3766 C   0  0  0  0  0  0  0  0  0  0  0  0
  -24.5511  -10.5071   20.9493 C   0  0  0  0  0  0  0  0  0  0  0  0
  -22.2110   -9.2860   21.8523 C   0  0  0  0  0  0  0  0  0  0  0  0
  -29.5139  -21.7923   22.7662 C   0  0  0  0  0  0  0  0  0  0  0  0
  -23.8776   -9.5997   20.1315 C   0  0  0  0  0  0  0  0  0  0  0  0
  -25.7600  -16.6936   20.1457 C   0  0  0  0  0  0  0  0  0  0  0  0
  -26.0330  -18.7705   19.4773 C   0  0  0  0  0  0  0  0  0  0  0  0
  -26.8535  -17.0623   17.8471 C   0  0  0  0  0  0  0  0  0  0  0  0
  -22.8836  -29.0373   22.3087 C   0  0  0  0  0  0  0  0  0  0  0  0
  -24.9923  -28.8232   24.7642 C   0  0  0  0  0  0  0  0  0  0  0  0
  -27.9736  -27.6380   25.9279 C   0  0  0  0  0  0  0  0  0  0  0  0
  -25.3284  -20.9715   25.1459 C   0  0  0  0  0  0  0  0  0  0  0  0
  -18.5987  -31.6507   23.2403 C   0  0  0  0  0  0  0  0  0  0  0  0
  -23.2699  -26.5487   22.4248 C   0  0  0  0  0  0  0  0  0  0  0  0
  -25.8112  -28.0588   22.5036 C   0  0  0  0  0  0  0  0  0  0  0  0
  -20.0526  -31.7391   23.6972 C   0  0  0  0  0  0  0  0  0  0  0  0
  -23.1496  -21.4462   22.1928 C   0  0  0  0  0  0  0  0  0  0  0  0
  -20.9936  -31.6782   22.4982 C   0  0  0  0  0  0  0  0  0  0  0  0
  -23.5598  -20.2925   21.2796 C   0  0  0  0  0  0  0  0  0  0  0  0
  -23.3506  -21.1019   23.6655 C   0  0  0  0  0  0  0  0  0  0  0  0
  -25.1536  -19.5074   23.0754 C   0  0  0  0  0  0  0  0  0  0  0  0
  -20.8453  -30.3493   21.7475 C   0  0  1  0  0  0  0  0  0  0  0  0
  -23.3846  -27.8909   23.1408 C   0  0  1  0  0  0  0  0  0  0  0  0
  -24.9986  -19.8443   21.5848 C   0  0  1  0  0  0  0  0  0  0  0  0
  -29.8004  -27.1478   27.5771 C   0  0  0  0  0  0  0  0  0  0  0  0
  -25.8523  -31.6767   24.1098 C   0  0  0  0  0  0  0  0  0  0  0  0
  -27.9044  -31.3015   25.4942 C   0  0  0  0  0  0  0  0  0  0  0  0
  -25.6489  -31.1828   26.5530 C   0  0  0  0  0  0  0  0  0  0  0  0
  -27.4330  -20.6556   26.3718 C   0  0  0  0  0  0  0  0  0  0  0  0
  -26.7066  -25.0931   26.7508 C   0  0  0  0  0  0  0  0  0  0  0  0
  -29.6818  -21.7751   19.2138 C   0  0  0  0  0  0  0  0  0  0  0  0
  -29.7710  -23.5325   20.9757 C   0  0  0  0  0  0  0  0  0  0  0  0
  -28.6950  -24.1774   17.4099 C   0  0  0  0  0  0  0  0  0  0  0  0
  -29.6747  -24.1818   18.5737 C   0  0  0  0  0  0  0  0  0  0  0  0
  -27.2545  -24.4577   17.8202 C   0  0  0  0  0  0  0  0  0  1  0  0
  -26.3955  -29.3204   25.0148 C   0  0  1  0  0  0  0  0  0  0  0  0
  -28.3399  -26.9245   27.2167 C   0  0  2  0  0  0  0  0  0  0  0  0
  -26.4443  -30.8532   25.2711 C   0  0  0  0  0  0  0  0  0  0  0  0
  -25.2657  -17.4333   21.1419 N   0  0  0  0  0  0  0  0  0  0  0  0
  -25.4462  -18.6917   20.7059 N   0  0  0  0  0  0  0  0  0  0  0  0
  -24.7611  -28.2112   23.5242 N   0  0  0  0  0  0  0  0  0  0  0  0
  -24.7072  -20.6197   23.9300 N   0  0  0  0  0  0  0  0  0  0  0  0
  -26.2871  -19.9593   18.8903 N   0  0  0  0  0  0  0  0  0  0  0  0
  -27.0028  -15.6907   17.6008 N   0  0  0  0  0  0  0  0  0  0  0  0
  -21.5329  -29.2900   22.4543 N   0  0  0  0  0  0  0  0  0  0  0  0
  -26.9247  -28.5145   26.1097 N   0  0  0  0  0  0  0  0  0  0  0  0
  -26.7353  -21.0248   25.1420 N   0  0  0  0  0  0  0  0  0  0  0  0
  -28.1081  -25.4586   27.0811 N   0  3  0  0  0  0  0  0  0  0  0  0
  -29.2799  -23.1805   19.5920 N   0  3  1  0  0  0  0  0  0  0  0  0
  -27.2617  -17.8871   16.9948 O   0  0  0  0  0  0  0  0  0  0  0  0
  -23.6649  -29.6484   21.5891 O   0  0  0  0  0  0  0  0  0  0  0  0
  -24.1348  -28.9661   25.6394 O   0  0  0  0  0  0  0  0  0  0  0  0
  -28.5617  -27.4407   24.8669 O   0  0  0  0  0  0  0  0  0  0  0  0
  -24.6781  -21.1703   26.1795 O   0  0  0  0  0  0  0  0  0  0  0  0
  -25.7133  -11.1135   20.5029 O   0  0  0  0  0  0  0  0  0  0  0  0
  -27.1917  -25.7533   18.4150 O   0  0  0  0  0  0  0  0  0  1  0  0
  -21.0882   -8.6986   22.2865 F   0  0  0  0  0  0  0  0  0  0  0  0
  -30.7375  -21.3315   22.4717 F   0  0  0  0  0  0  0  0  0  0  0  0
  -24.3505   -9.3097   18.9116 F   0  0  0  0  0  0  0  0  0  0  0  0
  1  2  1  0  0  0  0
  1  5  2  0  0  0  0
  2  6  2  0  0  0  0
  3 10  2  0  0  0  0
  3 18  1  0  0  0  0
  4 11  1  0  0  0  0
  4 18  2  0  0  0  0
  5 20  1  0  0  0  0
  6 22  1  0  0  0  0
  7 12  2  0  0  0  0
  7 21  1  0  0  0  0
  8  9  2  0  0  0  0
  8 24  1  0  0  0  0
  9 25  1  0  0  0  0
 10 26  1  0  0  0  0
 11 26  2  0  0  0  0
 12 27  1  0  0  0  0
 13 14  2  0  0  0  0
 13 28  1  0  0  0  0
 14 29  1  0  0  0  0
 15 23  1  0  0  0  0
 15 27  2  0  0  0  0
 16 25  2  0  0  0  0
 16 30  1  0  0  0  0
 17 29  2  0  0  0  0
 17 31  1  0  0  0  0
 18 32  1  0  0  0  0
 19 32  1  0  0  0  0
 19 33  2  0  0  0  0
 19 34  1  0  0  0  0
 20 22  2  0  0  0  0
 20 39  1  0  0  0  0
 21 23  2  0  0  0  0
 21 40  1  0  0  0  0
 22 48  1  0  0  0  0
 23 41  1  0  0  0  0
 24 30  2  0  0  0  0
 24 58  1  0  0  0  0
 25 73  1  0  0  0  0
 26 81  1  0  0  0  0
 27 82  1  0  0  0  0
 28 31  2  0  0  0  0
 28 81  1  0  0  0  0
 29 83  1  0  0  0  0
 30 84  1  0  0  0  0
 31 85  1  0  0  0  0
 32 65  2  0  0  0  0
 33 66  1  0  0  0  0
 33 69  1  0  0  0  0
 34 70  1  0  0  0  0
 34 76  2  0  0  0  0
 35 49  1  0  0  0  0
 35 71  1  0  0  0  0
 35 77  2  0  0  0  0
 36 62  1  0  0  0  0
 36 67  1  0  0  0  0
 36 78  2  0  0  0  0
 37 63  1  0  0  0  0
 37 72  1  0  0  0  0
 37 79  2  0  0  0  0
 38 68  1  0  0  0  0
 38 73  1  0  0  0  0
 38 80  2  0  0  0  0
 39 42  1  0  0  0  0
 40 49  1  0  0  0  0
 41 67  1  0  0  0  0
 42 44  1  0  0  0  0
 43 45  1  0  0  0  0
 43 46  1  0  0  0  0
 44 48  1  0  0  0  0
 45 50  1  0  0  0  0
 46 68  1  0  0  0  0
 47 50  1  0  0  0  0
 47 68  1  0  0  0  0
 48 71  1  0  0  0  0
 49 67  1  0  0  0  0
 50 66  1  0  0  0  0
 51 63  1  0  0  0  0
 52 64  1  0  0  0  0
 53 64  1  0  0  0  0
 54 64  1  0  0  0  0
 55 73  1  0  0  0  0
 56 74  1  0  0  0  0
 57 75  1  0  0  0  0
 58 75  1  0  0  0  0
 59 60  1  0  0  0  0
 59 61  1  0  0  0  0
 60 75  1  0  0  0  0
 61 82  1  0  0  0  0
 62 64  1  0  0  0  0
 62 72  1  0  0  0  0
 63 74  1  0  0  0  0
 65 66  1  0  0  0  0
M  CHG  2  74   1  75   1
M  ISO  4  38 100  61 101  73 100  82 101
M  END
> <Batch ID>
0013

> <Smiles>
CNC(C)C(=O)NC(C(=O)N1Cc2cc([101O:1][101CH2:1]CCN(C)Cc3ccc([100N:0](C)[100C:0](=O)N4CCCC(n5nc(-c6ccc(Oc7ccc(F)cc7F)cc6)c(C(N)=O)c5N)C4)cc3F)ccc2CC1C(=O)NC1CCCc2ccccc21)C(C)(C)C

> <Shape>
0.190

> <Color>
0.066

> <Negative vol penalty>
0.000

$$$$

  -OEChem-04042320483D

 84 93  0     1  0  0  0  0  0999 V2000
  -26.6494  -37.1138   25.1108 C   0  0  0  0  0  0  0  0  0  0  0  0
  -27.5927  -36.1989   24.6540 C   0  0  0  0  0  0  0  0  0  0  0  0
  -22.7989  -10.2561   20.2277 C   0  0  0  0  0  0  0  0  0  0  0  0
  -24.5671   -9.2164   21.5042 C   0  0  0  0  0  0  0  0  0  0  0  0
  -25.4776  -36.6616   25.7159 C   0  0  0  0  0  0  0  0  0  0  0  0
  -27.3651  -34.8313   24.8031 C   0  0  0  0  0  0  0  0  0  0  0  0
  -27.2354  -29.1670   19.4247 C   0  0  0  0  0  0  0  0  0  0  0  0
  -28.0346  -20.2121   19.4304 C   0  0  0  0  0  0  0  0  0  0  0  0
  -28.3304  -18.8656   19.6428 C   0  0  0  0  0  0  0  0  0  0  0  0
  -21.8517   -9.7042   21.0900 C   0  0  0  0  0  0  0  0  0  0  0  0
  -23.6198   -8.6645   22.3667 C   0  0  0  0  0  0  0  0  0  0  0  0
  -27.0309  -28.1038   18.5450 C   0  0  0  0  0  0  0  0  0  0  0  0
  -21.4730   -6.0526   22.3665 C   0  0  0  0  0  0  0  0  0  0  0  0
  -21.6214   -4.7112   22.7192 C   0  0  0  0  0  0  0  0  0  0  0  0
  -25.5610  -27.0464   20.1480 C   0  0  0  0  0  0  0  0  0  0  0  0
  -25.7179  -19.6429   19.0485 C   0  0  0  0  0  0  0  0  0  0  0  0
  -21.7961   -5.3420   25.0449 C   0  0  0  0  0  0  0  0  0  0  0  0
  -24.1566  -10.0122   20.4347 C   0  0  0  0  0  0  0  0  0  0  0  0
  -25.2472  -10.3704   18.1565 C   0  0  0  0  0  0  0  0  0  0  0  0
  -25.2311  -35.2876   25.8638 C   0  0  0  0  0  0  0  0  0  0  0  0
  -26.5907  -29.1814   20.6647 C   0  0  0  0  0  0  0  0  0  0  0  0
  -26.1894  -34.3603   25.4119 C   0  0  0  0  0  0  0  0  0  0  0  0
  -25.7523  -28.1148   21.0282 C   0  0  0  0  0  0  0  0  0  0  0  0
  -26.0137  -18.2964   19.2609 C   0  0  0  0  0  0  0  0  0  0  0  0
  -26.7283  -20.6007   19.1333 C   0  0  0  0  0  0  0  0  0  0  0  0
  -27.3200  -17.9077   19.5580 C   0  0  0  0  0  0  0  0  0  0  0  0
  -22.2621   -8.9084   22.1595 C   0  0  0  0  0  0  0  0  0  0  0  0
  -26.1959  -27.0460   18.9059 C   0  0  0  0  0  0  0  0  0  0  0  0
  -21.4863   -7.0387   23.3531 C   0  0  0  0  0  0  0  0  0  0  0  0
  -21.7829   -4.3559   24.0583 C   0  0  0  0  0  0  0  0  0  0  0  0
  -21.6478   -6.6833   24.6922 C   0  0  0  0  0  0  0  0  0  0  0  0
  -25.1356  -10.5816   19.5439 C   0  0  0  0  0  0  0  0  0  0  0  0
  -26.3280  -11.1295   17.7795 C   0  0  0  0  0  0  0  0  0  0  0  0
  -24.4455   -9.5605   17.2864 C   0  0  0  0  0  0  0  0  0  0  0  0
  -25.9928  -30.9980   23.8925 C   0  0  0  0  0  0  0  0  0  0  0  0
  -23.2967  -29.8249   23.0175 C   0  0  0  0  0  0  0  0  0  0  0  0
  -20.4493  -28.7279   21.4923 C   0  0  0  0  0  0  0  0  0  0  0  0
  -28.8915  -16.0103   20.0839 C   0  0  0  0  0  0  0  0  0  0  0  0
  -23.9714  -34.8476   26.5669 C   0  0  0  0  0  0  0  0  0  0  0  0
  -26.8300  -30.2761   21.6688 C   0  0  0  0  0  0  0  0  0  0  0  0
  -25.1068  -28.1559   22.3864 C   0  0  0  0  0  0  0  0  0  0  0  0
  -23.6351  -33.3746   26.3491 C   0  0  0  0  0  0  0  0  0  0  0  0
  -30.4551  -12.8703   19.4736 C   0  0  0  0  0  0  0  0  0  0  0  0
  -24.8751  -32.5088   26.5478 C   0  0  0  0  0  0  0  0  0  0  0  0
  -29.2786  -11.9090   19.2901 C   0  0  0  0  0  0  0  0  0  0  0  0
  -25.5200  -23.7328   17.4816 C   0  0  0  0  0  0  0  0  0  0  0  0
  -26.9057  -24.3059   19.4813 C   0  0  0  0  0  0  0  0  0  0  0  0
  -30.1645  -13.9254   20.5395 C   0  0  0  0  0  0  0  0  0  0  0  0
  -25.3371  -22.3134   18.0120 C   0  0  0  0  0  0  0  0  0  0  0  0
  -26.7203  -22.8893   20.0160 C   0  0  0  0  0  0  0  0  0  0  0  0
  -27.7390  -13.7123   20.1645 C   0  0  0  0  0  0  0  0  0  0  0  0
  -25.9673  -32.8683   25.5332 C   0  0  1  0  0  0  0  0  0  0  0  0
  -25.5806  -30.6149   22.5015 C   0  0  1  0  0  0  0  0  0  0  0  0
  -27.9596  -12.6710   19.0552 C   0  0  2  0  0  0  0  0  0  0  0  0
  -25.7326  -24.7361   18.6080 C   0  0  0  0  0  0  0  0  0  1  0  0
  -24.9113  -17.2920   19.1652 C   0  0  0  0  0  0  0  0  0  0  0  0
  -17.9637  -28.6056   21.8150 C   0  0  0  0  0  0  0  0  0  0  0  0
  -23.6706  -27.5402   25.0035 C   0  0  0  0  0  0  0  0  0  0  0  0
  -21.3033  -26.8587   24.5567 C   0  0  0  0  0  0  0  0  0  0  0  0
  -21.7897  -29.0967   25.5455 C   0  0  0  0  0  0  0  0  0  0  0  0
  -19.9387  -30.3590   19.0762 C   0  0  0  0  0  0  0  0  0  0  0  0
  -22.3279  -28.6735   23.1117 C   0  0  1  0  0  0  0  0  0  0  0  0
  -19.1174  -29.4093   21.2354 C   0  0  2  0  0  0  0  0  0  0  0  0
  -22.2916  -28.0442   24.5331 C   0  0  0  0  0  0  0  0  0  0  0  0
  -26.0709  -11.4098   20.0162 N   0  0  0  0  0  0  0  0  0  0  0  0
  -26.7806  -11.7257   18.9196 N   0  0  0  0  0  0  0  0  0  0  0  0
  -26.4313  -21.9530   18.9206 N   0  0  0  0  0  0  0  0  0  0  0  0
  -24.6166  -29.5141   22.6686 N   0  0  0  0  0  0  0  0  0  0  0  0
  -28.9024  -14.6091   20.2490 N   0  0  0  0  0  0  0  0  0  0  0  0
  -26.9258  -11.3383   16.5873 N   0  0  0  0  0  0  0  0  0  0  0  0
  -23.3735   -8.8459   17.8383 N   0  0  0  0  0  0  0  0  0  0  0  0
  -27.6404  -16.5452   19.7787 N   0  0  0  0  0  0  0  0  0  0  0  0
  -25.6642  -32.2945   24.2396 N   0  0  0  0  0  0  0  0  0  0  0  0
  -21.0411  -29.1839   22.6512 N   0  0  0  0  0  0  0  0  0  0  0  0
  -18.8907  -29.5680   19.7710 N   0  3  0  0  0  0  0  0  0  0  0  0
  -24.6831   -9.4602   16.0588 O   0  0  0  0  0  0  0  0  0  0  0  0
  -26.5655  -30.1779   24.6004 O   0  0  0  0  0  0  0  0  0  0  0  0
  -22.8981  -30.9692   23.2520 O   0  0  0  0  0  0  0  0  0  0  0  0
  -20.9162  -27.8737   20.7421 O   0  0  0  0  0  0  0  0  0  0  0  0
  -29.9215  -16.6828   20.1775 O   0  0  0  0  0  0  0  0  0  0  0  0
  -21.3381   -8.3698   23.0014 O   0  0  0  0  0  0  0  0  0  0  0  0
  -25.9970  -26.0134   18.0405 O   0  0  0  0  0  0  0  0  0  1  0  0
  -21.9237   -3.0676   24.3970 F   0  0  0  0  0  0  0  0  0  0  0  0
  -21.6602   -7.6261   25.6445 F   0  0  0  0  0  0  0  0  0  0  0  0
  1  2  1  0  0  0  0
  1  5  2  0  0  0  0
  2  6  2  0  0  0  0
  3 10  2  0  0  0  0
  3 18  1  0  0  0  0
  4 11  1  0  0  0  0
  4 18  2  0  0  0  0
  5 20  1  0  0  0  0
  6 22  1  0  0  0  0
  7 12  2  0  0  0  0
  7 21  1  0  0  0  0
  8  9  2  0  0  0  0
  8 25  1  0  0  0  0
  9 26  1  0  0  0  0
 10 27  1  0  0  0  0
 11 27  2  0  0  0  0
 12 28  1  0  0  0  0
 13 14  2  0  0  0  0
 13 29  1  0  0  0  0
 14 30  1  0  0  0  0
 15 23  1  0  0  0  0
 15 28  2  0  0  0  0
 16 24  1  0  0  0  0
 16 25  2  0  0  0  0
 17 30  2  0  0  0  0
 17 31  1  0  0  0  0
 18 32  1  0  0  0  0
 19 32  1  0  0  0  0
 19 33  2  0  0  0  0
 19 34  1  0  0  0  0
 20 22  2  0  0  0  0
 20 39  1  0  0  0  0
 21 23  2  0  0  0  0
 21 40  1  0  0  0  0
 22 52  1  0  0  0  0
 23 41  1  0  0  0  0
 24 26  2  0  0  0  0
 24 56  1  0  0  0  0
 25 67  1  0  0  0  0
 26 72  1  0  0  0  0
 27 81  1  0  0  0  0
 28 82  1  0  0  0  0
 29 31  2  0  0  0  0
 29 81  1  0  0  0  0
 30 83  1  0  0  0  0
 31 84  1  0  0  0  0
 32 65  2  0  0  0  0
 33 66  1  0  0  0  0
 33 70  1  0  0  0  0
 34 71  1  0  0  0  0
 34 76  2  0  0  0  0
 35 53  1  0  0  0  0
 35 73  1  0  0  0  0
 35 77  2  0  0  0  0
 36 62  1  0  0  0  0
 36 68  1  0  0  0  0
 36 78  2  0  0  0  0
 37 63  1  0  0  0  0
 37 74  1  0  0  0  0
 37 79  2  0  0  0  0
 38 69  1  0  0  0  0
 38 72  1  0  0  0  0
 38 80  2  0  0  0  0
 39 42  1  0  0  0  0
 40 53  1  0  0  0  0
 41 68  1  0  0  0  0
 42 44  1  0  0  0  0
 43 45  1  0  0  0  0
 43 48  1  0  0  0  0
 44 52  1  0  0  0  0
 45 54  1  0  0  0  0
 46 49  1  0  0  0  0
 46 55  1  0  0  0  0
 47 50  1  0  0  0  0
 47 55  1  0  0  0  0
 48 69  1  0  0  0  0
 49 67  1  0  0  0  0
 50 67  1  0  0  0  0
 51 54  1  0  0  0  0
 51 69  1  0  0  0  0
 52 73  1  0  0  0  0
 53 68  1  0  0  0  0
 54 66  1  0  0  0  0
 55 82  1  0  0  0  0
 57 63  1  0  0  0  0
 58 64  1  0  0  0  0
 59 64  1  0  0  0  0
 60 64  1  0  0  0  0
 61 75  1  0  0  0  0
 62 64  1  0  0  0  0
 62 74  1  0  0  0  0
 63 75  1  0  0  0  0
 65 66  1  0  0  0  0
M  CHG  1  75   1
M  ISO  4  38 100  55 101  72 100  82 101
M  END
> <Batch ID>
0013

> <Smiles>
CNC(C)C(=O)NC(C(=O)N1Cc2cc([101O:1][101CH:1]3CCN(c4ccc([100NH:0][100C:0](=O)N5CCCC(n6nc(-c7ccc(Oc8ccc(F)cc8F)cc7)c(C(N)=O)c6N)C5)c(C)c4)CC3)ccc2CC1C(=O)NC1CCCc2ccccc21)C(C)(C)C

> <Shape>
0.308

> <Color>
0.106

> <Negative vol penalty>
0.000

$$$$

  -OEChem-04042320483D

 82 91  0     1  0  0  0  0  0999 V2000
  -27.5295  -34.3096   25.5324 C   0  0  0  0  0  0  0  0  0  0  0  0
  -28.0544  -33.0424   25.2994 C   0  0  0  0  0  0  0  0  0  0  0  0
  -23.1631   -9.7550   19.9109 C   0  0  0  0  0  0  0  0  0  0  0  0
  -23.9110   -9.7778   22.2081 C   0  0  0  0  0  0  0  0  0  0  0  0
  -26.2139  -34.5953   25.1699 C   0  0  0  0  0  0  0  0  0  0  0  0
  -27.2635  -32.0599   24.7047 C   0  0  0  0  0  0  0  0  0  0  0  0
  -29.1147  -27.6823   20.8427 C   0  0  0  0  0  0  0  0  0  0  0  0
  -30.9460  -19.3519   20.6994 C   0  0  0  0  0  0  0  0  0  0  0  0
  -29.2994  -19.4448   22.4649 C   0  0  0  0  0  0  0  0  0  0  0  0
  -30.8455  -17.9608   20.6788 C   0  0  0  0  0  0  0  0  0  0  0  0
  -29.1988  -18.0537   22.4443 C   0  0  0  0  0  0  0  0  0  0  0  0
  -22.4749   -8.5649   20.1468 C   0  0  0  0  0  0  0  0  0  0  0  0
  -23.2227   -8.5877   22.4440 C   0  0  0  0  0  0  0  0  0  0  0  0
  -29.4318  -26.3378   21.0313 C   0  0  0  0  0  0  0  0  0  0  0  0
  -20.0343   -7.6289   23.0228 C   0  0  0  0  0  0  0  0  0  0  0  0
  -19.2747   -7.5416   24.1894 C   0  0  0  0  0  0  0  0  0  0  0  0
  -27.1952  -25.7235   20.3684 C   0  0  0  0  0  0  0  0  0  0  0  0
  -20.6051   -5.6599   24.9149 C   0  0  0  0  0  0  0  0  0  0  0  0
  -23.8812  -10.3614   20.9416 C   0  0  0  0  0  0  0  0  0  0  0  0
  -24.1007  -12.9011   20.8458 C   0  0  0  0  0  0  0  0  0  0  0  0
  -25.4096  -33.6187   24.5617 C   0  0  0  0  0  0  0  0  0  0  0  0
  -27.8299  -28.0588   20.4253 C   0  0  0  0  0  0  0  0  0  0  0  0
  -25.9355  -32.3325   24.3350 C   0  0  0  0  0  0  0  0  0  0  0  0
  -26.8651  -27.0732   20.1728 C   0  0  0  0  0  0  0  0  0  0  0  0
  -30.1729  -20.0939   21.5925 C   0  0  0  0  0  0  0  0  0  0  0  0
  -29.9719  -17.3117   21.5512 C   0  0  0  0  0  0  0  0  0  0  0  0
  -22.5047   -7.9812   21.4133 C   0  0  0  0  0  0  0  0  0  0  0  0
  -28.4712  -25.3583   20.7969 C   0  0  0  0  0  0  0  0  0  0  0  0
  -21.0793   -6.7316   22.8022 C   0  0  0  0  0  0  0  0  0  0  0  0
  -19.5601   -6.5572   25.1355 C   0  0  0  0  0  0  0  0  0  0  0  0
  -21.3647   -5.7472   23.7483 C   0  0  0  0  0  0  0  0  0  0  0  0
  -24.5928  -11.5904   20.6984 C   0  0  0  0  0  0  0  0  0  0  0  0
  -25.1569  -13.7059   20.4949 C   0  0  0  0  0  0  0  0  0  0  0  0
  -22.8048  -13.3509   21.2628 C   0  0  0  0  0  0  0  0  0  0  0  0
  -25.4880  -29.8073   21.6749 C   0  0  0  0  0  0  0  0  0  0  0  0
  -24.1132  -29.3323   18.7755 C   0  0  0  0  0  0  0  0  0  0  0  0
  -23.8761  -27.4178   15.9603 C   0  0  0  0  0  0  0  0  0  0  0  0
  -30.5651  -15.0135   20.7069 C   0  0  0  0  0  0  0  0  0  0  0  0
  -23.9783  -33.9603   24.2306 C   0  0  0  0  0  0  0  0  0  0  0  0
  -27.5117  -29.5116   20.2008 C   0  0  0  0  0  0  0  0  0  0  0  0
  -25.4773  -27.4237   19.7040 C   0  0  0  0  0  0  0  0  0  0  0  0
  -23.3253  -32.9759   23.2638 C   0  0  0  0  0  0  0  0  0  0  0  0
  -29.5802  -12.5703   18.3116 C   0  0  0  0  0  0  0  0  0  0  0  0
  -23.6115  -31.5395   23.6900 C   0  0  0  0  0  0  0  0  0  0  0  0
  -28.1544  -12.2054   18.7311 C   0  0  0  0  0  0  0  0  0  0  0  0
  -31.1337  -23.6452   21.3375 C   0  0  0  0  0  0  0  0  0  0  0  0
  -30.4775  -12.8322   19.5199 C   0  0  0  0  0  0  0  0  0  0  0  0
  -31.1586  -22.2369   20.7435 C   0  0  0  0  0  0  0  0  0  0  0  0
  -28.5312  -13.4507   20.8977 C   0  0  0  0  0  0  0  0  0  0  0  0
  -29.5018  -22.3327   22.5089 C   0  0  0  0  0  0  0  0  0  0  0  0
  -25.1168  -31.2476   23.6696 C   0  0  1  0  0  0  0  0  0  0  0  0
  -26.0179  -29.8135   20.2689 C   0  0  1  0  0  0  0  0  0  0  0  0
  -27.5735  -13.2413   19.7134 C   0  0  2  0  0  0  0  0  0  0  0  0
  -29.7534  -23.7407   21.9711 C   0  0  2  0  0  0  0  0  0  1  0  0
  -22.6381  -27.2611   13.7831 C   0  0  0  0  0  0  0  0  0  0  0  0
  -21.6540  -28.2914   20.2515 C   0  0  0  0  0  0  0  0  0  0  0  0
  -20.8693  -27.2905   18.0950 C   0  0  0  0  0  0  0  0  0  0  0  0
  -21.1500  -29.7613   18.2920 C   0  0  0  0  0  0  0  0  0  0  0  0
  -26.3719  -27.6695   14.3897 C   0  0  0  0  0  0  0  0  0  0  0  0
  -23.2001  -28.2857   18.1838 C   0  0  1  0  0  0  0  0  0  0  0  0
  -23.8788  -27.7871   14.4878 C   0  0  2  0  0  0  0  0  0  0  0  0
  -21.7439  -28.4004   18.7163 C   0  0  0  0  0  0  0  0  0  0  0  0
  -25.8628  -11.5598   20.2858 N   0  0  0  0  0  0  0  0  0  0  0  0
  -26.1776  -12.8613   20.1709 N   0  0  0  0  0  0  0  0  0  0  0  0
  -30.2736  -21.4691   21.6143 N   0  0  3  0  0  0  0  0  0  0  0  0
  -25.2128  -28.8583   19.5050 N   0  0  0  0  0  0  0  0  0  0  0  0
  -29.8651  -13.8267   20.4035 N   0  0  0  0  0  0  0  0  0  0  0  0
  -25.3029  -15.0467   20.4348 N   0  0  0  0  0  0  0  0  0  0  0  0
  -21.8366  -12.3907   21.5868 N   0  0  0  0  0  0  0  0  0  0  0  0
  -29.8698  -15.8986   21.5302 N   0  0  0  0  0  0  0  0  0  0  0  0
  -25.5711  -31.0303   22.3128 N   0  0  0  0  0  0  0  0  0  0  0  0
  -23.3185  -28.4126   16.7353 N   0  0  0  0  0  0  0  0  0  0  0  0
  -25.0795  -27.2175   13.8132 N   0  3  0  0  0  0  0  0  0  0  0  0
  -22.5089  -14.5681   21.3299 O   0  0  0  0  0  0  0  0  0  0  0  0
  -25.0358  -28.7702   22.1456 O   0  0  0  0  0  0  0  0  0  0  0  0
  -23.8642  -30.5262   18.5909 O   0  0  0  0  0  0  0  0  0  0  0  0
  -24.3205  -26.3517   16.3805 O   0  0  0  0  0  0  0  0  0  0  0  0
  -31.6869  -15.2410   20.2467 O   0  0  0  0  0  0  0  0  0  0  0  0
  -21.8330   -6.8201   21.6439 O   0  0  0  0  0  0  0  0  0  0  0  0
  -28.7779  -24.0453   20.9808 O   0  0  0  0  0  0  0  0  0  1  0  0
  -18.8315   -6.4744   26.2564 F   0  0  0  0  0  0  0  0  0  0  0  0
  -22.3681   -4.8832   23.5424 F   0  0  0  0  0  0  0  0  0  0  0  0
  1  2  1  0  0  0  0
  1  5  2  0  0  0  0
  2  6  2  0  0  0  0
  3 12  2  0  0  0  0
  3 19  1  0  0  0  0
  4 13  1  0  0  0  0
  4 19  2  0  0  0  0
  5 21  1  0  0  0  0
  6 23  1  0  0  0  0
  7 14  2  0  0  0  0
  7 22  1  0  0  0  0
  8 10  2  0  0  0  0
  8 25  1  0  0  0  0
  9 11  1  0  0  0  0
  9 25  2  0  0  0  0
 10 26  1  0  0  0  0
 11 26  2  0  0  0  0
 12 27  1  0  0  0  0
 13 27  2  0  0  0  0
 14 28  1  0  0  0  0
 15 16  2  0  0  0  0
 15 29  1  0  0  0  0
 16 30  1  0  0  0  0
 17 24  1  0  0  0  0
 17 28  2  0  0  0  0
 18 30  2  0  0  0  0
 18 31  1  0  0  0  0
 19 32  1  0  0  0  0
 20 32  1  0  0  0  0
 20 33  2  0  0  0  0
 20 34  1  0  0  0  0
 21 23  2  0  0  0  0
 21 39  1  0  0  0  0
 22 24  2  0  0  0  0
 22 40  1  0  0  0  0
 23 51  1  0  0  0  0
 24 41  1  0  0  0  0
 25 65  1  0  0  0  0
 26 70  1  0  0  0  0
 27 79  1  0  0  0  0
 28 80  1  0  0  0  0
 29 31  2  0  0  0  0
 29 79  1  0  0  0  0
 30 81  1  0  0  0  0
 31 82  1  0  0  0  0
 32 63  2  0  0  0  0
 33 64  1  0  0  0  0
 33 68  1  0  0  0  0
 34 69  1  0  0  0  0
 34 74  2  0  0  0  0
 35 52  1  0  0  0  0
 35 71  1  0  0  0  0
 35 75  2  0  0  0  0
 36 60  1  0  0  0  0
 36 66  1  0  0  0  0
 36 76  2  0  0  0  0
 37 61  1  0  0  0  0
 37 72  1  0  0  0  0
 37 77  2  0  0  0  0
 38 67  1  0  0  0  0
 38 70  1  0  0  0  0
 38 78  2  0  0  0  0
 39 42  1  0  0  0  0
 40 52  1  0  0  0  0
 41 66  1  0  0  0  0
 42 44  1  0  0  0  0
 43 45  1  0  0  0  0
 43 47  1  0  0  0  0
 44 51  1  0  0  0  0
 45 53  1  0  0  0  0
 46 48  1  0  0  0  0
 46 54  1  0  0  0  0
 47 67  1  0  0  0  0
 48 65  1  0  0  0  0
 49 53  1  0  0  0  0
 49 67  1  0  0  0  0
 50 54  1  0  0  0  0
 50 65  1  0  0  0  0
 51 71  1  0  0  0  0
 52 66  1  0  0  0  0
 53 64  1  0  0  0  0
 54 80  1  0  0  0  0
 55 61  1  0  0  0  0
 56 62  1  0  0  0  0
 57 62  1  0  0  0  0
 58 62  1  0  0  0  0
 59 73  1  0  0  0  0
 60 62  1  0  0  0  0
 60 72  1  0  0  0  0
 61 73  1  0  0  0  0
 63 64  1  0  0  0  0
M  CHG  1  73   1
M  ISO  4  38 100  54 101  70 100  80 101
M  END
> <Batch ID>
0013

> <Smiles>
CNC(C)C(=O)NC(C(=O)N1Cc2cc([101O:1][101CH:1]3CCN(c4ccc([100NH:0][100C:0](=O)N5CCCC(n6nc(-c7ccc(Oc8ccc(F)cc8F)cc7)c(C(N)=O)c6N)C5)cc4)C3)ccc2CC1C(=O)NC1CCCc2ccccc21)C(C)(C)C

> <Shape>
0.353

> <Color>
0.208

> <Negative vol penalty>
0.000

$$$$

  -OEChem-04042320483D

 82 90  0     1  0  0  0  0  0999 V2000
  -24.2260   -6.7249   23.9000 C   0  0  0  0  0  0  0  0  0  0  0  0
  -25.3960   -7.4713   23.8026 C   0  0  0  0  0  0  0  0  0  0  0  0
  -23.7913  -33.1165   22.1097 C   0  0  0  0  0  0  0  0  0  0  0  0
  -25.7696  -32.3438   23.2612 C   0  0  0  0  0  0  0  0  0  0  0  0
  -23.1367   -7.0288   23.0846 C   0  0  0  0  0  0  0  0  0  0  0  0
  -25.4776   -8.5215   22.8889 C   0  0  0  0  0  0  0  0  0  0  0  0
  -28.4894  -14.9661   22.0451 C   0  0  0  0  0  0  0  0  0  0  0  0
  -27.6610  -23.4188   19.8564 C   0  0  0  0  0  0  0  0  0  0  0  0
  -23.8279  -34.3026   22.8427 C   0  0  0  0  0  0  0  0  0  0  0  0
  -25.8062  -33.5299   23.9943 C   0  0  0  0  0  0  0  0  0  0  0  0
  -29.2689  -15.6800   21.1359 C   0  0  0  0  0  0  0  0  0  0  0  0
  -28.6497  -22.4474   19.7006 C   0  0  0  0  0  0  0  0  0  0  0  0
  -25.5458  -37.2144   22.7854 C   0  0  0  0  0  0  0  0  0  0  0  0
  -25.3505  -38.4100   22.0940 C   0  0  0  0  0  0  0  0  0  0  0  0
  -27.2964  -16.1644   19.8344 C   0  0  0  0  0  0  0  0  0  0  0  0
  -26.4051  -21.9141   21.2690 C   0  0  0  0  0  0  0  0  0  0  0  0
  -23.4156  -38.8844   23.4608 C   0  0  0  0  0  0  0  0  0  0  0  0
  -24.7622  -32.1371   22.3190 C   0  0  0  0  0  0  0  0  0  0  0  0
  -25.3457  -30.6568   20.3250 C   0  0  0  0  0  0  0  0  0  0  0  0
  -23.2016   -8.0893   22.1672 C   0  0  0  0  0  0  0  0  0  0  0  0
  -27.1069  -14.8366   21.8496 C   0  0  0  0  0  0  0  0  0  0  0  0
  -24.3885   -8.8390   22.0595 C   0  0  0  0  0  0  0  0  0  0  0  0
  -26.5012  -15.4505   20.7440 C   0  0  0  0  0  0  0  0  0  0  0  0
  -26.5387  -23.1522   20.6407 C   0  0  0  0  0  0  0  0  0  0  0  0
  -24.8353  -34.5094   23.7850 C   0  0  0  0  0  0  0  0  0  0  0  0
  -28.6728  -16.2769   20.0289 C   0  0  0  0  0  0  0  0  0  0  0  0
  -24.6759  -36.8537   23.8144 C   0  0  0  0  0  0  0  0  0  0  0  0
  -28.5161  -21.2092   20.3289 C   0  0  0  0  0  0  0  0  0  0  0  0
  -24.2855  -39.2450   22.4318 C   0  0  0  0  0  0  0  0  0  0  0  0
  -23.6108  -37.6887   24.1521 C   0  0  0  0  0  0  0  0  0  0  0  0
  -27.3938  -20.9426   21.1132 C   0  0  0  0  0  0  0  0  0  0  0  0
  -24.7246  -30.9114   21.5624 C   0  0  0  0  0  0  0  0  0  0  0  0
  -25.0093  -29.3575   20.0328 C   0  0  0  0  0  0  0  0  0  0  0  0
  -26.1545  -31.5177   19.5123 C   0  0  0  0  0  0  0  0  0  0  0  0
  -25.1271  -12.3948   21.3785 C   0  0  0  0  0  0  0  0  0  0  0  0
  -22.8544  -14.6971   21.6163 C   0  0  0  0  0  0  0  0  0  0  0  0
  -22.0350  -17.9986   21.3419 C   0  0  0  0  0  0  0  0  0  0  0  0
  -24.3589  -24.0374   21.5414 C   0  0  0  0  0  0  0  0  0  0  0  0
  -22.0149   -8.3500   21.2737 C   0  0  0  0  0  0  0  0  0  0  0  0
  -26.2761  -14.0858   22.8538 C   0  0  0  0  0  0  0  0  0  0  0  0
  -25.0179  -15.3582   20.4995 C   0  0  0  0  0  0  0  0  0  0  0  0
  -22.0519   -9.7169   20.5951 C   0  0  0  0  0  0  0  0  0  0  0  0
  -21.6542  -26.2546   22.2093 C   0  0  0  0  0  0  0  0  0  0  0  0
  -23.4328   -9.9820   20.0038 C   0  0  0  0  0  0  0  0  0  0  0  0
  -22.2630  -27.6428   21.9987 C   0  0  0  0  0  0  0  0  0  0  0  0
  -22.6522  -25.2880   22.8445 C   0  0  0  0  0  0  0  0  0  0  0  0
  -24.5510  -26.5711   21.9403 C   0  0  0  0  0  0  0  0  0  0  0  0
  -24.5070  -10.0016   21.0979 C   0  0  1  0  0  0  0  0  0  0  0  0
  -24.9544  -13.5842   22.2803 C   0  0  1  0  0  0  0  0  0  0  0  0
  -23.6040  -27.5614   21.2432 C   0  0  2  0  0  0  0  0  0  0  0  0
  -20.0915  -19.5708   21.5621 C   0  0  0  0  0  0  0  0  0  0  0  0
  -21.7683  -13.7262   18.9353 C   0  0  0  0  0  0  0  0  0  0  0  0
  -20.4849  -15.8686   18.7584 C   0  0  0  0  0  0  0  0  0  0  0  0
  -20.0161  -14.2868   20.6294 C   0  0  0  0  0  0  0  0  0  0  0  0
  -23.3630  -19.5219   23.5040 C   0  0  0  0  0  0  0  0  0  0  0  0
  -30.9096  -18.8530   18.8157 C   0  0  0  0  0  0  0  0  0  0  0  0
  -30.5993  -17.6179   19.6467 C   0  0  0  0  0  0  0  0  0  1  0  0
  -29.7610  -19.8494   18.8266 C   0  0  0  0  0  0  0  0  0  0  0  0
  -22.1632  -15.6216   20.6434 C   0  0  1  0  0  0  0  0  0  0  0  0
  -21.2741  -18.9281   22.2701 C   0  0  2  0  0  0  0  0  0  0  0  0
  -21.1364  -14.8761   19.7449 C   0  0  0  0  0  0  0  0  0  0  0  0
  -24.0450  -29.8585   22.0245 N   0  0  0  0  0  0  0  0  0  0  0  0
  -24.2370  -28.9297   21.0724 N   0  0  0  0  0  0  0  0  0  0  0  0
  -24.2493  -14.6080   21.5064 N   0  0  0  0  0  0  0  0  0  0  0  0
  -23.8965  -25.2600   22.0727 N   0  0  0  0  0  0  0  0  0  0  0  0
  -25.3017  -28.5508   18.9907 N   0  0  0  0  0  0  0  0  0  0  0  0
  -26.4016  -32.8221   19.9614 N   0  0  0  0  0  0  0  0  0  0  0  0
  -25.5346  -24.1394   20.7985 N   0  0  0  0  0  0  0  0  0  0  0  0
  -24.4746  -11.2579   21.8156 N   0  0  0  0  0  0  0  0  0  0  0  0
  -21.5875  -16.6982   21.4421 N   0  0  0  0  0  0  0  0  0  0  0  0
  -22.1695  -20.0109   22.7668 N   0  3  0  0  0  0  0  0  0  0  0  0
  -26.6299  -31.1467   18.4124 O   0  0  0  0  0  0  0  0  0  0  0  0
  -25.8012  -12.5012   20.3607 O   0  0  0  0  0  0  0  0  0  0  0  0
  -22.1821  -14.0822   22.4480 O   0  0  0  0  0  0  0  0  0  0  0  0
  -22.9336  -18.3878   20.5993 O   0  0  0  0  0  0  0  0  0  0  0  0
  -23.7417  -22.9824   21.7086 O   0  0  0  0  0  0  0  0  0  0  0  0
  -24.8715  -35.6667   24.5004 O   0  0  0  0  0  0  0  0  0  0  0  0
  -29.4314  -16.9737   19.1396 O   0  0  0  0  0  0  0  0  0  1  0  0
  -29.5032  -20.2737   20.1583 O   0  0  0  0  0  0  0  0  0  0  0  0
  -24.0990  -40.3939   21.7688 F   0  0  0  0  0  0  0  0  0  0  0  0
  -22.7725  -37.3481   25.1406 F   0  0  0  0  0  0  0  0  0  0  0  0
  -27.2032  -19.4198   21.9013 Cl  0  0  0  0  0  0  0  0  0  0  0  0
  1  2  1  0  0  0  0
  1  5  2  0  0  0  0
  2  6  2  0  0  0  0
  3  9  2  0  0  0  0
  3 18  1  0  0  0  0
  4 10  1  0  0  0  0
  4 18  2  0  0  0  0
  5 20  1  0  0  0  0
  6 22  1  0  0  0  0
  7 11  2  0  0  0  0
  7 21  1  0  0  0  0
  8 12  2  0  0  0  0
  8 24  1  0  0  0  0
  9 25  1  0  0  0  0
 10 25  2  0  0  0  0
 11 26  1  0  0  0  0
 12 28  1  0  0  0  0
 13 14  2  0  0  0  0
 13 27  1  0  0  0  0
 14 29  1  0  0  0  0
 15 23  1  0  0  0  0
 15 26  2  0  0  0  0
 16 24  2  0  0  0  0
 16 31  1  0  0  0  0
 17 29  2  0  0  0  0
 17 30  1  0  0  0  0
 18 32  1  0  0  0  0
 19 32  1  0  0  0  0
 19 33  2  0  0  0  0
 19 34  1  0  0  0  0
 20 22  2  0  0  0  0
 20 39  1  0  0  0  0
 21 23  2  0  0  0  0
 21 40  1  0  0  0  0
 22 48  1  0  0  0  0
 23 41  1  0  0  0  0
 24 68  1  0  0  0  0
 25 77  1  0  0  0  0
 26 78  1  0  0  0  0
 27 30  2  0  0  0  0
 27 77  1  0  0  0  0
 28 31  2  0  0  0  0
 28 79  1  0  0  0  0
 29 80  1  0  0  0  0
 30 81  1  0  0  0  0
 31 82  1  0  0  0  0
 32 62  2  0  0  0  0
 33 63  1  0  0  0  0
 33 66  1  0  0  0  0
 34 67  1  0  0  0  0
 34 72  2  0  0  0  0
 35 49  1  0  0  0  0
 35 69  1  0  0  0  0
 35 73  2  0  0  0  0
 36 59  1  0  0  0  0
 36 64  1  0  0  0  0
 36 74  2  0  0  0  0
 37 60  1  0  0  0  0
 37 70  1  0  0  0  0
 37 75  2  0  0  0  0
 38 65  1  0  0  0  0
 38 68  1  0  0  0  0
 38 76  2  0  0  0  0
 39 42  1  0  0  0  0
 40 49  1  0  0  0  0
 41 64  1  0  0  0  0
 42 44  1  0  0  0  0
 43 45  1  0  0  0  0
 43 46  1  0  0  0  0
 44 48  1  0  0  0  0
 45 50  1  0  0  0  0
 46 65  1  0  0  0  0
 47 50  1  0  0  0  0
 47 65  1  0  0  0  0
 48 69  1  0  0  0  0
 49 64  1  0  0  0  0
 50 63  1  0  0  0  0
 51 60  1  0  0  0  0
 52 61  1  0  0  0  0
 53 61  1  0  0  0  0
 54 61  1  0  0  0  0
 55 71  1  0  0  0  0
 56 57  1  0  0  0  0
 56 58  1  0  0  0  0
 57 78  1  0  0  0  0
 58 79  1  0  0  0  0
 59 61  1  0  0  0  0
 59 70  1  0  0  0  0
 60 71  1  0  0  0  0
 62 63  1  0  0  0  0
M  CHG  1  71   1
M  ISO  4  38 100  57 101  68 100  78 101
M  END
> <Batch ID>
0013

> <Smiles>
CNC(C)C(=O)NC(C(=O)N1Cc2cc([101O:1][101CH2:1]CCOc3ccc([100NH:0][100C:0](=O)N4CCCC(n5nc(-c6ccc(Oc7ccc(F)cc7F)cc6)c(C(N)=O)c5N)C4)cc3Cl)ccc2CC1C(=O)NC1CCCc2ccccc21)C(C)(C)C

> <Shape>
0.242

> <Color>
0.069

> <Negative vol penalty>
0.000

$$$$

  -OEChem-04042320483D

 84 93  0     1  0  0  0  0  0999 V2000
  -16.7106  -30.6678   23.2263 C   0  0  0  0  0  0  0  0  0  0  0  0
  -17.8489  -31.1647   22.5996 C   0  0  0  0  0  0  0  0  0  0  0  0
  -25.4405  -14.1588   19.7672 C   0  0  0  0  0  0  0  0  0  0  0  0
  -26.7363  -12.5530   21.0239 C   0  0  0  0  0  0  0  0  0  0  0  0
  -32.2742  -23.9495   20.5014 C   0  0  0  0  0  0  0  0  0  0  0  0
  -16.8096  -29.5709   24.0812 C   0  0  0  0  0  0  0  0  0  0  0  0
  -19.0871  -30.5656   22.8284 C   0  0  0  0  0  0  0  0  0  0  0  0
  -25.2936  -29.1451   19.5454 C   0  0  0  0  0  0  0  0  0  0  0  0
  -32.2284  -22.5879   20.1883 C   0  0  0  0  0  0  0  0  0  0  0  0
  -24.5470  -13.1519   19.4019 C   0  0  0  0  0  0  0  0  0  0  0  0
  -25.8427  -11.5461   20.6587 C   0  0  0  0  0  0  0  0  0  0  0  0
  -26.6671  -29.3070   19.7218 C   0  0  0  0  0  0  0  0  0  0  0  0
  -22.7772  -10.4776   21.5975 C   0  0  0  0  0  0  0  0  0  0  0  0
  -22.3508   -9.5991   22.5934 C   0  0  0  0  0  0  0  0  0  0  0  0
  -30.2865  -24.3695   19.1706 C   0  0  0  0  0  0  0  0  0  0  0  0
  -26.7052  -27.3683   21.1568 C   0  0  0  0  0  0  0  0  0  0  0  0
  -23.2758   -7.7437   21.3527 C   0  0  0  0  0  0  0  0  0  0  0  0
  -26.5352  -13.8593   20.5782 C   0  0  0  0  0  0  0  0  0  0  0  0
  -31.3104  -24.8344   19.9964 C   0  0  0  0  0  0  0  0  0  0  0  0
  -27.3873  -15.7289   22.0902 C   0  0  0  0  0  0  0  0  0  0  0  0
  -18.0481  -28.9521   24.3131 C   0  0  0  0  0  0  0  0  0  0  0  0
  -24.6126  -28.0983   20.1832 C   0  0  0  0  0  0  0  0  0  0  0  0
  -19.2030  -29.4603   23.6883 C   0  0  0  0  0  0  0  0  0  0  0  0
  -30.2438  -23.0168   18.8714 C   0  0  0  0  0  0  0  0  0  0  0  0
  -25.3235  -27.1938   20.9848 C   0  0  0  0  0  0  0  0  0  0  0  0
  -31.2041  -22.1346   19.3699 C   0  0  0  0  0  0  0  0  0  0  0  0
  -24.7481  -11.8456   19.8476 C   0  0  0  0  0  0  0  0  0  0  0  0
  -27.3726  -28.4202   20.5298 C   0  0  0  0  0  0  0  0  0  0  0  0
  -23.4528   -9.9893   20.4791 C   0  0  0  0  0  0  0  0  0  0  0  0
  -22.6001   -8.2321   22.4710 C   0  0  0  0  0  0  0  0  0  0  0  0
  -23.7022   -8.6223   20.3568 C   0  0  0  0  0  0  0  0  0  0  0  0
  -27.4588  -14.8989   20.9554 C   0  0  0  0  0  0  0  0  0  0  0  0
  -28.4906  -16.5410   21.9917 C   0  0  0  0  0  0  0  0  0  0  0  0
  -31.3834  -26.2479   20.3315 C   0  0  0  0  0  0  0  0  0  0  0  0
  -26.4108  -15.7629   23.1395 C   0  0  0  0  0  0  0  0  0  0  0  0
  -22.2766  -27.9223   22.3316 C   0  0  0  0  0  0  0  0  0  0  0  0
  -22.4795  -24.7436   21.7173 C   0  0  0  0  0  0  0  0  0  0  0  0
  -24.3630  -22.1206   20.6134 C   0  0  0  0  0  0  0  0  0  0  0  0
  -31.8604  -19.7726   18.9599 C   0  0  0  0  0  0  0  0  0  0  0  0
  -18.1130  -27.7984   25.2824 C   0  0  0  0  0  0  0  0  0  0  0  0
  -23.1354  -27.9216   19.9613 C   0  0  0  0  0  0  0  0  0  0  0  0
  -29.2833  -22.3198   17.9628 C   0  0  0  0  0  0  0  0  0  0  0  0
  -24.6426  -26.0415   21.6754 C   0  0  0  0  0  0  0  0  0  0  0  0
  -19.4025  -26.9880   25.1792 C   0  0  0  0  0  0  0  0  0  0  0  0
  -32.5166  -16.3023   18.9688 C   0  0  0  0  0  0  0  0  0  0  0  0
  -20.6128  -27.9149   25.1270 C   0  0  0  0  0  0  0  0  0  0  0  0
  -31.2463  -15.6838   19.5462 C   0  0  0  0  0  0  0  0  0  0  0  0
  -29.6388  -20.8476   18.2069 C   0  0  0  0  0  0  0  0  0  0  0  0
  -32.1812  -17.4849   18.0702 C   0  0  0  0  0  0  0  0  0  0  0  0
  -30.1267  -17.9672   19.3768 C   0  0  0  0  0  0  0  0  0  0  0  0
  -20.5600  -28.8222   23.8919 C   0  0  1  0  0  0  0  0  0  0  0  0
  -22.4557  -27.1250   21.0707 C   0  0  1  0  0  0  0  0  0  0  0  0
  -30.4101  -16.7464   20.2762 C   0  0  1  0  0  0  0  0  0  0  0  0
  -24.2691  -19.6374   20.2635 C   0  0  0  0  0  0  0  0  0  0  0  0
  -22.7985  -24.3108   24.7208 C   0  0  0  0  0  0  0  0  0  0  0  0
  -23.6360  -22.0032   24.2288 C   0  0  0  0  0  0  0  0  0  0  0  0
  -21.3163  -22.6511   23.5793 C   0  0  0  0  0  0  0  0  0  0  0  0
  -24.8187  -22.3968   17.7022 C   0  0  0  0  0  0  0  0  0  0  0  0
  -30.8481  -28.5821   19.5906 C   0  0  0  0  0  0  0  0  0  0  0  0
  -29.4452  -29.1611   19.6290 C   0  0  0  0  0  0  0  0  0  1  0  0
  -23.2742  -23.5933   22.2867 C   0  0  1  0  0  0  0  0  0  0  0  0
  -24.0577  -21.0042   19.6311 C   0  0  2  0  0  0  0  0  0  0  0  0
  -22.7690  -23.1624   23.6926 C   0  0  0  0  0  0  0  0  0  0  0  0
  -28.5233  -15.1597   20.1920 N   0  0  0  0  0  0  0  0  0  0  0  0
  -29.1308  -16.1629   20.8483 N   0  0  0  0  0  0  0  0  0  0  0  0
  -30.9372  -20.8199   18.9251 N   0  0  0  0  0  0  0  0  0  0  0  0
  -23.1961  -25.9146   21.4325 N   0  0  0  0  0  0  0  0  0  0  0  0
  -31.3583  -18.4777   18.7624 N   0  0  0  0  0  0  0  0  0  0  0  0
  -28.9659  -17.5344   22.7724 N   0  0  0  0  0  0  0  0  0  0  0  0
  -25.3410  -14.8590   23.0861 N   0  0  0  0  0  0  0  0  0  0  0  0
  -30.8326  -27.1480   19.4120 N   0  0  0  0  0  0  0  0  0  0  0  0
  -20.9578  -28.0894   22.7090 N   0  0  0  0  0  0  0  0  0  0  0  0
  -23.2320  -22.5329   21.2856 N   0  0  0  0  0  0  0  0  0  0  0  0
  -24.9409  -21.1105   18.4353 N   0  3  0  0  0  0  0  0  0  0  0  0
  -31.9336  -26.6196   21.3831 O   0  0  0  0  0  0  0  0  0  0  0  0
  -26.4759  -16.5818   24.0874 O   0  0  0  0  0  0  0  0  0  0  0  0
  -23.2619  -28.3527   22.9194 O   0  0  0  0  0  0  0  0  0  0  0  0
  -21.2687  -24.6058   21.5255 O   0  0  0  0  0  0  0  0  0  0  0  0
  -25.4927  -22.5784   20.7714 O   0  0  0  0  0  0  0  0  0  0  0  0
  -33.0758  -19.9657   19.0869 O   0  0  0  0  0  0  0  0  0  0  0  0
  -23.8763  -10.8629   19.4916 O   0  0  0  0  0  0  0  0  0  0  0  0
  -28.7226  -28.5774   20.7054 O   0  0  0  0  0  0  0  0  0  1  0  0
  -22.1919   -7.3887   23.4282 F   0  0  0  0  0  0  0  0  0  0  0  0
  -24.3519   -8.1474   19.2852 F   0  0  0  0  0  0  0  0  0  0  0  0
  1  2  1  0  0  0  0
  1  6  2  0  0  0  0
  2  7  2  0  0  0  0
  3 10  2  0  0  0  0
  3 18  1  0  0  0  0
  4 11  1  0  0  0  0
  4 18  2  0  0  0  0
  5  9  2  0  0  0  0
  5 19  1  0  0  0  0
  6 21  1  0  0  0  0
  7 23  1  0  0  0  0
  8 12  2  0  0  0  0
  8 22  1  0  0  0  0
  9 26  1  0  0  0  0
 10 27  1  0  0  0  0
 11 27  2  0  0  0  0
 12 28  1  0  0  0  0
 13 14  2  0  0  0  0
 13 29  1  0  0  0  0
 14 30  1  0  0  0  0
 15 19  2  0  0  0  0
 15 24  1  0  0  0  0
 16 25  1  0  0  0  0
 16 28  2  0  0  0  0
 17 30  2  0  0  0  0
 17 31  1  0  0  0  0
 18 32  1  0  0  0  0
 19 34  1  0  0  0  0
 20 32  1  0  0  0  0
 20 33  2  0  0  0  0
 20 35  1  0  0  0  0
 21 23  2  0  0  0  0
 21 40  1  0  0  0  0
 22 25  2  0  0  0  0
 22 41  1  0  0  0  0
 23 51  1  0  0  0  0
 24 26  2  0  0  0  0
 24 42  1  0  0  0  0
 25 43  1  0  0  0  0
 26 66  1  0  0  0  0
 27 81  1  0  0  0  0
 28 82  1  0  0  0  0
 29 31  2  0  0  0  0
 29 81  1  0  0  0  0
 30 83  1  0  0  0  0
 31 84  1  0  0  0  0
 32 64  2  0  0  0  0
 33 65  1  0  0  0  0
 33 69  1  0  0  0  0
 34 71  1  0  0  0  0
 34 75  2  0  0  0  0
 35 70  1  0  0  0  0
 35 76  2  0  0  0  0
 36 52  1  0  0  0  0
 36 72  1  0  0  0  0
 36 77  2  0  0  0  0
 37 61  1  0  0  0  0
 37 67  1  0  0  0  0
 37 78  2  0  0  0  0
 38 62  1  0  0  0  0
 38 73  1  0  0  0  0
 38 79  2  0  0  0  0
 39 66  1  0  0  0  0
 39 68  1  0  0  0  0
 39 80  2  0  0  0  0
 40 44  1  0  0  0  0
 41 52  1  0  0  0  0
 42 48  1  0  0  0  0
 43 67  1  0  0  0  0
 44 46  1  0  0  0  0
 45 47  1  0  0  0  0
 45 49  1  0  0  0  0
 46 51  1  0  0  0  0
 47 53  1  0  0  0  0
 48 66  1  0  0  0  0
 49 68  1  0  0  0  0
 50 53  1  0  0  0  0
 50 68  1  0  0  0  0
 51 72  1  0  0  0  0
 52 67  1  0  0  0  0
 53 65  1  0  0  0  0
 54 62  1  0  0  0  0
 55 63  1  0  0  0  0
 56 63  1  0  0  0  0
 57 63  1  0  0  0  0
 58 74  1  0  0  0  0
 59 60  1  0  0  0  0
 59 71  1  0  0  0  0
 60 82  1  0  0  0  0
 61 63  1  0  0  0  0
 61 73  1  0  0  0  0
 62 74  1  0  0  0  0
 64 65  1  0  0  0  0
M  CHG  1  74   1
M  ISO  4  39 100  60 101  66 100  82 101
M  END
> <Batch ID>
0013

> <Smiles>
CNC(C)C(=O)NC(C(=O)N1Cc2cc([101O:1][101CH2:1]CNC(=O)c3ccc4c(c3)CC[100N:0]4[100C:0](=O)N3CCCC(n4nc(-c5ccc(Oc6ccc(F)cc6F)cc5)c(C(N)=O)c4N)C3)ccc2CC1C(=O)NC1CCCc2ccccc21)C(C)(C)C

> <Shape>
0.225

> <Color>
0.077

> <Negative vol penalty>
0.000

$$$$

  -OEChem-04042320483D

 81 89  0     1  0  0  0  0  0999 V2000
  -18.1099  -28.0564   26.7042 C   0  0  0  0  0  0  0  0  0  0  0  0
  -18.0795  -27.1880   25.6177 C   0  0  0  0  0  0  0  0  0  0  0  0
  -23.3204  -16.1169   21.8227 C   0  0  0  0  0  0  0  0  0  0  0  0
  -22.5232  -15.4383   19.6453 C   0  0  0  0  0  0  0  0  0  0  0  0
  -18.8815  -29.2163   26.6467 C   0  0  0  0  0  0  0  0  0  0  0  0
  -18.8199  -27.4796   24.4726 C   0  0  0  0  0  0  0  0  0  0  0  0
  -23.8376  -22.9194   22.0398 C   0  0  0  0  0  0  0  0  0  0  0  0
  -30.4481  -17.5002   19.7788 C   0  0  0  0  0  0  0  0  0  0  0  0
  -29.5585  -17.6304   22.0213 C   0  0  0  0  0  0  0  0  0  0  0  0
  -22.3314  -17.0988   21.8788 C   0  0  0  0  0  0  0  0  0  0  0  0
  -21.5341  -16.4203   19.7014 C   0  0  0  0  0  0  0  0  0  0  0  0
  -24.6664  -22.0030   21.3923 C   0  0  0  0  0  0  0  0  0  0  0  0
  -29.9402  -18.7698   19.5036 C   0  0  0  0  0  0  0  0  0  0  0  0
  -29.0507  -18.9001   21.7461 C   0  0  0  0  0  0  0  0  0  0  0  0
  -19.7895  -19.5463   22.7527 C   0  0  0  0  0  0  0  0  0  0  0  0
  -19.0747  -19.6795   23.9430 C   0  0  0  0  0  0  0  0  0  0  0  0
  -25.1596  -23.6407   19.6827 C   0  0  0  0  0  0  0  0  0  0  0  0
  -18.3051  -17.3988   23.7361 C   0  0  0  0  0  0  0  0  0  0  0  0
  -23.4164  -15.2866   20.7059 C   0  0  0  0  0  0  0  0  0  0  0  0
  -24.3422  -12.9419   21.0966 C   0  0  0  0  0  0  0  0  0  0  0  0
  -19.6393  -29.5174   25.5040 C   0  0  0  0  0  0  0  0  0  0  0  0
  -23.6785  -24.2066   21.5189 C   0  0  0  0  0  0  0  0  0  0  0  0
  -19.6013  -28.6453   24.3993 C   0  0  0  0  0  0  0  0  0  0  0  0
  -24.3405  -24.5670   20.3337 C   0  0  0  0  0  0  0  0  0  0  0  0
  -30.2571  -16.9305   21.0377 C   0  0  0  0  0  0  0  0  0  0  0  0
  -21.4382  -17.2505   20.8182 C   0  0  0  0  0  0  0  0  0  0  0  0
  -29.2416  -19.4698   20.4872 C   0  0  0  0  0  0  0  0  0  0  0  0
  -25.3256  -22.3627   20.2165 C   0  0  0  0  0  0  0  0  0  0  0  0
  -19.7620  -18.3394   22.0539 C   0  0  0  0  0  0  0  0  0  0  0  0
  -18.3325  -18.6058   24.4347 C   0  0  0  0  0  0  0  0  0  0  0  0
  -19.0198  -17.2656   22.5457 C   0  0  0  0  0  0  0  0  0  0  0  0
  -24.4382  -14.2725   20.6470 C   0  0  0  0  0  0  0  0  0  0  0  0
  -25.5706  -12.3953   20.8163 C   0  0  0  0  0  0  0  0  0  0  0  0
  -23.2410  -12.2609   21.7125 C   0  0  0  0  0  0  0  0  0  0  0  0
  -22.0857  -27.5844   21.8784 C   0  0  0  0  0  0  0  0  0  0  0  0
  -24.9670  -28.0537   20.9359 C   0  0  0  0  0  0  0  0  0  0  0  0
  -28.3180  -28.1575   20.3054 C   0  0  0  0  0  0  0  0  0  0  0  0
  -30.9179  -14.6457   20.3066 C   0  0  0  0  0  0  0  0  0  0  0  0
  -20.4208  -30.8068   25.4703 C   0  0  0  0  0  0  0  0  0  0  0  0
  -22.7474  -25.2063   22.1493 C   0  0  0  0  0  0  0  0  0  0  0  0
  -24.1123  -25.9514   19.7911 C   0  0  0  0  0  0  0  0  0  0  0  0
  -21.4713  -30.8536   24.3637 C   0  0  0  0  0  0  0  0  0  0  0  0
  -29.2443  -12.7764   17.7871 C   0  0  0  0  0  0  0  0  0  0  0  0
  -20.8781  -30.3711   23.0438 C   0  0  0  0  0  0  0  0  0  0  0  0
  -27.7986  -12.8296   18.2796 C   0  0  0  0  0  0  0  0  0  0  0  0
  -29.9725  -14.1032   18.0047 C   0  0  0  0  0  0  0  0  0  0  0  0
  -28.4693  -14.6516   19.8926 C   0  0  0  0  0  0  0  0  0  0  0  0
  -20.4102  -28.9145   23.1490 C   0  0  1  0  0  0  0  0  0  0  0  0
  -23.2533  -26.6557   22.0384 C   0  0  1  0  0  0  0  0  0  0  0  0
  -27.7298  -13.3134   19.7389 C   0  0  1  0  0  0  0  0  0  0  0  0
  -30.1924  -29.7696   19.8753 C   0  0  0  0  0  0  0  0  0  0  0  0
  -23.9454  -28.4773   18.0932 C   0  0  0  0  0  0  0  0  0  0  0  0
  -26.2402  -29.2525   17.4598 C   0  0  0  0  0  0  0  0  0  0  0  0
  -24.9258  -30.5136   19.1641 C   0  0  0  0  0  0  0  0  0  0  0  0
  -31.4022  -15.3787   22.6311 C   0  0  0  0  0  0  0  0  0  0  0  0
  -29.7971  -27.2582   22.7059 C   0  0  0  0  0  0  0  0  0  0  0  0
  -28.3712  -20.9799   18.8693 C   0  0  0  0  0  0  0  0  0  0  0  0
  -27.2404  -21.9901   18.8555 C   0  0  0  0  0  0  0  0  0  1  0  0
  -25.8982  -28.2593   19.7680 C   0  0  1  0  0  0  0  0  0  0  0  0
  -29.4355  -28.9748   20.9280 C   0  0  2  0  0  0  0  0  0  0  0  0
  -25.2485  -29.1000   18.6328 C   0  0  0  0  0  0  0  0  0  0  0  0
  -25.6332  -14.5541   20.1212 N   0  0  0  0  0  0  0  0  0  0  0  0
  -26.2995  -13.3929   20.2386 N   0  0  0  0  0  0  0  0  0  0  0  0
  -24.1320  -26.9307   20.8889 N   0  0  0  0  0  0  0  0  0  0  0  0
  -29.8450  -14.5445   19.4008 N   0  0  0  0  0  0  0  0  0  0  0  0
  -26.0877  -11.1634   21.0101 N   0  0  0  0  0  0  0  0  0  0  0  0
  -22.0520  -12.9712   21.9274 N   0  0  0  0  0  0  0  0  0  0  0  0
  -21.5406  -28.0139   23.0733 N   0  0  0  0  0  0  0  0  0  0  0  0
  -27.1194  -28.8390   20.3168 N   0  0  0  0  0  0  0  0  0  0  0  0
  -30.7828  -15.6160   21.3227 N   0  0  0  0  0  0  0  0  0  0  0  0
  -30.4020  -28.0822   21.6280 N   0  3  0  0  0  0  0  0  0  0  0  0
  -23.3149  -11.0629   22.0770 O   0  0  0  0  0  0  0  0  0  0  0  0
  -21.7072  -27.8909   20.7539 O   0  0  0  0  0  0  0  0  0  0  0  0
  -24.9737  -28.8681   21.8632 O   0  0  0  0  0  0  0  0  0  0  0  0
  -28.4918  -27.0289   19.8509 O   0  0  0  0  0  0  0  0  0  0  0  0
  -31.9081  -13.9085   20.2296 O   0  0  0  0  0  0  0  0  0  0  0  0
  -20.4728  -18.2084   20.8727 O   0  0  0  0  0  0  0  0  0  0  0  0
  -28.7427  -20.7168   20.2170 O   0  0  0  0  0  0  0  0  0  0  0  0
  -26.1368  -21.4646   19.5919 O   0  0  0  0  0  0  0  0  0  1  0  0
  -17.6474  -18.7333   25.5786 F   0  0  0  0  0  0  0  0  0  0  0  0
  -18.9906  -16.1032   21.8795 F   0  0  0  0  0  0  0  0  0  0  0  0
  1  2  1  0  0  0  0
  1  5  2  0  0  0  0
  2  6  2  0  0  0  0
  3 10  2  0  0  0  0
  3 19  1  0  0  0  0
  4 11  1  0  0  0  0
  4 19  2  0  0  0  0
  5 21  1  0  0  0  0
  6 23  1  0  0  0  0
  7 12  2  0  0  0  0
  7 22  1  0  0  0  0
  8 13  2  0  0  0  0
  8 25  1  0  0  0  0
  9 14  1  0  0  0  0
  9 25  2  0  0  0  0
 10 26  1  0  0  0  0
 11 26  2  0  0  0  0
 12 28  1  0  0  0  0
 13 27  1  0  0  0  0
 14 27  2  0  0  0  0
 15 16  2  0  0  0  0
 15 29  1  0  0  0  0
 16 30  1  0  0  0  0
 17 24  1  0  0  0  0
 17 28  2  0  0  0  0
 18 30  2  0  0  0  0
 18 31  1  0  0  0  0
 19 32  1  0  0  0  0
 20 32  1  0  0  0  0
 20 33  2  0  0  0  0
 20 34  1  0  0  0  0
 21 23  2  0  0  0  0
 21 39  1  0  0  0  0
 22 24  2  0  0  0  0
 22 40  1  0  0  0  0
 23 48  1  0  0  0  0
 24 41  1  0  0  0  0
 25 70  1  0  0  0  0
 26 77  1  0  0  0  0
 27 78  1  0  0  0  0
 28 79  1  0  0  0  0
 29 31  2  0  0  0  0
 29 77  1  0  0  0  0
 30 80  1  0  0  0  0
 31 81  1  0  0  0  0
 32 62  2  0  0  0  0
 33 63  1  0  0  0  0
 33 66  1  0  0  0  0
 34 67  1  0  0  0  0
 34 72  2  0  0  0  0
 35 49  1  0  0  0  0
 35 68  1  0  0  0  0
 35 73  2  0  0  0  0
 36 59  1  0  0  0  0
 36 64  1  0  0  0  0
 36 74  2  0  0  0  0
 37 60  1  0  0  0  0
 37 69  1  0  0  0  0
 37 75  2  0  0  0  0
 38 65  1  0  0  0  0
 38 70  1  0  0  0  0
 38 76  2  0  0  0  0
 39 42  1  0  0  0  0
 40 49  1  0  0  0  0
 41 64  1  0  0  0  0
 42 44  1  0  0  0  0
 43 45  1  0  0  0  0
 43 46  1  0  0  0  0
 44 48  1  0  0  0  0
 45 50  1  0  0  0  0
 46 65  1  0  0  0  0
 47 50  1  0  0  0  0
 47 65  1  0  0  0  0
 48 68  1  0  0  0  0
 49 64  1  0  0  0  0
 50 63  1  0  0  0  0
 51 60  1  0  0  0  0
 52 61  1  0  0  0  0
 53 61  1  0  0  0  0
 54 61  1  0  0  0  0
 55 70  1  0  0  0  0
 56 71  1  0  0  0  0
 57 58  1  0  0  0  0
 57 78  1  0  0  0  0
 58 79  1  0  0  0  0
 59 61  1  0  0  0  0
 59 69  1  0  0  0  0
 60 71  1  0  0  0  0
 62 63  1  0  0  0  0
M  CHG  1  71   1
M  ISO  4  38 100  58 101  70 100  79 101
M  END
> <Batch ID>
0013

> <Smiles>
CNC(C)C(=O)NC(C(=O)N1Cc2cc([101O:1][101CH2:1]COc3ccc([100N:0](C)[100C:0](=O)N4CCCC(n5nc(-c6ccc(Oc7ccc(F)cc7F)cc6)c(C(N)=O)c5N)C4)cc3)ccc2CC1C(=O)NC1CCCc2ccccc21)C(C)(C)C

> <Shape>
0.234

> <Color>
0.102

> <Negative vol penalty>
0.000

$$$$

  -OEChem-04042320483D

 79 87  0     1  0  0  0  0  0999 V2000
  -28.7111  -24.1032   17.9694 C   0  0  0  0  0  0  0  0  0  0  0  0
  -27.4719  -24.3658   18.5444 C   0  0  0  0  0  0  0  0  0  0  0  0
  -19.6203  -23.8235   19.7295 C   0  0  0  0  0  0  0  0  0  0  0  0
  -27.3005  -16.2045   21.5152 C   0  0  0  0  0  0  0  0  0  0  0  0
  -25.8503  -16.7910   19.6740 C   0  0  0  0  0  0  0  0  0  0  0  0
  -29.8622  -24.6826   18.5016 C   0  0  0  0  0  0  0  0  0  0  0  0
  -27.3831  -25.2071   19.6529 C   0  0  0  0  0  0  0  0  0  0  0  0
  -23.5873  -28.5367   19.2656 C   0  0  0  0  0  0  0  0  0  0  0  0
  -19.2332  -25.0032   20.3652 C   0  0  0  0  0  0  0  0  0  0  0  0
  -20.2547  -22.8157   20.4558 C   0  0  0  0  0  0  0  0  0  0  0  0
  -27.3642  -14.8921   21.0470 C   0  0  0  0  0  0  0  0  0  0  0  0
  -25.9140  -15.4786   19.2058 C   0  0  0  0  0  0  0  0  0  0  0  0
  -22.3004  -28.0684   19.5270 C   0  0  0  0  0  0  0  0  0  0  0  0
  -28.9994  -13.1869   18.6281 C   0  0  0  0  0  0  0  0  0  0  0  0
  -30.2508  -12.5720   18.5906 C   0  0  0  0  0  0  0  0  0  0  0  0
  -22.4127  -29.0147   21.7431 C   0  0  0  0  0  0  0  0  0  0  0  0
  -20.1149  -24.1673   22.4535 C   0  0  0  0  0  0  0  0  0  0  0  0
  -29.4540  -10.8583   20.0956 C   0  0  0  0  0  0  0  0  0  0  0  0
  -26.5435  -17.1539   20.8287 C   0  0  0  0  0  0  0  0  0  0  0  0
  -27.3337  -19.5750   20.9764 C   0  0  0  0  0  0  0  0  0  0  0  0
  -29.7864  -25.5391   19.6112 C   0  0  0  0  0  0  0  0  0  0  0  0
  -24.3020  -29.2393   20.2464 C   0  0  0  0  0  0  0  0  0  0  0  0
  -28.5344  -25.7975   20.2013 C   0  0  0  0  0  0  0  0  0  0  0  0
  -23.7076  -29.4931   21.4907 C   0  0  0  0  0  0  0  0  0  0  0  0
  -19.4805  -25.1751   21.7271 C   0  0  0  0  0  0  0  0  0  0  0  0
  -20.5020  -22.9876   21.8178 C   0  0  0  0  0  0  0  0  0  0  0  0
  -26.6710  -14.5291   19.8923 C   0  0  0  0  0  0  0  0  0  0  0  0
  -21.7140  -28.3049   20.7669 C   0  0  0  0  0  0  0  0  0  0  0  0
  -27.9752  -12.6375   19.3995 C   0  0  0  0  0  0  0  0  0  0  0  0
  -30.4781  -11.4077   19.3243 C   0  0  0  0  0  0  0  0  0  0  0  0
  -28.2025  -11.4732   20.1332 C   0  0  0  0  0  0  0  0  0  0  0  0
  -26.4769  -18.5096   21.3121 C   0  0  0  0  0  0  0  0  0  0  0  0
  -26.8522  -20.6422   21.6944 C   0  0  0  0  0  0  0  0  0  0  0  0
  -28.4637  -19.5978   20.0942 C   0  0  0  0  0  0  0  0  0  0  0  0
  -27.0198  -28.7529   21.8214 C   0  0  0  0  0  0  0  0  0  0  0  0
  -26.4357  -31.7315   22.9656 C   0  0  0  0  0  0  0  0  0  0  0  0
  -24.1556  -34.1769   23.6491 C   0  0  0  0  0  0  0  0  0  0  0  0
  -21.4659  -21.9733   23.9126 C   0  0  0  0  0  0  0  0  0  0  0  0
  -31.0635  -26.1045   20.1805 C   0  0  0  0  0  0  0  0  0  0  0  0
  -25.6789  -29.7610   19.9394 C   0  0  0  0  0  0  0  0  0  0  0  0
  -24.4248  -30.2599   22.5706 C   0  0  0  0  0  0  0  0  0  0  0  0
  -30.8401  -27.2819   21.1261 C   0  0  0  0  0  0  0  0  0  0  0  0
  -24.5085  -21.6829   25.7389 C   0  0  0  0  0  0  0  0  0  0  0  0
  -29.7229  -26.9671   22.1158 C   0  0  0  0  0  0  0  0  0  0  0  0
  -25.4384  -20.9385   24.7781 C   0  0  0  0  0  0  0  0  0  0  0  0
  -23.0692  -21.1811   25.6380 C   0  0  0  0  0  0  0  0  0  0  0  0
  -23.4373  -20.4310   23.3205 C   0  0  0  0  0  0  0  0  0  0  0  0
  -28.3944  -26.7244   21.3893 C   0  0  1  0  0  0  0  0  0  0  0  0
  -26.5129  -30.0189   21.1906 C   0  0  1  0  0  0  0  0  0  0  0  0
  -24.8856  -20.9464   23.3394 C   0  0  2  0  0  0  0  0  0  0  0  0
  -23.9728  -36.4850   24.6170 C   0  0  0  0  0  0  0  0  0  0  0  0
  -26.7295  -30.5746   25.7737 C   0  0  0  0  0  0  0  0  0  0  0  0
  -25.6236  -32.6369   26.6636 C   0  0  0  0  0  0  0  0  0  0  0  0
  -27.7964  -32.8134   25.4508 C   0  0  0  0  0  0  0  0  0  0  0  0
  -23.1145  -35.2849   21.1099 C   0  0  0  0  0  0  0  0  0  0  0  0
  -19.0614  -26.4519   22.4145 C   0  0  0  0  0  0  0  0  0  0  0  0
  -20.1537  -27.5152   22.3787 C   0  0  0  0  0  0  0  0  0  1  0  0
  -25.6905  -32.2939   24.1518 C   0  0  1  0  0  0  0  0  0  0  0  0
  -24.1540  -35.6650   23.3491 C   0  0  2  0  0  0  0  0  0  0  0  0
  -26.4470  -32.0635   25.4905 C   0  0  0  0  0  0  0  0  0  0  0  0
  -25.5235  -18.8675   22.1764 N   0  0  0  0  0  0  0  0  0  0  0  0
  -25.7783  -20.1696   22.3898 N   0  0  0  0  0  0  0  0  0  0  0  0
  -25.7715  -30.7439   22.2244 N   0  0  0  0  0  0  0  0  0  0  0  0
  -22.6117  -21.2211   24.2473 N   0  0  0  0  0  0  0  0  0  0  0  0
  -27.2470  -21.9294   21.7926 N   0  0  0  0  0  0  0  0  0  0  0  0
  -28.8216  -18.4133   19.4360 N   0  0  0  0  0  0  0  0  0  0  0  0
  -21.1458  -21.9633   22.5554 N   0  0  0  0  0  0  0  0  0  0  0  0
  -27.8030  -27.9815   20.9840 N   0  0  0  0  0  0  0  0  0  0  0  0
  -25.4333  -33.6967   23.8446 N   0  0  0  0  0  0  0  0  0  0  0  0
  -23.0481  -36.0027   22.4089 N   0  3  0  0  0  0  0  0  0  0  0  0
  -29.1462  -20.6338   19.9081 O   0  0  0  0  0  0  0  0  0  0  0  0
  -26.7236  -28.4956   22.9823 O   0  0  0  0  0  0  0  0  0  0  0  0
  -27.5628  -32.1579   22.7019 O   0  0  0  0  0  0  0  0  0  0  0  0
  -23.1261  -33.5083   23.7082 O   0  0  0  0  0  0  0  0  0  0  0  0
  -20.8322  -22.6036   24.7630 O   0  0  0  0  0  0  0  0  0  0  0  0
  -26.7331  -13.2486   19.4351 O   0  0  0  0  0  0  0  0  0  0  0  0
  -20.4583  -27.8483   21.0249 O   0  0  0  0  0  0  0  0  0  1  0  0
  -31.6795  -10.8165   19.2869 F   0  0  0  0  0  0  0  0  0  0  0  0
  -27.2221  -10.9400   20.8751 F   0  0  0  0  0  0  0  0  0  0  0  0
  1  2  1  0  0  0  0
  1  6  2  0  0  0  0
  2  7  2  0  0  0  0
  3  9  2  0  0  0  0
  3 10  1  0  0  0  0
  4 11  2  0  0  0  0
  4 19  1  0  0  0  0
  5 12  1  0  0  0  0
  5 19  2  0  0  0  0
  6 21  1  0  0  0  0
  7 23  1  0  0  0  0
  8 13  2  0  0  0  0
  8 22  1  0  0  0  0
  9 25  1  0  0  0  0
 10 26  2  0  0  0  0
 11 27  1  0  0  0  0
 12 27  2  0  0  0  0
 13 28  1  0  0  0  0
 14 15  2  0  0  0  0
 14 29  1  0  0  0  0
 15 30  1  0  0  0  0
 16 24  1  0  0  0  0
 16 28  2  0  0  0  0
 17 25  2  0  0  0  0
 17 26  1  0  0  0  0
 18 30  2  0  0  0  0
 18 31  1  0  0  0  0
 19 32  1  0  0  0  0
 20 32  1  0  0  0  0
 20 33  2  0  0  0  0
 20 34  1  0  0  0  0
 21 23  2  0  0  0  0
 21 39  1  0  0  0  0
 22 24  2  0  0  0  0
 22 40  1  0  0  0  0
 23 48  1  0  0  0  0
 24 41  1  0  0  0  0
 25 56  1  0  0  0  0
 26 67  1  0  0  0  0
 27 76  1  0  0  0  0
 28 77  1  0  0  0  0
 29 31  2  0  0  0  0
 29 76  1  0  0  0  0
 30 78  1  0  0  0  0
 31 79  1  0  0  0  0
 32 61  2  0  0  0  0
 33 62  1  0  0  0  0
 33 65  1  0  0  0  0
 34 66  1  0  0  0  0
 34 71  2  0  0  0  0
 35 49  1  0  0  0  0
 35 68  1  0  0  0  0
 35 72  2  0  0  0  0
 36 58  1  0  0  0  0
 36 63  1  0  0  0  0
 36 73  2  0  0  0  0
 37 59  1  0  0  0  0
 37 69  1  0  0  0  0
 37 74  2  0  0  0  0
 38 64  1  0  0  0  0
 38 67  1  0  0  0  0
 38 75  2  0  0  0  0
 39 42  1  0  0  0  0
 40 49  1  0  0  0  0
 41 63  1  0  0  0  0
 42 44  1  0  0  0  0
 43 45  1  0  0  0  0
 43 46  1  0  0  0  0
 44 48  1  0  0  0  0
 45 50  1  0  0  0  0
 46 64  1  0  0  0  0
 47 50  1  0  0  0  0
 47 64  1  0  0  0  0
 48 68  1  0  0  0  0
 49 63  1  0  0  0  0
 50 62  1  0  0  0  0
 51 59  1  0  0  0  0
 52 60  1  0  0  0  0
 53 60  1  0  0  0  0
 54 60  1  0  0  0  0
 55 70  1  0  0  0  0
 56 57  1  0  0  0  0
 57 77  1  0  0  0  0
 58 60  1  0  0  0  0
 58 69  1  0  0  0  0
 59 70  1  0  0  0  0
 61 62  1  0  0  0  0
M  CHG  1  70   1
M  ISO  4  38 100  57 101  67 100  77 101
M  END
> <Batch ID>
0013

> <Smiles>
CNC(C)C(=O)NC(C(=O)N1Cc2cc([101O:1][101CH2:1]Cc3cccc([100NH:0][100C:0](=O)N4CCCC(n5nc(-c6ccc(Oc7ccc(F)cc7F)cc6)c(C(N)=O)c5N)C4)c3)ccc2CC1C(=O)NC1CCCc2ccccc21)C(C)(C)C

> <Shape>
0.298

> <Color>
0.075

> <Negative vol penalty>
0.000

$$$$

  -OEChem-04042320483D

 84 92  0     1  0  0  0  0  0999 V2000
  -28.4047  -22.5784   28.7827 C   0  0  0  0  0  0  0  0  0  0  0  0
  -28.4915  -22.8676   27.4246 C   0  0  0  0  0  0  0  0  0  0  0  0
  -24.5115   -9.1131   21.3094 C   0  0  0  0  0  0  0  0  0  0  0  0
  -22.6099  -10.3979   20.5542 C   0  0  0  0  0  0  0  0  0  0  0  0
  -27.1622  -22.5744   29.4153 C   0  0  0  0  0  0  0  0  0  0  0  0
  -27.3358  -23.1517   26.6981 C   0  0  0  0  0  0  0  0  0  0  0  0
  -27.8963  -27.1503   23.6417 C   0  0  0  0  0  0  0  0  0  0  0  0
  -26.3782  -20.3190   19.7319 C   0  0  0  0  0  0  0  0  0  0  0  0
  -25.6493  -22.1635   21.1117 C   0  0  0  0  0  0  0  0  0  0  0  0
  -27.5794  -20.9819   19.4802 C   0  0  0  0  0  0  0  0  0  0  0  0
  -26.8506  -22.8264   20.8600 C   0  0  0  0  0  0  0  0  0  0  0  0
  -23.6828   -8.0114   21.5219 C   0  0  0  0  0  0  0  0  0  0  0  0
  -21.7812   -9.2961   20.7666 C   0  0  0  0  0  0  0  0  0  0  0  0
  -28.5879  -26.9475   22.4482 C   0  0  0  0  0  0  0  0  0  0  0  0
  -21.4799   -6.9667   23.8629 C   0  0  0  0  0  0  0  0  0  0  0  0
  -21.6374   -6.2584   25.0541 C   0  0  0  0  0  0  0  0  0  0  0  0
  -26.4909  -26.8032   21.2645 C   0  0  0  0  0  0  0  0  0  0  0  0
  -22.1645   -4.2630   23.7980 C   0  0  0  0  0  0  0  0  0  0  0  0
  -23.9750  -10.3064   20.8257 C   0  0  0  0  0  0  0  0  0  0  0  0
  -25.9384  -11.5218   19.7416 C   0  0  0  0  0  0  0  0  0  0  0  0
  -25.9916  -22.8681   28.6982 C   0  0  0  0  0  0  0  0  0  0  0  0
  -26.4942  -27.1703   23.6572 C   0  0  0  0  0  0  0  0  0  0  0  0
  -26.0763  -23.1502   27.3214 C   0  0  0  0  0  0  0  0  0  0  0  0
  -25.7839  -27.0090   22.4590 C   0  0  0  0  0  0  0  0  0  0  0  0
  -25.4131  -20.9098   20.5476 C   0  0  0  0  0  0  0  0  0  0  0  0
  -27.8156  -22.2356   20.0443 C   0  0  0  0  0  0  0  0  0  0  0  0
  -22.3177   -8.1029   21.2504 C   0  0  0  0  0  0  0  0  0  0  0  0
  -27.8852  -26.7710   21.2599 C   0  0  0  0  0  0  0  0  0  0  0  0
  -21.6647   -6.3232   22.6392 C   0  0  0  0  0  0  0  0  0  0  0  0
  -21.9797   -4.9066   25.0217 C   0  0  0  0  0  0  0  0  0  0  0  0
  -22.0070   -4.9714   22.6068 C   0  0  0  0  0  0  0  0  0  0  0  0
  -24.8304  -11.4449   20.6066 C   0  0  0  0  0  0  0  0  0  0  0  0
  -26.4061  -12.8040   19.8958 C   0  0  0  0  0  0  0  0  0  0  0  0
  -26.4951  -10.5236   18.8760 C   0  0  0  0  0  0  0  0  0  0  0  0
  -24.2411  -25.4096   25.0455 C   0  0  0  0  0  0  0  0  0  0  0  0
  -22.2641  -27.6625   23.8052 C   0  0  0  0  0  0  0  0  0  0  0  0
  -21.7308  -30.0635   21.4392 C   0  0  0  0  0  0  0  0  0  0  0  0
  -23.9052  -17.8151   21.3932 C   0  0  0  0  0  0  0  0  0  0  0  0
  -24.6662  -22.8051   29.4151 C   0  0  0  0  0  0  0  0  0  0  0  0
  -25.7635  -27.4168   24.9486 C   0  0  0  0  0  0  0  0  0  0  0  0
  -24.2787  -27.0423   22.4188 C   0  0  0  0  0  0  0  0  0  0  0  0
  -23.5298  -23.4843   28.6550 C   0  0  0  0  0  0  0  0  0  0  0  0
  -26.6431  -16.3557   23.0802 C   0  0  0  0  0  0  0  0  0  0  0  0
  -23.5424  -23.0642   27.1886 C   0  0  0  0  0  0  0  0  0  0  0  0
  -26.5924  -14.9216   22.5553 C   0  0  0  0  0  0  0  0  0  0  0  0
  -25.2465  -16.9178   23.3521 C   0  0  0  0  0  0  0  0  0  0  0  0
  -24.2752  -15.3824   21.6722 C   0  0  0  0  0  0  0  0  0  0  0  0
  -24.8479  -23.4878   26.5047 C   0  0  1  0  0  0  0  0  0  0  0  0
  -24.3264  -26.9052   24.9290 C   0  0  1  0  0  0  0  0  0  0  0  0
  -25.6626  -14.8152   21.3342 C   0  0  2  0  0  0  0  0  0  0  0  0
  -20.0051  -31.7085   20.6561 C   0  0  0  0  0  0  0  0  0  0  0  0
  -20.6830  -25.3897   22.5228 C   0  0  0  0  0  0  0  0  0  0  0  0
  -19.5983  -27.0806   21.0286 C   0  0  0  0  0  0  0  0  0  0  0  0
  -19.2800  -27.2154   23.4991 C   0  0  0  0  0  0  0  0  0  0  0  0
  -24.5719  -19.5156   23.1449 C   0  0  0  0  0  0  0  0  0  0  0  0
  -23.5210  -32.3631   21.9543 C   0  0  0  0  0  0  0  0  0  0  0  0
  -28.8042  -23.5831   17.3863 C   0  0  0  0  0  0  0  0  0  0  0  0
  -24.1286  -20.2018   20.8171 C   0  0  0  0  0  0  0  0  0  0  0  0
  -29.1086  -22.9471   19.7745 C   0  0  0  0  0  0  0  0  0  0  0  0
  -30.0505  -25.0909   18.9274 C   0  0  0  0  0  0  0  0  0  0  0  0
  -29.8234  -25.9183   20.1772 C   0  0  0  0  0  0  0  0  0  1  0  0
  -21.5203  -27.8320   22.5025 C   0  0  1  0  0  0  0  0  0  0  0  0
  -21.2173  -31.4879   21.5475 C   0  0  2  0  0  0  0  0  0  0  0  0
  -20.2987  -26.8768   22.3890 C   0  0  0  0  0  0  0  0  0  0  0  0
  -24.6076  -12.5873   21.2619 N   0  0  0  0  0  0  0  0  0  0  0  0
  -25.5821  -13.3941   20.8086 N   0  0  0  0  0  0  0  0  0  0  0  0
  -23.6095  -27.2801   23.7084 N   0  0  0  0  0  0  0  0  0  0  0  0
  -24.3782  -16.7533   22.1783 N   0  0  0  0  0  0  0  0  0  0  0  0
  -27.4377  -13.4730   19.3385 N   0  0  0  0  0  0  0  0  0  0  0  0
  -26.0168  -10.4372   17.5614 N   0  0  0  0  0  0  0  0  0  0  0  0
  -24.8196  -24.9007   26.1925 N   0  0  0  0  0  0  0  0  0  0  0  0
  -21.1825  -29.2480   22.4065 N   0  0  0  0  0  0  0  0  0  0  0  0
  -24.2865  -19.1117   21.7695 N   0  0  0  0  0  0  0  0  0  0  0  0
  -22.2788  -32.4532   21.1446 N   0  3  0  0  0  0  0  0  0  0  0  0
  -28.9627  -24.0887   18.7989 N   0  3  1  0  0  0  0  0  0  0  0  0
  -27.3784   -9.7209   19.2619 O   0  0  0  0  0  0  0  0  0  0  0  0
  -23.6898  -24.7652   24.1608 O   0  0  0  0  0  0  0  0  0  0  0  0
  -21.6751  -27.8691   24.8692 O   0  0  0  0  0  0  0  0  0  0  0  0
  -22.5348  -29.7087   20.5799 O   0  0  0  0  0  0  0  0  0  0  0  0
  -23.1749  -17.6174   20.4135 O   0  0  0  0  0  0  0  0  0  0  0  0
  -21.5088   -7.0280   21.4574 O   0  0  0  0  0  0  0  0  0  0  0  0
  -28.5578  -26.5723   20.0937 O   0  0  0  0  0  0  0  0  0  1  0  0
  -22.1323   -4.2269   26.1658 F   0  0  0  0  0  0  0  0  0  0  0  0
  -22.1870   -4.3480   21.4342 F   0  0  0  0  0  0  0  0  0  0  0  0
  1  2  1  0  0  0  0
  1  5  2  0  0  0  0
  2  6  2  0  0  0  0
  3 12  2  0  0  0  0
  3 19  1  0  0  0  0
  4 13  1  0  0  0  0
  4 19  2  0  0  0  0
  5 21  1  0  0  0  0
  6 23  1  0  0  0  0
  7 14  2  0  0  0  0
  7 22  1  0  0  0  0
  8 10  2  0  0  0  0
  8 25  1  0  0  0  0
  9 11  1  0  0  0  0
  9 25  2  0  0  0  0
 10 26  1  0  0  0  0
 11 26  2  0  0  0  0
 12 27  1  0  0  0  0
 13 27  2  0  0  0  0
 14 28  1  0  0  0  0
 15 16  2  0  0  0  0
 15 29  1  0  0  0  0
 16 30  1  0  0  0  0
 17 24  1  0  0  0  0
 17 28  2  0  0  0  0
 18 30  2  0  0  0  0
 18 31  1  0  0  0  0
 19 32  1  0  0  0  0
 20 32  1  0  0  0  0
 20 33  2  0  0  0  0
 20 34  1  0  0  0  0
 21 23  2  0  0  0  0
 21 39  1  0  0  0  0
 22 24  2  0  0  0  0
 22 40  1  0  0  0  0
 23 48  1  0  0  0  0
 24 41  1  0  0  0  0
 25 58  1  0  0  0  0
 26 59  1  0  0  0  0
 27 81  1  0  0  0  0
 28 82  1  0  0  0  0
 29 31  2  0  0  0  0
 29 81  1  0  0  0  0
 30 83  1  0  0  0  0
 31 84  1  0  0  0  0
 32 65  2  0  0  0  0
 33 66  1  0  0  0  0
 33 69  1  0  0  0  0
 34 70  1  0  0  0  0
 34 76  2  0  0  0  0
 35 49  1  0  0  0  0
 35 71  1  0  0  0  0
 35 77  2  0  0  0  0
 36 62  1  0  0  0  0
 36 67  1  0  0  0  0
 36 78  2  0  0  0  0
 37 63  1  0  0  0  0
 37 72  1  0  0  0  0
 37 79  2  0  0  0  0
 38 68  1  0  0  0  0
 38 73  1  0  0  0  0
 38 80  2  0  0  0  0
 39 42  1  0  0  0  0
 40 49  1  0  0  0  0
 41 67  1  0  0  0  0
 42 44  1  0  0  0  0
 43 45  1  0  0  0  0
 43 46  1  0  0  0  0
 44 48  1  0  0  0  0
 45 50  1  0  0  0  0
 46 68  1  0  0  0  0
 47 50  1  0  0  0  0
 47 68  1  0  0  0  0
 48 71  1  0  0  0  0
 49 67  1  0  0  0  0
 50 66  1  0  0  0  0
 51 63  1  0  0  0  0
 52 64  1  0  0  0  0
 53 64  1  0  0  0  0
 54 64  1  0  0  0  0
 55 73  1  0  0  0  0
 56 74  1  0  0  0  0
 57 75  1  0  0  0  0
 58 73  1  0  0  0  0
 59 75  1  0  0  0  0
 60 61  1  0  0  0  0
 60 75  1  0  0  0  0
 61 82  1  0  0  0  0
 62 64  1  0  0  0  0
 62 72  1  0  0  0  0
 63 74  1  0  0  0  0
 65 66  1  0  0  0  0
M  CHG  2  74   1  75   1
M  ISO  4  38 100  61 101  73 100  82 101
M  END
> <Batch ID>
0013

> <Smiles>
CNC(C)C(=O)NC(C(=O)N1Cc2cc([101O:1][101CH2:1]CN(C)Cc3ccc(C[100N:0](C)[100C:0](=O)N4CCCC(n5nc(-c6ccc(Oc7ccc(F)cc7F)cc6)c(C(N)=O)c5N)C4)cc3)ccc2CC1C(=O)NC1CCCc2ccccc21)C(C)(C)C

> <Shape>
0.231

> <Color>
0.111

> <Negative vol penalty>
0.000

$$$$

  -OEChem-04042320483D

 82 90  0     1  0  0  0  0  0999 V2000
  -17.7884  -32.9572   22.0745 C   0  0  0  0  0  0  0  0  0  0  0  0
  -19.0679  -33.0660   21.5393 C   0  0  0  0  0  0  0  0  0  0  0  0
  -23.0494  -13.0811   20.9633 C   0  0  0  0  0  0  0  0  0  0  0  0
  -23.3095  -14.7257   22.7139 C   0  0  0  0  0  0  0  0  0  0  0  0
  -17.5254  -32.0090   23.0622 C   0  0  0  0  0  0  0  0  0  0  0  0
  -20.0855  -32.2273   21.9923 C   0  0  0  0  0  0  0  0  0  0  0  0
  -25.9928  -28.8798   19.7086 C   0  0  0  0  0  0  0  0  0  0  0  0
  -30.7187  -21.5213   19.2402 C   0  0  0  0  0  0  0  0  0  0  0  0
  -22.3650  -12.2476   21.8479 C   0  0  0  0  0  0  0  0  0  0  0  0
  -22.6251  -13.8922   23.5986 C   0  0  0  0  0  0  0  0  0  0  0  0
  -27.3401  -28.7304   20.0343 C   0  0  0  0  0  0  0  0  0  0  0  0
  -31.0304  -22.8750   19.3659 C   0  0  0  0  0  0  0  0  0  0  0  0
  -19.2524  -12.0144   23.1479 C   0  0  0  0  0  0  0  0  0  0  0  0
  -18.0840  -11.4044   22.6914 C   0  0  0  0  0  0  0  0  0  0  0  0
  -26.7506  -27.0760   21.6880 C   0  0  0  0  0  0  0  0  0  0  0  0
  -28.3985  -22.0891   18.8780 C   0  0  0  0  0  0  0  0  0  0  0  0
  -19.0627   -9.2317   23.0901 C   0  0  0  0  0  0  0  0  0  0  0  0
  -23.5217  -14.3201   21.3963 C   0  0  0  0  0  0  0  0  0  0  0  0
  -23.6765  -16.1650   19.6413 C   0  0  0  0  0  0  0  0  0  0  0  0
  -18.5381  -31.1516   23.5207 C   0  0  0  0  0  0  0  0  0  0  0  0
  -25.0116  -28.1352   20.3788 C   0  0  0  0  0  0  0  0  0  0  0  0
  -19.8362  -31.2675   22.9881 C   0  0  0  0  0  0  0  0  0  0  0  0
  -25.3917  -27.2160   21.3671 C   0  0  0  0  0  0  0  0  0  0  0  0
  -29.4028  -21.1283   18.9962 C   0  0  0  0  0  0  0  0  0  0  0  0
  -22.1529  -12.6532   23.1656 C   0  0  0  0  0  0  0  0  0  0  0  0
  -27.7190  -27.8305   21.0261 C   0  0  0  0  0  0  0  0  0  0  0  0
  -20.3259  -11.2331   23.5754 C   0  0  0  0  0  0  0  0  0  0  0  0
  -30.0261  -23.8358   19.2478 C   0  0  0  0  0  0  0  0  0  0  0  0
  -17.9891  -10.0130   22.6625 C   0  0  0  0  0  0  0  0  0  0  0  0
  -28.7101  -23.4429   19.0038 C   0  0  0  0  0  0  0  0  0  0  0  0
  -20.2311   -9.8418   23.5465 C   0  0  0  0  0  0  0  0  0  0  0  0
  -24.2292  -15.1813   20.4831 C   0  0  0  0  0  0  0  0  0  0  0  0
  -24.7565  -16.6982   18.9811 C   0  0  0  0  0  0  0  0  0  0  0  0
  -22.3091  -16.5615   19.4714 C   0  0  0  0  0  0  0  0  0  0  0  0
  -22.5237  -28.8496   22.2236 C   0  0  0  0  0  0  0  0  0  0  0  0
  -21.9611  -25.6608   22.0310 C   0  0  0  0  0  0  0  0  0  0  0  0
  -23.2027  -22.5268   21.4987 C   0  0  0  0  0  0  0  0  0  0  0  0
  -29.9627  -18.6724   18.9586 C   0  0  0  0  0  0  0  0  0  0  0  0
  -18.2175  -30.1742   24.6236 C   0  0  0  0  0  0  0  0  0  0  0  0
  -23.5648  -28.2885   19.9972 C   0  0  0  0  0  0  0  0  0  0  0  0
  -24.3790  -26.3779   22.1023 C   0  0  0  0  0  0  0  0  0  0  0  0
  -19.2605  -29.0708   24.7819 C   0  0  0  0  0  0  0  0  0  0  0  0
  -29.5667  -15.1408   18.7393 C   0  0  0  0  0  0  0  0  0  0  0  0
  -20.6673  -29.6603   24.7690 C   0  0  0  0  0  0  0  0  0  0  0  0
  -28.0973  -14.9174   19.1042 C   0  0  0  0  0  0  0  0  0  0  0  0
  -30.1886  -16.2712   19.5572 C   0  0  0  0  0  0  0  0  0  0  0  0
  -27.9828  -17.3179   19.8864 C   0  0  0  0  0  0  0  0  0  0  0  0
  -20.9606  -30.3590   23.4358 C   0  0  1  0  0  0  0  0  0  0  0  0
  -22.6063  -27.8538   21.1015 C   0  0  1  0  0  0  0  0  0  0  0  0
  -27.2952  -16.2321   19.0426 C   0  0  2  0  0  0  0  0  0  0  0  0
  -22.5085  -20.1158   21.4447 C   0  0  0  0  0  0  0  0  0  0  0  0
  -21.8853  -25.6167   25.0810 C   0  0  0  0  0  0  0  0  0  0  0  0
  -22.1454  -23.1286   24.9821 C   0  0  0  0  0  0  0  0  0  0  0  0
  -20.1375  -24.2120   23.9736 C   0  0  0  0  0  0  0  0  0  0  0  0
  -23.9756  -22.2477   18.6556 C   0  0  0  0  0  0  0  0  0  0  0  0
  -31.2263  -27.0652   20.5521 C   0  0  0  0  0  0  0  0  0  0  0  0
  -29.9844  -27.9077   20.3065 C   0  0  0  0  0  0  0  0  0  1  0  0
  -30.9048  -25.5799   20.6049 C   0  0  0  0  0  0  0  0  0  0  0  0
  -22.3801  -24.4510   22.8310 C   0  0  1  0  0  0  0  0  0  0  0  0
  -22.7121  -21.3832   20.6292 C   0  0  2  0  0  0  0  0  0  0  0  0
  -21.6562  -24.3691   24.2046 C   0  0  0  0  0  0  0  0  0  0  0  0
  -25.5571  -15.0925   20.3698 N   0  0  0  0  0  0  0  0  0  0  0  0
  -25.8478  -16.0273   19.4491 N   0  0  0  0  0  0  0  0  0  0  0  0
  -22.9764  -26.5685   21.6976 N   0  0  0  0  0  0  0  0  0  0  0  0
  -29.3772  -17.4856   19.4479 N   0  0  0  0  0  0  0  0  0  0  0  0
  -24.8695  -17.6707   18.0517 N   0  0  0  0  0  0  0  0  0  0  0  0
  -21.3257  -15.9102   20.2283 N   0  0  0  0  0  0  0  0  0  0  0  0
  -29.0861  -19.7531   18.8684 N   0  0  0  0  0  0  0  0  0  0  0  0
  -21.2630  -29.3839   22.4100 N   0  0  0  0  0  0  0  0  0  0  0  0
  -22.1587  -23.2950   21.9691 N   0  0  0  0  0  0  0  0  0  0  0  0
  -23.6976  -21.0940   19.5493 N   0  3  0  0  0  0  0  0  0  0  0  0
  -21.9678  -17.4552   18.6600 O   0  0  0  0  0  0  0  0  0  0  0  0
  -23.5289  -29.1126   22.8733 O   0  0  0  0  0  0  0  0  0  0  0  0
  -20.7780  -25.7917   21.7075 O   0  0  0  0  0  0  0  0  0  0  0  0
  -24.3927  -22.7171   21.7399 O   0  0  0  0  0  0  0  0  0  0  0  0
  -31.1473  -18.7188   18.6172 O   0  0  0  0  0  0  0  0  0  0  0  0
  -21.4849  -11.8402   24.0290 O   0  0  0  0  0  0  0  0  0  0  0  0
  -29.0334  -27.6831   21.3464 O   0  0  0  0  0  0  0  0  0  1  0  0
  -30.3344  -25.1657   19.3709 O   0  0  0  0  0  0  0  0  0  0  0  0
  -16.8665   -9.4274   22.2256 F   0  0  0  0  0  0  0  0  0  0  0  0
  -27.7413  -24.3614   18.8881 F   0  0  0  0  0  0  0  0  0  0  0  0
  -21.2587   -9.0859   23.9571 F   0  0  0  0  0  0  0  0  0  0  0  0
  1  2  1  0  0  0  0
  1  5  2  0  0  0  0
  2  6  2  0  0  0  0
  3  9  2  0  0  0  0
  3 18  1  0  0  0  0
  4 10  1  0  0  0  0
  4 18  2  0  0  0  0
  5 20  1  0  0  0  0
  6 22  1  0  0  0  0
  7 11  2  0  0  0  0
  7 21  1  0  0  0  0
  8 12  2  0  0  0  0
  8 24  1  0  0  0  0
  9 25  1  0  0  0  0
 10 25  2  0  0  0  0
 11 26  1  0  0  0  0
 12 28  1  0  0  0  0
 13 14  2  0  0  0  0
 13 27  1  0  0  0  0
 14 29  1  0  0  0  0
 15 23  1  0  0  0  0
 15 26  2  0  0  0  0
 16 24  2  0  0  0  0
 16 30  1  0  0  0  0
 17 29  2  0  0  0  0
 17 31  1  0  0  0  0
 18 32  1  0  0  0  0
 19 32  1  0  0  0  0
 19 33  2  0  0  0  0
 19 34  1  0  0  0  0
 20 22  2  0  0  0  0
 20 39  1  0  0  0  0
 21 23  2  0  0  0  0
 21 40  1  0  0  0  0
 22 48  1  0  0  0  0
 23 41  1  0  0  0  0
 24 68  1  0  0  0  0
 25 77  1  0  0  0  0
 26 78  1  0  0  0  0
 27 31  2  0  0  0  0
 27 77  1  0  0  0  0
 28 30  2  0  0  0  0
 28 79  1  0  0  0  0
 29 80  1  0  0  0  0
 30 81  1  0  0  0  0
 31 82  1  0  0  0  0
 32 62  2  0  0  0  0
 33 63  1  0  0  0  0
 33 66  1  0  0  0  0
 34 67  1  0  0  0  0
 34 72  2  0  0  0  0
 35 49  1  0  0  0  0
 35 69  1  0  0  0  0
 35 73  2  0  0  0  0
 36 59  1  0  0  0  0
 36 64  1  0  0  0  0
 36 74  2  0  0  0  0
 37 60  1  0  0  0  0
 37 70  1  0  0  0  0
 37 75  2  0  0  0  0
 38 65  1  0  0  0  0
 38 68  1  0  0  0  0
 38 76  2  0  0  0  0
 39 42  1  0  0  0  0
 40 49  1  0  0  0  0
 41 64  1  0  0  0  0
 42 44  1  0  0  0  0
 43 45  1  0  0  0  0
 43 46  1  0  0  0  0
 44 48  1  0  0  0  0
 45 50  1  0  0  0  0
 46 65  1  0  0  0  0
 47 50  1  0  0  0  0
 47 65  1  0  0  0  0
 48 69  1  0  0  0  0
 49 64  1  0  0  0  0
 50 63  1  0  0  0  0
 51 60  1  0  0  0  0
 52 61  1  0  0  0  0
 53 61  1  0  0  0  0
 54 61  1  0  0  0  0
 55 71  1  0  0  0  0
 56 57  1  0  0  0  0
 56 58  1  0  0  0  0
 57 78  1  0  0  0  0
 58 79  1  0  0  0  0
 59 61  1  0  0  0  0
 59 70  1  0  0  0  0
 60 71  1  0  0  0  0
 62 63  1  0  0  0  0
M  CHG  1  71   1
M  ISO  4  38 100  57 101  68 100  78 101
M  END
> <Batch ID>
0013

> <Smiles>
CNC(C)C(=O)NC(C(=O)N1Cc2cc([101O:1][101CH2:1]CCOc3ccc([100NH:0][100C:0](=O)N4CCCC(n5nc(-c6ccc(Oc7ccc(F)cc7F)cc6)c(C(N)=O)c5N)C4)cc3F)ccc2CC1C(=O)NC1CCCc2ccccc21)C(C)(C)C

> <Shape>
0.201

> <Color>
0.083

> <Negative vol penalty>
0.000

$$$$

  -OEChem-04042320483D

 85 93  0     1  0  0  0  0  0999 V2000
  -30.2696  -23.0720   16.7968 C   0  0  0  0  0  0  0  0  0  0  0  0
  -28.9993  -23.1622   17.3568 C   0  0  0  0  0  0  0  0  0  0  0  0
  -24.4377  -15.3069   20.4039 C   0  0  0  0  0  0  0  0  0  0  0  0
  -23.8569  -14.1596   22.4492 C   0  0  0  0  0  0  0  0  0  0  0  0
  -31.3427  -23.7304   17.3959 C   0  0  0  0  0  0  0  0  0  0  0  0
  -28.8015  -23.9102   18.5170 C   0  0  0  0  0  0  0  0  0  0  0  0
  -24.6803  -26.8418   18.2594 C   0  0  0  0  0  0  0  0  0  0  0  0
  -21.1433  -21.4260   20.0074 C   0  0  0  0  0  0  0  0  0  0  0  0
  -22.4520  -21.1613   19.6040 C   0  0  0  0  0  0  0  0  0  0  0  0
  -25.2945  -14.2612   20.0605 C   0  0  0  0  0  0  0  0  0  0  0  0
  -24.7137  -13.1138   22.1058 C   0  0  0  0  0  0  0  0  0  0  0  0
  -23.4461  -26.2238   18.4560 C   0  0  0  0  0  0  0  0  0  0  0  0
  -27.9082  -12.0597   18.8175 C   0  0  0  0  0  0  0  0  0  0  0  0
  -29.1728  -12.3889   18.3295 C   0  0  0  0  0  0  0  0  0  0  0  0
  -23.4172  -27.0197   20.7331 C   0  0  0  0  0  0  0  0  0  0  0  0
  -21.9787  -22.6080   21.9419 C   0  0  0  0  0  0  0  0  0  0  0  0
  -29.6685  -13.5432   20.3932 C   0  0  0  0  0  0  0  0  0  0  0  0
  -23.7189  -15.2561   21.5983 C   0  0  0  0  0  0  0  0  0  0  0  0
  -21.4685  -16.4570   21.6339 C   0  0  0  0  0  0  0  0  0  0  0  0
  -31.1561  -24.4947   18.5585 C   0  0  0  0  0  0  0  0  0  0  0  0
  -25.2984  -27.5453   19.3032 C   0  0  0  0  0  0  0  0  0  0  0  0
  -29.8734  -24.5784   19.1329 C   0  0  0  0  0  0  0  0  0  0  0  0
  -24.6581  -27.6478   20.5464 C   0  0  0  0  0  0  0  0  0  0  0  0
  -20.9066  -22.1494   21.1764 C   0  0  0  0  0  0  0  0  0  0  0  0
  -23.5241  -21.6199   20.3695 C   0  0  0  0  0  0  0  0  0  0  0  0
  -23.2874  -22.3432   21.5385 C   0  0  0  0  0  0  0  0  0  0  0  0
  -25.4325  -13.1646   20.9115 C   0  0  0  0  0  0  0  0  0  0  0  0
  -22.8157  -26.3103   19.6939 C   0  0  0  0  0  0  0  0  0  0  0  0
  -27.5238  -12.4722   20.0933 C   0  0  0  0  0  0  0  0  0  0  0  0
  -30.0529  -13.1306   19.1174 C   0  0  0  0  0  0  0  0  0  0  0  0
  -28.4039  -13.2140   20.8812 C   0  0  0  0  0  0  0  0  0  0  0  0
  -22.8341  -16.3363   21.9538 C   0  0  0  0  0  0  0  0  0  0  0  0
  -21.0882  -17.6508   22.1966 C   0  0  0  0  0  0  0  0  0  0  0  0
  -20.6196  -15.5692   20.8943 C   0  0  0  0  0  0  0  0  0  0  0  0
  -28.0238  -27.2382   20.9099 C   0  0  0  0  0  0  0  0  0  0  0  0
  -27.1054  -30.0518   22.2374 C   0  0  0  0  0  0  0  0  0  0  0  0
  -24.5659  -32.1907   23.0266 C   0  0  0  0  0  0  0  0  0  0  0  0
  -24.5753  -22.4560   23.6879 C   0  0  0  0  0  0  0  0  0  0  0  0
  -32.3553  -25.1500   19.1967 C   0  0  0  0  0  0  0  0  0  0  0  0
  -26.6173  -28.2288   19.0670 C   0  0  0  0  0  0  0  0  0  0  0  0
  -25.2701  -28.4084   21.6933 C   0  0  0  0  0  0  0  0  0  0  0  0
  -31.9909  -26.2285   20.2137 C   0  0  0  0  0  0  0  0  0  0  0  0
  -22.1363  -20.6280   25.7862 C   0  0  0  0  0  0  0  0  0  0  0  0
  -30.8959  -25.7299   21.1514 C   0  0  0  0  0  0  0  0  0  0  0  0
  -21.9900  -19.2956   25.0537 C   0  0  0  0  0  0  0  0  0  0  0  0
  -23.5136  -21.2467   25.5669 C   0  0  0  0  0  0  0  0  0  0  0  0
  -23.7217  -20.0803   23.3903 C   0  0  0  0  0  0  0  0  0  0  0  0
  -29.6141  -25.4004   20.3768 C   0  0  1  0  0  0  0  0  0  0  0  0
  -27.3964  -28.4849   20.3534 C   0  0  1  0  0  0  0  0  0  0  0  0
  -22.3287  -19.4563   23.5625 C   0  0  1  0  0  0  0  0  0  0  0  0
  -24.9154  -21.3207   19.9137 C   0  0  0  0  0  0  0  0  0  0  0  0
  -24.1211  -34.3937   24.1431 C   0  0  0  0  0  0  0  0  0  0  0  0
  -27.4702  -28.7391   24.9675 C   0  0  0  0  0  0  0  0  0  0  0  0
  -26.1351  -30.6067   25.9664 C   0  0  0  0  0  0  0  0  0  0  0  0
  -28.2982  -31.0945   24.8236 C   0  0  0  0  0  0  0  0  0  0  0  0
  -25.1723  -23.9418   21.8257 C   0  0  0  0  0  0  0  0  0  0  0  0
  -23.4587  -33.3578   20.5425 C   0  0  0  0  0  0  0  0  0  0  0  0
  -18.0742  -24.1726   22.6811 C   0  0  0  0  0  0  0  0  0  0  0  0
  -19.4986  -22.4338   21.6094 C   0  0  0  0  0  0  0  0  0  0  0  0
  -19.2923  -26.0154   20.4185 C   0  0  0  0  0  0  0  0  0  0  0  0
  -18.9590  -24.5316   20.3810 C   0  0  0  0  0  0  0  0  0  0  0  0
  -20.7283  -26.3109   20.8335 C   0  0  0  0  0  0  0  0  0  1  0  0
  -26.2833  -30.4487   23.4397 C   0  0  1  0  0  0  0  0  0  0  0  0
  -24.4113  -33.6877   22.8277 C   0  0  2  0  0  0  0  0  0  0  0  0
  -27.0358  -30.2062   24.7785 C   0  0  0  0  0  0  0  0  0  0  0  0
  -23.2906  -17.3710   22.6645 N   0  0  0  0  0  0  0  0  0  0  0  0
  -22.2057  -18.1532   22.7957 N   0  0  0  0  0  0  0  0  0  0  0  0
  -26.5635  -29.0541   21.4148 N   0  0  0  0  0  0  0  0  0  0  0  0
  -23.8473  -21.3381   24.1446 N   0  0  0  0  0  0  0  0  0  0  0  0
  -19.9102  -18.3093   22.2324 N   0  0  0  0  0  0  0  0  0  0  0  0
  -21.1718  -14.3855   20.3862 N   0  0  0  0  0  0  0  0  0  0  0  0
  -28.8996  -26.6137   20.0424 N   0  0  0  0  0  0  0  0  0  0  0  0
  -25.8837  -31.8348   23.2214 N   0  0  0  0  0  0  0  0  0  0  0  0
  -24.3825  -22.8267   22.3434 N   0  0  0  0  0  0  0  0  0  0  0  0
  -23.2928  -33.9722   21.8849 N   0  3  0  0  0  0  0  0  0  0  0  0
  -19.1958  -23.9099   21.7050 N   0  3  1  0  0  0  0  0  0  0  0  0
  -19.4113  -15.8261   20.6761 O   0  0  0  0  0  0  0  0  0  0  0  0
  -27.7359  -26.8709   22.0430 O   0  0  0  0  0  0  0  0  0  0  0  0
  -28.1852  -30.6116   22.0317 O   0  0  0  0  0  0  0  0  0  0  0  0
  -23.6126  -31.4151   23.0144 O   0  0  0  0  0  0  0  0  0  0  0  0
  -25.3841  -23.0502   24.4113 O   0  0  0  0  0  0  0  0  0  0  0  0
  -26.2683  -12.1439   20.5766 O   0  0  0  0  0  0  0  0  0  0  0  0
  -21.6113  -25.7076   19.8887 O   0  0  0  0  0  0  0  0  0  1  0  0
  -31.2678  -13.4454   18.6493 F   0  0  0  0  0  0  0  0  0  0  0  0
  -28.0407  -13.6121   22.1081 F   0  0  0  0  0  0  0  0  0  0  0  0
  1  2  1  0  0  0  0
  1  5  2  0  0  0  0
  2  6  2  0  0  0  0
  3 10  2  0  0  0  0
  3 18  1  0  0  0  0
  4 11  1  0  0  0  0
  4 18  2  0  0  0  0
  5 20  1  0  0  0  0
  6 22  1  0  0  0  0
  7 12  2  0  0  0  0
  7 21  1  0  0  0  0
  8  9  2  0  0  0  0
  8 24  1  0  0  0  0
  9 25  1  0  0  0  0
 10 27  1  0  0  0  0
 11 27  2  0  0  0  0
 12 28  1  0  0  0  0
 13 14  2  0  0  0  0
 13 29  1  0  0  0  0
 14 30  1  0  0  0  0
 15 23  1  0  0  0  0
 15 28  2  0  0  0  0
 16 24  2  0  0  0  0
 16 26  1  0  0  0  0
 17 30  2  0  0  0  0
 17 31  1  0  0  0  0
 18 32  1  0  0  0  0
 19 32  1  0  0  0  0
 19 33  2  0  0  0  0
 19 34  1  0  0  0  0
 20 22  2  0  0  0  0
 20 39  1  0  0  0  0
 21 23  2  0  0  0  0
 21 40  1  0  0  0  0
 22 48  1  0  0  0  0
 23 41  1  0  0  0  0
 24 59  1  0  0  0  0
 25 26  2  0  0  0  0
 25 51  1  0  0  0  0
 26 74  1  0  0  0  0
 27 82  1  0  0  0  0
 28 83  1  0  0  0  0
 29 31  2  0  0  0  0
 29 82  1  0  0  0  0
 30 84  1  0  0  0  0
 31 85  1  0  0  0  0
 32 66  2  0  0  0  0
 33 67  1  0  0  0  0
 33 70  1  0  0  0  0
 34 71  1  0  0  0  0
 34 77  2  0  0  0  0
 35 49  1  0  0  0  0
 35 72  1  0  0  0  0
 35 78  2  0  0  0  0
 36 63  1  0  0  0  0
 36 68  1  0  0  0  0
 36 79  2  0  0  0  0
 37 64  1  0  0  0  0
 37 73  1  0  0  0  0
 37 80  2  0  0  0  0
 38 69  1  0  0  0  0
 38 74  1  0  0  0  0
 38 81  2  0  0  0  0
 39 42  1  0  0  0  0
 40 49  1  0  0  0  0
 41 68  1  0  0  0  0
 42 44  1  0  0  0  0
 43 45  1  0  0  0  0
 43 46  1  0  0  0  0
 44 48  1  0  0  0  0
 45 50  1  0  0  0  0
 46 69  1  0  0  0  0
 47 50  1  0  0  0  0
 47 69  1  0  0  0  0
 48 72  1  0  0  0  0
 49 68  1  0  0  0  0
 50 67  1  0  0  0  0
 52 64  1  0  0  0  0
 53 65  1  0  0  0  0
 54 65  1  0  0  0  0
 55 65  1  0  0  0  0
 56 74  1  0  0  0  0
 57 75  1  0  0  0  0
 58 76  1  0  0  0  0
 59 76  1  0  0  0  0
 60 61  1  0  0  0  0
 60 62  1  0  0  0  0
 61 76  1  0  0  0  0
 62 83  1  0  0  0  0
 63 65  1  0  0  0  0
 63 73  1  0  0  0  0
 64 75  1  0  0  0  0
 66 67  1  0  0  0  0
M  CHG  2  75   1  76   1
M  ISO  4  38 100  62 101  74 100  83 101
M  END
> <Batch ID>
0013

> <Smiles>
CNC(C)C(=O)NC(C(=O)N1Cc2cc([101O:1][101CH2:1]CCN(C)Cc3ccc(C)c([100N:0](C)[100C:0](=O)N4CCCC(n5nc(-c6ccc(Oc7ccc(F)cc7F)cc6)c(C(N)=O)c5N)C4)c3)ccc2CC1C(=O)NC1CCCc2ccccc21)C(C)(C)C

> <Shape>
0.234

> <Color>
0.060

> <Negative vol penalty>
0.000

$$$$

  -OEChem-04042320483D

 84 92  0     1  0  0  0  0  0999 V2000
  -28.8434  -25.8198   15.9685 C   0  0  0  0  0  0  0  0  0  0  0  0
  -27.6404  -25.8156   16.6672 C   0  0  0  0  0  0  0  0  0  0  0  0
  -24.2796  -12.3102   19.5694 C   0  0  0  0  0  0  0  0  0  0  0  0
  -25.4814  -13.2963   21.4188 C   0  0  0  0  0  0  0  0  0  0  0  0
  -29.9825  -26.3776   16.5474 C   0  0  0  0  0  0  0  0  0  0  0  0
  -27.5761  -26.3684   17.9458 C   0  0  0  0  0  0  0  0  0  0  0  0
  -23.4917  -29.2908   18.5957 C   0  0  0  0  0  0  0  0  0  0  0  0
  -22.5221  -22.6492   22.0369 C   0  0  0  0  0  0  0  0  0  0  0  0
  -21.6135  -23.6938   22.2067 C   0  0  0  0  0  0  0  0  0  0  0  0
  -24.9833  -11.1190   19.7472 C   0  0  0  0  0  0  0  0  0  0  0  0
  -26.1851  -12.1051   21.5966 C   0  0  0  0  0  0  0  0  0  0  0  0
  -22.2766  -28.6456   18.8214 C   0  0  0  0  0  0  0  0  0  0  0  0
  -26.2058   -7.7012   19.9440 C   0  0  0  0  0  0  0  0  0  0  0  0
  -25.4826   -6.5091   19.9075 C   0  0  0  0  0  0  0  0  0  0  0  0
  -22.4983  -29.0681   21.1860 C   0  0  0  0  0  0  0  0  0  0  0  0
  -21.1918  -23.7136   19.8279 C   0  0  0  0  0  0  0  0  0  0  0  0
  -24.1560   -7.2564   21.7834 C   0  0  0  0  0  0  0  0  0  0  0  0
  -24.5287  -13.3988   20.4051 C   0  0  0  0  0  0  0  0  0  0  0  0
  -22.5819  -14.9941   20.8208 C   0  0  0  0  0  0  0  0  0  0  0  0
  -29.9299  -26.9461   17.8298 C   0  0  0  0  0  0  0  0  0  0  0  0
  -24.2258  -29.8208   19.6665 C   0  0  0  0  0  0  0  0  0  0  0  0
  -28.7159  -26.9332   18.5429 C   0  0  0  0  0  0  0  0  0  0  0  0
  -23.7213  -29.7218   20.9710 C   0  0  0  0  0  0  0  0  0  0  0  0
  -22.7656  -22.1368   20.7626 C   0  0  0  0  0  0  0  0  0  0  0  0
  -20.9483  -24.2260   21.1022 C   0  0  0  0  0  0  0  0  0  0  0  0
  -25.9360  -11.0165   20.7608 C   0  0  0  0  0  0  0  0  0  0  0  0
  -21.7811  -28.5316   20.1170 C   0  0  0  0  0  0  0  0  0  0  0  0
  -25.9042   -8.6709   20.9003 C   0  0  0  0  0  0  0  0  0  0  0  0
  -24.4577   -6.2866   20.8272 C   0  0  0  0  0  0  0  0  0  0  0  0
  -22.1004  -22.6690   19.6581 C   0  0  0  0  0  0  0  0  0  0  0  0
  -24.8793   -8.4485   21.8200 C   0  0  0  0  0  0  0  0  0  0  0  0
  -23.8025  -14.6297   20.2216 C   0  0  0  0  0  0  0  0  0  0  0  0
  -22.3170  -16.2476   20.3257 C   0  0  0  0  0  0  0  0  0  0  0  0
  -21.7610  -14.2648   21.7427 C   0  0  0  0  0  0  0  0  0  0  0  0
  -27.1006  -29.2698   20.9059 C   0  0  0  0  0  0  0  0  0  0  0  0
  -26.3660  -31.8329   22.7534 C   0  0  0  0  0  0  0  0  0  0  0  0
  -23.9535  -33.8107   24.1372 C   0  0  0  0  0  0  0  0  0  0  0  0
  -25.5678  -20.9700   18.8377 C   0  0  0  0  0  0  0  0  0  0  0  0
  -31.1985  -27.4949   18.4332 C   0  0  0  0  0  0  0  0  0  0  0  0
  -25.5219  -30.5373   19.4034 C   0  0  0  0  0  0  0  0  0  0  0  0
  -24.4610  -30.2917   22.1528 C   0  0  0  0  0  0  0  0  0  0  0  0
  -30.9580  -28.3963   19.6415 C   0  0  0  0  0  0  0  0  0  0  0  0
  -23.7863  -18.8393   16.3907 C   0  0  0  0  0  0  0  0  0  0  0  0
  -29.9609  -27.7512   20.5988 C   0  0  0  0  0  0  0  0  0  0  0  0
  -23.5648  -17.5464   17.1738 C   0  0  0  0  0  0  0  0  0  0  0  0
  -25.0291  -19.5852   16.8670 C   0  0  0  0  0  0  0  0  0  0  0  0
  -24.8198  -18.5704   19.1122 C   0  0  0  0  0  0  0  0  0  0  0  0
  -28.6004  -27.5454   19.9220 C   0  0  1  0  0  0  0  0  0  0  0  0
  -26.4354  -30.5874   20.6242 C   0  0  1  0  0  0  0  0  0  0  0  0
  -23.5494  -17.8181   18.6882 C   0  0  2  0  0  0  0  0  0  0  0  0
  -23.6591  -35.8060   25.6303 C   0  0  0  0  0  0  0  0  0  0  0  0
  -26.9976  -30.1027   25.1860 C   0  0  0  0  0  0  0  0  0  0  0  0
  -25.8010  -31.7831   26.6047 C   0  0  0  0  0  0  0  0  0  0  0  0
  -27.8384  -32.4535   25.3312 C   0  0  0  0  0  0  0  0  0  0  0  0
  -19.7786  -25.8134   22.6096 C   0  0  0  0  0  0  0  0  0  0  0  0
  -25.5455  -22.6986   20.5958 C   0  0  0  0  0  0  0  0  0  0  0  0
  -22.6074  -35.3556   22.0016 C   0  0  0  0  0  0  0  0  0  0  0  0
  -23.7378  -21.0199   20.5845 C   0  0  0  0  0  0  0  0  0  0  0  0
  -19.3396  -25.8582   20.1492 C   0  0  0  0  0  0  0  0  0  0  0  0
  -20.2342  -26.8584   19.4362 C   0  0  0  0  0  0  0  0  0  1  0  0
  -25.6804  -32.0305   24.0838 C   0  0  1  0  0  0  0  0  0  0  0  0
  -23.7996  -35.3198   24.1962 C   0  0  2  0  0  0  0  0  0  0  0  0
  -26.5661  -31.5799   25.2796 C   0  0  0  0  0  0  0  0  0  0  0  0
  -24.2800  -15.5752   19.4078 N   0  0  0  0  0  0  0  0  0  0  0  0
  -23.3545  -16.5460   19.4922 N   0  0  0  0  0  0  0  0  0  0  0  0
  -25.7268  -30.9775   21.8448 N   0  0  0  0  0  0  0  0  0  0  0  0
  -25.0090  -19.7919   18.3155 N   0  0  0  0  0  0  0  0  0  0  0  0
  -21.3001  -17.1125   20.5263 N   0  0  0  0  0  0  0  0  0  0  0  0
  -22.1812  -12.9906   22.1480 N   0  0  0  0  0  0  0  0  0  0  0  0
  -27.8715  -28.7943   19.8623 N   0  0  0  0  0  0  0  0  0  0  0  0
  -25.2794  -33.4324   24.1321 N   0  0  0  0  0  0  0  0  0  0  0  0
  -20.0353  -25.2751   21.2734 N   0  0  3  0  0  0  0  0  0  0  0  0
  -25.0079  -21.4733   20.0217 N   0  0  0  0  0  0  0  0  0  0  0  0
  -22.5922  -35.7475   23.4345 N   0  3  0  0  0  0  0  0  0  0  0  0
  -20.6783  -14.7224   22.1809 O   0  0  0  0  0  0  0  0  0  0  0  0
  -26.9283  -28.7256   21.9903 O   0  0  0  0  0  0  0  0  0  0  0  0
  -27.4258  -32.4216   22.5259 O   0  0  0  0  0  0  0  0  0  0  0  0
  -22.9935  -33.0441   24.1030 O   0  0  0  0  0  0  0  0  0  0  0  0
  -26.5071  -21.5446   18.2724 O   0  0  0  0  0  0  0  0  0  0  0  0
  -26.6227   -9.8543   20.9348 O   0  0  0  0  0  0  0  0  0  0  0  0
  -20.5956  -27.9018   20.3402 O   0  0  0  0  0  0  0  0  0  1  0  0
  -23.7622   -5.1425   20.7910 F   0  0  0  0  0  0  0  0  0  0  0  0
  -22.3288  -22.1841   18.4295 F   0  0  0  0  0  0  0  0  0  0  0  0
  -24.5842   -9.3769   22.7402 F   0  0  0  0  0  0  0  0  0  0  0  0
  1  2  1  0  0  0  0
  1  5  2  0  0  0  0
  2  6  2  0  0  0  0
  3 10  2  0  0  0  0
  3 18  1  0  0  0  0
  4 11  1  0  0  0  0
  4 18  2  0  0  0  0
  5 20  1  0  0  0  0
  6 22  1  0  0  0  0
  7 12  2  0  0  0  0
  7 21  1  0  0  0  0
  8  9  2  0  0  0  0
  8 24  1  0  0  0  0
  9 25  1  0  0  0  0
 10 26  1  0  0  0  0
 11 26  2  0  0  0  0
 12 27  1  0  0  0  0
 13 14  2  0  0  0  0
 13 28  1  0  0  0  0
 14 29  1  0  0  0  0
 15 23  1  0  0  0  0
 15 27  2  0  0  0  0
 16 25  2  0  0  0  0
 16 30  1  0  0  0  0
 17 29  2  0  0  0  0
 17 31  1  0  0  0  0
 18 32  1  0  0  0  0
 19 32  1  0  0  0  0
 19 33  2  0  0  0  0
 19 34  1  0  0  0  0
 20 22  2  0  0  0  0
 20 39  1  0  0  0  0
 21 23  2  0  0  0  0
 21 40  1  0  0  0  0
 22 48  1  0  0  0  0
 23 41  1  0  0  0  0
 24 30  2  0  0  0  0
 24 58  1  0  0  0  0
 25 72  1  0  0  0  0
 26 80  1  0  0  0  0
 27 81  1  0  0  0  0
 28 31  2  0  0  0  0
 28 80  1  0  0  0  0
 29 82  1  0  0  0  0
 30 83  1  0  0  0  0
 31 84  1  0  0  0  0
 32 64  2  0  0  0  0
 33 65  1  0  0  0  0
 33 68  1  0  0  0  0
 34 69  1  0  0  0  0
 34 75  2  0  0  0  0
 35 49  1  0  0  0  0
 35 70  1  0  0  0  0
 35 76  2  0  0  0  0
 36 61  1  0  0  0  0
 36 66  1  0  0  0  0
 36 77  2  0  0  0  0
 37 62  1  0  0  0  0
 37 71  1  0  0  0  0
 37 78  2  0  0  0  0
 38 67  1  0  0  0  0
 38 73  1  0  0  0  0
 38 79  2  0  0  0  0
 39 42  1  0  0  0  0
 40 49  1  0  0  0  0
 41 66  1  0  0  0  0
 42 44  1  0  0  0  0
 43 45  1  0  0  0  0
 43 46  1  0  0  0  0
 44 48  1  0  0  0  0
 45 50  1  0  0  0  0
 46 67  1  0  0  0  0
 47 50  1  0  0  0  0
 47 67  1  0  0  0  0
 48 70  1  0  0  0  0
 49 66  1  0  0  0  0
 50 65  1  0  0  0  0
 51 62  1  0  0  0  0
 52 63  1  0  0  0  0
 53 63  1  0  0  0  0
 54 63  1  0  0  0  0
 55 72  1  0  0  0  0
 56 73  1  0  0  0  0
 57 74  1  0  0  0  0
 58 73  1  0  0  0  0
 59 60  1  0  0  0  0
 59 72  1  0  0  0  0
 60 81  1  0  0  0  0
 61 63  1  0  0  0  0
 61 71  1  0  0  0  0
 62 74  1  0  0  0  0
 64 65  1  0  0  0  0
M  CHG  1  74   1
M  ISO  4  38 100  60 101  73 100  81 101
M  END
> <Batch ID>
0013

> <Smiles>
CNC(C)C(=O)NC(C(=O)N1Cc2cc([101O:1][101CH2:1]CN(C)c3ccc(C[100N:0](C)[100C:0](=O)N4CCCC(n5nc(-c6ccc(Oc7ccc(F)cc7F)cc6)c(C(N)=O)c5N)C4)c(F)c3)ccc2CC1C(=O)NC1CCCc2ccccc21)C(C)(C)C

> <Shape>
0.228

> <Color>
0.097

> <Negative vol penalty>
0.000

$$$$

  -OEChem-04042320483D

 86 94  0     1  0  0  0  0  0999 V2000
  -28.5386  -23.2316   14.6597 C   0  0  0  0  0  0  0  0  0  0  0  0
  -27.6520  -23.6835   15.6319 C   0  0  0  0  0  0  0  0  0  0  0  0
  -28.7905  -17.4175   21.9721 C   0  0  0  0  0  0  0  0  0  0  0  0
  -26.4721  -17.1857   22.6110 C   0  0  0  0  0  0  0  0  0  0  0  0
  -29.8769  -23.0148   14.9850 C   0  0  0  0  0  0  0  0  0  0  0  0
  -28.1031  -23.9179   16.9304 C   0  0  0  0  0  0  0  0  0  0  0  0
  -26.3704  -28.2802   18.8312 C   0  0  0  0  0  0  0  0  0  0  0  0
  -28.8864  -16.0345   21.8183 C   0  0  0  0  0  0  0  0  0  0  0  0
  -26.5679  -15.8027   22.4572 C   0  0  0  0  0  0  0  0  0  0  0  0
  -25.0551  -28.2957   19.2931 C   0  0  0  0  0  0  0  0  0  0  0  0
  -28.0160  -13.7181   19.5140 C   0  0  0  0  0  0  0  0  0  0  0  0
  -28.6585  -13.2357   18.3738 C   0  0  0  0  0  0  0  0  0  0  0  0
  -25.8534  -28.0542   21.5566 C   0  0  0  0  0  0  0  0  0  0  0  0
  -30.2843  -12.1136   19.7648 C   0  0  0  0  0  0  0  0  0  0  0  0
  -27.5834  -17.9931   22.3685 C   0  0  0  0  0  0  0  0  0  0  0  0
  -27.6986  -20.4041   21.5429 C   0  0  0  0  0  0  0  0  0  0  0  0
  -30.3467  -23.2559   16.2857 C   0  0  0  0  0  0  0  0  0  0  0  0
  -27.4385  -28.1405   19.7290 C   0  0  0  0  0  0  0  0  0  0  0  0
  -29.4487  -23.7029   17.2738 C   0  0  0  0  0  0  0  0  0  0  0  0
  -27.1815  -28.0399   21.1038 C   0  0  0  0  0  0  0  0  0  0  0  0
  -27.7751  -15.2271   22.0608 C   0  0  0  0  0  0  0  0  0  0  0  0
  -24.7962  -28.1797   20.6557 C   0  0  0  0  0  0  0  0  0  0  0  0
  -28.5077  -13.3984   20.7796 C   0  0  0  0  0  0  0  0  0  0  0  0
  -29.7926  -12.4334   18.4992 C   0  0  0  0  0  0  0  0  0  0  0  0
  -29.6418  -12.5961   20.9050 C   0  0  0  0  0  0  0  0  0  0  0  0
  -27.4839  -19.4217   22.5281 C   0  0  0  0  0  0  0  0  0  0  0  0
  -27.4819  -21.5948   22.1925 C   0  0  0  0  0  0  0  0  0  0  0  0
  -28.0614  -20.2539   20.1640 C   0  0  0  0  0  0  0  0  0  0  0  0
  -29.7381  -25.9892   20.1620 C   0  0  0  0  0  0  0  0  0  0  0  0
  -24.2586  -22.9746   27.0729 C   0  0  0  0  0  0  0  0  0  0  0  0
  -30.7948  -28.1336   22.3545 C   0  0  0  0  0  0  0  0  0  0  0  0
  -21.7516  -23.0040   26.7077 C   0  0  0  0  0  0  0  0  0  0  0  0
  -30.0698  -30.7164   24.4641 C   0  0  0  0  0  0  0  0  0  0  0  0
  -31.7918  -22.9619   16.6017 C   0  0  0  0  0  0  0  0  0  0  0  0
  -28.8528  -28.1525   19.2173 C   0  0  0  0  0  0  0  0  0  0  0  0
  -28.2937  -27.9081   22.1109 C   0  0  0  0  0  0  0  0  0  0  0  0
  -32.2703  -23.5922   17.9071 C   0  0  0  0  0  0  0  0  0  0  0  0
  -27.7402  -23.6124   26.5145 C   0  0  0  0  0  0  0  0  0  0  0  0
  -31.2566  -23.3484   19.0206 C   0  0  0  0  0  0  0  0  0  0  0  0
  -28.0953  -22.6786   25.3582 C   0  0  0  0  0  0  0  0  0  0  0  0
  -21.4926  -23.3342   22.0031 C   0  0  0  0  0  0  0  0  0  0  0  0
  -26.7037  -22.9846   27.4412 C   0  0  0  0  0  0  0  0  0  0  0  0
  -20.9911  -24.7305   21.6265 C   0  0  0  0  0  0  0  0  0  0  0  0
  -25.8094  -21.6081   25.5900 C   0  0  0  0  0  0  0  0  0  0  0  0
  -20.9555  -25.4139   23.9577 C   0  0  0  0  0  0  0  0  0  0  0  0
  -29.9053  -23.9922   18.6872 C   0  0  1  0  0  0  0  0  0  0  0  0
  -29.8395  -27.4883   20.1726 C   0  0  1  0  0  0  0  0  0  0  0  0
  -21.0705  -22.9176   23.4208 C   0  0  1  0  0  0  0  0  0  0  0  0
  -26.8308  -22.2164   24.6127 C   0  0  2  0  0  0  0  0  0  0  0  0
  -21.4632  -24.0356   24.4070 C   0  0  2  0  0  0  0  0  0  0  0  0
  -19.5809  -22.5542   23.4654 C   0  0  0  0  0  0  0  0  0  0  0  0
  -31.1320  -32.2363   26.1550 C   0  0  0  0  0  0  0  0  0  0  0  0
  -30.8004  -25.8608   24.3903 C   0  0  0  0  0  0  0  0  0  0  0  0
  -30.9333  -27.5802   26.2054 C   0  0  0  0  0  0  0  0  0  0  0  0
  -32.7727  -27.3921   24.5308 C   0  0  0  0  0  0  0  0  0  0  0  0
  -19.7166  -24.2736   26.1280 C   0  0  0  0  0  0  0  0  0  0  0  0
  -29.4210  -33.1278   22.8757 C   0  0  0  0  0  0  0  0  0  0  0  0
  -23.0969  -22.4755   26.2510 C   0  0  0  0  0  0  0  0  0  0  0  0
  -20.9866  -27.0687   22.2049 C   0  0  0  0  0  0  0  0  0  0  0  0
  -23.3209  -28.0707   22.5177 C   0  0  0  0  0  0  0  0  0  1  0  0
  -30.5494  -28.3677   23.8256 C   0  0  1  0  0  0  0  0  0  0  0  0
  -30.7539  -32.0520   24.6936 C   0  0  2  0  0  0  0  0  0  0  0  0
  -21.8345  -28.1595   22.8618 C   0  0  1  0  0  0  0  0  0  0  0  0
  -31.2427  -27.3007   24.7191 C   0  0  0  0  0  0  0  0  0  0  0  0
  -27.1561  -19.9430   23.7133 N   0  0  0  0  0  0  0  0  0  0  0  0
  -27.1633  -21.2659   23.4772 N   0  0  0  0  0  0  0  0  0  0  0  0
  -29.6593  -27.9186   21.5607 N   0  0  0  0  0  0  0  0  0  0  0  0
  -25.5278  -22.5384   26.6920 N   0  0  0  0  0  0  0  0  0  0  0  0
  -21.4321  -25.7337   22.6037 N   0  0  2  0  0  0  0  0  0  0  0  0
  -27.5348  -22.8805   21.7843 N   0  0  0  0  0  0  0  0  0  0  0  0
  -27.0386  -20.1352   19.2131 N   0  0  0  0  0  0  0  0  0  0  0  0
  -29.9539  -25.4195   18.9217 N   0  0  0  0  0  0  0  0  0  0  0  0
  -30.9694  -29.7383   24.0965 N   0  0  0  0  0  0  0  0  0  0  0  0
  -21.0304  -23.7458   25.7533 N   0  0  0  0  0  0  0  0  0  0  0  0
  -21.3282  -29.4810   22.3764 N   0  3  0  0  0  0  0  0  0  0  0  0
  -29.8527  -33.1706   24.2966 N   0  3  0  0  0  0  0  0  0  0  0  0
  -29.2573  -20.2092   19.7881 O   0  0  0  0  0  0  0  0  0  0  0  0
  -29.4843  -25.3934   21.2023 O   0  0  0  0  0  0  0  0  0  0  0  0
  -24.0428  -23.7317   28.0228 O   0  0  0  0  0  0  0  0  0  0  0  0
  -31.9508  -28.1484   21.9244 O   0  0  0  0  0  0  0  0  0  0  0  0
  -21.3519  -22.7741   27.8524 O   0  0  0  0  0  0  0  0  0  0  0  0
  -28.8590  -30.5560   24.6012 O   0  0  0  0  0  0  0  0  0  0  0  0
  -27.8682  -13.8775   21.9106 O   0  0  0  0  0  0  0  0  0  0  0  0
  -23.5133  -28.1939   21.1091 O   0  0  0  0  0  0  0  0  0  1  0  0
  -30.4086  -11.9689   17.4042 F   0  0  0  0  0  0  0  0  0  0  0  0
  -30.1182  -12.2846   22.1182 F   0  0  0  0  0  0  0  0  0  0  0  0
  1  2  1  0  0  0  0
  1  5  2  0  0  0  0
  2  6  2  0  0  0  0
  3  8  2  0  0  0  0
  3 15  1  0  0  0  0
  4  9  1  0  0  0  0
  4 15  2  0  0  0  0
  5 17  1  0  0  0  0
  6 19  1  0  0  0  0
  7 10  2  0  0  0  0
  7 18  1  0  0  0  0
  8 21  1  0  0  0  0
  9 21  2  0  0  0  0
 10 22  1  0  0  0  0
 11 12  2  0  0  0  0
 11 23  1  0  0  0  0
 12 24  1  0  0  0  0
 13 20  1  0  0  0  0
 13 22  2  0  0  0  0
 14 24  2  0  0  0  0
 14 25  1  0  0  0  0
 15 26  1  0  0  0  0
 16 26  1  0  0  0  0
 16 27  2  0  0  0  0
 16 28  1  0  0  0  0
 17 19  2  0  0  0  0
 17 34  1  0  0  0  0
 18 20  2  0  0  0  0
 18 35  1  0  0  0  0
 19 46  1  0  0  0  0
 20 36  1  0  0  0  0
 21 83  1  0  0  0  0
 22 84  1  0  0  0  0
 23 25  2  0  0  0  0
 23 83  1  0  0  0  0
 24 85  1  0  0  0  0
 25 86  1  0  0  0  0
 26 65  2  0  0  0  0
 27 66  1  0  0  0  0
 27 70  1  0  0  0  0
 28 71  1  0  0  0  0
 28 77  2  0  0  0  0
 29 47  1  0  0  0  0
 29 72  1  0  0  0  0
 29 78  2  0  0  0  0
 30 58  1  0  0  0  0
 30 68  1  0  0  0  0
 30 79  2  0  0  0  0
 31 61  1  0  0  0  0
 31 67  1  0  0  0  0
 31 80  2  0  0  0  0
 32 58  1  0  0  0  0
 32 74  1  0  0  0  0
 32 81  2  0  0  0  0
 33 62  1  0  0  0  0
 33 73  1  0  0  0  0
 33 82  2  0  0  0  0
 34 37  1  0  0  0  0
 35 47  1  0  0  0  0
 36 67  1  0  0  0  0
 37 39  1  0  0  0  0
 38 40  1  0  0  0  0
 38 42  1  0  0  0  0
 39 46  1  0  0  0  0
 40 49  1  0  0  0  0
 41 43  1  0  0  0  0
 41 48  1  0  0  0  0
 42 68  1  0  0  0  0
 43 69  1  0  0  0  0
 44 49  1  0  0  0  0
 44 68  1  0  0  0  0
 45 50  1  0  0  0  0
 45 69  1  0  0  0  0
 46 72  1  0  0  0  0
 47 67  1  0  0  0  0
 48 50  1  0  0  0  0
 48 51  1  0  0  0  0
 49 66  1  0  0  0  0
 50 74  1  0  0  0  0
 52 62  1  0  0  0  0
 53 64  1  0  0  0  0
 54 64  1  0  0  0  0
 55 64  1  0  0  0  0
 56 74  1  0  0  0  0
 57 76  1  0  0  0  0
 59 63  1  0  0  0  0
 59 69  1  0  0  0  0
 60 63  1  0  0  0  0
 60 84  1  0  0  0  0
 61 64  1  0  0  0  0
 61 73  1  0  0  0  0
 62 76  1  0  0  0  0
 63 75  1  0  0  0  0
 65 66  1  0  0  0  0
M  CHG  2  75   1  76   1
M  ISO  4  30 100  58 100  60 101  84 101
M  END
> <Batch ID>
0013

> <Smiles>
CNC(C)C(=O)NC(C(=O)N1Cc2cc([101O:1][101CH2:1]C(N)CN3CCC(C)C(N(C)C(=O)[100CH2:0][100C:0](=O)N4CCCC(n5nc(-c6ccc(Oc7ccc(F)cc7F)cc6)c(C(N)=O)c5N)C4)C3)ccc2CC1C(=O)NC1CCCc2ccccc21)C(C)(C)C

> <Shape>
0.194

> <Color>
0.072

> <Negative vol penalty>
0.000

$$$$

  -OEChem-04042320483D

 84 93  0     1  0  0  0  0  0999 V2000
  -29.4242  -30.8762   26.6109 C   0  0  0  0  0  0  0  0  0  0  0  0
  -29.2174  -30.0156   25.5376 C   0  0  0  0  0  0  0  0  0  0  0  0
  -24.2614   -8.8462   21.3916 C   0  0  0  0  0  0  0  0  0  0  0  0
  -23.9260  -10.6866   22.9206 C   0  0  0  0  0  0  0  0  0  0  0  0
  -28.3378  -31.3337   27.3555 C   0  0  0  0  0  0  0  0  0  0  0  0
  -27.9241  -29.6110   25.2089 C   0  0  0  0  0  0  0  0  0  0  0  0
  -27.0319  -29.8140   20.2282 C   0  0  0  0  0  0  0  0  0  0  0  0
  -29.5965  -20.1598   19.0045 C   0  0  0  0  0  0  0  0  0  0  0  0
  -29.6508  -18.7665   19.0405 C   0  0  0  0  0  0  0  0  0  0  0  0
  -23.7320   -7.9658   22.3350 C   0  0  0  0  0  0  0  0  0  0  0  0
  -23.3966   -9.8062   23.8641 C   0  0  0  0  0  0  0  0  0  0  0  0
  -27.5462  -28.7803   19.4466 C   0  0  0  0  0  0  0  0  0  0  0  0
  -20.6734   -7.0629   23.4588 C   0  0  0  0  0  0  0  0  0  0  0  0
  -19.7482   -6.1177   23.0160 C   0  0  0  0  0  0  0  0  0  0  0  0
  -25.3748  -27.7298   19.4181 C   0  0  0  0  0  0  0  0  0  0  0  0
  -27.2532  -20.0537   18.4263 C   0  0  0  0  0  0  0  0  0  0  0  0
  -21.2069   -4.3413   23.7601 C   0  0  0  0  0  0  0  0  0  0  0  0
  -24.3585  -10.2066   21.6843 C   0  0  0  0  0  0  0  0  0  0  0  0
  -24.2026  -11.8176   19.7125 C   0  0  0  0  0  0  0  0  0  0  0  0
  -27.0296  -30.9422   27.0297 C   0  0  0  0  0  0  0  0  0  0  0  0
  -25.6856  -29.8077   20.6204 C   0  0  0  0  0  0  0  0  0  0  0  0
  -26.8193  -30.0626   25.9506 C   0  0  0  0  0  0  0  0  0  0  0  0
  -24.8453  -28.7658   20.2025 C   0  0  0  0  0  0  0  0  0  0  0  0
  -28.3977  -20.8035   18.6975 C   0  0  0  0  0  0  0  0  0  0  0  0
  -28.5062  -18.0168   18.7693 C   0  0  0  0  0  0  0  0  0  0  0  0
  -23.2995   -8.4458   23.5713 C   0  0  0  0  0  0  0  0  0  0  0  0
  -26.7183  -27.7365   19.0438 C   0  0  0  0  0  0  0  0  0  0  0  0
  -21.8655   -6.6474   24.0522 C   0  0  0  0  0  0  0  0  0  0  0  0
  -20.0149   -4.7569   23.1666 C   0  0  0  0  0  0  0  0  0  0  0  0
  -27.3074  -18.6604   18.4622 C   0  0  0  0  0  0  0  0  0  0  0  0
  -22.1322   -5.2865   24.2029 C   0  0  0  0  0  0  0  0  0  0  0  0
  -24.9058  -11.1165   20.7103 C   0  0  0  0  0  0  0  0  0  0  0  0
  -25.1681  -12.5405   19.0555 C   0  0  0  0  0  0  0  0  0  0  0  0
  -22.8018  -11.8157   19.4069 C   0  0  0  0  0  0  0  0  0  0  0  0
  -24.1618  -29.7066   23.4081 C   0  0  0  0  0  0  0  0  0  0  0  0
  -21.5401  -30.1417   21.5482 C   0  0  0  0  0  0  0  0  0  0  0  0
  -20.0832  -29.8352   18.4773 C   0  0  0  0  0  0  0  0  0  0  0  0
  -29.6756  -15.8091   19.0936 C   0  0  0  0  0  0  0  0  0  0  0  0
  -25.8911  -31.4252   27.8930 C   0  0  0  0  0  0  0  0  0  0  0  0
  -25.1399  -30.9438   21.4412 C   0  0  0  0  0  0  0  0  0  0  0  0
  -23.3879  -28.7227   20.5798 C   0  0  0  0  0  0  0  0  0  0  0  0
  -24.5192  -31.2468   27.2476 C   0  0  0  0  0  0  0  0  0  0  0  0
  -30.2170  -12.2975   19.3219 C   0  0  0  0  0  0  0  0  0  0  0  0
  -24.3880  -29.8495   26.6501 C   0  0  0  0  0  0  0  0  0  0  0  0
  -28.8257  -11.7348   19.6214 C   0  0  0  0  0  0  0  0  0  0  0  0
  -28.8685  -24.4415   19.0615 C   0  0  0  0  0  0  0  0  0  0  0  0
  -30.4494  -13.6367   20.0192 C   0  0  0  0  0  0  0  0  0  0  0  0
  -29.4861  -23.0508   18.9317 C   0  0  0  0  0  0  0  0  0  0  0  0
  -27.1367  -22.9465   18.3600 C   0  0  0  0  0  0  0  0  0  0  0  0
  -28.0286  -14.0910   20.0687 C   0  0  0  0  0  0  0  0  0  0  0  0
  -25.4291  -29.6209   25.5477 C   0  0  1  0  0  0  0  0  0  0  0  0
  -23.8775  -30.5712   22.2126 C   0  0  1  0  0  0  0  0  0  0  0  0
  -27.6553  -24.3718   18.1386 C   0  0  1  0  0  0  0  0  0  0  0  0
  -27.7240  -12.7743   19.3359 C   0  0  2  0  0  0  0  0  0  0  0  0
  -17.9184  -30.2410   17.2746 C   0  0  0  0  0  0  0  0  0  0  0  0
  -20.3410  -27.6710   22.8779 C   0  0  0  0  0  0  0  0  0  0  0  0
  -18.6634  -27.5721   21.0221 C   0  0  0  0  0  0  0  0  0  0  0  0
  -18.7326  -29.5550   22.5341 C   0  0  0  0  0  0  0  0  0  0  0  0
  -21.3507  -31.7363   16.5962 C   0  0  0  0  0  0  0  0  0  0  0  0
  -26.6171  -25.4405   18.4325 C   0  0  0  0  0  0  0  0  0  1  0  0
  -20.5737  -29.2291   20.8323 C   0  0  1  0  0  0  0  0  0  0  0  0
  -19.2782  -30.8144   17.6420 C   0  0  2  0  0  0  0  0  0  0  0  0
  -19.6056  -28.5063   21.8109 C   0  0  0  0  0  0  0  0  0  0  0  0
  -26.2169  -11.3709   20.6925 N   0  0  0  0  0  0  0  0  0  0  0  0
  -26.3452  -12.2399   19.6754 N   0  0  0  0  0  0  0  0  0  0  0  0
  -28.3441  -22.1807   18.6625 N   0  0  3  0  0  0  0  0  0  0  0  0
  -22.9029  -29.8533   21.3886 N   0  0  0  0  0  0  0  0  0  0  0  0
  -29.3690  -14.5722   19.6992 N   0  0  0  0  0  0  0  0  0  0  0  0
  -25.1166  -13.3976   18.0138 N   0  0  0  0  0  0  0  0  0  0  0  0
  -21.9501  -11.0161   20.1812 N   0  0  0  0  0  0  0  0  0  0  0  0
  -28.5647  -16.6015   18.8062 N   0  0  0  0  0  0  0  0  0  0  0  0
  -25.0229  -30.2794   24.3246 N   0  0  0  0  0  0  0  0  0  0  0  0
  -19.9056  -30.0494   19.8278 N   0  0  0  0  0  0  0  0  0  0  0  0
  -20.0058  -31.1420   16.3834 N   0  3  0  0  0  0  0  0  0  0  0  0
  -22.3219  -12.4900   18.4642 O   0  0  0  0  0  0  0  0  0  0  0  0
  -23.6376  -28.6023   23.4936 O   0  0  0  0  0  0  0  0  0  0  0  0
  -21.1021  -31.0802   22.2182 O   0  0  0  0  0  0  0  0  0  0  0  0
  -20.7953  -28.9649   17.9813 O   0  0  0  0  0  0  0  0  0  0  0  0
  -30.8359  -16.1294   18.8232 O   0  0  0  0  0  0  0  0  0  0  0  0
  -22.7827   -7.5870   24.4921 O   0  0  0  0  0  0  0  0  0  0  0  0
  -27.2178  -26.7260   18.2814 O   0  0  0  0  0  0  0  0  0  1  0  0
  -19.1257   -3.8494   22.7427 F   0  0  0  0  0  0  0  0  0  0  0  0
  -26.2014  -17.9497   18.1994 F   0  0  0  0  0  0  0  0  0  0  0  0
  -23.2750   -4.8812   24.7733 F   0  0  0  0  0  0  0  0  0  0  0  0
  1  2  1  0  0  0  0
  1  5  2  0  0  0  0
  2  6  2  0  0  0  0
  3 10  2  0  0  0  0
  3 18  1  0  0  0  0
  4 11  1  0  0  0  0
  4 18  2  0  0  0  0
  5 20  1  0  0  0  0
  6 22  1  0  0  0  0
  7 12  2  0  0  0  0
  7 21  1  0  0  0  0
  8  9  2  0  0  0  0
  8 24  1  0  0  0  0
  9 25  1  0  0  0  0
 10 26  1  0  0  0  0
 11 26  2  0  0  0  0
 12 27  1  0  0  0  0
 13 14  2  0  0  0  0
 13 28  1  0  0  0  0
 14 29  1  0  0  0  0
 15 23  1  0  0  0  0
 15 27  2  0  0  0  0
 16 24  2  0  0  0  0
 16 30  1  0  0  0  0
 17 29  2  0  0  0  0
 17 31  1  0  0  0  0
 18 32  1  0  0  0  0
 19 32  1  0  0  0  0
 19 33  2  0  0  0  0
 19 34  1  0  0  0  0
 20 22  2  0  0  0  0
 20 39  1  0  0  0  0
 21 23  2  0  0  0  0
 21 40  1  0  0  0  0
 22 51  1  0  0  0  0
 23 41  1  0  0  0  0
 24 66  1  0  0  0  0
 25 30  2  0  0  0  0
 25 71  1  0  0  0  0
 26 80  1  0  0  0  0
 27 81  1  0  0  0  0
 28 31  2  0  0  0  0
 28 80  1  0  0  0  0
 29 82  1  0  0  0  0
 30 83  1  0  0  0  0
 31 84  1  0  0  0  0
 32 64  2  0  0  0  0
 33 65  1  0  0  0  0
 33 69  1  0  0  0  0
 34 70  1  0  0  0  0
 34 75  2  0  0  0  0
 35 52  1  0  0  0  0
 35 72  1  0  0  0  0
 35 76  2  0  0  0  0
 36 61  1  0  0  0  0
 36 67  1  0  0  0  0
 36 77  2  0  0  0  0
 37 62  1  0  0  0  0
 37 73  1  0  0  0  0
 37 78  2  0  0  0  0
 38 68  1  0  0  0  0
 38 71  1  0  0  0  0
 38 79  2  0  0  0  0
 39 42  1  0  0  0  0
 40 52  1  0  0  0  0
 41 67  1  0  0  0  0
 42 44  1  0  0  0  0
 43 45  1  0  0  0  0
 43 47  1  0  0  0  0
 44 51  1  0  0  0  0
 45 54  1  0  0  0  0
 46 48  1  0  0  0  0
 46 53  1  0  0  0  0
 47 68  1  0  0  0  0
 48 66  1  0  0  0  0
 49 53  1  0  0  0  0
 49 66  1  0  0  0  0
 50 54  1  0  0  0  0
 50 68  1  0  0  0  0
 51 72  1  0  0  0  0
 52 67  1  0  0  0  0
 53 60  1  0  0  0  0
 54 65  1  0  0  0  0
 55 62  1  0  0  0  0
 56 63  1  0  0  0  0
 57 63  1  0  0  0  0
 58 63  1  0  0  0  0
 59 74  1  0  0  0  0
 60 81  1  0  0  0  0
 61 63  1  0  0  0  0
 61 73  1  0  0  0  0
 62 74  1  0  0  0  0
 64 65  1  0  0  0  0
M  CHG  1  74   1
M  ISO  4  38 100  60 101  71 100  81 101
M  END
> <Batch ID>
0013

> <Smiles>
CNC(C)C(=O)NC(C(=O)N1Cc2cc([101O:1][101CH2:1]C3CCN(c4ccc([100NH:0][100C:0](=O)N5CCCC(n6nc(-c7ccc(Oc8ccc(F)cc8F)cc7)c(C(N)=O)c6N)C5)c(F)c4)C3)ccc2CC1C(=O)NC1CCCc2ccccc21)C(C)(C)C

> <Shape>
0.305

> <Color>
0.097

> <Negative vol penalty>
0.000

$$$$

  -OEChem-04042320483D

 81 89  0     1  0  0  0  0  0999 V2000
  -30.8568  -34.1415   21.5563 C   0  0  0  0  0  0  0  0  0  0  0  0
  -31.3039  -33.0315   22.2658 C   0  0  0  0  0  0  0  0  0  0  0  0
  -23.0693   -9.9291   19.9266 C   0  0  0  0  0  0  0  0  0  0  0  0
  -23.8387   -9.9054   22.2167 C   0  0  0  0  0  0  0  0  0  0  0  0
  -29.6337  -34.0943   20.8887 C   0  0  0  0  0  0  0  0  0  0  0  0
  -30.5275  -31.8740   22.3090 C   0  0  0  0  0  0  0  0  0  0  0  0
  -32.5427  -26.0926   22.4502 C   0  0  0  0  0  0  0  0  0  0  0  0
  -30.5722  -18.2794   24.0788 C   0  0  0  0  0  0  0  0  0  0  0  0
  -32.7440  -17.4120   23.4723 C   0  0  0  0  0  0  0  0  0  0  0  0
  -29.9709  -17.4109   23.1679 C   0  0  0  0  0  0  0  0  0  0  0  0
  -32.1427  -16.5434   22.5615 C   0  0  0  0  0  0  0  0  0  0  0  0
  -22.3135   -8.7820   20.1687 C   0  0  0  0  0  0  0  0  0  0  0  0
  -23.0829   -8.7584   22.4588 C   0  0  0  0  0  0  0  0  0  0  0  0
  -32.7188  -25.1859   23.4946 C   0  0  0  0  0  0  0  0  0  0  0  0
  -19.8485   -7.9912   23.0674 C   0  0  0  0  0  0  0  0  0  0  0  0
  -19.0960   -7.9485   24.2411 C   0  0  0  0  0  0  0  0  0  0  0  0
  -30.5560  -24.2285   23.0201 C   0  0  0  0  0  0  0  0  0  0  0  0
  -20.3185   -5.9902   24.9536 C   0  0  0  0  0  0  0  0  0  0  0  0
  -23.8320  -10.4908   20.9506 C   0  0  0  0  0  0  0  0  0  0  0  0
  -24.2018  -13.0130   20.8533 C   0  0  0  0  0  0  0  0  0  0  0  0
  -28.8464  -32.9324   20.9157 C   0  0  0  0  0  0  0  0  0  0  0  0
  -31.3653  -26.0812   21.6887 C   0  0  0  0  0  0  0  0  0  0  0  0
  -29.2921  -31.8117   21.6423 C   0  0  0  0  0  0  0  0  0  0  0  0
  -30.3685  -25.1345   21.9650 C   0  0  0  0  0  0  0  0  0  0  0  0
  -31.9587  -18.2800   24.2310 C   0  0  0  0  0  0  0  0  0  0  0  0
  -30.7562  -16.5429   22.4092 C   0  0  0  0  0  0  0  0  0  0  0  0
  -22.3203   -8.1967   21.4348 C   0  0  0  0  0  0  0  0  0  0  0  0
  -31.7242  -24.2555   23.7815 C   0  0  0  0  0  0  0  0  0  0  0  0
  -20.8359   -7.0333   22.8368 C   0  0  0  0  0  0  0  0  0  0  0  0
  -19.3310   -6.9480   25.1842 C   0  0  0  0  0  0  0  0  0  0  0  0
  -21.0709   -6.0329   23.7799 C   0  0  0  0  0  0  0  0  0  0  0  0
  -24.6134  -11.6753   20.7010 C   0  0  0  0  0  0  0  0  0  0  0  0
  -25.3008  -13.7536   20.4926 C   0  0  0  0  0  0  0  0  0  0  0  0
  -22.9389  -13.5390   21.2826 C   0  0  0  0  0  0  0  0  0  0  0  0
  -29.0210  -28.1595   21.1517 C   0  0  0  0  0  0  0  0  0  0  0  0
  -28.0368  -25.9083   19.0337 C   0  0  0  0  0  0  0  0  0  0  0  0
  -28.0451  -22.6335   18.0733 C   0  0  0  0  0  0  0  0  0  0  0  0
  -30.7791  -14.7359   20.6540 C   0  0  0  0  0  0  0  0  0  0  0  0
  -27.5094  -32.9450   20.2180 C   0  0  0  0  0  0  0  0  0  0  0  0
  -31.2021  -27.0484   20.5484 C   0  0  0  0  0  0  0  0  0  0  0  0
  -29.0947  -25.0674   21.1642 C   0  0  0  0  0  0  0  0  0  0  0  0
  -26.9216  -31.5527   20.0026 C   0  0  0  0  0  0  0  0  0  0  0  0
  -29.6277  -12.3577   18.2675 C   0  0  0  0  0  0  0  0  0  0  0  0
  -27.0260  -30.7257   21.2801 C   0  0  0  0  0  0  0  0  0  0  0  0
  -28.1867  -12.0782   18.7004 C   0  0  0  0  0  0  0  0  0  0  0  0
  -30.5503  -12.5646   19.4674 C   0  0  0  0  0  0  0  0  0  0  0  0
  -28.6574  -13.2971   20.8636 C   0  0  0  0  0  0  0  0  0  0  0  0
  -28.4899  -30.5295   21.6922 C   0  0  1  0  0  0  0  0  0  0  0  0
  -29.7435  -27.2831   20.1680 C   0  0  1  0  0  0  0  0  0  0  0  0
  -27.6778  -13.1462   19.6884 C   0  0  2  0  0  0  0  0  0  0  0  0
  -27.1196  -21.0915   16.3231 C   0  0  0  0  0  0  0  0  0  0  0  0
  -25.3163  -25.9791   20.4135 C   0  0  0  0  0  0  0  0  0  0  0  0
  -24.7660  -23.8125   19.2860 C   0  0  0  0  0  0  0  0  0  0  0  0
  -25.2172  -25.8490   17.9179 C   0  0  0  0  0  0  0  0  0  0  0  0
  -30.7505  -21.8957   17.1269 C   0  0  0  0  0  0  0  0  0  0  0  0
  -32.6054  -19.2143   25.2107 C   0  0  0  0  0  0  0  0  0  0  0  0
  -33.2216  -21.5830   25.7091 C   0  0  0  0  0  0  0  0  0  0  0  0
  -33.2304  -22.9709   25.0995 C   0  0  0  0  0  0  0  0  0  1  0  0
  -27.1342  -24.7001   19.0999 C   0  0  1  0  0  0  0  0  0  0  0  0
  -28.2868  -21.9799   16.7246 C   0  0  2  0  0  0  0  0  0  0  0  0
  -25.6315  -25.0874   19.1959 C   0  0  0  0  0  0  0  0  0  0  0  0
  -25.8753  -11.5693   20.2765 N   0  0  0  0  0  0  0  0  0  0  0  0
  -26.2662  -12.8497   20.1588 N   0  0  0  0  0  0  0  0  0  0  0  0
  -28.9793  -26.0384   20.0635 N   0  0  0  0  0  0  0  0  0  0  0  0
  -30.0067  -13.5931   20.3570 N   0  0  0  0  0  0  0  0  0  0  0  0
  -25.5259  -15.0832   20.4315 N   0  0  0  0  0  0  0  0  0  0  0  0
  -21.9182  -12.6380   21.6154 N   0  0  0  0  0  0  0  0  0  0  0  0
  -30.1456  -15.6602   21.4840 N   0  0  0  0  0  0  0  0  0  0  0  0
  -29.1127  -29.5102   20.8750 N   0  0  0  0  0  0  0  0  0  0  0  0
  -27.4666  -23.8782   17.9413 N   0  0  0  0  0  0  0  0  0  0  0  0
  -29.5202  -21.1446   16.7674 N   0  3  0  0  0  0  0  0  0  0  0  0
  -32.6412  -20.6238   24.7357 N   0  3  0  0  0  0  0  0  0  0  0  0
  -22.7168  -14.7716   21.3527 O   0  0  0  0  0  0  0  0  0  0  0  0
  -28.4232  -27.6480   22.0912 O   0  0  0  0  0  0  0  0  0  0  0  0
  -27.9150  -26.7036   18.0986 O   0  0  0  0  0  0  0  0  0  0  0  0
  -28.3367  -22.0924   19.1376 O   0  0  0  0  0  0  0  0  0  0  0  0
  -31.9081  -14.8964   20.1833 O   0  0  0  0  0  0  0  0  0  0  0  0
  -21.5827   -7.0775   21.6714 O   0  0  0  0  0  0  0  0  0  0  0  0
  -31.8932  -23.3698   24.8007 O   0  0  0  0  0  0  0  0  0  1  0  0
  -18.6094   -6.9081   26.3119 F   0  0  0  0  0  0  0  0  0  0  0  0
  -22.0190   -5.1106   23.5644 F   0  0  0  0  0  0  0  0  0  0  0  0
  1  2  1  0  0  0  0
  1  5  2  0  0  0  0
  2  6  2  0  0  0  0
  3 12  2  0  0  0  0
  3 19  1  0  0  0  0
  4 13  1  0  0  0  0
  4 19  2  0  0  0  0
  5 21  1  0  0  0  0
  6 23  1  0  0  0  0
  7 14  2  0  0  0  0
  7 22  1  0  0  0  0
  8 10  2  0  0  0  0
  8 25  1  0  0  0  0
  9 11  1  0  0  0  0
  9 25  2  0  0  0  0
 10 26  1  0  0  0  0
 11 26  2  0  0  0  0
 12 27  1  0  0  0  0
 13 27  2  0  0  0  0
 14 28  1  0  0  0  0
 15 16  2  0  0  0  0
 15 29  1  0  0  0  0
 16 30  1  0  0  0  0
 17 24  1  0  0  0  0
 17 28  2  0  0  0  0
 18 30  2  0  0  0  0
 18 31  1  0  0  0  0
 19 32  1  0  0  0  0
 20 32  1  0  0  0  0
 20 33  2  0  0  0  0
 20 34  1  0  0  0  0
 21 23  2  0  0  0  0
 21 39  1  0  0  0  0
 22 24  2  0  0  0  0
 22 40  1  0  0  0  0
 23 48  1  0  0  0  0
 24 41  1  0  0  0  0
 25 56  1  0  0  0  0
 26 68  1  0  0  0  0
 27 78  1  0  0  0  0
 28 79  1  0  0  0  0
 29 31  2  0  0  0  0
 29 78  1  0  0  0  0
 30 80  1  0  0  0  0
 31 81  1  0  0  0  0
 32 62  2  0  0  0  0
 33 63  1  0  0  0  0
 33 66  1  0  0  0  0
 34 67  1  0  0  0  0
 34 73  2  0  0  0  0
 35 49  1  0  0  0  0
 35 69  1  0  0  0  0
 35 74  2  0  0  0  0
 36 59  1  0  0  0  0
 36 64  1  0  0  0  0
 36 75  2  0  0  0  0
 37 60  1  0  0  0  0
 37 70  1  0  0  0  0
 37 76  2  0  0  0  0
 38 65  1  0  0  0  0
 38 68  1  0  0  0  0
 38 77  2  0  0  0  0
 39 42  1  0  0  0  0
 40 49  1  0  0  0  0
 41 64  1  0  0  0  0
 42 44  1  0  0  0  0
 43 45  1  0  0  0  0
 43 46  1  0  0  0  0
 44 48  1  0  0  0  0
 45 50  1  0  0  0  0
 46 65  1  0  0  0  0
 47 50  1  0  0  0  0
 47 65  1  0  0  0  0
 48 69  1  0  0  0  0
 49 64  1  0  0  0  0
 50 63  1  0  0  0  0
 51 60  1  0  0  0  0
 52 61  1  0  0  0  0
 53 61  1  0  0  0  0
 54 61  1  0  0  0  0
 55 71  1  0  0  0  0
 56 72  1  0  0  0  0
 57 58  1  0  0  0  0
 57 72  1  0  0  0  0
 58 79  1  0  0  0  0
 59 61  1  0  0  0  0
 59 70  1  0  0  0  0
 60 71  1  0  0  0  0
 62 63  1  0  0  0  0
M  CHG  2  71   1  72   1
M  ISO  4  38 100  58 101  68 100  79 101
M  END
> <Batch ID>
0013

> <Smiles>
CNC(C)C(=O)NC(C(=O)N1Cc2cc([101O:1][101CH2:1]CNCc3ccc([100NH:0][100C:0](=O)N4CCCC(n5nc(-c6ccc(Oc7ccc(F)cc7F)cc6)c(C(N)=O)c5N)C4)cc3)ccc2CC1C(=O)NC1CCCc2ccccc21)C(C)(C)C

> <Shape>
0.247

> <Color>
0.199

> <Negative vol penalty>
0.000

$$$$

  -OEChem-04042320483D

 83 92  0     1  0  0  0  0  0999 V2000
  -26.5894  -37.1224   25.0791 C   0  0  0  0  0  0  0  0  0  0  0  0
  -27.5370  -36.2130   24.6206 C   0  0  0  0  0  0  0  0  0  0  0  0
  -22.7971  -10.2862   20.2388 C   0  0  0  0  0  0  0  0  0  0  0  0
  -24.5634   -9.2301   21.5043 C   0  0  0  0  0  0  0  0  0  0  0  0
  -25.4234  -36.6637   25.6906 C   0  0  0  0  0  0  0  0  0  0  0  0
  -27.3197  -34.8442   24.7742 C   0  0  0  0  0  0  0  0  0  0  0  0
  -27.2062  -29.1650   19.4113 C   0  0  0  0  0  0  0  0  0  0  0  0
  -25.7538  -19.6294   19.0661 C   0  0  0  0  0  0  0  0  0  0  0  0
  -28.0683  -20.2157   19.4351 C   0  0  0  0  0  0  0  0  0  0  0  0
  -26.0604  -18.2854   19.2783 C   0  0  0  0  0  0  0  0  0  0  0  0
  -28.3749  -18.8716   19.6473 C   0  0  0  0  0  0  0  0  0  0  0  0
  -21.8498   -9.7389   21.1040 C   0  0  0  0  0  0  0  0  0  0  0  0
  -23.6162   -8.6828   22.3697 C   0  0  0  0  0  0  0  0  0  0  0  0
  -27.0052  -28.0981   18.5353 C   0  0  0  0  0  0  0  0  0  0  0  0
  -21.4503   -6.0866   22.3724 C   0  0  0  0  0  0  0  0  0  0  0  0
  -21.5905   -4.7433   22.7207 C   0  0  0  0  0  0  0  0  0  0  0  0
  -25.5498  -27.0346   20.1475 C   0  0  0  0  0  0  0  0  0  0  0  0
  -21.7805   -5.3664   25.0473 C   0  0  0  0  0  0  0  0  0  0  0  0
  -24.1539  -10.0318   20.4389 C   0  0  0  0  0  0  0  0  0  0  0  0
  -25.2365  -10.3882   18.1567 C   0  0  0  0  0  0  0  0  0  0  0  0
  -25.1871  -35.2884   25.8431 C   0  0  0  0  0  0  0  0  0  0  0  0
  -26.5668  -29.1782   20.6540 C   0  0  0  0  0  0  0  0  0  0  0  0
  -26.1500  -34.3667   25.3895 C   0  0  0  0  0  0  0  0  0  0  0  0
  -25.7375  -28.1066   21.0240 C   0  0  0  0  0  0  0  0  0  0  0  0
  -26.7578  -20.5946   19.1445 C   0  0  0  0  0  0  0  0  0  0  0  0
  -27.3709  -17.9064   19.5689 C   0  0  0  0  0  0  0  0  0  0  0  0
  -22.2594   -8.9372   22.1695 C   0  0  0  0  0  0  0  0  0  0  0  0
  -26.1793  -27.0354   18.9026 C   0  0  0  0  0  0  0  0  0  0  0  0
  -21.4754   -7.0699   23.3615 C   0  0  0  0  0  0  0  0  0  0  0  0
  -21.7555   -4.3831   24.0582 C   0  0  0  0  0  0  0  0  0  0  0  0
  -21.6404   -6.7097   24.6989 C   0  0  0  0  0  0  0  0  0  0  0  0
  -25.1329  -10.5965   19.5451 C   0  0  0  0  0  0  0  0  0  0  0  0
  -26.3211  -11.1404   17.7767 C   0  0  0  0  0  0  0  0  0  0  0  0
  -24.4249   -9.5866   17.2881 C   0  0  0  0  0  0  0  0  0  0  0  0
  -25.9702  -30.9990   23.8797 C   0  0  0  0  0  0  0  0  0  0  0  0
  -23.2787  -29.8048   23.0196 C   0  0  0  0  0  0  0  0  0  0  0  0
  -20.4324  -28.6839   21.5098 C   0  0  0  0  0  0  0  0  0  0  0  0
  -28.9309  -15.9961   20.0824 C   0  0  0  0  0  0  0  0  0  0  0  0
  -23.9337  -34.8414   26.5529 C   0  0  0  0  0  0  0  0  0  0  0  0
  -26.8028  -30.2771   21.6543 C   0  0  0  0  0  0  0  0  0  0  0  0
  -25.0976  -28.1469   22.3849 C   0  0  0  0  0  0  0  0  0  0  0  0
  -23.6067  -33.3655   26.3404 C   0  0  0  0  0  0  0  0  0  0  0  0
  -30.4687  -12.8465   19.4563 C   0  0  0  0  0  0  0  0  0  0  0  0
  -24.8537  -32.5090   26.5359 C   0  0  0  0  0  0  0  0  0  0  0  0
  -29.2843  -11.8943   19.2756 C   0  0  0  0  0  0  0  0  0  0  0  0
  -25.5203  -23.7138   17.4900 C   0  0  0  0  0  0  0  0  0  0  0  0
  -26.9107  -24.3019   19.4820 C   0  0  0  0  0  0  0  0  0  0  0  0
  -30.1907  -13.9007   20.5264 C   0  0  0  0  0  0  0  0  0  0  0  0
  -25.3497  -22.2946   18.0248 C   0  0  0  0  0  0  0  0  0  0  0  0
  -26.7376  -22.8854   20.0213 C   0  0  0  0  0  0  0  0  0  0  0  0
  -27.7620  -13.7064   20.1621 C   0  0  0  0  0  0  0  0  0  0  0  0
  -25.9389  -32.8735   25.5156 C   0  0  1  0  0  0  0  0  0  0  0  0
  -25.5547  -30.6094   22.4915 C   0  0  1  0  0  0  0  0  0  0  0  0
  -27.9698  -12.6665   19.0489 C   0  0  2  0  0  0  0  0  0  0  0  0
  -25.7309  -24.7215   18.6128 C   0  0  0  0  0  0  0  0  0  1  0  0
  -17.9491  -28.5451   21.8437 C   0  0  0  0  0  0  0  0  0  0  0  0
  -23.6773  -27.5280   25.0099 C   0  0  0  0  0  0  0  0  0  0  0  0
  -21.3128  -26.8289   24.5753 C   0  0  0  0  0  0  0  0  0  0  0  0
  -21.7878  -29.0728   25.5561 C   0  0  0  0  0  0  0  0  0  0  0  0
  -19.8998  -30.3050   19.0917 C   0  0  0  0  0  0  0  0  0  0  0  0
  -22.3184  -28.6469   23.1211 C   0  0  1  0  0  0  0  0  0  0  0  0
  -19.0946  -29.3553   21.2569 C   0  0  2  0  0  0  0  0  0  0  0  0
  -22.2927  -28.0212   24.5442 C   0  0  0  0  0  0  0  0  0  0  0  0
  -26.0764  -11.4166   20.0153 N   0  0  0  0  0  0  0  0  0  0  0  0
  -26.7833  -11.7302   18.9162 N   0  0  0  0  0  0  0  0  0  0  0  0
  -26.4504  -21.9442   18.9296 N   0  0  0  0  0  0  0  0  0  0  0  0
  -24.5992  -29.5023   22.6658 N   0  0  0  0  0  0  0  0  0  0  0  0
  -28.9323  -14.5944   20.2436 N   0  0  0  0  0  0  0  0  0  0  0  0
  -26.9150  -11.3482   16.5823 N   0  0  0  0  0  0  0  0  0  0  0  0
  -23.3503   -8.8784   17.8430 N   0  0  0  0  0  0  0  0  0  0  0  0
  -27.6823  -16.5410   19.7844 N   0  0  0  0  0  0  0  0  0  0  0  0
  -25.6342  -32.2942   24.2249 N   0  0  0  0  0  0  0  0  0  0  0  0
  -21.0260  -29.1471   22.6649 N   0  0  0  0  0  0  0  0  0  0  0  0
  -18.8604  -29.5085   19.7932 N   0  3  0  0  0  0  0  0  0  0  0  0
  -24.6561   -9.4879   16.0591 O   0  0  0  0  0  0  0  0  0  0  0  0
  -26.5518  -30.1849   24.5872 O   0  0  0  0  0  0  0  0  0  0  0  0
  -22.8731  -30.9470   23.2528 O   0  0  0  0  0  0  0  0  0  0  0  0
  -20.9020  -27.8310   20.7598 O   0  0  0  0  0  0  0  0  0  0  0  0
  -29.9663  -16.6608   20.1730 O   0  0  0  0  0  0  0  0  0  0  0  0
  -21.3353   -8.4031   23.0142 O   0  0  0  0  0  0  0  0  0  0  0  0
  -25.9839  -25.9992   18.0408 O   0  0  0  0  0  0  0  0  0  1  0  0
  -21.8885   -3.0929   24.3927 F   0  0  0  0  0  0  0  0  0  0  0  0
  -21.6641   -7.6498   25.6537 F   0  0  0  0  0  0  0  0  0  0  0  0
  1  2  1  0  0  0  0
  1  5  2  0  0  0  0
  2  6  2  0  0  0  0
  3 12  2  0  0  0  0
  3 19  1  0  0  0  0
  4 13  1  0  0  0  0
  4 19  2  0  0  0  0
  5 21  1  0  0  0  0
  6 23  1  0  0  0  0
  7 14  2  0  0  0  0
  7 22  1  0  0  0  0
  8 10  2  0  0  0  0
  8 25  1  0  0  0  0
  9 11  1  0  0  0  0
  9 25  2  0  0  0  0
 10 26  1  0  0  0  0
 11 26  2  0  0  0  0
 12 27  1  0  0  0  0
 13 27  2  0  0  0  0
 14 28  1  0  0  0  0
 15 16  2  0  0  0  0
 15 29  1  0  0  0  0
 16 30  1  0  0  0  0
 17 24  1  0  0  0  0
 17 28  2  0  0  0  0
 18 30  2  0  0  0  0
 18 31  1  0  0  0  0
 19 32  1  0  0  0  0
 20 32  1  0  0  0  0
 20 33  2  0  0  0  0
 20 34  1  0  0  0  0
 21 23  2  0  0  0  0
 21 39  1  0  0  0  0
 22 24  2  0  0  0  0
 22 40  1  0  0  0  0
 23 52  1  0  0  0  0
 24 41  1  0  0  0  0
 25 66  1  0  0  0  0
 26 71  1  0  0  0  0
 27 80  1  0  0  0  0
 28 81  1  0  0  0  0
 29 31  2  0  0  0  0
 29 80  1  0  0  0  0
 30 82  1  0  0  0  0
 31 83  1  0  0  0  0
 32 64  2  0  0  0  0
 33 65  1  0  0  0  0
 33 69  1  0  0  0  0
 34 70  1  0  0  0  0
 34 75  2  0  0  0  0
 35 53  1  0  0  0  0
 35 72  1  0  0  0  0
 35 76  2  0  0  0  0
 36 61  1  0  0  0  0
 36 67  1  0  0  0  0
 36 77  2  0  0  0  0
 37 62  1  0  0  0  0
 37 73  1  0  0  0  0
 37 78  2  0  0  0  0
 38 68  1  0  0  0  0
 38 71  1  0  0  0  0
 38 79  2  0  0  0  0
 39 42  1  0  0  0  0
 40 53  1  0  0  0  0
 41 67  1  0  0  0  0
 42 44  1  0  0  0  0
 43 45  1  0  0  0  0
 43 48  1  0  0  0  0
 44 52  1  0  0  0  0
 45 54  1  0  0  0  0
 46 49  1  0  0  0  0
 46 55  1  0  0  0  0
 47 50  1  0  0  0  0
 47 55  1  0  0  0  0
 48 68  1  0  0  0  0
 49 66  1  0  0  0  0
 50 66  1  0  0  0  0
 51 54  1  0  0  0  0
 51 68  1  0  0  0  0
 52 72  1  0  0  0  0
 53 67  1  0  0  0  0
 54 65  1  0  0  0  0
 55 81  1  0  0  0  0
 56 62  1  0  0  0  0
 57 63  1  0  0  0  0
 58 63  1  0  0  0  0
 59 63  1  0  0  0  0
 60 74  1  0  0  0  0
 61 63  1  0  0  0  0
 61 73  1  0  0  0  0
 62 74  1  0  0  0  0
 64 65  1  0  0  0  0
M  CHG  1  74   1
M  ISO  4  38 100  55 101  71 100  81 101
M  END
> <Batch ID>
0013

> <Smiles>
CNC(C)C(=O)NC(C(=O)N1Cc2cc([101O:1][101CH:1]3CCN(c4ccc([100NH:0][100C:0](=O)N5CCCC(n6nc(-c7ccc(Oc8ccc(F)cc8F)cc7)c(C(N)=O)c6N)C5)cc4)CC3)ccc2CC1C(=O)NC1CCCc2ccccc21)C(C)(C)C

> <Shape>
0.309

> <Color>
0.105

> <Negative vol penalty>
0.000

$$$$

  -OEChem-04042320483D

 83 92  0     1  0  0  0  0  0999 V2000
  -17.6027  -13.7694   21.5448 C   0  0  0  0  0  0  0  0  0  0  0  0
  -18.3971  -14.8469   21.1663 C   0  0  0  0  0  0  0  0  0  0  0  0
  -22.9475  -28.7097   22.3115 C   0  0  0  0  0  0  0  0  0  0  0  0
  -23.0848  -30.3494   20.5425 C   0  0  0  0  0  0  0  0  0  0  0  0
  -18.1481  -12.7357   22.3050 C   0  0  0  0  0  0  0  0  0  0  0  0
  -19.7373  -14.8919   21.5488 C   0  0  0  0  0  0  0  0  0  0  0  0
  -24.4082  -17.2032   18.3321 C   0  0  0  0  0  0  0  0  0  0  0  0
  -29.2034  -24.2332   20.3498 C   0  0  0  0  0  0  0  0  0  0  0  0
  -27.7560  -23.5060   22.1424 C   0  0  0  0  0  0  0  0  0  0  0  0
  -29.8979  -25.0501   21.2420 C   0  0  0  0  0  0  0  0  0  0  0  0
  -28.4506  -24.3228   23.0346 C   0  0  0  0  0  0  0  0  0  0  0  0
  -21.8094  -29.3432   22.8105 C   0  0  0  0  0  0  0  0  0  0  0  0
  -21.9467  -30.9830   21.0414 C   0  0  0  0  0  0  0  0  0  0  0  0
  -25.0667  -18.4309   18.3848 C   0  0  0  0  0  0  0  0  0  0  0  0
  -18.5124  -29.4848   22.0739 C   0  0  0  0  0  0  0  0  0  0  0  0
  -17.4306  -28.6827   22.4371 C   0  0  0  0  0  0  0  0  0  0  0  0
  -26.7605  -17.4549   19.7982 C   0  0  0  0  0  0  0  0  0  0  0  0
  -17.5737  -29.5146   24.7008 C   0  0  0  0  0  0  0  0  0  0  0  0
  -23.5852  -29.2128   21.1775 C   0  0  0  0  0  0  0  0  0  0  0  0
  -24.8098  -27.5256   19.7074 C   0  0  0  0  0  0  0  0  0  0  0  0
  -19.4981  -12.7633   22.6888 C   0  0  0  0  0  0  0  0  0  0  0  0
  -24.9158  -16.0930   19.0222 C   0  0  0  0  0  0  0  0  0  0  0  0
  -20.3010  -13.8583   22.3160 C   0  0  0  0  0  0  0  0  0  0  0  0
  -26.1079  -16.2135   19.7506 C   0  0  0  0  0  0  0  0  0  0  0  0
  -28.1324  -23.4612   20.8000 C   0  0  0  0  0  0  0  0  0  0  0  0
  -29.5216  -25.0949   22.5843 C   0  0  0  0  0  0  0  0  0  0  0  0
  -21.3090  -30.4799   22.1754 C   0  0  0  0  0  0  0  0  0  0  0  0
  -26.2415  -18.5576   19.1202 C   0  0  0  0  0  0  0  0  0  0  0  0
  -19.1249  -30.3018   23.0242 C   0  0  0  0  0  0  0  0  0  0  0  0
  -16.9612  -28.6976   23.7505 C   0  0  0  0  0  0  0  0  0  0  0  0
  -18.6555  -30.3168   24.3377 C   0  0  0  0  0  0  0  0  0  0  0  0
  -24.7612  -28.5591   20.6619 C   0  0  0  0  0  0  0  0  0  0  0  0
  -26.1486  -27.2564   19.5606 C   0  0  0  0  0  0  0  0  0  0  0  0
  -23.7403  -26.8677   19.0152 C   0  0  0  0  0  0  0  0  0  0  0  0
  -23.8534  -14.2342   21.3717 C   0  0  0  0  0  0  0  0  0  0  0  0
  -26.5419  -12.5397   20.7215 C   0  0  0  0  0  0  0  0  0  0  0  0
  -29.7028  -12.5021   19.4354 C   0  0  0  0  0  0  0  0  0  0  0  0
  -30.8662  -27.1417   23.1262 C   0  0  0  0  0  0  0  0  0  0  0  0
  -20.0309  -11.6460   23.5504 C   0  0  0  0  0  0  0  0  0  0  0  0
  -24.2079  -14.7688   18.9335 C   0  0  0  0  0  0  0  0  0  0  0  0
  -26.7053  -15.0469   20.4926 C   0  0  0  0  0  0  0  0  0  0  0  0
  -21.5555  -11.5869   23.5973 C   0  0  0  0  0  0  0  0  0  0  0  0
  -30.3453  -29.6812   20.4856 C   0  0  0  0  0  0  0  0  0  0  0  0
  -22.1367  -12.9775   23.8325 C   0  0  0  0  0  0  0  0  0  0  0  0
  -28.8396  -29.6094   20.2382 C   0  0  0  0  0  0  0  0  0  0  0  0
  -26.5684  -21.7889   17.9092 C   0  0  0  0  0  0  0  0  0  0  0  0
  -30.7030  -29.2940   21.9173 C   0  0  0  0  0  0  0  0  0  0  0  0
  -27.7613  -22.5425   18.4972 C   0  0  0  0  0  0  0  0  0  0  0  0
  -28.6743  -27.8791   22.0712 C   0  0  0  0  0  0  0  0  0  0  0  0
  -26.3136  -21.8061   20.2951 C   0  0  0  0  0  0  0  0  0  0  0  0
  -21.7654  -13.9310   22.6904 C   0  0  1  0  0  0  0  0  0  0  0  0
  -24.5379  -13.8360   20.0947 C   0  0  1  0  0  0  0  0  0  0  0  0
  -28.2919  -28.2256   20.6245 C   0  0  1  0  0  0  0  0  0  0  0  0
  -26.0856  -20.9267   19.0664 C   0  0  2  0  0  0  0  0  0  1  0  0
  -31.6668  -10.9811   19.0797 C   0  0  0  0  0  0  0  0  0  0  0  0
  -27.2491  -12.7647   23.6811 C   0  0  0  0  0  0  0  0  0  0  0  0
  -29.5909  -12.0955   23.1008 C   0  0  0  0  0  0  0  0  0  0  0  0
  -27.7028  -10.5239   22.6676 C   0  0  0  0  0  0  0  0  0  0  0  0
  -30.5507  -25.4002   24.8290 C   0  0  0  0  0  0  0  0  0  0  0  0
  -29.5701  -12.8271   16.4967 C   0  0  0  0  0  0  0  0  0  0  0  0
  -27.9702  -12.5719   21.2094 C   0  0  1  0  0  0  0  0  0  0  0  0
  -30.3893  -11.5450   18.4776 C   0  0  2  0  0  0  0  0  0  0  0  0
  -28.1162  -12.0117   22.6525 C   0  0  0  0  0  0  0  0  0  0  0  0
  -25.9729  -28.9217   21.0914 N   0  0  0  0  0  0  0  0  0  0  0  0
  -26.7954  -28.1115   20.4036 N   0  0  0  0  0  0  0  0  0  0  0  0
  -27.4443  -22.6550   19.9177 N   0  0  3  0  0  0  0  0  0  0  0  0
  -25.9727  -13.7748   20.3805 N   0  0  0  0  0  0  0  0  0  0  0  0
  -30.1246  -28.0023   22.2910 N   0  0  0  0  0  0  0  0  0  0  0  0
  -26.8240  -26.3739   18.7941 N   0  0  0  0  0  0  0  0  0  0  0  0
  -22.4243  -27.2675   19.2846 N   0  0  0  0  0  0  0  0  0  0  0  0
  -22.5973  -13.6813   21.5328 N   0  0  0  0  0  0  0  0  0  0  0  0
  -28.7593  -11.8606   20.2096 N   0  0  0  0  0  0  0  0  0  0  0  0
  -30.2400  -25.9396   23.5069 N   0  0  0  0  0  0  0  0  0  0  0  0
  -30.7366  -12.2434   17.2077 N   0  3  0  0  0  0  0  0  0  0  0  0
  -23.9447  -25.9413   18.1946 O   0  0  0  0  0  0  0  0  0  0  0  0
  -24.4234  -14.9862   22.1536 O   0  0  0  0  0  0  0  0  0  0  0  0
  -25.9554  -11.4576   20.6389 O   0  0  0  0  0  0  0  0  0  0  0  0
  -29.9788  -13.6983   19.4936 O   0  0  0  0  0  0  0  0  0  0  0  0
  -31.9876  -27.4473   23.5501 O   0  0  0  0  0  0  0  0  0  0  0  0
  -20.1983  -31.0982   22.6619 O   0  0  0  0  0  0  0  0  0  0  0  0
  -26.8860  -19.7550   19.1738 O   0  0  0  0  0  0  0  0  0  1  0  0
  -15.9214  -27.9284   24.0988 F   0  0  0  0  0  0  0  0  0  0  0  0
  -19.2391  -31.1005   25.2547 F   0  0  0  0  0  0  0  0  0  0  0  0
  1  2  1  0  0  0  0
  1  5  2  0  0  0  0
  2  6  2  0  0  0  0
  3 12  2  0  0  0  0
  3 19  1  0  0  0  0
  4 13  1  0  0  0  0
  4 19  2  0  0  0  0
  5 21  1  0  0  0  0
  6 23  1  0  0  0  0
  7 14  2  0  0  0  0
  7 22  1  0  0  0  0
  8 10  2  0  0  0  0
  8 25  1  0  0  0  0
  9 11  1  0  0  0  0
  9 25  2  0  0  0  0
 10 26  1  0  0  0  0
 11 26  2  0  0  0  0
 12 27  1  0  0  0  0
 13 27  2  0  0  0  0
 14 28  1  0  0  0  0
 15 16  2  0  0  0  0
 15 29  1  0  0  0  0
 16 30  1  0  0  0  0
 17 24  1  0  0  0  0
 17 28  2  0  0  0  0
 18 30  2  0  0  0  0
 18 31  1  0  0  0  0
 19 32  1  0  0  0  0
 20 32  1  0  0  0  0
 20 33  2  0  0  0  0
 20 34  1  0  0  0  0
 21 23  2  0  0  0  0
 21 39  1  0  0  0  0
 22 24  2  0  0  0  0
 22 40  1  0  0  0  0
 23 51  1  0  0  0  0
 24 41  1  0  0  0  0
 25 66  1  0  0  0  0
 26 73  1  0  0  0  0
 27 80  1  0  0  0  0
 28 81  1  0  0  0  0
 29 31  2  0  0  0  0
 29 80  1  0  0  0  0
 30 82  1  0  0  0  0
 31 83  1  0  0  0  0
 32 64  2  0  0  0  0
 33 65  1  0  0  0  0
 33 69  1  0  0  0  0
 34 70  1  0  0  0  0
 34 75  2  0  0  0  0
 35 52  1  0  0  0  0
 35 71  1  0  0  0  0
 35 76  2  0  0  0  0
 36 61  1  0  0  0  0
 36 67  1  0  0  0  0
 36 77  2  0  0  0  0
 37 62  1  0  0  0  0
 37 72  1  0  0  0  0
 37 78  2  0  0  0  0
 38 68  1  0  0  0  0
 38 73  1  0  0  0  0
 38 79  2  0  0  0  0
 39 42  1  0  0  0  0
 40 52  1  0  0  0  0
 41 67  1  0  0  0  0
 42 44  1  0  0  0  0
 43 45  1  0  0  0  0
 43 47  1  0  0  0  0
 44 51  1  0  0  0  0
 45 53  1  0  0  0  0
 46 48  1  0  0  0  0
 46 54  1  0  0  0  0
 47 68  1  0  0  0  0
 48 66  1  0  0  0  0
 49 53  1  0  0  0  0
 49 68  1  0  0  0  0
 50 54  1  0  0  0  0
 50 66  1  0  0  0  0
 51 71  1  0  0  0  0
 52 67  1  0  0  0  0
 53 65  1  0  0  0  0
 54 81  1  0  0  0  0
 55 62  1  0  0  0  0
 56 63  1  0  0  0  0
 57 63  1  0  0  0  0
 58 63  1  0  0  0  0
 59 73  1  0  0  0  0
 60 74  1  0  0  0  0
 61 63  1  0  0  0  0
 61 72  1  0  0  0  0
 62 74  1  0  0  0  0
 64 65  1  0  0  0  0
M  CHG  1  74   1
M  ISO  4  38 100  54 101  73 100  81 101
M  END
> <Batch ID>
0013

> <Smiles>
CNC(C)C(=O)NC(C(=O)N1Cc2cc([101O:1][101CH:1]3CCN(c4ccc([100N:0](C)[100C:0](=O)N5CCCC(n6nc(-c7ccc(Oc8ccc(F)cc8F)cc7)c(C(N)=O)c6N)C5)cc4)C3)ccc2CC1C(=O)NC1CCCc2ccccc21)C(C)(C)C

> <Shape>
0.237

> <Color>
0.060

> <Negative vol penalty>
0.000

$$$$

  -OEChem-04042320483D

 90 99  0     1  0  0  0  0  0999 V2000
  -32.8378  -28.3426   23.6851 C   0  0  0  0  0  0  0  0  0  0  0  0
  -32.2078  -27.5710   22.7141 C   0  0  0  0  0  0  0  0  0  0  0  0
  -23.8847   -9.9376   22.0811 C   0  0  0  0  0  0  0  0  0  0  0  0
  -22.2255  -10.4269   20.3945 C   0  0  0  0  0  0  0  0  0  0  0  0
  -32.1591  -28.6781   24.8559 C   0  0  0  0  0  0  0  0  0  0  0  0
  -30.8989  -27.1334   22.9137 C   0  0  0  0  0  0  0  0  0  0  0  0
  -28.0024  -27.7310   18.8030 C   0  0  0  0  0  0  0  0  0  0  0  0
  -28.3421  -22.6949   20.0795 C   0  0  0  0  0  0  0  0  0  0  0  0
  -29.3070  -20.4987   19.7914 C   0  0  0  0  0  0  0  0  0  0  0  0
  -27.8841  -22.3277   21.3448 C   0  0  0  0  0  0  0  0  0  0  0  0
  -28.8490  -20.1315   21.0568 C   0  0  0  0  0  0  0  0  0  0  0  0
  -23.4644   -8.6078   22.1088 C   0  0  0  0  0  0  0  0  0  0  0  0
  -21.8052   -9.0971   20.4222 C   0  0  0  0  0  0  0  0  0  0  0  0
  -28.1506  -26.7972   17.7784 C   0  0  0  0  0  0  0  0  0  0  0  0
  -20.9248   -6.8261   23.4506 C   0  0  0  0  0  0  0  0  0  0  0  0
  -20.7509   -6.2280   24.6986 C   0  0  0  0  0  0  0  0  0  0  0  0
  -26.1753  -25.6469   18.5492 C   0  0  0  0  0  0  0  0  0  0  0  0
  -22.4122   -4.5672   24.1342 C   0  0  0  0  0  0  0  0  0  0  0  0
  -23.2652  -10.8471   21.2240 C   0  0  0  0  0  0  0  0  0  0  0  0
  -24.6967  -12.7806   20.3755 C   0  0  0  0  0  0  0  0  0  0  0  0
  -30.8379  -28.2526   25.0657 C   0  0  0  0  0  0  0  0  0  0  0  0
  -26.9439  -27.6233   19.7165 C   0  0  0  0  0  0  0  0  0  0  0  0
  -30.2024  -27.4624   24.0890 C   0  0  0  0  0  0  0  0  0  0  0  0
  -26.0144  -26.5821   19.5829 C   0  0  0  0  0  0  0  0  0  0  0  0
  -29.0535  -21.7804   19.3028 C   0  0  0  0  0  0  0  0  0  0  0  0
  -28.1376  -21.0460   21.8335 C   0  0  0  0  0  0  0  0  0  0  0  0
  -22.4247   -8.1876   21.2793 C   0  0  0  0  0  0  0  0  0  0  0  0
  -27.2387  -25.7533   17.6531 C   0  0  0  0  0  0  0  0  0  0  0  0
  -21.8424   -6.2947   22.5443 C   0  0  0  0  0  0  0  0  0  0  0  0
  -21.4946   -5.0986   25.0405 C   0  0  0  0  0  0  0  0  0  0  0  0
  -22.5861   -5.1652   22.8861 C   0  0  0  0  0  0  0  0  0  0  0  0
  -23.6985  -12.2210   21.1954 C   0  0  0  0  0  0  0  0  0  0  0  0
  -24.7274  -14.1075   20.7290 C   0  0  0  0  0  0  0  0  0  0  0  0
  -25.5223  -12.1569   19.3830 C   0  0  0  0  0  0  0  0  0  0  0  0
  -26.7277  -27.2011   22.8595 C   0  0  0  0  0  0  0  0  0  0  0  0
  -27.3226  -19.3298   23.4465 C   0  0  0  0  0  0  0  0  0  0  0  0
  -23.5647  -27.6681   22.3121 C   0  0  0  0  0  0  0  0  0  0  0  0
  -20.9588  -27.5623   20.1109 C   0  0  0  0  0  0  0  0  0  0  0  0
  -24.6942  -18.1077   24.5690 C   0  0  0  0  0  0  0  0  0  0  0  0
  -30.1614  -28.6005   26.3680 C   0  0  0  0  0  0  0  0  0  0  0  0
  -26.7826  -28.6541   20.8000 C   0  0  0  0  0  0  0  0  0  0  0  0
  -24.8490  -26.4336   20.5255 C   0  0  0  0  0  0  0  0  0  0  0  0
  -28.6468  -28.4120   26.3370 C   0  0  0  0  0  0  0  0  0  0  0  0
  -27.6673  -17.3824   26.4769 C   0  0  0  0  0  0  0  0  0  0  0  0
  -21.5788  -16.8478   23.5621 C   0  0  0  0  0  0  0  0  0  0  0  0
  -28.2889  -27.0681   25.7104 C   0  0  0  0  0  0  0  0  0  0  0  0
  -28.2064  -18.5420   25.6488 C   0  0  0  0  0  0  0  0  0  0  0  0
  -21.9209  -15.5665   22.8051 C   0  0  0  0  0  0  0  0  0  0  0  0
  -22.4837  -17.0190   24.7754 C   0  0  0  0  0  0  0  0  0  0  0  0
  -26.6175  -16.7669   25.5667 C   0  0  0  0  0  0  0  0  0  0  0  0
  -24.3085  -15.7612   23.6696 C   0  0  0  0  0  0  0  0  0  0  0  0
  -28.7748  -26.9896   24.2580 C   0  0  1  0  0  0  0  0  0  0  0  0
  -25.9621  -28.1526   21.9843 C   0  0  1  0  0  0  0  0  0  0  0  0
  -26.9869  -19.0332   24.8738 C   0  0  2  0  0  0  0  0  0  0  0  0
  -23.4127  -15.5325   22.4348 C   0  0  1  0  0  0  0  0  0  0  0  0
  -18.4862  -27.9649   19.9647 C   0  0  0  0  0  0  0  0  0  0  0  0
  -23.0523  -25.0333   23.7630 C   0  0  0  0  0  0  0  0  0  0  0  0
  -20.7528  -25.0157   22.7729 C   0  0  0  0  0  0  0  0  0  0  0  0
  -21.4325  -26.8582   24.3110 C   0  0  0  0  0  0  0  0  0  0  0  0
  -27.6471  -21.7184   24.1741 C   0  0  0  0  0  0  0  0  0  0  0  0
  -21.3072  -29.6825   18.0757 C   0  0  0  0  0  0  0  0  0  0  0  0
  -28.0564  -20.8525   16.4511 C   0  0  0  0  0  0  0  0  0  0  0  0
  -29.5432  -22.1730   17.9499 C   0  0  0  0  0  0  0  0  0  0  0  0
  -28.8167  -23.1227   15.7656 C   0  0  0  0  0  0  0  0  0  0  0  0
  -28.7071  -24.5696   16.2045 C   0  0  0  0  0  0  0  0  0  1  0  0
  -22.3949  -26.7756   21.9746 C   0  0  1  0  0  0  0  0  0  0  0  0
  -19.8703  -28.5703   19.7895 C   0  0  2  0  0  0  0  0  0  0  0  0
  -21.9311  -25.9221   23.1886 C   0  0  0  0  0  0  0  0  0  0  0  0
  -23.1359  -13.1188   22.0086 N   0  0  0  0  0  0  0  0  0  0  0  0
  -23.7828  -14.2561   21.7015 N   0  0  0  0  0  0  0  0  0  0  0  0
  -24.7379  -27.4629   21.5722 N   0  0  0  0  0  0  0  0  0  0  0  0
  -23.8981  -16.9671   24.4022 N   0  0  0  0  0  0  0  0  0  0  0  0
  -26.0479  -17.9127   24.8578 N   0  0  0  0  0  0  0  0  0  0  0  0
  -25.4701  -15.1499   20.2998 N   0  0  0  0  0  0  0  0  0  0  0  0
  -25.3604  -10.7852   19.1453 N   0  0  0  0  0  0  0  0  0  0  0  0
  -27.8887  -27.7326   23.3878 N   0  0  0  0  0  0  0  0  0  0  0  0
  -21.3610  -27.6472   21.4271 N   0  0  0  0  0  0  0  0  0  0  0  0
  -27.6621  -20.6644   23.1481 N   0  0  0  0  0  0  0  0  0  0  0  0
  -20.0016  -29.0434   18.3824 N   0  3  0  0  0  0  0  0  0  0  0  0
  -28.4658  -22.2239   16.9232 N   0  3  1  0  0  0  0  0  0  0  0  0
  -26.3895  -12.7936   18.7380 O   0  0  0  0  0  0  0  0  0  0  0  0
  -26.2963  -26.0689   23.0432 O   0  0  0  0  0  0  0  0  0  0  0  0
  -27.3111  -18.3923   22.6448 O   0  0  0  0  0  0  0  0  0  0  0  0
  -23.4399  -28.5210   23.1945 O   0  0  0  0  0  0  0  0  0  0  0  0
  -21.4049  -26.7755   19.2788 O   0  0  0  0  0  0  0  0  0  0  0  0
  -24.2150  -19.2460   24.4856 O   0  0  0  0  0  0  0  0  0  0  0  0
  -22.0145   -6.8901   21.3059 O   0  0  0  0  0  0  0  0  0  0  0  0
  -27.3824  -24.8335   16.6472 O   0  0  0  0  0  0  0  0  0  1  0  0
  -21.3285   -4.5253   26.2396 F   0  0  0  0  0  0  0  0  0  0  0  0
  -23.4700   -4.6509   22.0201 F   0  0  0  0  0  0  0  0  0  0  0  0
  1  2  1  0  0  0  0
  1  5  2  0  0  0  0
  2  6  2  0  0  0  0
  3 12  2  0  0  0  0
  3 19  1  0  0  0  0
  4 13  1  0  0  0  0
  4 19  2  0  0  0  0
  5 21  1  0  0  0  0
  6 23  1  0  0  0  0
  7 14  2  0  0  0  0
  7 22  1  0  0  0  0
  8 10  2  0  0  0  0
  8 25  1  0  0  0  0
  9 11  1  0  0  0  0
  9 25  2  0  0  0  0
 10 26  1  0  0  0  0
 11 26  2  0  0  0  0
 12 27  1  0  0  0  0
 13 27  2  0  0  0  0
 14 28  1  0  0  0  0
 15 16  2  0  0  0  0
 15 29  1  0  0  0  0
 16 30  1  0  0  0  0
 17 24  1  0  0  0  0
 17 28  2  0  0  0  0
 18 30  2  0  0  0  0
 18 31  1  0  0  0  0
 19 32  1  0  0  0  0
 20 32  1  0  0  0  0
 20 33  2  0  0  0  0
 20 34  1  0  0  0  0
 21 23  2  0  0  0  0
 21 40  1  0  0  0  0
 22 24  2  0  0  0  0
 22 41  1  0  0  0  0
 23 52  1  0  0  0  0
 24 42  1  0  0  0  0
 25 63  1  0  0  0  0
 26 78  1  0  0  0  0
 27 87  1  0  0  0  0
 28 88  1  0  0  0  0
 29 31  2  0  0  0  0
 29 87  1  0  0  0  0
 30 89  1  0  0  0  0
 31 90  1  0  0  0  0
 32 69  2  0  0  0  0
 33 70  1  0  0  0  0
 33 74  1  0  0  0  0
 34 75  1  0  0  0  0
 34 81  2  0  0  0  0
 35 53  1  0  0  0  0
 35 76  1  0  0  0  0
 35 82  2  0  0  0  0
 36 54  1  0  0  0  0
 36 78  1  0  0  0  0
 36 83  2  0  0  0  0
 37 66  1  0  0  0  0
 37 71  1  0  0  0  0
 37 84  2  0  0  0  0
 38 67  1  0  0  0  0
 38 77  1  0  0  0  0
 38 85  2  0  0  0  0
 39 72  1  0  0  0  0
 39 73  1  0  0  0  0
 39 86  2  0  0  0  0
 40 43  1  0  0  0  0
 41 53  1  0  0  0  0
 42 71  1  0  0  0  0
 43 46  1  0  0  0  0
 44 47  1  0  0  0  0
 44 50  1  0  0  0  0
 45 48  1  0  0  0  0
 45 49  1  0  0  0  0
 46 52  1  0  0  0  0
 47 54  1  0  0  0  0
 48 55  1  0  0  0  0
 49 72  1  0  0  0  0
 50 73  1  0  0  0  0
 51 55  1  0  0  0  0
 51 72  1  0  0  0  0
 52 76  1  0  0  0  0
 53 71  1  0  0  0  0
 54 73  1  0  0  0  0
 55 70  1  0  0  0  0
 56 67  1  0  0  0  0
 57 68  1  0  0  0  0
 58 68  1  0  0  0  0
 59 68  1  0  0  0  0
 60 78  1  0  0  0  0
 61 79  1  0  0  0  0
 62 80  1  0  0  0  0
 63 80  1  0  0  0  0
 64 65  1  0  0  0  0
 64 80  1  0  0  0  0
 65 88  1  0  0  0  0
 66 68  1  0  0  0  0
 66 77  1  0  0  0  0
 67 79  1  0  0  0  0
 69 70  1  0  0  0  0
M  CHG  2  79   1  80   1
M  ISO  4  39 100  65 101  73 100  88 101
M  END
> <Batch ID>
0013

> <Smiles>
CNC(C)C(=O)NC(C(=O)N1Cc2cc([101O:1][101CH2:1]CN(C)Cc3ccc(N(C)C(=O)C4CCC[100N:0]4[100C:0](=O)N4CCCC(n5nc(-c6ccc(Oc7ccc(F)cc7F)cc6)c(C(N)=O)c5N)C4)cc3)ccc2CC1C(=O)NC1CCCc2ccccc21)C(C)(C)C

> <Shape>
0.201

> <Color>
0.115

> <Negative vol penalty>
0.000

$$$$

  -OEChem-04042320483D

 83 91  0     1  0  0  0  0  0999 V2000
  -17.7243  -25.1632   20.7672 C   0  0  0  0  0  0  0  0  0  0  0  0
  -19.0090  -25.1805   20.2337 C   0  0  0  0  0  0  0  0  0  0  0  0
  -27.6683  -13.1508   22.6473 C   0  0  0  0  0  0  0  0  0  0  0  0
  -26.8367  -13.1354   20.3790 C   0  0  0  0  0  0  0  0  0  0  0  0
  -17.3927  -26.0256   21.8113 C   0  0  0  0  0  0  0  0  0  0  0  0
  -19.9626  -26.0612   20.7432 C   0  0  0  0  0  0  0  0  0  0  0  0
  -24.4607  -23.8496   21.4645 C   0  0  0  0  0  0  0  0  0  0  0  0
  -31.5228  -21.0956   21.7182 C   0  0  0  0  0  0  0  0  0  0  0  0
  -27.1276  -11.8818   22.8541 C   0  0  0  0  0  0  0  0  0  0  0  0
  -26.2959  -11.8664   20.5858 C   0  0  0  0  0  0  0  0  0  0  0  0
  -25.2588  -23.6479   20.3393 C   0  0  0  0  0  0  0  0  0  0  0  0
  -24.3857   -8.7746   20.6279 C   0  0  0  0  0  0  0  0  0  0  0  0
  -23.0878   -8.5410   20.1737 C   0  0  0  0  0  0  0  0  0  0  0  0
  -32.0490  -21.0583   20.4270 C   0  0  0  0  0  0  0  0  0  0  0  0
  -26.5457  -25.6073   20.9083 C   0  0  0  0  0  0  0  0  0  0  0  0
  -29.4955  -22.0935   20.8631 C   0  0  0  0  0  0  0  0  0  0  0  0
  -22.2673  -10.2982   21.6146 C   0  0  0  0  0  0  0  0  0  0  0  0
  -27.5228  -13.7777   21.4097 C   0  0  0  0  0  0  0  0  0  0  0  0
  -29.3696  -15.3970   20.7207 C   0  0  0  0  0  0  0  0  0  0  0  0
  -18.3454  -26.9105   22.3404 C   0  0  0  0  0  0  0  0  0  0  0  0
  -24.6927  -24.9397   22.3155 C   0  0  0  0  0  0  0  0  0  0  0  0
  -19.6429  -26.9372   21.7945 C   0  0  0  0  0  0  0  0  0  0  0  0
  -25.7508  -25.8191   22.0451 C   0  0  0  0  0  0  0  0  0  0  0  0
  -30.2459  -21.6131   21.9363 C   0  0  0  0  0  0  0  0  0  0  0  0
  -30.0217  -22.0563   19.5719 C   0  0  0  0  0  0  0  0  0  0  0  0
  -26.4414  -11.2395   21.8234 C   0  0  0  0  0  0  0  0  0  0  0  0
  -26.2997  -24.5285   20.0594 C   0  0  0  0  0  0  0  0  0  0  0  0
  -24.6245   -9.7699   21.5755 C   0  0  0  0  0  0  0  0  0  0  0  0
  -22.0286   -9.3028   20.6670 C   0  0  0  0  0  0  0  0  0  0  0  0
  -23.5653  -10.5317   22.0689 C   0  0  0  0  0  0  0  0  0  0  0  0
  -31.2986  -21.5386   19.3538 C   0  0  0  0  0  0  0  0  0  0  0  0
  -28.0807  -15.0888   21.1956 C   0  0  0  0  0  0  0  0  0  0  0  0
  -29.4074  -16.7698   20.6967 C   0  0  0  0  0  0  0  0  0  0  0  0
  -30.4372  -14.5208   20.3357 C   0  0  0  0  0  0  0  0  0  0  0  0
  -23.0126  -27.4864   23.2075 C   0  0  0  0  0  0  0  0  0  0  0  0
  -25.5219  -27.9562   25.2088 C   0  0  0  0  0  0  0  0  0  0  0  0
  -28.8202  -27.4135   25.8966 C   0  0  0  0  0  0  0  0  0  0  0  0
  -28.3243  -21.5566   23.5473 C   0  0  0  0  0  0  0  0  0  0  0  0
  -17.9266  -27.8571   23.4374 C   0  0  0  0  0  0  0  0  0  0  0  0
  -23.8396  -25.1281   23.5399 C   0  0  0  0  0  0  0  0  0  0  0  0
  -26.0541  -26.9932   22.9384 C   0  0  0  0  0  0  0  0  0  0  0  0
  -19.1022  -28.4971   24.1713 C   0  0  0  0  0  0  0  0  0  0  0  0
  -25.7573  -20.2108   21.2469 C   0  0  0  0  0  0  0  0  0  0  0  0
  -20.1382  -29.0091   23.1756 C   0  0  0  0  0  0  0  0  0  0  0  0
  -26.1961  -18.7596   21.0604 C   0  0  0  0  0  0  0  0  0  0  0  0
  -26.1796  -20.7600   22.6061 C   0  0  0  0  0  0  0  0  0  0  0  0
  -28.0851  -19.1776   22.6848 C   0  0  0  0  0  0  0  0  0  0  0  0
  -20.7120  -27.8608   22.3369 C   0  0  1  0  0  0  0  0  0  0  0  0
  -23.8425  -26.5641   24.0550 C   0  0  1  0  0  0  0  0  0  0  0  0
  -27.7068  -18.6138   21.3070 C   0  0  1  0  0  0  0  0  0  0  0  0
  -30.9636  -27.4512   27.2012 C   0  0  0  0  0  0  0  0  0  0  0  0
  -25.7457  -30.7758   24.0642 C   0  0  0  0  0  0  0  0  0  0  0  0
  -28.0412  -30.9199   25.0532 C   0  0  0  0  0  0  0  0  0  0  0  0
  -26.0602  -30.6272   26.5408 C   0  0  0  0  0  0  0  0  0  0  0  0
  -30.5863  -22.0617   24.3598 C   0  0  0  0  0  0  0  0  0  0  0  0
  -28.3414  -21.6474   17.7916 C   0  0  0  0  0  0  0  0  0  0  0  0
  -28.1777  -24.8602   27.2484 C   0  0  0  0  0  0  0  0  0  0  0  0
  -29.2978  -23.9336   18.1187 C   0  0  0  0  0  0  0  0  0  0  0  0
  -28.4337  -24.7784   19.0398 C   0  0  0  0  0  0  0  0  0  1  0  0
  -26.8393  -28.6879   25.1181 C   0  0  1  0  0  0  0  0  0  0  0  0
  -29.5240  -26.9625   27.1638 C   0  0  2  0  0  0  0  0  0  0  0  0
  -26.6649  -30.2318   25.1760 C   0  0  0  0  0  0  0  0  0  0  0  0
  -27.3524  -16.1781   21.4547 N   0  0  0  0  0  0  0  0  0  0  0  0
  -28.1865  -17.1842   21.1416 N   0  0  0  0  0  0  0  0  0  0  0  0
  -25.1879  -27.1386   24.1199 N   0  0  0  0  0  0  0  0  0  0  0  0
  -27.6086  -20.5603   22.8522 N   0  0  0  0  0  0  0  0  0  0  0  0
  -30.3656  -17.6508   20.3386 N   0  0  0  0  0  0  0  0  0  0  0  0
  -30.2300  -13.1374   20.4218 N   0  0  0  0  0  0  0  0  0  0  0  0
  -21.6862  -27.1133   23.1028 N   0  0  0  0  0  0  0  0  0  0  0  0
  -27.6831  -28.1417   26.1755 N   0  0  0  0  0  0  0  0  0  0  0  0
  -29.7018  -21.6509   23.2717 N   0  0  0  0  0  0  0  0  0  0  0  0
  -29.2436  -22.5448   18.5139 N   0  0  3  0  0  0  0  0  0  0  0  0
  -29.5303  -25.4748   27.2514 N   0  3  0  0  0  0  0  0  0  0  0  0
  -31.5477  -14.9521   19.9430 O   0  0  0  0  0  0  0  0  0  0  0  0
  -23.5366  -28.4649   22.6882 O   0  0  0  0  0  0  0  0  0  0  0  0
  -24.8186  -28.0991   26.2120 O   0  0  0  0  0  0  0  0  0  0  0  0
  -29.2395  -27.1495   24.7719 O   0  0  0  0  0  0  0  0  0  0  0  0
  -27.7857  -22.2768   24.3969 O   0  0  0  0  0  0  0  0  0  0  0  0
  -25.9138  -10.0011   22.0248 O   0  0  0  0  0  0  0  0  0  0  0  0
  -27.0798  -24.3343   18.9614 O   0  0  0  0  0  0  0  0  0  1  0  0
  -20.7824   -9.0794   20.2297 F   0  0  0  0  0  0  0  0  0  0  0  0
  -23.7887  -11.4902   22.9784 F   0  0  0  0  0  0  0  0  0  0  0  0
  -31.9876  -21.4722   17.7713 Cl  0  0  0  0  0  0  0  0  0  0  0  0
  1  2  1  0  0  0  0
  1  5  2  0  0  0  0
  2  6  2  0  0  0  0
  3  9  2  0  0  0  0
  3 18  1  0  0  0  0
  4 10  1  0  0  0  0
  4 18  2  0  0  0  0
  5 20  1  0  0  0  0
  6 22  1  0  0  0  0
  7 11  2  0  0  0  0
  7 21  1  0  0  0  0
  8 14  2  0  0  0  0
  8 24  1  0  0  0  0
  9 26  1  0  0  0  0
 10 26  2  0  0  0  0
 11 27  1  0  0  0  0
 12 13  2  0  0  0  0
 12 28  1  0  0  0  0
 13 29  1  0  0  0  0
 14 31  1  0  0  0  0
 15 23  1  0  0  0  0
 15 27  2  0  0  0  0
 16 24  2  0  0  0  0
 16 25  1  0  0  0  0
 17 29  2  0  0  0  0
 17 30  1  0  0  0  0
 18 32  1  0  0  0  0
 19 32  1  0  0  0  0
 19 33  2  0  0  0  0
 19 34  1  0  0  0  0
 20 22  2  0  0  0  0
 20 39  1  0  0  0  0
 21 23  2  0  0  0  0
 21 40  1  0  0  0  0
 22 48  1  0  0  0  0
 23 41  1  0  0  0  0
 24 71  1  0  0  0  0
 25 31  2  0  0  0  0
 25 72  1  0  0  0  0
 26 79  1  0  0  0  0
 27 80  1  0  0  0  0
 28 30  2  0  0  0  0
 28 79  1  0  0  0  0
 29 81  1  0  0  0  0
 30 82  1  0  0  0  0
 31 83  1  0  0  0  0
 32 63  2  0  0  0  0
 33 64  1  0  0  0  0
 33 67  1  0  0  0  0
 34 68  1  0  0  0  0
 34 74  2  0  0  0  0
 35 49  1  0  0  0  0
 35 69  1  0  0  0  0
 35 75  2  0  0  0  0
 36 60  1  0  0  0  0
 36 65  1  0  0  0  0
 36 76  2  0  0  0  0
 37 61  1  0  0  0  0
 37 70  1  0  0  0  0
 37 77  2  0  0  0  0
 38 66  1  0  0  0  0
 38 71  1  0  0  0  0
 38 78  2  0  0  0  0
 39 42  1  0  0  0  0
 40 49  1  0  0  0  0
 41 65  1  0  0  0  0
 42 44  1  0  0  0  0
 43 45  1  0  0  0  0
 43 46  1  0  0  0  0
 44 48  1  0  0  0  0
 45 50  1  0  0  0  0
 46 66  1  0  0  0  0
 47 50  1  0  0  0  0
 47 66  1  0  0  0  0
 48 69  1  0  0  0  0
 49 65  1  0  0  0  0
 50 64  1  0  0  0  0
 51 61  1  0  0  0  0
 52 62  1  0  0  0  0
 53 62  1  0  0  0  0
 54 62  1  0  0  0  0
 55 71  1  0  0  0  0
 56 72  1  0  0  0  0
 57 73  1  0  0  0  0
 58 59  1  0  0  0  0
 58 72  1  0  0  0  0
 59 80  1  0  0  0  0
 60 62  1  0  0  0  0
 60 70  1  0  0  0  0
 61 73  1  0  0  0  0
 63 64  1  0  0  0  0
M  CHG  1  73   1
M  ISO  4  38 100  59 101  71 100  80 101
M  END
> <Batch ID>
0013

> <Smiles>
CNC(C)C(=O)NC(C(=O)N1Cc2cc([101O:1][101CH2:1]CN(C)c3cc([100N:0](C)[100C:0](=O)N4CCCC(n5nc(-c6ccc(Oc7ccc(F)cc7F)cc6)c(C(N)=O)c5N)C4)ccc3Cl)ccc2CC1C(=O)NC1CCCc2ccccc21)C(C)(C)C

> <Shape>
0.224

> <Color>
0.096

> <Negative vol penalty>
0.000

$$$$

  -OEChem-04042320483D

 82 90  0     1  0  0  0  0  0999 V2000
  -18.2528  -24.4493   25.2656 C   0  0  0  0  0  0  0  0  0  0  0  0
  -18.9339  -23.3385   24.7781 C   0  0  0  0  0  0  0  0  0  0  0  0
  -23.1703   -9.8482   19.9141 C   0  0  0  0  0  0  0  0  0  0  0  0
  -23.8262   -9.9041   22.2387 C   0  0  0  0  0  0  0  0  0  0  0  0
  -17.3264  -25.1074   24.4579 C   0  0  0  0  0  0  0  0  0  0  0  0
  -18.6881  -22.8845   23.4828 C   0  0  0  0  0  0  0  0  0  0  0  0
  -22.7355  -20.3786   19.6299 C   0  0  0  0  0  0  0  0  0  0  0  0
  -27.3260  -15.6073   16.8014 C   0  0  0  0  0  0  0  0  0  0  0  0
  -28.4128  -14.7406   16.6868 C   0  0  0  0  0  0  0  0  0  0  0  0
  -22.4425   -8.6814   20.1475 C   0  0  0  0  0  0  0  0  0  0  0  0
  -23.0983   -8.7373   22.4721 C   0  0  0  0  0  0  0  0  0  0  0  0
  -23.0211  -19.0544   19.3003 C   0  0  0  0  0  0  0  0  0  0  0  0
  -19.8654   -7.8723   22.9418 C   0  0  0  0  0  0  0  0  0  0  0  0
  -19.0578   -7.8305   24.0783 C   0  0  0  0  0  0  0  0  0  0  0  0
  -21.5727  -19.2265   17.3789 C   0  0  0  0  0  0  0  0  0  0  0  0
  -25.8582  -13.8766   15.9725 C   0  0  0  0  0  0  0  0  0  0  0  0
  -20.3088   -5.9328   24.8975 C   0  0  0  0  0  0  0  0  0  0  0  0
  -23.8622  -10.4595   20.9597 C   0  0  0  0  0  0  0  0  0  0  0  0
  -24.1514  -12.9901   20.8182 C   0  0  0  0  0  0  0  0  0  0  0  0
  -17.0761  -24.6670   23.1486 C   0  0  0  0  0  0  0  0  0  0  0  0
  -21.8563  -21.1346   18.8413 C   0  0  0  0  0  0  0  0  0  0  0  0
  -17.7564  -23.5365   22.6572 C   0  0  0  0  0  0  0  0  0  0  0  0
  -21.2796  -20.5609   17.6992 C   0  0  0  0  0  0  0  0  0  0  0  0
  -26.0486  -15.1753   16.4443 C   0  0  0  0  0  0  0  0  0  0  0  0
  -28.2223  -13.4418   16.2150 C   0  0  0  0  0  0  0  0  0  0  0  0
  -22.4065   -8.1260   21.4265 C   0  0  0  0  0  0  0  0  0  0  0  0
  -22.4375  -18.4773   18.1763 C   0  0  0  0  0  0  0  0  0  0  0  0
  -20.8947   -6.9443   22.7831 C   0  0  0  0  0  0  0  0  0  0  0  0
  -19.2795   -6.8608   25.0561 C   0  0  0  0  0  0  0  0  0  0  0  0
  -21.1164   -5.9746   23.7609 C   0  0  0  0  0  0  0  0  0  0  0  0
  -26.9450  -13.0098   15.8578 C   0  0  0  0  0  0  0  0  0  0  0  0
  -24.6147  -11.6645   20.7192 C   0  0  0  0  0  0  0  0  0  0  0  0
  -25.2414  -13.7600   20.4931 C   0  0  0  0  0  0  0  0  0  0  0  0
  -22.8520  -13.4817   21.1726 C   0  0  0  0  0  0  0  0  0  0  0  0
  -19.0624  -22.5662   19.3397 C   0  0  0  0  0  0  0  0  0  0  0  0
  -19.5365  -23.6776   16.3294 C   0  0  0  0  0  0  0  0  0  0  0  0
  -21.0461  -23.2723   13.2956 C   0  0  0  0  0  0  0  0  0  0  0  0
  -30.1703  -12.2133   17.2087 C   0  0  0  0  0  0  0  0  0  0  0  0
  -16.0311  -25.3822   22.3295 C   0  0  0  0  0  0  0  0  0  0  0  0
  -21.5794  -22.5700   19.1953 C   0  0  0  0  0  0  0  0  0  0  0  0
  -20.3448  -21.3361   16.8082 C   0  0  0  0  0  0  0  0  0  0  0  0
  -16.1028  -25.0635   20.8383 C   0  0  0  0  0  0  0  0  0  0  0  0
  -30.0207  -13.7495   20.5718 C   0  0  0  0  0  0  0  0  0  0  0  0
  -16.2419  -23.5603   20.6197 C   0  0  0  0  0  0  0  0  0  0  0  0
  -28.6001  -13.4250   21.0301 C   0  0  0  0  0  0  0  0  0  0  0  0
  -30.5570  -12.6998   19.6033 C   0  0  0  0  0  0  0  0  0  0  0  0
  -28.2520  -12.1533   18.8753 C   0  0  0  0  0  0  0  0  0  0  0  0
  -17.5353  -23.0287   21.2489 C   0  0  1  0  0  0  0  0  0  0  0  0
  -20.2686  -23.0874   18.6109 C   0  0  1  0  0  0  0  0  0  0  0  0
  -27.6740  -13.2173   19.8204 C   0  0  1  0  0  0  0  0  0  0  0  0
  -21.2122  -24.3216   11.0221 C   0  0  0  0  0  0  0  0  0  0  0  0
  -16.7782  -22.5802   15.6241 C   0  0  0  0  0  0  0  0  0  0  0  0
  -17.3889  -22.7928   13.2054 C   0  0  0  0  0  0  0  0  0  0  0  0
  -17.2885  -24.8254   14.6480 C   0  0  0  0  0  0  0  0  0  0  0  0
  -29.8684  -12.2594   14.7718 C   0  0  0  0  0  0  0  0  0  0  0  0
  -23.9589  -23.7106   13.5830 C   0  0  0  0  0  0  0  0  0  0  0  0
  -23.6150  -15.6738   16.2108 C   0  0  0  0  0  0  0  0  0  0  0  0
  -22.6742  -16.8389   16.4688 C   0  0  0  0  0  0  0  0  0  1  0  0
  -19.1931  -23.1891   14.9429 C   0  0  1  0  0  0  0  0  0  0  0  0
  -21.8154  -24.2412   12.4158 C   0  0  2  0  0  0  0  0  0  0  0  0
  -17.6782  -23.3314   14.6227 C   0  0  0  0  0  0  0  0  0  0  0  0
  -25.8989  -11.5927   20.3591 N   0  0  0  0  0  0  0  0  0  0  0  0
  -26.2518  -12.8829   20.2289 N   0  0  0  0  0  0  0  0  0  0  0  0
  -20.1004  -22.7341   17.1998 N   0  0  0  0  0  0  0  0  0  0  0  0
  -29.6368  -12.4692   18.4885 N   0  0  0  0  0  0  0  0  0  0  0  0
  -25.4244  -15.0950   20.4101 N   0  0  0  0  0  0  0  0  0  0  0  0
  -21.8470  -12.5537   21.4777 N   0  0  0  0  0  0  0  0  0  0  0  0
  -24.9700  -16.0368   16.5574 N   0  0  0  0  0  0  0  0  0  0  0  0
  -18.6723  -23.3461   20.4116 N   0  0  0  0  0  0  0  0  0  0  0  0
  -20.0680  -23.9126   14.0267 N   0  0  0  0  0  0  0  0  0  0  0  0
  -29.3680  -12.5719   16.1086 N   0  0  0  0  0  0  0  0  0  0  0  0
  -23.2361  -23.8096   12.2889 N   0  3  0  0  0  0  0  0  0  0  0  0
  -22.5854  -14.7071   21.2014 O   0  0  0  0  0  0  0  0  0  0  0  0
  -18.5246  -21.5337   18.9570 O   0  0  0  0  0  0  0  0  0  0  0  0
  -19.3193  -24.8549   16.6268 O   0  0  0  0  0  0  0  0  0  0  0  0
  -21.2863  -22.0674   13.3280 O   0  0  0  0  0  0  0  0  0  0  0  0
  -31.2625  -11.6528   17.0551 O   0  0  0  0  0  0  0  0  0  0  0  0
  -21.6961   -6.9876   21.6546 O   0  0  0  0  0  0  0  0  0  0  0  0
  -22.7141  -17.1847   17.8527 O   0  0  0  0  0  0  0  0  0  1  0  0
  -18.5049   -6.8217   26.1482 F   0  0  0  0  0  0  0  0  0  0  0  0
  -22.1045   -5.0812   23.6146 F   0  0  0  0  0  0  0  0  0  0  0  0
  -26.6648  -11.4099   15.2686 Cl  0  0  0  0  0  0  0  0  0  0  0  0
  1  2  1  0  0  0  0
  1  5  2  0  0  0  0
  2  6  2  0  0  0  0
  3 10  2  0  0  0  0
  3 18  1  0  0  0  0
  4 11  1  0  0  0  0
  4 18  2  0  0  0  0
  5 20  1  0  0  0  0
  6 22  1  0  0  0  0
  7 12  2  0  0  0  0
  7 21  1  0  0  0  0
  8  9  2  0  0  0  0
  8 24  1  0  0  0  0
  9 25  1  0  0  0  0
 10 26  1  0  0  0  0
 11 26  2  0  0  0  0
 12 27  1  0  0  0  0
 13 14  2  0  0  0  0
 13 28  1  0  0  0  0
 14 29  1  0  0  0  0
 15 23  1  0  0  0  0
 15 27  2  0  0  0  0
 16 24  2  0  0  0  0
 16 31  1  0  0  0  0
 17 29  2  0  0  0  0
 17 30  1  0  0  0  0
 18 32  1  0  0  0  0
 19 32  1  0  0  0  0
 19 33  2  0  0  0  0
 19 34  1  0  0  0  0
 20 22  2  0  0  0  0
 20 39  1  0  0  0  0
 21 23  2  0  0  0  0
 21 40  1  0  0  0  0
 22 48  1  0  0  0  0
 23 41  1  0  0  0  0
 24 68  1  0  0  0  0
 25 31  2  0  0  0  0
 25 71  1  0  0  0  0
 26 78  1  0  0  0  0
 27 79  1  0  0  0  0
 28 30  2  0  0  0  0
 28 78  1  0  0  0  0
 29 80  1  0  0  0  0
 30 81  1  0  0  0  0
 31 82  1  0  0  0  0
 32 62  2  0  0  0  0
 33 63  1  0  0  0  0
 33 66  1  0  0  0  0
 34 67  1  0  0  0  0
 34 73  2  0  0  0  0
 35 49  1  0  0  0  0
 35 69  1  0  0  0  0
 35 74  2  0  0  0  0
 36 59  1  0  0  0  0
 36 64  1  0  0  0  0
 36 75  2  0  0  0  0
 37 60  1  0  0  0  0
 37 70  1  0  0  0  0
 37 76  2  0  0  0  0
 38 65  1  0  0  0  0
 38 71  1  0  0  0  0
 38 77  2  0  0  0  0
 39 42  1  0  0  0  0
 40 49  1  0  0  0  0
 41 64  1  0  0  0  0
 42 44  1  0  0  0  0
 43 45  1  0  0  0  0
 43 46  1  0  0  0  0
 44 48  1  0  0  0  0
 45 50  1  0  0  0  0
 46 65  1  0  0  0  0
 47 50  1  0  0  0  0
 47 65  1  0  0  0  0
 48 69  1  0  0  0  0
 49 64  1  0  0  0  0
 50 63  1  0  0  0  0
 51 60  1  0  0  0  0
 52 61  1  0  0  0  0
 53 61  1  0  0  0  0
 54 61  1  0  0  0  0
 55 71  1  0  0  0  0
 56 72  1  0  0  0  0
 57 58  1  0  0  0  0
 57 68  1  0  0  0  0
 58 79  1  0  0  0  0
 59 61  1  0  0  0  0
 59 70  1  0  0  0  0
 60 72  1  0  0  0  0
 62 63  1  0  0  0  0
M  CHG  1  72   1
M  ISO  4  38 100  58 101  71 100  79 101
M  END
> <Batch ID>
0013

> <Smiles>
CNC(C)C(=O)NC(C(=O)N1Cc2cc([101O:1][101CH2:1]CNc3ccc([100N:0](C)[100C:0](=O)N4CCCC(n5nc(-c6ccc(Oc7ccc(F)cc7F)cc6)c(C(N)=O)c5N)C4)c(Cl)c3)ccc2CC1C(=O)NC1CCCc2ccccc21)C(C)(C)C

> <Shape>
0.149

> <Color>
0.178

> <Negative vol penalty>
0.000

$$$$

  -OEChem-04042320483D

 82 90  0     1  0  0  0  0  0999 V2000
  -26.2710  -22.5429   17.8838 C   0  0  0  0  0  0  0  0  0  0  0  0
  -25.5008  -22.0055   17.1354 C   0  0  0  0  0  0  0  0  0  0  0  0
  -17.7240  -25.9548   22.9181 C   0  0  0  0  0  0  0  0  0  0  0  0
  -19.0377  -25.5186   23.0569 C   0  0  0  0  0  0  0  0  0  0  0  0
  -27.4219  -22.6424   20.0393 C   0  0  0  0  0  0  0  0  0  0  0  0
  -27.8467  -24.3461   18.3798 C   0  0  0  0  0  0  0  0  0  0  0  0
  -25.1230  -14.5562   21.3766 C   0  0  0  0  0  0  0  0  0  0  0  0
  -26.0016  -13.0618   19.6938 C   0  0  0  0  0  0  0  0  0  0  0  0
  -17.4601  -27.1952   22.3388 C   0  0  0  0  0  0  0  0  0  0  0  0
  -20.0883  -26.3222   22.6154 C   0  0  0  0  0  0  0  0  0  0  0  0
  -25.6406  -26.8425   25.1466 C   0  0  0  0  0  0  0  0  0  0  0  0
  -28.3163  -23.2664   20.9089 C   0  0  0  0  0  0  0  0  0  0  0  0
  -28.7411  -24.9701   19.2494 C   0  0  0  0  0  0  0  0  0  0  0  0
  -24.6837  -13.4608   22.1201 C   0  0  0  0  0  0  0  0  0  0  0  0
  -25.5624  -11.9664   20.4373 C   0  0  0  0  0  0  0  0  0  0  0  0
  -26.8695  -26.2596   24.8403 C   0  0  0  0  0  0  0  0  0  0  0  0
  -22.6503  -10.3435   20.9998 C   0  0  0  0  0  0  0  0  0  0  0  0
  -21.9966   -9.3174   20.3176 C   0  0  0  0  0  0  0  0  0  0  0  0
  -27.4701  -28.2136   23.5595 C   0  0  0  0  0  0  0  0  0  0  0  0
  -23.6982   -7.7583   21.0325 C   0  0  0  0  0  0  0  0  0  0  0  0
  -27.1871  -23.1822   18.7747 C   0  0  0  0  0  0  0  0  0  0  0  0
  -25.7819  -14.3567   20.1634 C   0  0  0  0  0  0  0  0  0  0  0  0
  -27.4867  -16.1271   19.4801 C   0  0  0  0  0  0  0  0  0  0  0  0
  -18.5084  -28.0186   21.8987 C   0  0  0  0  0  0  0  0  0  0  0  0
  -25.3123  -28.1129   24.6519 C   0  0  0  0  0  0  0  0  0  0  0  0
  -19.8381  -27.5742   22.0284 C   0  0  0  0  0  0  0  0  0  0  0  0
  -26.2374  -28.8115   23.8632 C   0  0  0  0  0  0  0  0  0  0  0  0
  -28.9759  -24.4303   20.5140 C   0  0  0  0  0  0  0  0  0  0  0  0
  -24.9035  -12.1659   21.6504 C   0  0  0  0  0  0  0  0  0  0  0  0
  -27.7833  -26.9440   24.0442 C   0  0  0  0  0  0  0  0  0  0  0  0
  -23.8279  -10.0771   21.6983 C   0  0  0  0  0  0  0  0  0  0  0  0
  -22.5205   -8.0248   20.3340 C   0  0  0  0  0  0  0  0  0  0  0  0
  -24.3518   -8.7845   21.7147 C   0  0  0  0  0  0  0  0  0  0  0  0
  -26.2354  -15.4879   19.3947 C   0  0  0  0  0  0  0  0  0  0  0  0
  -27.4215  -17.1353   18.5496 C   0  0  0  0  0  0  0  0  0  0  0  0
  -24.5732  -21.3584   16.2341 C   0  0  0  0  0  0  0  0  0  0  0  0
  -28.6078  -15.8357   20.3250 C   0  0  0  0  0  0  0  0  0  0  0  0
  -23.0510  -29.2573   22.7334 C   0  0  0  0  0  0  0  0  0  0  0  0
  -24.3354  -32.1166   23.5686 C   0  0  0  0  0  0  0  0  0  0  0  0
  -27.0441  -33.8556   24.7023 C   0  0  0  0  0  0  0  0  0  0  0  0
  -18.1716  -29.3308   21.2357 C   0  0  0  0  0  0  0  0  0  0  0  0
  -23.9933  -28.7390   25.0136 C   0  0  0  0  0  0  0  0  0  0  0  0
  -25.9415  -30.1863   23.3240 C   0  0  0  0  0  0  0  0  0  0  0  0
  -19.3590  -30.2848   21.1351 C   0  0  0  0  0  0  0  0  0  0  0  0
  -24.0470  -18.0564   14.9074 C   0  0  0  0  0  0  0  0  0  0  0  0
  -20.5930  -29.5490   20.6227 C   0  0  0  0  0  0  0  0  0  0  0  0
  -24.6382  -17.1465   15.9836 C   0  0  0  0  0  0  0  0  0  0  0  0
  -23.4027  -19.2973   15.5170 C   0  0  0  0  0  0  0  0  0  0  0  0
  -24.9174  -19.1755   17.4769 C   0  0  0  0  0  0  0  0  0  0  0  0
  -21.0059  -28.4281   21.5842 C   0  0  1  0  0  0  0  0  0  0  0  0
  -23.5563  -29.8213   24.0312 C   0  0  1  0  0  0  0  0  0  0  0  0
  -25.6016  -17.9253   16.8968 C   0  0  1  0  0  0  0  0  0  0  0  0
  -27.8025  -36.1847   25.2475 C   0  0  0  0  0  0  0  0  0  0  0  0
  -24.6104  -32.7215   20.5906 C   0  0  0  0  0  0  0  0  0  0  0  0
  -26.1950  -34.5671   21.1829 C   0  0  0  0  0  0  0  0  0  0  0  0
  -23.8325  -34.6503   21.9794 C   0  0  0  0  0  0  0  0  0  0  0  0
  -30.5673  -26.2781   20.9753 C   0  0  0  0  0  0  0  0  0  0  0  0
  -27.5452  -33.1543   27.5336 C   0  0  0  0  0  0  0  0  0  0  0  0
  -30.1298  -24.5314   22.7091 C   0  0  0  0  0  0  0  0  0  0  0  0
  -29.0278  -24.9528   23.6667 C   0  0  0  0  0  0  0  0  0  1  0  0
  -25.4344  -32.9954   23.0220 C   0  0  1  0  0  0  0  0  0  0  0  0
  -27.1840  -34.9056   25.7897 C   0  0  2  0  0  0  0  0  0  0  0  0
  -25.0232  -33.7069   21.7021 C   0  0  0  0  0  0  0  0  0  0  0  0
  -25.4338  -16.0434   18.4821 N   0  0  0  0  0  0  0  0  0  0  0  0
  -26.1832  -17.0424   17.9856 N   0  0  0  0  0  0  0  0  0  0  0  0
  -24.3329  -19.9936   16.4056 N   0  0  0  0  0  0  0  0  0  0  0  0
  -24.6360  -30.7534   23.7002 N   0  0  0  0  0  0  0  0  0  0  0  0
  -28.3031  -18.0833   18.1670 N   0  0  0  0  0  0  0  0  0  0  0  0
  -28.5065  -14.7651   21.2239 N   0  0  0  0  0  0  0  0  0  0  0  0
  -21.6982  -28.9756   22.7311 N   0  0  0  0  0  0  0  0  0  0  0  0
  -25.8043  -33.9051   24.1010 N   0  0  0  0  0  0  0  0  0  0  0  0
  -29.8744  -25.0571   21.3876 N   0  0  3  0  0  0  0  0  0  0  0  0
  -28.0472  -34.3970   26.8929 N   0  3  0  0  0  0  0  0  0  0  0  0
  -24.0574  -22.0633   15.3722 O   0  0  0  0  0  0  0  0  0  0  0  0
  -29.6619  -16.5150   20.2956 O   0  0  0  0  0  0  0  0  0  0  0  0
  -23.8305  -29.0916   21.8024 O   0  0  0  0  0  0  0  0  0  0  0  0
  -23.2525  -32.6221   23.8744 O   0  0  0  0  0  0  0  0  0  0  0  0
  -27.9460  -33.0724   24.4127 O   0  0  0  0  0  0  0  0  0  0  0  0
  -24.4752  -11.0967   22.3758 O   0  0  0  0  0  0  0  0  0  0  0  0
  -28.9832  -26.3771   23.7431 O   0  0  0  0  0  0  0  0  0  1  0  0
  -21.8919   -7.0392   19.6801 F   0  0  0  0  0  0  0  0  0  0  0  0
  -25.4822   -8.5221   22.3850 F   0  0  0  0  0  0  0  0  0  0  0  0
  1  2  3  0  0  0  0
  1 21  1  0  0  0  0
  2 36  1  0  0  0  0
  3  4  1  0  0  0  0
  3  9  2  0  0  0  0
  4 10  2  0  0  0  0
  5 12  2  0  0  0  0
  5 21  1  0  0  0  0
  6 13  1  0  0  0  0
  6 21  2  0  0  0  0
  7 14  2  0  0  0  0
  7 22  1  0  0  0  0
  8 15  1  0  0  0  0
  8 22  2  0  0  0  0
  9 24  1  0  0  0  0
 10 26  1  0  0  0  0
 11 16  2  0  0  0  0
 11 25  1  0  0  0  0
 12 28  1  0  0  0  0
 13 28  2  0  0  0  0
 14 29  1  0  0  0  0
 15 29  2  0  0  0  0
 16 30  1  0  0  0  0
 17 18  2  0  0  0  0
 17 31  1  0  0  0  0
 18 32  1  0  0  0  0
 19 27  1  0  0  0  0
 19 30  2  0  0  0  0
 20 32  2  0  0  0  0
 20 33  1  0  0  0  0
 22 34  1  0  0  0  0
 23 34  1  0  0  0  0
 23 35  2  0  0  0  0
 23 37  1  0  0  0  0
 24 26  2  0  0  0  0
 24 41  1  0  0  0  0
 25 27  2  0  0  0  0
 25 42  1  0  0  0  0
 26 50  1  0  0  0  0
 27 43  1  0  0  0  0
 28 72  1  0  0  0  0
 29 79  1  0  0  0  0
 30 80  1  0  0  0  0
 31 33  2  0  0  0  0
 31 79  1  0  0  0  0
 32 81  1  0  0  0  0
 33 82  1  0  0  0  0
 34 64  2  0  0  0  0
 35 65  1  0  0  0  0
 35 68  1  0  0  0  0
 36 66  1  0  0  0  0
 36 74  2  0  0  0  0
 37 69  1  0  0  0  0
 37 75  2  0  0  0  0
 38 51  1  0  0  0  0
 38 70  1  0  0  0  0
 38 76  2  0  0  0  0
 39 61  1  0  0  0  0
 39 67  1  0  0  0  0
 39 77  2  0  0  0  0
 40 62  1  0  0  0  0
 40 71  1  0  0  0  0
 40 78  2  0  0  0  0
 41 44  1  0  0  0  0
 42 51  1  0  0  0  0
 43 67  1  0  0  0  0
 44 46  1  0  0  0  0
 45 47  1  0  0  0  0
 45 48  1  0  0  0  0
 46 50  1  0  0  0  0
 47 52  1  0  0  0  0
 48 66  1  0  0  0  0
 49 52  1  0  0  0  0
 49 66  1  0  0  0  0
 50 70  1  0  0  0  0
 51 67  1  0  0  0  0
 52 65  1  0  0  0  0
 53 62  1  0  0  0  0
 54 63  1  0  0  0  0
 55 63  1  0  0  0  0
 56 63  1  0  0  0  0
 57 72  1  0  0  0  0
 58 73  1  0  0  0  0
 59 60  1  0  0  0  0
 59 72  1  0  0  0  0
 60 80  1  0  0  0  0
 61 63  1  0  0  0  0
 61 71  1  0  0  0  0
 62 73  1  0  0  0  0
 64 65  1  0  0  0  0
M  CHG  1  73   1
M  ISO  4   2 100  36 100  60 101  80 101
M  END
> <Batch ID>
0013

> <Smiles>
CNC(C)C(=O)NC(C(=O)N1Cc2cc([101O:1][101CH2:1]CN(C)c3ccc(C#[100C:0][100C:0](=O)N4CCCC(n5nc(-c6ccc(Oc7ccc(F)cc7F)cc6)c(C(N)=O)c5N)C4)cc3)ccc2CC1C(=O)NC1CCCc2ccccc21)C(C)(C)C

> <Shape>
0.237

> <Color>
0.094

> <Negative vol penalty>
0.000

$$$$

  -OEChem-04042320483D

 89 97  0     1  0  0  0  0  0999 V2000
  -20.0870  -24.9841   24.1119 C   0  0  0  0  0  0  0  0  0  0  0  0
  -21.3203  -25.3522   23.5837 C   0  0  0  0  0  0  0  0  0  0  0  0
  -24.3931   -8.2498   20.2354 C   0  0  0  0  0  0  0  0  0  0  0  0
  -23.0757  -10.2012   20.7773 C   0  0  0  0  0  0  0  0  0  0  0  0
  -18.9727  -25.7973   23.9096 C   0  0  0  0  0  0  0  0  0  0  0  0
  -21.4398  -26.5332   22.8521 C   0  0  0  0  0  0  0  0  0  0  0  0
  -25.5363  -29.2144   24.1463 C   0  0  0  0  0  0  0  0  0  0  0  0
  -29.6651  -19.8315   19.7416 C   0  0  0  0  0  0  0  0  0  0  0  0
  -28.3111  -19.2967   17.8134 C   0  0  0  0  0  0  0  0  0  0  0  0
  -29.7189  -18.4791   20.0789 C   0  0  0  0  0  0  0  0  0  0  0  0
  -28.3650  -17.9443   18.1507 C   0  0  0  0  0  0  0  0  0  0  0  0
  -23.3915   -7.4294   20.7544 C   0  0  0  0  0  0  0  0  0  0  0  0
  -22.0740   -9.3808   21.2963 C   0  0  0  0  0  0  0  0  0  0  0  0
  -26.7632  -28.7860   23.6414 C   0  0  0  0  0  0  0  0  0  0  0  0
  -21.3371   -4.8366   22.2645 C   0  0  0  0  0  0  0  0  0  0  0  0
  -21.7237   -3.7853   23.0957 C   0  0  0  0  0  0  0  0  0  0  0  0
  -26.6465  -30.4849   21.9328 C   0  0  0  0  0  0  0  0  0  0  0  0
  -22.7148   -5.3646   24.6321 C   0  0  0  0  0  0  0  0  0  0  0  0
  -24.2352   -9.6357   20.2469 C   0  0  0  0  0  0  0  0  0  0  0  0
  -25.3953  -10.9372   18.3846 C   0  0  0  0  0  0  0  0  0  0  0  0
  -19.0806  -26.9938   23.1833 C   0  0  0  0  0  0  0  0  0  0  0  0
  -24.8489  -30.2760   23.5405 C   0  0  0  0  0  0  0  0  0  0  0  0
  -20.3256  -27.3625   22.6388 C   0  0  0  0  0  0  0  0  0  0  0  0
  -25.4123  -30.9265   22.4335 C   0  0  0  0  0  0  0  0  0  0  0  0
  -28.9611  -20.2403   18.6089 C   0  0  0  0  0  0  0  0  0  0  0  0
  -29.0689  -17.5355   19.2834 C   0  0  0  0  0  0  0  0  0  0  0  0
  -22.2320   -7.9949   21.2848 C   0  0  0  0  0  0  0  0  0  0  0  0
  -27.3172  -29.4194   22.5328 C   0  0  0  0  0  0  0  0  0  0  0  0
  -21.6395   -6.1519   22.6170 C   0  0  0  0  0  0  0  0  0  0  0  0
  -22.4125   -4.0493   24.2795 C   0  0  0  0  0  0  0  0  0  0  0  0
  -22.3283   -6.4159   23.8009 C   0  0  0  0  0  0  0  0  0  0  0  0
  -25.2697  -10.4837   19.7114 C   0  0  0  0  0  0  0  0  0  0  0  0
  -26.5339  -11.7053   18.3906 C   0  0  0  0  0  0  0  0  0  0  0  0
  -24.5575  -10.6866   17.2484 C   0  0  0  0  0  0  0  0  0  0  0  0
  -22.0355  -30.5926   22.0954 C   0  0  0  0  0  0  0  0  0  0  0  0
  -22.8413  -33.7347   22.0693 C   0  0  0  0  0  0  0  0  0  0  0  0
  -29.1154  -26.6747   20.3182 C   0  0  0  0  0  0  0  0  0  0  0  0
  -25.3049  -36.0947   22.1566 C   0  0  0  0  0  0  0  0  0  0  0  0
  -29.7782  -15.5878   20.7151 C   0  0  0  0  0  0  0  0  0  0  0  0
  -17.8381  -27.8164   22.9506 C   0  0  0  0  0  0  0  0  0  0  0  0
  -23.5391  -30.7434   24.1135 C   0  0  0  0  0  0  0  0  0  0  0  0
  -24.7241  -32.0842   21.7592 C   0  0  0  0  0  0  0  0  0  0  0  0
  -18.1288  -29.2399   22.4824 C   0  0  0  0  0  0  0  0  0  0  0  0
  -30.1177  -12.2556   21.9227 C   0  0  0  0  0  0  0  0  0  0  0  0
  -19.1710  -29.2331   21.3685 C   0  0  0  0  0  0  0  0  0  0  0  0
  -28.8970  -11.5349   21.3459 C   0  0  0  0  0  0  0  0  0  0  0  0
  -29.7908  -13.6932   22.3230 C   0  0  0  0  0  0  0  0  0  0  0  0
  -27.9455  -13.7834   20.6932 C   0  0  0  0  0  0  0  0  0  0  0  0
  -20.5005  -28.6485   21.8606 C   0  0  1  0  0  0  0  0  0  0  0  0
  -22.6814  -31.5001   23.1039 C   0  0  1  0  0  0  0  0  0  0  0  0
  -28.2419  -12.3524   20.2154 C   0  0  2  0  0  0  0  0  0  0  0  0
  -25.6575  -38.5781   22.0802 C   0  0  0  0  0  0  0  0  0  0  0  0
  -29.3764  -23.8232   21.4507 C   0  0  0  0  0  0  0  0  0  0  0  0
  -22.3278  -33.7127   19.0616 C   0  0  0  0  0  0  0  0  0  0  0  0
  -23.5797  -35.8750   18.9025 C   0  0  0  0  0  0  0  0  0  0  0  0
  -21.4839  -35.7454   20.2491 C   0  0  0  0  0  0  0  0  0  0  0  0
  -31.2413  -25.8537   19.2802 C   0  0  0  0  0  0  0  0  0  0  0  0
  -26.5464  -36.1178   24.8431 C   0  0  0  0  0  0  0  0  0  0  0  0
  -26.5286  -22.2154   18.7860 C   0  0  0  0  0  0  0  0  0  0  0  0
  -28.9032  -21.6950   18.2462 C   0  0  0  0  0  0  0  0  0  0  0  0
  -29.6740  -28.0822   20.1367 C   0  0  0  0  0  0  0  0  0  0  0  0
  -28.2928  -23.9367   19.1422 C   0  0  0  0  0  0  0  0  0  0  0  0
  -28.7313  -29.1694   20.6371 C   0  0  0  0  0  0  0  0  0  1  0  0
  -23.5853  -34.6397   21.1172 C   0  0  1  0  0  0  0  0  0  0  0  0
  -25.4546  -37.3648   22.9744 C   0  0  2  0  0  0  0  0  0  0  0  0
  -29.5332  -24.2248   19.9872 C   0  0  1  0  0  0  0  0  0  0  0  0
  -22.7565  -34.9701   19.8439 C   0  0  0  0  0  0  0  0  0  0  0  0
  -26.2504  -10.9267   20.5027 N   0  0  0  0  0  0  0  0  0  0  0  0
  -27.0031  -11.6665   19.6706 N   0  0  0  0  0  0  0  0  0  0  0  0
  -23.4426  -32.5002   22.3526 N   0  0  0  0  0  0  0  0  0  0  0  0
  -29.1771  -14.4076   21.2014 N   0  0  0  0  0  0  0  0  0  0  0  0
  -27.1696  -12.4034   17.4257 N   0  0  0  0  0  0  0  0  0  0  0  0
  -23.4271   -9.8755   17.4177 N   0  0  0  0  0  0  0  0  0  0  0  0
  -29.1237  -16.1616   19.6257 N   0  0  0  0  0  0  0  0  0  0  0  0
  -21.2204  -29.6246   22.6503 N   0  0  0  0  0  0  0  0  0  0  0  0
  -23.9818  -35.8102   21.8925 N   0  0  0  0  0  0  0  0  0  0  0  0
  -29.9317  -25.6264   19.8790 N   0  0  0  0  0  0  0  0  0  0  0  0
  -26.6245  -37.2557   23.8912 N   0  3  0  0  0  0  0  0  0  0  0  0
  -27.9724  -22.4883   19.1305 N   0  3  1  0  0  0  0  0  0  0  0  0
  -24.8130  -11.1543   16.1129 O   0  0  0  0  0  0  0  0  0  0  0  0
  -22.2589  -30.7594   20.9021 O   0  0  0  0  0  0  0  0  0  0  0  0
  -21.7696  -34.1122   22.5496 O   0  0  0  0  0  0  0  0  0  0  0  0
  -28.0048  -26.5014   20.8271 O   0  0  0  0  0  0  0  0  0  0  0  0
  -26.2658  -35.4241   21.7857 O   0  0  0  0  0  0  0  0  0  0  0  0
  -30.8138  -16.0402   21.2102 O   0  0  0  0  0  0  0  0  0  0  0  0
  -21.2543   -7.1946   21.7911 O   0  0  0  0  0  0  0  0  0  0  0  0
  -28.5143  -29.0029   22.0377 O   0  0  0  0  0  0  0  0  0  1  0  0
  -22.7823   -3.0397   25.0784 F   0  0  0  0  0  0  0  0  0  0  0  0
  -22.6205   -7.6775   24.1455 F   0  0  0  0  0  0  0  0  0  0  0  0
  1  2  1  0  0  0  0
  1  5  2  0  0  0  0
  2  6  2  0  0  0  0
  3 12  2  0  0  0  0
  3 19  1  0  0  0  0
  4 13  1  0  0  0  0
  4 19  2  0  0  0  0
  5 21  1  0  0  0  0
  6 23  1  0  0  0  0
  7 14  2  0  0  0  0
  7 22  1  0  0  0  0
  8 10  2  0  0  0  0
  8 25  1  0  0  0  0
  9 11  1  0  0  0  0
  9 25  2  0  0  0  0
 10 26  1  0  0  0  0
 11 26  2  0  0  0  0
 12 27  1  0  0  0  0
 13 27  2  0  0  0  0
 14 28  1  0  0  0  0
 15 16  2  0  0  0  0
 15 29  1  0  0  0  0
 16 30  1  0  0  0  0
 17 24  1  0  0  0  0
 17 28  2  0  0  0  0
 18 30  2  0  0  0  0
 18 31  1  0  0  0  0
 19 32  1  0  0  0  0
 20 32  1  0  0  0  0
 20 33  2  0  0  0  0
 20 34  1  0  0  0  0
 21 23  2  0  0  0  0
 21 40  1  0  0  0  0
 22 24  2  0  0  0  0
 22 41  1  0  0  0  0
 23 49  1  0  0  0  0
 24 42  1  0  0  0  0
 25 60  1  0  0  0  0
 26 74  1  0  0  0  0
 27 86  1  0  0  0  0
 28 87  1  0  0  0  0
 29 31  2  0  0  0  0
 29 86  1  0  0  0  0
 30 88  1  0  0  0  0
 31 89  1  0  0  0  0
 32 68  2  0  0  0  0
 33 69  1  0  0  0  0
 33 72  1  0  0  0  0
 34 73  1  0  0  0  0
 34 80  2  0  0  0  0
 35 50  1  0  0  0  0
 35 75  1  0  0  0  0
 35 81  2  0  0  0  0
 36 64  1  0  0  0  0
 36 70  1  0  0  0  0
 36 82  2  0  0  0  0
 37 61  1  0  0  0  0
 37 77  1  0  0  0  0
 37 83  2  0  0  0  0
 38 65  1  0  0  0  0
 38 76  1  0  0  0  0
 38 84  2  0  0  0  0
 39 71  1  0  0  0  0
 39 74  1  0  0  0  0
 39 85  2  0  0  0  0
 40 43  1  0  0  0  0
 41 50  1  0  0  0  0
 42 70  1  0  0  0  0
 43 45  1  0  0  0  0
 44 46  1  0  0  0  0
 44 47  1  0  0  0  0
 45 49  1  0  0  0  0
 46 51  1  0  0  0  0
 47 71  1  0  0  0  0
 48 51  1  0  0  0  0
 48 71  1  0  0  0  0
 49 75  1  0  0  0  0
 50 70  1  0  0  0  0
 51 69  1  0  0  0  0
 52 65  1  0  0  0  0
 53 66  1  0  0  0  0
 54 67  1  0  0  0  0
 55 67  1  0  0  0  0
 56 67  1  0  0  0  0
 57 77  1  0  0  0  0
 58 78  1  0  0  0  0
 59 79  1  0  0  0  0
 60 79  1  0  0  0  0
 61 63  1  0  0  0  0
 62 66  1  0  0  0  0
 62 79  1  0  0  0  0
 63 87  1  0  0  0  0
 64 67  1  0  0  0  0
 64 76  1  0  0  0  0
 65 78  1  0  0  0  0
 66 77  1  0  0  0  0
 68 69  1  0  0  0  0
M  CHG  2  78   1  79   1
M  ISO  4  39 100  63 101  74 100  87 101
M  END
> <Batch ID>
0013

> <Smiles>
CNC(C)C(=O)NC(C(=O)N1Cc2cc([101O:1][101CH2:1]CC(=O)N(C)C(C)CN(C)Cc3ccc([100NH:0][100C:0](=O)N4CCCC(n5nc(-c6ccc(Oc7ccc(F)cc7F)cc6)c(C(N)=O)c5N)C4)cc3)ccc2CC1C(=O)NC1CCCc2ccccc21)C(C)(C)C

> <Shape>
0.346

> <Color>
0.143

> <Negative vol penalty>
0.000

$$$$

  -OEChem-04042320483D

 86 95  0     1  0  0  0  0  0999 V2000
  -16.5628  -28.5702   23.4104 C   0  0  0  0  0  0  0  0  0  0  0  0
  -17.5137  -27.6755   22.9300 C   0  0  0  0  0  0  0  0  0  0  0  0
  -23.5236  -18.8985   22.2972 C   0  0  0  0  0  0  0  0  0  0  0  0
  -22.3631  -16.8546   22.8564 C   0  0  0  0  0  0  0  0  0  0  0  0
  -16.9519  -29.8432   23.8252 C   0  0  0  0  0  0  0  0  0  0  0  0
  -18.8542  -28.0537   22.8632 C   0  0  0  0  0  0  0  0  0  0  0  0
  -23.7392  -24.4711   23.7622 C   0  0  0  0  0  0  0  0  0  0  0  0
  -28.7999  -19.1005   19.1102 C   0  0  0  0  0  0  0  0  0  0  0  0
  -29.5683  -17.9792   19.4229 C   0  0  0  0  0  0  0  0  0  0  0  0
  -22.3093  -19.4950   21.9576 C   0  0  0  0  0  0  0  0  0  0  0  0
  -21.1488  -17.4511   22.5169 C   0  0  0  0  0  0  0  0  0  0  0  0
  -24.5953  -23.8137   22.8798 C   0  0  0  0  0  0  0  0  0  0  0  0
  -19.6858  -20.8952   23.5669 C   0  0  0  0  0  0  0  0  0  0  0  0
  -19.4467  -22.1885   24.0313 C   0  0  0  0  0  0  0  0  0  0  0  0
  -26.1468  -25.6553   23.0224 C   0  0  0  0  0  0  0  0  0  0  0  0
  -29.1961  -19.9889   21.3217 C   0  0  0  0  0  0  0  0  0  0  0  0
  -19.2359  -22.9673   21.7540 C   0  0  0  0  0  0  0  0  0  0  0  0
  -23.5505  -17.5782   22.7465 C   0  0  0  0  0  0  0  0  0  0  0  0
  -25.4250  -16.9546   24.3605 C   0  0  0  0  0  0  0  0  0  0  0  0
  -18.2993  -30.2338   23.7725 C   0  0  0  0  0  0  0  0  0  0  0  0
  -24.0760  -25.7327   24.2736 C   0  0  0  0  0  0  0  0  0  0  0  0
  -19.2615  -29.3335   23.2765 C   0  0  0  0  0  0  0  0  0  0  0  0
  -25.2944  -26.3256   23.9130 C   0  0  0  0  0  0  0  0  0  0  0  0
  -28.6138  -20.1054   20.0595 C   0  0  0  0  0  0  0  0  0  0  0  0
  -30.1506  -17.8627   20.6851 C   0  0  0  0  0  0  0  0  0  0  0  0
  -21.1219  -18.7714   22.0675 C   0  0  0  0  0  0  0  0  0  0  0  0
  -25.7980  -24.4070   22.5075 C   0  0  0  0  0  0  0  0  0  0  0  0
  -19.7001  -20.6379   22.1960 C   0  0  0  0  0  0  0  0  0  0  0  0
  -19.2217  -23.2246   23.1249 C   0  0  0  0  0  0  0  0  0  0  0  0
  -29.9645  -18.8675   21.6345 C   0  0  0  0  0  0  0  0  0  0  0  0
  -19.4750  -21.6740   21.2896 C   0  0  0  0  0  0  0  0  0  0  0  0
  -24.8046  -16.9613   23.0968 C   0  0  0  0  0  0  0  0  0  0  0  0
  -26.5844  -16.2432   24.1700 C   0  0  0  0  0  0  0  0  0  0  0  0
  -24.9919  -17.5390   25.5961 C   0  0  0  0  0  0  0  0  0  0  0  0
  -22.7942  -28.6365   24.1053 C   0  0  0  0  0  0  0  0  0  0  0  0
  -25.1387  -29.3692   26.2240 C   0  0  0  0  0  0  0  0  0  0  0  0
  -28.2053  -28.6251   27.5237 C   0  0  0  0  0  0  0  0  0  0  0  0
  -30.6812  -15.4469   20.4136 C   0  0  0  0  0  0  0  0  0  0  0  0
  -18.6651  -31.6368   24.1877 C   0  0  0  0  0  0  0  0  0  0  0  0
  -23.1540  -26.4169   25.2453 C   0  0  0  0  0  0  0  0  0  0  0  0
  -25.7119  -27.6695   24.4498 C   0  0  0  0  0  0  0  0  0  0  0  0
  -20.1591  -31.8285   24.4359 C   0  0  0  0  0  0  0  0  0  0  0  0
  -28.1664  -12.9685   20.8337 C   0  0  0  0  0  0  0  0  0  0  0  0
  -30.0014  -24.1146   18.7362 C   0  0  0  0  0  0  0  0  0  0  0  0
  -20.9722  -31.2093   23.3034 C   0  0  0  0  0  0  0  0  0  0  0  0
  -27.0892  -13.7530   21.5819 C   0  0  0  0  0  0  0  0  0  0  0  0
  -28.5909  -24.6364   18.5299 C   0  0  0  0  0  0  0  0  0  0  0  0
  -28.8428  -13.8127   19.7531 C   0  0  0  0  0  0  0  0  0  0  0  0
  -28.3071  -15.8848   20.9957 C   0  0  0  0  0  0  0  0  0  0  0  0
  -29.7841  -22.6337   18.9507 C   0  0  0  0  0  0  0  0  0  0  0  0
  -20.7288  -29.6981   23.2119 C   0  0  1  0  0  0  0  0  0  0  0  0
  -23.3606  -27.9273   25.3027 C   0  0  1  0  0  0  0  0  0  0  0  0
  -27.6496  -15.0786   22.1268 C   0  0  1  0  0  0  0  0  0  0  0  0
  -27.7285  -23.8400   19.5089 C   0  0  2  0  0  0  0  0  0  0  0  0
  -29.8744  -29.4273   29.2172 C   0  0  0  0  0  0  0  0  0  0  0  0
  -25.9692  -31.6181   24.3366 C   0  0  0  0  0  0  0  0  0  0  0  0
  -28.1458  -31.7523   25.5664 C   0  0  0  0  0  0  0  0  0  0  0  0
  -26.0083  -32.2244   26.7625 C   0  0  0  0  0  0  0  0  0  0  0  0
  -32.1830  -16.8886   21.7706 C   0  0  0  0  0  0  0  0  0  0  0  0
  -28.0336  -26.1013   29.0598 C   0  0  0  0  0  0  0  0  0  0  0  0
  -27.7864  -21.3110   19.7238 C   0  0  0  0  0  0  0  0  0  0  0  0
  -27.4513  -24.5843   20.8072 C   0  0  0  0  0  0  0  0  0  1  0  0
  -26.5672  -29.8451   26.1155 C   0  0  1  0  0  0  0  0  0  0  0  0
  -28.6904  -28.5089   28.9574 C   0  0  2  0  0  0  0  0  0  0  0  0
  -26.6642  -31.3355   25.6835 C   0  0  0  0  0  0  0  0  0  0  0  0
  -25.5114  -16.3063   22.1719 N   0  0  0  0  0  0  0  0  0  0  0  0
  -26.5880  -15.8815   22.8550 N   0  0  0  0  0  0  0  0  0  0  0  0
  -24.7735  -28.3015   25.3919 N   0  0  0  0  0  0  0  0  0  0  0  0
  -29.3250  -15.0842   20.3109 N   0  0  0  0  0  0  0  0  0  0  0  0
  -27.5909  -15.8982   25.0008 N   0  0  0  0  0  0  0  0  0  0  0  0
  -23.7759  -18.2356   25.6157 N   0  0  0  0  0  0  0  0  0  0  0  0
  -21.4692  -29.0035   24.2434 N   0  0  0  0  0  0  0  0  0  0  0  0
  -27.1933  -29.5536   27.4006 N   0  0  0  0  0  0  0  0  0  0  0  0
  -30.9452  -16.7005   21.0063 N   0  0  0  0  0  0  0  0  0  0  0  0
  -28.5511  -22.5928   19.8229 N   0  3  1  0  0  0  0  0  0  0  0  0
  -29.1083  -27.1089   29.2510 N   0  3  0  0  0  0  0  0  0  0  0  0
  -25.6713  -17.4603   26.6476 O   0  0  0  0  0  0  0  0  0  0  0  0
  -23.5071  -28.8373   23.1289 O   0  0  0  0  0  0  0  0  0  0  0  0
  -24.3769  -29.9197   27.0230 O   0  0  0  0  0  0  0  0  0  0  0  0
  -28.6794  -27.9616   26.6042 O   0  0  0  0  0  0  0  0  0  0  0  0
  -31.5875  -14.6977   20.0298 O   0  0  0  0  0  0  0  0  0  0  0  0
  -19.9368  -19.3532   21.7365 O   0  0  0  0  0  0  0  0  0  0  0  0
  -26.6351  -23.7677   21.6459 O   0  0  0  0  0  0  0  0  0  1  0  0
  -18.9905  -24.4662   23.5711 F   0  0  0  0  0  0  0  0  0  0  0  0
  -30.5182  -18.7653   22.8512 F   0  0  0  0  0  0  0  0  0  0  0  0
  -19.4863  -21.4327   19.9715 F   0  0  0  0  0  0  0  0  0  0  0  0
  1  2  1  0  0  0  0
  1  5  2  0  0  0  0
  2  6  2  0  0  0  0
  3 10  2  0  0  0  0
  3 18  1  0  0  0  0
  4 11  1  0  0  0  0
  4 18  2  0  0  0  0
  5 20  1  0  0  0  0
  6 22  1  0  0  0  0
  7 12  2  0  0  0  0
  7 21  1  0  0  0  0
  8  9  2  0  0  0  0
  8 24  1  0  0  0  0
  9 25  1  0  0  0  0
 10 26  1  0  0  0  0
 11 26  2  0  0  0  0
 12 27  1  0  0  0  0
 13 14  2  0  0  0  0
 13 28  1  0  0  0  0
 14 29  1  0  0  0  0
 15 23  1  0  0  0  0
 15 27  2  0  0  0  0
 16 24  2  0  0  0  0
 16 30  1  0  0  0  0
 17 29  2  0  0  0  0
 17 31  1  0  0  0  0
 18 32  1  0  0  0  0
 19 32  1  0  0  0  0
 19 33  2  0  0  0  0
 19 34  1  0  0  0  0
 20 22  2  0  0  0  0
 20 39  1  0  0  0  0
 21 23  2  0  0  0  0
 21 40  1  0  0  0  0
 22 51  1  0  0  0  0
 23 41  1  0  0  0  0
 24 61  1  0  0  0  0
 25 30  2  0  0  0  0
 25 74  1  0  0  0  0
 26 82  1  0  0  0  0
 27 83  1  0  0  0  0
 28 31  2  0  0  0  0
 28 82  1  0  0  0  0
 29 84  1  0  0  0  0
 30 85  1  0  0  0  0
 31 86  1  0  0  0  0
 32 66  2  0  0  0  0
 33 67  1  0  0  0  0
 33 70  1  0  0  0  0
 34 71  1  0  0  0  0
 34 77  2  0  0  0  0
 35 52  1  0  0  0  0
 35 72  1  0  0  0  0
 35 78  2  0  0  0  0
 36 63  1  0  0  0  0
 36 68  1  0  0  0  0
 36 79  2  0  0  0  0
 37 64  1  0  0  0  0
 37 73  1  0  0  0  0
 37 80  2  0  0  0  0
 38 69  1  0  0  0  0
 38 74  1  0  0  0  0
 38 81  2  0  0  0  0
 39 42  1  0  0  0  0
 40 52  1  0  0  0  0
 41 68  1  0  0  0  0
 42 45  1  0  0  0  0
 43 46  1  0  0  0  0
 43 48  1  0  0  0  0
 44 47  1  0  0  0  0
 44 50  1  0  0  0  0
 45 51  1  0  0  0  0
 46 53  1  0  0  0  0
 47 54  1  0  0  0  0
 48 69  1  0  0  0  0
 49 53  1  0  0  0  0
 49 69  1  0  0  0  0
 50 75  1  0  0  0  0
 51 72  1  0  0  0  0
 52 68  1  0  0  0  0
 53 67  1  0  0  0  0
 54 62  1  0  0  0  0
 54 75  1  0  0  0  0
 55 64  1  0  0  0  0
 56 65  1  0  0  0  0
 57 65  1  0  0  0  0
 58 65  1  0  0  0  0
 59 74  1  0  0  0  0
 60 76  1  0  0  0  0
 61 75  1  0  0  0  0
 62 83  1  0  0  0  0
 63 65  1  0  0  0  0
 63 73  1  0  0  0  0
 64 76  1  0  0  0  0
 66 67  1  0  0  0  0
M  CHG  2  75   1  76   1
M  ISO  4  38 100  62 101  74 100  83 101
M  END
> <Batch ID>
0013

> <Smiles>
CNC(C)C(=O)NC(C(=O)N1Cc2cc([101O:1][101CH2:1]C3CCCN3Cc3ccc([100N:0](C)[100C:0](=O)N4CCCC(n5nc(-c6ccc(Oc7ccc(F)cc7F)cc6)c(C(N)=O)c5N)C4)c(F)c3)ccc2CC1C(=O)NC1CCCc2ccccc21)C(C)(C)C

> <Shape>
0.199

> <Color>
0.070

> <Negative vol penalty>
0.000

$$$$

  -OEChem-04042320483D

 82 90  0     1  0  0  0  0  0999 V2000
  -35.9589  -31.1499   20.0164 C   0  0  0  0  0  0  0  0  0  0  0  0
  -36.0381  -29.9896   20.7798 C   0  0  0  0  0  0  0  0  0  0  0  0
  -23.0504   -9.9530   19.8689 C   0  0  0  0  0  0  0  0  0  0  0  0
  -23.9076   -9.7548   22.1191 C   0  0  0  0  0  0  0  0  0  0  0  0
  -34.7303  -31.7854   19.8414 C   0  0  0  0  0  0  0  0  0  0  0  0
  -34.8887  -29.4647   21.3697 C   0  0  0  0  0  0  0  0  0  0  0  0
  -33.5665  -23.5472   22.2305 C   0  0  0  0  0  0  0  0  0  0  0  0
  -32.7725  -17.2581   23.6355 C   0  0  0  0  0  0  0  0  0  0  0  0
  -32.1302  -16.4650   22.6848 C   0  0  0  0  0  0  0  0  0  0  0  0
  -22.3199   -8.7777   20.0436 C   0  0  0  0  0  0  0  0  0  0  0  0
  -23.1770   -8.5794   22.2938 C   0  0  0  0  0  0  0  0  0  0  0  0
  -33.6842  -22.7116   23.3403 C   0  0  0  0  0  0  0  0  0  0  0  0
  -19.9789   -7.7118   22.9570 C   0  0  0  0  0  0  0  0  0  0  0  0
  -19.2727   -7.5608   24.1504 C   0  0  0  0  0  0  0  0  0  0  0  0
  -31.3703  -23.1205   23.8860 C   0  0  0  0  0  0  0  0  0  0  0  0
  -30.6302  -18.0559   24.4172 C   0  0  0  0  0  0  0  0  0  0  0  0
  -20.5478   -5.5712   24.6532 C   0  0  0  0  0  0  0  0  0  0  0  0
  -23.8443  -10.4415   20.9066 C   0  0  0  0  0  0  0  0  0  0  0  0
  -24.1764  -12.9690   21.0038 C   0  0  0  0  0  0  0  0  0  0  0  0
  -33.5637  -31.2626   20.4214 C   0  0  0  0  0  0  0  0  0  0  0  0
  -32.3508  -24.1855   21.9458 C   0  0  0  0  0  0  0  0  0  0  0  0
  -33.6436  -30.0945   21.2034 C   0  0  0  0  0  0  0  0  0  0  0  0
  -31.2391  -23.9617   22.7706 C   0  0  0  0  0  0  0  0  0  0  0  0
  -29.9879  -17.2628   23.4664 C   0  0  0  0  0  0  0  0  0  0  0  0
  -32.0225  -18.0536   24.5018 C   0  0  0  0  0  0  0  0  0  0  0  0
  -30.7379  -16.4673   22.6002 C   0  0  0  0  0  0  0  0  0  0  0  0
  -22.3832   -8.0909   21.2560 C   0  0  0  0  0  0  0  0  0  0  0  0
  -32.5869  -22.5004   24.1699 C   0  0  0  0  0  0  0  0  0  0  0  0
  -20.9695   -6.7924   22.6117 C   0  0  0  0  0  0  0  0  0  0  0  0
  -19.5572   -6.4906   24.9985 C   0  0  0  0  0  0  0  0  0  0  0  0
  -21.2540   -5.7222   23.4598 C   0  0  0  0  0  0  0  0  0  0  0  0
  -24.5996  -11.6553   20.7266 C   0  0  0  0  0  0  0  0  0  0  0  0
  -25.2507  -13.7546   20.6646 C   0  0  0  0  0  0  0  0  0  0  0  0
  -22.9241  -13.4372   21.5216 C   0  0  0  0  0  0  0  0  0  0  0  0
  -31.3980  -27.2116   21.7501 C   0  0  0  0  0  0  0  0  0  0  0  0
  -28.6318  -25.8662   20.7204 C   0  0  0  0  0  0  0  0  0  0  0  0
  -26.5888  -23.1334   20.6526 C   0  0  0  0  0  0  0  0  0  0  0  0
  -30.7176  -14.8106   20.7025 C   0  0  0  0  0  0  0  0  0  0  0  0
  -32.2664  -32.0109   20.2433 C   0  0  0  0  0  0  0  0  0  0  0  0
  -32.2328  -25.0627   20.7297 C   0  0  0  0  0  0  0  0  0  0  0  0
  -29.9061  -24.6073   22.4971 C   0  0  0  0  0  0  0  0  0  0  0  0
  -31.0326  -31.1823   20.5919 C   0  0  0  0  0  0  0  0  0  0  0  0
  -29.5072  -12.6170   18.1726 C   0  0  0  0  0  0  0  0  0  0  0  0
  -31.2344  -30.4561   21.9180 C   0  0  0  0  0  0  0  0  0  0  0  0
  -28.0877  -12.2793   18.6344 C   0  0  0  0  0  0  0  0  0  0  0  0
  -30.4724  -12.7402   19.3503 C   0  0  0  0  0  0  0  0  0  0  0  0
  -28.6249  -13.3247   20.8716 C   0  0  0  0  0  0  0  0  0  0  0  0
  -32.4149  -29.4807   21.8388 C   0  0  1  0  0  0  0  0  0  0  0  0
  -31.0889  -26.0675   20.8264 C   0  0  1  0  0  0  0  0  0  0  0  0
  -27.6030  -13.2543   19.7252 C   0  0  2  0  0  0  0  0  0  0  0  0
  -28.4952  -17.2838   23.3994 C   0  0  0  0  0  0  0  0  0  0  0  0
  -24.3780  -22.3482   19.7619 C   0  0  0  0  0  0  0  0  0  0  0  0
  -27.1944  -27.4650   22.8856 C   0  0  0  0  0  0  0  0  0  0  0  0
  -25.2156  -25.9609   22.5848 C   0  0  0  0  0  0  0  0  0  0  0  0
  -26.0027  -27.3779   20.6886 C   0  0  0  0  0  0  0  0  0  0  0  0
  -34.1283  -18.8484   25.5478 C   0  0  0  0  0  0  0  0  0  0  0  0
  -27.8623  -20.9961   19.0498 C   0  0  0  0  0  0  0  0  0  0  0  0
  -31.9213  -19.6955   26.3604 C   0  0  0  0  0  0  0  0  0  0  0  0
  -31.5248  -20.9880   25.6667 C   0  0  0  0  0  0  0  0  0  1  0  0
  -27.3713  -25.3701   21.3868 C   0  0  1  0  0  0  0  0  0  0  0  0
  -25.8747  -22.4377   19.5077 C   0  0  2  0  0  0  0  0  0  0  0  0
  -26.4715  -26.5327   21.8930 C   0  0  0  0  0  0  0  0  0  0  0  0
  -25.8456  -11.6052   20.2481 N   0  0  0  0  0  0  0  0  0  0  0  0
  -26.2145  -12.8972   20.2218 N   0  0  0  0  0  0  0  0  0  0  0  0
  -29.8428  -25.4614   21.2996 N   0  0  0  0  0  0  0  0  0  0  0  0
  -29.9496  -13.6834   20.3412 N   0  0  0  0  0  0  0  0  0  0  0  0
  -25.4555  -15.0884   20.7049 N   0  0  0  0  0  0  0  0  0  0  0  0
  -21.9290  -12.4954   21.8169 N   0  0  0  0  0  0  0  0  0  0  0  0
  -30.1042  -15.6534   21.6288 N   0  0  0  0  0  0  0  0  0  0  0  0
  -32.0290  -28.2762   21.1354 N   0  0  0  0  0  0  0  0  0  0  0  0
  -26.7214  -24.4868   20.4247 N   0  0  0  0  0  0  0  0  0  0  0  0
  -32.6679  -18.8499   25.4572 N   0  0  3  0  0  0  0  0  0  0  0  0
  -26.4046  -21.0562   19.3298 N   0  3  0  0  0  0  0  0  0  0  0  0
  -22.6883  -14.6561   21.7013 O   0  0  0  0  0  0  0  0  0  0  0  0
  -31.0857  -27.1348   22.9325 O   0  0  0  0  0  0  0  0  0  0  0  0
  -28.5451  -26.5806   19.7185 O   0  0  0  0  0  0  0  0  0  0  0  0
  -26.9857  -22.5365   21.6509 O   0  0  0  0  0  0  0  0  0  0  0  0
  -31.8254  -15.0277   20.2048 O   0  0  0  0  0  0  0  0  0  0  0  0
  -21.6702   -6.9441   21.4270 O   0  0  0  0  0  0  0  0  0  0  0  0
  -32.6992  -21.6858   25.2542 O   0  0  0  0  0  0  0  0  0  1  0  0
  -18.8800   -6.3466   26.1452 F   0  0  0  0  0  0  0  0  0  0  0  0
  -22.2053   -4.8364   23.1340 F   0  0  0  0  0  0  0  0  0  0  0  0
  1  2  1  0  0  0  0
  1  5  2  0  0  0  0
  2  6  2  0  0  0  0
  3 10  2  0  0  0  0
  3 18  1  0  0  0  0
  4 11  1  0  0  0  0
  4 18  2  0  0  0  0
  5 20  1  0  0  0  0
  6 22  1  0  0  0  0
  7 12  2  0  0  0  0
  7 21  1  0  0  0  0
  8  9  2  0  0  0  0
  8 25  1  0  0  0  0
  9 26  1  0  0  0  0
 10 27  1  0  0  0  0
 11 27  2  0  0  0  0
 12 28  1  0  0  0  0
 13 14  2  0  0  0  0
 13 29  1  0  0  0  0
 14 30  1  0  0  0  0
 15 23  1  0  0  0  0
 15 28  2  0  0  0  0
 16 24  1  0  0  0  0
 16 25  2  0  0  0  0
 17 30  2  0  0  0  0
 17 31  1  0  0  0  0
 18 32  1  0  0  0  0
 19 32  1  0  0  0  0
 19 33  2  0  0  0  0
 19 34  1  0  0  0  0
 20 22  2  0  0  0  0
 20 39  1  0  0  0  0
 21 23  2  0  0  0  0
 21 40  1  0  0  0  0
 22 48  1  0  0  0  0
 23 41  1  0  0  0  0
 24 26  2  0  0  0  0
 24 51  1  0  0  0  0
 25 72  1  0  0  0  0
 26 69  1  0  0  0  0
 27 79  1  0  0  0  0
 28 80  1  0  0  0  0
 29 31  2  0  0  0  0
 29 79  1  0  0  0  0
 30 81  1  0  0  0  0
 31 82  1  0  0  0  0
 32 63  2  0  0  0  0
 33 64  1  0  0  0  0
 33 67  1  0  0  0  0
 34 68  1  0  0  0  0
 34 74  2  0  0  0  0
 35 49  1  0  0  0  0
 35 70  1  0  0  0  0
 35 75  2  0  0  0  0
 36 60  1  0  0  0  0
 36 65  1  0  0  0  0
 36 76  2  0  0  0  0
 37 61  1  0  0  0  0
 37 71  1  0  0  0  0
 37 77  2  0  0  0  0
 38 66  1  0  0  0  0
 38 69  1  0  0  0  0
 38 78  2  0  0  0  0
 39 42  1  0  0  0  0
 40 49  1  0  0  0  0
 41 65  1  0  0  0  0
 42 44  1  0  0  0  0
 43 45  1  0  0  0  0
 43 46  1  0  0  0  0
 44 48  1  0  0  0  0
 45 50  1  0  0  0  0
 46 66  1  0  0  0  0
 47 50  1  0  0  0  0
 47 66  1  0  0  0  0
 48 70  1  0  0  0  0
 49 65  1  0  0  0  0
 50 64  1  0  0  0  0
 52 61  1  0  0  0  0
 53 62  1  0  0  0  0
 54 62  1  0  0  0  0
 55 62  1  0  0  0  0
 56 72  1  0  0  0  0
 57 73  1  0  0  0  0
 58 59  1  0  0  0  0
 58 72  1  0  0  0  0
 59 80  1  0  0  0  0
 60 62  1  0  0  0  0
 60 71  1  0  0  0  0
 61 73  1  0  0  0  0
 63 64  1  0  0  0  0
M  CHG  1  73   1
M  ISO  4  38 100  59 101  69 100  80 101
M  END
> <Batch ID>
0013

> <Smiles>
CNC(C)C(=O)NC(C(=O)N1Cc2cc([101O:1][101CH2:1]CN(C)c3ccc([100NH:0][100C:0](=O)N4CCCC(n5nc(-c6ccc(Oc7ccc(F)cc7F)cc6)c(C(N)=O)c5N)C4)c(C)c3)ccc2CC1C(=O)NC1CCCc2ccccc21)C(C)(C)C

> <Shape>
0.212

> <Color>
0.215

> <Negative vol penalty>
0.000

$$$$

  -OEChem-04042320483D

 82 90  0     1  0  0  0  0  0999 V2000
  -35.8843  -31.1724   20.0880 C   0  0  0  0  0  0  0  0  0  0  0  0
  -35.9659  -30.0121   20.8512 C   0  0  0  0  0  0  0  0  0  0  0  0
  -23.0446   -9.9682   19.8682 C   0  0  0  0  0  0  0  0  0  0  0  0
  -23.9072   -9.7577   22.1151 C   0  0  0  0  0  0  0  0  0  0  0  0
  -34.6520  -31.7974   19.9014 C   0  0  0  0  0  0  0  0  0  0  0  0
  -34.8153  -29.4767   21.4290 C   0  0  0  0  0  0  0  0  0  0  0  0
  -33.5360  -23.5471   22.2711 C   0  0  0  0  0  0  0  0  0  0  0  0
  -29.9970  -17.2351   23.4676 C   0  0  0  0  0  0  0  0  0  0  0  0
  -30.6256  -18.0307   24.4254 C   0  0  0  0  0  0  0  0  0  0  0  0
  -22.3109   -8.7944   20.0399 C   0  0  0  0  0  0  0  0  0  0  0  0
  -23.1734   -8.5839   22.2868 C   0  0  0  0  0  0  0  0  0  0  0  0
  -33.6499  -22.7114   23.3813 C   0  0  0  0  0  0  0  0  0  0  0  0
  -19.9744   -7.7235   22.9551 C   0  0  0  0  0  0  0  0  0  0  0  0
  -19.2710   -7.5697   24.1497 C   0  0  0  0  0  0  0  0  0  0  0  0
  -31.3272  -23.0997   23.9042 C   0  0  0  0  0  0  0  0  0  0  0  0
  -32.1514  -16.4538   22.7026 C   0  0  0  0  0  0  0  0  0  0  0  0
  -20.5411   -5.5740   24.6406 C   0  0  0  0  0  0  0  0  0  0  0  0
  -23.8428  -10.4498   20.9058 C   0  0  0  0  0  0  0  0  0  0  0  0
  -24.1831  -12.9757   21.0127 C   0  0  0  0  0  0  0  0  0  0  0  0
  -33.4843  -31.2640   20.4692 C   0  0  0  0  0  0  0  0  0  0  0  0
  -32.3177  -24.1750   21.9749 C   0  0  0  0  0  0  0  0  0  0  0  0
  -33.5665  -30.0958   21.2509 C   0  0  0  0  0  0  0  0  0  0  0  0
  -31.1998  -23.9408   22.7883 C   0  0  0  0  0  0  0  0  0  0  0  0
  -30.7599  -16.4466   22.6062 C   0  0  0  0  0  0  0  0  0  0  0  0
  -32.0171  -18.0380   24.5218 C   0  0  0  0  0  0  0  0  0  0  0  0
  -22.3752   -8.1023   21.2492 C   0  0  0  0  0  0  0  0  0  0  0  0
  -32.5462  -22.4899   24.1997 C   0  0  0  0  0  0  0  0  0  0  0  0
  -20.9611   -6.8025   22.6032 C   0  0  0  0  0  0  0  0  0  0  0  0
  -19.5543   -6.4949   24.9925 C   0  0  0  0  0  0  0  0  0  0  0  0
  -32.7801  -17.2495   23.6604 C   0  0  0  0  0  0  0  0  0  0  0  0
  -21.2445   -5.7278   23.4459 C   0  0  0  0  0  0  0  0  0  0  0  0
  -24.6015  -11.6619   20.7288 C   0  0  0  0  0  0  0  0  0  0  0  0
  -25.2590  -13.7594   20.6740 C   0  0  0  0  0  0  0  0  0  0  0  0
  -22.9337  -13.4457   21.5359 C   0  0  0  0  0  0  0  0  0  0  0  0
  -31.3406  -27.1930   21.7724 C   0  0  0  0  0  0  0  0  0  0  0  0
  -28.5966  -25.8247   20.7140 C   0  0  0  0  0  0  0  0  0  0  0  0
  -26.5782  -23.0743   20.6232 C   0  0  0  0  0  0  0  0  0  0  0  0
  -30.7292  -14.7981   20.7015 C   0  0  0  0  0  0  0  0  0  0  0  0
  -32.1823  -32.0012   20.2789 C   0  0  0  0  0  0  0  0  0  0  0  0
  -32.2042  -25.0524   20.7585 C   0  0  0  0  0  0  0  0  0  0  0  0
  -29.8640  -24.5751   22.5021 C   0  0  0  0  0  0  0  0  0  0  0  0
  -30.9523  -31.1616   20.6144 C   0  0  0  0  0  0  0  0  0  0  0  0
  -29.5051  -12.6190   18.1657 C   0  0  0  0  0  0  0  0  0  0  0  0
  -31.1472  -30.4358   21.9418 C   0  0  0  0  0  0  0  0  0  0  0  0
  -28.0858  -12.2838   18.6298 C   0  0  0  0  0  0  0  0  0  0  0  0
  -30.4739  -12.7342   19.3412 C   0  0  0  0  0  0  0  0  0  0  0  0
  -28.6324  -13.3181   20.8700 C   0  0  0  0  0  0  0  0  0  0  0  0
  -32.3369  -29.4707   21.8734 C   0  0  1  0  0  0  0  0  0  0  0  0
  -31.0508  -26.0471   20.8447 C   0  0  1  0  0  0  0  0  0  0  0  0
  -27.6071  -13.2558   19.7261 C   0  0  2  0  0  0  0  0  0  0  0  0
  -24.3833  -22.2709   19.7097 C   0  0  0  0  0  0  0  0  0  0  0  0
  -27.1239  -27.4087   22.8661 C   0  0  0  0  0  0  0  0  0  0  0  0
  -25.1614  -25.8879   22.5442 C   0  0  0  0  0  0  0  0  0  0  0  0
  -25.9549  -27.3135   20.6573 C   0  0  0  0  0  0  0  0  0  0  0  0
  -34.1054  -18.8499   25.5895 C   0  0  0  0  0  0  0  0  0  0  0  0
  -27.8862  -20.9498   19.0312 C   0  0  0  0  0  0  0  0  0  0  0  0
  -31.8832  -19.6770   26.3808 C   0  0  0  0  0  0  0  0  0  0  0  0
  -31.4824  -20.9667   25.6844 C   0  0  0  0  0  0  0  0  0  1  0  0
  -27.3339  -25.3170   21.3673 C   0  0  1  0  0  0  0  0  0  0  0  0
  -25.8816  -22.3737   19.4706 C   0  0  2  0  0  0  0  0  0  0  0  0
  -26.4191  -26.4712   21.8655 C   0  0  0  0  0  0  0  0  0  0  0  0
  -25.8460  -11.6099   20.2467 N   0  0  0  0  0  0  0  0  0  0  0  0
  -26.2189  -12.9009   20.2250 N   0  0  0  0  0  0  0  0  0  0  0  0
  -29.8052  -25.4298   21.3048 N   0  0  0  0  0  0  0  0  0  0  0  0
  -29.9568  -13.6749   20.3376 N   0  0  0  0  0  0  0  0  0  0  0  0
  -25.4681  -15.0923   20.7194 N   0  0  0  0  0  0  0  0  0  0  0  0
  -21.9365  -12.5057   21.8299 N   0  0  0  0  0  0  0  0  0  0  0  0
  -30.1210  -15.6388   21.6330 N   0  0  0  0  0  0  0  0  0  0  0  0
  -31.9685  -28.2637   21.1651 N   0  0  0  0  0  0  0  0  0  0  0  0
  -26.7013  -24.4291   20.3979 N   0  0  0  0  0  0  0  0  0  0  0  0
  -32.6460  -18.8389   25.4844 N   0  0  3  0  0  0  0  0  0  0  0  0
  -26.4253  -20.9970   19.2967 N   0  3  0  0  0  0  0  0  0  0  0  0
  -22.7023  -14.6645   21.7214 O   0  0  0  0  0  0  0  0  0  0  0  0
  -31.0172  -27.1123   22.9517 O   0  0  0  0  0  0  0  0  0  0  0  0
  -28.5138  -26.5393   19.7119 O   0  0  0  0  0  0  0  0  0  0  0  0
  -26.9703  -22.4799   21.6249 O   0  0  0  0  0  0  0  0  0  0  0  0
  -31.8363  -15.0138   20.2018 O   0  0  0  0  0  0  0  0  0  0  0  0
  -21.6592   -6.9570   21.4172 O   0  0  0  0  0  0  0  0  0  0  0  0
  -32.6547  -21.6752   25.2843 O   0  0  0  0  0  0  0  0  0  1  0  0
  -18.8798   -6.3482   26.1404 F   0  0  0  0  0  0  0  0  0  0  0  0
  -34.1181  -17.2502   23.7434 F   0  0  0  0  0  0  0  0  0  0  0  0
  -22.1922   -4.8404   23.1138 F   0  0  0  0  0  0  0  0  0  0  0  0
  1  2  1  0  0  0  0
  1  5  2  0  0  0  0
  2  6  2  0  0  0  0
  3 10  2  0  0  0  0
  3 18  1  0  0  0  0
  4 11  1  0  0  0  0
  4 18  2  0  0  0  0
  5 20  1  0  0  0  0
  6 22  1  0  0  0  0
  7 12  2  0  0  0  0
  7 21  1  0  0  0  0
  8  9  2  0  0  0  0
  8 24  1  0  0  0  0
  9 25  1  0  0  0  0
 10 26  1  0  0  0  0
 11 26  2  0  0  0  0
 12 27  1  0  0  0  0
 13 14  2  0  0  0  0
 13 28  1  0  0  0  0
 14 29  1  0  0  0  0
 15 23  1  0  0  0  0
 15 27  2  0  0  0  0
 16 24  2  0  0  0  0
 16 30  1  0  0  0  0
 17 29  2  0  0  0  0
 17 31  1  0  0  0  0
 18 32  1  0  0  0  0
 19 32  1  0  0  0  0
 19 33  2  0  0  0  0
 19 34  1  0  0  0  0
 20 22  2  0  0  0  0
 20 39  1  0  0  0  0
 21 23  2  0  0  0  0
 21 40  1  0  0  0  0
 22 48  1  0  0  0  0
 23 41  1  0  0  0  0
 24 68  1  0  0  0  0
 25 30  2  0  0  0  0
 25 71  1  0  0  0  0
 26 78  1  0  0  0  0
 27 79  1  0  0  0  0
 28 31  2  0  0  0  0
 28 78  1  0  0  0  0
 29 80  1  0  0  0  0
 30 81  1  0  0  0  0
 31 82  1  0  0  0  0
 32 62  2  0  0  0  0
 33 63  1  0  0  0  0
 33 66  1  0  0  0  0
 34 67  1  0  0  0  0
 34 73  2  0  0  0  0
 35 49  1  0  0  0  0
 35 69  1  0  0  0  0
 35 74  2  0  0  0  0
 36 59  1  0  0  0  0
 36 64  1  0  0  0  0
 36 75  2  0  0  0  0
 37 60  1  0  0  0  0
 37 70  1  0  0  0  0
 37 76  2  0  0  0  0
 38 65  1  0  0  0  0
 38 68  1  0  0  0  0
 38 77  2  0  0  0  0
 39 42  1  0  0  0  0
 40 49  1  0  0  0  0
 41 64  1  0  0  0  0
 42 44  1  0  0  0  0
 43 45  1  0  0  0  0
 43 46  1  0  0  0  0
 44 48  1  0  0  0  0
 45 50  1  0  0  0  0
 46 65  1  0  0  0  0
 47 50  1  0  0  0  0
 47 65  1  0  0  0  0
 48 69  1  0  0  0  0
 49 64  1  0  0  0  0
 50 63  1  0  0  0  0
 51 60  1  0  0  0  0
 52 61  1  0  0  0  0
 53 61  1  0  0  0  0
 54 61  1  0  0  0  0
 55 71  1  0  0  0  0
 56 72  1  0  0  0  0
 57 58  1  0  0  0  0
 57 71  1  0  0  0  0
 58 79  1  0  0  0  0
 59 61  1  0  0  0  0
 59 70  1  0  0  0  0
 60 72  1  0  0  0  0
 62 63  1  0  0  0  0
M  CHG  1  72   1
M  ISO  4  38 100  58 101  68 100  79 101
M  END
> <Batch ID>
0013

> <Smiles>
CNC(C)C(=O)NC(C(=O)N1Cc2cc([101O:1][101CH2:1]CN(C)c3ccc([100NH:0][100C:0](=O)N4CCCC(n5nc(-c6ccc(Oc7ccc(F)cc7F)cc6)c(C(N)=O)c5N)C4)cc3F)ccc2CC1C(=O)NC1CCCc2ccccc21)C(C)(C)C

> <Shape>
0.211

> <Color>
0.214

> <Negative vol penalty>
0.000

$$$$

  -OEChem-04042320483D

 84 93  0     1  0  0  0  0  0999 V2000
  -30.9779  -34.0094   13.3559 C   0  0  0  0  0  0  0  0  0  0  0  0
  -30.9779  -32.6615   13.7003 C   0  0  0  0  0  0  0  0  0  0  0  0
  -23.0133  -10.0011   19.8860 C   0  0  0  0  0  0  0  0  0  0  0  0
  -23.9400   -9.7313   22.1008 C   0  0  0  0  0  0  0  0  0  0  0  0
  -30.7349  -34.9767   14.3301 C   0  0  0  0  0  0  0  0  0  0  0  0
  -30.7360  -32.2802   15.0196 C   0  0  0  0  0  0  0  0  0  0  0  0
  -27.7843  -27.2617   16.9192 C   0  0  0  0  0  0  0  0  0  0  0  0
  -29.3006  -18.6536   21.5640 C   0  0  0  0  0  0  0  0  0  0  0  0
  -31.4386  -18.5502   20.4435 C   0  0  0  0  0  0  0  0  0  0  0  0
  -28.9788  -19.8039   20.8438 C   0  0  0  0  0  0  0  0  0  0  0  0
  -31.1167  -19.7005   19.7232 C   0  0  0  0  0  0  0  0  0  0  0  0
  -22.2895   -8.8194   20.0448 C   0  0  0  0  0  0  0  0  0  0  0  0
  -23.2162   -8.5496   22.2597 C   0  0  0  0  0  0  0  0  0  0  0  0
  -28.2358  -26.0221   17.3698 C   0  0  0  0  0  0  0  0  0  0  0  0
  -20.0409   -7.6550   22.9931 C   0  0  0  0  0  0  0  0  0  0  0  0
  -19.3722   -7.4640   24.2022 C   0  0  0  0  0  0  0  0  0  0  0  0
  -28.0326  -26.7836   19.6497 C   0  0  0  0  0  0  0  0  0  0  0  0
  -20.6639   -5.4614   24.6002 C   0  0  0  0  0  0  0  0  0  0  0  0
  -23.8386  -10.4570   20.9139 C   0  0  0  0  0  0  0  0  0  0  0  0
  -24.1715  -12.9806   21.0830 C   0  0  0  0  0  0  0  0  0  0  0  0
  -30.4804  -34.6066   15.6601 C   0  0  0  0  0  0  0  0  0  0  0  0
  -27.4633  -28.2770   17.8317 C   0  0  0  0  0  0  0  0  0  0  0  0
  -30.4907  -33.2435   16.0129 C   0  0  0  0  0  0  0  0  0  0  0  0
  -27.5747  -28.0344   19.2082 C   0  0  0  0  0  0  0  0  0  0  0  0
  -30.5306  -18.0267   21.3639 C   0  0  0  0  0  0  0  0  0  0  0  0
  -29.8868  -20.3274   19.9234 C   0  0  0  0  0  0  0  0  0  0  0  0
  -22.3909   -8.0936   21.2317 C   0  0  0  0  0  0  0  0  0  0  0  0
  -28.3628  -25.7838   18.7352 C   0  0  0  0  0  0  0  0  0  0  0  0
  -21.0210   -6.7491   22.5875 C   0  0  0  0  0  0  0  0  0  0  0  0
  -19.6837   -6.3672   25.0058 C   0  0  0  0  0  0  0  0  0  0  0  0
  -21.3325   -5.6524   23.3910 C   0  0  0  0  0  0  0  0  0  0  0  0
  -24.5870  -11.6774   20.7502 C   0  0  0  0  0  0  0  0  0  0  0  0
  -25.2341  -13.7788   20.7365 C   0  0  0  0  0  0  0  0  0  0  0  0
  -28.3630  -22.2434   19.2782 C   0  0  0  0  0  0  0  0  0  0  0  0
  -22.9354  -13.4294   21.6544 C   0  0  0  0  0  0  0  0  0  0  0  0
  -28.5701  -31.1986   18.4175 C   0  0  0  0  0  0  0  0  0  0  0  0
  -26.0657  -31.3121   20.4760 C   0  0  0  0  0  0  0  0  0  0  0  0
  -23.8265  -29.6126   22.4110 C   0  0  0  0  0  0  0  0  0  0  0  0
  -30.7172  -14.8151   20.6483 C   0  0  0  0  0  0  0  0  0  0  0  0
  -30.2699  -35.6903   16.6876 C   0  0  0  0  0  0  0  0  0  0  0  0
  -26.9521  -29.5998   17.3303 C   0  0  0  0  0  0  0  0  0  0  0  0
  -27.2237  -29.0842   20.2295 C   0  0  0  0  0  0  0  0  0  0  0  0
  -29.6515  -35.1846   17.9885 C   0  0  0  0  0  0  0  0  0  0  0  0
  -29.4062  -12.7339   18.0741 C   0  0  0  0  0  0  0  0  0  0  0  0
  -30.3575  -33.9163   18.4573 C   0  0  0  0  0  0  0  0  0  0  0  0
  -28.0044  -12.3762   18.5712 C   0  0  0  0  0  0  0  0  0  0  0  0
  -29.6622  -23.0909   17.4552 C   0  0  0  0  0  0  0  0  0  0  0  0
  -30.4093  -12.8127   19.2228 C   0  0  0  0  0  0  0  0  0  0  0  0
  -30.5015  -22.1354   18.2831 C   0  0  0  0  0  0  0  0  0  0  0  0
  -28.6151  -13.3500   20.8246 C   0  0  0  0  0  0  0  0  0  0  0  0
  -30.2080  -32.7891   17.4284 C   0  0  1  0  0  0  0  0  0  0  0  0
  -28.5090  -23.4494   18.3753 C   0  0  2  0  0  0  0  0  0  1  0  0
  -27.1439  -30.7334   18.3331 C   0  0  1  0  0  0  0  0  0  0  0  0
  -27.5568  -13.3137   19.7088 C   0  0  2  0  0  0  0  0  0  0  0  0
  -21.9266  -29.9794   24.0089 C   0  0  0  0  0  0  0  0  0  0  0  0
  -28.0522  -32.1028   22.6528 C   0  0  0  0  0  0  0  0  0  0  0  0
  -26.3082  -31.5297   24.3552 C   0  0  0  0  0  0  0  0  0  0  0  0
  -25.8890  -33.3566   22.7092 C   0  0  0  0  0  0  0  0  0  0  0  0
  -21.9269  -28.1601   20.6672 C   0  0  0  0  0  0  0  0  0  0  0  0
  -30.8746  -16.7968   22.1340 C   0  0  0  0  0  0  0  0  0  0  0  0
  -25.8575  -30.9525   21.9273 C   0  0  1  0  0  0  0  0  0  0  0  0
  -22.3213  -29.7420   22.5595 C   0  0  2  0  0  0  0  0  0  0  0  0
  -26.5353  -31.9661   22.8921 C   0  0  0  0  0  0  0  0  0  0  0  0
  -25.8176  -11.6451   20.2319 N   0  0  0  0  0  0  0  0  0  0  0  0
  -26.1844  -12.9380   20.2364 N   0  0  0  0  0  0  0  0  0  0  0  0
  -29.5576  -21.5043   19.1861 N   0  0  0  0  0  0  0  0  0  0  0  0
  -26.7344  -30.3635   19.6894 N   0  0  0  0  0  0  0  0  0  0  0  0
  -29.9258  -13.7189   20.2673 N   0  0  0  0  0  0  0  0  0  0  0  0
  -25.4390  -15.1109   20.8139 N   0  0  0  0  0  0  0  0  0  0  0  0
  -21.9508  -12.4767   21.9495 N   0  0  0  0  0  0  0  0  0  0  0  0
  -28.8909  -32.1959   17.5164 N   0  0  0  0  0  0  0  0  0  0  0  0
  -24.4163  -30.8228   22.1130 N   0  0  0  0  0  0  0  0  0  0  0  0
  -30.1819  -15.6274   21.6405 N   0  0  0  0  0  0  0  0  0  0  0  0
  -21.6455  -28.5013   22.0855 N   0  3  0  0  0  0  0  0  0  0  0  0
  -27.3759  -22.0594   19.9760 O   0  0  0  0  0  0  0  0  0  0  0  0
  -22.7044  -14.6414   21.8808 O   0  0  0  0  0  0  0  0  0  0  0  0
  -29.3234  -30.6913   19.2403 O   0  0  0  0  0  0  0  0  0  0  0  0
  -25.6440  -32.3918   20.0540 O   0  0  0  0  0  0  0  0  0  0  0  0
  -24.4202  -28.5454   22.5495 O   0  0  0  0  0  0  0  0  0  0  0  0
  -31.8167  -15.0553   20.1381 O   0  0  0  0  0  0  0  0  0  0  0  0
  -21.6846   -6.9406   21.3872 O   0  0  0  0  0  0  0  0  0  0  0  0
  -28.8040  -24.5749   19.1777 O   0  0  0  0  0  0  0  0  0  1  0  0
  -19.0426   -6.1848   26.1676 F   0  0  0  0  0  0  0  0  0  0  0  0
  -22.2741   -4.7794   23.0072 F   0  0  0  0  0  0  0  0  0  0  0  0
  1  2  1  0  0  0  0
  1  5  2  0  0  0  0
  2  6  2  0  0  0  0
  3 12  2  0  0  0  0
  3 19  1  0  0  0  0
  4 13  1  0  0  0  0
  4 19  2  0  0  0  0
  5 21  1  0  0  0  0
  6 23  1  0  0  0  0
  7 14  2  0  0  0  0
  7 22  1  0  0  0  0
  8 10  2  0  0  0  0
  8 25  1  0  0  0  0
  9 11  1  0  0  0  0
  9 25  2  0  0  0  0
 10 26  1  0  0  0  0
 11 26  2  0  0  0  0
 12 27  1  0  0  0  0
 13 27  2  0  0  0  0
 14 28  1  0  0  0  0
 15 16  2  0  0  0  0
 15 29  1  0  0  0  0
 16 30  1  0  0  0  0
 17 24  1  0  0  0  0
 17 28  2  0  0  0  0
 18 30  2  0  0  0  0
 18 31  1  0  0  0  0
 19 32  1  0  0  0  0
 20 32  1  0  0  0  0
 20 33  2  0  0  0  0
 20 35  1  0  0  0  0
 21 23  2  0  0  0  0
 21 40  1  0  0  0  0
 22 24  2  0  0  0  0
 22 41  1  0  0  0  0
 23 51  1  0  0  0  0
 24 42  1  0  0  0  0
 25 60  1  0  0  0  0
 26 66  1  0  0  0  0
 27 81  1  0  0  0  0
 28 82  1  0  0  0  0
 29 31  2  0  0  0  0
 29 81  1  0  0  0  0
 30 83  1  0  0  0  0
 31 84  1  0  0  0  0
 32 64  2  0  0  0  0
 33 65  1  0  0  0  0
 33 69  1  0  0  0  0
 34 52  1  0  0  0  0
 34 66  1  0  0  0  0
 34 75  2  0  0  0  0
 35 70  1  0  0  0  0
 35 76  2  0  0  0  0
 36 53  1  0  0  0  0
 36 71  1  0  0  0  0
 36 77  2  0  0  0  0
 37 61  1  0  0  0  0
 37 67  1  0  0  0  0
 37 78  2  0  0  0  0
 38 62  1  0  0  0  0
 38 72  1  0  0  0  0
 38 79  2  0  0  0  0
 39 68  1  0  0  0  0
 39 73  1  0  0  0  0
 39 80  2  0  0  0  0
 40 43  1  0  0  0  0
 41 53  1  0  0  0  0
 42 67  1  0  0  0  0
 43 45  1  0  0  0  0
 44 46  1  0  0  0  0
 44 48  1  0  0  0  0
 45 51  1  0  0  0  0
 46 54  1  0  0  0  0
 47 49  1  0  0  0  0
 47 52  1  0  0  0  0
 48 68  1  0  0  0  0
 49 66  1  0  0  0  0
 50 54  1  0  0  0  0
 50 68  1  0  0  0  0
 51 71  1  0  0  0  0
 52 82  1  0  0  0  0
 53 67  1  0  0  0  0
 54 65  1  0  0  0  0
 55 62  1  0  0  0  0
 56 63  1  0  0  0  0
 57 63  1  0  0  0  0
 58 63  1  0  0  0  0
 59 74  1  0  0  0  0
 60 73  1  0  0  0  0
 61 63  1  0  0  0  0
 61 72  1  0  0  0  0
 62 74  1  0  0  0  0
 64 65  1  0  0  0  0
M  CHG  1  74   1
M  ISO  4  39 100  52 101  73 100  82 101
M  END
> <Batch ID>
0013

> <Smiles>
CNC(C)C(=O)NC(C(=O)N1Cc2cc([101O:1][101CH:1]3CCN(c4ccc(C[100NH:0][100C:0](=O)N5CCCC(n6nc(-c7ccc(Oc8ccc(F)cc8F)cc7)c(C(N)=O)c6N)C5)cc4)C3=O)ccc2CC1C(=O)NC1CCCc2ccccc21)C(C)(C)C

> <Shape>
0.334

> <Color>
0.195

> <Negative vol penalty>
0.000

$$$$

  -OEChem-04042320483D

 84 92  0     1  0  0  0  0  0999 V2000
  -28.0640  -24.0773   17.8984 C   0  0  0  0  0  0  0  0  0  0  0  0
  -26.8776  -24.3700   18.5634 C   0  0  0  0  0  0  0  0  0  0  0  0
  -26.0986  -14.3320   20.3907 C   0  0  0  0  0  0  0  0  0  0  0  0
  -27.0316  -13.6281   18.2763 C   0  0  0  0  0  0  0  0  0  0  0  0
  -29.2617  -24.6467   18.3285 C   0  0  0  0  0  0  0  0  0  0  0  0
  -26.8885  -25.2316   19.6598 C   0  0  0  0  0  0  0  0  0  0  0  0
  -23.1245  -28.6160   19.5085 C   0  0  0  0  0  0  0  0  0  0  0  0
  -21.4202  -22.6087   20.1223 C   0  0  0  0  0  0  0  0  0  0  0  0
  -23.3933  -23.3319   21.3144 C   0  0  0  0  0  0  0  0  0  0  0  0
  -25.8330  -13.0020   20.7164 C   0  0  0  0  0  0  0  0  0  0  0  0
  -26.7661  -12.2980   18.6019 C   0  0  0  0  0  0  0  0  0  0  0  0
  -21.8551  -28.1734   19.8781 C   0  0  0  0  0  0  0  0  0  0  0  0
  -20.6233  -23.3615   20.9847 C   0  0  0  0  0  0  0  0  0  0  0  0
  -22.5964  -24.0847   22.1768 C   0  0  0  0  0  0  0  0  0  0  0  0
  -23.5085  -10.6686   19.9572 C   0  0  0  0  0  0  0  0  0  0  0  0
  -22.2590  -10.3725   20.5018 C   0  0  0  0  0  0  0  0  0  0  0  0
  -22.1548  -29.1556   22.0609 C   0  0  0  0  0  0  0  0  0  0  0  0
  -23.3288   -9.5230   22.4946 C   0  0  0  0  0  0  0  0  0  0  0  0
  -26.6979  -14.6451   19.1706 C   0  0  0  0  0  0  0  0  0  0  0  0
  -28.1464  -16.7441   19.1100 C   0  0  0  0  0  0  0  0  0  0  0  0
  -29.2858  -25.5233   19.4247 C   0  0  0  0  0  0  0  0  0  0  0  0
  -23.9243  -29.3234   20.4175 C   0  0  0  0  0  0  0  0  0  0  0  0
  -28.0879  -25.8122   20.1058 C   0  0  0  0  0  0  0  0  0  0  0  0
  -23.4329  -29.6082   21.6996 C   0  0  0  0  0  0  0  0  0  0  0  0
  -22.8053  -22.5938   20.2872 C   0  0  0  0  0  0  0  0  0  0  0  0
  -26.1668  -11.9850   19.8220 C   0  0  0  0  0  0  0  0  0  0  0  0
  -21.2113  -24.0995   22.0119 C   0  0  0  0  0  0  0  0  0  0  0  0
  -21.3712  -28.4407   21.1554 C   0  0  0  0  0  0  0  0  0  0  0  0
  -24.6683  -10.3918   20.6812 C   0  0  0  0  0  0  0  0  0  0  0  0
  -22.1691   -9.7998   21.7705 C   0  0  0  0  0  0  0  0  0  0  0  0
  -24.5784   -9.8190   21.9499 C   0  0  0  0  0  0  0  0  0  0  0  0
  -26.9719  -16.0189   18.8334 C   0  0  0  0  0  0  0  0  0  0  0  0
  -27.9097  -17.9927   18.5890 C   0  0  0  0  0  0  0  0  0  0  0  0
  -25.8261  -20.3593   21.8958 C   0  0  0  0  0  0  0  0  0  0  0  0
  -24.9192  -20.4631   20.9177 C   0  0  0  0  0  0  0  0  0  0  0  0
  -29.3442  -16.3264   19.7782 C   0  0  0  0  0  0  0  0  0  0  0  0
  -26.7494  -28.8194   21.7844 C   0  0  0  0  0  0  0  0  0  0  0  0
  -26.3015  -31.8264   22.9158 C   0  0  0  0  0  0  0  0  0  0  0  0
  -24.1189  -34.3204   23.7301 C   0  0  0  0  0  0  0  0  0  0  0  0
  -23.2452  -21.5806   18.0567 C   0  0  0  0  0  0  0  0  0  0  0  0
  -30.6119  -26.0772   19.8822 C   0  0  0  0  0  0  0  0  0  0  0  0
  -25.2807  -29.8170   19.9946 C   0  0  0  0  0  0  0  0  0  0  0  0
  -24.2439  -30.3815   22.7059 C   0  0  0  0  0  0  0  0  0  0  0  0
  -30.4810  -27.2742   20.8205 C   0  0  0  0  0  0  0  0  0  0  0  0
  -24.8280  -19.8485   15.2099 C   0  0  0  0  0  0  0  0  0  0  0  0
  -29.4400  -26.9948   21.9000 C   0  0  0  0  0  0  0  0  0  0  0  0
  -25.5959  -18.7138   15.8859 C   0  0  0  0  0  0  0  0  0  0  0  0
  -23.5836  -20.2408   16.0007 C   0  0  0  0  0  0  0  0  0  0  0  0
  -24.6294  -19.4508   18.1013 C   0  0  0  0  0  0  0  0  0  0  0  0
  -28.0553  -26.7616   21.2839 C   0  0  1  0  0  0  0  0  0  0  0  0
  -26.2137  -30.0826   21.1720 C   0  0  1  0  0  0  0  0  0  0  0  0
  -25.9121  -19.0618   17.3508 C   0  0  1  0  0  0  0  0  0  0  0  0
  -24.0471  -36.6474   24.6666 C   0  0  0  0  0  0  0  0  0  0  0  0
  -26.7967  -30.7131   25.7132 C   0  0  0  0  0  0  0  0  0  0  0  0
  -25.7950  -32.8083   26.6486 C   0  0  0  0  0  0  0  0  0  0  0  0
  -27.8686  -32.9282   25.2671 C   0  0  0  0  0  0  0  0  0  0  0  0
  -22.8991  -35.4016   21.2599 C   0  0  0  0  0  0  0  0  0  0  0  0
  -24.9914  -21.4718   19.8199 C   0  0  0  0  0  0  0  0  0  0  0  0
  -18.8469  -26.6466   23.0391 C   0  0  0  0  0  0  0  0  0  0  0  0
  -19.2164  -25.3555   22.3258 C   0  0  0  0  0  0  0  0  0  0  0  0
  -19.9301  -27.7045   22.8981 C   0  0  0  0  0  0  0  0  0  1  0  0
  -25.6599  -32.4212   24.1460 C   0  0  1  0  0  0  0  0  0  0  0  0
  -24.1162  -35.8029   23.4038 C   0  0  2  0  0  0  0  0  0  0  0  0
  -26.5153  -32.2015   25.4257 C   0  0  0  0  0  0  0  0  0  0  0  0
  -26.0570  -16.7463   18.1870 N   0  0  0  0  0  0  0  0  0  0  0  0
  -26.6566  -17.9415   18.0531 N   0  0  0  0  0  0  0  0  0  0  0  0
  -25.5665  -30.8373   22.2470 N   0  0  0  0  0  0  0  0  0  0  0  0
  -23.9050  -20.5222   17.4004 N   0  0  0  0  0  0  0  0  0  0  0  0
  -28.6534  -19.1184   18.5415 N   0  0  0  0  0  0  0  0  0  0  0  0
  -29.4208  -15.0094   20.2513 N   0  0  0  0  0  0  0  0  0  0  0  0
  -27.4529  -28.0211   20.9029 N   0  0  0  0  0  0  0  0  0  0  0  0
  -25.4006  -33.8226   23.8341 N   0  0  0  0  0  0  0  0  0  0  0  0
  -23.6303  -21.8145   19.3946 N   0  0  0  0  0  0  0  0  0  0  0  0
  -22.9453  -36.1425   22.5467 N   0  3  0  0  0  0  0  0  0  0  0  0
  -30.3114  -17.1031   19.9650 O   0  0  0  0  0  0  0  0  0  0  0  0
  -26.5411  -28.5870   22.9695 O   0  0  0  0  0  0  0  0  0  0  0  0
  -27.4108  -32.2297   22.5573 O   0  0  0  0  0  0  0  0  0  0  0  0
  -23.0872  -33.6698   23.8815 O   0  0  0  0  0  0  0  0  0  0  0  0
  -22.4013  -22.2792   17.4828 O   0  0  0  0  0  0  0  0  0  0  0  0
  -25.9080  -10.6870   20.1395 O   0  0  0  0  0  0  0  0  0  0  0  0
  -20.4283  -24.8393   22.8594 O   0  0  0  0  0  0  0  0  0  0  0  0
  -20.1328  -28.0093   21.5189 O   0  0  0  0  0  0  0  0  0  1  0  0
  -20.9691   -9.5170   22.2940 F   0  0  0  0  0  0  0  0  0  0  0  0
  -25.6889   -9.5519   22.6507 F   0  0  0  0  0  0  0  0  0  0  0  0
  1  2  1  0  0  0  0
  1  5  2  0  0  0  0
  2  6  2  0  0  0  0
  3 10  2  0  0  0  0
  3 19  1  0  0  0  0
  4 11  1  0  0  0  0
  4 19  2  0  0  0  0
  5 21  1  0  0  0  0
  6 23  1  0  0  0  0
  7 12  2  0  0  0  0
  7 22  1  0  0  0  0
  8 13  2  0  0  0  0
  8 25  1  0  0  0  0
  9 14  1  0  0  0  0
  9 25  2  0  0  0  0
 10 26  1  0  0  0  0
 11 26  2  0  0  0  0
 12 28  1  0  0  0  0
 13 27  1  0  0  0  0
 14 27  2  0  0  0  0
 15 16  2  0  0  0  0
 15 29  1  0  0  0  0
 16 30  1  0  0  0  0
 17 24  1  0  0  0  0
 17 28  2  0  0  0  0
 18 30  2  0  0  0  0
 18 31  1  0  0  0  0
 19 32  1  0  0  0  0
 20 32  1  0  0  0  0
 20 33  2  0  0  0  0
 20 36  1  0  0  0  0
 21 23  2  0  0  0  0
 21 41  1  0  0  0  0
 22 24  2  0  0  0  0
 22 42  1  0  0  0  0
 23 50  1  0  0  0  0
 24 43  1  0  0  0  0
 25 73  1  0  0  0  0
 26 80  1  0  0  0  0
 27 81  1  0  0  0  0
 28 82  1  0  0  0  0
 29 31  2  0  0  0  0
 29 80  1  0  0  0  0
 30 83  1  0  0  0  0
 31 84  1  0  0  0  0
 32 65  2  0  0  0  0
 33 66  1  0  0  0  0
 33 69  1  0  0  0  0
 34 35  2  0  0  0  0
 35 58  1  0  0  0  0
 36 70  1  0  0  0  0
 36 75  2  0  0  0  0
 37 51  1  0  0  0  0
 37 71  1  0  0  0  0
 37 76  2  0  0  0  0
 38 62  1  0  0  0  0
 38 67  1  0  0  0  0
 38 77  2  0  0  0  0
 39 63  1  0  0  0  0
 39 72  1  0  0  0  0
 39 78  2  0  0  0  0
 40 68  1  0  0  0  0
 40 73  1  0  0  0  0
 40 79  2  0  0  0  0
 41 44  1  0  0  0  0
 42 51  1  0  0  0  0
 43 67  1  0  0  0  0
 44 46  1  0  0  0  0
 45 47  1  0  0  0  0
 45 48  1  0  0  0  0
 46 50  1  0  0  0  0
 47 52  1  0  0  0  0
 48 68  1  0  0  0  0
 49 52  1  0  0  0  0
 49 68  1  0  0  0  0
 50 71  1  0  0  0  0
 51 67  1  0  0  0  0
 52 66  1  0  0  0  0
 53 63  1  0  0  0  0
 54 64  1  0  0  0  0
 55 64  1  0  0  0  0
 56 64  1  0  0  0  0
 57 74  1  0  0  0  0
 58 73  1  0  0  0  0
 59 60  1  0  0  0  0
 59 61  1  0  0  0  0
 60 81  1  0  0  0  0
 61 82  1  0  0  0  0
 62 64  1  0  0  0  0
 62 72  1  0  0  0  0
 63 74  1  0  0  0  0
 65 66  1  0  0  0  0
M  CHG  1  74   1
M  ISO  4  40 100  61 101  73 100  82 101
M  END
> <Batch ID>
0013

> <Smiles>
C=CC[100N:0](c1ccc(OCC[101CH2:1][101O:1]c2ccc3c(c2)CN(C(=O)C(NC(=O)C(C)NC)C(C)(C)C)C(C(=O)NC2CCCc4ccccc42)C3)cc1)[100C:0](=O)N1CCCC(n2nc(-c3ccc(Oc4ccc(F)cc4F)cc3)c(C(N)=O)c2N)C1

> <Shape>
0.295

> <Color>
0.074

> <Negative vol penalty>
0.000

$$$$

  -OEChem-04042320483D

 84 92  0     1  0  0  0  0  0999 V2000
  -18.2632  -27.7558   22.4330 C   0  0  0  0  0  0  0  0  0  0  0  0
  -19.2141  -26.7797   22.1532 C   0  0  0  0  0  0  0  0  0  0  0  0
  -29.7994  -17.6401   17.6520 C   0  0  0  0  0  0  0  0  0  0  0  0
  -23.4212   -9.6536   19.8991 C   0  0  0  0  0  0  0  0  0  0  0  0
  -23.8539   -9.8827   22.2650 C   0  0  0  0  0  0  0  0  0  0  0  0
  -18.6637  -28.9951   22.9309 C   0  0  0  0  0  0  0  0  0  0  0  0
  -20.5662  -27.0426   22.3700 C   0  0  0  0  0  0  0  0  0  0  0  0
  -24.8366  -23.0683   24.2341 C   0  0  0  0  0  0  0  0  0  0  0  0
  -29.4767  -16.9122   18.7972 C   0  0  0  0  0  0  0  0  0  0  0  0
  -29.6315  -19.0248   17.6353 C   0  0  0  0  0  0  0  0  0  0  0  0
  -22.7737   -8.4409   20.1350 C   0  0  0  0  0  0  0  0  0  0  0  0
  -23.2063   -8.6701   22.5009 C   0  0  0  0  0  0  0  0  0  0  0  0
  -25.7989  -22.3329   23.5434 C   0  0  0  0  0  0  0  0  0  0  0  0
  -20.0262   -7.5509   22.7358 C   0  0  0  0  0  0  0  0  0  0  0  0
  -19.1238   -7.4957   23.7979 C   0  0  0  0  0  0  0  0  0  0  0  0
  -27.4368  -24.0381   24.0218 C   0  0  0  0  0  0  0  0  0  0  0  0
  -28.8181  -18.9535   19.9092 C   0  0  0  0  0  0  0  0  0  0  0  0
  -20.4464   -5.7578   24.8313 C   0  0  0  0  0  0  0  0  0  0  0  0
  -23.9614  -10.3745   20.9641 C   0  0  0  0  0  0  0  0  0  0  0  0
  -24.0529  -12.9104   20.7027 C   0  0  0  0  0  0  0  0  0  0  0  0
  -20.0206  -29.2699   23.1630 C   0  0  0  0  0  0  0  0  0  0  0  0
  -25.1651  -24.3015   24.8155 C   0  0  0  0  0  0  0  0  0  0  0  0
  -20.9854  -28.2871   22.8702 C   0  0  0  0  0  0  0  0  0  0  0  0
  -26.4775  -24.7860   24.7215 C   0  0  0  0  0  0  0  0  0  0  0  0
  -28.9860  -17.5688   19.9258 C   0  0  0  0  0  0  0  0  0  0  0  0
  -29.1408  -19.6814   18.7639 C   0  0  0  0  0  0  0  0  0  0  0  0
  -22.6662   -7.9491   21.4359 C   0  0  0  0  0  0  0  0  0  0  0  0
  -27.0984  -22.8191   23.4347 C   0  0  0  0  0  0  0  0  0  0  0  0
  -21.1387   -6.7094   22.7213 C   0  0  0  0  0  0  0  0  0  0  0  0
  -19.3339   -6.5992   24.8457 C   0  0  0  0  0  0  0  0  0  0  0  0
  -21.3488   -5.8130   23.7691 C   0  0  0  0  0  0  0  0  0  0  0  0
  -24.6310  -11.6270   20.7211 C   0  0  0  0  0  0  0  0  0  0  0  0
  -25.1009  -13.7552   20.4300 C   0  0  0  0  0  0  0  0  0  0  0  0
  -22.6903  -13.3038   20.9133 C   0  0  0  0  0  0  0  0  0  0  0  0
  -24.1965  -27.3016   24.4096 C   0  0  0  0  0  0  0  0  0  0  0  0
  -26.1023  -27.8527   26.9761 C   0  0  0  0  0  0  0  0  0  0  0  0
  -28.7573  -26.8639   28.8787 C   0  0  0  0  0  0  0  0  0  0  0  0
  -30.4644  -15.1307   21.7176 C   0  0  0  0  0  0  0  0  0  0  0  0
  -20.4094  -30.6407   23.6575 C   0  0  0  0  0  0  0  0  0  0  0  0
  -24.1223  -25.0699   25.5800 C   0  0  0  0  0  0  0  0  0  0  0  0
  -26.8863  -26.0946   25.3451 C   0  0  0  0  0  0  0  0  0  0  0  0
  -21.8298  -30.7077   24.2127 C   0  0  0  0  0  0  0  0  0  0  0  0
  -29.8223  -12.7924   18.9209 C   0  0  0  0  0  0  0  0  0  0  0  0
  -22.8053  -30.0118   23.2689 C   0  0  0  0  0  0  0  0  0  0  0  0
  -28.3885  -12.3381   19.1892 C   0  0  0  0  0  0  0  0  0  0  0  0
  -30.5445  -13.1800   20.2077 C   0  0  0  0  0  0  0  0  0  0  0  0
  -28.3926  -13.7473   21.2855 C   0  0  0  0  0  0  0  0  0  0  0  0
  -22.4595  -28.5258   23.1155 C   0  0  1  0  0  0  0  0  0  0  0  0
  -24.4394  -26.5579   25.6924 C   0  0  1  0  0  0  0  0  0  0  0  0
  -27.6219  -13.3939   20.0046 C   0  0  2  0  0  0  0  0  0  0  0  0
  -30.0994  -27.5374   30.8893 C   0  0  0  0  0  0  0  0  0  0  0  0
  -27.4944  -30.0062   25.3225 C   0  0  0  0  0  0  0  0  0  0  0  0
  -29.3709  -29.9671   26.9794 C   0  0  0  0  0  0  0  0  0  0  0  0
  -27.0791  -30.6289   27.7087 C   0  0  0  0  0  0  0  0  0  0  0  0
  -29.3120  -21.8365   17.5446 C   0  0  0  0  0  0  0  0  0  0  0  0
  -30.5063  -17.4186   22.6362 C   0  0  0  0  0  0  0  0  0  0  0  0
  -28.0571  -24.3776   30.3233 C   0  0  0  0  0  0  0  0  0  0  0  0
  -28.6405  -16.7901   21.1497 C   0  0  0  0  0  0  0  0  0  0  0  0
  -29.5606  -22.0524   20.9052 C   0  0  0  0  0  0  0  0  0  0  0  0
  -28.4545  -21.7830   19.8921 C   0  0  0  0  0  0  0  0  0  0  0  0
  -29.0782  -22.8407   22.1172 C   0  0  0  0  0  0  0  0  0  1  0  0
  -27.5572  -28.2051   27.1713 C   0  0  1  0  0  0  0  0  0  0  0  0
  -28.9220  -26.7201   30.3809 C   0  0  2  0  0  0  0  0  0  0  0  0
  -27.8675  -29.6780   26.7820 C   0  0  0  0  0  0  0  0  0  0  0  0
  -25.9444  -11.6495   20.4792 N   0  0  0  0  0  0  0  0  0  0  0  0
  -26.2002  -12.9575   20.3061 N   0  0  0  0  0  0  0  0  0  0  0  0
  -25.8293  -26.8122   26.0769 N   0  0  0  0  0  0  0  0  0  0  0  0
  -29.7740  -14.1519   20.9841 N   0  0  0  0  0  0  0  0  0  0  0  0
  -25.1802  -15.0952   20.2864 N   0  0  0  0  0  0  0  0  0  0  0  0
  -21.7414  -12.3081   21.1825 N   0  0  0  0  0  0  0  0  0  0  0  0
  -22.9077  -27.7805   24.2723 N   0  0  0  0  0  0  0  0  0  0  0  0
  -27.8753  -27.8734   28.5560 N   0  0  0  0  0  0  0  0  0  0  0  0
  -28.9724  -21.0735   18.7472 N   0  0  3  0  0  0  0  0  0  0  0  0
  -29.8258  -16.3678   21.8927 N   0  0  0  0  0  0  0  0  0  0  0  0
  -29.1499  -25.2924   30.7427 N   0  3  0  0  0  0  0  0  0  0  0  0
  -22.3221  -14.5012   20.8480 O   0  0  0  0  0  0  0  0  0  0  0  0
  -25.1113  -27.4326   23.6047 O   0  0  0  0  0  0  0  0  0  0  0  0
  -25.2403  -28.4727   27.6039 O   0  0  0  0  0  0  0  0  0  0  0  0
  -29.3545  -26.1544   28.0722 O   0  0  0  0  0  0  0  0  0  0  0  0
  -31.5916  -14.9147   22.1809 O   0  0  0  0  0  0  0  0  0  0  0  0
  -22.0341   -6.7660   21.6665 O   0  0  0  0  0  0  0  0  0  0  0  0
  -28.0394  -22.1036   22.7606 O   0  0  0  0  0  0  0  0  0  1  0  0
  -18.4681   -6.5475   25.8664 F   0  0  0  0  0  0  0  0  0  0  0  0
  -22.4163   -5.0030   23.7613 F   0  0  0  0  0  0  0  0  0  0  0  0
  1  2  1  0  0  0  0
  1  6  2  0  0  0  0
  2  7  2  0  0  0  0
  3  9  1  0  0  0  0
  3 10  2  0  0  0  0
  4 11  2  0  0  0  0
  4 19  1  0  0  0  0
  5 12  1  0  0  0  0
  5 19  2  0  0  0  0
  6 21  1  0  0  0  0
  7 23  1  0  0  0  0
  8 13  2  0  0  0  0
  8 22  1  0  0  0  0
  9 25  2  0  0  0  0
 10 26  1  0  0  0  0
 11 27  1  0  0  0  0
 12 27  2  0  0  0  0
 13 28  1  0  0  0  0
 14 15  2  0  0  0  0
 14 29  1  0  0  0  0
 15 30  1  0  0  0  0
 16 24  1  0  0  0  0
 16 28  2  0  0  0  0
 17 25  1  0  0  0  0
 17 26  2  0  0  0  0
 18 30  2  0  0  0  0
 18 31  1  0  0  0  0
 19 32  1  0  0  0  0
 20 32  1  0  0  0  0
 20 33  2  0  0  0  0
 20 34  1  0  0  0  0
 21 23  2  0  0  0  0
 21 39  1  0  0  0  0
 22 24  2  0  0  0  0
 22 40  1  0  0  0  0
 23 48  1  0  0  0  0
 24 41  1  0  0  0  0
 25 58  1  0  0  0  0
 26 73  1  0  0  0  0
 27 81  1  0  0  0  0
 28 82  1  0  0  0  0
 29 31  2  0  0  0  0
 29 81  1  0  0  0  0
 30 83  1  0  0  0  0
 31 84  1  0  0  0  0
 32 65  2  0  0  0  0
 33 66  1  0  0  0  0
 33 69  1  0  0  0  0
 34 70  1  0  0  0  0
 34 76  2  0  0  0  0
 35 49  1  0  0  0  0
 35 71  1  0  0  0  0
 35 77  2  0  0  0  0
 36 62  1  0  0  0  0
 36 67  1  0  0  0  0
 36 78  2  0  0  0  0
 37 63  1  0  0  0  0
 37 72  1  0  0  0  0
 37 79  2  0  0  0  0
 38 68  1  0  0  0  0
 38 74  1  0  0  0  0
 38 80  2  0  0  0  0
 39 42  1  0  0  0  0
 40 49  1  0  0  0  0
 41 67  1  0  0  0  0
 42 44  1  0  0  0  0
 43 45  1  0  0  0  0
 43 46  1  0  0  0  0
 44 48  1  0  0  0  0
 45 50  1  0  0  0  0
 46 68  1  0  0  0  0
 47 50  1  0  0  0  0
 47 68  1  0  0  0  0
 48 71  1  0  0  0  0
 49 67  1  0  0  0  0
 50 66  1  0  0  0  0
 51 63  1  0  0  0  0
 52 64  1  0  0  0  0
 53 64  1  0  0  0  0
 54 64  1  0  0  0  0
 55 73  1  0  0  0  0
 56 74  1  0  0  0  0
 57 75  1  0  0  0  0
 58 74  1  0  0  0  0
 59 60  1  0  0  0  0
 59 61  1  0  0  0  0
 60 73  1  0  0  0  0
 61 82  1  0  0  0  0
 62 64  1  0  0  0  0
 62 72  1  0  0  0  0
 63 75  1  0  0  0  0
 65 66  1  0  0  0  0
M  CHG  1  75   1
M  ISO  4  38 100  61 101  74 100  82 101
M  END
> <Batch ID>
0013

> <Smiles>
CNC(C)C(=O)NC(C(=O)N1Cc2cc([101O:1][101CH2:1]CCN(C)c3cccc(C[100N:0](C)[100C:0](=O)N4CCCC(n5nc(-c6ccc(Oc7ccc(F)cc7F)cc6)c(C(N)=O)c5N)C4)c3)ccc2CC1C(=O)NC1CCCc2ccccc21)C(C)(C)C

> <Shape>
0.295

> <Color>
0.187

> <Negative vol penalty>
0.000

$$$$

  -OEChem-04042320483D

 84 92  0     1  0  0  0  0  0999 V2000
  -31.4236  -25.3022   17.9806 C   0  0  0  0  0  0  0  0  0  0  0  0
  -30.0554  -25.0846   18.1076 C   0  0  0  0  0  0  0  0  0  0  0  0
  -27.6019  -14.9096   19.6827 C   0  0  0  0  0  0  0  0  0  0  0  0
  -25.2173  -15.2028   19.4290 C   0  0  0  0  0  0  0  0  0  0  0  0
  -32.1076  -26.0220   18.9593 C   0  0  0  0  0  0  0  0  0  0  0  0
  -29.3706  -25.5858   19.2140 C   0  0  0  0  0  0  0  0  0  0  0  0
  -23.6239  -27.6992   19.3395 C   0  0  0  0  0  0  0  0  0  0  0  0
  -20.2889  -22.4991   21.9390 C   0  0  0  0  0  0  0  0  0  0  0  0
  -21.5442  -22.1818   21.4200 C   0  0  0  0  0  0  0  0  0  0  0  0
  -27.3979  -13.5855   20.0709 C   0  0  0  0  0  0  0  0  0  0  0  0
  -25.0132  -13.8787   19.8171 C   0  0  0  0  0  0  0  0  0  0  0  0
  -22.4178  -27.1148   19.7235 C   0  0  0  0  0  0  0  0  0  0  0  0
  -24.9422  -12.1095   22.6974 C   0  0  0  0  0  0  0  0  0  0  0  0
  -23.9289  -11.8538   23.6211 C   0  0  0  0  0  0  0  0  0  0  0  0
  -22.6385  -28.1101   21.9097 C   0  0  0  0  0  0  0  0  0  0  0  0
  -22.5923  -23.5189   23.1378 C   0  0  0  0  0  0  0  0  0  0  0  0
  -22.8248  -10.4263   22.0148 C   0  0  0  0  0  0  0  0  0  0  0  0
  -26.5116  -15.7183   19.3618 C   0  0  0  0  0  0  0  0  0  0  0  0
  -26.9200  -17.5684   17.6536 C   0  0  0  0  0  0  0  0  0  0  0  0
  -31.4290  -26.5406   20.0735 C   0  0  0  0  0  0  0  0  0  0  0  0
  -24.3531  -28.4858   20.2427 C   0  0  0  0  0  0  0  0  0  0  0  0
  -30.0464  -26.3121   20.2093 C   0  0  0  0  0  0  0  0  0  0  0  0
  -23.8524  -28.7055   21.5339 C   0  0  0  0  0  0  0  0  0  0  0  0
  -20.1854  -23.3264   23.0573 C   0  0  0  0  0  0  0  0  0  0  0  0
  -22.6959  -22.6917   22.0194 C   0  0  0  0  0  0  0  0  0  0  0  0
  -26.1035  -13.0700   20.1381 C   0  0  0  0  0  0  0  0  0  0  0  0
  -21.9263  -27.3178   21.0097 C   0  0  0  0  0  0  0  0  0  0  0  0
  -24.8968  -11.5237   21.4323 C   0  0  0  0  0  0  0  0  0  0  0  0
  -22.8702  -11.0122   23.2799 C   0  0  0  0  0  0  0  0  0  0  0  0
  -21.3370  -23.8363   23.6567 C   0  0  0  0  0  0  0  0  0  0  0  0
  -23.8381  -10.6820   21.0910 C   0  0  0  0  0  0  0  0  0  0  0  0
  -26.7217  -17.0864   18.9613 C   0  0  0  0  0  0  0  0  0  0  0  0
  -27.0696  -18.9251   17.8068 C   0  0  0  0  0  0  0  0  0  0  0  0
  -26.9647  -16.8538   16.4115 C   0  0  0  0  0  0  0  0  0  0  0  0
  -27.2372  -28.2928   21.5650 C   0  0  0  0  0  0  0  0  0  0  0  0
  -26.4726  -31.2233   22.7271 C   0  0  0  0  0  0  0  0  0  0  0  0
  -24.0370  -33.4516   23.5926 C   0  0  0  0  0  0  0  0  0  0  0  0
  -25.2124  -22.7931   21.9655 C   0  0  0  0  0  0  0  0  0  0  0  0
  -32.2197  -27.2719   21.1293 C   0  0  0  0  0  0  0  0  0  0  0  0
  -25.6392  -29.1311   19.8045 C   0  0  0  0  0  0  0  0  0  0  0  0
  -24.5868  -29.5583   22.5348 C   0  0  0  0  0  0  0  0  0  0  0  0
  -31.3522  -28.0903   22.0822 C   0  0  0  0  0  0  0  0  0  0  0  0
  -28.5768  -22.1933   20.9662 C   0  0  0  0  0  0  0  0  0  0  0  0
  -30.1598  -27.2670   22.5590 C   0  0  0  0  0  0  0  0  0  0  0  0
  -28.4999  -20.8625   20.2144 C   0  0  0  0  0  0  0  0  0  0  0  0
  -27.6240  -22.2261   22.1599 C   0  0  0  0  0  0  0  0  0  0  0  0
  -26.1513  -20.5612   21.0978 C   0  0  0  0  0  0  0  0  0  0  0  0
  -29.2639  -26.8611   21.3825 C   0  0  1  0  0  0  0  0  0  0  0  0
  -26.5543  -29.4920   20.9705 C   0  0  1  0  0  0  0  0  0  0  0  0
  -27.0459  -20.5050   19.8487 C   0  0  2  0  0  0  0  0  0  0  0  0
  -23.7193  -35.7498   24.5490 C   0  0  0  0  0  0  0  0  0  0  0  0
  -27.1315  -30.1544   25.5080 C   0  0  0  0  0  0  0  0  0  0  0  0
  -25.9157  -32.1180   26.4746 C   0  0  0  0  0  0  0  0  0  0  0  0
  -27.9417  -32.4785   25.0647 C   0  0  0  0  0  0  0  0  0  0  0  0
  -22.6667  -34.4053   21.1489 C   0  0  0  0  0  0  0  0  0  0  0  0
  -17.5366  -25.5063   24.6734 C   0  0  0  0  0  0  0  0  0  0  0  0
  -18.8333  -23.6636   23.6135 C   0  0  0  0  0  0  0  0  0  0  0  0
  -18.5027  -27.1272   22.1361 C   0  0  0  0  0  0  0  0  0  0  0  0
  -18.1654  -25.6497   22.2680 C   0  0  0  0  0  0  0  0  0  0  0  0
  -19.9758  -27.4426   22.3646 C   0  0  0  0  0  0  0  0  0  1  0  0
  -25.7871  -31.7345   23.9711 C   0  0  1  0  0  0  0  0  0  0  0  0
  -23.8634  -34.9266   23.2785 C   0  0  2  0  0  0  0  0  0  0  0  0
  -26.6809  -31.6037   25.2366 C   0  0  0  0  0  0  0  0  0  0  0  0
  -26.7432  -18.0578   19.8778 N   0  0  0  0  0  0  0  0  0  0  0  0
  -26.9567  -19.1639   19.1449 N   0  0  0  0  0  0  0  0  0  0  0  0
  -25.8429  -30.1624   22.0608 N   0  0  0  0  0  0  0  0  0  0  0  0
  -26.2649  -21.8816   21.7369 N   0  0  0  0  0  0  0  0  0  0  0  0
  -27.2855  -19.9252   16.9261 N   0  0  0  0  0  0  0  0  0  0  0  0
  -26.7921  -15.4631   16.4341 N   0  0  0  0  0  0  0  0  0  0  0  0
  -23.9709  -22.3710   21.4911 N   0  0  0  0  0  0  0  0  0  0  0  0
  -28.4412  -27.9763   20.9654 N   0  0  0  0  0  0  0  0  0  0  0  0
  -25.3678  -33.0999   23.6743 N   0  0  0  0  0  0  0  0  0  0  0  0
  -22.6491  -35.1384   22.4409 N   0  3  0  0  0  0  0  0  0  0  0  0
  -18.5446  -25.1456   23.6088 N   0  3  1  0  0  0  0  0  0  0  0  0
  -27.1686  -17.4293   15.3157 O   0  0  0  0  0  0  0  0  0  0  0  0
  -26.7114  -27.6996   22.4996 O   0  0  0  0  0  0  0  0  0  0  0  0
  -27.5242  -31.7506   22.3560 O   0  0  0  0  0  0  0  0  0  0  0  0
  -23.0871  -32.6885   23.7535 O   0  0  0  0  0  0  0  0  0  0  0  0
  -25.4038  -23.8807   22.5155 O   0  0  0  0  0  0  0  0  0  0  0  0
  -25.9040  -11.7779   20.5166 O   0  0  0  0  0  0  0  0  0  0  0  0
  -20.7496  -26.7481   21.3873 O   0  0  0  0  0  0  0  0  0  1  0  0
  -21.8979  -10.7655   24.1676 F   0  0  0  0  0  0  0  0  0  0  0  0
  -21.2477  -24.6318   24.7316 F   0  0  0  0  0  0  0  0  0  0  0  0
  -23.7897  -10.1154   19.8776 F   0  0  0  0  0  0  0  0  0  0  0  0
  1  2  1  0  0  0  0
  1  5  2  0  0  0  0
  2  6  2  0  0  0  0
  3 10  2  0  0  0  0
  3 18  1  0  0  0  0
  4 11  1  0  0  0  0
  4 18  2  0  0  0  0
  5 20  1  0  0  0  0
  6 22  1  0  0  0  0
  7 12  2  0  0  0  0
  7 21  1  0  0  0  0
  8  9  2  0  0  0  0
  8 24  1  0  0  0  0
  9 25  1  0  0  0  0
 10 26  1  0  0  0  0
 11 26  2  0  0  0  0
 12 27  1  0  0  0  0
 13 14  2  0  0  0  0
 13 28  1  0  0  0  0
 14 29  1  0  0  0  0
 15 23  1  0  0  0  0
 15 27  2  0  0  0  0
 16 25  2  0  0  0  0
 16 30  1  0  0  0  0
 17 29  2  0  0  0  0
 17 31  1  0  0  0  0
 18 32  1  0  0  0  0
 19 32  1  0  0  0  0
 19 33  2  0  0  0  0
 19 34  1  0  0  0  0
 20 22  2  0  0  0  0
 20 39  1  0  0  0  0
 21 23  2  0  0  0  0
 21 40  1  0  0  0  0
 22 48  1  0  0  0  0
 23 41  1  0  0  0  0
 24 30  2  0  0  0  0
 24 57  1  0  0  0  0
 25 70  1  0  0  0  0
 26 80  1  0  0  0  0
 27 81  1  0  0  0  0
 28 31  2  0  0  0  0
 28 80  1  0  0  0  0
 29 82  1  0  0  0  0
 30 83  1  0  0  0  0
 31 84  1  0  0  0  0
 32 64  2  0  0  0  0
 33 65  1  0  0  0  0
 33 68  1  0  0  0  0
 34 69  1  0  0  0  0
 34 75  2  0  0  0  0
 35 49  1  0  0  0  0
 35 71  1  0  0  0  0
 35 76  2  0  0  0  0
 36 61  1  0  0  0  0
 36 66  1  0  0  0  0
 36 77  2  0  0  0  0
 37 62  1  0  0  0  0
 37 72  1  0  0  0  0
 37 78  2  0  0  0  0
 38 67  1  0  0  0  0
 38 70  1  0  0  0  0
 38 79  2  0  0  0  0
 39 42  1  0  0  0  0
 40 49  1  0  0  0  0
 41 66  1  0  0  0  0
 42 44  1  0  0  0  0
 43 45  1  0  0  0  0
 43 46  1  0  0  0  0
 44 48  1  0  0  0  0
 45 50  1  0  0  0  0
 46 67  1  0  0  0  0
 47 50  1  0  0  0  0
 47 67  1  0  0  0  0
 48 71  1  0  0  0  0
 49 66  1  0  0  0  0
 50 65  1  0  0  0  0
 51 62  1  0  0  0  0
 52 63  1  0  0  0  0
 53 63  1  0  0  0  0
 54 63  1  0  0  0  0
 55 73  1  0  0  0  0
 56 74  1  0  0  0  0
 57 74  1  0  0  0  0
 58 59  1  0  0  0  0
 58 60  1  0  0  0  0
 59 74  1  0  0  0  0
 60 81  1  0  0  0  0
 61 63  1  0  0  0  0
 61 72  1  0  0  0  0
 62 73  1  0  0  0  0
 64 65  1  0  0  0  0
M  CHG  2  73   1  74   1
M  ISO  4  38 100  60 101  70 100  81 101
M  END
> <Batch ID>
0013

> <Smiles>
CNC(C)C(=O)NC(C(=O)N1Cc2cc([101O:1][101CH2:1]CCN(C)Cc3ccc([100NH:0][100C:0](=O)N4CCCC(n5nc(-c6ccc(Oc7ccc(F)cc7F)cc6)c(C(N)=O)c5N)C4)cc3F)ccc2CC1C(=O)NC1CCCc2ccccc21)C(C)(C)C

> <Shape>
0.275

> <Color>
0.062

> <Negative vol penalty>
0.000

$$$$

  -OEChem-04042320483D

 83 91  0     1  0  0  0  0  0999 V2000
  -32.0418  -23.5754   18.0447 C   0  0  0  0  0  0  0  0  0  0  0  0
  -30.8106  -23.3853   18.6640 C   0  0  0  0  0  0  0  0  0  0  0  0
  -27.0748  -17.6544   19.0888 C   0  0  0  0  0  0  0  0  0  0  0  0
  -28.0122  -17.2376   21.2762 C   0  0  0  0  0  0  0  0  0  0  0  0
  -32.8279  -24.6764   18.3821 C   0  0  0  0  0  0  0  0  0  0  0  0
  -30.3654  -24.2956   19.6220 C   0  0  0  0  0  0  0  0  0  0  0  0
  -25.5022  -25.5584   18.9895 C   0  0  0  0  0  0  0  0  0  0  0  0
  -19.8813  -16.3134   20.9249 C   0  0  0  0  0  0  0  0  0  0  0  0
  -27.6447  -18.9275   19.0871 C   0  0  0  0  0  0  0  0  0  0  0  0
  -28.5822  -18.5107   21.2745 C   0  0  0  0  0  0  0  0  0  0  0  0
  -24.5449  -24.6430   19.4248 C   0  0  0  0  0  0  0  0  0  0  0  0
  -19.8901  -17.6703   21.2477 C   0  0  0  0  0  0  0  0  0  0  0  0
  -29.9840  -21.7842   22.0018 C   0  0  0  0  0  0  0  0  0  0  0  0
  -29.8681  -22.5480   23.1631 C   0  0  0  0  0  0  0  0  0  0  0  0
  -24.2346  -25.9343   21.4386 C   0  0  0  0  0  0  0  0  0  0  0  0
  -20.7248  -18.1899   19.0408 C   0  0  0  0  0  0  0  0  0  0  0  0
  -27.4605  -22.4566   22.9828 C   0  0  0  0  0  0  0  0  0  0  0  0
  -27.2585  -16.8095   20.1834 C   0  0  0  0  0  0  0  0  0  0  0  0
  -27.2487  -14.3026   19.7108 C   0  0  0  0  0  0  0  0  0  0  0  0
  -32.3877  -25.6058   19.3376 C   0  0  0  0  0  0  0  0  0  0  0  0
  -25.8414  -26.6645   19.7818 C   0  0  0  0  0  0  0  0  0  0  0  0
  -31.1469  -25.4093   19.9734 C   0  0  0  0  0  0  0  0  0  0  0  0
  -25.1947  -26.8636   21.0100 C   0  0  0  0  0  0  0  0  0  0  0  0
  -20.2944  -15.8947   19.6601 C   0  0  0  0  0  0  0  0  0  0  0  0
  -28.3985  -19.3556   20.1799 C   0  0  0  0  0  0  0  0  0  0  0  0
  -23.9130  -24.8293   20.6508 C   0  0  0  0  0  0  0  0  0  0  0  0
  -20.3118  -18.6086   20.3057 C   0  0  0  0  0  0  0  0  0  0  0  0
  -28.8382  -21.3566   21.3309 C   0  0  0  0  0  0  0  0  0  0  0  0
  -28.6064  -22.8842   23.6537 C   0  0  0  0  0  0  0  0  0  0  0  0
  -20.7161  -16.8330   18.7181 C   0  0  0  0  0  0  0  0  0  0  0  0
  -27.5765  -21.6928   21.8214 C   0  0  0  0  0  0  0  0  0  0  0  0
  -26.6695  -15.4945   20.1860 C   0  0  0  0  0  0  0  0  0  0  0  0
  -26.2935  -13.3422   19.9381 C   0  0  0  0  0  0  0  0  0  0  0  0
  -28.5352  -14.0832   19.1172 C   0  0  0  0  0  0  0  0  0  0  0  0
  -28.5005  -27.6790   21.1973 C   0  0  0  0  0  0  0  0  0  0  0  0
  -26.6831  -30.2786   21.8765 C   0  0  0  0  0  0  0  0  0  0  0  0
  -23.5682  -31.5992   22.3239 C   0  0  0  0  0  0  0  0  0  0  0  0
  -20.4843  -13.5027   20.3187 C   0  0  0  0  0  0  0  0  0  0  0  0
  -33.2935  -26.7548   19.7038 C   0  0  0  0  0  0  0  0  0  0  0  0
  -26.8567  -27.6572   19.2859 C   0  0  0  0  0  0  0  0  0  0  0  0
  -25.5083  -28.0459   21.8888 C   0  0  0  0  0  0  0  0  0  0  0  0
  -32.5815  -27.8757   20.4567 C   0  0  0  0  0  0  0  0  0  0  0  0
  -22.6599  -12.2792   22.8510 C   0  0  0  0  0  0  0  0  0  0  0  0
  -31.7101  -27.3018   21.5694 C   0  0  0  0  0  0  0  0  0  0  0  0
  -24.0004  -12.8644   22.4081 C   0  0  0  0  0  0  0  0  0  0  0  0
  -21.5080  -13.2620   22.6383 C   0  0  0  0  0  0  0  0  0  0  0  0
  -22.7561  -14.3749   20.8140 C   0  0  0  0  0  0  0  0  0  0  0  0
  -30.6184  -26.3881   20.9994 C   0  0  1  0  0  0  0  0  0  0  0  0
  -27.4957  -28.4696   20.4080 C   0  0  1  0  0  0  0  0  0  0  0  0
  -23.9241  -13.3875   20.9629 C   0  0  1  0  0  0  0  0  0  0  0  0
  -22.4031  -33.7434   22.9089 C   0  0  0  0  0  0  0  0  0  0  0  0
  -27.4468  -29.8917   24.8052 C   0  0  0  0  0  0  0  0  0  0  0  0
  -25.5561  -31.4107   25.4266 C   0  0  0  0  0  0  0  0  0  0  0  0
  -27.4390  -32.2710   24.0346 C   0  0  0  0  0  0  0  0  0  0  0  0
  -19.8224  -14.0875   17.9959 C   0  0  0  0  0  0  0  0  0  0  0  0
  -22.1520  -31.6736   19.7263 C   0  0  0  0  0  0  0  0  0  0  0  0
  -21.6520  -21.9331   20.8650 C   0  0  0  0  0  0  0  0  0  0  0  0
  -22.6946  -22.8328   20.2203 C   0  0  0  0  0  0  0  0  0  1  0  0
  -21.2977  -20.7482   19.9803 C   0  0  0  0  0  0  0  0  0  0  0  0
  -25.7669  -30.6763   23.0085 C   0  0  1  0  0  0  0  0  0  0  0  0
  -22.9225  -32.8623   21.7835 C   0  0  2  0  0  0  0  0  0  0  0  0
  -26.5475  -31.0390   24.3033 C   0  0  0  0  0  0  0  0  0  0  0  0
  -25.4413  -15.3106   20.6778 N   0  0  0  0  0  0  0  0  0  0  0  0
  -25.2410  -13.9920   20.5129 N   0  0  0  0  0  0  0  0  0  0  0  0
  -26.5127  -28.9851   21.3630 N   0  0  0  0  0  0  0  0  0  0  0  0
  -21.5002  -13.7646   21.2572 N   0  0  0  0  0  0  0  0  0  0  0  0
  -26.2595  -12.0138   19.7003 N   0  0  0  0  0  0  0  0  0  0  0  0
  -29.3932  -15.1799   18.9576 N   0  0  0  0  0  0  0  0  0  0  0  0
  -29.5411  -27.1761   20.4399 N   0  0  0  0  0  0  0  0  0  0  0  0
  -24.9277  -31.7536   22.4951 N   0  0  0  0  0  0  0  0  0  0  0  0
  -20.2843  -14.4891   19.3291 N   0  0  0  0  0  0  0  0  0  0  0  0
  -21.7802  -32.5187   20.8902 N   0  3  0  0  0  0  0  0  0  0  0  0
  -28.9063  -12.9512   18.7244 O   0  0  0  0  0  0  0  0  0  0  0  0
  -28.3441  -27.5370   22.4044 O   0  0  0  0  0  0  0  0  0  0  0  0
  -27.5145  -31.0884   21.4585 O   0  0  0  0  0  0  0  0  0  0  0  0
  -22.9299  -30.5790   22.5731 O   0  0  0  0  0  0  0  0  0  0  0  0
  -19.8245  -12.4568   20.3466 O   0  0  0  0  0  0  0  0  0  0  0  0
  -28.9550  -20.5977   20.1785 O   0  0  0  0  0  0  0  0  0  0  0  0
  -22.9787  -23.9371   21.0784 O   0  0  0  0  0  0  0  0  0  1  0  0
  -20.3192  -19.9421   20.6226 O   0  0  0  0  0  0  0  0  0  0  0  0
  -28.4952  -23.6164   24.7698 F   0  0  0  0  0  0  0  0  0  0  0  0
  -21.1157  -16.4418   17.4995 F   0  0  0  0  0  0  0  0  0  0  0  0
  -26.4721  -21.2840   21.1819 F   0  0  0  0  0  0  0  0  0  0  0  0
  1  2  1  0  0  0  0
  1  5  2  0  0  0  0
  2  6  2  0  0  0  0
  3  9  2  0  0  0  0
  3 18  1  0  0  0  0
  4 10  1  0  0  0  0
  4 18  2  0  0  0  0
  5 20  1  0  0  0  0
  6 22  1  0  0  0  0
  7 11  2  0  0  0  0
  7 21  1  0  0  0  0
  8 12  2  0  0  0  0
  8 24  1  0  0  0  0
  9 25  1  0  0  0  0
 10 25  2  0  0  0  0
 11 26  1  0  0  0  0
 12 27  1  0  0  0  0
 13 14  2  0  0  0  0
 13 28  1  0  0  0  0
 14 29  1  0  0  0  0
 15 23  1  0  0  0  0
 15 26  2  0  0  0  0
 16 27  2  0  0  0  0
 16 30  1  0  0  0  0
 17 29  2  0  0  0  0
 17 31  1  0  0  0  0
 18 32  1  0  0  0  0
 19 32  1  0  0  0  0
 19 33  2  0  0  0  0
 19 34  1  0  0  0  0
 20 22  2  0  0  0  0
 20 39  1  0  0  0  0
 21 23  2  0  0  0  0
 21 40  1  0  0  0  0
 22 48  1  0  0  0  0
 23 41  1  0  0  0  0
 24 30  2  0  0  0  0
 24 71  1  0  0  0  0
 25 78  1  0  0  0  0
 26 79  1  0  0  0  0
 27 80  1  0  0  0  0
 28 31  2  0  0  0  0
 28 78  1  0  0  0  0
 29 81  1  0  0  0  0
 30 82  1  0  0  0  0
 31 83  1  0  0  0  0
 32 63  2  0  0  0  0
 33 64  1  0  0  0  0
 33 67  1  0  0  0  0
 34 68  1  0  0  0  0
 34 73  2  0  0  0  0
 35 49  1  0  0  0  0
 35 69  1  0  0  0  0
 35 74  2  0  0  0  0
 36 60  1  0  0  0  0
 36 65  1  0  0  0  0
 36 75  2  0  0  0  0
 37 61  1  0  0  0  0
 37 70  1  0  0  0  0
 37 76  2  0  0  0  0
 38 66  1  0  0  0  0
 38 71  1  0  0  0  0
 38 77  2  0  0  0  0
 39 42  1  0  0  0  0
 40 49  1  0  0  0  0
 41 65  1  0  0  0  0
 42 44  1  0  0  0  0
 43 45  1  0  0  0  0
 43 46  1  0  0  0  0
 44 48  1  0  0  0  0
 45 50  1  0  0  0  0
 46 66  1  0  0  0  0
 47 50  1  0  0  0  0
 47 66  1  0  0  0  0
 48 69  1  0  0  0  0
 49 65  1  0  0  0  0
 50 64  1  0  0  0  0
 51 61  1  0  0  0  0
 52 62  1  0  0  0  0
 53 62  1  0  0  0  0
 54 62  1  0  0  0  0
 55 71  1  0  0  0  0
 56 72  1  0  0  0  0
 57 58  1  0  0  0  0
 57 59  1  0  0  0  0
 58 79  1  0  0  0  0
 59 80  1  0  0  0  0
 60 62  1  0  0  0  0
 60 70  1  0  0  0  0
 61 72  1  0  0  0  0
 63 64  1  0  0  0  0
M  CHG  1  72   1
M  ISO  4  38 100  58 101  71 100  79 101
M  END
> <Batch ID>
0013

> <Smiles>
CNC(C)C(=O)NC(C(=O)N1Cc2cc([101O:1][101CH2:1]CCOc3ccc([100N:0](C)[100C:0](=O)N4CCCC(n5nc(-c6ccc(Oc7ccc(F)cc7F)cc6)c(C(N)=O)c5N)C4)c(F)c3)ccc2CC1C(=O)NC1CCCc2ccccc21)C(C)(C)C

> <Shape>
0.251

> <Color>
0.064

> <Negative vol penalty>
0.000

$$$$

  -OEChem-04042320483D

 83 91  0     1  0  0  0  0  0999 V2000
  -26.8598  -19.1699   17.8141 C   0  0  0  0  0  0  0  0  0  0  0  0
  -27.5548  -19.5668   18.9520 C   0  0  0  0  0  0  0  0  0  0  0  0
  -23.0835   -9.9116   19.8944 C   0  0  0  0  0  0  0  0  0  0  0  0
  -23.8455   -9.8531   22.1863 C   0  0  0  0  0  0  0  0  0  0  0  0
  -27.0585  -19.8404   16.6080 C   0  0  0  0  0  0  0  0  0  0  0  0
  -28.4499  -20.6339   18.8841 C   0  0  0  0  0  0  0  0  0  0  0  0
  -27.9549  -23.8356   22.7763 C   0  0  0  0  0  0  0  0  0  0  0  0
  -30.3569  -18.3489   24.2730 C   0  0  0  0  0  0  0  0  0  0  0  0
  -32.5522  -17.5516   23.6549 C   0  0  0  0  0  0  0  0  0  0  0  0
  -29.7810  -17.4873   23.3394 C   0  0  0  0  0  0  0  0  0  0  0  0
  -31.9763  -16.6899   22.7213 C   0  0  0  0  0  0  0  0  0  0  0  0
  -22.3564   -8.7403   20.1062 C   0  0  0  0  0  0  0  0  0  0  0  0
  -23.1184   -8.6818   22.3982 C   0  0  0  0  0  0  0  0  0  0  0  0
  -28.5171  -23.4508   23.9927 C   0  0  0  0  0  0  0  0  0  0  0  0
  -23.4560   -5.3847   21.7304 C   0  0  0  0  0  0  0  0  0  0  0  0
  -24.0868   -4.3450   22.4135 C   0  0  0  0  0  0  0  0  0  0  0  0
  -30.4222  -24.8636   23.5522 C   0  0  0  0  0  0  0  0  0  0  0  0
  -22.3848   -4.4374   24.1257 C   0  0  0  0  0  0  0  0  0  0  0  0
  -23.8281  -10.4680   20.9344 C   0  0  0  0  0  0  0  0  0  0  0  0
  -24.1338  -13.0004   20.8983 C   0  0  0  0  0  0  0  0  0  0  0  0
  -27.9493  -20.9224   16.5275 C   0  0  0  0  0  0  0  0  0  0  0  0
  -28.6284  -24.7304   21.9323 C   0  0  0  0  0  0  0  0  0  0  0  0
  -28.6618  -21.3187   17.6754 C   0  0  0  0  0  0  0  0  0  0  0  0
  -29.8652  -25.2601   22.3268 C   0  0  0  0  0  0  0  0  0  0  0  0
  -31.7424  -18.3811   24.4307 C   0  0  0  0  0  0  0  0  0  0  0  0
  -30.5907  -16.6578   22.5636 C   0  0  0  0  0  0  0  0  0  0  0  0
  -22.3738   -8.1254   21.3581 C   0  0  0  0  0  0  0  0  0  0  0  0
  -29.7523  -23.9626   24.3795 C   0  0  0  0  0  0  0  0  0  0  0  0
  -22.2897   -5.9509   22.2450 C   0  0  0  0  0  0  0  0  0  0  0  0
  -23.5512   -3.8713   23.6111 C   0  0  0  0  0  0  0  0  0  0  0  0
  -21.7541   -5.4772   23.4426 C   0  0  0  0  0  0  0  0  0  0  0  0
  -24.5799  -11.6777   20.7161 C   0  0  0  0  0  0  0  0  0  0  0  0
  -25.2148  -13.7771   20.5596 C   0  0  0  0  0  0  0  0  0  0  0  0
  -22.8566  -13.4838   21.3349 C   0  0  0  0  0  0  0  0  0  0  0  0
  -29.8126  -24.5759   18.9865 C   0  0  0  0  0  0  0  0  0  0  0  0
  -30.3507  -27.7401   19.4559 C   0  0  0  0  0  0  0  0  0  0  0  0
  -30.8365  -30.3008   21.6590 C   0  0  0  0  0  0  0  0  0  0  0  0
  -30.6657  -14.8942   20.7662 C   0  0  0  0  0  0  0  0  0  0  0  0
  -28.1664  -21.5861   15.1907 C   0  0  0  0  0  0  0  0  0  0  0  0
  -27.9961  -25.1561   20.6356 C   0  0  0  0  0  0  0  0  0  0  0  0
  -30.6193  -26.2394   21.4661 C   0  0  0  0  0  0  0  0  0  0  0  0
  -28.8524  -22.9461   15.2901 C   0  0  0  0  0  0  0  0  0  0  0  0
  -29.5835  -12.5449   18.3195 C   0  0  0  0  0  0  0  0  0  0  0  0
  -30.0540  -22.8707   16.2268 C   0  0  0  0  0  0  0  0  0  0  0  0
  -28.1486  -12.2186   18.7398 C   0  0  0  0  0  0  0  0  0  0  0  0
  -30.4964  -12.7466   19.5276 C   0  0  0  0  0  0  0  0  0  0  0  0
  -28.5807  -13.3974   20.9332 C   0  0  0  0  0  0  0  0  0  0  0  0
  -29.6228  -22.4874   17.6475 C   0  0  1  0  0  0  0  0  0  0  0  0
  -29.0084  -25.6759   19.6195 C   0  0  1  0  0  0  0  0  0  0  0  0
  -27.6093  -13.2496   19.7508 C   0  0  2  0  0  0  0  0  0  0  0  0
  -31.2881  -32.7678   21.7435 C   0  0  0  0  0  0  0  0  0  0  0  0
  -33.2598  -27.2315   18.6886 C   0  0  0  0  0  0  0  0  0  0  0  0
  -33.8393  -29.4516   19.6903 C   0  0  0  0  0  0  0  0  0  0  0  0
  -32.2836  -29.3313   17.7440 C   0  0  0  0  0  0  0  0  0  0  0  0
  -28.3174  -30.8295   23.1195 C   0  0  0  0  0  0  0  0  0  0  0  0
  -33.4109  -20.9884   23.9262 C   0  0  0  0  0  0  0  0  0  0  0  0
  -32.3617  -19.3080   25.4349 C   0  0  0  0  0  0  0  0  0  0  0  0
  -31.1551  -21.7727   26.8821 C   0  0  0  0  0  0  0  0  0  0  0  0
  -32.4692  -21.6998   26.1192 C   0  0  0  0  0  0  0  0  0  0  0  0
  -29.9878  -22.2818   26.0454 C   0  0  0  0  0  0  0  0  0  1  0  0
  -31.4879  -28.5596   20.0164 C   0  0  1  0  0  0  0  0  0  0  0  0
  -30.2200  -31.6853   21.7461 C   0  0  2  0  0  0  0  0  0  0  0  0
  -32.7046  -28.6236   19.0504 C   0  0  0  0  0  0  0  0  0  0  0  0
  -25.8456  -11.6139   20.2941 N   0  0  0  0  0  0  0  0  0  0  0  0
  -26.2040  -12.9063   20.2084 N   0  0  0  0  0  0  0  0  0  0  0  0
  -29.9626  -26.6201   20.2046 N   0  0  0  0  0  0  0  0  0  0  0  0
  -29.9237  -13.7396   20.4391 N   0  0  0  0  0  0  0  0  0  0  0  0
  -25.4062  -15.1131   20.5309 N   0  0  0  0  0  0  0  0  0  0  0  0
  -21.8580  -12.5496   21.6422 N   0  0  0  0  0  0  0  0  0  0  0  0
  -30.0061  -15.7821   21.6153 N   0  0  0  0  0  0  0  0  0  0  0  0
  -29.0510  -23.6297   18.3277 N   0  0  0  0  0  0  0  0  0  0  0  0
  -30.9245  -29.8621   20.3548 N   0  0  0  0  0  0  0  0  0  0  0  0
  -29.4194  -31.8180   22.9961 N   0  3  0  0  0  0  0  0  0  0  0  0
  -32.3632  -20.7499   24.9870 N   0  3  1  0  0  0  0  0  0  0  0  0
  -22.6028  -14.7083   21.4333 O   0  0  0  0  0  0  0  0  0  0  0  0
  -31.0339  -24.5856   19.0871 O   0  0  0  0  0  0  0  0  0  0  0  0
  -29.8214  -28.0853   18.3965 O   0  0  0  0  0  0  0  0  0  0  0  0
  -31.2067  -29.6730   22.6486 O   0  0  0  0  0  0  0  0  0  0  0  0
  -31.7919  -15.0945   20.3038 O   0  0  0  0  0  0  0  0  0  0  0  0
  -21.6642   -6.9825   21.5652 O   0  0  0  0  0  0  0  0  0  0  0  0
  -30.3035  -23.5882   25.5660 O   0  0  0  0  0  0  0  0  0  1  0  0
  -24.1562   -2.8717   24.2662 F   0  0  0  0  0  0  0  0  0  0  0  0
  -20.6331   -6.0163   23.9413 F   0  0  0  0  0  0  0  0  0  0  0  0
  1  2  1  0  0  0  0
  1  5  2  0  0  0  0
  2  6  2  0  0  0  0
  3 12  2  0  0  0  0
  3 19  1  0  0  0  0
  4 13  1  0  0  0  0
  4 19  2  0  0  0  0
  5 21  1  0  0  0  0
  6 23  1  0  0  0  0
  7 14  2  0  0  0  0
  7 22  1  0  0  0  0
  8 10  2  0  0  0  0
  8 25  1  0  0  0  0
  9 11  1  0  0  0  0
  9 25  2  0  0  0  0
 10 26  1  0  0  0  0
 11 26  2  0  0  0  0
 12 27  1  0  0  0  0
 13 27  2  0  0  0  0
 14 28  1  0  0  0  0
 15 16  2  0  0  0  0
 15 29  1  0  0  0  0
 16 30  1  0  0  0  0
 17 24  1  0  0  0  0
 17 28  2  0  0  0  0
 18 30  2  0  0  0  0
 18 31  1  0  0  0  0
 19 32  1  0  0  0  0
 20 32  1  0  0  0  0
 20 33  2  0  0  0  0
 20 34  1  0  0  0  0
 21 23  2  0  0  0  0
 21 39  1  0  0  0  0
 22 24  2  0  0  0  0
 22 40  1  0  0  0  0
 23 48  1  0  0  0  0
 24 41  1  0  0  0  0
 25 57  1  0  0  0  0
 26 70  1  0  0  0  0
 27 80  1  0  0  0  0
 28 81  1  0  0  0  0
 29 31  2  0  0  0  0
 29 80  1  0  0  0  0
 30 82  1  0  0  0  0
 31 83  1  0  0  0  0
 32 64  2  0  0  0  0
 33 65  1  0  0  0  0
 33 68  1  0  0  0  0
 34 69  1  0  0  0  0
 34 75  2  0  0  0  0
 35 49  1  0  0  0  0
 35 71  1  0  0  0  0
 35 76  2  0  0  0  0
 36 61  1  0  0  0  0
 36 66  1  0  0  0  0
 36 77  2  0  0  0  0
 37 62  1  0  0  0  0
 37 72  1  0  0  0  0
 37 78  2  0  0  0  0
 38 67  1  0  0  0  0
 38 70  1  0  0  0  0
 38 79  2  0  0  0  0
 39 42  1  0  0  0  0
 40 49  1  0  0  0  0
 41 66  1  0  0  0  0
 42 44  1  0  0  0  0
 43 45  1  0  0  0  0
 43 46  1  0  0  0  0
 44 48  1  0  0  0  0
 45 50  1  0  0  0  0
 46 67  1  0  0  0  0
 47 50  1  0  0  0  0
 47 67  1  0  0  0  0
 48 71  1  0  0  0  0
 49 66  1  0  0  0  0
 50 65  1  0  0  0  0
 51 62  1  0  0  0  0
 52 63  1  0  0  0  0
 53 63  1  0  0  0  0
 54 63  1  0  0  0  0
 55 73  1  0  0  0  0
 56 74  1  0  0  0  0
 57 74  1  0  0  0  0
 58 59  1  0  0  0  0
 58 60  1  0  0  0  0
 59 74  1  0  0  0  0
 60 81  1  0  0  0  0
 61 63  1  0  0  0  0
 61 72  1  0  0  0  0
 62 73  1  0  0  0  0
 64 65  1  0  0  0  0
M  CHG  2  73   1  74   1
M  ISO  4  38 100  60 101  70 100  81 101
M  END
> <Batch ID>
0013

> <Smiles>
CNC(C)C(=O)NC(C(=O)N1Cc2cc([101O:1][101CH2:1]CCN(C)Cc3ccc([100NH:0][100C:0](=O)N4CCCC(n5nc(-c6ccc(Oc7ccc(F)cc7F)cc6)c(C(N)=O)c5N)C4)cc3)ccc2CC1C(=O)NC1CCCc2ccccc21)C(C)(C)C

> <Shape>
0.252

> <Color>
0.203

> <Negative vol penalty>
0.000

$$$$

  -OEChem-04042320483D

 83 91  0     1  0  0  0  0  0999 V2000
  -16.6924  -29.1145   23.8144 C   0  0  0  0  0  0  0  0  0  0  0  0
  -17.2723  -28.5000   22.7092 C   0  0  0  0  0  0  0  0  0  0  0  0
  -25.7408  -22.3051   21.8184 C   0  0  0  0  0  0  0  0  0  0  0  0
  -27.5346  -10.9281   20.3907 C   0  0  0  0  0  0  0  0  0  0  0  0
  -26.7275  -12.4659   18.7112 C   0  0  0  0  0  0  0  0  0  0  0  0
  -17.3460  -30.1722   24.4453 C   0  0  0  0  0  0  0  0  0  0  0  0
  -18.5058  -28.9436   22.2336 C   0  0  0  0  0  0  0  0  0  0  0  0
  -21.6609  -25.1297   21.1639 C   0  0  0  0  0  0  0  0  0  0  0  0
  -25.4045  -22.4464   20.4722 C   0  0  0  0  0  0  0  0  0  0  0  0
  -26.5782  -21.2654   22.2227 C   0  0  0  0  0  0  0  0  0  0  0  0
  -26.5317  -10.0229   20.0439 C   0  0  0  0  0  0  0  0  0  0  0  0
  -25.7246  -11.5607   18.3643 C   0  0  0  0  0  0  0  0  0  0  0  0
  -21.4524  -24.4477   19.9660 C   0  0  0  0  0  0  0  0  0  0  0  0
  -23.2260   -9.6251   20.6257 C   0  0  0  0  0  0  0  0  0  0  0  0
  -22.5193   -9.0137   21.6613 C   0  0  0  0  0  0  0  0  0  0  0  0
  -23.2299  -25.7164   18.9412 C   0  0  0  0  0  0  0  0  0  0  0  0
  -26.7429  -20.5082   19.9344 C   0  0  0  0  0  0  0  0  0  0  0  0
  -23.2533   -6.8474   20.8834 C   0  0  0  0  0  0  0  0  0  0  0  0
  -27.6325  -12.1497   19.7244 C   0  0  0  0  0  0  0  0  0  0  0  0
  -29.9631  -13.1700   19.5375 C   0  0  0  0  0  0  0  0  0  0  0  0
  -18.5927  -30.6226   23.9831 C   0  0  0  0  0  0  0  0  0  0  0  0
  -22.6499  -26.1194   21.2566 C   0  0  0  0  0  0  0  0  0  0  0  0
  -19.1761  -30.0091   22.8581 C   0  0  0  0  0  0  0  0  0  0  0  0
  -23.4507  -26.4076   20.1423 C   0  0  0  0  0  0  0  0  0  0  0  0
  -25.9055  -21.5479   19.5301 C   0  0  0  0  0  0  0  0  0  0  0  0
  -27.0792  -20.3669   21.2807 C   0  0  0  0  0  0  0  0  0  0  0  0
  -25.6267  -10.3392   19.0306 C   0  0  0  0  0  0  0  0  0  0  0  0
  -22.2349  -24.7430   18.8535 C   0  0  0  0  0  0  0  0  0  0  0  0
  -23.9463   -8.8475   19.7189 C   0  0  0  0  0  0  0  0  0  0  0  0
  -22.5329   -7.6249   21.7901 C   0  0  0  0  0  0  0  0  0  0  0  0
  -23.9600   -7.4587   19.8477 C   0  0  0  0  0  0  0  0  0  0  0  0
  -28.6679  -13.0854   20.0827 C   0  0  0  0  0  0  0  0  0  0  0  0
  -30.5510  -14.2137   20.2094 C   0  0  0  0  0  0  0  0  0  0  0  0
  -30.5796  -12.3761   18.5150 C   0  0  0  0  0  0  0  0  0  0  0  0
  -22.6512  -29.2391   21.8662 C   0  0  0  0  0  0  0  0  0  0  0  0
  -25.8714  -28.8527   21.8127 C   0  0  0  0  0  0  0  0  0  0  0  0
  -28.5544  -27.0395   20.7352 C   0  0  0  0  0  0  0  0  0  0  0  0
  -28.3623  -19.0301   22.9874 C   0  0  0  0  0  0  0  0  0  0  0  0
  -19.2389  -31.8002   24.6689 C   0  0  0  0  0  0  0  0  0  0  0  0
  -22.8803  -26.8272   22.5637 C   0  0  0  0  0  0  0  0  0  0  0  0
  -24.5392  -27.4473   20.1955 C   0  0  0  0  0  0  0  0  0  0  0  0
  -20.7186  -31.9647   24.3315 C   0  0  0  0  0  0  0  0  0  0  0  0
  -30.4280  -16.5047   24.4131 C   0  0  0  0  0  0  0  0  0  0  0  0
  -20.9411  -31.8338   22.8282 C   0  0  0  0  0  0  0  0  0  0  0  0
  -30.3338  -15.3512   23.4117 C   0  0  0  0  0  0  0  0  0  0  0  0
  -29.0991  -17.2453   24.5517 C   0  0  0  0  0  0  0  0  0  0  0  0
  -28.4180  -16.5559   22.2867 C   0  0  0  0  0  0  0  0  0  0  0  0
  -20.5245  -30.4455   22.3276 C   0  0  1  0  0  0  0  0  0  0  0  0
  -23.5714  -28.1772   22.3984 C   0  0  1  0  0  0  0  0  0  0  0  0
  -29.7498  -15.8205   22.0648 C   0  0  2  0  0  0  0  0  0  0  0  0
  -30.9520  -26.3289   20.5262 C   0  0  0  0  0  0  0  0  0  0  0  0
  -25.9824  -31.1077   19.7603 C   0  0  0  0  0  0  0  0  0  0  0  0
  -28.3102  -30.3820   19.1920 C   0  0  0  0  0  0  0  0  0  0  0  0
  -27.7831  -31.1855   21.4940 C   0  0  0  0  0  0  0  0  0  0  0  0
  -28.3431  -25.2317   23.0690 C   0  0  0  0  0  0  0  0  0  0  0  0
  -24.0198  -19.7541   17.7802 C   0  0  0  0  0  0  0  0  0  0  0  0
  -25.5434  -21.7004   18.0821 C   0  0  0  0  0  0  0  0  0  0  0  0
  -22.0818  -21.9477   16.5840 C   0  0  0  0  0  0  0  0  0  0  0  0
  -23.6002  -21.8691   16.5342 C   0  0  0  0  0  0  0  0  0  0  0  0
  -21.5475  -22.7403   17.7707 C   0  0  0  0  0  0  0  0  0  1  0  0
  -26.9390  -28.9222   20.7476 C   0  0  1  0  0  0  0  0  0  0  0  0
  -29.7732  -26.5106   21.4696 C   0  0  2  0  0  0  0  0  0  0  0  0
  -27.2320  -30.3811   20.2966 C   0  0  0  0  0  0  0  0  0  0  0  0
  -28.4457  -14.0022   21.0282 N   0  0  0  0  0  0  0  0  0  0  0  0
  -29.6091  -14.6727   21.0825 N   0  0  0  0  0  0  0  0  0  0  0  0
  -24.7215  -28.1165   21.4941 N   0  0  0  0  0  0  0  0  0  0  0  0
  -28.6090  -17.6633   23.2364 N   0  0  0  0  0  0  0  0  0  0  0  0
  -31.7766  -14.7743   20.1328 N   0  0  0  0  0  0  0  0  0  0  0  0
  -29.8336  -11.3441   17.9296 N   0  0  0  0  0  0  0  0  0  0  0  0
  -27.9304  -19.3113   21.6917 N   0  0  0  0  0  0  0  0  0  0  0  0
  -21.5384  -29.4655   22.6535 N   0  0  0  0  0  0  0  0  0  0  0  0
  -28.0985  -28.2188   21.2853 N   0  0  0  0  0  0  0  0  0  0  0  0
  -29.4680  -25.1948   22.0993 N   0  3  0  0  0  0  0  0  0  0  0  0
  -24.1322  -21.2597   17.7756 N   0  3  1  0  0  0  0  0  0  0  0  0
  -31.7626  -12.5655   18.1434 O   0  0  0  0  0  0  0  0  0  0  0  0
  -22.9308  -29.8117   20.8195 O   0  0  0  0  0  0  0  0  0  0  0  0
  -26.0542  -29.4243   22.8904 O   0  0  0  0  0  0  0  0  0  0  0  0
  -28.0587  -26.4658   19.7679 O   0  0  0  0  0  0  0  0  0  0  0  0
  -28.5485  -19.8910   23.8512 O   0  0  0  0  0  0  0  0  0  0  0  0
  -24.6481   -9.4560   18.6917 O   0  0  0  0  0  0  0  0  0  0  0  0
  -22.0330  -24.0793   17.6828 O   0  0  0  0  0  0  0  0  0  1  0  0
  -21.8555   -7.0381   22.7856 F   0  0  0  0  0  0  0  0  0  0  0  0
  -24.6511   -6.7066   18.9803 F   0  0  0  0  0  0  0  0  0  0  0  0
  1  2  1  0  0  0  0
  1  6  2  0  0  0  0
  2  7  2  0  0  0  0
  3  9  2  0  0  0  0
  3 10  1  0  0  0  0
  4 11  2  0  0  0  0
  4 19  1  0  0  0  0
  5 12  1  0  0  0  0
  5 19  2  0  0  0  0
  6 21  1  0  0  0  0
  7 23  1  0  0  0  0
  8 13  2  0  0  0  0
  8 22  1  0  0  0  0
  9 25  1  0  0  0  0
 10 26  2  0  0  0  0
 11 27  1  0  0  0  0
 12 27  2  0  0  0  0
 13 28  1  0  0  0  0
 14 15  2  0  0  0  0
 14 29  1  0  0  0  0
 15 30  1  0  0  0  0
 16 24  1  0  0  0  0
 16 28  2  0  0  0  0
 17 25  2  0  0  0  0
 17 26  1  0  0  0  0
 18 30  2  0  0  0  0
 18 31  1  0  0  0  0
 19 32  1  0  0  0  0
 20 32  1  0  0  0  0
 20 33  2  0  0  0  0
 20 34  1  0  0  0  0
 21 23  2  0  0  0  0
 21 39  1  0  0  0  0
 22 24  2  0  0  0  0
 22 40  1  0  0  0  0
 23 48  1  0  0  0  0
 24 41  1  0  0  0  0
 25 57  1  0  0  0  0
 26 70  1  0  0  0  0
 27 80  1  0  0  0  0
 28 81  1  0  0  0  0
 29 31  2  0  0  0  0
 29 80  1  0  0  0  0
 30 82  1  0  0  0  0
 31 83  1  0  0  0  0
 32 64  2  0  0  0  0
 33 65  1  0  0  0  0
 33 68  1  0  0  0  0
 34 69  1  0  0  0  0
 34 75  2  0  0  0  0
 35 49  1  0  0  0  0
 35 71  1  0  0  0  0
 35 76  2  0  0  0  0
 36 61  1  0  0  0  0
 36 66  1  0  0  0  0
 36 77  2  0  0  0  0
 37 62  1  0  0  0  0
 37 72  1  0  0  0  0
 37 78  2  0  0  0  0
 38 67  1  0  0  0  0
 38 70  1  0  0  0  0
 38 79  2  0  0  0  0
 39 42  1  0  0  0  0
 40 49  1  0  0  0  0
 41 66  1  0  0  0  0
 42 44  1  0  0  0  0
 43 45  1  0  0  0  0
 43 46  1  0  0  0  0
 44 48  1  0  0  0  0
 45 50  1  0  0  0  0
 46 67  1  0  0  0  0
 47 50  1  0  0  0  0
 47 67  1  0  0  0  0
 48 71  1  0  0  0  0
 49 66  1  0  0  0  0
 50 65  1  0  0  0  0
 51 62  1  0  0  0  0
 52 63  1  0  0  0  0
 53 63  1  0  0  0  0
 54 63  1  0  0  0  0
 55 73  1  0  0  0  0
 56 74  1  0  0  0  0
 57 74  1  0  0  0  0
 58 59  1  0  0  0  0
 58 60  1  0  0  0  0
 59 74  1  0  0  0  0
 60 81  1  0  0  0  0
 61 63  1  0  0  0  0
 61 72  1  0  0  0  0
 62 73  1  0  0  0  0
 64 65  1  0  0  0  0
M  CHG  2  73   1  74   1
M  ISO  4  38 100  60 101  70 100  81 101
M  END
> <Batch ID>
0013

> <Smiles>
CNC(C)C(=O)NC(C(=O)N1Cc2cc([101O:1][101CH2:1]CCN(C)Cc3cccc([100NH:0][100C:0](=O)N4CCCC(n5nc(-c6ccc(Oc7ccc(F)cc7F)cc6)c(C(N)=O)c5N)C4)c3)ccc2CC1C(=O)NC1CCCc2ccccc21)C(C)(C)C

> <Shape>
0.240

> <Color>
0.078

> <Negative vol penalty>
0.000

$$$$

  -OEChem-04042320483D

 83 91  0     1  0  0  0  0  0999 V2000
  -27.5115  -32.3448   27.6423 C   0  0  0  0  0  0  0  0  0  0  0  0
  -27.7556  -31.3464   26.7047 C   0  0  0  0  0  0  0  0  0  0  0  0
  -25.3910  -11.8264   21.0948 C   0  0  0  0  0  0  0  0  0  0  0  0
  -25.7846  -12.3671   18.7732 C   0  0  0  0  0  0  0  0  0  0  0  0
  -26.2006  -32.7173   27.9370 C   0  0  0  0  0  0  0  0  0  0  0  0
  -26.6888  -30.7191   26.0621 C   0  0  0  0  0  0  0  0  0  0  0  0
  -27.4451  -30.2185   21.0799 C   0  0  0  0  0  0  0  0  0  0  0  0
  -27.2820  -23.9269   17.6184 C   0  0  0  0  0  0  0  0  0  0  0  0
  -26.6220  -22.9545   18.3697 C   0  0  0  0  0  0  0  0  0  0  0  0
  -24.9926  -10.5410   20.7280 C   0  0  0  0  0  0  0  0  0  0  0  0
  -25.3863  -11.0816   18.4063 C   0  0  0  0  0  0  0  0  0  0  0  0
  -28.2904  -29.1907   20.6643 C   0  0  0  0  0  0  0  0  0  0  0  0
  -26.4716   -7.6343   19.8355 C   0  0  0  0  0  0  0  0  0  0  0  0
  -26.9706   -6.5642   20.5782 C   0  0  0  0  0  0  0  0  0  0  0  0
  -26.3686  -27.8323   20.1346 C   0  0  0  0  0  0  0  0  0  0  0  0
  -29.3305  -22.6552   17.7722 C   0  0  0  0  0  0  0  0  0  0  0  0
  -24.7177   -5.9294   21.1772 C   0  0  0  0  0  0  0  0  0  0  0  0
  -25.7870  -12.7395   20.1174 C   0  0  0  0  0  0  0  0  0  0  0  0
  -27.5005  -14.4955   20.8160 C   0  0  0  0  0  0  0  0  0  0  0  0
  -25.1176  -32.1009   27.2906 C   0  0  0  0  0  0  0  0  0  0  0  0
  -26.0529  -30.0566   21.0361 C   0  0  0  0  0  0  0  0  0  0  0  0
  -25.3622  -31.0827   26.3494 C   0  0  0  0  0  0  0  0  0  0  0  0
  -25.5077  -28.8606   20.5477 C   0  0  0  0  0  0  0  0  0  0  0  0
  -28.6363  -23.7772   17.3196 C   0  0  0  0  0  0  0  0  0  0  0  0
  -28.6705  -21.6829   18.5236 C   0  0  0  0  0  0  0  0  0  0  0  0
  -27.3162  -21.8325   18.8223 C   0  0  0  0  0  0  0  0  0  0  0  0
  -24.9902  -10.1686   19.3837 C   0  0  0  0  0  0  0  0  0  0  0  0
  -27.7523  -27.9963   20.1943 C   0  0  0  0  0  0  0  0  0  0  0  0
  -25.0957   -7.8520   19.7638 C   0  0  0  0  0  0  0  0  0  0  0  0
  -26.0937   -5.7118   21.2490 C   0  0  0  0  0  0  0  0  0  0  0  0
  -24.2188   -6.9995   20.4346 C   0  0  0  0  0  0  0  0  0  0  0  0
  -26.1981  -14.0676   20.4958 C   0  0  0  0  0  0  0  0  0  0  0  0
  -27.3621  -15.8316   21.1028 C   0  0  0  0  0  0  0  0  0  0  0  0
  -28.7258  -13.7518   20.8510 C   0  0  0  0  0  0  0  0  0  0  0  0
  -23.7264  -30.0480   23.2020 C   0  0  0  0  0  0  0  0  0  0  0  0
  -21.8197  -29.8734   20.5835 C   0  0  0  0  0  0  0  0  0  0  0  0
  -21.4788  -29.0058   17.3005 C   0  0  0  0  0  0  0  0  0  0  0  0
  -25.2847  -20.8693   19.9589 C   0  0  0  0  0  0  0  0  0  0  0  0
  -23.7166  -32.5043   27.6768 C   0  0  0  0  0  0  0  0  0  0  0  0
  -25.1544  -31.1849   21.4629 C   0  0  0  0  0  0  0  0  0  0  0  0
  -24.0197  -28.6443   20.4616 C   0  0  0  0  0  0  0  0  0  0  0  0
  -22.6550  -32.0514   26.6777 C   0  0  0  0  0  0  0  0  0  0  0  0
  -23.2076  -18.6382   21.7987 C   0  0  0  0  0  0  0  0  0  0  0  0
  -22.8720  -30.5912   26.2934 C   0  0  0  0  0  0  0  0  0  0  0  0
  -23.9076  -17.2854   21.6500 C   0  0  0  0  0  0  0  0  0  0  0  0
  -23.3086  -19.4722   20.5228 C   0  0  0  0  0  0  0  0  0  0  0  0
  -25.3710  -18.3007   19.8571 C   0  0  0  0  0  0  0  0  0  0  0  0
  -24.2324  -30.3961   25.6131 C   0  0  1  0  0  0  0  0  0  0  0  0
  -23.7564  -30.7188   21.8578 C   0  0  1  0  0  0  0  0  0  0  0  0
  -25.3520  -17.4515   21.1386 C   0  0  2  0  0  0  0  0  0  0  0  0
  -29.4399  -20.4927   18.9979 C   0  0  0  0  0  0  0  0  0  0  0  0
  -19.7915  -28.9453   15.4440 C   0  0  0  0  0  0  0  0  0  0  0  0
  -20.5199  -27.4195   21.8480 C   0  0  0  0  0  0  0  0  0  0  0  0
  -19.5555  -26.8613   19.6061 C   0  0  0  0  0  0  0  0  0  0  0  0
  -18.9221  -28.9915   20.7390 C   0  0  0  0  0  0  0  0  0  0  0  0
  -23.0815  -30.8476   15.6277 C   0  0  0  0  0  0  0  0  0  0  0  0
  -29.4727  -27.2828   16.1382 C   0  0  0  0  0  0  0  0  0  0  0  0
  -29.3466  -24.8243   16.5134 C   0  0  0  0  0  0  0  0  0  0  0  0
  -30.3085  -26.3040   18.2701 C   0  0  0  0  0  0  0  0  0  0  0  0
  -29.8396  -27.3668   19.2441 C   0  0  0  0  0  0  0  0  0  1  0  0
  -21.2392  -28.7516   19.7566 C   0  0  1  0  0  0  0  0  0  0  0  0
  -20.8905  -29.7527   16.1171 C   0  0  2  0  0  0  0  0  0  0  0  0
  -20.0873  -28.0090   20.4907 C   0  0  0  0  0  0  0  0  0  0  0  0
  -25.2986  -15.0520   20.5720 N   0  0  0  0  0  0  0  0  0  0  0  0
  -26.0369  -16.1117   20.9435 N   0  0  0  0  0  0  0  0  0  0  0  0
  -23.1828  -29.7747   20.8966 N   0  0  0  0  0  0  0  0  0  0  0  0
  -24.7059  -19.5904   20.1003 N   0  0  0  0  0  0  0  0  0  0  0  0
  -28.2460  -16.7823   21.4734 N   0  0  0  0  0  0  0  0  0  0  0  0
  -28.6893  -12.3884   20.5281 N   0  0  0  0  0  0  0  0  0  0  0  0
  -26.6279  -20.8560   19.5842 N   0  0  0  0  0  0  0  0  0  0  0  0
  -24.1784  -30.8432   24.2378 N   0  0  0  0  0  0  0  0  0  0  0  0
  -20.8512  -29.3435   18.4809 N   0  0  0  0  0  0  0  0  0  0  0  0
  -21.9485  -30.0395   15.1076 N   0  3  0  0  0  0  0  0  0  0  0  0
  -29.3260  -26.1857   17.1634 N   0  3  1  0  0  0  0  0  0  0  0  0
  -29.8178  -14.2768   21.1754 O   0  0  0  0  0  0  0  0  0  0  0  0
  -23.3216  -28.8950   23.2929 O   0  0  0  0  0  0  0  0  0  0  0  0
  -21.0922  -30.8064   20.9325 O   0  0  0  0  0  0  0  0  0  0  0  0
  -22.4004  -28.2004   17.1884 O   0  0  0  0  0  0  0  0  0  0  0  0
  -24.6443  -21.8998   20.1822 O   0  0  0  0  0  0  0  0  0  0  0  0
  -24.6018   -8.9143   19.0254 O   0  0  0  0  0  0  0  0  0  0  0  0
  -28.5752  -26.9912   19.7886 O   0  0  0  0  0  0  0  0  0  1  0  0
  -26.5729   -4.6833   21.9609 F   0  0  0  0  0  0  0  0  0  0  0  0
  -22.8958   -7.2029   20.3683 F   0  0  0  0  0  0  0  0  0  0  0  0
  1  2  1  0  0  0  0
  1  5  2  0  0  0  0
  2  6  2  0  0  0  0
  3 10  2  0  0  0  0
  3 18  1  0  0  0  0
  4 11  1  0  0  0  0
  4 18  2  0  0  0  0
  5 20  1  0  0  0  0
  6 22  1  0  0  0  0
  7 12  2  0  0  0  0
  7 21  1  0  0  0  0
  8  9  2  0  0  0  0
  8 24  1  0  0  0  0
  9 26  1  0  0  0  0
 10 27  1  0  0  0  0
 11 27  2  0  0  0  0
 12 28  1  0  0  0  0
 13 14  2  0  0  0  0
 13 29  1  0  0  0  0
 14 30  1  0  0  0  0
 15 23  1  0  0  0  0
 15 28  2  0  0  0  0
 16 24  2  0  0  0  0
 16 25  1  0  0  0  0
 17 30  2  0  0  0  0
 17 31  1  0  0  0  0
 18 32  1  0  0  0  0
 19 32  1  0  0  0  0
 19 33  2  0  0  0  0
 19 34  1  0  0  0  0
 20 22  2  0  0  0  0
 20 39  1  0  0  0  0
 21 23  2  0  0  0  0
 21 40  1  0  0  0  0
 22 48  1  0  0  0  0
 23 41  1  0  0  0  0
 24 58  1  0  0  0  0
 25 26  2  0  0  0  0
 25 51  1  0  0  0  0
 26 70  1  0  0  0  0
 27 80  1  0  0  0  0
 28 81  1  0  0  0  0
 29 31  2  0  0  0  0
 29 80  1  0  0  0  0
 30 82  1  0  0  0  0
 31 83  1  0  0  0  0
 32 64  2  0  0  0  0
 33 65  1  0  0  0  0
 33 68  1  0  0  0  0
 34 69  1  0  0  0  0
 34 75  2  0  0  0  0
 35 49  1  0  0  0  0
 35 71  1  0  0  0  0
 35 76  2  0  0  0  0
 36 61  1  0  0  0  0
 36 66  1  0  0  0  0
 36 77  2  0  0  0  0
 37 62  1  0  0  0  0
 37 72  1  0  0  0  0
 37 78  2  0  0  0  0
 38 67  1  0  0  0  0
 38 70  1  0  0  0  0
 38 79  2  0  0  0  0
 39 42  1  0  0  0  0
 40 49  1  0  0  0  0
 41 66  1  0  0  0  0
 42 44  1  0  0  0  0
 43 45  1  0  0  0  0
 43 46  1  0  0  0  0
 44 48  1  0  0  0  0
 45 50  1  0  0  0  0
 46 67  1  0  0  0  0
 47 50  1  0  0  0  0
 47 67  1  0  0  0  0
 48 71  1  0  0  0  0
 49 66  1  0  0  0  0
 50 65  1  0  0  0  0
 52 62  1  0  0  0  0
 53 63  1  0  0  0  0
 54 63  1  0  0  0  0
 55 63  1  0  0  0  0
 56 73  1  0  0  0  0
 57 74  1  0  0  0  0
 58 74  1  0  0  0  0
 59 60  1  0  0  0  0
 59 74  1  0  0  0  0
 60 81  1  0  0  0  0
 61 63  1  0  0  0  0
 61 72  1  0  0  0  0
 62 73  1  0  0  0  0
 64 65  1  0  0  0  0
M  CHG  2  73   1  74   1
M  ISO  4  38 100  60 101  70 100  81 101
M  END
> <Batch ID>
0013

> <Smiles>
CNC(C)C(=O)NC(C(=O)N1Cc2cc([101O:1][101CH2:1]CN(C)Cc3ccc([100NH:0][100C:0](=O)N4CCCC(n5nc(-c6ccc(Oc7ccc(F)cc7F)cc6)c(C(N)=O)c5N)C4)c(C)c3)ccc2CC1C(=O)NC1CCCc2ccccc21)C(C)(C)C

> <Shape>
0.233

> <Color>
0.078

> <Negative vol penalty>
0.000

$$$$

  -OEChem-04042320483D

 83 91  0     1  0  0  0  0  0999 V2000
  -23.6887  -20.1753   25.6209 C   0  0  0  0  0  0  0  0  0  0  0  0
  -24.8963  -20.7242   25.2015 C   0  0  0  0  0  0  0  0  0  0  0  0
  -24.7215  -14.8058   21.6094 C   0  0  0  0  0  0  0  0  0  0  0  0
  -26.3960  -14.8793   19.8694 C   0  0  0  0  0  0  0  0  0  0  0  0
  -22.4859  -20.6881   25.1369 C   0  0  0  0  0  0  0  0  0  0  0  0
  -24.9018  -21.7855   24.2971 C   0  0  0  0  0  0  0  0  0  0  0  0
  -28.8628  -26.4530   24.1220 C   0  0  0  0  0  0  0  0  0  0  0  0
  -27.5947  -24.4156   19.0659 C   0  0  0  0  0  0  0  0  0  0  0  0
  -24.8109  -13.4141   21.6367 C   0  0  0  0  0  0  0  0  0  0  0  0
  -26.4854  -13.4876   19.8967 C   0  0  0  0  0  0  0  0  0  0  0  0
  -29.9984  -26.6910   23.3490 C   0  0  0  0  0  0  0  0  0  0  0  0
  -28.8926  -24.5859   19.5477 C   0  0  0  0  0  0  0  0  0  0  0  0
  -24.3382   -9.8191   21.9118 C   0  0  0  0  0  0  0  0  0  0  0  0
  -23.1485   -9.0919   21.9490 C   0  0  0  0  0  0  0  0  0  0  0  0
  -28.6724  -27.9964   21.8138 C   0  0  0  0  0  0  0  0  0  0  0  0
  -28.3595  -24.9150   16.8292 C   0  0  0  0  0  0  0  0  0  0  0  0
  -22.4795  -10.0790   19.8477 C   0  0  0  0  0  0  0  0  0  0  0  0
  -25.5140  -15.5384   20.7257 C   0  0  0  0  0  0  0  0  0  0  0  0
  -26.1728  -17.8917   21.4579 C   0  0  0  0  0  0  0  0  0  0  0  0
  -22.4763  -21.7625   24.2335 C   0  0  0  0  0  0  0  0  0  0  0  0
  -27.6193  -26.9767   23.7402 C   0  0  0  0  0  0  0  0  0  0  0  0
  -23.6977  -22.3122   23.7995 C   0  0  0  0  0  0  0  0  0  0  0  0
  -27.5230  -27.7657   22.5850 C   0  0  0  0  0  0  0  0  0  0  0  0
  -27.3282  -24.5801   17.7066 C   0  0  0  0  0  0  0  0  0  0  0  0
  -25.6928  -12.7550   20.7804 C   0  0  0  0  0  0  0  0  0  0  0  0
  -29.9028  -27.4604   22.1932 C   0  0  0  0  0  0  0  0  0  0  0  0
  -24.5986  -10.6763   20.8427 C   0  0  0  0  0  0  0  0  0  0  0  0
  -29.9239  -24.9208   18.6703 C   0  0  0  0  0  0  0  0  0  0  0  0
  -22.2192   -9.2218   20.9169 C   0  0  0  0  0  0  0  0  0  0  0  0
  -29.6574  -25.0854   17.3111 C   0  0  0  0  0  0  0  0  0  0  0  0
  -23.6693  -10.8062   19.8106 C   0  0  0  0  0  0  0  0  0  0  0  0
  -25.4217  -16.9761   20.6967 C   0  0  0  0  0  0  0  0  0  0  0  0
  -25.7117  -19.1244   21.0650 C   0  0  0  0  0  0  0  0  0  0  0  0
  -27.1958  -17.6495   22.4328 C   0  0  0  0  0  0  0  0  0  0  0  0
  -24.8122  -25.7257   22.9284 C   0  0  0  0  0  0  0  0  0  0  0  0
  -23.8660  -28.8284   22.9390 C   0  0  0  0  0  0  0  0  0  0  0  0
  -24.7251  -32.1202   22.6688 C   0  0  0  0  0  0  0  0  0  0  0  0
  -24.1485  -22.6872   17.0640 C   0  0  0  0  0  0  0  0  0  0  0  0
  -21.1526  -22.2519   23.7016 C   0  0  0  0  0  0  0  0  0  0  0  0
  -26.4089  -26.7331   24.5993 C   0  0  0  0  0  0  0  0  0  0  0  0
  -26.2153  -28.3677   22.1426 C   0  0  0  0  0  0  0  0  0  0  0  0
  -21.2335  -23.6224   23.0342 C   0  0  0  0  0  0  0  0  0  0  0  0
  -21.6985  -20.3982   18.2618 C   0  0  0  0  0  0  0  0  0  0  0  0
  -22.4249  -23.6838   22.0836 C   0  0  0  0  0  0  0  0  0  0  0  0
  -22.5113  -19.3765   19.0591 C   0  0  0  0  0  0  0  0  0  0  0  0
  -22.4547  -20.8800   17.0256 C   0  0  0  0  0  0  0  0  0  0  0  0
  -24.6209  -20.3802   18.0892 C   0  0  0  0  0  0  0  0  0  0  0  0
  -23.7441  -23.4803   22.8385 C   0  0  1  0  0  0  0  0  0  0  0  0
  -25.0955  -26.8872   23.8386 C   0  0  1  0  0  0  0  0  0  0  0  0
  -23.9227  -19.9067   19.3755 C   0  0  2  0  0  0  0  0  0  0  0  0
  -23.7289  -34.4235   22.6812 C   0  0  0  0  0  0  0  0  0  0  0  0
  -22.8206  -28.3890   20.1063 C   0  0  0  0  0  0  0  0  0  0  0  0
  -22.7205  -30.8755   19.8322 C   0  0  0  0  0  0  0  0  0  0  0  0
  -21.3238  -29.7569   21.5702 C   0  0  0  0  0  0  0  0  0  0  0  0
  -26.3088  -32.9184   25.0381 C   0  0  0  0  0  0  0  0  0  0  0  0
  -25.9401  -24.3997   17.1928 C   0  0  0  0  0  0  0  0  0  0  0  0
  -32.7395  -26.6750   20.0981 C   0  0  0  0  0  0  0  0  0  0  0  0
  -32.0216  -26.6877   21.4386 C   0  0  0  0  0  0  0  0  0  1  0  0
  -31.7933  -26.3643   18.9490 C   0  0  0  0  0  0  0  0  0  0  0  0
  -23.8221  -29.9362   21.9143 C   0  0  1  0  0  0  0  0  0  0  0  0
  -24.3693  -33.3271   23.5182 C   0  0  2  0  0  0  0  0  0  0  0  0
  -22.6962  -29.7266   20.8628 C   0  0  0  0  0  0  0  0  0  0  0  0
  -24.5496  -17.5759   19.8821 N   0  0  0  0  0  0  0  0  0  0  0  0
  -24.7497  -18.8816   20.1292 N   0  0  0  0  0  0  0  0  0  0  0  0
  -25.0591  -28.0957   23.0126 N   0  0  0  0  0  0  0  0  0  0  0  0
  -23.7844  -21.3714   17.3946 N   0  0  0  0  0  0  0  0  0  0  0  0
  -26.0393  -20.3814   21.4324 N   0  0  0  0  0  0  0  0  0  0  0  0
  -27.5478  -16.3229   22.7165 N   0  0  0  0  0  0  0  0  0  0  0  0
  -24.1213  -24.6928   23.5328 N   0  0  0  0  0  0  0  0  0  0  0  0
  -23.7141  -31.1825   22.6650 N   0  0  0  0  0  0  0  0  0  0  0  0
  -25.4240  -23.0749   17.4559 N   0  0  0  0  0  0  0  0  0  0  0  0
  -25.5911  -33.8831   24.1656 N   0  3  0  0  0  0  0  0  0  0  0  0
  -27.7690  -18.5815   23.0464 O   0  0  0  0  0  0  0  0  0  0  0  0
  -25.1909  -25.7645   21.7636 O   0  0  0  0  0  0  0  0  0  0  0  0
  -22.8807  -28.6255   23.6528 O   0  0  0  0  0  0  0  0  0  0  0  0
  -25.7914  -32.0211   22.0658 O   0  0  0  0  0  0  0  0  0  0  0  0
  -23.3909  -23.4609   16.4687 O   0  0  0  0  0  0  0  0  0  0  0  0
  -25.7805  -11.3970   20.8069 O   0  0  0  0  0  0  0  0  0  0  0  0
  -31.0095  -27.6937   21.4365 O   0  0  0  0  0  0  0  0  0  1  0  0
  -31.1986  -25.0885   19.1453 O   0  0  0  0  0  0  0  0  0  0  0  0
  -21.0775   -8.5223   20.9519 F   0  0  0  0  0  0  0  0  0  0  0  0
  -30.6440  -25.4075   16.4633 F   0  0  0  0  0  0  0  0  0  0  0  0
  -23.9144  -11.6273   18.7803 F   0  0  0  0  0  0  0  0  0  0  0  0
  1  2  1  0  0  0  0
  1  5  2  0  0  0  0
  2  6  2  0  0  0  0
  3  9  2  0  0  0  0
  3 18  1  0  0  0  0
  4 10  1  0  0  0  0
  4 18  2  0  0  0  0
  5 20  1  0  0  0  0
  6 22  1  0  0  0  0
  7 11  2  0  0  0  0
  7 21  1  0  0  0  0
  8 12  2  0  0  0  0
  8 24  1  0  0  0  0
  9 25  1  0  0  0  0
 10 25  2  0  0  0  0
 11 26  1  0  0  0  0
 12 28  1  0  0  0  0
 13 14  2  0  0  0  0
 13 27  1  0  0  0  0
 14 29  1  0  0  0  0
 15 23  1  0  0  0  0
 15 26  2  0  0  0  0
 16 24  2  0  0  0  0
 16 30  1  0  0  0  0
 17 29  2  0  0  0  0
 17 31  1  0  0  0  0
 18 32  1  0  0  0  0
 19 32  1  0  0  0  0
 19 33  2  0  0  0  0
 19 34  1  0  0  0  0
 20 22  2  0  0  0  0
 20 39  1  0  0  0  0
 21 23  2  0  0  0  0
 21 40  1  0  0  0  0
 22 48  1  0  0  0  0
 23 41  1  0  0  0  0
 24 56  1  0  0  0  0
 25 78  1  0  0  0  0
 26 79  1  0  0  0  0
 27 31  2  0  0  0  0
 27 78  1  0  0  0  0
 28 30  2  0  0  0  0
 28 80  1  0  0  0  0
 29 81  1  0  0  0  0
 30 82  1  0  0  0  0
 31 83  1  0  0  0  0
 32 63  2  0  0  0  0
 33 64  1  0  0  0  0
 33 67  1  0  0  0  0
 34 68  1  0  0  0  0
 34 73  2  0  0  0  0
 35 49  1  0  0  0  0
 35 69  1  0  0  0  0
 35 74  2  0  0  0  0
 36 60  1  0  0  0  0
 36 65  1  0  0  0  0
 36 75  2  0  0  0  0
 37 61  1  0  0  0  0
 37 70  1  0  0  0  0
 37 76  2  0  0  0  0
 38 66  1  0  0  0  0
 38 71  1  0  0  0  0
 38 77  2  0  0  0  0
 39 42  1  0  0  0  0
 40 49  1  0  0  0  0
 41 65  1  0  0  0  0
 42 44  1  0  0  0  0
 43 45  1  0  0  0  0
 43 46  1  0  0  0  0
 44 48  1  0  0  0  0
 45 50  1  0  0  0  0
 46 66  1  0  0  0  0
 47 50  1  0  0  0  0
 47 66  1  0  0  0  0
 48 69  1  0  0  0  0
 49 65  1  0  0  0  0
 50 64  1  0  0  0  0
 51 61  1  0  0  0  0
 52 62  1  0  0  0  0
 53 62  1  0  0  0  0
 54 62  1  0  0  0  0
 55 72  1  0  0  0  0
 56 71  1  0  0  0  0
 57 58  1  0  0  0  0
 57 59  1  0  0  0  0
 58 79  1  0  0  0  0
 59 80  1  0  0  0  0
 60 62  1  0  0  0  0
 60 70  1  0  0  0  0
 61 72  1  0  0  0  0
 63 64  1  0  0  0  0
M  CHG  1  72   1
M  ISO  4  38 100  58 101  71 100  79 101
M  END
> <Batch ID>
0013

> <Smiles>
CNC(C)C(=O)NC(C(=O)N1Cc2cc([101O:1][101CH2:1]CCOc3ccc(C[100NH:0][100C:0](=O)N4CCCC(n5nc(-c6ccc(Oc7ccc(F)cc7F)cc6)c(C(N)=O)c5N)C4)cc3F)ccc2CC1C(=O)NC1CCCc2ccccc21)C(C)(C)C

> <Shape>
0.188

> <Color>
0.075

> <Negative vol penalty>
0.000

$$$$

  -OEChem-04042320483D

 83 92  0     1  0  0  0  0  0999 V2000
  -27.5490  -34.3165   25.5178 C   0  0  0  0  0  0  0  0  0  0  0  0
  -28.0726  -33.0487   25.2858 C   0  0  0  0  0  0  0  0  0  0  0  0
  -23.1626   -9.7560   19.9100 C   0  0  0  0  0  0  0  0  0  0  0  0
  -23.9124   -9.7760   22.2066 C   0  0  0  0  0  0  0  0  0  0  0  0
  -26.2331  -34.6028   25.1569 C   0  0  0  0  0  0  0  0  0  0  0  0
  -27.2802  -32.0660   24.6937 C   0  0  0  0  0  0  0  0  0  0  0  0
  -29.1225  -27.6817   20.8350 C   0  0  0  0  0  0  0  0  0  0  0  0
  -30.9477  -19.3500   20.7005 C   0  0  0  0  0  0  0  0  0  0  0  0
  -30.8454  -17.9591   20.6808 C   0  0  0  0  0  0  0  0  0  0  0  0
  -22.4747   -8.5656   20.1449 C   0  0  0  0  0  0  0  0  0  0  0  0
  -23.2244   -8.5855   22.4416 C   0  0  0  0  0  0  0  0  0  0  0  0
  -29.4390  -26.3372   21.0250 C   0  0  0  0  0  0  0  0  0  0  0  0
  -20.0366   -7.6256   23.0218 C   0  0  0  0  0  0  0  0  0  0  0  0
  -19.2780   -7.5367   24.1889 C   0  0  0  0  0  0  0  0  0  0  0  0
  -27.2010  -25.7236   20.3661 C   0  0  0  0  0  0  0  0  0  0  0  0
  -29.3027  -19.4461   22.4673 C   0  0  0  0  0  0  0  0  0  0  0  0
  -20.6093   -5.6543   24.9109 C   0  0  0  0  0  0  0  0  0  0  0  0
  -23.8815  -10.3613   20.9409 C   0  0  0  0  0  0  0  0  0  0  0  0
  -24.1006  -12.9011   20.8482 C   0  0  0  0  0  0  0  0  0  0  0  0
  -25.4271  -33.6259   24.5512 C   0  0  0  0  0  0  0  0  0  0  0  0
  -27.8375  -28.0585   20.4190 C   0  0  0  0  0  0  0  0  0  0  0  0
  -25.9518  -32.3390   24.3255 C   0  0  0  0  0  0  0  0  0  0  0  0
  -26.8715  -27.0733   20.1692 C   0  0  0  0  0  0  0  0  0  0  0  0
  -30.1764  -20.0935   21.5938 C   0  0  0  0  0  0  0  0  0  0  0  0
  -29.9717  -17.3116   21.5544 C   0  0  0  0  0  0  0  0  0  0  0  0
  -22.5056   -7.9803   21.4107 C   0  0  0  0  0  0  0  0  0  0  0  0
  -28.4773  -25.3581   20.7933 C   0  0  0  0  0  0  0  0  0  0  0  0
  -21.0815   -6.7288   22.7992 C   0  0  0  0  0  0  0  0  0  0  0  0
  -19.5643   -6.5511   25.1335 C   0  0  0  0  0  0  0  0  0  0  0  0
  -29.2004  -18.0551   22.4476 C   0  0  0  0  0  0  0  0  0  0  0  0
  -21.3679   -5.7432   23.7437 C   0  0  0  0  0  0  0  0  0  0  0  0
  -24.5927  -11.5907   20.6987 C   0  0  0  0  0  0  0  0  0  0  0  0
  -25.1564  -13.7065   20.4974 C   0  0  0  0  0  0  0  0  0  0  0  0
  -22.8049  -13.3502   21.2668 C   0  0  0  0  0  0  0  0  0  0  0  0
  -25.4986  -29.8105   21.6695 C   0  0  0  0  0  0  0  0  0  0  0  0
  -24.1193  -29.3325   18.7727 C   0  0  0  0  0  0  0  0  0  0  0  0
  -23.8767  -27.4143   15.9605 C   0  0  0  0  0  0  0  0  0  0  0  0
  -30.5646  -15.0146   20.7066 C   0  0  0  0  0  0  0  0  0  0  0  0
  -23.9957  -33.9680   24.2217 C   0  0  0  0  0  0  0  0  0  0  0  0
  -27.5200  -29.5113   20.1929 C   0  0  0  0  0  0  0  0  0  0  0  0
  -25.4834  -27.4242   19.7019 C   0  0  0  0  0  0  0  0  0  0  0  0
  -23.3405  -32.9828   23.2571 C   0  0  0  0  0  0  0  0  0  0  0  0
  -29.5780  -12.5743   18.3089 C   0  0  0  0  0  0  0  0  0  0  0  0
  -23.6263  -31.5468   23.6849 C   0  0  0  0  0  0  0  0  0  0  0  0
  -28.1526  -12.2087   18.7292 C   0  0  0  0  0  0  0  0  0  0  0  0
  -31.1393  -23.6438   21.3325 C   0  0  0  0  0  0  0  0  0  0  0  0
  -30.4762  -12.8348   19.5168 C   0  0  0  0  0  0  0  0  0  0  0  0
  -31.1624  -22.2347   20.7404 C   0  0  0  0  0  0  0  0  0  0  0  0
  -28.5310  -13.4513   20.8971 C   0  0  0  0  0  0  0  0  0  0  0  0
  -29.5082  -22.3341   22.5080 C   0  0  0  0  0  0  0  0  0  0  0  0
  -25.1313  -31.2538   23.6627 C   0  0  1  0  0  0  0  0  0  0  0  0
  -26.0265  -29.8144   20.2627 C   0  0  1  0  0  0  0  0  0  0  0  0
  -27.5723  -13.2433   19.7133 C   0  0  2  0  0  0  0  0  0  0  0  0
  -29.7600  -23.7412   21.9679 C   0  0  2  0  0  0  0  0  0  1  0  0
  -22.6355  -27.2556   13.7853 C   0  0  0  0  0  0  0  0  0  0  0  0
  -21.6615  -28.2954   20.2537 C   0  0  0  0  0  0  0  0  0  0  0  0
  -20.8730  -27.2921   18.0997 C   0  0  0  0  0  0  0  0  0  0  0  0
  -21.1558  -29.7630   18.2929 C   0  0  0  0  0  0  0  0  0  0  0  0
  -26.3705  -27.6620   14.3860 C   0  0  0  0  0  0  0  0  0  0  0  0
  -23.2046  -28.2858   18.1838 C   0  0  1  0  0  0  0  0  0  0  0  0
  -23.8776  -27.7815   14.4875 C   0  0  2  0  0  0  0  0  0  0  0  0
  -21.7492  -28.4023   18.7182 C   0  0  0  0  0  0  0  0  0  0  0  0
  -25.8624  -11.5608   20.2850 N   0  0  0  0  0  0  0  0  0  0  0  0
  -26.1769  -12.8624   20.1714 N   0  0  0  0  0  0  0  0  0  0  0  0
  -30.2780  -21.4687   21.6135 N   0  0  3  0  0  0  0  0  0  0  0  0
  -25.2196  -28.8587   19.5013 N   0  0  0  0  0  0  0  0  0  0  0  0
  -29.8644  -13.8280   20.4023 N   0  0  0  0  0  0  0  0  0  0  0  0
  -25.3021  -15.0473   20.4389 N   0  0  0  0  0  0  0  0  0  0  0  0
  -21.8371  -12.3895   21.5904 N   0  0  0  0  0  0  0  0  0  0  0  0
  -29.8698  -15.8985   21.5316 N   0  0  0  0  0  0  0  0  0  0  0  0
  -25.5836  -31.0343   22.3056 N   0  0  0  0  0  0  0  0  0  0  0  0
  -23.3210  -28.4106   16.7349 N   0  0  0  0  0  0  0  0  0  0  0  0
  -25.0769  -27.2102   13.8120 N   0  3  0  0  0  0  0  0  0  0  0  0
  -22.5089  -14.5673   21.3357 O   0  0  0  0  0  0  0  0  0  0  0  0
  -25.0463  -28.7744   22.1423 O   0  0  0  0  0  0  0  0  0  0  0  0
  -23.8709  -30.5263   18.5869 O   0  0  0  0  0  0  0  0  0  0  0  0
  -24.3210  -26.3485   16.3815 O   0  0  0  0  0  0  0  0  0  0  0  0
  -31.6859  -15.2428   20.2457 O   0  0  0  0  0  0  0  0  0  0  0  0
  -21.8343   -6.8188   21.6403 O   0  0  0  0  0  0  0  0  0  0  0  0
  -28.7834  -24.0452   20.9786 O   0  0  0  0  0  0  0  0  0  1  0  0
  -18.8367   -6.4668   26.2549 F   0  0  0  0  0  0  0  0  0  0  0  0
  -28.3571  -17.4432   23.2914 F   0  0  0  0  0  0  0  0  0  0  0  0
  -22.3713   -4.8795   23.5360 F   0  0  0  0  0  0  0  0  0  0  0  0
  1  2  1  0  0  0  0
  1  5  2  0  0  0  0
  2  6  2  0  0  0  0
  3 10  2  0  0  0  0
  3 18  1  0  0  0  0
  4 11  1  0  0  0  0
  4 18  2  0  0  0  0
  5 20  1  0  0  0  0
  6 22  1  0  0  0  0
  7 12  2  0  0  0  0
  7 21  1  0  0  0  0
  8  9  2  0  0  0  0
  8 24  1  0  0  0  0
  9 25  1  0  0  0  0
 10 26  1  0  0  0  0
 11 26  2  0  0  0  0
 12 27  1  0  0  0  0
 13 14  2  0  0  0  0
 13 28  1  0  0  0  0
 14 29  1  0  0  0  0
 15 23  1  0  0  0  0
 15 27  2  0  0  0  0
 16 24  2  0  0  0  0
 16 30  1  0  0  0  0
 17 29  2  0  0  0  0
 17 31  1  0  0  0  0
 18 32  1  0  0  0  0
 19 32  1  0  0  0  0
 19 33  2  0  0  0  0
 19 34  1  0  0  0  0
 20 22  2  0  0  0  0
 20 39  1  0  0  0  0
 21 23  2  0  0  0  0
 21 40  1  0  0  0  0
 22 51  1  0  0  0  0
 23 41  1  0  0  0  0
 24 65  1  0  0  0  0
 25 30  2  0  0  0  0
 25 70  1  0  0  0  0
 26 79  1  0  0  0  0
 27 80  1  0  0  0  0
 28 31  2  0  0  0  0
 28 79  1  0  0  0  0
 29 81  1  0  0  0  0
 30 82  1  0  0  0  0
 31 83  1  0  0  0  0
 32 63  2  0  0  0  0
 33 64  1  0  0  0  0
 33 68  1  0  0  0  0
 34 69  1  0  0  0  0
 34 74  2  0  0  0  0
 35 52  1  0  0  0  0
 35 71  1  0  0  0  0
 35 75  2  0  0  0  0
 36 60  1  0  0  0  0
 36 66  1  0  0  0  0
 36 76  2  0  0  0  0
 37 61  1  0  0  0  0
 37 72  1  0  0  0  0
 37 77  2  0  0  0  0
 38 67  1  0  0  0  0
 38 70  1  0  0  0  0
 38 78  2  0  0  0  0
 39 42  1  0  0  0  0
 40 52  1  0  0  0  0
 41 66  1  0  0  0  0
 42 44  1  0  0  0  0
 43 45  1  0  0  0  0
 43 47  1  0  0  0  0
 44 51  1  0  0  0  0
 45 53  1  0  0  0  0
 46 48  1  0  0  0  0
 46 54  1  0  0  0  0
 47 67  1  0  0  0  0
 48 65  1  0  0  0  0
 49 53  1  0  0  0  0
 49 67  1  0  0  0  0
 50 54  1  0  0  0  0
 50 65  1  0  0  0  0
 51 71  1  0  0  0  0
 52 66  1  0  0  0  0
 53 64  1  0  0  0  0
 54 80  1  0  0  0  0
 55 61  1  0  0  0  0
 56 62  1  0  0  0  0
 57 62  1  0  0  0  0
 58 62  1  0  0  0  0
 59 73  1  0  0  0  0
 60 62  1  0  0  0  0
 60 72  1  0  0  0  0
 61 73  1  0  0  0  0
 63 64  1  0  0  0  0
M  CHG  1  73   1
M  ISO  4  38 100  54 101  70 100  80 101
M  END
> <Batch ID>
0013

> <Smiles>
CNC(C)C(=O)NC(C(=O)N1Cc2cc([101O:1][101CH:1]3CCN(c4ccc([100NH:0][100C:0](=O)N5CCCC(n6nc(-c7ccc(Oc8ccc(F)cc8F)cc7)c(C(N)=O)c6N)C5)c(F)c4)C3)ccc2CC1C(=O)NC1CCCc2ccccc21)C(C)(C)C

> <Shape>
0.353

> <Color>
0.208

> <Negative vol penalty>
0.000

$$$$

  -OEChem-04042320483D

 83 91  0     1  0  0  0  0  0999 V2000
  -27.2810  -11.8658   22.9744 C   0  0  0  0  0  0  0  0  0  0  0  0
  -27.9934  -13.0232   22.6772 C   0  0  0  0  0  0  0  0  0  0  0  0
  -23.8156  -29.9307   21.9260 C   0  0  0  0  0  0  0  0  0  0  0  0
  -22.9927  -27.6648   22.0859 C   0  0  0  0  0  0  0  0  0  0  0  0
  -26.0886  -11.5915   22.3059 C   0  0  0  0  0  0  0  0  0  0  0  0
  -27.5144  -13.9065   21.7104 C   0  0  0  0  0  0  0  0  0  0  0  0
  -28.0190  -20.0099   21.7268 C   0  0  0  0  0  0  0  0  0  0  0  0
  -29.5455  -26.3448   15.5375 C   0  0  0  0  0  0  0  0  0  0  0  0
  -29.9465  -25.1397   16.1140 C   0  0  0  0  0  0  0  0  0  0  0  0
  -22.7522  -30.3724   22.7132 C   0  0  0  0  0  0  0  0  0  0  0  0
  -21.9294  -28.1065   22.8731 C   0  0  0  0  0  0  0  0  0  0  0  0
  -28.9045  -20.8795   21.0917 C   0  0  0  0  0  0  0  0  0  0  0  0
  -18.7985  -28.6872   24.6253 C   0  0  0  0  0  0  0  0  0  0  0  0
  -17.5265  -28.1958   24.3317 C   0  0  0  0  0  0  0  0  0  0  0  0
  -27.3064  -21.1982   19.3130 C   0  0  0  0  0  0  0  0  0  0  0  0
  -30.9000  -27.5570   17.1290 C   0  0  0  0  0  0  0  0  0  0  0  0
  -17.6746  -29.1387   22.1122 C   0  0  0  0  0  0  0  0  0  0  0  0
  -23.9358  -28.5769   21.6123 C   0  0  0  0  0  0  0  0  0  0  0  0
  -26.2994  -27.6915   21.2417 C   0  0  0  0  0  0  0  0  0  0  0  0
  -25.5897  -12.4767   21.3373 C   0  0  0  0  0  0  0  0  0  0  0  0
  -26.7729  -19.7188   21.1533 C   0  0  0  0  0  0  0  0  0  0  0  0
  -26.3149  -13.6431   21.0273 C   0  0  0  0  0  0  0  0  0  0  0  0
  -26.4059  -20.3265   19.9441 C   0  0  0  0  0  0  0  0  0  0  0  0
  -30.0223  -27.5535   16.0449 C   0  0  0  0  0  0  0  0  0  0  0  0
  -30.8242  -25.1431   17.1981 C   0  0  0  0  0  0  0  0  0  0  0  0
  -21.8091  -29.4604   23.1868 C   0  0  0  0  0  0  0  0  0  0  0  0
  -28.5495  -21.4716   19.8832 C   0  0  0  0  0  0  0  0  0  0  0  0
  -19.5085  -29.4045   23.6624 C   0  0  0  0  0  0  0  0  0  0  0  0
  -16.9646  -28.4215   23.0751 C   0  0  0  0  0  0  0  0  0  0  0  0
  -31.3010  -26.3518   17.7056 C   0  0  0  0  0  0  0  0  0  0  0  0
  -18.9466  -29.6302   22.4059 C   0  0  0  0  0  0  0  0  0  0  0  0
  -25.0337  -28.1201   20.7987 C   0  0  0  0  0  0  0  0  0  0  0  0
  -26.9736  -27.3646   20.0906 C   0  0  0  0  0  0  0  0  0  0  0  0
  -26.8191  -27.5973   22.5746 C   0  0  0  0  0  0  0  0  0  0  0  0
  -25.3604  -17.0833   20.0750 C   0  0  0  0  0  0  0  0  0  0  0  0
  -22.8042  -19.0540   19.7513 C   0  0  0  0  0  0  0  0  0  0  0  0
  -21.6283  -22.2349   19.3690 C   0  0  0  0  0  0  0  0  0  0  0  0
  -28.3561  -28.9798   14.8282 C   0  0  0  0  0  0  0  0  0  0  0  0
  -24.3207  -12.1141   20.6073 C   0  0  0  0  0  0  0  0  0  0  0  0
  -25.8181  -18.7994   21.8643 C   0  0  0  0  0  0  0  0  0  0  0  0
  -25.0716  -20.0629   19.2970 C   0  0  0  0  0  0  0  0  0  0  0  0
  -23.6891  -13.2881   19.8636 C   0  0  0  0  0  0  0  0  0  0  0  0
  -25.3772  -26.8430   15.3318 C   0  0  0  0  0  0  0  0  0  0  0  0
  -24.7472  -14.0501   19.0721 C   0  0  0  0  0  0  0  0  0  0  0  0
  -25.0799  -27.0205   16.8196 C   0  0  0  0  0  0  0  0  0  0  0  0
  -26.0556  -28.0742   14.7389 C   0  0  0  0  0  0  0  0  0  0  0  0
  -27.0020  -28.6543   16.9546 C   0  0  0  0  0  0  0  0  0  0  0  0
  -25.8150  -14.6382   20.0025 C   0  0  1  0  0  0  0  0  0  0  0  0
  -24.7844  -18.1746   20.9323 C   0  0  1  0  0  0  0  0  0  0  0  0
  -26.3551  -27.4117   17.5846 C   0  0  1  0  0  0  0  0  0  0  0  0
  -19.9490  -24.0921   19.2008 C   0  0  0  0  0  0  0  0  0  0  0  0
  -22.6282  -18.1431   16.8446 C   0  0  0  0  0  0  0  0  0  0  0  0
  -21.1488  -20.1111   16.3902 C   0  0  0  0  0  0  0  0  0  0  0  0
  -20.4239  -18.3549   18.0067 C   0  0  0  0  0  0  0  0  0  0  0  0
  -30.6192  -29.8347   15.2511 C   0  0  0  0  0  0  0  0  0  0  0  0
  -32.1452  -23.9294   18.9133 C   0  0  0  0  0  0  0  0  0  0  0  0
  -21.6138  -22.6435   22.3002 C   0  0  0  0  0  0  0  0  0  0  0  0
  -30.7365  -22.6641   17.2814 C   0  0  0  0  0  0  0  0  0  0  0  0
  -29.3509  -22.3796   17.8365 C   0  0  0  0  0  0  0  0  0  1  0  0
  -22.2760  -19.9487   18.6561 C   0  0  1  0  0  0  0  0  0  0  0  0
  -20.5219  -22.9922   20.0810 C   0  0  2  0  0  0  0  0  0  0  0  0
  -21.6452  -19.1431   17.4854 C   0  0  0  0  0  0  0  0  0  0  0  0
  -24.9089  -28.0711   19.4697 N   0  0  0  0  0  0  0  0  0  0  0  0
  -26.1047  -27.6080   19.0678 N   0  0  0  0  0  0  0  0  0  0  0  0
  -24.1753  -19.1518   20.0277 N   0  0  0  0  0  0  0  0  0  0  0  0
  -27.2333  -28.4705   15.5125 N   0  0  0  0  0  0  0  0  0  0  0  0
  -28.2189  -26.8955   19.8636 N   0  0  0  0  0  0  0  0  0  0  0  0
  -25.9927  -27.9735   23.6422 N   0  0  0  0  0  0  0  0  0  0  0  0
  -25.3162  -15.8298   20.6548 N   0  0  0  0  0  0  0  0  0  0  0  0
  -21.3599  -20.8842   19.2995 N   0  0  0  0  0  0  0  0  0  0  0  0
  -29.6070  -28.7996   15.4486 N   0  0  0  0  0  0  0  0  0  0  0  0
  -31.2247  -23.9310   17.7759 N   0  0  3  0  0  0  0  0  0  0  0  0
  -21.0416  -23.6139   21.3317 N   0  3  0  0  0  0  0  0  0  0  0  0
  -27.9876  -27.2070   22.8108 O   0  0  0  0  0  0  0  0  0  0  0  0
  -25.8101  -17.3580   18.9687 O   0  0  0  0  0  0  0  0  0  0  0  0
  -22.0275  -18.3015   20.3447 O   0  0  0  0  0  0  0  0  0  0  0  0
  -22.6287  -22.7869   18.9163 O   0  0  0  0  0  0  0  0  0  0  0  0
  -28.2473  -29.6019   13.7644 O   0  0  0  0  0  0  0  0  0  0  0  0
  -20.7715  -29.8910   23.9552 O   0  0  0  0  0  0  0  0  0  0  0  0
  -29.4122  -22.3204   19.2609 O   0  0  0  0  0  0  0  0  0  1  0  0
  -15.7438  -27.9482   22.7927 F   0  0  0  0  0  0  0  0  0  0  0  0
  -32.1436  -26.3666   18.7483 F   0  0  0  0  0  0  0  0  0  0  0  0
  -19.6244  -30.3175   21.4763 F   0  0  0  0  0  0  0  0  0  0  0  0
  1  2  1  0  0  0  0
  1  5  2  0  0  0  0
  2  6  2  0  0  0  0
  3 10  2  0  0  0  0
  3 18  1  0  0  0  0
  4 11  1  0  0  0  0
  4 18  2  0  0  0  0
  5 20  1  0  0  0  0
  6 22  1  0  0  0  0
  7 12  2  0  0  0  0
  7 21  1  0  0  0  0
  8  9  2  0  0  0  0
  8 24  1  0  0  0  0
  9 25  1  0  0  0  0
 10 26  1  0  0  0  0
 11 26  2  0  0  0  0
 12 27  1  0  0  0  0
 13 14  2  0  0  0  0
 13 28  1  0  0  0  0
 14 29  1  0  0  0  0
 15 23  1  0  0  0  0
 15 27  2  0  0  0  0
 16 24  2  0  0  0  0
 16 30  1  0  0  0  0
 17 29  2  0  0  0  0
 17 31  1  0  0  0  0
 18 32  1  0  0  0  0
 19 32  1  0  0  0  0
 19 33  2  0  0  0  0
 19 34  1  0  0  0  0
 20 22  2  0  0  0  0
 20 39  1  0  0  0  0
 21 23  2  0  0  0  0
 21 40  1  0  0  0  0
 22 48  1  0  0  0  0
 23 41  1  0  0  0  0
 24 71  1  0  0  0  0
 25 30  2  0  0  0  0
 25 72  1  0  0  0  0
 26 79  1  0  0  0  0
 27 80  1  0  0  0  0
 28 31  2  0  0  0  0
 28 79  1  0  0  0  0
 29 81  1  0  0  0  0
 30 82  1  0  0  0  0
 31 83  1  0  0  0  0
 32 63  2  0  0  0  0
 33 64  1  0  0  0  0
 33 67  1  0  0  0  0
 34 68  1  0  0  0  0
 34 74  2  0  0  0  0
 35 49  1  0  0  0  0
 35 69  1  0  0  0  0
 35 75  2  0  0  0  0
 36 60  1  0  0  0  0
 36 65  1  0  0  0  0
 36 76  2  0  0  0  0
 37 61  1  0  0  0  0
 37 70  1  0  0  0  0
 37 77  2  0  0  0  0
 38 66  1  0  0  0  0
 38 71  1  0  0  0  0
 38 78  2  0  0  0  0
 39 42  1  0  0  0  0
 40 49  1  0  0  0  0
 41 65  1  0  0  0  0
 42 44  1  0  0  0  0
 43 45  1  0  0  0  0
 43 46  1  0  0  0  0
 44 48  1  0  0  0  0
 45 50  1  0  0  0  0
 46 66  1  0  0  0  0
 47 50  1  0  0  0  0
 47 66  1  0  0  0  0
 48 69  1  0  0  0  0
 49 65  1  0  0  0  0
 50 64  1  0  0  0  0
 51 61  1  0  0  0  0
 52 62  1  0  0  0  0
 53 62  1  0  0  0  0
 54 62  1  0  0  0  0
 55 71  1  0  0  0  0
 56 72  1  0  0  0  0
 57 73  1  0  0  0  0
 58 59  1  0  0  0  0
 58 72  1  0  0  0  0
 59 80  1  0  0  0  0
 60 62  1  0  0  0  0
 60 70  1  0  0  0  0
 61 73  1  0  0  0  0
 63 64  1  0  0  0  0
M  CHG  1  73   1
M  ISO  4  38 100  59 101  71 100  80 101
M  END
> <Batch ID>
0013

> <Smiles>
CNC(C)C(=O)NC(C(=O)N1Cc2cc([101O:1][101CH2:1]CN(C)c3ccc([100N:0](C)[100C:0](=O)N4CCCC(n5nc(-c6ccc(Oc7ccc(F)cc7F)cc6)c(C(N)=O)c5N)C4)cc3F)ccc2CC1C(=O)NC1CCCc2ccccc21)C(C)(C)C

> <Shape>
0.188

> <Color>
0.082

> <Negative vol penalty>
0.000

$$$$

  -OEChem-04042320483D

 84 93  0     1  0  0  0  0  0999 V2000
  -29.4184  -30.8908   26.6115 C   0  0  0  0  0  0  0  0  0  0  0  0
  -29.2135  -30.0287   25.5391 C   0  0  0  0  0  0  0  0  0  0  0  0
  -24.2455   -8.8599   21.3885 C   0  0  0  0  0  0  0  0  0  0  0  0
  -23.9153  -10.6993   22.9197 C   0  0  0  0  0  0  0  0  0  0  0  0
  -28.3310  -31.3475   27.3551 C   0  0  0  0  0  0  0  0  0  0  0  0
  -27.9209  -29.6218   25.2103 C   0  0  0  0  0  0  0  0  0  0  0  0
  -27.0305  -29.8178   20.2290 C   0  0  0  0  0  0  0  0  0  0  0  0
  -27.2658  -20.0587   18.4370 C   0  0  0  0  0  0  0  0  0  0  0  0
  -27.3195  -18.6654   18.4716 C   0  0  0  0  0  0  0  0  0  0  0  0
  -23.7133   -7.9799   22.3308 C   0  0  0  0  0  0  0  0  0  0  0  0
  -23.3830   -9.8193   23.8620 C   0  0  0  0  0  0  0  0  0  0  0  0
  -27.5466  -28.7841   19.4487 C   0  0  0  0  0  0  0  0  0  0  0  0
  -20.6518   -7.0847   23.4529 C   0  0  0  0  0  0  0  0  0  0  0  0
  -19.7239   -6.1428   23.0087 C   0  0  0  0  0  0  0  0  0  0  0  0
  -25.3769  -27.7302   19.4205 C   0  0  0  0  0  0  0  0  0  0  0  0
  -29.6629  -18.7699   19.0501 C   0  0  0  0  0  0  0  0  0  0  0  0
  -21.1771   -4.3611   23.7510 C   0  0  0  0  0  0  0  0  0  0  0  0
  -24.3465  -10.2196   21.6829 C   0  0  0  0  0  0  0  0  0  0  0  0
  -24.1958  -11.8334   19.7130 C   0  0  0  0  0  0  0  0  0  0  0  0
  -27.0236  -30.9536   27.0293 C   0  0  0  0  0  0  0  0  0  0  0  0
  -25.6840  -29.8099   20.6207 C   0  0  0  0  0  0  0  0  0  0  0  0
  -26.8151  -30.0725   25.9511 C   0  0  0  0  0  0  0  0  0  0  0  0
  -24.8455  -28.7663   20.2036 C   0  0  0  0  0  0  0  0  0  0  0  0
  -28.4108  -20.8078   18.7088 C   0  0  0  0  0  0  0  0  0  0  0  0
  -28.5180  -18.0210   18.7782 C   0  0  0  0  0  0  0  0  0  0  0  0
  -23.2820   -8.4596   23.5675 C   0  0  0  0  0  0  0  0  0  0  0  0
  -26.7205  -27.7386   19.0468 C   0  0  0  0  0  0  0  0  0  0  0  0
  -21.8425   -6.6649   24.0460 C   0  0  0  0  0  0  0  0  0  0  0  0
  -19.9865   -4.7810   23.1578 C   0  0  0  0  0  0  0  0  0  0  0  0
  -29.6093  -20.1633   19.0154 C   0  0  0  0  0  0  0  0  0  0  0  0
  -22.1051   -5.3031   24.1951 C   0  0  0  0  0  0  0  0  0  0  0  0
  -24.8968  -11.1290   20.7101 C   0  0  0  0  0  0  0  0  0  0  0  0
  -25.1636  -12.5543   19.0571 C   0  0  0  0  0  0  0  0  0  0  0  0
  -22.7950  -11.8360   19.4071 C   0  0  0  0  0  0  0  0  0  0  0  0
  -24.1592  -29.7096   23.4079 C   0  0  0  0  0  0  0  0  0  0  0  0
  -21.5376  -30.1385   21.5464 C   0  0  0  0  0  0  0  0  0  0  0  0
  -20.0825  -29.8264   18.4752 C   0  0  0  0  0  0  0  0  0  0  0  0
  -29.6807  -15.8095   19.1000 C   0  0  0  0  0  0  0  0  0  0  0  0
  -25.8840  -31.4358   27.8915 C   0  0  0  0  0  0  0  0  0  0  0  0
  -25.1362  -30.9461   21.4400 C   0  0  0  0  0  0  0  0  0  0  0  0
  -23.3879  -28.7213   20.5804 C   0  0  0  0  0  0  0  0  0  0  0  0
  -24.5127  -31.2546   27.2458 C   0  0  0  0  0  0  0  0  0  0  0  0
  -30.2117  -12.2959   19.3242 C   0  0  0  0  0  0  0  0  0  0  0  0
  -24.3839  -29.8564   26.6498 C   0  0  0  0  0  0  0  0  0  0  0  0
  -28.8186  -11.7371   19.6227 C   0  0  0  0  0  0  0  0  0  0  0  0
  -28.8759  -24.4469   19.0690 C   0  0  0  0  0  0  0  0  0  0  0  0
  -30.4479  -13.6336   20.0231 C   0  0  0  0  0  0  0  0  0  0  0  0
  -29.4956  -23.0570   18.9411 C   0  0  0  0  0  0  0  0  0  0  0  0
  -27.1466  -22.9484   18.3685 C   0  0  0  0  0  0  0  0  0  0  0  0
  -28.0284  -14.0950   20.0727 C   0  0  0  0  0  0  0  0  0  0  0  0
  -25.4257  -29.6282   25.5480 C   0  0  1  0  0  0  0  0  0  0  0  0
  -23.8741  -30.5724   22.2113 C   0  0  1  0  0  0  0  0  0  0  0  0
  -27.6631  -24.3743   18.1458 C   0  0  1  0  0  0  0  0  0  0  0  0
  -27.7201  -12.7801   19.3382 C   0  0  2  0  0  0  0  0  0  0  0  0
  -17.9176  -30.2275   17.2712 C   0  0  0  0  0  0  0  0  0  0  0  0
  -20.3417  -27.6675   22.8784 C   0  0  0  0  0  0  0  0  0  0  0  0
  -18.6651  -27.5639   21.0220 C   0  0  0  0  0  0  0  0  0  0  0  0
  -18.7306  -29.5486   22.5318 C   0  0  0  0  0  0  0  0  0  0  0  0
  -21.3477  -31.7273   16.5925 C   0  0  0  0  0  0  0  0  0  0  0  0
  -26.6231  -25.4417   18.4380 C   0  0  0  0  0  0  0  0  0  1  0  0
  -20.5729  -29.2237   20.8312 C   0  0  1  0  0  0  0  0  0  0  0  0
  -19.2763  -30.8034   17.6386 C   0  0  2  0  0  0  0  0  0  0  0  0
  -19.6055  -28.5005   21.8102 C   0  0  0  0  0  0  0  0  0  0  0  0
  -26.2086  -11.3796   20.6929 N   0  0  0  0  0  0  0  0  0  0  0  0
  -26.3396  -12.2494   19.6769 N   0  0  0  0  0  0  0  0  0  0  0  0
  -28.3550  -22.1849   18.6724 N   0  0  3  0  0  0  0  0  0  0  0  0
  -22.9009  -29.8520   21.3877 N   0  0  0  0  0  0  0  0  0  0  0  0
  -29.3703  -14.5727   19.7040 N   0  0  0  0  0  0  0  0  0  0  0  0
  -25.1148  -13.4128   18.0164 N   0  0  0  0  0  0  0  0  0  0  0  0
  -21.9408  -11.0380   20.1804 N   0  0  0  0  0  0  0  0  0  0  0  0
  -28.5722  -16.6055   18.8134 N   0  0  0  0  0  0  0  0  0  0  0  0
  -25.0191  -30.2847   24.3241 N   0  0  0  0  0  0  0  0  0  0  0  0
  -19.9039  -30.0418   19.8254 N   0  0  0  0  0  0  0  0  0  0  0  0
  -20.0039  -31.1308   16.3799 N   0  3  0  0  0  0  0  0  0  0  0  0
  -22.3174  -12.5129   18.4652 O   0  0  0  0  0  0  0  0  0  0  0  0
  -23.6366  -28.6045   23.4943 O   0  0  0  0  0  0  0  0  0  0  0  0
  -21.0979  -31.0771   22.2152 O   0  0  0  0  0  0  0  0  0  0  0  0
  -20.7961  -28.9566   17.9805 O   0  0  0  0  0  0  0  0  0  0  0  0
  -30.8421  -16.1266   18.8302 O   0  0  0  0  0  0  0  0  0  0  0  0
  -22.7624   -7.6012   24.4872 O   0  0  0  0  0  0  0  0  0  0  0  0
  -27.2219  -26.7280   18.2857 O   0  0  0  0  0  0  0  0  0  1  0  0
  -19.0946   -3.8766   22.7326 F   0  0  0  0  0  0  0  0  0  0  0  0
  -30.7157  -20.8738   19.2768 F   0  0  0  0  0  0  0  0  0  0  0  0
  -23.2467   -4.8937   24.7652 F   0  0  0  0  0  0  0  0  0  0  0  0
  1  2  1  0  0  0  0
  1  5  2  0  0  0  0
  2  6  2  0  0  0  0
  3 10  2  0  0  0  0
  3 18  1  0  0  0  0
  4 11  1  0  0  0  0
  4 18  2  0  0  0  0
  5 20  1  0  0  0  0
  6 22  1  0  0  0  0
  7 12  2  0  0  0  0
  7 21  1  0  0  0  0
  8  9  2  0  0  0  0
  8 24  1  0  0  0  0
  9 25  1  0  0  0  0
 10 26  1  0  0  0  0
 11 26  2  0  0  0  0
 12 27  1  0  0  0  0
 13 14  2  0  0  0  0
 13 28  1  0  0  0  0
 14 29  1  0  0  0  0
 15 23  1  0  0  0  0
 15 27  2  0  0  0  0
 16 25  2  0  0  0  0
 16 30  1  0  0  0  0
 17 29  2  0  0  0  0
 17 31  1  0  0  0  0
 18 32  1  0  0  0  0
 19 32  1  0  0  0  0
 19 33  2  0  0  0  0
 19 34  1  0  0  0  0
 20 22  2  0  0  0  0
 20 39  1  0  0  0  0
 21 23  2  0  0  0  0
 21 40  1  0  0  0  0
 22 51  1  0  0  0  0
 23 41  1  0  0  0  0
 24 30  2  0  0  0  0
 24 66  1  0  0  0  0
 25 71  1  0  0  0  0
 26 80  1  0  0  0  0
 27 81  1  0  0  0  0
 28 31  2  0  0  0  0
 28 80  1  0  0  0  0
 29 82  1  0  0  0  0
 30 83  1  0  0  0  0
 31 84  1  0  0  0  0
 32 64  2  0  0  0  0
 33 65  1  0  0  0  0
 33 69  1  0  0  0  0
 34 70  1  0  0  0  0
 34 75  2  0  0  0  0
 35 52  1  0  0  0  0
 35 72  1  0  0  0  0
 35 76  2  0  0  0  0
 36 61  1  0  0  0  0
 36 67  1  0  0  0  0
 36 77  2  0  0  0  0
 37 62  1  0  0  0  0
 37 73  1  0  0  0  0
 37 78  2  0  0  0  0
 38 68  1  0  0  0  0
 38 71  1  0  0  0  0
 38 79  2  0  0  0  0
 39 42  1  0  0  0  0
 40 52  1  0  0  0  0
 41 67  1  0  0  0  0
 42 44  1  0  0  0  0
 43 45  1  0  0  0  0
 43 47  1  0  0  0  0
 44 51  1  0  0  0  0
 45 54  1  0  0  0  0
 46 48  1  0  0  0  0
 46 53  1  0  0  0  0
 47 68  1  0  0  0  0
 48 66  1  0  0  0  0
 49 53  1  0  0  0  0
 49 66  1  0  0  0  0
 50 54  1  0  0  0  0
 50 68  1  0  0  0  0
 51 72  1  0  0  0  0
 52 67  1  0  0  0  0
 53 60  1  0  0  0  0
 54 65  1  0  0  0  0
 55 62  1  0  0  0  0
 56 63  1  0  0  0  0
 57 63  1  0  0  0  0
 58 63  1  0  0  0  0
 59 74  1  0  0  0  0
 60 81  1  0  0  0  0
 61 63  1  0  0  0  0
 61 73  1  0  0  0  0
 62 74  1  0  0  0  0
 64 65  1  0  0  0  0
M  CHG  1  74   1
M  ISO  4  38 100  60 101  71 100  81 101
M  END
> <Batch ID>
0013

> <Smiles>
CNC(C)C(=O)NC(C(=O)N1Cc2cc([101O:1][101CH2:1]C3CCN(c4ccc([100NH:0][100C:0](=O)N5CCCC(n6nc(-c7ccc(Oc8ccc(F)cc8F)cc7)c(C(N)=O)c6N)C5)cc4F)C3)ccc2CC1C(=O)NC1CCCc2ccccc21)C(C)(C)C

> <Shape>
0.307

> <Color>
0.097

> <Negative vol penalty>
0.000

$$$$

  -OEChem-04042320483D

 82 91  0     1  0  0  0  0  0999 V2000
  -27.5295  -34.3096   25.5324 C   0  0  0  0  0  0  0  0  0  0  0  0
  -28.0544  -33.0424   25.2994 C   0  0  0  0  0  0  0  0  0  0  0  0
  -23.1631   -9.7550   19.9109 C   0  0  0  0  0  0  0  0  0  0  0  0
  -23.9110   -9.7778   22.2081 C   0  0  0  0  0  0  0  0  0  0  0  0
  -26.2139  -34.5953   25.1699 C   0  0  0  0  0  0  0  0  0  0  0  0
  -27.2635  -32.0599   24.7047 C   0  0  0  0  0  0  0  0  0  0  0  0
  -29.1147  -27.6823   20.8427 C   0  0  0  0  0  0  0  0  0  0  0  0
  -30.9460  -19.3519   20.6994 C   0  0  0  0  0  0  0  0  0  0  0  0
  -29.2994  -19.4448   22.4649 C   0  0  0  0  0  0  0  0  0  0  0  0
  -30.8455  -17.9608   20.6788 C   0  0  0  0  0  0  0  0  0  0  0  0
  -29.1988  -18.0537   22.4443 C   0  0  0  0  0  0  0  0  0  0  0  0
  -22.4749   -8.5649   20.1468 C   0  0  0  0  0  0  0  0  0  0  0  0
  -23.2227   -8.5877   22.4440 C   0  0  0  0  0  0  0  0  0  0  0  0
  -29.4318  -26.3378   21.0313 C   0  0  0  0  0  0  0  0  0  0  0  0
  -20.0343   -7.6289   23.0228 C   0  0  0  0  0  0  0  0  0  0  0  0
  -19.2747   -7.5416   24.1894 C   0  0  0  0  0  0  0  0  0  0  0  0
  -27.1952  -25.7235   20.3684 C   0  0  0  0  0  0  0  0  0  0  0  0
  -20.6051   -5.6599   24.9149 C   0  0  0  0  0  0  0  0  0  0  0  0
  -23.8812  -10.3614   20.9416 C   0  0  0  0  0  0  0  0  0  0  0  0
  -24.1007  -12.9011   20.8458 C   0  0  0  0  0  0  0  0  0  0  0  0
  -25.4096  -33.6187   24.5617 C   0  0  0  0  0  0  0  0  0  0  0  0
  -27.8299  -28.0588   20.4253 C   0  0  0  0  0  0  0  0  0  0  0  0
  -25.9355  -32.3325   24.3350 C   0  0  0  0  0  0  0  0  0  0  0  0
  -26.8651  -27.0732   20.1728 C   0  0  0  0  0  0  0  0  0  0  0  0
  -30.1729  -20.0939   21.5925 C   0  0  0  0  0  0  0  0  0  0  0  0
  -29.9719  -17.3117   21.5512 C   0  0  0  0  0  0  0  0  0  0  0  0
  -22.5047   -7.9812   21.4133 C   0  0  0  0  0  0  0  0  0  0  0  0
  -28.4712  -25.3583   20.7969 C   0  0  0  0  0  0  0  0  0  0  0  0
  -21.0793   -6.7316   22.8022 C   0  0  0  0  0  0  0  0  0  0  0  0
  -19.5601   -6.5572   25.1355 C   0  0  0  0  0  0  0  0  0  0  0  0
  -21.3647   -5.7472   23.7483 C   0  0  0  0  0  0  0  0  0  0  0  0
  -24.5928  -11.5904   20.6984 C   0  0  0  0  0  0  0  0  0  0  0  0
  -25.1569  -13.7059   20.4949 C   0  0  0  0  0  0  0  0  0  0  0  0
  -22.8048  -13.3509   21.2628 C   0  0  0  0  0  0  0  0  0  0  0  0
  -25.4880  -29.8073   21.6749 C   0  0  0  0  0  0  0  0  0  0  0  0
  -24.1132  -29.3323   18.7755 C   0  0  0  0  0  0  0  0  0  0  0  0
  -23.8761  -27.4178   15.9603 C   0  0  0  0  0  0  0  0  0  0  0  0
  -30.5651  -15.0135   20.7069 C   0  0  0  0  0  0  0  0  0  0  0  0
  -23.9783  -33.9603   24.2306 C   0  0  0  0  0  0  0  0  0  0  0  0
  -27.5117  -29.5116   20.2008 C   0  0  0  0  0  0  0  0  0  0  0  0
  -25.4773  -27.4237   19.7040 C   0  0  0  0  0  0  0  0  0  0  0  0
  -23.3253  -32.9759   23.2638 C   0  0  0  0  0  0  0  0  0  0  0  0
  -29.5802  -12.5703   18.3116 C   0  0  0  0  0  0  0  0  0  0  0  0
  -23.6115  -31.5395   23.6900 C   0  0  0  0  0  0  0  0  0  0  0  0
  -28.1544  -12.2054   18.7311 C   0  0  0  0  0  0  0  0  0  0  0  0
  -31.1337  -23.6452   21.3375 C   0  0  0  0  0  0  0  0  0  0  0  0
  -30.4775  -12.8322   19.5199 C   0  0  0  0  0  0  0  0  0  0  0  0
  -31.1586  -22.2369   20.7435 C   0  0  0  0  0  0  0  0  0  0  0  0
  -28.5312  -13.4507   20.8977 C   0  0  0  0  0  0  0  0  0  0  0  0
  -29.5018  -22.3327   22.5089 C   0  0  0  0  0  0  0  0  0  0  0  0
  -25.1168  -31.2476   23.6696 C   0  0  1  0  0  0  0  0  0  0  0  0
  -26.0179  -29.8135   20.2689 C   0  0  1  0  0  0  0  0  0  0  0  0
  -27.5735  -13.2413   19.7134 C   0  0  2  0  0  0  0  0  0  0  0  0
  -29.7534  -23.7407   21.9711 C   0  0  2  0  0  0  0  0  0  1  0  0
  -22.6381  -27.2611   13.7831 C   0  0  0  0  0  0  0  0  0  0  0  0
  -21.6540  -28.2914   20.2515 C   0  0  0  0  0  0  0  0  0  0  0  0
  -20.8693  -27.2905   18.0950 C   0  0  0  0  0  0  0  0  0  0  0  0
  -21.1500  -29.7613   18.2920 C   0  0  0  0  0  0  0  0  0  0  0  0
  -26.3719  -27.6695   14.3897 C   0  0  0  0  0  0  0  0  0  0  0  0
  -23.2001  -28.2857   18.1838 C   0  0  1  0  0  0  0  0  0  0  0  0
  -23.8788  -27.7871   14.4878 C   0  0  2  0  0  0  0  0  0  0  0  0
  -21.7439  -28.4004   18.7163 C   0  0  0  0  0  0  0  0  0  0  0  0
  -25.8628  -11.5598   20.2858 N   0  0  0  0  0  0  0  0  0  0  0  0
  -26.1776  -12.8613   20.1709 N   0  0  0  0  0  0  0  0  0  0  0  0
  -30.2736  -21.4691   21.6143 N   0  0  3  0  0  0  0  0  0  0  0  0
  -25.2128  -28.8583   19.5050 N   0  0  0  0  0  0  0  0  0  0  0  0
  -29.8651  -13.8267   20.4035 N   0  0  0  0  0  0  0  0  0  0  0  0
  -25.3029  -15.0467   20.4348 N   0  0  0  0  0  0  0  0  0  0  0  0
  -21.8366  -12.3907   21.5868 N   0  0  0  0  0  0  0  0  0  0  0  0
  -29.8698  -15.8986   21.5302 N   0  0  0  0  0  0  0  0  0  0  0  0
  -25.5711  -31.0303   22.3128 N   0  0  0  0  0  0  0  0  0  0  0  0
  -23.3185  -28.4126   16.7353 N   0  0  0  0  0  0  0  0  0  0  0  0
  -25.0795  -27.2175   13.8132 N   0  3  0  0  0  0  0  0  0  0  0  0
  -22.5089  -14.5681   21.3299 O   0  0  0  0  0  0  0  0  0  0  0  0
  -25.0358  -28.7702   22.1456 O   0  0  0  0  0  0  0  0  0  0  0  0
  -23.8642  -30.5262   18.5909 O   0  0  0  0  0  0  0  0  0  0  0  0
  -24.3205  -26.3517   16.3805 O   0  0  0  0  0  0  0  0  0  0  0  0
  -31.6869  -15.2410   20.2467 O   0  0  0  0  0  0  0  0  0  0  0  0
  -21.8330   -6.8201   21.6439 O   0  0  0  0  0  0  0  0  0  0  0  0
  -28.7779  -24.0453   20.9808 O   0  0  0  0  0  0  0  0  0  1  0  0
  -18.8315   -6.4744   26.2564 F   0  0  0  0  0  0  0  0  0  0  0  0
  -22.3681   -4.8832   23.5424 F   0  0  0  0  0  0  0  0  0  0  0  0
  1  2  1  0  0  0  0
  1  5  2  0  0  0  0
  2  6  2  0  0  0  0
  3 12  2  0  0  0  0
  3 19  1  0  0  0  0
  4 13  1  0  0  0  0
  4 19  2  0  0  0  0
  5 21  1  0  0  0  0
  6 23  1  0  0  0  0
  7 14  2  0  0  0  0
  7 22  1  0  0  0  0
  8 10  2  0  0  0  0
  8 25  1  0  0  0  0
  9 11  1  0  0  0  0
  9 25  2  0  0  0  0
 10 26  1  0  0  0  0
 11 26  2  0  0  0  0
 12 27  1  0  0  0  0
 13 27  2  0  0  0  0
 14 28  1  0  0  0  0
 15 16  2  0  0  0  0
 15 29  1  0  0  0  0
 16 30  1  0  0  0  0
 17 24  1  0  0  0  0
 17 28  2  0  0  0  0
 18 30  2  0  0  0  0
 18 31  1  0  0  0  0
 19 32  1  0  0  0  0
 20 32  1  0  0  0  0
 20 33  2  0  0  0  0
 20 34  1  0  0  0  0
 21 23  2  0  0  0  0
 21 39  1  0  0  0  0
 22 24  2  0  0  0  0
 22 40  1  0  0  0  0
 23 51  1  0  0  0  0
 24 41  1  0  0  0  0
 25 65  1  0  0  0  0
 26 70  1  0  0  0  0
 27 79  1  0  0  0  0
 28 80  1  0  0  0  0
 29 31  2  0  0  0  0
 29 79  1  0  0  0  0
 30 81  1  0  0  0  0
 31 82  1  0  0  0  0
 32 63  2  0  0  0  0
 33 64  1  0  0  0  0
 33 68  1  0  0  0  0
 34 69  1  0  0  0  0
 34 74  2  0  0  0  0
 35 52  1  0  0  0  0
 35 71  1  0  0  0  0
 35 75  2  0  0  0  0
 36 60  1  0  0  0  0
 36 66  1  0  0  0  0
 36 76  2  0  0  0  0
 37 61  1  0  0  0  0
 37 72  1  0  0  0  0
 37 77  2  0  0  0  0
 38 67  1  0  0  0  0
 38 70  1  0  0  0  0
 38 78  2  0  0  0  0
 39 42  1  0  0  0  0
 40 52  1  0  0  0  0
 41 66  1  0  0  0  0
 42 44  1  0  0  0  0
 43 45  1  0  0  0  0
 43 47  1  0  0  0  0
 44 51  1  0  0  0  0
 45 53  1  0  0  0  0
 46 48  1  0  0  0  0
 46 54  1  0  0  0  0
 47 67  1  0  0  0  0
 48 65  1  0  0  0  0
 49 53  1  0  0  0  0
 49 67  1  0  0  0  0
 50 54  1  0  0  0  0
 50 65  1  0  0  0  0
 51 71  1  0  0  0  0
 52 66  1  0  0  0  0
 53 64  1  0  0  0  0
 54 80  1  0  0  0  0
 55 61  1  0  0  0  0
 56 62  1  0  0  0  0
 57 62  1  0  0  0  0
 58 62  1  0  0  0  0
 59 73  1  0  0  0  0
 60 62  1  0  0  0  0
 60 72  1  0  0  0  0
 61 73  1  0  0  0  0
 63 64  1  0  0  0  0
M  CHG  1  73   1
M  ISO  4  38 100  54 101  70 100  80 101
M  END
> <Batch ID>
0013

> <Smiles>
CNC(C)C(=O)NC(C(=O)N1Cc2cc([101O:1][101CH:1]3CCN(c4ccc([100NH:0][100C:0](=O)N5CCCC(n6nc(-c7ccc(Oc8ccc(F)cc8F)cc7)c(C(N)=O)c6N)C5)cc4)C3)ccc2CC1C(=O)NC1CCCc2ccccc21)C(C)(C)C

> <Shape>
0.353

> <Color>
0.208

> <Negative vol penalty>
0.000

$$$$

  -OEChem-04042320483D

 82 90  0     1  0  0  0  0  0999 V2000
  -26.6092  -34.4110   25.1909 C   0  0  0  0  0  0  0  0  0  0  0  0
  -27.0442  -33.1992   24.6641 C   0  0  0  0  0  0  0  0  0  0  0  0
  -23.5198  -13.9680   19.5749 C   0  0  0  0  0  0  0  0  0  0  0  0
  -23.6431  -15.0230   21.7449 C   0  0  0  0  0  0  0  0  0  0  0  0
  -25.2810  -34.5607   25.5879 C   0  0  0  0  0  0  0  0  0  0  0  0
  -26.1515  -32.1358   24.5350 C   0  0  0  0  0  0  0  0  0  0  0  0
  -26.5427  -29.8036   20.0569 C   0  0  0  0  0  0  0  0  0  0  0  0
  -31.5753  -22.0872   21.6904 C   0  0  0  0  0  0  0  0  0  0  0  0
  -22.9338  -12.8431   20.1551 C   0  0  0  0  0  0  0  0  0  0  0  0
  -23.0571  -13.8980   22.3251 C   0  0  0  0  0  0  0  0  0  0  0  0
  -27.6081  -28.9200   19.8901 C   0  0  0  0  0  0  0  0  0  0  0  0
  -31.3588  -23.4548   21.5217 C   0  0  0  0  0  0  0  0  0  0  0  0
  -23.9410  -10.1363   21.9109 C   0  0  0  0  0  0  0  0  0  0  0  0
  -24.4167   -8.8845   21.5206 C   0  0  0  0  0  0  0  0  0  0  0  0
  -26.1264  -27.0635   20.3109 C   0  0  0  0  0  0  0  0  0  0  0  0
  -29.4029  -21.8711   22.7254 C   0  0  0  0  0  0  0  0  0  0  0  0
  -22.2125   -8.2945   20.7265 C   0  0  0  0  0  0  0  0  0  0  0  0
  -23.8745  -15.0580   20.3698 C   0  0  0  0  0  0  0  0  0  0  0  0
  -23.8214  -17.3533   19.2579 C   0  0  0  0  0  0  0  0  0  0  0  0
  -24.3693  -33.5016   25.4546 C   0  0  0  0  0  0  0  0  0  0  0  0
  -25.2612  -29.3237   20.3632 C   0  0  0  0  0  0  0  0  0  0  0  0
  -24.8102  -32.2709   24.9318 C   0  0  0  0  0  0  0  0  0  0  0  0
  -25.0459  -27.9429   20.4785 C   0  0  0  0  0  0  0  0  0  0  0  0
  -30.5973  -21.2953   22.2923 C   0  0  0  0  0  0  0  0  0  0  0  0
  -22.7024  -12.8081   21.5301 C   0  0  0  0  0  0  0  0  0  0  0  0
  -27.4007  -27.5499   20.0199 C   0  0  0  0  0  0  0  0  0  0  0  0
  -22.6010  -10.4671   21.7092 C   0  0  0  0  0  0  0  0  0  0  0  0
  -30.1644  -24.0305   21.9549 C   0  0  0  0  0  0  0  0  0  0  0  0
  -23.5524   -7.9636   20.9283 C   0  0  0  0  0  0  0  0  0  0  0  0
  -29.1865  -23.2387   22.5567 C   0  0  0  0  0  0  0  0  0  0  0  0
  -21.7368   -9.5463   21.1170 C   0  0  0  0  0  0  0  0  0  0  0  0
  -24.4804  -16.2202   19.7711 C   0  0  0  0  0  0  0  0  0  0  0  0
  -24.8339  -18.1645   18.8069 C   0  0  0  0  0  0  0  0  0  0  0  0
  -22.4193  -17.6465   19.1945 C   0  0  0  0  0  0  0  0  0  0  0  0
  -23.2565  -29.6803   22.8040 C   0  0  0  0  0  0  0  0  0  0  0  0
  -21.2439  -28.0041   20.8903 C   0  0  0  0  0  0  0  0  0  0  0  0
  -20.8604  -25.8014   18.3120 C   0  0  0  0  0  0  0  0  0  0  0  0
  -30.6125  -18.6792   20.2881 C   0  0  0  0  0  0  0  0  0  0  0  0
  -22.9550  -33.6957   25.9414 C   0  0  0  0  0  0  0  0  0  0  0  0
  -24.1169  -30.2882   20.5136 C   0  0  0  0  0  0  0  0  0  0  0  0
  -23.6851  -27.3755   20.7864 C   0  0  0  0  0  0  0  0  0  0  0  0
  -21.9823  -32.6394   25.4235 C   0  0  0  0  0  0  0  0  0  0  0  0
  -29.2841  -17.9787   17.0599 C   0  0  0  0  0  0  0  0  0  0  0  0
  -22.5793  -31.2439   25.5751 C   0  0  0  0  0  0  0  0  0  0  0  0
  -27.8429  -17.5508   17.3424 C   0  0  0  0  0  0  0  0  0  0  0  0
  -30.2406  -17.4917   18.1461 C   0  0  0  0  0  0  0  0  0  0  0  0
  -28.4172  -17.4374   19.8033 C   0  0  0  0  0  0  0  0  0  0  0  0
  -23.8659  -31.1020   24.7529 C   0  0  1  0  0  0  0  0  0  0  0  0
  -22.9608  -29.7209   21.3314 C   0  0  1  0  0  0  0  0  0  0  0  0
  -27.4070  -17.9531   18.7641 C   0  0  2  0  0  0  0  0  0  0  0  0
  -19.0958  -24.5919   17.0004 C   0  0  0  0  0  0  0  0  0  0  0  0
  -20.8456  -26.0689   23.2155 C   0  0  0  0  0  0  0  0  0  0  0  0
  -19.8775  -24.4271   21.5920 C   0  0  0  0  0  0  0  0  0  0  0  0
  -18.7596  -26.6275   21.9541 C   0  0  0  0  0  0  0  0  0  0  0  0
  -21.6871  -27.0978   15.7831 C   0  0  0  0  0  0  0  0  0  0  0  0
  -30.8305  -19.8338   22.4741 C   0  0  0  0  0  0  0  0  0  0  0  0
  -29.7390  -27.1589   20.2077 C   0  0  0  0  0  0  0  0  0  1  0  0
  -30.5842  -25.9885   20.6720 C   0  0  0  0  0  0  0  0  0  0  0  0
  -20.9409  -26.5404   20.6788 C   0  0  1  0  0  0  0  0  0  0  0  0
  -19.9693  -25.8339   17.0834 C   0  0  2  0  0  0  0  0  0  0  0  0
  -20.1321  -25.9265   21.8562 C   0  0  0  0  0  0  0  0  0  0  0  0
  -25.8088  -16.3005   19.6571 N   0  0  0  0  0  0  0  0  0  0  0  0
  -25.9926  -17.4938   19.0670 N   0  0  0  0  0  0  0  0  0  0  0  0
  -22.5996  -28.3596   20.9308 N   0  0  0  0  0  0  0  0  0  0  0  0
  -29.7709  -17.9076   19.4699 N   0  0  0  0  0  0  0  0  0  0  0  0
  -24.8371  -19.3788   18.2172 N   0  0  0  0  0  0  0  0  0  0  0  0
  -21.5159  -16.7036   19.7035 N   0  0  0  0  0  0  0  0  0  0  0  0
  -23.5527  -30.9134   23.3526 N   0  0  0  0  0  0  0  0  0  0  0  0
  -20.2769  -26.4441   19.3833 N   0  0  0  0  0  0  0  0  0  0  0  0
  -30.0876  -19.0360   21.5242 N   0  0  0  0  0  0  0  0  0  0  0  0
  -20.7960  -25.9108   15.8458 N   0  3  0  0  0  0  0  0  0  0  0  0
  -21.9799  -18.7058   18.6863 O   0  0  0  0  0  0  0  0  0  0  0  0
  -23.2173  -28.6096   23.3989 O   0  0  0  0  0  0  0  0  0  0  0  0
  -20.3120  -28.8037   21.0080 O   0  0  0  0  0  0  0  0  0  0  0  0
  -21.9622  -25.2569   18.3215 O   0  0  0  0  0  0  0  0  0  0  0  0
  -31.7455  -19.0289   19.9405 O   0  0  0  0  0  0  0  0  0  0  0  0
  -22.1304  -11.7106   22.0966 O   0  0  0  0  0  0  0  0  0  0  0  0
  -28.4390  -26.6853   19.8583 O   0  0  0  0  0  0  0  0  0  1  0  0
  -29.9534  -25.3741   21.7890 O   0  0  0  0  0  0  0  0  0  0  0  0
  -24.0097   -6.7622   20.5521 F   0  0  0  0  0  0  0  0  0  0  0  0
  -28.0371  -23.7861   22.9752 F   0  0  0  0  0  0  0  0  0  0  0  0
  -20.4487   -9.8589   20.9195 F   0  0  0  0  0  0  0  0  0  0  0  0
  1  2  1  0  0  0  0
  1  5  2  0  0  0  0
  2  6  2  0  0  0  0
  3  9  2  0  0  0  0
  3 18  1  0  0  0  0
  4 10  1  0  0  0  0
  4 18  2  0  0  0  0
  5 20  1  0  0  0  0
  6 22  1  0  0  0  0
  7 11  2  0  0  0  0
  7 21  1  0  0  0  0
  8 12  2  0  0  0  0
  8 24  1  0  0  0  0
  9 25  1  0  0  0  0
 10 25  2  0  0  0  0
 11 26  1  0  0  0  0
 12 28  1  0  0  0  0
 13 14  2  0  0  0  0
 13 27  1  0  0  0  0
 14 29  1  0  0  0  0
 15 23  1  0  0  0  0
 15 26  2  0  0  0  0
 16 24  2  0  0  0  0
 16 30  1  0  0  0  0
 17 29  2  0  0  0  0
 17 31  1  0  0  0  0
 18 32  1  0  0  0  0
 19 32  1  0  0  0  0
 19 33  2  0  0  0  0
 19 34  1  0  0  0  0
 20 22  2  0  0  0  0
 20 39  1  0  0  0  0
 21 23  2  0  0  0  0
 21 40  1  0  0  0  0
 22 48  1  0  0  0  0
 23 41  1  0  0  0  0
 24 56  1  0  0  0  0
 25 77  1  0  0  0  0
 26 78  1  0  0  0  0
 27 31  2  0  0  0  0
 27 77  1  0  0  0  0
 28 30  2  0  0  0  0
 28 79  1  0  0  0  0
 29 80  1  0  0  0  0
 30 81  1  0  0  0  0
 31 82  1  0  0  0  0
 32 62  2  0  0  0  0
 33 63  1  0  0  0  0
 33 66  1  0  0  0  0
 34 67  1  0  0  0  0
 34 72  2  0  0  0  0
 35 49  1  0  0  0  0
 35 68  1  0  0  0  0
 35 73  2  0  0  0  0
 36 59  1  0  0  0  0
 36 64  1  0  0  0  0
 36 74  2  0  0  0  0
 37 60  1  0  0  0  0
 37 69  1  0  0  0  0
 37 75  2  0  0  0  0
 38 65  1  0  0  0  0
 38 70  1  0  0  0  0
 38 76  2  0  0  0  0
 39 42  1  0  0  0  0
 40 49  1  0  0  0  0
 41 64  1  0  0  0  0
 42 44  1  0  0  0  0
 43 45  1  0  0  0  0
 43 46  1  0  0  0  0
 44 48  1  0  0  0  0
 45 50  1  0  0  0  0
 46 65  1  0  0  0  0
 47 50  1  0  0  0  0
 47 65  1  0  0  0  0
 48 68  1  0  0  0  0
 49 64  1  0  0  0  0
 50 63  1  0  0  0  0
 51 60  1  0  0  0  0
 52 61  1  0  0  0  0
 53 61  1  0  0  0  0
 54 61  1  0  0  0  0
 55 71  1  0  0  0  0
 56 70  1  0  0  0  0
 57 58  1  0  0  0  0
 57 78  1  0  0  0  0
 58 79  1  0  0  0  0
 59 61  1  0  0  0  0
 59 69  1  0  0  0  0
 60 71  1  0  0  0  0
 62 63  1  0  0  0  0
M  CHG  1  71   1
M  ISO  4  38 100  57 101  70 100  78 101
M  END
> <Batch ID>
0013

> <Smiles>
CNC(C)C(=O)NC(C(=O)N1Cc2cc([101O:1][101CH2:1]COc3ccc(C[100NH:0][100C:0](=O)N4CCCC(n5nc(-c6ccc(Oc7ccc(F)cc7F)cc6)c(C(N)=O)c5N)C4)cc3F)ccc2CC1C(=O)NC1CCCc2ccccc21)C(C)(C)C

> <Shape>
0.254

> <Color>
0.079

> <Negative vol penalty>
0.000

$$$$

  -OEChem-04042320483D

 82 90  0     1  0  0  0  0  0999 V2000
  -28.8572  -34.3077   19.9237 C   0  0  0  0  0  0  0  0  0  0  0  0
  -29.8421  -33.6105   20.6160 C   0  0  0  0  0  0  0  0  0  0  0  0
  -23.0673   -9.9310   19.9261 C   0  0  0  0  0  0  0  0  0  0  0  0
  -23.8415   -9.9008   22.2145 C   0  0  0  0  0  0  0  0  0  0  0  0
  -27.5964  -33.7394   19.7465 C   0  0  0  0  0  0  0  0  0  0  0  0
  -29.5664  -32.3450   21.1325 C   0  0  0  0  0  0  0  0  0  0  0  0
  -32.7184  -26.0525   22.4688 C   0  0  0  0  0  0  0  0  0  0  0  0
  -32.7836  -17.3642   23.4399 C   0  0  0  0  0  0  0  0  0  0  0  0
  -32.1493  -16.5118   22.5363 C   0  0  0  0  0  0  0  0  0  0  0  0
  -22.3119   -8.7833   20.1665 C   0  0  0  0  0  0  0  0  0  0  0  0
  -23.0860   -8.7532   22.4550 C   0  0  0  0  0  0  0  0  0  0  0  0
  -32.8990  -25.1367   23.5044 C   0  0  0  0  0  0  0  0  0  0  0  0
  -19.8527   -7.9847   23.0681 C   0  0  0  0  0  0  0  0  0  0  0  0
  -19.1026   -7.9388   24.2432 C   0  0  0  0  0  0  0  0  0  0  0  0
  -30.7101  -24.2213   23.0686 C   0  0  0  0  0  0  0  0  0  0  0  0
  -30.6399  -18.2665   24.0938 C   0  0  0  0  0  0  0  0  0  0  0  0
  -20.3263   -5.9784   24.9477 C   0  0  0  0  0  0  0  0  0  0  0  0
  -23.8322  -10.4897   20.9501 C   0  0  0  0  0  0  0  0  0  0  0  0
  -24.2022  -13.0121   20.8591 C   0  0  0  0  0  0  0  0  0  0  0  0
  -27.3081  -32.4622   20.2528 C   0  0  0  0  0  0  0  0  0  0  0  0
  -31.5258  -26.0667   21.7311 C   0  0  0  0  0  0  0  0  0  0  0  0
  -28.3002  -31.7596   20.9631 C   0  0  0  0  0  0  0  0  0  0  0  0
  -30.5179  -25.1365   22.0224 C   0  0  0  0  0  0  0  0  0  0  0  0
  -32.0290  -18.2416   24.2187 C   0  0  0  0  0  0  0  0  0  0  0  0
  -30.7602  -16.5367   22.4114 C   0  0  0  0  0  0  0  0  0  0  0  0
  -22.3212   -8.1944   21.4309 C   0  0  0  0  0  0  0  0  0  0  0  0
  -31.8937  -24.2228   23.8064 C   0  0  0  0  0  0  0  0  0  0  0  0
  -20.8396   -7.0273   22.8327 C   0  0  0  0  0  0  0  0  0  0  0  0
  -19.3395   -6.9357   25.1830 C   0  0  0  0  0  0  0  0  0  0  0  0
  -21.0764   -6.0242   23.7726 C   0  0  0  0  0  0  0  0  0  0  0  0
  -30.0055  -17.4141   23.1901 C   0  0  0  0  0  0  0  0  0  0  0  0
  -24.6132  -11.6748   20.7022 C   0  0  0  0  0  0  0  0  0  0  0  0
  -25.3005  -13.7535   20.4982 C   0  0  0  0  0  0  0  0  0  0  0  0
  -22.9403  -13.5371   21.2924 C   0  0  0  0  0  0  0  0  0  0  0  0
  -29.2092  -28.1899   21.2530 C   0  0  0  0  0  0  0  0  0  0  0  0
  -28.1419  -25.9691   19.1432 C   0  0  0  0  0  0  0  0  0  0  0  0
  -28.0716  -22.7003   18.1652 C   0  0  0  0  0  0  0  0  0  0  0  0
  -30.7793  -14.7347   20.6511 C   0  0  0  0  0  0  0  0  0  0  0  0
  -25.9161  -31.9089   20.0772 C   0  0  0  0  0  0  0  0  0  0  0  0
  -31.3573  -27.0432   20.5996 C   0  0  0  0  0  0  0  0  0  0  0  0
  -29.2271  -25.0970   21.2473 C   0  0  0  0  0  0  0  0  0  0  0  0
  -25.8212  -30.4067   20.3313 C   0  0  0  0  0  0  0  0  0  0  0  0
  -29.6227  -12.3633   18.2603 C   0  0  0  0  0  0  0  0  0  0  0  0
  -26.5549  -30.0352   21.6161 C   0  0  0  0  0  0  0  0  0  0  0  0
  -28.1825  -12.0828   18.6954 C   0  0  0  0  0  0  0  0  0  0  0  0
  -30.5478  -12.5667   19.4588 C   0  0  0  0  0  0  0  0  0  0  0  0
  -28.6579  -13.2956   20.8610 C   0  0  0  0  0  0  0  0  0  0  0  0
  -28.0472  -30.3742   21.5169 C   0  0  1  0  0  0  0  0  0  0  0  0
  -29.8958  -27.3064   20.2502 C   0  0  1  0  0  0  0  0  0  0  0  0
  -27.6758  -13.1481   19.6874 C   0  0  2  0  0  0  0  0  0  0  0  0
  -27.0832  -21.1854   16.4258 C   0  0  0  0  0  0  0  0  0  0  0  0
  -25.4515  -26.0809   20.5782 C   0  0  0  0  0  0  0  0  0  0  0  0
  -24.8394  -23.9311   19.4504 C   0  0  0  0  0  0  0  0  0  0  0  0
  -25.2998  -25.9670   18.0845 C   0  0  0  0  0  0  0  0  0  0  0  0
  -30.7435  -21.9193   17.1602 C   0  0  0  0  0  0  0  0  0  0  0  0
  -32.7120  -19.1584   25.1902 C   0  0  0  0  0  0  0  0  0  0  0  0
  -33.3810  -21.5127   25.6888 C   0  0  0  0  0  0  0  0  0  0  0  0
  -33.4026  -22.9037   25.0866 C   0  0  0  0  0  0  0  0  0  1  0  0
  -27.2191  -24.7769   19.2212 C   0  0  1  0  0  0  0  0  0  0  0  0
  -28.2741  -22.0502   16.8084 C   0  0  2  0  0  0  0  0  0  0  0  0
  -25.7259  -25.1907   19.3497 C   0  0  0  0  0  0  0  0  0  0  0  0
  -25.8743  -11.5698   20.2747 N   0  0  0  0  0  0  0  0  0  0  0  0
  -26.2651  -12.8505   20.1599 N   0  0  0  0  0  0  0  0  0  0  0  0
  -29.1072  -26.0762   20.1545 N   0  0  0  0  0  0  0  0  0  0  0  0
  -30.0061  -13.5929   20.3524 N   0  0  0  0  0  0  0  0  0  0  0  0
  -25.5257  -15.0833   20.4403 N   0  0  0  0  0  0  0  0  0  0  0  0
  -21.9201  -12.6353   21.6249 N   0  0  0  0  0  0  0  0  0  0  0  0
  -30.1477  -15.6568   21.4850 N   0  0  0  0  0  0  0  0  0  0  0  0
  -28.7402  -29.3787   20.7274 N   0  0  0  0  0  0  0  0  0  0  0  0
  -27.5132  -23.9559   18.0517 N   0  0  0  0  0  0  0  0  0  0  0  0
  -29.4928  -21.1926   16.8217 N   0  3  0  0  0  0  0  0  0  0  0  0
  -32.7638  -20.5698   24.7221 N   0  3  0  0  0  0  0  0  0  0  0  0
  -22.7185  -14.7695   21.3665 O   0  0  0  0  0  0  0  0  0  0  0  0
  -29.1109  -27.8199   22.4171 O   0  0  0  0  0  0  0  0  0  0  0  0
  -28.0157  -26.7718   18.2151 O   0  0  0  0  0  0  0  0  0  0  0  0
  -28.3747  -22.1478   19.2204 O   0  0  0  0  0  0  0  0  0  0  0  0
  -31.9073  -14.8963   20.1784 O   0  0  0  0  0  0  0  0  0  0  0  0
  -21.5839   -7.0747   21.6659 O   0  0  0  0  0  0  0  0  0  0  0  0
  -32.0672  -23.3284   24.8172 O   0  0  0  0  0  0  0  0  0  1  0  0
  -18.6201   -6.8927   26.3121 F   0  0  0  0  0  0  0  0  0  0  0  0
  -22.0239   -5.1025   23.5526 F   0  0  0  0  0  0  0  0  0  0  0  0
  -28.2834  -17.4778   23.0668 Cl  0  0  0  0  0  0  0  0  0  0  0  0
  1  2  1  0  0  0  0
  1  5  2  0  0  0  0
  2  6  2  0  0  0  0
  3 10  2  0  0  0  0
  3 18  1  0  0  0  0
  4 11  1  0  0  0  0
  4 18  2  0  0  0  0
  5 20  1  0  0  0  0
  6 22  1  0  0  0  0
  7 12  2  0  0  0  0
  7 21  1  0  0  0  0
  8  9  2  0  0  0  0
  8 24  1  0  0  0  0
  9 25  1  0  0  0  0
 10 26  1  0  0  0  0
 11 26  2  0  0  0  0
 12 27  1  0  0  0  0
 13 14  2  0  0  0  0
 13 28  1  0  0  0  0
 14 29  1  0  0  0  0
 15 23  1  0  0  0  0
 15 27  2  0  0  0  0
 16 24  2  0  0  0  0
 16 31  1  0  0  0  0
 17 29  2  0  0  0  0
 17 30  1  0  0  0  0
 18 32  1  0  0  0  0
 19 32  1  0  0  0  0
 19 33  2  0  0  0  0
 19 34  1  0  0  0  0
 20 22  2  0  0  0  0
 20 39  1  0  0  0  0
 21 23  2  0  0  0  0
 21 40  1  0  0  0  0
 22 48  1  0  0  0  0
 23 41  1  0  0  0  0
 24 56  1  0  0  0  0
 25 31  2  0  0  0  0
 25 68  1  0  0  0  0
 26 78  1  0  0  0  0
 27 79  1  0  0  0  0
 28 30  2  0  0  0  0
 28 78  1  0  0  0  0
 29 80  1  0  0  0  0
 30 81  1  0  0  0  0
 31 82  1  0  0  0  0
 32 62  2  0  0  0  0
 33 63  1  0  0  0  0
 33 66  1  0  0  0  0
 34 67  1  0  0  0  0
 34 73  2  0  0  0  0
 35 49  1  0  0  0  0
 35 69  1  0  0  0  0
 35 74  2  0  0  0  0
 36 59  1  0  0  0  0
 36 64  1  0  0  0  0
 36 75  2  0  0  0  0
 37 60  1  0  0  0  0
 37 70  1  0  0  0  0
 37 76  2  0  0  0  0
 38 65  1  0  0  0  0
 38 68  1  0  0  0  0
 38 77  2  0  0  0  0
 39 42  1  0  0  0  0
 40 49  1  0  0  0  0
 41 64  1  0  0  0  0
 42 44  1  0  0  0  0
 43 45  1  0  0  0  0
 43 46  1  0  0  0  0
 44 48  1  0  0  0  0
 45 50  1  0  0  0  0
 46 65  1  0  0  0  0
 47 50  1  0  0  0  0
 47 65  1  0  0  0  0
 48 69  1  0  0  0  0
 49 64  1  0  0  0  0
 50 63  1  0  0  0  0
 51 60  1  0  0  0  0
 52 61  1  0  0  0  0
 53 61  1  0  0  0  0
 54 61  1  0  0  0  0
 55 71  1  0  0  0  0
 56 72  1  0  0  0  0
 57 58  1  0  0  0  0
 57 72  1  0  0  0  0
 58 79  1  0  0  0  0
 59 61  1  0  0  0  0
 59 70  1  0  0  0  0
 60 71  1  0  0  0  0
 62 63  1  0  0  0  0
M  CHG  2  71   1  72   1
M  ISO  4  38 100  58 101  68 100  79 101
M  END
> <Batch ID>
0013

> <Smiles>
CNC(C)C(=O)NC(C(=O)N1Cc2cc([101O:1][101CH2:1]CNCc3ccc([100NH:0][100C:0](=O)N4CCCC(n5nc(-c6ccc(Oc7ccc(F)cc7F)cc6)c(C(N)=O)c5N)C4)c(Cl)c3)ccc2CC1C(=O)NC1CCCc2ccccc21)C(C)(C)C

> <Shape>
0.261

> <Color>
0.200

> <Negative vol penalty>
0.000

$$$$

  -OEChem-04042320483D

 85 94  0     1  0  0  0  0  0999 V2000
  -31.6885  -33.7740   22.6164 C   0  0  0  0  0  0  0  0  0  0  0  0
  -32.3100  -32.6609   23.1734 C   0  0  0  0  0  0  0  0  0  0  0  0
  -23.0053  -10.0296   19.8867 C   0  0  0  0  0  0  0  0  0  0  0  0
  -23.8615   -9.8241   22.1365 C   0  0  0  0  0  0  0  0  0  0  0  0
  -30.3460  -33.7087   22.2457 C   0  0  0  0  0  0  0  0  0  0  0  0
  -31.5890  -31.4822   23.3612 C   0  0  0  0  0  0  0  0  0  0  0  0
  -33.7047  -25.7556   22.8760 C   0  0  0  0  0  0  0  0  0  0  0  0
  -32.9803  -17.0377   23.5544 C   0  0  0  0  0  0  0  0  0  0  0  0
  -32.3055  -16.2576   22.6154 C   0  0  0  0  0  0  0  0  0  0  0  0
  -22.2364   -8.8811   20.0743 C   0  0  0  0  0  0  0  0  0  0  0  0
  -23.0925   -8.6755   22.3242 C   0  0  0  0  0  0  0  0  0  0  0  0
  -34.1352  -24.8310   23.8265 C   0  0  0  0  0  0  0  0  0  0  0  0
  -19.8690   -7.9217   23.0033 C   0  0  0  0  0  0  0  0  0  0  0  0
  -19.1614   -7.8057   24.1998 C   0  0  0  0  0  0  0  0  0  0  0  0
  -31.9420  -23.8264   23.8337 C   0  0  0  0  0  0  0  0  0  0  0  0
  -30.8717  -17.9195   24.3373 C   0  0  0  0  0  0  0  0  0  0  0  0
  -20.3707   -5.7794   24.7185 C   0  0  0  0  0  0  0  0  0  0  0  0
  -23.8180  -10.5011   20.9178 C   0  0  0  0  0  0  0  0  0  0  0  0
  -24.2346  -13.0168   20.9900 C   0  0  0  0  0  0  0  0  0  0  0  0
  -29.6108  -32.5256   22.4201 C   0  0  0  0  0  0  0  0  0  0  0  0
  -32.3844  -25.7293   22.4044 C   0  0  0  0  0  0  0  0  0  0  0  0
  -30.2351  -31.4015   22.9937 C   0  0  0  0  0  0  0  0  0  0  0  0
  -31.4980  -24.7502   22.8753 C   0  0  0  0  0  0  0  0  0  0  0  0
  -32.2634  -17.8686   24.4154 C   0  0  0  0  0  0  0  0  0  0  0  0
  -30.9137  -16.3086   22.5373 C   0  0  0  0  0  0  0  0  0  0  0  0
  -30.1968  -17.1395   23.3983 C   0  0  0  0  0  0  0  0  0  0  0  0
  -22.2800   -8.2041   21.2931 C   0  0  0  0  0  0  0  0  0  0  0  0
  -33.2530  -23.8680   24.3077 C   0  0  0  0  0  0  0  0  0  0  0  0
  -20.8274   -6.9665   22.6644 C   0  0  0  0  0  0  0  0  0  0  0  0
  -19.4123   -6.7346   25.0573 C   0  0  0  0  0  0  0  0  0  0  0  0
  -21.0782   -5.8953   23.5220 C   0  0  0  0  0  0  0  0  0  0  0  0
  -24.6129  -11.6871   20.7243 C   0  0  0  0  0  0  0  0  0  0  0  0
  -25.3336  -13.7629   20.6409 C   0  0  0  0  0  0  0  0  0  0  0  0
  -23.0000  -13.5316   21.5064 C   0  0  0  0  0  0  0  0  0  0  0  0
  -29.9359  -27.7551   22.4769 C   0  0  0  0  0  0  0  0  0  0  0  0
  -28.5394  -25.5258   20.5789 C   0  0  0  0  0  0  0  0  0  0  0  0
  -28.3963  -22.2745   19.5514 C   0  0  0  0  0  0  0  0  0  0  0  0
  -30.8328  -14.6357   20.6555 C   0  0  0  0  0  0  0  0  0  0  0  0
  -28.1493  -32.5176   22.0479 C   0  0  0  0  0  0  0  0  0  0  0  0
  -31.9432  -26.7169   21.3592 C   0  0  0  0  0  0  0  0  0  0  0  0
  -30.0760  -24.6666   22.3861 C   0  0  0  0  0  0  0  0  0  0  0  0
  -27.5573  -31.1151   21.9343 C   0  0  0  0  0  0  0  0  0  0  0  0
  -29.5429  -12.4600   18.1496 C   0  0  0  0  0  0  0  0  0  0  0  0
  -27.9699  -30.2630   23.1304 C   0  0  0  0  0  0  0  0  0  0  0  0
  -28.1142  -12.1743   18.6179 C   0  0  0  0  0  0  0  0  0  0  0  0
  -30.5149  -12.5620   19.3237 C   0  0  0  0  0  0  0  0  0  0  0  0
  -28.6922  -13.2223   20.8438 C   0  0  0  0  0  0  0  0  0  0  0  0
  -33.2443  -20.7468   24.0974 C   0  0  0  0  0  0  0  0  0  0  0  0
  -34.4572  -20.6308   25.7938 C   0  0  0  0  0  0  0  0  0  0  0  0
  -29.4932  -30.0972   23.1904 C   0  0  1  0  0  0  0  0  0  0  0  0
  -30.4315  -26.9205   21.3299 C   0  0  1  0  0  0  0  0  0  0  0  0
  -27.6653  -13.1753   19.7006 C   0  0  2  0  0  0  0  0  0  0  0  0
  -34.2293  -21.7351   24.7468 C   0  0  0  0  0  0  0  0  0  1  0  0
  -27.1263  -20.7474   18.0177 C   0  0  0  0  0  0  0  0  0  0  0  0
  -26.2078  -25.4923   22.5467 C   0  0  0  0  0  0  0  0  0  0  0  0
  -25.4592  -23.3373   21.5155 C   0  0  0  0  0  0  0  0  0  0  0  0
  -25.5408  -25.4151   20.1377 C   0  0  0  0  0  0  0  0  0  0  0  0
  -28.1377  -18.1717   22.4736 C   0  0  0  0  0  0  0  0  0  0  0  0
  -27.9762  -16.3018   24.1246 C   0  0  0  0  0  0  0  0  0  0  0  0
  -30.8269  -21.6312   17.9902 C   0  0  0  0  0  0  0  0  0  0  0  0
  -32.9899  -18.7073   25.4252 C   0  0  0  0  0  0  0  0  0  0  0  0
  -27.7020  -24.2924   20.8166 C   0  0  1  0  0  0  0  0  0  0  0  0
  -28.3354  -21.6578   18.1656 C   0  0  2  0  0  0  0  0  0  0  0  0
  -26.2536  -24.6368   21.2650 C   0  0  0  0  0  0  0  0  0  0  0  0
  -25.8553  -11.5909   20.2433 N   0  0  0  0  0  0  0  0  0  0  0  0
  -26.2670  -12.8695   20.2039 N   0  0  0  0  0  0  0  0  0  0  0  0
  -29.6903  -25.6583   21.3686 N   0  0  0  0  0  0  0  0  0  0  0  0
  -30.0266  -13.5315   20.3069 N   0  0  0  0  0  0  0  0  0  0  0  0
  -25.5830  -15.0893   20.6679 N   0  0  0  0  0  0  0  0  0  0  0  0
  -21.9749  -12.6264   21.8130 N   0  0  0  0  0  0  0  0  0  0  0  0
  -30.2505  -15.5072   21.5752 N   0  0  0  0  0  0  0  0  0  0  0  0
  -29.9330  -29.1136   22.2242 N   0  0  0  0  0  0  0  0  0  0  0  0
  -27.7767  -23.5057   19.5902 N   0  0  0  0  0  0  0  0  0  0  0  0
  -28.7867  -17.2067   23.3364 N   0  0  0  0  0  0  0  0  0  0  0  0
  -33.9402  -19.6604   24.8112 N   0  3  0  0  0  0  0  0  0  0  0  0
  -29.5631  -20.8553   17.9014 N   0  3  0  0  0  0  0  0  0  0  0  0
  -22.8057  -14.7593   21.6750 O   0  0  0  0  0  0  0  0  0  0  0  0
  -29.5810  -27.2069   23.5138 O   0  0  0  0  0  0  0  0  0  0  0  0
  -28.1892  -26.3380   19.7191 O   0  0  0  0  0  0  0  0  0  0  0  0
  -28.9359  -21.7179   20.5051 O   0  0  0  0  0  0  0  0  0  0  0  0
  -31.9459  -14.8109   20.1532 O   0  0  0  0  0  0  0  0  0  0  0  0
  -21.5296   -7.0834   21.4766 O   0  0  0  0  0  0  0  0  0  0  0  0
  -33.6704  -22.9648   25.2360 O   0  0  0  0  0  0  0  0  0  1  0  0
  -18.7338   -6.6241   26.2070 F   0  0  0  0  0  0  0  0  0  0  0  0
  -21.9986   -4.9752   23.2023 F   0  0  0  0  0  0  0  0  0  0  0  0
  1  2  1  0  0  0  0
  1  5  2  0  0  0  0
  2  6  2  0  0  0  0
  3 10  2  0  0  0  0
  3 18  1  0  0  0  0
  4 11  1  0  0  0  0
  4 18  2  0  0  0  0
  5 20  1  0  0  0  0
  6 22  1  0  0  0  0
  7 12  2  0  0  0  0
  7 21  1  0  0  0  0
  8  9  2  0  0  0  0
  8 24  1  0  0  0  0
  9 25  1  0  0  0  0
 10 27  1  0  0  0  0
 11 27  2  0  0  0  0
 12 28  1  0  0  0  0
 13 14  2  0  0  0  0
 13 29  1  0  0  0  0
 14 30  1  0  0  0  0
 15 23  1  0  0  0  0
 15 28  2  0  0  0  0
 16 24  2  0  0  0  0
 16 26  1  0  0  0  0
 17 30  2  0  0  0  0
 17 31  1  0  0  0  0
 18 32  1  0  0  0  0
 19 32  1  0  0  0  0
 19 33  2  0  0  0  0
 19 34  1  0  0  0  0
 20 22  2  0  0  0  0
 20 39  1  0  0  0  0
 21 23  2  0  0  0  0
 21 40  1  0  0  0  0
 22 50  1  0  0  0  0
 23 41  1  0  0  0  0
 24 61  1  0  0  0  0
 25 26  2  0  0  0  0
 25 71  1  0  0  0  0
 26 74  1  0  0  0  0
 27 82  1  0  0  0  0
 28 83  1  0  0  0  0
 29 31  2  0  0  0  0
 29 82  1  0  0  0  0
 30 84  1  0  0  0  0
 31 85  1  0  0  0  0
 32 65  2  0  0  0  0
 33 66  1  0  0  0  0
 33 69  1  0  0  0  0
 34 70  1  0  0  0  0
 34 77  2  0  0  0  0
 35 51  1  0  0  0  0
 35 72  1  0  0  0  0
 35 78  2  0  0  0  0
 36 62  1  0  0  0  0
 36 67  1  0  0  0  0
 36 79  2  0  0  0  0
 37 63  1  0  0  0  0
 37 73  1  0  0  0  0
 37 80  2  0  0  0  0
 38 68  1  0  0  0  0
 38 71  1  0  0  0  0
 38 81  2  0  0  0  0
 39 42  1  0  0  0  0
 40 51  1  0  0  0  0
 41 67  1  0  0  0  0
 42 44  1  0  0  0  0
 43 45  1  0  0  0  0
 43 46  1  0  0  0  0
 44 50  1  0  0  0  0
 45 52  1  0  0  0  0
 46 68  1  0  0  0  0
 47 52  1  0  0  0  0
 47 68  1  0  0  0  0
 48 53  1  0  0  0  0
 48 75  1  0  0  0  0
 49 53  1  0  0  0  0
 49 75  1  0  0  0  0
 50 72  1  0  0  0  0
 51 67  1  0  0  0  0
 52 66  1  0  0  0  0
 53 83  1  0  0  0  0
 54 63  1  0  0  0  0
 55 64  1  0  0  0  0
 56 64  1  0  0  0  0
 57 64  1  0  0  0  0
 58 74  1  0  0  0  0
 59 74  1  0  0  0  0
 60 76  1  0  0  0  0
 61 75  1  0  0  0  0
 62 64  1  0  0  0  0
 62 73  1  0  0  0  0
 63 76  1  0  0  0  0
 65 66  1  0  0  0  0
M  CHG  2  75   1  76   1
M  ISO  4  38 100  53 101  71 100  83 101
M  END
> <Batch ID>
0013

> <Smiles>
CNC(C)C(=O)NC(C(=O)N1Cc2cc([101O:1][101CH:1]3CN(Cc4ccc([100NH:0][100C:0](=O)N5CCCC(n6nc(-c7ccc(Oc8ccc(F)cc8F)cc7)c(C(N)=O)c6N)C5)c(N(C)C)c4)C3)ccc2CC1C(=O)NC1CCCc2ccccc21)C(C)(C)C

> <Shape>
0.235

> <Color>
0.203

> <Negative vol penalty>
0.000

$$$$

  -OEChem-04042320483D

 83 92  0     1  0  0  0  0  0999 V2000
  -26.5894  -37.1224   25.0791 C   0  0  0  0  0  0  0  0  0  0  0  0
  -27.5370  -36.2130   24.6206 C   0  0  0  0  0  0  0  0  0  0  0  0
  -22.7971  -10.2862   20.2388 C   0  0  0  0  0  0  0  0  0  0  0  0
  -24.5634   -9.2301   21.5043 C   0  0  0  0  0  0  0  0  0  0  0  0
  -25.4234  -36.6637   25.6906 C   0  0  0  0  0  0  0  0  0  0  0  0
  -27.3197  -34.8442   24.7742 C   0  0  0  0  0  0  0  0  0  0  0  0
  -27.2062  -29.1650   19.4113 C   0  0  0  0  0  0  0  0  0  0  0  0
  -25.7538  -19.6294   19.0661 C   0  0  0  0  0  0  0  0  0  0  0  0
  -28.0683  -20.2157   19.4351 C   0  0  0  0  0  0  0  0  0  0  0  0
  -26.0604  -18.2854   19.2783 C   0  0  0  0  0  0  0  0  0  0  0  0
  -28.3749  -18.8716   19.6473 C   0  0  0  0  0  0  0  0  0  0  0  0
  -21.8498   -9.7389   21.1040 C   0  0  0  0  0  0  0  0  0  0  0  0
  -23.6162   -8.6828   22.3697 C   0  0  0  0  0  0  0  0  0  0  0  0
  -27.0052  -28.0981   18.5353 C   0  0  0  0  0  0  0  0  0  0  0  0
  -21.4503   -6.0866   22.3724 C   0  0  0  0  0  0  0  0  0  0  0  0
  -21.5905   -4.7433   22.7207 C   0  0  0  0  0  0  0  0  0  0  0  0
  -25.5498  -27.0346   20.1475 C   0  0  0  0  0  0  0  0  0  0  0  0
  -21.7805   -5.3664   25.0473 C   0  0  0  0  0  0  0  0  0  0  0  0
  -24.1539  -10.0318   20.4389 C   0  0  0  0  0  0  0  0  0  0  0  0
  -25.2365  -10.3882   18.1567 C   0  0  0  0  0  0  0  0  0  0  0  0
  -25.1871  -35.2884   25.8431 C   0  0  0  0  0  0  0  0  0  0  0  0
  -26.5668  -29.1782   20.6540 C   0  0  0  0  0  0  0  0  0  0  0  0
  -26.1500  -34.3667   25.3895 C   0  0  0  0  0  0  0  0  0  0  0  0
  -25.7375  -28.1066   21.0240 C   0  0  0  0  0  0  0  0  0  0  0  0
  -26.7578  -20.5946   19.1445 C   0  0  0  0  0  0  0  0  0  0  0  0
  -27.3709  -17.9064   19.5689 C   0  0  0  0  0  0  0  0  0  0  0  0
  -22.2594   -8.9372   22.1695 C   0  0  0  0  0  0  0  0  0  0  0  0
  -26.1793  -27.0354   18.9026 C   0  0  0  0  0  0  0  0  0  0  0  0
  -21.4754   -7.0699   23.3615 C   0  0  0  0  0  0  0  0  0  0  0  0
  -21.7555   -4.3831   24.0582 C   0  0  0  0  0  0  0  0  0  0  0  0
  -21.6404   -6.7097   24.6989 C   0  0  0  0  0  0  0  0  0  0  0  0
  -25.1329  -10.5965   19.5451 C   0  0  0  0  0  0  0  0  0  0  0  0
  -26.3211  -11.1404   17.7767 C   0  0  0  0  0  0  0  0  0  0  0  0
  -24.4249   -9.5866   17.2881 C   0  0  0  0  0  0  0  0  0  0  0  0
  -25.9702  -30.9990   23.8797 C   0  0  0  0  0  0  0  0  0  0  0  0
  -23.2787  -29.8048   23.0196 C   0  0  0  0  0  0  0  0  0  0  0  0
  -20.4324  -28.6839   21.5098 C   0  0  0  0  0  0  0  0  0  0  0  0
  -28.9309  -15.9961   20.0824 C   0  0  0  0  0  0  0  0  0  0  0  0
  -23.9337  -34.8414   26.5529 C   0  0  0  0  0  0  0  0  0  0  0  0
  -26.8028  -30.2771   21.6543 C   0  0  0  0  0  0  0  0  0  0  0  0
  -25.0976  -28.1469   22.3849 C   0  0  0  0  0  0  0  0  0  0  0  0
  -23.6067  -33.3655   26.3404 C   0  0  0  0  0  0  0  0  0  0  0  0
  -30.4687  -12.8465   19.4563 C   0  0  0  0  0  0  0  0  0  0  0  0
  -24.8537  -32.5090   26.5359 C   0  0  0  0  0  0  0  0  0  0  0  0
  -29.2843  -11.8943   19.2756 C   0  0  0  0  0  0  0  0  0  0  0  0
  -25.5203  -23.7138   17.4900 C   0  0  0  0  0  0  0  0  0  0  0  0
  -26.9107  -24.3019   19.4820 C   0  0  0  0  0  0  0  0  0  0  0  0
  -30.1907  -13.9007   20.5264 C   0  0  0  0  0  0  0  0  0  0  0  0
  -25.3497  -22.2946   18.0248 C   0  0  0  0  0  0  0  0  0  0  0  0
  -26.7376  -22.8854   20.0213 C   0  0  0  0  0  0  0  0  0  0  0  0
  -27.7620  -13.7064   20.1621 C   0  0  0  0  0  0  0  0  0  0  0  0
  -25.9389  -32.8735   25.5156 C   0  0  1  0  0  0  0  0  0  0  0  0
  -25.5547  -30.6094   22.4915 C   0  0  1  0  0  0  0  0  0  0  0  0
  -27.9698  -12.6665   19.0489 C   0  0  2  0  0  0  0  0  0  0  0  0
  -25.7309  -24.7215   18.6128 C   0  0  0  0  0  0  0  0  0  1  0  0
  -17.9491  -28.5451   21.8437 C   0  0  0  0  0  0  0  0  0  0  0  0
  -23.6773  -27.5280   25.0099 C   0  0  0  0  0  0  0  0  0  0  0  0
  -21.3128  -26.8289   24.5753 C   0  0  0  0  0  0  0  0  0  0  0  0
  -21.7878  -29.0728   25.5561 C   0  0  0  0  0  0  0  0  0  0  0  0
  -19.8998  -30.3050   19.0917 C   0  0  0  0  0  0  0  0  0  0  0  0
  -22.3184  -28.6469   23.1211 C   0  0  1  0  0  0  0  0  0  0  0  0
  -19.0946  -29.3553   21.2569 C   0  0  2  0  0  0  0  0  0  0  0  0
  -22.2927  -28.0212   24.5442 C   0  0  0  0  0  0  0  0  0  0  0  0
  -26.0764  -11.4166   20.0153 N   0  0  0  0  0  0  0  0  0  0  0  0
  -26.7833  -11.7302   18.9162 N   0  0  0  0  0  0  0  0  0  0  0  0
  -26.4504  -21.9442   18.9296 N   0  0  0  0  0  0  0  0  0  0  0  0
  -24.5992  -29.5023   22.6658 N   0  0  0  0  0  0  0  0  0  0  0  0
  -28.9323  -14.5944   20.2436 N   0  0  0  0  0  0  0  0  0  0  0  0
  -26.9150  -11.3482   16.5823 N   0  0  0  0  0  0  0  0  0  0  0  0
  -23.3503   -8.8784   17.8430 N   0  0  0  0  0  0  0  0  0  0  0  0
  -27.6823  -16.5410   19.7844 N   0  0  0  0  0  0  0  0  0  0  0  0
  -25.6342  -32.2942   24.2249 N   0  0  0  0  0  0  0  0  0  0  0  0
  -21.0260  -29.1471   22.6649 N   0  0  0  0  0  0  0  0  0  0  0  0
  -18.8604  -29.5085   19.7932 N   0  3  0  0  0  0  0  0  0  0  0  0
  -24.6561   -9.4879   16.0591 O   0  0  0  0  0  0  0  0  0  0  0  0
  -26.5518  -30.1849   24.5872 O   0  0  0  0  0  0  0  0  0  0  0  0
  -22.8731  -30.9470   23.2528 O   0  0  0  0  0  0  0  0  0  0  0  0
  -20.9020  -27.8310   20.7598 O   0  0  0  0  0  0  0  0  0  0  0  0
  -29.9663  -16.6608   20.1730 O   0  0  0  0  0  0  0  0  0  0  0  0
  -21.3353   -8.4031   23.0142 O   0  0  0  0  0  0  0  0  0  0  0  0
  -25.9839  -25.9992   18.0408 O   0  0  0  0  0  0  0  0  0  1  0  0
  -21.8885   -3.0929   24.3927 F   0  0  0  0  0  0  0  0  0  0  0  0
  -21.6641   -7.6498   25.6537 F   0  0  0  0  0  0  0  0  0  0  0  0
  1  2  1  0  0  0  0
  1  5  2  0  0  0  0
  2  6  2  0  0  0  0
  3 12  2  0  0  0  0
  3 19  1  0  0  0  0
  4 13  1  0  0  0  0
  4 19  2  0  0  0  0
  5 21  1  0  0  0  0
  6 23  1  0  0  0  0
  7 14  2  0  0  0  0
  7 22  1  0  0  0  0
  8 10  2  0  0  0  0
  8 25  1  0  0  0  0
  9 11  1  0  0  0  0
  9 25  2  0  0  0  0
 10 26  1  0  0  0  0
 11 26  2  0  0  0  0
 12 27  1  0  0  0  0
 13 27  2  0  0  0  0
 14 28  1  0  0  0  0
 15 16  2  0  0  0  0
 15 29  1  0  0  0  0
 16 30  1  0  0  0  0
 17 24  1  0  0  0  0
 17 28  2  0  0  0  0
 18 30  2  0  0  0  0
 18 31  1  0  0  0  0
 19 32  1  0  0  0  0
 20 32  1  0  0  0  0
 20 33  2  0  0  0  0
 20 34  1  0  0  0  0
 21 23  2  0  0  0  0
 21 39  1  0  0  0  0
 22 24  2  0  0  0  0
 22 40  1  0  0  0  0
 23 52  1  0  0  0  0
 24 41  1  0  0  0  0
 25 66  1  0  0  0  0
 26 71  1  0  0  0  0
 27 80  1  0  0  0  0
 28 81  1  0  0  0  0
 29 31  2  0  0  0  0
 29 80  1  0  0  0  0
 30 82  1  0  0  0  0
 31 83  1  0  0  0  0
 32 64  2  0  0  0  0
 33 65  1  0  0  0  0
 33 69  1  0  0  0  0
 34 70  1  0  0  0  0
 34 75  2  0  0  0  0
 35 53  1  0  0  0  0
 35 72  1  0  0  0  0
 35 76  2  0  0  0  0
 36 61  1  0  0  0  0
 36 67  1  0  0  0  0
 36 77  2  0  0  0  0
 37 62  1  0  0  0  0
 37 73  1  0  0  0  0
 37 78  2  0  0  0  0
 38 68  1  0  0  0  0
 38 71  1  0  0  0  0
 38 79  2  0  0  0  0
 39 42  1  0  0  0  0
 40 53  1  0  0  0  0
 41 67  1  0  0  0  0
 42 44  1  0  0  0  0
 43 45  1  0  0  0  0
 43 48  1  0  0  0  0
 44 52  1  0  0  0  0
 45 54  1  0  0  0  0
 46 49  1  0  0  0  0
 46 55  1  0  0  0  0
 47 50  1  0  0  0  0
 47 55  1  0  0  0  0
 48 68  1  0  0  0  0
 49 66  1  0  0  0  0
 50 66  1  0  0  0  0
 51 54  1  0  0  0  0
 51 68  1  0  0  0  0
 52 72  1  0  0  0  0
 53 67  1  0  0  0  0
 54 65  1  0  0  0  0
 55 81  1  0  0  0  0
 56 62  1  0  0  0  0
 57 63  1  0  0  0  0
 58 63  1  0  0  0  0
 59 63  1  0  0  0  0
 60 74  1  0  0  0  0
 61 63  1  0  0  0  0
 61 73  1  0  0  0  0
 62 74  1  0  0  0  0
 64 65  1  0  0  0  0
M  CHG  1  74   1
M  ISO  4  38 100  55 101  71 100  81 101
M  END
> <Batch ID>
0013

> <Smiles>
CNC(C)C(=O)NC(C(=O)N1Cc2cc([101O:1][101CH:1]3CCN(c4ccc([100NH:0][100C:0](=O)N5CCCC(n6nc(-c7ccc(Oc8ccc(F)cc8F)cc7)c(C(N)=O)c6N)C5)cc4)CC3)ccc2CC1C(=O)NC1CCCc2ccccc21)C(C)(C)C

> <Shape>
0.309

> <Color>
0.105

> <Negative vol penalty>
0.000

$$$$

  -OEChem-04042320483D

 83 91  0     1  0  0  0  0  0999 V2000
  -28.1632  -11.5446   22.4512 C   0  0  0  0  0  0  0  0  0  0  0  0
  -28.7005  -12.7883   22.1351 C   0  0  0  0  0  0  0  0  0  0  0  0
  -23.4754  -27.4779   22.4749 C   0  0  0  0  0  0  0  0  0  0  0  0
  -22.6890  -28.8308   20.6342 C   0  0  0  0  0  0  0  0  0  0  0  0
  -26.9211  -11.1724   21.9388 C   0  0  0  0  0  0  0  0  0  0  0  0
  -27.9963  -13.6603   21.3055 C   0  0  0  0  0  0  0  0  0  0  0  0
  -27.8608  -19.7728   21.6572 C   0  0  0  0  0  0  0  0  0  0  0  0
  -31.3507  -27.5098   16.7872 C   0  0  0  0  0  0  0  0  0  0  0  0
  -22.2115  -27.5412   23.0615 C   0  0  0  0  0  0  0  0  0  0  0  0
  -21.4250  -28.8941   21.2208 C   0  0  0  0  0  0  0  0  0  0  0  0
  -28.5489  -20.7677   20.9640 C   0  0  0  0  0  0  0  0  0  0  0  0
  -18.0901  -29.7136   22.4109 C   0  0  0  0  0  0  0  0  0  0  0  0
  -31.5952  -28.7794   17.3105 C   0  0  0  0  0  0  0  0  0  0  0  0
  -17.4534  -30.9541   22.4467 C   0  0  0  0  0  0  0  0  0  0  0  0
  -26.6841  -20.9949   19.4508 C   0  0  0  0  0  0  0  0  0  0  0  0
  -31.5907  -26.5542   18.9931 C   0  0  0  0  0  0  0  0  0  0  0  0
  -19.2797  -31.8540   23.7474 C   0  0  0  0  0  0  0  0  0  0  0  0
  -23.7142  -28.1227   21.2613 C   0  0  0  0  0  0  0  0  0  0  0  0
  -25.4874  -27.0915   19.7447 C   0  0  0  0  0  0  0  0  0  0  0  0
  -26.1970  -12.0441   21.1103 C   0  0  0  0  0  0  0  0  0  0  0  0
  -26.5814  -19.3732   21.2450 C   0  0  0  0  0  0  0  0  0  0  0  0
  -26.7439  -13.2989   20.7804 C   0  0  0  0  0  0  0  0  0  0  0  0
  -25.9808  -19.9965   20.1419 C   0  0  0  0  0  0  0  0  0  0  0  0
  -31.3483  -26.3972   17.6285 C   0  0  0  0  0  0  0  0  0  0  0  0
  -31.8354  -27.8238   19.5165 C   0  0  0  0  0  0  0  0  0  0  0  0
  -21.1863  -28.2493   22.4345 C   0  0  0  0  0  0  0  0  0  0  0  0
  -27.9618  -21.3769   19.8589 C   0  0  0  0  0  0  0  0  0  0  0  0
  -19.3216  -29.5432   23.0435 C   0  0  0  0  0  0  0  0  0  0  0  0
  -18.0482  -32.0243   23.1149 C   0  0  0  0  0  0  0  0  0  0  0  0
  -31.8376  -28.9364   18.6752 C   0  0  0  0  0  0  0  0  0  0  0  0
  -19.9164  -30.6134   23.7117 C   0  0  0  0  0  0  0  0  0  0  0  0
  -25.0197  -28.0581   20.6551 C   0  0  0  0  0  0  0  0  0  0  0  0
  -26.7785  -27.4727   19.4722 C   0  0  0  0  0  0  0  0  0  0  0  0
  -24.8148  -25.9511   19.1944 C   0  0  0  0  0  0  0  0  0  0  0  0
  -25.3083  -16.6540   20.2015 C   0  0  0  0  0  0  0  0  0  0  0  0
  -22.5415  -18.3388   20.3692 C   0  0  0  0  0  0  0  0  0  0  0  0
  -20.9982  -21.3827   20.3671 C   0  0  0  0  0  0  0  0  0  0  0  0
  -31.7469  -29.1485   21.6445 C   0  0  0  0  0  0  0  0  0  0  0  0
  -24.8797  -11.5788   20.5420 C   0  0  0  0  0  0  0  0  0  0  0  0
  -25.8414  -18.3173   22.0195 C   0  0  0  0  0  0  0  0  0  0  0  0
  -24.6011  -19.6179   19.6712 C   0  0  0  0  0  0  0  0  0  0  0  0
  -24.0278  -12.7107   19.9734 C   0  0  0  0  0  0  0  0  0  0  0  0
  -29.3003  -31.7055   20.5633 C   0  0  0  0  0  0  0  0  0  0  0  0
  -24.8741  -13.6261   19.0945 C   0  0  0  0  0  0  0  0  0  0  0  0
  -27.9927  -30.9185   20.5000 C   0  0  0  0  0  0  0  0  0  0  0  0
  -30.2608  -31.1257   21.5973 C   0  0  0  0  0  0  0  0  0  0  0  0
  -29.2384  -28.8840   21.3312 C   0  0  0  0  0  0  0  0  0  0  0  0
  -25.9992  -14.2823   19.9039 C   0  0  1  0  0  0  0  0  0  0  0  0
  -24.7534  -17.6286   21.2014 C   0  0  1  0  0  0  0  0  0  0  0  0
  -28.2698  -29.4239   20.2683 C   0  0  1  0  0  0  0  0  0  0  0  0
  -18.7246  -22.4386   20.4805 C   0  0  0  0  0  0  0  0  0  0  0  0
  -22.0389  -17.5630   17.4614 C   0  0  0  0  0  0  0  0  0  0  0  0
  -20.3126  -19.3729   17.3497 C   0  0  0  0  0  0  0  0  0  0  0  0
  -20.0178  -17.4664   18.9312 C   0  0  0  0  0  0  0  0  0  0  0  0
  -32.9539  -27.0104   21.5848 C   0  0  0  0  0  0  0  0  0  0  0  0
  -21.6634  -22.8215   22.8663 C   0  0  0  0  0  0  0  0  0  0  0  0
  -31.0858  -25.0318   17.0648 C   0  0  0  0  0  0  0  0  0  0  0  0
  -29.5692  -23.0472   17.0792 C   0  0  0  0  0  0  0  0  0  0  0  0
  -28.3572  -22.4723   17.7854 C   0  0  0  0  0  0  0  0  0  1  0  0
  -21.7690  -19.2230   19.4204 C   0  0  1  0  0  0  0  0  0  0  0  0
  -19.9349  -21.9735   21.2752 C   0  0  2  0  0  0  0  0  0  0  0  0
  -21.0614  -18.4123   18.2981 C   0  0  0  0  0  0  0  0  0  0  0  0
  -25.9390  -28.9836   20.9420 N   0  0  0  0  0  0  0  0  0  0  0  0
  -26.9972  -28.6003   20.2076 N   0  0  0  0  0  0  0  0  0  0  0  0
  -23.9205  -18.5758   20.4576 N   0  0  0  0  0  0  0  0  0  0  0  0
  -30.4681  -29.6901   21.4007 N   0  0  0  0  0  0  0  0  0  0  0  0
  -27.7366  -26.9500   18.6777 N   0  0  0  0  0  0  0  0  0  0  0  0
  -23.4902  -25.7057   19.5810 N   0  0  0  0  0  0  0  0  0  0  0  0
  -25.4797  -15.3756   20.6972 N   0  0  0  0  0  0  0  0  0  0  0  0
  -20.8644  -20.0157   20.2460 N   0  0  0  0  0  0  0  0  0  0  0  0
  -32.0851  -27.9846   20.9281 N   0  0  0  0  0  0  0  0  0  0  0  0
  -20.4826  -23.1404   22.0232 N   0  3  0  0  0  0  0  0  0  0  0  0
  -29.8901  -24.3756   17.6595 N   0  3  0  0  0  0  0  0  0  0  0  0
  -25.3774  -25.1634   18.3966 O   0  0  0  0  0  0  0  0  0  0  0  0
  -25.5609  -17.0334   19.0639 O   0  0  0  0  0  0  0  0  0  0  0  0
  -21.9422  -17.4745   21.0138 O   0  0  0  0  0  0  0  0  0  0  0  0
  -21.8590  -22.0660   19.8170 O   0  0  0  0  0  0  0  0  0  0  0  0
  -32.5145  -29.6352   22.4839 O   0  0  0  0  0  0  0  0  0  0  0  0
  -19.9528  -28.3112   23.0064 O   0  0  0  0  0  0  0  0  0  0  0  0
  -28.6315  -22.3478   19.1802 O   0  0  0  0  0  0  0  0  0  1  0  0
  -17.4374  -33.2160   23.1478 F   0  0  0  0  0  0  0  0  0  0  0  0
  -32.0721  -30.1614   19.1669 F   0  0  0  0  0  0  0  0  0  0  0  0
  -21.0999  -30.4561   24.3203 F   0  0  0  0  0  0  0  0  0  0  0  0
  1  2  1  0  0  0  0
  1  5  2  0  0  0  0
  2  6  2  0  0  0  0
  3  9  2  0  0  0  0
  3 18  1  0  0  0  0
  4 10  1  0  0  0  0
  4 18  2  0  0  0  0
  5 20  1  0  0  0  0
  6 22  1  0  0  0  0
  7 11  2  0  0  0  0
  7 21  1  0  0  0  0
  8 13  2  0  0  0  0
  8 24  1  0  0  0  0
  9 26  1  0  0  0  0
 10 26  2  0  0  0  0
 11 27  1  0  0  0  0
 12 14  2  0  0  0  0
 12 28  1  0  0  0  0
 13 30  1  0  0  0  0
 14 29  1  0  0  0  0
 15 23  1  0  0  0  0
 15 27  2  0  0  0  0
 16 24  2  0  0  0  0
 16 25  1  0  0  0  0
 17 29  2  0  0  0  0
 17 31  1  0  0  0  0
 18 32  1  0  0  0  0
 19 32  1  0  0  0  0
 19 33  2  0  0  0  0
 19 34  1  0  0  0  0
 20 22  2  0  0  0  0
 20 39  1  0  0  0  0
 21 23  2  0  0  0  0
 21 40  1  0  0  0  0
 22 48  1  0  0  0  0
 23 41  1  0  0  0  0
 24 57  1  0  0  0  0
 25 30  2  0  0  0  0
 25 71  1  0  0  0  0
 26 79  1  0  0  0  0
 27 80  1  0  0  0  0
 28 31  2  0  0  0  0
 28 79  1  0  0  0  0
 29 81  1  0  0  0  0
 30 82  1  0  0  0  0
 31 83  1  0  0  0  0
 32 63  2  0  0  0  0
 33 64  1  0  0  0  0
 33 67  1  0  0  0  0
 34 68  1  0  0  0  0
 34 74  2  0  0  0  0
 35 49  1  0  0  0  0
 35 69  1  0  0  0  0
 35 75  2  0  0  0  0
 36 60  1  0  0  0  0
 36 65  1  0  0  0  0
 36 76  2  0  0  0  0
 37 61  1  0  0  0  0
 37 70  1  0  0  0  0
 37 77  2  0  0  0  0
 38 66  1  0  0  0  0
 38 71  1  0  0  0  0
 38 78  2  0  0  0  0
 39 42  1  0  0  0  0
 40 49  1  0  0  0  0
 41 65  1  0  0  0  0
 42 44  1  0  0  0  0
 43 45  1  0  0  0  0
 43 46  1  0  0  0  0
 44 48  1  0  0  0  0
 45 50  1  0  0  0  0
 46 66  1  0  0  0  0
 47 50  1  0  0  0  0
 47 66  1  0  0  0  0
 48 69  1  0  0  0  0
 49 65  1  0  0  0  0
 50 64  1  0  0  0  0
 51 61  1  0  0  0  0
 52 62  1  0  0  0  0
 53 62  1  0  0  0  0
 54 62  1  0  0  0  0
 55 71  1  0  0  0  0
 56 72  1  0  0  0  0
 57 73  1  0  0  0  0
 58 59  1  0  0  0  0
 58 73  1  0  0  0  0
 59 80  1  0  0  0  0
 60 62  1  0  0  0  0
 60 70  1  0  0  0  0
 61 72  1  0  0  0  0
 63 64  1  0  0  0  0
M  CHG  2  72   1  73   1
M  ISO  4  38 100  59 101  71 100  80 101
M  END
> <Batch ID>
0013

> <Smiles>
CNC(C)C(=O)NC(C(=O)N1Cc2cc([101O:1][101CH2:1]CNCc3ccc(F)c([100N:0](C)[100C:0](=O)N4CCCC(n5nc(-c6ccc(Oc7ccc(F)cc7F)cc6)c(C(N)=O)c5N)C4)c3)ccc2CC1C(=O)NC1CCCc2ccccc21)C(C)(C)C

> <Shape>
0.198

> <Color>
0.063

> <Negative vol penalty>
0.000

$$$$

  -OEChem-04042320483D

 85 94  0     1  0  0  0  0  0999 V2000
  -25.6915  -30.2698   22.9941 C   0  0  0  0  0  0  0  0  0  0  0  0
  -25.5651  -29.0315   23.6154 C   0  0  0  0  0  0  0  0  0  0  0  0
  -19.9204  -22.8082   19.1216 C   0  0  0  0  0  0  0  0  0  0  0  0
  -22.1736  -23.2251   19.8874 C   0  0  0  0  0  0  0  0  0  0  0  0
  -25.9267  -30.3390   21.6216 C   0  0  0  0  0  0  0  0  0  0  0  0
  -25.6728  -27.8616   22.8643 C   0  0  0  0  0  0  0  0  0  0  0  0
  -27.9501  -21.0888   23.3754 C   0  0  0  0  0  0  0  0  0  0  0  0
  -19.6573  -24.1777   19.1502 C   0  0  0  0  0  0  0  0  0  0  0  0
  -21.9105  -24.5946   19.9159 C   0  0  0  0  0  0  0  0  0  0  0  0
  -27.5092  -19.7847   23.1545 C   0  0  0  0  0  0  0  0  0  0  0  0
  -21.7220  -28.1710   20.5355 C   0  0  0  0  0  0  0  0  0  0  0  0
  -22.1472  -28.8897   21.6527 C   0  0  0  0  0  0  0  0  0  0  0  0
  -27.9954  -20.0249   20.8040 C   0  0  0  0  0  0  0  0  0  0  0  0
  -20.7618  -27.5073   23.0693 C   0  0  0  0  0  0  0  0  0  0  0  0
  -24.4819  -11.7380   20.4658 C   0  0  0  0  0  0  0  0  0  0  0  0
  -21.1785  -22.3319   19.4903 C   0  0  0  0  0  0  0  0  0  0  0  0
  -21.9564  -20.1706   18.3805 C   0  0  0  0  0  0  0  0  0  0  0  0
  -26.0470  -29.1692   20.8549 C   0  0  0  0  0  0  0  0  0  0  0  0
  -28.4074  -21.8758   22.3087 C   0  0  0  0  0  0  0  0  0  0  0  0
  -25.9085  -27.9152   21.4800 C   0  0  0  0  0  0  0  0  0  0  0  0
  -28.4438  -21.3378   21.0143 C   0  0  0  0  0  0  0  0  0  0  0  0
  -26.1525  -13.9559   20.7354 C   0  0  0  0  0  0  0  0  0  0  0  0
  -24.8450  -14.0046   21.2191 C   0  0  0  0  0  0  0  0  0  0  0  0
  -20.6523  -25.0709   19.5473 C   0  0  0  0  0  0  0  0  0  0  0  0
  -27.5291  -19.2536   21.8682 C   0  0  0  0  0  0  0  0  0  0  0  0
  -20.8166  -27.1205   20.6851 C   0  0  0  0  0  0  0  0  0  0  0  0
  -21.6671  -28.5579   22.9196 C   0  0  0  0  0  0  0  0  0  0  0  0
  -24.0098  -12.8957   21.0843 C   0  0  0  0  0  0  0  0  0  0  0  0
  -20.3365  -26.7886   21.9520 C   0  0  0  0  0  0  0  0  0  0  0  0
  -25.7894  -11.6893   19.9822 C   0  0  0  0  0  0  0  0  0  0  0  0
  -26.6246  -12.7982   20.1170 C   0  0  0  0  0  0  0  0  0  0  0  0
  -21.4507  -20.9172   19.4616 C   0  0  0  0  0  0  0  0  0  0  0  0
  -22.0332  -18.8848   18.8573 C   0  0  0  0  0  0  0  0  0  0  0  0
  -22.3240  -20.6010   17.0632 C   0  0  0  0  0  0  0  0  0  0  0  0
  -27.4768  -24.6076   20.9764 C   0  0  0  0  0  0  0  0  0  0  0  0
  -30.2002  -24.2429   19.2524 C   0  0  0  0  0  0  0  0  0  0  0  0
  -32.5829  -22.1389   18.0102 C   0  0  0  0  0  0  0  0  0  0  0  0
  -23.3752  -15.2418   22.8486 C   0  0  0  0  0  0  0  0  0  0  0  0
  -26.2542  -29.2949   19.3663 C   0  0  0  0  0  0  0  0  0  0  0  0
  -28.9046  -23.2716   22.5677 C   0  0  0  0  0  0  0  0  0  0  0  0
  -28.9445  -22.1344   19.8382 C   0  0  0  0  0  0  0  0  0  0  0  0
  -26.7285  -28.0029   18.7061 C   0  0  0  0  0  0  0  0  0  0  0  0
  -20.1999  -16.8320   23.1055 C   0  0  0  0  0  0  0  0  0  0  0  0
  -25.8963  -26.8195   19.1898 C   0  0  0  0  0  0  0  0  0  0  0  0
  -20.2839  -17.9752   22.0914 C   0  0  0  0  0  0  0  0  0  0  0  0
  -28.6500  -16.6443   20.3679 C   0  0  0  0  0  0  0  0  0  0  0  0
  -21.5340  -16.6031   23.8138 C   0  0  0  0  0  0  0  0  0  0  0  0
  -27.6014  -15.7357   19.7264 C   0  0  0  0  0  0  0  0  0  0  0  0
  -22.7698  -17.5582   21.9086 C   0  0  0  0  0  0  0  0  0  0  0  0
  -27.3768  -15.6408   22.1371 C   0  0  0  0  0  0  0  0  0  0  0  0
  -26.0439  -26.6234   20.7035 C   0  0  1  0  0  0  0  0  0  0  0  0
  -28.8672  -24.1590   21.3273 C   0  0  1  0  0  0  0  0  0  0  0  0
  -21.4676  -17.7837   21.1230 C   0  0  2  0  0  0  0  0  0  0  0  0
  -28.0692  -16.9445   21.7420 C   0  0  2  0  0  0  0  0  0  1  0  0
  -34.6629  -22.1280   16.6063 C   0  0  0  0  0  0  0  0  0  0  0  0
  -28.5013  -24.5546   16.7371 C   0  0  0  0  0  0  0  0  0  0  0  0
  -30.4054  -23.6053   15.4175 C   0  0  0  0  0  0  0  0  0  0  0  0
  -30.6995  -25.7451   16.6655 C   0  0  0  0  0  0  0  0  0  0  0  0
  -34.2213  -21.0872   20.2392 C   0  0  0  0  0  0  0  0  0  0  0  0
  -30.5583  -23.5713   17.9486 C   0  0  1  0  0  0  0  0  0  0  0  0
  -34.0988  -22.2185   18.0157 C   0  0  2  0  0  0  0  0  0  0  0  0
  -30.0298  -24.3545   16.7138 C   0  0  0  0  0  0  0  0  0  0  0  0
  -21.2221  -20.1681   20.5435 N   0  0  0  0  0  0  0  0  0  0  0  0
  -21.5858  -18.9373   20.1447 N   0  0  0  0  0  0  0  0  0  0  0  0
  -26.9931  -15.0423   20.8579 N   0  0  3  0  0  0  0  0  0  0  0  0
  -29.4141  -23.4964   20.1416 N   0  0  0  0  0  0  0  0  0  0  0  0
  -22.6076  -16.4256   22.8337 N   0  0  0  0  0  0  0  0  0  0  0  0
  -22.4389  -17.7257   18.2967 N   0  0  0  0  0  0  0  0  0  0  0  0
  -22.1823  -21.9572   16.7395 N   0  0  0  0  0  0  0  0  0  0  0  0
  -24.3454  -15.1712   21.8494 N   0  0  0  0  0  0  0  0  0  0  0  0
  -27.3027  -25.9781   21.0092 N   0  0  0  0  0  0  0  0  0  0  0  0
  -32.0059  -23.3904   17.9668 N   0  0  0  0  0  0  0  0  0  0  0  0
  -34.6730  -21.1059   18.8241 N   0  3  0  0  0  0  0  0  0  0  0  0
  -22.7496  -19.8034   16.1935 O   0  0  0  0  0  0  0  0  0  0  0  0
  -26.6254  -23.7724   20.6951 O   0  0  0  0  0  0  0  0  0  0  0  0
  -30.6091  -25.3849   19.4767 O   0  0  0  0  0  0  0  0  0  0  0  0
  -31.9717  -21.0729   18.0376 O   0  0  0  0  0  0  0  0  0  0  0  0
  -23.1678  -14.3442   23.6691 O   0  0  0  0  0  0  0  0  0  0  0  0
  -20.3960  -26.4074   19.5751 O   0  0  0  0  0  0  0  0  0  0  0  0
  -27.0988  -17.9812   21.6498 O   0  0  0  0  0  0  0  0  0  1  0  0
  -22.0768  -29.2472   23.9926 F   0  0  0  0  0  0  0  0  0  0  0  0
  -22.7518  -12.9288   21.5471 F   0  0  0  0  0  0  0  0  0  0  0  0
  -19.4675  -25.7797   22.1022 F   0  0  0  0  0  0  0  0  0  0  0  0
  -26.2423  -10.5778   19.3875 F   0  0  0  0  0  0  0  0  0  0  0  0
  -27.8797  -12.7391   19.6493 F   0  0  0  0  0  0  0  0  0  0  0  0
  1  2  1  0  0  0  0
  1  5  2  0  0  0  0
  2  6  2  0  0  0  0
  3  8  2  0  0  0  0
  3 16  1  0  0  0  0
  4  9  1  0  0  0  0
  4 16  2  0  0  0  0
  5 18  1  0  0  0  0
  6 20  1  0  0  0  0
  7 10  2  0  0  0  0
  7 19  1  0  0  0  0
  8 24  1  0  0  0  0
  9 24  2  0  0  0  0
 10 25  1  0  0  0  0
 11 12  2  0  0  0  0
 11 26  1  0  0  0  0
 12 27  1  0  0  0  0
 13 21  1  0  0  0  0
 13 25  2  0  0  0  0
 14 27  2  0  0  0  0
 14 29  1  0  0  0  0
 15 28  2  0  0  0  0
 15 30  1  0  0  0  0
 16 32  1  0  0  0  0
 17 32  1  0  0  0  0
 17 33  2  0  0  0  0
 17 34  1  0  0  0  0
 18 20  2  0  0  0  0
 18 39  1  0  0  0  0
 19 21  2  0  0  0  0
 19 40  1  0  0  0  0
 20 51  1  0  0  0  0
 21 41  1  0  0  0  0
 22 23  2  0  0  0  0
 22 31  1  0  0  0  0
 22 65  1  0  0  0  0
 23 28  1  0  0  0  0
 23 70  1  0  0  0  0
 24 79  1  0  0  0  0
 25 80  1  0  0  0  0
 26 29  2  0  0  0  0
 26 79  1  0  0  0  0
 27 81  1  0  0  0  0
 28 82  1  0  0  0  0
 29 83  1  0  0  0  0
 30 31  2  0  0  0  0
 30 84  1  0  0  0  0
 31 85  1  0  0  0  0
 32 63  2  0  0  0  0
 33 64  1  0  0  0  0
 33 68  1  0  0  0  0
 34 69  1  0  0  0  0
 34 74  2  0  0  0  0
 35 52  1  0  0  0  0
 35 71  1  0  0  0  0
 35 75  2  0  0  0  0
 36 60  1  0  0  0  0
 36 66  1  0  0  0  0
 36 76  2  0  0  0  0
 37 61  1  0  0  0  0
 37 72  1  0  0  0  0
 37 77  2  0  0  0  0
 38 67  1  0  0  0  0
 38 70  1  0  0  0  0
 38 78  2  0  0  0  0
 39 42  1  0  0  0  0
 40 52  1  0  0  0  0
 41 66  1  0  0  0  0
 42 44  1  0  0  0  0
 43 45  1  0  0  0  0
 43 47  1  0  0  0  0
 44 51  1  0  0  0  0
 45 53  1  0  0  0  0
 46 48  1  0  0  0  0
 46 54  1  0  0  0  0
 47 67  1  0  0  0  0
 48 65  1  0  0  0  0
 49 53  1  0  0  0  0
 49 67  1  0  0  0  0
 50 54  1  0  0  0  0
 50 65  1  0  0  0  0
 51 71  1  0  0  0  0
 52 66  1  0  0  0  0
 53 64  1  0  0  0  0
 54 80  1  0  0  0  0
 55 61  1  0  0  0  0
 56 62  1  0  0  0  0
 57 62  1  0  0  0  0
 58 62  1  0  0  0  0
 59 73  1  0  0  0  0
 60 62  1  0  0  0  0
 60 72  1  0  0  0  0
 61 73  1  0  0  0  0
 63 64  1  0  0  0  0
M  CHG  1  73   1
M  ISO  4  38 100  54 101  70 100  80 101
M  END
> <Batch ID>
0013

> <Smiles>
CNC(C)C(=O)NC(C(=O)N1Cc2cc([101O:1][101CH:1]3CCN(c4c(F)c(F)cc(F)c4[100NH:0][100C:0](=O)N4CCCC(n5nc(-c6ccc(Oc7ccc(F)cc7F)cc6)c(C(N)=O)c5N)C4)C3)ccc2CC1C(=O)NC1CCCc2ccccc21)C(C)(C)C

> <Shape>
0.208

> <Color>
0.056

> <Negative vol penalty>
0.000

$$$$

  -OEChem-04042320483D

 83 91  0     1  0  0  0  0  0999 V2000
  -23.2802  -18.3815   22.4159 C   0  0  0  0  0  0  0  0  0  0  0  0
  -24.4189  -18.2784   23.2085 C   0  0  0  0  0  0  0  0  0  0  0  0
  -23.2883   -9.8003   19.9132 C   0  0  0  0  0  0  0  0  0  0  0  0
  -23.7420   -9.9401   22.2821 C   0  0  0  0  0  0  0  0  0  0  0  0
  -22.4147  -19.4625   22.5784 C   0  0  0  0  0  0  0  0  0  0  0  0
  -24.6933  -19.2569   24.1633 C   0  0  0  0  0  0  0  0  0  0  0  0
  -26.1278  -17.2900   28.6039 C   0  0  0  0  0  0  0  0  0  0  0  0
  -32.6968  -15.3655   24.6209 C   0  0  0  0  0  0  0  0  0  0  0  0
  -32.2040  -14.6064   23.5596 C   0  0  0  0  0  0  0  0  0  0  0  0
  -22.5627   -8.6274   20.1213 C   0  0  0  0  0  0  0  0  0  0  0  0
  -23.0164   -8.7671   22.4902 C   0  0  0  0  0  0  0  0  0  0  0  0
  -27.4416  -16.8343   28.7037 C   0  0  0  0  0  0  0  0  0  0  0  0
  -19.7701   -7.8544   22.7113 C   0  0  0  0  0  0  0  0  0  0  0  0
  -18.8691   -7.8318   23.7758 C   0  0  0  0  0  0  0  0  0  0  0  0
  -28.0580  -18.8768   29.8295 C   0  0  0  0  0  0  0  0  0  0  0  0
  -31.1456  -14.2773   26.1197 C   0  0  0  0  0  0  0  0  0  0  0  0
  -20.0769   -5.9847   24.7589 C   0  0  0  0  0  0  0  0  0  0  0  0
  -23.8780  -10.4567   20.9936 C   0  0  0  0  0  0  0  0  0  0  0  0
  -24.1359  -12.9869   20.7958 C   0  0  0  0  0  0  0  0  0  0  0  0
  -22.6736  -20.4496   23.5423 C   0  0  0  0  0  0  0  0  0  0  0  0
  -25.7709  -18.5492   29.1072 C   0  0  0  0  0  0  0  0  0  0  0  0
  -23.8312  -20.3528   24.3379 C   0  0  0  0  0  0  0  0  0  0  0  0
  -26.7385  -19.3450   29.7371 C   0  0  0  0  0  0  0  0  0  0  0  0
  -32.1677  -15.2010   25.9010 C   0  0  0  0  0  0  0  0  0  0  0  0
  -31.1820  -13.6827   23.7783 C   0  0  0  0  0  0  0  0  0  0  0  0
  -22.4268   -8.1107   21.4098 C   0  0  0  0  0  0  0  0  0  0  0  0
  -28.4076  -17.6289   29.3140 C   0  0  0  0  0  0  0  0  0  0  0  0
  -20.8245   -6.9421   22.6705 C   0  0  0  0  0  0  0  0  0  0  0  0
  -19.0225   -6.8969   24.7996 C   0  0  0  0  0  0  0  0  0  0  0  0
  -30.6527  -13.5181   25.0584 C   0  0  0  0  0  0  0  0  0  0  0  0
  -20.9779   -6.0073   23.6943 C   0  0  0  0  0  0  0  0  0  0  0  0
  -24.6281  -11.6681   20.7791 C   0  0  0  0  0  0  0  0  0  0  0  0
  -25.2367  -13.7674   20.5398 C   0  0  0  0  0  0  0  0  0  0  0  0
  -22.8029  -13.4637   21.0225 C   0  0  0  0  0  0  0  0  0  0  0  0
  -24.6210  -21.2279   27.8398 C   0  0  0  0  0  0  0  0  0  0  0  0
  -24.4466  -22.1600   30.9419 C   0  0  0  0  0  0  0  0  0  0  0  0
  -25.5776  -21.8040   34.1420 C   0  0  0  0  0  0  0  0  0  0  0  0
  -31.0984  -12.9555   21.3678 C   0  0  0  0  0  0  0  0  0  0  0  0
  -21.7338  -21.6244   23.6488 C   0  0  0  0  0  0  0  0  0  0  0  0
  -24.3437  -19.0149   29.0154 C   0  0  0  0  0  0  0  0  0  0  0  0
  -26.4024  -20.6961   30.3117 C   0  0  0  0  0  0  0  0  0  0  0  0
  -21.8996  -22.4219   24.9398 C   0  0  0  0  0  0  0  0  0  0  0  0
  -29.4607  -13.6606   18.2859 C   0  0  0  0  0  0  0  0  0  0  0  0
  -23.3755  -22.6913   25.2151 C   0  0  0  0  0  0  0  0  0  0  0  0
  -27.9899  -13.3555   18.5788 C   0  0  0  0  0  0  0  0  0  0  0  0
  -30.3953  -12.6855   18.9997 C   0  0  0  0  0  0  0  0  0  0  0  0
  -28.7045  -12.2558   20.7392 C   0  0  0  0  0  0  0  0  0  0  0  0
  -24.1501  -21.3810   25.4015 C   0  0  1  0  0  0  0  0  0  0  0  0
  -24.2031  -20.5315   29.1040 C   0  0  1  0  0  0  0  0  0  0  0  0
  -27.7269  -13.2516   20.0939 C   0  0  2  0  0  0  0  0  0  0  0  0
  -25.2724  -22.7313   36.4538 C   0  0  0  0  0  0  0  0  0  0  0  0
  -26.0483  -24.6358   30.1577 C   0  0  0  0  0  0  0  0  0  0  0  0
  -26.5202  -25.0145   32.5871 C   0  0  0  0  0  0  0  0  0  0  0  0
  -24.1704  -25.0698   31.7514 C   0  0  0  0  0  0  0  0  0  0  0  0
  -24.7071  -19.1824   35.2042 C   0  0  0  0  0  0  0  0  0  0  0  0
  -31.7886  -18.2653   26.4708 C   0  0  0  0  0  0  0  0  0  0  0  0
  -32.6968  -16.0183   27.0425 C   0  0  0  0  0  0  0  0  0  0  0  0
  -31.9974  -17.5762   28.8548 C   0  0  0  0  0  0  0  0  0  0  0  0
  -30.7202  -18.1751   29.4100 C   0  0  0  0  0  0  0  0  0  1  0  0
  -25.3801  -22.8549   31.9035 C   0  0  1  0  0  0  0  0  0  0  0  0
  -24.8400  -21.6633   35.4613 C   0  0  2  0  0  0  0  0  0  0  0  0
  -25.5368  -24.3692   31.5875 C   0  0  0  0  0  0  0  0  0  0  0  0
  -25.9394  -11.6101   20.5319 N   0  0  0  0  0  0  0  0  0  0  0  0
  -26.2805  -12.9023   20.3908 N   0  0  0  0  0  0  0  0  0  0  0  0
  -24.9946  -21.1099   30.1917 N   0  0  0  0  0  0  0  0  0  0  0  0
  -30.0903  -12.6428   20.4315 N   0  0  0  0  0  0  0  0  0  0  0  0
  -25.4038  -15.1025   20.4297 N   0  0  0  0  0  0  0  0  0  0  0  0
  -21.7911  -12.5262   21.2708 N   0  0  0  0  0  0  0  0  0  0  0  0
  -30.6829  -12.9132   22.6982 N   0  0  0  0  0  0  0  0  0  0  0  0
  -23.9113  -20.8361   26.7207 N   0  0  0  0  0  0  0  0  0  0  0  0
  -24.8715  -22.5733   33.2416 N   0  0  0  0  0  0  0  0  0  0  0  0
  -25.1063  -20.3264   36.0637 N   0  3  0  0  0  0  0  0  0  0  0  0
  -31.7616  -17.1262   27.4597 N   0  3  1  0  0  0  0  0  0  0  0  0
  -22.5144  -14.6841   20.9891 O   0  0  0  0  0  0  0  0  0  0  0  0
  -25.5196  -22.0602   27.8772 O   0  0  0  0  0  0  0  0  0  0  0  0
  -23.2725  -22.5305   30.8646 O   0  0  0  0  0  0  0  0  0  0  0  0
  -26.6726  -21.2866   33.9326 O   0  0  0  0  0  0  0  0  0  0  0  0
  -32.2387  -13.2665   21.0141 O   0  0  0  0  0  0  0  0  0  0  0  0
  -21.7186   -6.9663   21.6133 O   0  0  0  0  0  0  0  0  0  0  0  0
  -29.6908  -17.1868   29.4123 O   0  0  0  0  0  0  0  0  0  1  0  0
  -18.1581   -6.8764   25.8226 F   0  0  0  0  0  0  0  0  0  0  0  0
  -29.6692  -12.6344   25.2798 F   0  0  0  0  0  0  0  0  0  0  0  0
  -21.9896   -5.1291   23.6612 F   0  0  0  0  0  0  0  0  0  0  0  0
  1  2  1  0  0  0  0
  1  5  2  0  0  0  0
  2  6  2  0  0  0  0
  3 10  2  0  0  0  0
  3 18  1  0  0  0  0
  4 11  1  0  0  0  0
  4 18  2  0  0  0  0
  5 20  1  0  0  0  0
  6 22  1  0  0  0  0
  7 12  2  0  0  0  0
  7 21  1  0  0  0  0
  8  9  2  0  0  0  0
  8 24  1  0  0  0  0
  9 25  1  0  0  0  0
 10 26  1  0  0  0  0
 11 26  2  0  0  0  0
 12 27  1  0  0  0  0
 13 14  2  0  0  0  0
 13 28  1  0  0  0  0
 14 29  1  0  0  0  0
 15 23  1  0  0  0  0
 15 27  2  0  0  0  0
 16 24  2  0  0  0  0
 16 30  1  0  0  0  0
 17 29  2  0  0  0  0
 17 31  1  0  0  0  0
 18 32  1  0  0  0  0
 19 32  1  0  0  0  0
 19 33  2  0  0  0  0
 19 34  1  0  0  0  0
 20 22  2  0  0  0  0
 20 39  1  0  0  0  0
 21 23  2  0  0  0  0
 21 40  1  0  0  0  0
 22 48  1  0  0  0  0
 23 41  1  0  0  0  0
 24 57  1  0  0  0  0
 25 30  2  0  0  0  0
 25 69  1  0  0  0  0
 26 79  1  0  0  0  0
 27 80  1  0  0  0  0
 28 31  2  0  0  0  0
 28 79  1  0  0  0  0
 29 81  1  0  0  0  0
 30 82  1  0  0  0  0
 31 83  1  0  0  0  0
 32 63  2  0  0  0  0
 33 64  1  0  0  0  0
 33 67  1  0  0  0  0
 34 68  1  0  0  0  0
 34 74  2  0  0  0  0
 35 49  1  0  0  0  0
 35 70  1  0  0  0  0
 35 75  2  0  0  0  0
 36 60  1  0  0  0  0
 36 65  1  0  0  0  0
 36 76  2  0  0  0  0
 37 61  1  0  0  0  0
 37 71  1  0  0  0  0
 37 77  2  0  0  0  0
 38 66  1  0  0  0  0
 38 69  1  0  0  0  0
 38 78  2  0  0  0  0
 39 42  1  0  0  0  0
 40 49  1  0  0  0  0
 41 65  1  0  0  0  0
 42 44  1  0  0  0  0
 43 45  1  0  0  0  0
 43 46  1  0  0  0  0
 44 48  1  0  0  0  0
 45 50  1  0  0  0  0
 46 66  1  0  0  0  0
 47 50  1  0  0  0  0
 47 66  1  0  0  0  0
 48 70  1  0  0  0  0
 49 65  1  0  0  0  0
 50 64  1  0  0  0  0
 51 61  1  0  0  0  0
 52 62  1  0  0  0  0
 53 62  1  0  0  0  0
 54 62  1  0  0  0  0
 55 72  1  0  0  0  0
 56 73  1  0  0  0  0
 57 73  1  0  0  0  0
 58 59  1  0  0  0  0
 58 73  1  0  0  0  0
 59 80  1  0  0  0  0
 60 62  1  0  0  0  0
 60 71  1  0  0  0  0
 61 72  1  0  0  0  0
 63 64  1  0  0  0  0
M  CHG  2  72   1  73   1
M  ISO  4  38 100  59 101  69 100  80 101
M  END
> <Batch ID>
0013

> <Smiles>
CNC(C)C(=O)NC(C(=O)N1Cc2cc([101O:1][101CH2:1]CN(C)Cc3ccc([100NH:0][100C:0](=O)N4CCCC(n5nc(-c6ccc(Oc7ccc(F)cc7F)cc6)c(C(N)=O)c5N)C4)c(F)c3)ccc2CC1C(=O)NC1CCCc2ccccc21)C(C)(C)C

> <Shape>
0.135

> <Color>
0.174

> <Negative vol penalty>
0.000

$$$$

  -OEChem-04042320483D

 79 87  0     1  0  0  0  0  0999 V2000
  -28.1104  -37.0363   21.2099 C   0  0  0  0  0  0  0  0  0  0  0  0
  -28.5158  -35.7173   21.0323 C   0  0  0  0  0  0  0  0  0  0  0  0
  -26.8755  -12.7195   21.8041 C   0  0  0  0  0  0  0  0  0  0  0  0
  -26.2265  -14.3392   20.1330 C   0  0  0  0  0  0  0  0  0  0  0  0
  -26.9939  -37.3216   21.9946 C   0  0  0  0  0  0  0  0  0  0  0  0
  -27.8054  -34.6830   21.6405 C   0  0  0  0  0  0  0  0  0  0  0  0
  -26.8442  -29.0641   19.4020 C   0  0  0  0  0  0  0  0  0  0  0  0
  -29.8931  -23.9236   21.6325 C   0  0  0  0  0  0  0  0  0  0  0  0
  -30.3654  -22.6568   21.9756 C   0  0  0  0  0  0  0  0  0  0  0  0
  -25.5568  -12.2716   21.8821 C   0  0  0  0  0  0  0  0  0  0  0  0
  -24.9079  -13.8912   20.2109 C   0  0  0  0  0  0  0  0  0  0  0  0
  -27.4736  -27.8419   19.6335 C   0  0  0  0  0  0  0  0  0  0  0  0
  -22.4289  -10.4579   22.2587 C   0  0  0  0  0  0  0  0  0  0  0  0
  -22.2117   -9.0802   22.2718 C   0  0  0  0  0  0  0  0  0  0  0  0
  -25.7818  -27.2857   21.2606 C   0  0  0  0  0  0  0  0  0  0  0  0
  -29.0684  -23.0488   19.5369 C   0  0  0  0  0  0  0  0  0  0  0  0
  -23.2780   -8.8916   20.1120 C   0  0  0  0  0  0  0  0  0  0  0  0
  -27.2104  -13.7534   20.9296 C   0  0  0  0  0  0  0  0  0  0  0  0
  -29.5834  -13.7398   19.9936 C   0  0  0  0  0  0  0  0  0  0  0  0
  -26.2638  -36.2895   22.6048 C   0  0  0  0  0  0  0  0  0  0  0  0
  -25.6829  -29.4116   20.1072 C   0  0  0  0  0  0  0  0  0  0  0  0
  -26.6789  -34.9548   22.4353 C   0  0  0  0  0  0  0  0  0  0  0  0
  -25.1381  -28.5118   21.0344 C   0  0  0  0  0  0  0  0  0  0  0  0
  -29.2446  -24.1196   20.4132 C   0  0  0  0  0  0  0  0  0  0  0  0
  -29.5408  -21.7819   19.8799 C   0  0  0  0  0  0  0  0  0  0  0  0
  -30.1892  -21.5859   21.0992 C   0  0  0  0  0  0  0  0  0  0  0  0
  -24.5730  -12.8574   21.0855 C   0  0  0  0  0  0  0  0  0  0  0  0
  -26.9441  -26.9536   20.5650 C   0  0  0  0  0  0  0  0  0  0  0  0
  -23.0706  -11.0526   21.1723 C   0  0  0  0  0  0  0  0  0  0  0  0
  -22.6363   -8.2970   21.1985 C   0  0  0  0  0  0  0  0  0  0  0  0
  -23.4952  -10.2694   20.0989 C   0  0  0  0  0  0  0  0  0  0  0  0
  -28.5722  -14.2169   20.8490 C   0  0  0  0  0  0  0  0  0  0  0  0
  -30.6833  -14.5017   20.3037 C   0  0  0  0  0  0  0  0  0  0  0  0
  -29.5329  -12.7008   19.0068 C   0  0  0  0  0  0  0  0  0  0  0  0
  -24.8994  -31.7305   22.1351 C   0  0  0  0  0  0  0  0  0  0  0  0
  -21.9378  -30.4353   21.8632 C   0  0  0  0  0  0  0  0  0  0  0  0
  -20.0260  -27.7032   21.1371 C   0  0  0  0  0  0  0  0  0  0  0  0
  -31.3396  -19.9609   22.6428 C   0  0  0  0  0  0  0  0  0  0  0  0
  -25.0917  -36.6503   23.4827 C   0  0  0  0  0  0  0  0  0  0  0  0
  -25.0009  -30.7225   19.8265 C   0  0  0  0  0  0  0  0  0  0  0  0
  -23.8821  -28.8286   21.8029 C   0  0  0  0  0  0  0  0  0  0  0  0
  -24.1722  -35.4702   23.7865 C   0  0  0  0  0  0  0  0  0  0  0  0
  -32.6621  -16.9179   23.9342 C   0  0  0  0  0  0  0  0  0  0  0  0
  -24.9891  -34.2479   24.1934 C   0  0  0  0  0  0  0  0  0  0  0  0
  -31.8596  -15.8364   23.2073 C   0  0  0  0  0  0  0  0  0  0  0  0
  -31.8020  -18.1363   24.2651 C   0  0  0  0  0  0  0  0  0  0  0  0
  -30.2759  -17.6320   22.3980 C   0  0  0  0  0  0  0  0  0  0  0  0
  -25.9196  -33.8035   23.0584 C   0  0  1  0  0  0  0  0  0  0  0  0
  -24.1121  -31.1914   20.9743 C   0  0  1  0  0  0  0  0  0  0  0  0
  -31.1157  -16.4118   21.9862 C   0  0  2  0  0  0  0  0  0  0  0  0
  -29.3408  -20.6537   18.9205 C   0  0  0  0  0  0  0  0  0  0  0  0
  -17.6374  -26.9397   21.0404 C   0  0  0  0  0  0  0  0  0  0  0  0
  -21.8775  -30.2464   24.9080 C   0  0  0  0  0  0  0  0  0  0  0  0
  -19.9569  -28.6537   24.7016 C   0  0  0  0  0  0  0  0  0  0  0  0
  -19.7300  -30.9932   23.8664 C   0  0  0  0  0  0  0  0  0  0  0  0
  -20.2081  -27.1201   18.2413 C   0  0  0  0  0  0  0  0  0  0  0  0
  -28.7387  -25.4829   20.0433 C   0  0  0  0  0  0  0  0  0  1  0  0
  -21.1723  -29.3557   22.5895 C   0  0  1  0  0  0  0  0  0  0  0  0
  -18.7980  -27.5374   20.2602 C   0  0  2  0  0  0  0  0  0  0  0  0
  -20.7089  -29.8068   24.0035 C   0  0  0  0  0  0  0  0  0  0  0  0
  -28.9925  -15.2053   21.6430 N   0  0  0  0  0  0  0  0  0  0  0  0
  -30.2799  -15.3554   21.2879 N   0  0  0  0  0  0  0  0  0  0  0  0
  -23.2555  -30.1254   21.4977 N   0  0  0  0  0  0  0  0  0  0  0  0
  -31.1315  -18.6292   23.0600 N   0  0  0  0  0  0  0  0  0  0  0  0
  -31.9465  -14.5180   19.8279 N   0  0  0  0  0  0  0  0  0  0  0  0
  -28.3236  -12.0185   18.8163 N   0  0  0  0  0  0  0  0  0  0  0  0
  -30.6762  -20.3068   21.4659 N   0  0  0  0  0  0  0  0  0  0  0  0
  -25.1758  -33.0816   22.0484 N   0  0  0  0  0  0  0  0  0  0  0  0
  -20.0841  -28.9596   21.7022 N   0  0  0  0  0  0  0  0  0  0  0  0
  -19.1010  -26.6414   19.1086 N   0  3  0  0  0  0  0  0  0  0  0  0
  -30.5351  -12.3757   18.3261 O   0  0  0  0  0  0  0  0  0  0  0  0
  -25.2302  -30.9767   23.0429 O   0  0  0  0  0  0  0  0  0  0  0  0
  -21.3846  -31.5113   21.6226 O   0  0  0  0  0  0  0  0  0  0  0  0
  -20.8492  -26.8066   21.3070 O   0  0  0  0  0  0  0  0  0  0  0  0
  -32.0754  -20.7293   23.2675 O   0  0  0  0  0  0  0  0  0  0  0  0
  -23.2862  -12.4204   21.1611 O   0  0  0  0  0  0  0  0  0  0  0  0
  -27.5569  -25.7602   20.7934 O   0  0  0  0  0  0  0  0  0  1  0  0
  -22.4290   -6.9737   21.2118 F   0  0  0  0  0  0  0  0  0  0  0  0
  -24.1132  -10.8348   19.0529 F   0  0  0  0  0  0  0  0  0  0  0  0
  1  2  1  0  0  0  0
  1  5  2  0  0  0  0
  2  6  2  0  0  0  0
  3 10  2  0  0  0  0
  3 18  1  0  0  0  0
  4 11  1  0  0  0  0
  4 18  2  0  0  0  0
  5 20  1  0  0  0  0
  6 22  1  0  0  0  0
  7 12  2  0  0  0  0
  7 21  1  0  0  0  0
  8  9  2  0  0  0  0
  8 24  1  0  0  0  0
  9 26  1  0  0  0  0
 10 27  1  0  0  0  0
 11 27  2  0  0  0  0
 12 28  1  0  0  0  0
 13 14  2  0  0  0  0
 13 29  1  0  0  0  0
 14 30  1  0  0  0  0
 15 23  1  0  0  0  0
 15 28  2  0  0  0  0
 16 24  2  0  0  0  0
 16 25  1  0  0  0  0
 17 30  2  0  0  0  0
 17 31  1  0  0  0  0
 18 32  1  0  0  0  0
 19 32  1  0  0  0  0
 19 33  2  0  0  0  0
 19 34  1  0  0  0  0
 20 22  2  0  0  0  0
 20 39  1  0  0  0  0
 21 23  2  0  0  0  0
 21 40  1  0  0  0  0
 22 48  1  0  0  0  0
 23 41  1  0  0  0  0
 24 57  1  0  0  0  0
 25 26  2  0  0  0  0
 25 51  1  0  0  0  0
 26 67  1  0  0  0  0
 27 76  1  0  0  0  0
 28 77  1  0  0  0  0
 29 31  2  0  0  0  0
 29 76  1  0  0  0  0
 30 78  1  0  0  0  0
 31 79  1  0  0  0  0
 32 61  2  0  0  0  0
 33 62  1  0  0  0  0
 33 65  1  0  0  0  0
 34 66  1  0  0  0  0
 34 71  2  0  0  0  0
 35 49  1  0  0  0  0
 35 68  1  0  0  0  0
 35 72  2  0  0  0  0
 36 58  1  0  0  0  0
 36 63  1  0  0  0  0
 36 73  2  0  0  0  0
 37 59  1  0  0  0  0
 37 69  1  0  0  0  0
 37 74  2  0  0  0  0
 38 64  1  0  0  0  0
 38 67  1  0  0  0  0
 38 75  2  0  0  0  0
 39 42  1  0  0  0  0
 40 49  1  0  0  0  0
 41 63  1  0  0  0  0
 42 44  1  0  0  0  0
 43 45  1  0  0  0  0
 43 46  1  0  0  0  0
 44 48  1  0  0  0  0
 45 50  1  0  0  0  0
 46 64  1  0  0  0  0
 47 50  1  0  0  0  0
 47 64  1  0  0  0  0
 48 68  1  0  0  0  0
 49 63  1  0  0  0  0
 50 62  1  0  0  0  0
 52 59  1  0  0  0  0
 53 60  1  0  0  0  0
 54 60  1  0  0  0  0
 55 60  1  0  0  0  0
 56 70  1  0  0  0  0
 57 77  1  0  0  0  0
 58 60  1  0  0  0  0
 58 69  1  0  0  0  0
 59 70  1  0  0  0  0
 61 62  1  0  0  0  0
M  CHG  1  70   1
M  ISO  4  38 100  57 101  67 100  77 101
M  END
> <Batch ID>
0013

> <Smiles>
CNC(C)C(=O)NC(C(=O)N1Cc2cc([101O:1][101CH2:1]c3ccc([100NH:0][100C:0](=O)N4CCCC(n5nc(-c6ccc(Oc7ccc(F)cc7F)cc6)c(C(N)=O)c5N)C4)c(C)c3)ccc2CC1C(=O)NC1CCCc2ccccc21)C(C)(C)C

> <Shape>
0.345

> <Color>
0.080

> <Negative vol penalty>
0.000

$$$$

  -OEChem-04042320483D

 87 96  0     1  0  0  0  0  0999 V2000
  -22.1373  -19.6747   19.0285 C   0  0  0  0  0  0  0  0  0  0  0  0
  -23.3972  -19.1403   19.2783 C   0  0  0  0  0  0  0  0  0  0  0  0
  -24.7761  -30.4895   21.0375 C   0  0  0  0  0  0  0  0  0  0  0  0
  -25.0444  -29.1884   23.0555 C   0  0  0  0  0  0  0  0  0  0  0  0
  -21.0282  -19.1980   19.7262 C   0  0  0  0  0  0  0  0  0  0  0  0
  -23.5489  -18.1294   20.2268 C   0  0  0  0  0  0  0  0  0  0  0  0
  -26.5276  -14.3708   18.6005 C   0  0  0  0  0  0  0  0  0  0  0  0
  -29.0078  -18.5025   20.3534 C   0  0  0  0  0  0  0  0  0  0  0  0
  -28.2262  -19.5583   19.8843 C   0  0  0  0  0  0  0  0  0  0  0  0
  -24.0597  -31.4498   21.7518 C   0  0  0  0  0  0  0  0  0  0  0  0
  -24.3280  -30.1487   23.7698 C   0  0  0  0  0  0  0  0  0  0  0  0
  -27.9039  -14.5922   18.6269 C   0  0  0  0  0  0  0  0  0  0  0  0
  -24.7378  -34.0127   23.8506 C   0  0  0  0  0  0  0  0  0  0  0  0
  -25.0524  -35.3535   23.6295 C   0  0  0  0  0  0  0  0  0  0  0  0
  -28.0611  -13.3328   20.6783 C   0  0  0  0  0  0  0  0  0  0  0  0
  -30.7210  -20.0686   21.0239 C   0  0  0  0  0  0  0  0  0  0  0  0
  -22.7871  -35.7642   22.8967 C   0  0  0  0  0  0  0  0  0  0  0  0
  -25.2684  -29.3588   21.6893 C   0  0  0  0  0  0  0  0  0  0  0  0
  -27.3993  -28.3256   20.7409 C   0  0  0  0  0  0  0  0  0  0  0  0
  -21.1650  -18.1741   20.6767 C   0  0  0  0  0  0  0  0  0  0  0  0
  -25.9052  -13.6367   19.6204 C   0  0  0  0  0  0  0  0  0  0  0  0
  -22.4409  -17.6395   20.9388 C   0  0  0  0  0  0  0  0  0  0  0  0
  -26.6772  -13.1013   20.6612 C   0  0  0  0  0  0  0  0  0  0  0  0
  -30.2552  -18.7576   20.9232 C   0  0  0  0  0  0  0  0  0  0  0  0
  -28.6920  -20.8692   19.9849 C   0  0  0  0  0  0  0  0  0  0  0  0
  -29.9394  -21.1244   20.5547 C   0  0  0  0  0  0  0  0  0  0  0  0
  -23.8357  -31.2794   23.1180 C   0  0  0  0  0  0  0  0  0  0  0  0
  -28.6705  -14.0757   19.6674 C   0  0  0  0  0  0  0  0  0  0  0  0
  -23.4479  -33.5476   23.5947 C   0  0  0  0  0  0  0  0  0  0  0  0
  -24.0771  -36.2292   23.1526 C   0  0  0  0  0  0  0  0  0  0  0  0
  -22.4725  -34.4233   23.1178 C   0  0  0  0  0  0  0  0  0  0  0  0
  -26.0080  -28.3662   20.9518 C   0  0  0  0  0  0  0  0  0  0  0  0
  -27.5994  -27.1954   19.9866 C   0  0  0  0  0  0  0  0  0  0  0  0
  -28.4196  -29.2287   21.1870 C   0  0  0  0  0  0  0  0  0  0  0  0
  -23.6848  -14.2698   21.8051 C   0  0  0  0  0  0  0  0  0  0  0  0
  -23.9342  -11.0934   22.4140 C   0  0  0  0  0  0  0  0  0  0  0  0
  -25.8235   -8.2550   22.2683 C   0  0  0  0  0  0  0  0  0  0  0  0
  -26.6209  -21.8204   18.9116 C   0  0  0  0  0  0  0  0  0  0  0  0
  -19.9443  -17.7242   21.4398 C   0  0  0  0  0  0  0  0  0  0  0  0
  -24.4235  -13.3840   19.5633 C   0  0  0  0  0  0  0  0  0  0  0  0
  -26.0602  -12.2892   21.7695 C   0  0  0  0  0  0  0  0  0  0  0  0
  -20.1329  -16.3912   22.1593 C   0  0  0  0  0  0  0  0  0  0  0  0
  -24.2878  -24.1823   17.6251 C   0  0  0  0  0  0  0  0  0  0  0  0
  -33.6554  -16.0634   19.5877 C   0  0  0  0  0  0  0  0  0  0  0  0
  -21.4614  -16.3723   22.9087 C   0  0  0  0  0  0  0  0  0  0  0  0
  -24.6418  -25.4780   18.3586 C   0  0  0  0  0  0  0  0  0  0  0  0
  -32.9005  -14.7890   19.9097 C   0  0  0  0  0  0  0  0  0  0  0  0
  -24.4460  -22.9590   18.5264 C   0  0  0  0  0  0  0  0  0  0  0  0
  -26.1080  -24.1321   19.9160 C   0  0  0  0  0  0  0  0  0  0  0  0
  -32.5594  -17.1008   19.4374 C   0  0  0  0  0  0  0  0  0  0  0  0
  -22.6422  -16.5247   21.9422 C   0  0  1  0  0  0  0  0  0  0  0  0
  -23.8199  -13.0587   20.9260 C   0  0  1  0  0  0  0  0  0  0  0  0
  -26.0263  -25.3856   19.0296 C   0  0  2  0  0  0  0  0  0  0  0  0
  -31.8460  -15.2645   20.8981 C   0  0  2  0  0  0  0  0  0  0  0  0
  -25.7727   -5.8214   22.8783 C   0  0  0  0  0  0  0  0  0  0  0  0
  -24.4138  -11.8190   25.3386 C   0  0  0  0  0  0  0  0  0  0  0  0
  -25.2817   -9.4985   25.6996 C   0  0  0  0  0  0  0  0  0  0  0  0
  -22.9172   -9.8468   24.9850 C   0  0  0  0  0  0  0  0  0  0  0  0
  -31.2199  -23.0239   19.5995 C   0  0  0  0  0  0  0  0  0  0  0  0
  -30.1384  -23.2364   21.8430 C   0  0  0  0  0  0  0  0  0  0  0  0
  -26.1257   -7.4217   19.4446 C   0  0  0  0  0  0  0  0  0  0  0  0
  -31.0953  -17.6216   21.4277 C   0  0  0  0  0  0  0  0  0  0  0  0
  -30.6344  -14.3543   20.9793 C   0  0  0  0  0  0  0  0  0  1  0  0
  -24.7843  -10.2434   23.3271 C   0  0  1  0  0  0  0  0  0  0  0  0
  -25.4966   -6.8507   21.7934 C   0  0  2  0  0  0  0  0  0  0  0  0
  -24.3609  -10.3688   24.8179 C   0  0  0  0  0  0  0  0  0  0  0  0
  -25.3694  -27.3432   20.3777 N   0  0  0  0  0  0  0  0  0  0  0  0
  -26.3639  -26.6492   19.7985 N   0  0  0  0  0  0  0  0  0  0  0  0
  -24.6069  -12.0749   21.6725 N   0  0  0  0  0  0  0  0  0  0  0  0
  -25.7830  -22.9356   19.1238 N   0  0  0  0  0  0  0  0  0  0  0  0
  -28.7099  -26.6254   19.4723 N   0  0  0  0  0  0  0  0  0  0  0  0
  -28.0404  -30.3396   21.9528 N   0  0  0  0  0  0  0  0  0  0  0  0
  -27.8803  -21.9251   19.5012 N   0  0  0  0  0  0  0  0  0  0  0  0
  -22.9047  -15.2737   21.2637 N   0  0  0  0  0  0  0  0  0  0  0  0
  -24.7178   -8.8849   22.7993 N   0  0  0  0  0  0  0  0  0  0  0  0
  -30.4307  -22.4445   20.6664 N   0  0  0  0  0  0  0  0  0  0  0  0
  -31.4465  -16.6315   20.3593 N   0  3  1  0  0  0  0  0  0  0  0  0
  -26.3158   -6.5045   20.5976 N   0  3  0  0  0  0  0  0  0  0  0  0
  -29.6299  -29.0647   20.9008 O   0  0  0  0  0  0  0  0  0  0  0  0
  -24.2455  -14.2912   22.8945 O   0  0  0  0  0  0  0  0  0  0  0  0
  -22.7191  -10.8891   22.3553 O   0  0  0  0  0  0  0  0  0  0  0  0
  -26.9481   -8.7430   22.1806 O   0  0  0  0  0  0  0  0  0  0  0  0
  -26.2586  -20.8563   18.2325 O   0  0  0  0  0  0  0  0  0  0  0  0
  -23.1369  -32.2163   23.8154 O   0  0  0  0  0  0  0  0  0  0  0  0
  -30.0139  -14.2908   19.6959 O   0  0  0  0  0  0  0  0  0  1  0  0
  -24.3789  -37.5171   22.9418 F   0  0  0  0  0  0  0  0  0  0  0  0
  -21.2312  -33.9826   22.8712 F   0  0  0  0  0  0  0  0  0  0  0  0
  1  2  1  0  0  0  0
  1  5  2  0  0  0  0
  2  6  2  0  0  0  0
  3 10  2  0  0  0  0
  3 18  1  0  0  0  0
  4 11  1  0  0  0  0
  4 18  2  0  0  0  0
  5 20  1  0  0  0  0
  6 22  1  0  0  0  0
  7 12  2  0  0  0  0
  7 21  1  0  0  0  0
  8  9  2  0  0  0  0
  8 24  1  0  0  0  0
  9 25  1  0  0  0  0
 10 27  1  0  0  0  0
 11 27  2  0  0  0  0
 12 28  1  0  0  0  0
 13 14  2  0  0  0  0
 13 29  1  0  0  0  0
 14 30  1  0  0  0  0
 15 23  1  0  0  0  0
 15 28  2  0  0  0  0
 16 24  2  0  0  0  0
 16 26  1  0  0  0  0
 17 30  2  0  0  0  0
 17 31  1  0  0  0  0
 18 32  1  0  0  0  0
 19 32  1  0  0  0  0
 19 33  2  0  0  0  0
 19 34  1  0  0  0  0
 20 22  2  0  0  0  0
 20 39  1  0  0  0  0
 21 23  2  0  0  0  0
 21 40  1  0  0  0  0
 22 51  1  0  0  0  0
 23 41  1  0  0  0  0
 24 62  1  0  0  0  0
 25 26  2  0  0  0  0
 25 73  1  0  0  0  0
 26 76  1  0  0  0  0
 27 84  1  0  0  0  0
 28 85  1  0  0  0  0
 29 31  2  0  0  0  0
 29 84  1  0  0  0  0
 30 86  1  0  0  0  0
 31 87  1  0  0  0  0
 32 67  2  0  0  0  0
 33 68  1  0  0  0  0
 33 71  1  0  0  0  0
 34 72  1  0  0  0  0
 34 79  2  0  0  0  0
 35 52  1  0  0  0  0
 35 74  1  0  0  0  0
 35 80  2  0  0  0  0
 36 64  1  0  0  0  0
 36 69  1  0  0  0  0
 36 81  2  0  0  0  0
 37 65  1  0  0  0  0
 37 75  1  0  0  0  0
 37 82  2  0  0  0  0
 38 70  1  0  0  0  0
 38 73  1  0  0  0  0
 38 83  2  0  0  0  0
 39 42  1  0  0  0  0
 40 52  1  0  0  0  0
 41 69  1  0  0  0  0
 42 45  1  0  0  0  0
 43 46  1  0  0  0  0
 43 48  1  0  0  0  0
 44 47  1  0  0  0  0
 44 50  1  0  0  0  0
 45 51  1  0  0  0  0
 46 53  1  0  0  0  0
 47 54  1  0  0  0  0
 48 70  1  0  0  0  0
 49 53  1  0  0  0  0
 49 70  1  0  0  0  0
 50 77  1  0  0  0  0
 51 74  1  0  0  0  0
 52 69  1  0  0  0  0
 53 68  1  0  0  0  0
 54 63  1  0  0  0  0
 54 77  1  0  0  0  0
 55 65  1  0  0  0  0
 56 66  1  0  0  0  0
 57 66  1  0  0  0  0
 58 66  1  0  0  0  0
 59 76  1  0  0  0  0
 60 76  1  0  0  0  0
 61 78  1  0  0  0  0
 62 77  1  0  0  0  0
 63 85  1  0  0  0  0
 64 66  1  0  0  0  0
 64 75  1  0  0  0  0
 65 78  1  0  0  0  0
 67 68  1  0  0  0  0
M  CHG  2  77   1  78   1
M  ISO  4  38 100  63 101  73 100  85 101
M  END
> <Batch ID>
0013

> <Smiles>
CNC(C)C(=O)NC(C(=O)N1Cc2cc([101O:1][101CH2:1]C3CCCN3Cc3ccc([100NH:0][100C:0](=O)N4CCCC(n5nc(-c6ccc(Oc7ccc(F)cc7F)cc6)c(C(N)=O)c5N)C4)c(N(C)C)c3)ccc2CC1C(=O)NC1CCCc2ccccc21)C(C)(C)C

> <Shape>
0.244

> <Color>
0.057

> <Negative vol penalty>
0.000

$$$$

  -OEChem-04042320483D

 85 94  0     1  0  0  0  0  0999 V2000
  -30.1664  -35.1128   22.6423 C   0  0  0  0  0  0  0  0  0  0  0  0
  -30.4356  -33.7703   22.3960 C   0  0  0  0  0  0  0  0  0  0  0  0
  -22.5250  -10.3087   20.5768 C   0  0  0  0  0  0  0  0  0  0  0  0
  -24.4490   -9.2108   21.5410 C   0  0  0  0  0  0  0  0  0  0  0  0
  -28.8769  -35.5112   22.9923 C   0  0  0  0  0  0  0  0  0  0  0  0
  -29.4156  -32.8252   22.5007 C   0  0  0  0  0  0  0  0  0  0  0  0
  -28.7073  -27.7810   19.1007 C   0  0  0  0  0  0  0  0  0  0  0  0
  -29.3231  -18.5131   22.0986 C   0  0  0  0  0  0  0  0  0  0  0  0
  -29.4678  -19.8708   21.8140 C   0  0  0  0  0  0  0  0  0  0  0  0
  -21.8080   -9.1143   20.6474 C   0  0  0  0  0  0  0  0  0  0  0  0
  -23.7320   -8.0164   21.6117 C   0  0  0  0  0  0  0  0  0  0  0  0
  -29.0303  -26.4439   19.3277 C   0  0  0  0  0  0  0  0  0  0  0  0
  -22.2924   -4.7674   22.3796 C   0  0  0  0  0  0  0  0  0  0  0  0
  -22.3765   -4.0284   23.5596 C   0  0  0  0  0  0  0  0  0  0  0  0
  -26.7755  -26.0332   20.0804 C   0  0  0  0  0  0  0  0  0  0  0  0
  -29.8798  -19.3403   19.4932 C   0  0  0  0  0  0  0  0  0  0  0  0
  -21.4671   -5.8958   24.7938 C   0  0  0  0  0  0  0  0  0  0  0  0
  -23.8455  -10.3569   21.0235 C   0  0  0  0  0  0  0  0  0  0  0  0
  -24.2679  -12.8120   21.5726 C   0  0  0  0  0  0  0  0  0  0  0  0
  -27.8385  -34.5719   23.0920 C   0  0  0  0  0  0  0  0  0  0  0  0
  -27.4168  -28.2576   19.3727 C   0  0  0  0  0  0  0  0  0  0  0  0
  -28.1114  -33.2113   22.8537 C   0  0  0  0  0  0  0  0  0  0  0  0
  -26.4380  -27.3762   19.8536 C   0  0  0  0  0  0  0  0  0  0  0  0
  -29.4568  -17.5689   21.0806 C   0  0  0  0  0  0  0  0  0  0  0  0
  -29.7461  -20.2845   20.5112 C   0  0  0  0  0  0  0  0  0  0  0  0
  -22.4115   -7.9682   21.1649 C   0  0  0  0  0  0  0  0  0  0  0  0
  -28.0652  -25.5704   19.8203 C   0  0  0  0  0  0  0  0  0  0  0  0
  -21.7957   -6.0706   22.4067 C   0  0  0  0  0  0  0  0  0  0  0  0
  -21.9638   -4.5926   24.7667 C   0  0  0  0  0  0  0  0  0  0  0  0
  -29.7351  -17.9825   19.7779 C   0  0  0  0  0  0  0  0  0  0  0  0
  -21.3830   -6.6347   23.6137 C   0  0  0  0  0  0  0  0  0  0  0  0
  -24.5869  -11.5903   20.9503 C   0  0  0  0  0  0  0  0  0  0  0  0
  -25.2769  -13.6637   21.1944 C   0  0  0  0  0  0  0  0  0  0  0  0
  -23.1588  -13.1471   22.4172 C   0  0  0  0  0  0  0  0  0  0  0  0
  -26.1984  -30.4349   21.3420 C   0  0  0  0  0  0  0  0  0  0  0  0
  -23.4479  -29.7594   19.7606 C   0  0  0  0  0  0  0  0  0  0  0  0
  -21.6469  -27.5368   17.8996 C   0  0  0  0  0  0  0  0  0  0  0  0
  -30.8968  -14.3069   20.6280 C   0  0  0  0  0  0  0  0  0  0  0  0
  -26.4713  -35.0438   23.5196 C   0  0  0  0  0  0  0  0  0  0  0  0
  -27.0769  -29.6967   19.0972 C   0  0  0  0  0  0  0  0  0  0  0  0
  -25.0323  -27.8334   20.1425 C   0  0  0  0  0  0  0  0  0  0  0  0
  -25.3633  -34.0307   23.2432 C   0  0  0  0  0  0  0  0  0  0  0  0
  -28.9098  -13.1569   17.7244 C   0  0  0  0  0  0  0  0  0  0  0  0
  -25.7872  -32.6383   23.6996 C   0  0  0  0  0  0  0  0  0  0  0  0
  -27.6115  -12.6833   18.3758 C   0  0  0  0  0  0  0  0  0  0  0  0
  -30.5309  -23.6227   19.1548 C   0  0  0  0  0  0  0  0  0  0  0  0
  -30.0987  -13.0306   18.6721 C   0  0  0  0  0  0  0  0  0  0  0  0
  -30.1797  -22.1568   18.9014 C   0  0  0  0  0  0  0  0  0  0  0  0
  -28.6041  -13.2407   20.6307 C   0  0  0  0  0  0  0  0  0  0  0  0
  -29.7606  -22.6906   21.2274 C   0  0  0  0  0  0  0  0  0  0  0  0
  -27.0260  -32.1597   22.9329 C   0  0  1  0  0  0  0  0  0  0  0  0
  -25.8740  -30.1899   19.8955 C   0  0  1  0  0  0  0  0  0  0  0  0
  -27.3786  -13.3983   19.7181 C   0  0  2  0  0  0  0  0  0  0  0  0
  -29.7250  -23.9730   20.3972 C   0  0  2  0  0  0  0  0  0  1  0  0
  -19.4162  -27.2521   16.7859 C   0  0  0  0  0  0  0  0  0  0  0  0
  -22.1608  -29.2381   22.4775 C   0  0  0  0  0  0  0  0  0  0  0  0
  -20.2922  -28.0691   21.2900 C   0  0  0  0  0  0  0  0  0  0  0  0
  -20.7183  -30.4895   20.8627 C   0  0  0  0  0  0  0  0  0  0  0  0
  -31.6530  -16.1068   22.1341 C   0  0  0  0  0  0  0  0  0  0  0  0
  -22.8864  -27.2650   15.2259 C   0  0  0  0  0  0  0  0  0  0  0  0
  -29.3015  -16.1178   21.3884 C   0  0  0  0  0  0  0  0  0  0  0  0
  -22.3252  -28.7671   19.9443 C   0  0  1  0  0  0  0  0  0  0  0  0
  -20.8574  -27.7062   16.6141 C   0  0  2  0  0  0  0  0  0  0  0  0
  -21.4011  -29.1325   21.1401 C   0  0  0  0  0  0  0  0  0  0  0  0
  -25.7105  -11.6558   20.2311 N   0  0  0  0  0  0  0  0  0  0  0  0
  -26.1064  -12.9290   20.3991 N   0  0  0  0  0  0  0  0  0  0  0  0
  -29.8887  -21.6271   20.2303 N   0  0  3  0  0  0  0  0  0  0  0  0
  -24.7506  -29.2512   19.8629 N   0  0  0  0  0  0  0  0  0  0  0  0
  -29.8340  -13.6815   19.9556 N   0  0  0  0  0  0  0  0  0  0  0  0
  -25.5266  -14.9619   21.4676 N   0  0  0  0  0  0  0  0  0  0  0  0
  -23.2950  -12.9695   23.8008 N   0  0  0  0  0  0  0  0  0  0  0  0
  -26.6578  -31.7109   21.6073 N   0  0  0  0  0  0  0  0  0  0  0  0
  -21.6372  -28.6868   18.6603 N   0  0  0  0  0  0  0  0  0  0  0  0
  -30.5835  -15.4176   21.4261 N   0  0  0  0  0  0  0  0  0  0  0  0
  -21.4745  -26.9070   15.5181 N   0  3  0  0  0  0  0  0  0  0  0  0
  -22.0733  -13.5754   21.9572 O   0  0  0  0  0  0  0  0  0  0  0  0
  -26.0420  -29.5336   22.1574 O   0  0  0  0  0  0  0  0  0  0  0  0
  -23.1790  -30.9405   19.5276 O   0  0  0  0  0  0  0  0  0  0  0  0
  -22.2124  -26.4879   18.2007 O   0  0  0  0  0  0  0  0  0  0  0  0
  -32.0607  -13.9017   20.5136 O   0  0  0  0  0  0  0  0  0  0  0  0
  -21.7120   -6.8026   21.2342 O   0  0  0  0  0  0  0  0  0  0  0  0
  -28.3780  -24.2649   20.0433 O   0  0  0  0  0  0  0  0  0  1  0  0
  -22.0432   -3.8823   25.8996 F   0  0  0  0  0  0  0  0  0  0  0  0
  -29.8665  -17.0826   18.7933 F   0  0  0  0  0  0  0  0  0  0  0  0
  -20.9038   -7.8858   23.6458 F   0  0  0  0  0  0  0  0  0  0  0  0
  1  2  1  0  0  0  0
  1  5  2  0  0  0  0
  2  6  2  0  0  0  0
  3 10  2  0  0  0  0
  3 18  1  0  0  0  0
  4 11  1  0  0  0  0
  4 18  2  0  0  0  0
  5 20  1  0  0  0  0
  6 22  1  0  0  0  0
  7 12  2  0  0  0  0
  7 21  1  0  0  0  0
  8  9  2  0  0  0  0
  8 24  1  0  0  0  0
  9 25  1  0  0  0  0
 10 26  1  0  0  0  0
 11 26  2  0  0  0  0
 12 27  1  0  0  0  0
 13 14  2  0  0  0  0
 13 28  1  0  0  0  0
 14 29  1  0  0  0  0
 15 23  1  0  0  0  0
 15 27  2  0  0  0  0
 16 25  2  0  0  0  0
 16 30  1  0  0  0  0
 17 29  2  0  0  0  0
 17 31  1  0  0  0  0
 18 32  1  0  0  0  0
 19 32  1  0  0  0  0
 19 33  2  0  0  0  0
 19 34  1  0  0  0  0
 20 22  2  0  0  0  0
 20 39  1  0  0  0  0
 21 23  2  0  0  0  0
 21 40  1  0  0  0  0
 22 51  1  0  0  0  0
 23 41  1  0  0  0  0
 24 30  2  0  0  0  0
 24 61  1  0  0  0  0
 25 67  1  0  0  0  0
 26 81  1  0  0  0  0
 27 82  1  0  0  0  0
 28 31  2  0  0  0  0
 28 81  1  0  0  0  0
 29 83  1  0  0  0  0
 30 84  1  0  0  0  0
 31 85  1  0  0  0  0
 32 65  2  0  0  0  0
 33 66  1  0  0  0  0
 33 70  1  0  0  0  0
 34 71  1  0  0  0  0
 34 76  2  0  0  0  0
 35 52  1  0  0  0  0
 35 72  1  0  0  0  0
 35 77  2  0  0  0  0
 36 62  1  0  0  0  0
 36 68  1  0  0  0  0
 36 78  2  0  0  0  0
 37 63  1  0  0  0  0
 37 73  1  0  0  0  0
 37 79  2  0  0  0  0
 38 69  1  0  0  0  0
 38 74  1  0  0  0  0
 38 80  2  0  0  0  0
 39 42  1  0  0  0  0
 40 52  1  0  0  0  0
 41 68  1  0  0  0  0
 42 44  1  0  0  0  0
 43 45  1  0  0  0  0
 43 47  1  0  0  0  0
 44 51  1  0  0  0  0
 45 53  1  0  0  0  0
 46 48  1  0  0  0  0
 46 54  1  0  0  0  0
 47 69  1  0  0  0  0
 48 67  1  0  0  0  0
 49 53  1  0  0  0  0
 49 69  1  0  0  0  0
 50 54  1  0  0  0  0
 50 67  1  0  0  0  0
 51 72  1  0  0  0  0
 52 68  1  0  0  0  0
 53 66  1  0  0  0  0
 54 82  1  0  0  0  0
 55 63  1  0  0  0  0
 56 64  1  0  0  0  0
 57 64  1  0  0  0  0
 58 64  1  0  0  0  0
 59 74  1  0  0  0  0
 60 75  1  0  0  0  0
 61 74  1  0  0  0  0
 62 64  1  0  0  0  0
 62 73  1  0  0  0  0
 63 75  1  0  0  0  0
 65 66  1  0  0  0  0
M  CHG  1  75   1
M  ISO  4  38 100  54 101  74 100  82 101
M  END
> <Batch ID>
0013

> <Smiles>
CNC(C)C(=O)NC(C(=O)N1Cc2cc([101O:1][101CH:1]3CCN(c4ccc(C[100N:0](C)[100C:0](=O)N5CCCC(n6nc(-c7ccc(Oc8ccc(F)cc8F)cc7)c(C(N)=O)c6N)C5)c(F)c4)C3)ccc2CC1C(=O)NC1CCCc2ccccc21)C(C)(C)C

> <Shape>
0.402

> <Color>
0.150

> <Negative vol penalty>
0.000

$$$$

  -OEChem-04042320483D

 89 98  0     1  0  0  0  0  0999 V2000
  -26.2131   -7.8538   22.1381 C   0  0  0  0  0  0  0  0  0  0  0  0
  -26.9592   -8.6324   21.2591 C   0  0  0  0  0  0  0  0  0  0  0  0
  -18.6810  -24.3066   23.5975 C   0  0  0  0  0  0  0  0  0  0  0  0
  -18.2312  -24.6902   21.2550 C   0  0  0  0  0  0  0  0  0  0  0  0
  -24.8499   -8.0981   22.2989 C   0  0  0  0  0  0  0  0  0  0  0  0
  -26.3422   -9.6552   20.5396 C   0  0  0  0  0  0  0  0  0  0  0  0
  -28.5735  -16.4782   21.1385 C   0  0  0  0  0  0  0  0  0  0  0  0
  -30.4509  -25.9532   20.3697 C   0  0  0  0  0  0  0  0  0  0  0  0
  -29.7688  -27.0981   20.7814 C   0  0  0  0  0  0  0  0  0  0  0  0
  -18.2451  -22.9882   23.4653 C   0  0  0  0  0  0  0  0  0  0  0  0
  -17.7954  -23.3718   21.1227 C   0  0  0  0  0  0  0  0  0  0  0  0
  -29.0775  -17.7752   21.0380 C   0  0  0  0  0  0  0  0  0  0  0  0
  -15.2961  -21.3447   23.3018 C   0  0  0  0  0  0  0  0  0  0  0  0
  -14.4419  -20.8437   24.2841 C   0  0  0  0  0  0  0  0  0  0  0  0
  -27.2653  -18.3757   19.5537 C   0  0  0  0  0  0  0  0  0  0  0  0
  -28.4726  -25.1912   19.2109 C   0  0  0  0  0  0  0  0  0  0  0  0
  -16.0552  -19.1239   24.8100 C   0  0  0  0  0  0  0  0  0  0  0  0
  -18.6739  -25.1576   22.4923 C   0  0  0  0  0  0  0  0  0  0  0  0
  -18.5878  -27.5116   23.4717 C   0  0  0  0  0  0  0  0  0  0  0  0
  -24.2179   -9.1307   21.5883 C   0  0  0  0  0  0  0  0  0  0  0  0
  -27.4036  -16.1290   20.4584 C   0  0  0  0  0  0  0  0  0  0  0  0
  -24.9690   -9.9127   20.6902 C   0  0  0  0  0  0  0  0  0  0  0  0
  -26.7489  -17.0816   19.6605 C   0  0  0  0  0  0  0  0  0  0  0  0
  -29.8028  -24.9998   19.5844 C   0  0  0  0  0  0  0  0  0  0  0  0
  -28.4386  -27.2896   20.4079 C   0  0  0  0  0  0  0  0  0  0  0  0
  -17.8024  -22.5208   22.2280 C   0  0  0  0  0  0  0  0  0  0  0  0
  -28.4251  -18.7215   20.2474 C   0  0  0  0  0  0  0  0  0  0  0  0
  -16.5299  -20.7353   23.0736 C   0  0  0  0  0  0  0  0  0  0  0  0
  -14.8214  -19.7334   25.0382 C   0  0  0  0  0  0  0  0  0  0  0  0
  -27.7905  -26.3362   19.6227 C   0  0  0  0  0  0  0  0  0  0  0  0
  -16.9095  -19.6249   23.8277 C   0  0  0  0  0  0  0  0  0  0  0  0
  -19.1235  -26.5198   22.6284 C   0  0  0  0  0  0  0  0  0  0  0  0
  -19.3612  -28.6209   23.2315 C   0  0  0  0  0  0  0  0  0  0  0  0
  -17.4893  -27.4367   24.3902 C   0  0  0  0  0  0  0  0  0  0  0  0
  -24.8772  -13.4662   19.6817 C   0  0  0  0  0  0  0  0  0  0  0  0
  -23.3228  -16.0812   20.0769 C   0  0  0  0  0  0  0  0  0  0  0  0
  -22.1602  -18.6794   21.4188 C   0  0  0  0  0  0  0  0  0  0  0  0
  -24.0977  -31.0778   22.5316 C   0  0  0  0  0  0  0  0  0  0  0  0
  -22.7323   -9.3264   21.7600 C   0  0  0  0  0  0  0  0  0  0  0  0
  -26.8588  -14.7268   20.4886 C   0  0  0  0  0  0  0  0  0  0  0  0
  -25.5126  -16.6514   18.9192 C   0  0  0  0  0  0  0  0  0  0  0  0
  -22.2312  -10.6717   21.2409 C   0  0  0  0  0  0  0  0  0  0  0  0
  -22.7789  -29.5503   19.6334 C   0  0  0  0  0  0  0  0  0  0  0  0
  -22.8106  -10.9603   19.8596 C   0  0  0  0  0  0  0  0  0  0  0  0
  -21.6623  -28.6915   20.2254 C   0  0  0  0  0  0  0  0  0  0  0  0
  -26.9624  -29.9095   22.6367 C   0  0  0  0  0  0  0  0  0  0  0  0
  -26.0523  -30.1506   20.3170 C   0  0  0  0  0  0  0  0  0  0  0  0
  -24.0332  -29.5456   20.5092 C   0  0  0  0  0  0  0  0  0  0  0  0
  -28.1211  -29.0730   22.0940 C   0  0  0  0  0  0  0  0  0  0  0  0
  -27.2152  -29.3192   19.7776 C   0  0  0  0  0  0  0  0  0  0  0  0
  -22.6627  -29.0597   22.5113 C   0  0  0  0  0  0  0  0  0  0  0  0
  -24.3408  -11.0474   19.9105 C   0  0  1  0  0  0  0  0  0  0  0  0
  -25.3208  -14.6760   20.4506 C   0  0  1  0  0  0  0  0  0  0  0  0
  -21.3704  -29.0955   21.6809 C   0  0  2  0  0  0  0  0  0  0  0  0
  -26.4410  -30.8953   21.5930 C   0  0  0  0  0  0  0  0  0  0  0  0
  -20.8617  -20.6227   22.3324 C   0  0  0  0  0  0  0  0  0  0  0  0
  -23.1193  -16.3926   17.0494 C   0  0  0  0  0  0  0  0  0  0  0  0
  -21.5165  -18.2795   17.4224 C   0  0  0  0  0  0  0  0  0  0  0  0
  -20.9398  -15.9822   18.2051 C   0  0  0  0  0  0  0  0  0  0  0  0
  -25.5912  -33.0384   22.4711 C   0  0  0  0  0  0  0  0  0  0  0  0
  -21.2703  -17.1261   23.7755 C   0  0  0  0  0  0  0  0  0  0  0  0
  -30.5366  -23.7684   19.1414 C   0  0  0  0  0  0  0  0  0  0  0  0
  -30.7995  -21.3020   19.4356 C   0  0  0  0  0  0  0  0  0  0  0  0
  -30.3320  -20.1424   20.2929 C   0  0  0  0  0  0  0  0  0  1  0  0
  -22.7141  -17.3007   19.4321 C   0  0  1  0  0  0  0  0  0  0  0  0
  -20.9873  -19.1080   22.2819 C   0  0  2  0  0  0  0  0  0  0  0  0
  -22.0984  -16.9894   18.0387 C   0  0  0  0  0  0  0  0  0  0  0  0
  -20.1572  -26.9603   21.9063 N   0  0  0  0  0  0  0  0  0  0  0  0
  -20.2772  -28.2411   22.2951 N   0  0  0  0  0  0  0  0  0  0  0  0
  -27.7558  -28.4400   20.8227 N   0  0  0  0  0  0  0  0  0  0  0  0
  -24.6682  -15.8195   19.7908 N   0  0  0  0  0  0  0  0  0  0  0  0
  -23.7028  -29.8898   21.8989 N   0  0  0  0  0  0  0  0  0  0  0  0
  -19.3401  -29.8745   23.7320 N   0  0  0  0  0  0  0  0  0  0  0  0
  -16.2050  -27.7463   23.9223 N   0  0  0  0  0  0  0  0  0  0  0  0
  -24.7567  -12.3242   20.4502 N   0  0  0  0  0  0  0  0  0  0  0  0
  -21.7638  -17.8416   20.3979 N   0  0  0  0  0  0  0  0  0  0  0  0
  -25.3074  -31.6549   22.1168 N   0  0  0  0  0  0  0  0  0  0  0  0
  -21.1572  -18.6039   23.6741 N   0  3  0  0  0  0  0  0  0  0  0  0
  -30.1340  -22.5483   19.8918 N   0  3  0  0  0  0  0  0  0  0  0  0
  -17.6446  -27.1211   25.5942 O   0  0  0  0  0  0  0  0  0  0  0  0
  -24.6584  -13.5610   18.4797 O   0  0  0  0  0  0  0  0  0  0  0  0
  -22.6252  -15.3749   20.8101 O   0  0  0  0  0  0  0  0  0  0  0  0
  -23.3122  -19.0536   21.6269 O   0  0  0  0  0  0  0  0  0  0  0  0
  -23.4118  -31.5918   23.4245 O   0  0  0  0  0  0  0  0  0  0  0  0
  -17.3772  -21.2343   22.0985 O   0  0  0  0  0  0  0  0  0  0  0  0
  -28.9200  -19.9870   20.1573 O   0  0  0  0  0  0  0  0  0  1  0  0
  -14.0017  -19.2533   25.9825 F   0  0  0  0  0  0  0  0  0  0  0  0
  -26.5122  -26.5101   19.2578 F   0  0  0  0  0  0  0  0  0  0  0  0
  -18.0940  -19.0359   23.6138 F   0  0  0  0  0  0  0  0  0  0  0  0
  1  2  1  0  0  0  0
  1  5  2  0  0  0  0
  2  6  2  0  0  0  0
  3 10  2  0  0  0  0
  3 18  1  0  0  0  0
  4 11  1  0  0  0  0
  4 18  2  0  0  0  0
  5 20  1  0  0  0  0
  6 22  1  0  0  0  0
  7 12  2  0  0  0  0
  7 21  1  0  0  0  0
  8  9  2  0  0  0  0
  8 24  1  0  0  0  0
  9 25  1  0  0  0  0
 10 26  1  0  0  0  0
 11 26  2  0  0  0  0
 12 27  1  0  0  0  0
 13 14  2  0  0  0  0
 13 28  1  0  0  0  0
 14 29  1  0  0  0  0
 15 23  1  0  0  0  0
 15 27  2  0  0  0  0
 16 24  2  0  0  0  0
 16 30  1  0  0  0  0
 17 29  2  0  0  0  0
 17 31  1  0  0  0  0
 18 32  1  0  0  0  0
 19 32  1  0  0  0  0
 19 33  2  0  0  0  0
 19 34  1  0  0  0  0
 20 22  2  0  0  0  0
 20 39  1  0  0  0  0
 21 23  2  0  0  0  0
 21 40  1  0  0  0  0
 22 52  1  0  0  0  0
 23 41  1  0  0  0  0
 24 62  1  0  0  0  0
 25 30  2  0  0  0  0
 25 70  1  0  0  0  0
 26 85  1  0  0  0  0
 27 86  1  0  0  0  0
 28 31  2  0  0  0  0
 28 85  1  0  0  0  0
 29 87  1  0  0  0  0
 30 88  1  0  0  0  0
 31 89  1  0  0  0  0
 32 68  2  0  0  0  0
 33 69  1  0  0  0  0
 33 73  1  0  0  0  0
 34 74  1  0  0  0  0
 34 80  2  0  0  0  0
 35 53  1  0  0  0  0
 35 75  1  0  0  0  0
 35 81  2  0  0  0  0
 36 65  1  0  0  0  0
 36 71  1  0  0  0  0
 36 82  2  0  0  0  0
 37 66  1  0  0  0  0
 37 76  1  0  0  0  0
 37 83  2  0  0  0  0
 38 72  1  0  0  0  0
 38 77  1  0  0  0  0
 38 84  2  0  0  0  0
 39 42  1  0  0  0  0
 40 53  1  0  0  0  0
 41 71  1  0  0  0  0
 42 44  1  0  0  0  0
 43 45  1  0  0  0  0
 43 48  1  0  0  0  0
 44 52  1  0  0  0  0
 45 54  1  0  0  0  0
 46 49  1  0  0  0  0
 46 55  1  0  0  0  0
 47 50  1  0  0  0  0
 47 55  1  0  0  0  0
 48 72  1  0  0  0  0
 49 70  1  0  0  0  0
 50 70  1  0  0  0  0
 51 54  1  0  0  0  0
 51 72  1  0  0  0  0
 52 75  1  0  0  0  0
 53 71  1  0  0  0  0
 54 69  1  0  0  0  0
 55 77  1  0  0  0  0
 56 66  1  0  0  0  0
 57 67  1  0  0  0  0
 58 67  1  0  0  0  0
 59 67  1  0  0  0  0
 60 77  1  0  0  0  0
 61 78  1  0  0  0  0
 62 79  1  0  0  0  0
 63 64  1  0  0  0  0
 63 79  1  0  0  0  0
 64 86  1  0  0  0  0
 65 67  1  0  0  0  0
 65 76  1  0  0  0  0
 66 78  1  0  0  0  0
 68 69  1  0  0  0  0
M  CHG  2  78   1  79   1
M  ISO  4  38 100  64 101  77 100  86 101
M  END
> <Batch ID>
0013

> <Smiles>
CNC(C)C(=O)NC(C(=O)N1Cc2cc([101O:1][101CH2:1]CNCc3ccc(N4CCC([100N:0](C)[100C:0](=O)N5CCCC(n6nc(-c7ccc(Oc8ccc(F)cc8F)cc7)c(C(N)=O)c6N)C5)CC4)c(F)c3)ccc2CC1C(=O)NC1CCCc2ccccc21)C(C)(C)C

> <Shape>
0.276

> <Color>
0.058

> <Negative vol penalty>
0.000

$$$$

  -OEChem-04042320483D

 83 91  0     1  0  0  0  0  0999 V2000
  -38.5432  -26.1877   24.1313 C   0  0  0  0  0  0  0  0  0  0  0  0
  -37.7562  -25.2477   24.7888 C   0  0  0  0  0  0  0  0  0  0  0  0
  -23.2944   -9.7948   19.9382 C   0  0  0  0  0  0  0  0  0  0  0  0
  -23.7545   -9.9641   22.3039 C   0  0  0  0  0  0  0  0  0  0  0  0
  -37.9463  -27.1421   23.3087 C   0  0  0  0  0  0  0  0  0  0  0  0
  -36.3715  -25.2621   24.6249 C   0  0  0  0  0  0  0  0  0  0  0  0
  -34.4568  -20.6361   23.8643 C   0  0  0  0  0  0  0  0  0  0  0  0
  -32.2079  -14.6681   23.5032 C   0  0  0  0  0  0  0  0  0  0  0  0
  -32.7008  -15.4395   24.5556 C   0  0  0  0  0  0  0  0  0  0  0  0
  -22.5726   -8.6225   20.1624 C   0  0  0  0  0  0  0  0  0  0  0  0
  -23.0327   -8.7918   22.5282 C   0  0  0  0  0  0  0  0  0  0  0  0
  -34.3087  -19.8166   24.9825 C   0  0  0  0  0  0  0  0  0  0  0  0
  -21.0071   -6.0395   23.7692 C   0  0  0  0  0  0  0  0  0  0  0  0
  -20.1101   -6.0237   24.8371 C   0  0  0  0  0  0  0  0  0  0  0  0
  -31.9623  -20.3700   25.0697 C   0  0  0  0  0  0  0  0  0  0  0  0
  -30.6629  -13.5908   25.0164 C   0  0  0  0  0  0  0  0  0  0  0  0
  -18.8907   -7.8557   23.8400 C   0  0  0  0  0  0  0  0  0  0  0  0
  -23.8855  -10.4656   21.0089 C   0  0  0  0  0  0  0  0  0  0  0  0
  -24.1361  -12.9939   20.7801 C   0  0  0  0  0  0  0  0  0  0  0  0
  -36.5544  -27.1622   23.1270 C   0  0  0  0  0  0  0  0  0  0  0  0
  -33.3593  -21.3384   23.3462 C   0  0  0  0  0  0  0  0  0  0  0  0
  -35.7553  -26.2185   23.8001 C   0  0  0  0  0  0  0  0  0  0  0  0
  -32.0987  -21.1958   23.9433 C   0  0  0  0  0  0  0  0  0  0  0  0
  -31.1889  -13.7438   23.7336 C   0  0  0  0  0  0  0  0  0  0  0  0
  -32.1748  -15.2865   25.8384 C   0  0  0  0  0  0  0  0  0  0  0  0
  -22.4417   -8.1210   21.4574 C   0  0  0  0  0  0  0  0  0  0  0  0
  -33.0619  -19.6857   25.5871 C   0  0  0  0  0  0  0  0  0  0  0  0
  -20.8461   -6.9634   22.7366 C   0  0  0  0  0  0  0  0  0  0  0  0
  -19.0518   -6.9318   24.8725 C   0  0  0  0  0  0  0  0  0  0  0  0
  -31.1558  -14.3622   26.0688 C   0  0  0  0  0  0  0  0  0  0  0  0
  -19.7879   -7.8715   22.7720 C   0  0  0  0  0  0  0  0  0  0  0  0
  -24.6317  -11.6763   20.7778 C   0  0  0  0  0  0  0  0  0  0  0  0
  -25.2341  -13.7742   20.5116 C   0  0  0  0  0  0  0  0  0  0  0  0
  -22.8025  -13.4700   21.0049 C   0  0  0  0  0  0  0  0  0  0  0  0
  -32.6476  -24.4106   22.9474 C   0  0  0  0  0  0  0  0  0  0  0  0
  -30.0532  -23.2090   21.4152 C   0  0  0  0  0  0  0  0  0  0  0  0
  -27.8986  -20.5990   20.9767 C   0  0  0  0  0  0  0  0  0  0  0  0
  -31.1004  -12.9876   21.3322 C   0  0  0  0  0  0  0  0  0  0  0  0
  -35.9504  -28.2425   22.2652 C   0  0  0  0  0  0  0  0  0  0  0  0
  -33.5301  -22.1975   22.1233 C   0  0  0  0  0  0  0  0  0  0  0  0
  -30.8845  -21.9125   23.4135 C   0  0  0  0  0  0  0  0  0  0  0  0
  -34.5100  -27.9556   21.8491 C   0  0  0  0  0  0  0  0  0  0  0  0
  -29.4520  -13.6513   18.2468 C   0  0  0  0  0  0  0  0  0  0  0  0
  -33.6905  -27.4903   23.0485 C   0  0  0  0  0  0  0  0  0  0  0  0
  -27.9828  -13.3459   18.5477 C   0  0  0  0  0  0  0  0  0  0  0  0
  -30.3912  -12.6873   18.9696 C   0  0  0  0  0  0  0  0  0  0  0  0
  -28.7065  -12.2741   20.7190 C   0  0  0  0  0  0  0  0  0  0  0  0
  -34.2521  -26.1864   23.6280 C   0  0  1  0  0  0  0  0  0  0  0  0
  -32.4522  -23.2688   21.9904 C   0  0  1  0  0  0  0  0  0  0  0  0
  -27.7244  -13.2595   20.0647 C   0  0  2  0  0  0  0  0  0  0  0  0
  -34.3110  -14.9171   28.2875 C   0  0  0  0  0  0  0  0  0  0  0  0
  -25.8558  -19.9270   19.6834 C   0  0  0  0  0  0  0  0  0  0  0  0
  -28.3277  -24.9302   23.2510 C   0  0  0  0  0  0  0  0  0  0  0  0
  -26.3554  -23.5384   22.5867 C   0  0  0  0  0  0  0  0  0  0  0  0
  -27.5759  -24.8704   20.8665 C   0  0  0  0  0  0  0  0  0  0  0  0
  -29.3232  -18.3607   19.6653 C   0  0  0  0  0  0  0  0  0  0  0  0
  -34.0856  -15.9773   27.2639 C   0  0  0  0  0  0  0  0  0  0  0  0
  -31.8196  -16.9670   27.6301 C   0  0  0  0  0  0  0  0  0  0  0  0
  -31.6427  -18.2668   26.8632 C   0  0  0  0  0  0  0  0  0  1  0  0
  -28.6607  -22.8001   21.8305 C   0  0  1  0  0  0  0  0  0  0  0  0
  -27.3761  -19.9242   19.7212 C   0  0  2  0  0  0  0  0  0  0  0  0
  -27.7530  -24.0227   22.1451 C   0  0  0  0  0  0  0  0  0  0  0  0
  -25.9425  -11.6188   20.5275 N   0  0  0  0  0  0  0  0  0  0  0  0
  -26.2798  -12.9101   20.3699 N   0  0  0  0  0  0  0  0  0  0  0  0
  -31.1039  -22.7456   22.2197 N   0  0  0  0  0  0  0  0  0  0  0  0
  -30.0904  -12.6610   20.4026 N   0  0  0  0  0  0  0  0  0  0  0  0
  -25.3974  -15.1082   20.3850 N   0  0  0  0  0  0  0  0  0  0  0  0
  -21.7939  -12.5329   21.2674 N   0  0  0  0  0  0  0  0  0  0  0  0
  -30.6888  -12.9601   22.6643 N   0  0  0  0  0  0  0  0  0  0  0  0
  -33.8599  -25.0592   22.8094 N   0  0  0  0  0  0  0  0  0  0  0  0
  -28.1545  -21.9378   20.7681 N   0  0  0  0  0  0  0  0  0  0  0  0
  -32.6724  -16.0621   26.8940 N   0  0  3  0  0  0  0  0  0  0  0  0
  -27.8452  -18.5111   19.6593 N   0  3  0  0  0  0  0  0  0  0  0  0
  -22.5107  -14.6891   20.9578 O   0  0  0  0  0  0  0  0  0  0  0  0
  -31.7633  -24.6839   23.7506 O   0  0  0  0  0  0  0  0  0  0  0  0
  -30.2038  -23.9078   20.4099 O   0  0  0  0  0  0  0  0  0  0  0  0
  -28.0598  -19.9994   22.0373 O   0  0  0  0  0  0  0  0  0  0  0  0
  -32.2388  -13.2972   20.9715 O   0  0  0  0  0  0  0  0  0  0  0  0
  -21.7371   -6.9773   21.6767 O   0  0  0  0  0  0  0  0  0  0  0  0
  -32.9146  -18.8870   26.6789 O   0  0  0  0  0  0  0  0  0  1  0  0
  -18.1895   -6.9155   25.8974 F   0  0  0  0  0  0  0  0  0  0  0  0
  -30.6443  -14.2060   27.2982 F   0  0  0  0  0  0  0  0  0  0  0  0
  -19.6273   -8.7606   21.7823 F   0  0  0  0  0  0  0  0  0  0  0  0
  1  2  1  0  0  0  0
  1  5  2  0  0  0  0
  2  6  2  0  0  0  0
  3 10  2  0  0  0  0
  3 18  1  0  0  0  0
  4 11  1  0  0  0  0
  4 18  2  0  0  0  0
  5 20  1  0  0  0  0
  6 22  1  0  0  0  0
  7 12  2  0  0  0  0
  7 21  1  0  0  0  0
  8  9  2  0  0  0  0
  8 24  1  0  0  0  0
  9 25  1  0  0  0  0
 10 26  1  0  0  0  0
 11 26  2  0  0  0  0
 12 27  1  0  0  0  0
 13 14  2  0  0  0  0
 13 28  1  0  0  0  0
 14 29  1  0  0  0  0
 15 23  1  0  0  0  0
 15 27  2  0  0  0  0
 16 24  2  0  0  0  0
 16 30  1  0  0  0  0
 17 29  2  0  0  0  0
 17 31  1  0  0  0  0
 18 32  1  0  0  0  0
 19 32  1  0  0  0  0
 19 33  2  0  0  0  0
 19 34  1  0  0  0  0
 20 22  2  0  0  0  0
 20 39  1  0  0  0  0
 21 23  2  0  0  0  0
 21 40  1  0  0  0  0
 22 48  1  0  0  0  0
 23 41  1  0  0  0  0
 24 69  1  0  0  0  0
 25 30  2  0  0  0  0
 25 72  1  0  0  0  0
 26 79  1  0  0  0  0
 27 80  1  0  0  0  0
 28 31  2  0  0  0  0
 28 79  1  0  0  0  0
 29 81  1  0  0  0  0
 30 82  1  0  0  0  0
 31 83  1  0  0  0  0
 32 63  2  0  0  0  0
 33 64  1  0  0  0  0
 33 67  1  0  0  0  0
 34 68  1  0  0  0  0
 34 74  2  0  0  0  0
 35 49  1  0  0  0  0
 35 70  1  0  0  0  0
 35 75  2  0  0  0  0
 36 60  1  0  0  0  0
 36 65  1  0  0  0  0
 36 76  2  0  0  0  0
 37 61  1  0  0  0  0
 37 71  1  0  0  0  0
 37 77  2  0  0  0  0
 38 66  1  0  0  0  0
 38 69  1  0  0  0  0
 38 78  2  0  0  0  0
 39 42  1  0  0  0  0
 40 49  1  0  0  0  0
 41 65  1  0  0  0  0
 42 44  1  0  0  0  0
 43 45  1  0  0  0  0
 43 46  1  0  0  0  0
 44 48  1  0  0  0  0
 45 50  1  0  0  0  0
 46 66  1  0  0  0  0
 47 50  1  0  0  0  0
 47 66  1  0  0  0  0
 48 70  1  0  0  0  0
 49 65  1  0  0  0  0
 50 64  1  0  0  0  0
 51 57  1  0  0  0  0
 52 61  1  0  0  0  0
 53 62  1  0  0  0  0
 54 62  1  0  0  0  0
 55 62  1  0  0  0  0
 56 73  1  0  0  0  0
 57 72  1  0  0  0  0
 58 59  1  0  0  0  0
 58 72  1  0  0  0  0
 59 80  1  0  0  0  0
 60 62  1  0  0  0  0
 60 71  1  0  0  0  0
 61 73  1  0  0  0  0
 63 64  1  0  0  0  0
M  CHG  1  73   1
M  ISO  4  38 100  59 101  69 100  80 101
M  END
> <Batch ID>
0013

> <Smiles>
CCN(C[101CH2:1][101O:1]c1ccc2c(c1)CN(C(=O)C(NC(=O)C(C)NC)C(C)(C)C)C(C(=O)NC1CCCc3ccccc31)C2)c1ccc([100NH:0][100C:0](=O)N2CCCC(n3nc(-c4ccc(Oc5ccc(F)cc5F)cc4)c(C(N)=O)c3N)C2)cc1F

> <Shape>
0.179

> <Color>
0.183

> <Negative vol penalty>
0.000

$$$$

  -OEChem-04042320483D

 83 92  0     1  0  0  0  0  0999 V2000
  -17.6027  -13.7694   21.5448 C   0  0  0  0  0  0  0  0  0  0  0  0
  -18.3971  -14.8469   21.1663 C   0  0  0  0  0  0  0  0  0  0  0  0
  -22.9475  -28.7097   22.3115 C   0  0  0  0  0  0  0  0  0  0  0  0
  -23.0848  -30.3494   20.5425 C   0  0  0  0  0  0  0  0  0  0  0  0
  -18.1481  -12.7357   22.3050 C   0  0  0  0  0  0  0  0  0  0  0  0
  -19.7373  -14.8919   21.5488 C   0  0  0  0  0  0  0  0  0  0  0  0
  -24.4082  -17.2032   18.3321 C   0  0  0  0  0  0  0  0  0  0  0  0
  -29.2034  -24.2332   20.3498 C   0  0  0  0  0  0  0  0  0  0  0  0
  -27.7560  -23.5060   22.1424 C   0  0  0  0  0  0  0  0  0  0  0  0
  -29.8979  -25.0501   21.2420 C   0  0  0  0  0  0  0  0  0  0  0  0
  -28.4506  -24.3228   23.0346 C   0  0  0  0  0  0  0  0  0  0  0  0
  -21.8094  -29.3432   22.8105 C   0  0  0  0  0  0  0  0  0  0  0  0
  -21.9467  -30.9830   21.0414 C   0  0  0  0  0  0  0  0  0  0  0  0
  -25.0667  -18.4309   18.3848 C   0  0  0  0  0  0  0  0  0  0  0  0
  -18.5124  -29.4848   22.0739 C   0  0  0  0  0  0  0  0  0  0  0  0
  -17.4306  -28.6827   22.4371 C   0  0  0  0  0  0  0  0  0  0  0  0
  -26.7605  -17.4549   19.7982 C   0  0  0  0  0  0  0  0  0  0  0  0
  -17.5737  -29.5146   24.7008 C   0  0  0  0  0  0  0  0  0  0  0  0
  -23.5852  -29.2128   21.1775 C   0  0  0  0  0  0  0  0  0  0  0  0
  -24.8098  -27.5256   19.7074 C   0  0  0  0  0  0  0  0  0  0  0  0
  -19.4981  -12.7633   22.6888 C   0  0  0  0  0  0  0  0  0  0  0  0
  -24.9158  -16.0930   19.0222 C   0  0  0  0  0  0  0  0  0  0  0  0
  -20.3010  -13.8583   22.3160 C   0  0  0  0  0  0  0  0  0  0  0  0
  -26.1079  -16.2135   19.7506 C   0  0  0  0  0  0  0  0  0  0  0  0
  -28.1324  -23.4612   20.8000 C   0  0  0  0  0  0  0  0  0  0  0  0
  -29.5216  -25.0949   22.5843 C   0  0  0  0  0  0  0  0  0  0  0  0
  -21.3090  -30.4799   22.1754 C   0  0  0  0  0  0  0  0  0  0  0  0
  -26.2415  -18.5576   19.1202 C   0  0  0  0  0  0  0  0  0  0  0  0
  -19.1249  -30.3018   23.0242 C   0  0  0  0  0  0  0  0  0  0  0  0
  -16.9612  -28.6976   23.7505 C   0  0  0  0  0  0  0  0  0  0  0  0
  -18.6555  -30.3168   24.3377 C   0  0  0  0  0  0  0  0  0  0  0  0
  -24.7612  -28.5591   20.6619 C   0  0  0  0  0  0  0  0  0  0  0  0
  -26.1486  -27.2564   19.5606 C   0  0  0  0  0  0  0  0  0  0  0  0
  -23.7403  -26.8677   19.0152 C   0  0  0  0  0  0  0  0  0  0  0  0
  -23.8534  -14.2342   21.3717 C   0  0  0  0  0  0  0  0  0  0  0  0
  -26.5419  -12.5397   20.7215 C   0  0  0  0  0  0  0  0  0  0  0  0
  -29.7028  -12.5021   19.4354 C   0  0  0  0  0  0  0  0  0  0  0  0
  -30.8662  -27.1417   23.1262 C   0  0  0  0  0  0  0  0  0  0  0  0
  -20.0309  -11.6460   23.5504 C   0  0  0  0  0  0  0  0  0  0  0  0
  -24.2079  -14.7688   18.9335 C   0  0  0  0  0  0  0  0  0  0  0  0
  -26.7053  -15.0469   20.4926 C   0  0  0  0  0  0  0  0  0  0  0  0
  -21.5555  -11.5869   23.5973 C   0  0  0  0  0  0  0  0  0  0  0  0
  -30.3453  -29.6812   20.4856 C   0  0  0  0  0  0  0  0  0  0  0  0
  -22.1367  -12.9775   23.8325 C   0  0  0  0  0  0  0  0  0  0  0  0
  -28.8396  -29.6094   20.2382 C   0  0  0  0  0  0  0  0  0  0  0  0
  -26.5684  -21.7889   17.9092 C   0  0  0  0  0  0  0  0  0  0  0  0
  -30.7030  -29.2940   21.9173 C   0  0  0  0  0  0  0  0  0  0  0  0
  -27.7613  -22.5425   18.4972 C   0  0  0  0  0  0  0  0  0  0  0  0
  -28.6743  -27.8791   22.0712 C   0  0  0  0  0  0  0  0  0  0  0  0
  -26.3136  -21.8061   20.2951 C   0  0  0  0  0  0  0  0  0  0  0  0
  -21.7654  -13.9310   22.6904 C   0  0  1  0  0  0  0  0  0  0  0  0
  -24.5379  -13.8360   20.0947 C   0  0  1  0  0  0  0  0  0  0  0  0
  -28.2919  -28.2256   20.6245 C   0  0  1  0  0  0  0  0  0  0  0  0
  -26.0856  -20.9267   19.0664 C   0  0  2  0  0  0  0  0  0  1  0  0
  -31.6668  -10.9811   19.0797 C   0  0  0  0  0  0  0  0  0  0  0  0
  -27.2491  -12.7647   23.6811 C   0  0  0  0  0  0  0  0  0  0  0  0
  -29.5909  -12.0955   23.1008 C   0  0  0  0  0  0  0  0  0  0  0  0
  -27.7028  -10.5239   22.6676 C   0  0  0  0  0  0  0  0  0  0  0  0
  -30.5507  -25.4002   24.8290 C   0  0  0  0  0  0  0  0  0  0  0  0
  -29.5701  -12.8271   16.4967 C   0  0  0  0  0  0  0  0  0  0  0  0
  -27.9702  -12.5719   21.2094 C   0  0  1  0  0  0  0  0  0  0  0  0
  -30.3893  -11.5450   18.4776 C   0  0  2  0  0  0  0  0  0  0  0  0
  -28.1162  -12.0117   22.6525 C   0  0  0  0  0  0  0  0  0  0  0  0
  -25.9729  -28.9217   21.0914 N   0  0  0  0  0  0  0  0  0  0  0  0
  -26.7954  -28.1115   20.4036 N   0  0  0  0  0  0  0  0  0  0  0  0
  -27.4443  -22.6550   19.9177 N   0  0  3  0  0  0  0  0  0  0  0  0
  -25.9727  -13.7748   20.3805 N   0  0  0  0  0  0  0  0  0  0  0  0
  -30.1246  -28.0023   22.2910 N   0  0  0  0  0  0  0  0  0  0  0  0
  -26.8240  -26.3739   18.7941 N   0  0  0  0  0  0  0  0  0  0  0  0
  -22.4243  -27.2675   19.2846 N   0  0  0  0  0  0  0  0  0  0  0  0
  -22.5973  -13.6813   21.5328 N   0  0  0  0  0  0  0  0  0  0  0  0
  -28.7593  -11.8606   20.2096 N   0  0  0  0  0  0  0  0  0  0  0  0
  -30.2400  -25.9396   23.5069 N   0  0  0  0  0  0  0  0  0  0  0  0
  -30.7366  -12.2434   17.2077 N   0  3  0  0  0  0  0  0  0  0  0  0
  -23.9447  -25.9413   18.1946 O   0  0  0  0  0  0  0  0  0  0  0  0
  -24.4234  -14.9862   22.1536 O   0  0  0  0  0  0  0  0  0  0  0  0
  -25.9554  -11.4576   20.6389 O   0  0  0  0  0  0  0  0  0  0  0  0
  -29.9788  -13.6983   19.4936 O   0  0  0  0  0  0  0  0  0  0  0  0
  -31.9876  -27.4473   23.5501 O   0  0  0  0  0  0  0  0  0  0  0  0
  -20.1983  -31.0982   22.6619 O   0  0  0  0  0  0  0  0  0  0  0  0
  -26.8860  -19.7550   19.1738 O   0  0  0  0  0  0  0  0  0  1  0  0
  -15.9214  -27.9284   24.0988 F   0  0  0  0  0  0  0  0  0  0  0  0
  -19.2391  -31.1005   25.2547 F   0  0  0  0  0  0  0  0  0  0  0  0
  1  2  1  0  0  0  0
  1  5  2  0  0  0  0
  2  6  2  0  0  0  0
  3 12  2  0  0  0  0
  3 19  1  0  0  0  0
  4 13  1  0  0  0  0
  4 19  2  0  0  0  0
  5 21  1  0  0  0  0
  6 23  1  0  0  0  0
  7 14  2  0  0  0  0
  7 22  1  0  0  0  0
  8 10  2  0  0  0  0
  8 25  1  0  0  0  0
  9 11  1  0  0  0  0
  9 25  2  0  0  0  0
 10 26  1  0  0  0  0
 11 26  2  0  0  0  0
 12 27  1  0  0  0  0
 13 27  2  0  0  0  0
 14 28  1  0  0  0  0
 15 16  2  0  0  0  0
 15 29  1  0  0  0  0
 16 30  1  0  0  0  0
 17 24  1  0  0  0  0
 17 28  2  0  0  0  0
 18 30  2  0  0  0  0
 18 31  1  0  0  0  0
 19 32  1  0  0  0  0
 20 32  1  0  0  0  0
 20 33  2  0  0  0  0
 20 34  1  0  0  0  0
 21 23  2  0  0  0  0
 21 39  1  0  0  0  0
 22 24  2  0  0  0  0
 22 40  1  0  0  0  0
 23 51  1  0  0  0  0
 24 41  1  0  0  0  0
 25 66  1  0  0  0  0
 26 73  1  0  0  0  0
 27 80  1  0  0  0  0
 28 81  1  0  0  0  0
 29 31  2  0  0  0  0
 29 80  1  0  0  0  0
 30 82  1  0  0  0  0
 31 83  1  0  0  0  0
 32 64  2  0  0  0  0
 33 65  1  0  0  0  0
 33 69  1  0  0  0  0
 34 70  1  0  0  0  0
 34 75  2  0  0  0  0
 35 52  1  0  0  0  0
 35 71  1  0  0  0  0
 35 76  2  0  0  0  0
 36 61  1  0  0  0  0
 36 67  1  0  0  0  0
 36 77  2  0  0  0  0
 37 62  1  0  0  0  0
 37 72  1  0  0  0  0
 37 78  2  0  0  0  0
 38 68  1  0  0  0  0
 38 73  1  0  0  0  0
 38 79  2  0  0  0  0
 39 42  1  0  0  0  0
 40 52  1  0  0  0  0
 41 67  1  0  0  0  0
 42 44  1  0  0  0  0
 43 45  1  0  0  0  0
 43 47  1  0  0  0  0
 44 51  1  0  0  0  0
 45 53  1  0  0  0  0
 46 48  1  0  0  0  0
 46 54  1  0  0  0  0
 47 68  1  0  0  0  0
 48 66  1  0  0  0  0
 49 53  1  0  0  0  0
 49 68  1  0  0  0  0
 50 54  1  0  0  0  0
 50 66  1  0  0  0  0
 51 71  1  0  0  0  0
 52 67  1  0  0  0  0
 53 65  1  0  0  0  0
 54 81  1  0  0  0  0
 55 62  1  0  0  0  0
 56 63  1  0  0  0  0
 57 63  1  0  0  0  0
 58 63  1  0  0  0  0
 59 73  1  0  0  0  0
 60 74  1  0  0  0  0
 61 63  1  0  0  0  0
 61 72  1  0  0  0  0
 62 74  1  0  0  0  0
 64 65  1  0  0  0  0
M  CHG  1  74   1
M  ISO  4  38 100  54 101  73 100  81 101
M  END
> <Batch ID>
0013

> <Smiles>
CNC(C)C(=O)NC(C(=O)N1Cc2cc([101O:1][101CH:1]3CCN(c4ccc([100N:0](C)[100C:0](=O)N5CCCC(n6nc(-c7ccc(Oc8ccc(F)cc8F)cc7)c(C(N)=O)c6N)C5)cc4)C3)ccc2CC1C(=O)NC1CCCc2ccccc21)C(C)(C)C

> <Shape>
0.237

> <Color>
0.060

> <Negative vol penalty>
0.000

$$$$

  -OEChem-04042320483D

 84 92  0     1  0  0  0  0  0999 V2000
  -27.6245  -24.2003   17.2285 C   0  0  0  0  0  0  0  0  0  0  0  0
  -26.4194  -24.6025   17.7955 C   0  0  0  0  0  0  0  0  0  0  0  0
  -25.0679  -14.3208   18.6543 C   0  0  0  0  0  0  0  0  0  0  0  0
  -23.9004  -14.3992   20.7681 C   0  0  0  0  0  0  0  0  0  0  0  0
  -20.7846  -25.4373   23.1527 C   0  0  0  0  0  0  0  0  0  0  0  0
  -28.8296  -24.5377   17.8430 C   0  0  0  0  0  0  0  0  0  0  0  0
  -26.4188  -25.3414   18.9780 C   0  0  0  0  0  0  0  0  0  0  0  0
  -23.2071  -29.2537   18.8225 C   0  0  0  0  0  0  0  0  0  0  0  0
  -21.7669  -24.6687   22.5282 C   0  0  0  0  0  0  0  0  0  0  0  0
  -25.4726  -13.0139   18.9263 C   0  0  0  0  0  0  0  0  0  0  0  0
  -24.3050  -13.0923   21.0401 C   0  0  0  0  0  0  0  0  0  0  0  0
  -21.8536  -28.9740   19.0051 C   0  0  0  0  0  0  0  0  0  0  0  0
  -23.3907   -9.9655   20.1416 C   0  0  0  0  0  0  0  0  0  0  0  0
  -22.4338   -9.0836   20.6440 C   0  0  0  0  0  0  0  0  0  0  0  0
  -19.0696  -24.0874   22.1166 C   0  0  0  0  0  0  0  0  0  0  0  0
  -22.0237  -29.6819   21.3049 C   0  0  0  0  0  0  0  0  0  0  0  0
  -23.7693   -8.7672   22.6323 C   0  0  0  0  0  0  0  0  0  0  0  0
  -24.2818  -15.0134   19.5752 C   0  0  0  0  0  0  0  0  0  0  0  0
  -19.4360  -25.1467   22.9469 C   0  0  0  0  0  0  0  0  0  0  0  0
  -22.6905  -16.7701   18.6321 C   0  0  0  0  0  0  0  0  0  0  0  0
  -28.8441  -25.2894   19.0285 C   0  0  0  0  0  0  0  0  0  0  0  0
  -23.9830  -29.7402   19.8845 C   0  0  0  0  0  0  0  0  0  0  0  0
  -27.6252  -25.6881   19.6097 C   0  0  0  0  0  0  0  0  0  0  0  0
  -23.3863  -29.9695   21.1325 C   0  0  0  0  0  0  0  0  0  0  0  0
  -21.4006  -23.6095   21.6979 C   0  0  0  0  0  0  0  0  0  0  0  0
  -25.0911  -12.3997   20.1191 C   0  0  0  0  0  0  0  0  0  0  0  0
  -21.2623  -29.1853   20.2472 C   0  0  0  0  0  0  0  0  0  0  0  0
  -24.5370  -10.2481   20.8846 C   0  0  0  0  0  0  0  0  0  0  0  0
  -22.6231   -8.4845   21.8893 C   0  0  0  0  0  0  0  0  0  0  0  0
  -20.0519  -23.3188   21.4920 C   0  0  0  0  0  0  0  0  0  0  0  0
  -24.7263   -9.6490   22.1299 C   0  0  0  0  0  0  0  0  0  0  0  0
  -23.8640  -16.3636   19.2951 C   0  0  0  0  0  0  0  0  0  0  0  0
  -22.7602  -18.1417   18.6206 C   0  0  0  0  0  0  0  0  0  0  0  0
  -18.3998  -25.9577   23.6056 C   0  0  0  0  0  0  0  0  0  0  0  0
  -21.6321  -15.9785   18.0763 C   0  0  0  0  0  0  0  0  0  0  0  0
  -26.5267  -28.6846   21.4716 C   0  0  0  0  0  0  0  0  0  0  0  0
  -26.3691  -31.5998   22.8855 C   0  0  0  0  0  0  0  0  0  0  0  0
  -24.4728  -34.3033   23.7471 C   0  0  0  0  0  0  0  0  0  0  0  0
  -23.7828  -22.9884   21.1637 C   0  0  0  0  0  0  0  0  0  0  0  0
  -30.1700  -25.5896   19.6816 C   0  0  0  0  0  0  0  0  0  0  0  0
  -25.4356  -30.0623   19.6640 C   0  0  0  0  0  0  0  0  0  0  0  0
  -24.1707  -30.5096   22.2993 C   0  0  0  0  0  0  0  0  0  0  0  0
  -30.0955  -26.6952   20.7315 C   0  0  0  0  0  0  0  0  0  0  0  0
  -26.5747  -21.2561   19.7919 C   0  0  0  0  0  0  0  0  0  0  0  0
  -28.9043  -26.4722   21.6579 C   0  0  0  0  0  0  0  0  0  0  0  0
  -26.0218  -19.8623   19.4858 C   0  0  0  0  0  0  0  0  0  0  0  0
  -25.9808  -21.8324   21.0760 C   0  0  0  0  0  0  0  0  0  0  0  0
  -23.9606  -20.4446   20.8271 C   0  0  0  0  0  0  0  0  0  0  0  0
  -27.5843  -26.5119   20.8784 C   0  0  1  0  0  0  0  0  0  0  0  0
  -26.2489  -30.0678   20.9547 C   0  0  1  0  0  0  0  0  0  0  0  0
  -24.4807  -19.8499   19.5083 C   0  0  2  0  0  0  0  0  0  0  0  0
  -24.6138  -36.5118   24.9301 C   0  0  0  0  0  0  0  0  0  0  0  0
  -26.3667  -30.1570   25.5741 C   0  0  0  0  0  0  0  0  0  0  0  0
  -25.5613  -32.2781   26.6328 C   0  0  0  0  0  0  0  0  0  0  0  0
  -27.7816  -32.2177   25.4973 C   0  0  0  0  0  0  0  0  0  0  0  0
  -16.8795  -27.8970   23.5617 C   0  0  0  0  0  0  0  0  0  0  0  0
  -23.7194  -35.7921   21.3027 C   0  0  0  0  0  0  0  0  0  0  0  0
  -18.3696  -27.5418   21.6246 C   0  0  0  0  0  0  0  0  0  0  0  0
  -19.5349  -28.5087   21.7352 C   0  0  0  0  0  0  0  0  0  1  0  0
  -25.6740  -32.1618   24.1020 C   0  0  1  0  0  0  0  0  0  0  0  0
  -24.7153  -35.7939   23.5933 C   0  0  2  0  0  0  0  0  0  0  0  0
  -26.3313  -31.6917   25.4303 C   0  0  0  0  0  0  0  0  0  0  0  0
  -24.6236  -17.3938   19.6770 N   0  0  0  0  0  0  0  0  0  0  0  0
  -23.9259  -18.4611   19.2525 N   0  0  0  0  0  0  0  0  0  0  0  0
  -25.5890  -30.8031   22.0355 N   0  0  0  0  0  0  0  0  0  0  0  0
  -24.5178  -21.7921   21.0238 N   0  0  0  0  0  0  0  0  0  0  0  0
  -21.9374  -19.0938   18.1317 N   0  0  0  0  0  0  0  0  0  0  0  0
  -21.7187  -14.5831   18.1751 N   0  0  0  0  0  0  0  0  0  0  0  0
  -22.4008  -22.8310   21.0645 N   0  0  0  0  0  0  0  0  0  0  0  0
  -27.2128  -27.8791   20.5829 N   0  0  0  0  0  0  0  0  0  0  0  0
  -25.6511  -33.6100   23.9265 N   0  0  0  0  0  0  0  0  0  0  0  0
  -17.9221  -27.0934   22.9165 N   0  0  0  0  0  0  0  0  0  0  0  0
  -23.7140  -36.3884   22.6634 N   0  3  0  0  0  0  0  0  0  0  0  0
  -18.0238  -25.5678   24.7104 O   0  0  0  0  0  0  0  0  0  0  0  0
  -20.6469  -16.4928   17.4945 O   0  0  0  0  0  0  0  0  0  0  0  0
  -26.1480  -28.3718   22.5943 O   0  0  0  0  0  0  0  0  0  0  0  0
  -27.5585  -31.8640   22.6926 O   0  0  0  0  0  0  0  0  0  0  0  0
  -23.3501  -33.8043   23.7152 O   0  0  0  0  0  0  0  0  0  0  0  0
  -24.3398  -24.0765   21.3301 O   0  0  0  0  0  0  0  0  0  0  0  0
  -25.4856  -11.1244   20.3848 O   0  0  0  0  0  0  0  0  0  0  0  0
  -19.9414  -28.9125   20.4283 O   0  0  0  0  0  0  0  0  0  1  0  0
  -21.7034   -7.6389   22.3723 F   0  0  0  0  0  0  0  0  0  0  0  0
  -19.6878  -22.3035   20.6956 F   0  0  0  0  0  0  0  0  0  0  0  0
  -25.8249   -9.9176   22.8488 F   0  0  0  0  0  0  0  0  0  0  0  0
  1  2  1  0  0  0  0
  1  6  2  0  0  0  0
  2  7  2  0  0  0  0
  3 10  2  0  0  0  0
  3 18  1  0  0  0  0
  4 11  1  0  0  0  0
  4 18  2  0  0  0  0
  5  9  2  0  0  0  0
  5 19  1  0  0  0  0
  6 21  1  0  0  0  0
  7 23  1  0  0  0  0
  8 12  2  0  0  0  0
  8 22  1  0  0  0  0
  9 25  1  0  0  0  0
 10 26  1  0  0  0  0
 11 26  2  0  0  0  0
 12 27  1  0  0  0  0
 13 14  2  0  0  0  0
 13 28  1  0  0  0  0
 14 29  1  0  0  0  0
 15 19  2  0  0  0  0
 15 30  1  0  0  0  0
 16 24  1  0  0  0  0
 16 27  2  0  0  0  0
 17 29  2  0  0  0  0
 17 31  1  0  0  0  0
 18 32  1  0  0  0  0
 19 34  1  0  0  0  0
 20 32  1  0  0  0  0
 20 33  2  0  0  0  0
 20 35  1  0  0  0  0
 21 23  2  0  0  0  0
 21 40  1  0  0  0  0
 22 24  2  0  0  0  0
 22 41  1  0  0  0  0
 23 49  1  0  0  0  0
 24 42  1  0  0  0  0
 25 30  2  0  0  0  0
 25 69  1  0  0  0  0
 26 80  1  0  0  0  0
 27 81  1  0  0  0  0
 28 31  2  0  0  0  0
 28 80  1  0  0  0  0
 29 82  1  0  0  0  0
 30 83  1  0  0  0  0
 31 84  1  0  0  0  0
 32 63  2  0  0  0  0
 33 64  1  0  0  0  0
 33 67  1  0  0  0  0
 34 72  1  0  0  0  0
 34 74  2  0  0  0  0
 35 68  1  0  0  0  0
 35 75  2  0  0  0  0
 36 50  1  0  0  0  0
 36 70  1  0  0  0  0
 36 76  2  0  0  0  0
 37 60  1  0  0  0  0
 37 65  1  0  0  0  0
 37 77  2  0  0  0  0
 38 61  1  0  0  0  0
 38 71  1  0  0  0  0
 38 78  2  0  0  0  0
 39 66  1  0  0  0  0
 39 69  1  0  0  0  0
 39 79  2  0  0  0  0
 40 43  1  0  0  0  0
 41 50  1  0  0  0  0
 42 65  1  0  0  0  0
 43 45  1  0  0  0  0
 44 46  1  0  0  0  0
 44 47  1  0  0  0  0
 45 49  1  0  0  0  0
 46 51  1  0  0  0  0
 47 66  1  0  0  0  0
 48 51  1  0  0  0  0
 48 66  1  0  0  0  0
 49 70  1  0  0  0  0
 50 65  1  0  0  0  0
 51 64  1  0  0  0  0
 52 61  1  0  0  0  0
 53 62  1  0  0  0  0
 54 62  1  0  0  0  0
 55 62  1  0  0  0  0
 56 72  1  0  0  0  0
 57 73  1  0  0  0  0
 58 59  1  0  0  0  0
 58 72  1  0  0  0  0
 59 81  1  0  0  0  0
 60 62  1  0  0  0  0
 60 71  1  0  0  0  0
 61 73  1  0  0  0  0
 63 64  1  0  0  0  0
M  CHG  1  73   1
M  ISO  4  39 100  59 101  69 100  81 101
M  END
> <Batch ID>
0013

> <Smiles>
CNC(C)C(=O)NC(C(=O)N1Cc2cc([101O:1][101CH2:1]CN(C)C(=O)c3ccc([100NH:0][100C:0](=O)N4CCCC(n5nc(-c6ccc(Oc7ccc(F)cc7F)cc6)c(C(N)=O)c5N)C4)c(F)c3)ccc2CC1C(=O)NC1CCCc2ccccc21)C(C)(C)C

> <Shape>
0.284

> <Color>
0.083

> <Negative vol penalty>
0.000

$$$$

  -OEChem-04042320483D

 85 93  0     1  0  0  0  0  0999 V2000
  -28.1134  -25.4634   16.0923 C   0  0  0  0  0  0  0  0  0  0  0  0
  -26.9427  -25.5637   16.8371 C   0  0  0  0  0  0  0  0  0  0  0  0
  -27.6948  -14.4802   20.3193 C   0  0  0  0  0  0  0  0  0  0  0  0
  -25.5000  -14.7268   19.3401 C   0  0  0  0  0  0  0  0  0  0  0  0
  -20.3402  -23.2747   22.1223 C   0  0  0  0  0  0  0  0  0  0  0  0
  -29.3099  -25.9618   16.6060 C   0  0  0  0  0  0  0  0  0  0  0  0
  -26.9680  -26.1614   18.0966 C   0  0  0  0  0  0  0  0  0  0  0  0
  -23.1163  -29.3730   18.8007 C   0  0  0  0  0  0  0  0  0  0  0  0
  -21.7003  -22.9841   22.0167 C   0  0  0  0  0  0  0  0  0  0  0  0
  -27.4061  -13.1519   20.6321 C   0  0  0  0  0  0  0  0  0  0  0  0
  -25.2112  -13.3985   19.6529 C   0  0  0  0  0  0  0  0  0  0  0  0
  -21.8715  -28.8192   19.0965 C   0  0  0  0  0  0  0  0  0  0  0  0
  -25.9146  -10.3378   18.4048 C   0  0  0  0  0  0  0  0  0  0  0  0
  -25.3050   -9.5596   17.4207 C   0  0  0  0  0  0  0  0  0  0  0  0
  -22.2183  -29.3035   21.4341 C   0  0  0  0  0  0  0  0  0  0  0  0
  -21.2595  -21.6303   20.0648 C   0  0  0  0  0  0  0  0  0  0  0  0
  -23.4178   -9.1889   18.8831 C   0  0  0  0  0  0  0  0  0  0  0  0
  -26.7417  -15.2677   19.6733 C   0  0  0  0  0  0  0  0  0  0  0  0
  -19.4397  -22.7430   21.1993 C   0  0  0  0  0  0  0  0  0  0  0  0
  -27.6224  -17.1273   18.1654 C   0  0  0  0  0  0  0  0  0  0  0  0
  -29.3481  -26.5746   17.8684 C   0  0  0  0  0  0  0  0  0  0  0  0
  -23.9275  -29.8872   19.8224 C   0  0  0  0  0  0  0  0  0  0  0  0
  -28.1664  -26.6672   18.6283 C   0  0  0  0  0  0  0  0  0  0  0  0
  -23.4718  -29.8656   21.1483 C   0  0  0  0  0  0  0  0  0  0  0  0
  -22.1600  -22.1619   20.9879 C   0  0  0  0  0  0  0  0  0  0  0  0
  -26.1643  -12.6110   20.2989 C   0  0  0  0  0  0  0  0  0  0  0  0
  -21.4235  -28.7818   20.4137 C   0  0  0  0  0  0  0  0  0  0  0  0
  -25.2760  -10.5414   19.6281 C   0  0  0  0  0  0  0  0  0  0  0  0
  -24.0566   -8.9852   17.6598 C   0  0  0  0  0  0  0  0  0  0  0  0
  -19.8993  -21.9208   20.1705 C   0  0  0  0  0  0  0  0  0  0  0  0
  -24.0276   -9.9670   19.8672 C   0  0  0  0  0  0  0  0  0  0  0  0
  -27.0392  -16.6400   19.3504 C   0  0  0  0  0  0  0  0  0  0  0  0
  -27.6916  -18.4865   18.3505 C   0  0  0  0  0  0  0  0  0  0  0  0
  -18.0053  -23.0500   21.3163 C   0  0  0  0  0  0  0  0  0  0  0  0
  -28.0622  -16.4151   17.0014 C   0  0  0  0  0  0  0  0  0  0  0  0
  -26.8082  -29.1844   20.9676 C   0  0  0  0  0  0  0  0  0  0  0  0
  -26.3219  -31.8509   22.7497 C   0  0  0  0  0  0  0  0  0  0  0  0
  -24.1048  -34.0318   24.1550 C   0  0  0  0  0  0  0  0  0  0  0  0
  -24.5678  -22.3127   21.7131 C   0  0  0  0  0  0  0  0  0  0  0  0
  -30.6741  -27.0560   18.4019 C   0  0  0  0  0  0  0  0  0  0  0  0
  -25.2562  -30.5054   19.4836 C   0  0  0  0  0  0  0  0  0  0  0  0
  -24.2958  -30.4229   22.2792 C   0  0  0  0  0  0  0  0  0  0  0  0
  -30.5439  -28.0110   19.5856 C   0  0  0  0  0  0  0  0  0  0  0  0
  -28.0871  -21.7801   21.8046 C   0  0  0  0  0  0  0  0  0  0  0  0
  -29.5467  -27.4667   20.6035 C   0  0  0  0  0  0  0  0  0  0  0  0
  -28.2714  -20.4489   21.0724 C   0  0  0  0  0  0  0  0  0  0  0  0
  -26.8118  -21.7930   22.6456 C   0  0  0  0  0  0  0  0  0  0  0  0
  -25.7710  -20.1007   21.1889 C   0  0  0  0  0  0  0  0  0  0  0  0
  -28.1487  -27.3311   19.9881 C   0  0  1  0  0  0  0  0  0  0  0  0
  -26.2207  -30.5339   20.6653 C   0  0  1  0  0  0  0  0  0  0  0  0
  -27.0085  -20.0634   20.2774 C   0  0  2  0  0  0  0  0  0  0  0  0
  -24.0051  -36.0906   25.5863 C   0  0  0  0  0  0  0  0  0  0  0  0
  -26.9375  -30.1632   25.2160 C   0  0  0  0  0  0  0  0  0  0  0  0
  -25.9144  -31.9665   26.6195 C   0  0  0  0  0  0  0  0  0  0  0  0
  -27.9374  -32.4553   25.2443 C   0  0  0  0  0  0  0  0  0  0  0  0
  -16.0925  -24.4933   20.7399 C   0  0  0  0  0  0  0  0  0  0  0  0
  -22.7769  -35.5927   22.0199 C   0  0  0  0  0  0  0  0  0  0  0  0
  -18.8801  -26.2434   20.6739 C   0  0  0  0  0  0  0  0  0  0  0  0
  -18.3155  -25.0953   19.8483 C   0  0  0  0  0  0  0  0  0  0  0  0
  -19.7425  -27.1953   19.8540 C   0  0  0  0  0  0  0  0  0  1  0  0
  -25.7065  -32.1381   24.0979 C   0  0  1  0  0  0  0  0  0  0  0  0
  -24.0537  -35.5489   24.1661 C   0  0  2  0  0  0  0  0  0  0  0  0
  -26.6090  -31.6684   25.2736 C   0  0  0  0  0  0  0  0  0  0  0  0
  -26.7581  -17.6107   20.2238 N   0  0  0  0  0  0  0  0  0  0  0  0
  -27.1665  -18.7215   19.5871 N   0  0  0  0  0  0  0  0  0  0  0  0
  -25.5905  -31.0111   21.8979 N   0  0  0  0  0  0  0  0  0  0  0  0
  -25.6566  -21.4223   21.8253 N   0  0  0  0  0  0  0  0  0  0  0  0
  -28.1500  -19.4916   17.5746 N   0  0  0  0  0  0  0  0  0  0  0  0
  -27.9174  -15.0212   16.9766 N   0  0  0  0  0  0  0  0  0  0  0  0
  -23.5418  -21.8669   20.8807 N   0  0  0  0  0  0  0  0  0  0  0  0
  -27.5023  -28.6237   19.9124 N   0  0  0  0  0  0  0  0  0  0  0  0
  -25.4015  -33.5647   24.1118 N   0  0  0  0  0  0  0  0  0  0  0  0
  -17.5245  -24.1919   20.6372 N   0  0  0  0  0  0  0  0  0  0  0  0
  -22.8469  -36.0319   23.4373 N   0  3  0  0  0  0  0  0  0  0  0  0
  -17.3356  -22.2718   21.9946 O   0  0  0  0  0  0  0  0  0  0  0  0
  -28.5835  -16.9957   16.0193 O   0  0  0  0  0  0  0  0  0  0  0  0
  -26.6453  -28.6892   22.0766 O   0  0  0  0  0  0  0  0  0  0  0  0
  -27.4081  -32.3588   22.4601 O   0  0  0  0  0  0  0  0  0  0  0  0
  -23.0956  -33.3310   24.1857 O   0  0  0  0  0  0  0  0  0  0  0  0
  -24.5593  -23.4033   22.2899 O   0  0  0  0  0  0  0  0  0  0  0  0
  -25.8822  -11.3149   20.6037 O   0  0  0  0  0  0  0  0  0  0  0  0
  -20.2092  -28.2412   20.7053 O   0  0  0  0  0  0  0  0  0  1  0  0
  -23.4705   -8.2393   16.7142 F   0  0  0  0  0  0  0  0  0  0  0  0
  -19.0428  -21.4039   19.2779 F   0  0  0  0  0  0  0  0  0  0  0  0
  -23.4086  -10.1601   21.0399 F   0  0  0  0  0  0  0  0  0  0  0  0
  1  2  1  0  0  0  0
  1  6  2  0  0  0  0
  2  7  2  0  0  0  0
  3 10  2  0  0  0  0
  3 18  1  0  0  0  0
  4 11  1  0  0  0  0
  4 18  2  0  0  0  0
  5  9  2  0  0  0  0
  5 19  1  0  0  0  0
  6 21  1  0  0  0  0
  7 23  1  0  0  0  0
  8 12  2  0  0  0  0
  8 22  1  0  0  0  0
  9 25  1  0  0  0  0
 10 26  1  0  0  0  0
 11 26  2  0  0  0  0
 12 27  1  0  0  0  0
 13 14  2  0  0  0  0
 13 28  1  0  0  0  0
 14 29  1  0  0  0  0
 15 24  1  0  0  0  0
 15 27  2  0  0  0  0
 16 25  2  0  0  0  0
 16 30  1  0  0  0  0
 17 29  2  0  0  0  0
 17 31  1  0  0  0  0
 18 32  1  0  0  0  0
 19 30  2  0  0  0  0
 19 34  1  0  0  0  0
 20 32  1  0  0  0  0
 20 33  2  0  0  0  0
 20 35  1  0  0  0  0
 21 23  2  0  0  0  0
 21 40  1  0  0  0  0
 22 24  2  0  0  0  0
 22 41  1  0  0  0  0
 23 49  1  0  0  0  0
 24 42  1  0  0  0  0
 25 70  1  0  0  0  0
 26 81  1  0  0  0  0
 27 82  1  0  0  0  0
 28 31  2  0  0  0  0
 28 81  1  0  0  0  0
 29 83  1  0  0  0  0
 30 84  1  0  0  0  0
 31 85  1  0  0  0  0
 32 64  2  0  0  0  0
 33 65  1  0  0  0  0
 33 68  1  0  0  0  0
 34 73  1  0  0  0  0
 34 75  2  0  0  0  0
 35 69  1  0  0  0  0
 35 76  2  0  0  0  0
 36 50  1  0  0  0  0
 36 71  1  0  0  0  0
 36 77  2  0  0  0  0
 37 61  1  0  0  0  0
 37 66  1  0  0  0  0
 37 78  2  0  0  0  0
 38 62  1  0  0  0  0
 38 72  1  0  0  0  0
 38 79  2  0  0  0  0
 39 67  1  0  0  0  0
 39 70  1  0  0  0  0
 39 80  2  0  0  0  0
 40 43  1  0  0  0  0
 41 50  1  0  0  0  0
 42 66  1  0  0  0  0
 43 45  1  0  0  0  0
 44 46  1  0  0  0  0
 44 47  1  0  0  0  0
 45 49  1  0  0  0  0
 46 51  1  0  0  0  0
 47 67  1  0  0  0  0
 48 51  1  0  0  0  0
 48 67  1  0  0  0  0
 49 71  1  0  0  0  0
 50 66  1  0  0  0  0
 51 65  1  0  0  0  0
 52 62  1  0  0  0  0
 53 63  1  0  0  0  0
 54 63  1  0  0  0  0
 55 63  1  0  0  0  0
 56 73  1  0  0  0  0
 57 74  1  0  0  0  0
 58 59  1  0  0  0  0
 58 60  1  0  0  0  0
 59 73  1  0  0  0  0
 60 82  1  0  0  0  0
 61 63  1  0  0  0  0
 61 72  1  0  0  0  0
 62 74  1  0  0  0  0
 64 65  1  0  0  0  0
M  CHG  1  74   1
M  ISO  4  39 100  60 101  70 100  82 101
M  END
> <Batch ID>
0013

> <Smiles>
CNC(C)C(=O)NC(C(=O)N1Cc2cc([101O:1][101CH2:1]CCN(C)C(=O)c3ccc([100NH:0][100C:0](=O)N4CCCC(n5nc(-c6ccc(Oc7ccc(F)cc7F)cc6)c(C(N)=O)c5N)C4)cc3F)ccc2CC1C(=O)NC1CCCc2ccccc21)C(C)(C)C

> <Shape>
0.247

> <Color>
0.073

> <Negative vol penalty>
0.000

$$$$

  -OEChem-04042320483D

 84 93  0     1  0  0  0  0  0999 V2000
  -28.5221  -38.0779   24.1605 C   0  0  0  0  0  0  0  0  0  0  0  0
  -29.0371  -36.8779   23.6805 C   0  0  0  0  0  0  0  0  0  0  0  0
  -24.2029   -9.4402   21.7981 C   0  0  0  0  0  0  0  0  0  0  0  0
  -24.6146  -10.9386   23.6480 C   0  0  0  0  0  0  0  0  0  0  0  0
  -27.3874  -38.0737   24.9706 C   0  0  0  0  0  0  0  0  0  0  0  0
  -28.4183  -35.6730   24.0114 C   0  0  0  0  0  0  0  0  0  0  0  0
  -27.9302  -30.6937   20.4794 C   0  0  0  0  0  0  0  0  0  0  0  0
  -30.2912  -20.4463   19.8314 C   0  0  0  0  0  0  0  0  0  0  0  0
  -30.1229  -19.0801   19.6065 C   0  0  0  0  0  0  0  0  0  0  0  0
  -23.8449   -8.4327   22.6938 C   0  0  0  0  0  0  0  0  0  0  0  0
  -24.2566   -9.9311   24.5438 C   0  0  0  0  0  0  0  0  0  0  0  0
  -28.6613  -29.5079   20.4237 C   0  0  0  0  0  0  0  0  0  0  0  0
  -21.1488   -7.5973   24.5556 C   0  0  0  0  0  0  0  0  0  0  0  0
  -20.0016   -6.8561   24.2727 C   0  0  0  0  0  0  0  0  0  0  0  0
  -27.0265  -28.4404   21.8404 C   0  0  0  0  0  0  0  0  0  0  0  0
  -27.8973  -20.7096   20.0237 C   0  0  0  0  0  0  0  0  0  0  0  0
  -21.3252   -4.8363   24.1975 C   0  0  0  0  0  0  0  0  0  0  0  0
  -24.5878  -10.6932   22.2752 C   0  0  0  0  0  0  0  0  0  0  0  0
  -24.1094  -12.6919   20.7639 C   0  0  0  0  0  0  0  0  0  0  0  0
  -26.7487  -36.8688   25.3036 C   0  0  0  0  0  0  0  0  0  0  0  0
  -26.7454  -30.7650   21.2262 C   0  0  0  0  0  0  0  0  0  0  0  0
  -27.2747  -35.6526   24.8278 C   0  0  0  0  0  0  0  0  0  0  0  0
  -26.2809  -29.6276   21.9019 C   0  0  0  0  0  0  0  0  0  0  0  0
  -27.7290  -19.3434   19.7987 C   0  0  0  0  0  0  0  0  0  0  0  0
  -29.1784  -21.2611   20.0401 C   0  0  0  0  0  0  0  0  0  0  0  0
  -28.8418  -18.5286   19.5902 C   0  0  0  0  0  0  0  0  0  0  0  0
  -23.8717   -8.6781   24.0666 C   0  0  0  0  0  0  0  0  0  0  0  0
  -28.2110  -28.3819   21.1066 C   0  0  0  0  0  0  0  0  0  0  0  0
  -22.3843   -6.9581   24.6593 C   0  0  0  0  0  0  0  0  0  0  0  0
  -20.0897   -5.4756   24.0937 C   0  0  0  0  0  0  0  0  0  0  0  0
  -22.4724   -5.5776   24.4803 C   0  0  0  0  0  0  0  0  0  0  0  0
  -24.9583  -11.7342   21.3504 C   0  0  0  0  0  0  0  0  0  0  0  0
  -24.9388  -13.4456   19.9699 C   0  0  0  0  0  0  0  0  0  0  0  0
  -22.6973  -12.8832   20.9227 C   0  0  0  0  0  0  0  0  0  0  0  0
  -25.7736  -32.4581   23.7347 C   0  0  0  0  0  0  0  0  0  0  0  0
  -22.9314  -31.0253   23.1086 C   0  0  0  0  0  0  0  0  0  0  0  0
  -21.2557  -28.3980   21.7172 C   0  0  0  0  0  0  0  0  0  0  0  0
  -29.7037  -16.2045   19.1407 C   0  0  0  0  0  0  0  0  0  0  0  0
  -25.5524  -36.9108   26.2211 C   0  0  0  0  0  0  0  0  0  0  0  0
  -25.9543  -32.0440   21.2545 C   0  0  0  0  0  0  0  0  0  0  0  0
  -25.0045  -29.6462   22.7012 C   0  0  0  0  0  0  0  0  0  0  0  0
  -24.7367  -35.6204   26.2180 C   0  0  0  0  0  0  0  0  0  0  0  0
  -29.7457  -12.6893   18.5757 C   0  0  0  0  0  0  0  0  0  0  0  0
  -25.6551  -34.4081   26.3358 C   0  0  0  0  0  0  0  0  0  0  0  0
  -28.4341  -12.2063   19.1990 C   0  0  0  0  0  0  0  0  0  0  0  0
  -30.3290  -24.6665   20.8580 C   0  0  0  0  0  0  0  0  0  0  0  0
  -30.3735  -13.8238   19.3835 C   0  0  0  0  0  0  0  0  0  0  0  0
  -30.6431  -23.2804   20.2990 C   0  0  0  0  0  0  0  0  0  0  0  0
  -28.2458  -23.5448   20.4997 C   0  0  0  0  0  0  0  0  0  0  0  0
  -28.1722  -14.4777   20.2756 C   0  0  0  0  0  0  0  0  0  0  0  0
  -26.6170  -34.3269   25.1443 C   0  0  1  0  0  0  0  0  0  0  0  0
  -25.0319  -32.1493   22.4650 C   0  0  1  0  0  0  0  0  0  0  0  0
  -28.9047  -24.9231   20.3742 C   0  0  1  0  0  0  0  0  0  0  0  0
  -27.4693  -13.3792   19.4614 C   0  0  2  0  0  0  0  0  0  0  0  0
  -26.3452  -18.7794   19.7881 C   0  0  0  0  0  0  0  0  0  0  0  0
  -18.9401  -27.4851   21.3983 C   0  0  0  0  0  0  0  0  0  0  0  0
  -22.8947  -30.1087   26.0187 C   0  0  0  0  0  0  0  0  0  0  0  0
  -21.1152  -28.4585   25.4037 C   0  0  0  0  0  0  0  0  0  0  0  0
  -20.6892  -30.9030   25.1472 C   0  0  0  0  0  0  0  0  0  0  0  0
  -21.4795  -28.5422   18.7696 C   0  0  0  0  0  0  0  0  0  0  0  0
  -28.1893  -26.0045   21.1648 C   0  0  0  0  0  0  0  0  0  1  0  0
  -22.2617  -29.7438   23.5424 C   0  0  1  0  0  0  0  0  0  0  0  0
  -20.0440  -28.3460   20.8042 C   0  0  2  0  0  0  0  0  0  0  0  0
  -21.7653  -29.8034   25.0146 C   0  0  0  0  0  0  0  0  0  0  0  0
  -26.2295  -11.8652   20.9621 N   0  0  0  0  0  0  0  0  0  0  0  0
  -26.1855  -12.9140   20.1229 N   0  0  0  0  0  0  0  0  0  0  0  0
  -29.3450  -22.6115   20.2629 N   0  0  3  0  0  0  0  0  0  0  0  0
  -24.2697  -30.9220   22.7034 N   0  0  0  0  0  0  0  0  0  0  0  0
  -29.4027  -14.9010   19.5891 N   0  0  0  0  0  0  0  0  0  0  0  0
  -24.7161  -14.5045   19.1628 N   0  0  0  0  0  0  0  0  0  0  0  0
  -21.9980  -12.0196   21.7768 N   0  0  0  0  0  0  0  0  0  0  0  0
  -28.6919  -17.1382   19.3617 N   0  0  0  0  0  0  0  0  0  0  0  0
  -25.9345  -33.8088   23.9781 N   0  0  0  0  0  0  0  0  0  0  0  0
  -21.2088  -29.4830   22.5668 N   0  0  0  0  0  0  0  0  0  0  0  0
  -20.4190  -27.7799   19.4776 N   0  3  0  0  0  0  0  0  0  0  0  0
  -22.0714  -13.7826   20.3121 O   0  0  0  0  0  0  0  0  0  0  0  0
  -26.1692  -31.5389   24.4421 O   0  0  0  0  0  0  0  0  0  0  0  0
  -22.2887  -32.0781   23.1219 O   0  0  0  0  0  0  0  0  0  0  0  0
  -22.1522  -27.5580   21.6828 O   0  0  0  0  0  0  0  0  0  0  0  0
  -30.7687  -16.4667   18.5759 O   0  0  0  0  0  0  0  0  0  0  0  0
  -23.5222   -7.6953   24.9409 O   0  0  0  0  0  0  0  0  0  0  0  0
  -28.9231  -27.2234   21.0544 O   0  0  0  0  0  0  0  0  0  1  0  0
  -18.9877   -4.7636   23.8236 F   0  0  0  0  0  0  0  0  0  0  0  0
  -23.6563   -4.9577   24.5799 F   0  0  0  0  0  0  0  0  0  0  0  0
  1  2  1  0  0  0  0
  1  5  2  0  0  0  0
  2  6  2  0  0  0  0
  3 10  2  0  0  0  0
  3 18  1  0  0  0  0
  4 11  1  0  0  0  0
  4 18  2  0  0  0  0
  5 20  1  0  0  0  0
  6 22  1  0  0  0  0
  7 12  2  0  0  0  0
  7 21  1  0  0  0  0
  8  9  2  0  0  0  0
  8 25  1  0  0  0  0
  9 26  1  0  0  0  0
 10 27  1  0  0  0  0
 11 27  2  0  0  0  0
 12 28  1  0  0  0  0
 13 14  2  0  0  0  0
 13 29  1  0  0  0  0
 14 30  1  0  0  0  0
 15 23  1  0  0  0  0
 15 28  2  0  0  0  0
 16 24  1  0  0  0  0
 16 25  2  0  0  0  0
 17 30  2  0  0  0  0
 17 31  1  0  0  0  0
 18 32  1  0  0  0  0
 19 32  1  0  0  0  0
 19 33  2  0  0  0  0
 19 34  1  0  0  0  0
 20 22  2  0  0  0  0
 20 39  1  0  0  0  0
 21 23  2  0  0  0  0
 21 40  1  0  0  0  0
 22 51  1  0  0  0  0
 23 41  1  0  0  0  0
 24 26  2  0  0  0  0
 24 55  1  0  0  0  0
 25 67  1  0  0  0  0
 26 72  1  0  0  0  0
 27 81  1  0  0  0  0
 28 82  1  0  0  0  0
 29 31  2  0  0  0  0
 29 81  1  0  0  0  0
 30 83  1  0  0  0  0
 31 84  1  0  0  0  0
 32 65  2  0  0  0  0
 33 66  1  0  0  0  0
 33 70  1  0  0  0  0
 34 71  1  0  0  0  0
 34 76  2  0  0  0  0
 35 52  1  0  0  0  0
 35 73  1  0  0  0  0
 35 77  2  0  0  0  0
 36 62  1  0  0  0  0
 36 68  1  0  0  0  0
 36 78  2  0  0  0  0
 37 63  1  0  0  0  0
 37 74  1  0  0  0  0
 37 79  2  0  0  0  0
 38 69  1  0  0  0  0
 38 72  1  0  0  0  0
 38 80  2  0  0  0  0
 39 42  1  0  0  0  0
 40 52  1  0  0  0  0
 41 68  1  0  0  0  0
 42 44  1  0  0  0  0
 43 45  1  0  0  0  0
 43 47  1  0  0  0  0
 44 51  1  0  0  0  0
 45 54  1  0  0  0  0
 46 48  1  0  0  0  0
 46 53  1  0  0  0  0
 47 69  1  0  0  0  0
 48 67  1  0  0  0  0
 49 53  1  0  0  0  0
 49 67  1  0  0  0  0
 50 54  1  0  0  0  0
 50 69  1  0  0  0  0
 51 73  1  0  0  0  0
 52 68  1  0  0  0  0
 53 61  1  0  0  0  0
 54 66  1  0  0  0  0
 56 63  1  0  0  0  0
 57 64  1  0  0  0  0
 58 64  1  0  0  0  0
 59 64  1  0  0  0  0
 60 75  1  0  0  0  0
 61 82  1  0  0  0  0
 62 64  1  0  0  0  0
 62 74  1  0  0  0  0
 63 75  1  0  0  0  0
 65 66  1  0  0  0  0
M  CHG  1  75   1
M  ISO  4  38 100  61 101  72 100  82 101
M  END
> <Batch ID>
0013

> <Smiles>
CNC(C)C(=O)NC(C(=O)N1Cc2cc([101O:1][101CH2:1]C3CCN(c4ccc([100NH:0][100C:0](=O)N5CCCC(n6nc(-c7ccc(Oc8ccc(F)cc8F)cc7)c(C(N)=O)c6N)C5)c(C)c4)C3)ccc2CC1C(=O)NC1CCCc2ccccc21)C(C)(C)C

> <Shape>
0.358

> <Color>
0.117

> <Negative vol penalty>
0.000

$$$$

  -OEChem-04042320483D

 84 92  0     1  0  0  0  0  0999 V2000
  -17.9057  -31.1759   19.6303 C   0  0  0  0  0  0  0  0  0  0  0  0
  -19.1893  -30.8316   19.2189 C   0  0  0  0  0  0  0  0  0  0  0  0
  -24.3924   -9.4375   22.0334 C   0  0  0  0  0  0  0  0  0  0  0  0
  -23.2277  -10.4055   20.1510 C   0  0  0  0  0  0  0  0  0  0  0  0
  -17.6076  -31.2518   20.9902 C   0  0  0  0  0  0  0  0  0  0  0  0
  -20.1759  -30.5640   20.1672 C   0  0  0  0  0  0  0  0  0  0  0  0
  -24.7112  -26.4742   19.7078 C   0  0  0  0  0  0  0  0  0  0  0  0
  -29.5514  -23.0032   18.8032 C   0  0  0  0  0  0  0  0  0  0  0  0
  -23.4068   -8.4561   22.1385 C   0  0  0  0  0  0  0  0  0  0  0  0
  -22.2421   -9.4241   20.2561 C   0  0  0  0  0  0  0  0  0  0  0  0
  -26.0544  -26.5988   19.3557 C   0  0  0  0  0  0  0  0  0  0  0  0
  -29.2285  -21.6471   18.7553 C   0  0  0  0  0  0  0  0  0  0  0  0
  -22.5921   -5.5671   20.5820 C   0  0  0  0  0  0  0  0  0  0  0  0
  -23.0075   -4.2483   20.7657 C   0  0  0  0  0  0  0  0  0  0  0  0
  -26.6486  -26.7242   21.6903 C   0  0  0  0  0  0  0  0  0  0  0  0
  -30.2687  -22.7515   21.0965 C   0  0  0  0  0  0  0  0  0  0  0  0
  -21.8028   -4.1603   22.8581 C   0  0  0  0  0  0  0  0  0  0  0  0
  -24.3028  -10.4122   21.0396 C   0  0  0  0  0  0  0  0  0  0  0  0
  -26.5023  -11.3668   20.1684 C   0  0  0  0  0  0  0  0  0  0  0  0
  -18.5886  -30.9755   21.9557 C   0  0  0  0  0  0  0  0  0  0  0  0
  -24.3249  -26.4848   21.0558 C   0  0  0  0  0  0  0  0  0  0  0  0
  -19.8911  -30.6375   21.5413 C   0  0  0  0  0  0  0  0  0  0  0  0
  -25.3001  -26.5971   22.0570 C   0  0  0  0  0  0  0  0  0  0  0  0
  -30.0715  -23.5554   19.9738 C   0  0  0  0  0  0  0  0  0  0  0  0
  -22.3317   -8.4493   21.2499 C   0  0  0  0  0  0  0  0  0  0  0  0
  -27.0231  -26.7267   20.3468 C   0  0  0  0  0  0  0  0  0  0  0  0
  -21.7821   -6.1826   21.5363 C   0  0  0  0  0  0  0  0  0  0  0  0
  -29.4257  -20.8432   19.8780 C   0  0  0  0  0  0  0  0  0  0  0  0
  -22.6128   -3.5449   21.9037 C   0  0  0  0  0  0  0  0  0  0  0  0
  -29.9458  -21.3954   21.0486 C   0  0  0  0  0  0  0  0  0  0  0  0
  -21.3874   -5.4792   22.6743 C   0  0  0  0  0  0  0  0  0  0  0  0
  -25.3203  -11.4266   20.9308 C   0  0  0  0  0  0  0  0  0  0  0  0
  -27.1228  -12.5696   20.4020 C   0  0  0  0  0  0  0  0  0  0  0  0
  -26.9952  -10.3177   19.3245 C   0  0  0  0  0  0  0  0  0  0  0  0
  -22.4932  -28.3638   22.8497 C   0  0  0  0  0  0  0  0  0  0  0  0
  -26.8276  -18.1356   20.8736 C   0  0  0  0  0  0  0  0  0  0  0  0
  -23.0375  -26.0904   25.0987 C   0  0  0  0  0  0  0  0  0  0  0  0
  -25.0384  -23.5791   26.2547 C   0  0  0  0  0  0  0  0  0  0  0  0
  -18.2316  -31.1165   23.4142 C   0  0  0  0  0  0  0  0  0  0  0  0
  -22.8745  -26.3226   21.4200 C   0  0  0  0  0  0  0  0  0  0  0  0
  -24.9395  -26.5936   23.5193 C   0  0  0  0  0  0  0  0  0  0  0  0
  -19.2348  -30.4524   24.3538 C   0  0  0  0  0  0  0  0  0  0  0  0
  -26.1537  -16.1792   23.7991 C   0  0  0  0  0  0  0  0  0  0  0  0
  -20.6616  -30.8149   23.9539 C   0  0  0  0  0  0  0  0  0  0  0  0
  -25.9440  -14.7695   23.2477 C   0  0  0  0  0  0  0  0  0  0  0  0
  -25.6235  -17.2390   22.8384 C   0  0  0  0  0  0  0  0  0  0  0  0
  -25.9810  -15.7369   20.9051 C   0  0  0  0  0  0  0  0  0  0  0  0
  -20.9818  -30.3158   22.5398 C   0  0  1  0  0  0  0  0  0  0  0  0
  -22.5429  -26.8626   22.8077 C   0  0  1  0  0  0  0  0  0  0  0  0
  -26.5303  -14.6372   21.8310 C   0  0  2  0  0  0  0  0  0  0  0  0
  -25.2433  -21.9316   28.1365 C   0  0  0  0  0  0  0  0  0  0  0  0
  -31.1215  -27.0142   19.1039 C   0  0  0  0  0  0  0  0  0  0  0  0
  -23.9837  -28.3248   26.9486 C   0  0  0  0  0  0  0  0  0  0  0  0
  -25.0400  -26.5803   28.4009 C   0  0  0  0  0  0  0  0  0  0  0  0
  -22.5696  -26.5836   28.0544 C   0  0  0  0  0  0  0  0  0  0  0  0
  -24.8845  -21.2727   24.4065 C   0  0  0  0  0  0  0  0  0  0  0  0
  -27.3855  -17.8793   19.4963 C   0  0  0  0  0  0  0  0  0  0  0  0
  -28.0462  -19.1371   18.9604 C   0  0  0  0  0  0  0  0  0  0  0  0
  -28.7535  -26.2160   18.7974 C   0  0  0  0  0  0  0  0  0  1  0  0
  -24.0857  -25.8678   26.1620 C   0  0  1  0  0  0  0  0  0  0  0  0
  -24.7176  -22.1735   26.7301 C   0  0  2  0  0  0  0  0  0  0  0  0
  -30.2202  -25.8033   18.9012 C   0  0  2  0  0  0  0  0  0  0  0  0
  -23.9267  -26.8412   27.3639 C   0  0  0  0  0  0  0  0  0  0  0  0
  -25.1953  -12.5764   21.5988 N   0  0  0  0  0  0  0  0  0  0  0  0
  -26.3067  -13.2502   21.2570 N   0  0  0  0  0  0  0  0  0  0  0  0
  -23.5076  -26.4388   23.8245 N   0  0  0  0  0  0  0  0  0  0  0  0
  -26.1868  -17.0655   21.4984 N   0  0  0  0  0  0  0  0  0  0  0  0
  -28.2814  -13.1010   19.9574 N   0  0  0  0  0  0  0  0  0  0  0  0
  -26.2322   -9.1490   19.1966 N   0  0  0  0  0  0  0  0  0  0  0  0
  -30.3918  -24.8997   20.0212 N   0  0  0  0  0  0  0  0  0  0  0  0
  -21.2518  -28.8941   22.5546 N   0  0  0  0  0  0  0  0  0  0  0  0
  -24.0085  -24.4561   26.5221 N   0  0  0  0  0  0  0  0  0  0  0  0
  -25.3311  -21.1660   25.8193 N   0  3  0  0  0  0  0  0  0  0  0  0
  -28.0881  -10.4072   18.7153 O   0  0  0  0  0  0  0  0  0  0  0  0
  -23.5058  -28.9942   23.1306 O   0  0  0  0  0  0  0  0  0  0  0  0
  -26.9611  -19.2533   21.3788 O   0  0  0  0  0  0  0  0  0  0  0  0
  -21.8458  -25.9531   25.3862 O   0  0  0  0  0  0  0  0  0  0  0  0
  -26.0981  -23.8706   25.7048 O   0  0  0  0  0  0  0  0  0  0  0  0
  -21.3699   -7.4917   21.3521 O   0  0  0  0  0  0  0  0  0  0  0  0
  -28.3348  -26.8490   20.0058 O   0  0  0  0  0  0  0  0  0  1  0  0
  -29.1110  -19.5199   19.8296 O   0  0  0  0  0  0  0  0  0  0  0  0
  -23.0106   -2.2779   22.0792 F   0  0  0  0  0  0  0  0  0  0  0  0
  -30.1383  -20.6279   22.1303 F   0  0  0  0  0  0  0  0  0  0  0  0
  -20.6083   -6.0648   23.5941 F   0  0  0  0  0  0  0  0  0  0  0  0
  1  2  1  0  0  0  0
  1  5  2  0  0  0  0
  2  6  2  0  0  0  0
  3  9  2  0  0  0  0
  3 18  1  0  0  0  0
  4 10  1  0  0  0  0
  4 18  2  0  0  0  0
  5 20  1  0  0  0  0
  6 22  1  0  0  0  0
  7 11  2  0  0  0  0
  7 21  1  0  0  0  0
  8 12  2  0  0  0  0
  8 24  1  0  0  0  0
  9 25  1  0  0  0  0
 10 25  2  0  0  0  0
 11 26  1  0  0  0  0
 12 28  1  0  0  0  0
 13 14  2  0  0  0  0
 13 27  1  0  0  0  0
 14 29  1  0  0  0  0
 15 23  1  0  0  0  0
 15 26  2  0  0  0  0
 16 24  2  0  0  0  0
 16 30  1  0  0  0  0
 17 29  2  0  0  0  0
 17 31  1  0  0  0  0
 18 32  1  0  0  0  0
 19 32  1  0  0  0  0
 19 33  2  0  0  0  0
 19 34  1  0  0  0  0
 20 22  2  0  0  0  0
 20 39  1  0  0  0  0
 21 23  2  0  0  0  0
 21 40  1  0  0  0  0
 22 48  1  0  0  0  0
 23 41  1  0  0  0  0
 24 70  1  0  0  0  0
 25 79  1  0  0  0  0
 26 80  1  0  0  0  0
 27 31  2  0  0  0  0
 27 79  1  0  0  0  0
 28 30  2  0  0  0  0
 28 81  1  0  0  0  0
 29 82  1  0  0  0  0
 30 83  1  0  0  0  0
 31 84  1  0  0  0  0
 32 64  2  0  0  0  0
 33 65  1  0  0  0  0
 33 68  1  0  0  0  0
 34 69  1  0  0  0  0
 34 74  2  0  0  0  0
 35 49  1  0  0  0  0
 35 71  1  0  0  0  0
 35 75  2  0  0  0  0
 36 57  1  0  0  0  0
 36 67  1  0  0  0  0
 36 76  2  0  0  0  0
 37 60  1  0  0  0  0
 37 66  1  0  0  0  0
 37 77  2  0  0  0  0
 38 61  1  0  0  0  0
 38 72  1  0  0  0  0
 38 78  2  0  0  0  0
 39 42  1  0  0  0  0
 40 49  1  0  0  0  0
 41 66  1  0  0  0  0
 42 44  1  0  0  0  0
 43 45  1  0  0  0  0
 43 46  1  0  0  0  0
 44 48  1  0  0  0  0
 45 50  1  0  0  0  0
 46 67  1  0  0  0  0
 47 50  1  0  0  0  0
 47 67  1  0  0  0  0
 48 71  1  0  0  0  0
 49 66  1  0  0  0  0
 50 65  1  0  0  0  0
 51 61  1  0  0  0  0
 52 62  1  0  0  0  0
 53 63  1  0  0  0  0
 54 63  1  0  0  0  0
 55 63  1  0  0  0  0
 56 73  1  0  0  0  0
 57 58  1  0  0  0  0
 58 81  1  0  0  0  0
 59 62  1  0  0  0  0
 59 80  1  0  0  0  0
 60 63  1  0  0  0  0
 60 72  1  0  0  0  0
 61 73  1  0  0  0  0
 62 70  1  0  0  0  0
 64 65  1  0  0  0  0
M  CHG  1  73   1
M  ISO  4  36 100  57 100  59 101  80 101
M  END
> <Batch ID>
0013

> <Smiles>
CNC(C)C(=O)NC(C(=O)N1Cc2cc([101O:1][101CH2:1]C(C)Nc3ccc(OC[100CH2:0][100C:0](=O)N4CCCC(n5nc(-c6ccc(Oc7ccc(F)cc7F)cc6)c(C(N)=O)c5N)C4)c(F)c3)ccc2CC1C(=O)NC1CCCc2ccccc21)C(C)(C)C

> <Shape>
0.244

> <Color>
0.106

> <Negative vol penalty>
0.000

$$$$

  -OEChem-04042320483D

 82 90  0     1  0  0  0  0  0999 V2000
  -22.0280  -11.7174   19.4449 C   0  0  0  0  0  0  0  0  0  0  0  0
  -21.7784  -13.0456   19.7750 C   0  0  0  0  0  0  0  0  0  0  0  0
  -25.3912  -27.4868   19.4842 C   0  0  0  0  0  0  0  0  0  0  0  0
  -26.1390  -28.5580   21.5165 C   0  0  0  0  0  0  0  0  0  0  0  0
  -23.2874  -11.1669   19.6790 C   0  0  0  0  0  0  0  0  0  0  0  0
  -22.7879  -13.8238   20.3404 C   0  0  0  0  0  0  0  0  0  0  0  0
  -23.0873  -18.4299   18.2572 C   0  0  0  0  0  0  0  0  0  0  0  0
  -18.6974  -24.5608   22.3983 C   0  0  0  0  0  0  0  0  0  0  0  0
  -18.2681  -25.7875   22.9046 C   0  0  0  0  0  0  0  0  0  0  0  0
  -26.2972  -28.2505   18.7483 C   0  0  0  0  0  0  0  0  0  0  0  0
  -27.0451  -29.3217   20.7806 C   0  0  0  0  0  0  0  0  0  0  0  0
  -22.1437  -19.3737   18.6606 C   0  0  0  0  0  0  0  0  0  0  0  0
  -28.6662  -29.6590   16.3778 C   0  0  0  0  0  0  0  0  0  0  0  0
  -29.4225  -29.0074   15.4036 C   0  0  0  0  0  0  0  0  0  0  0  0
  -23.7670  -20.3491   20.1548 C   0  0  0  0  0  0  0  0  0  0  0  0
  -19.3070  -25.6318   20.3202 C   0  0  0  0  0  0  0  0  0  0  0  0
  -30.3675  -27.5690   17.0992 C   0  0  0  0  0  0  0  0  0  0  0  0
  -25.3120  -27.6406   20.8683 C   0  0  0  0  0  0  0  0  0  0  0  0
  -24.3242  -25.4487   21.7212 C   0  0  0  0  0  0  0  0  0  0  0  0
  -24.3157  -11.9415   20.2386 C   0  0  0  0  0  0  0  0  0  0  0  0
  -24.3766  -18.4318   18.8085 C   0  0  0  0  0  0  0  0  0  0  0  0
  -24.0619  -13.2828   20.5834 C   0  0  0  0  0  0  0  0  0  0  0  0
  -24.7259  -19.4058   19.7548 C   0  0  0  0  0  0  0  0  0  0  0  0
  -18.8776  -26.8586   20.8265 C   0  0  0  0  0  0  0  0  0  0  0  0
  -19.2170  -24.4829   21.1061 C   0  0  0  0  0  0  0  0  0  0  0  0
  -18.3581  -26.9364   22.1187 C   0  0  0  0  0  0  0  0  0  0  0  0
  -27.1242  -29.1679   19.3965 C   0  0  0  0  0  0  0  0  0  0  0  0
  -22.4826  -20.3317   19.6116 C   0  0  0  0  0  0  0  0  0  0  0  0
  -28.7606  -29.2656   17.7128 C   0  0  0  0  0  0  0  0  0  0  0  0
  -30.2731  -27.9624   15.7643 C   0  0  0  0  0  0  0  0  0  0  0  0
  -29.6112  -28.2206   18.0735 C   0  0  0  0  0  0  0  0  0  0  0  0
  -24.3759  -26.8525   21.6290 C   0  0  0  0  0  0  0  0  0  0  0  0
  -23.2647  -25.1984   22.5586 C   0  0  0  0  0  0  0  0  0  0  0  0
  -25.1594  -24.4595   21.1050 C   0  0  0  0  0  0  0  0  0  0  0  0
  -26.0837  -16.3751   20.5287 C   0  0  0  0  0  0  0  0  0  0  0  0
  -28.4411  -18.5581   20.0821 C   0  0  0  0  0  0  0  0  0  0  0  0
  -29.3076  -21.7921   19.4208 C   0  0  0  0  0  0  0  0  0  0  0  0
  -18.4609  -28.7772   23.8193 C   0  0  0  0  0  0  0  0  0  0  0  0
  -25.6467  -11.2891   20.5167 C   0  0  0  0  0  0  0  0  0  0  0  0
  -25.3911  -17.4236   18.3431 C   0  0  0  0  0  0  0  0  0  0  0  0
  -26.1029  -19.4635   20.3623 C   0  0  0  0  0  0  0  0  0  0  0  0
  -26.7727  -12.2876   20.7730 C   0  0  0  0  0  0  0  0  0  0  0  0
  -20.7821  -27.1087   26.1690 C   0  0  0  0  0  0  0  0  0  0  0  0
  -26.3162  -13.3682   21.7481 C   0  0  0  0  0  0  0  0  0  0  0  0
  -21.9971  -26.8116   25.2921 C   0  0  0  0  0  0  0  0  0  0  0  0
  -20.0236  -28.3416   25.6870 C   0  0  0  0  0  0  0  0  0  0  0  0
  -20.8285  -27.9667   23.3734 C   0  0  0  0  0  0  0  0  0  0  0  0
  -25.1386  -14.1662   21.1755 C   0  0  1  0  0  0  0  0  0  0  0  0
  -26.5158  -17.1995   19.3492 C   0  0  1  0  0  0  0  0  0  0  0  0
  -21.5864  -26.7056   23.8142 C   0  0  1  0  0  0  0  0  0  0  0  0
  -18.9872  -28.0733   19.9630 C   0  0  0  0  0  0  0  0  0  0  0  0
  -31.3109  -23.2801   19.1564 C   0  0  0  0  0  0  0  0  0  0  0  0
  -28.8148  -18.5889   23.1102 C   0  0  0  0  0  0  0  0  0  0  0  0
  -30.1066  -20.7188   22.8592 C   0  0  0  0  0  0  0  0  0  0  0  0
  -30.9424  -18.6226   21.7961 C   0  0  0  0  0  0  0  0  0  0  0  0
  -16.6676  -28.7618   22.1414 C   0  0  0  0  0  0  0  0  0  0  0  0
  -28.5981  -22.4451   16.6227 C   0  0  0  0  0  0  0  0  0  0  0  0
  -20.1940  -23.0931   19.2786 C   0  0  0  0  0  0  0  0  0  0  0  0
  -20.5779  -21.6406   19.0508 C   0  0  0  0  0  0  0  0  0  1  0  0
  -28.9178  -19.7836   20.8237 C   0  0  1  0  0  0  0  0  0  0  0  0
  -30.3058  -22.3880   18.4446 C   0  0  2  0  0  0  0  0  0  0  0  0
  -29.6688  -19.4264   22.1375 C   0  0  0  0  0  0  0  0  0  0  0  0
  -23.4248  -27.4520   22.3501 N   0  0  0  0  0  0  0  0  0  0  0  0
  -22.7654  -26.4199   22.9033 N   0  0  0  0  0  0  0  0  0  0  0  0
  -27.0578  -18.4523   19.8795 N   0  0  0  0  0  0  0  0  0  0  0  0
  -19.6920  -28.2531   24.2640 N   0  0  0  0  0  0  0  0  0  0  0  0
  -22.7208  -24.0548   23.0262 N   0  0  0  0  0  0  0  0  0  0  0  0
  -24.7902  -23.9627   19.8476 N   0  0  0  0  0  0  0  0  0  0  0  0
  -19.6438  -23.2648   20.6037 N   0  0  0  0  0  0  0  0  0  0  0  0
  -25.6054  -15.1225   20.1946 N   0  0  0  0  0  0  0  0  0  0  0  0
  -29.7116  -20.5535   19.8721 N   0  0  0  0  0  0  0  0  0  0  0  0
  -17.9103  -28.1957   22.6613 N   0  0  0  0  0  0  0  0  0  0  0  0
  -29.6005  -23.2028   17.4152 N   0  3  0  0  0  0  0  0  0  0  0  0
  -26.1933  -24.0169   21.6606 O   0  0  0  0  0  0  0  0  0  0  0  0
  -26.1788  -16.8403   21.6584 O   0  0  0  0  0  0  0  0  0  0  0  0
  -29.2663  -17.7290   19.6906 O   0  0  0  0  0  0  0  0  0  0  0  0
  -28.2746  -22.3695   19.7527 O   0  0  0  0  0  0  0  0  0  0  0  0
  -17.9159  -29.7349   24.3818 O   0  0  0  0  0  0  0  0  0  0  0  0
  -28.0086  -29.9130   18.6787 O   0  0  0  0  0  0  0  0  0  0  0  0
  -21.5633  -21.2536   20.0076 O   0  0  0  0  0  0  0  0  0  1  0  0
  -30.9981  -27.3358   14.8284 F   0  0  0  0  0  0  0  0  0  0  0  0
  -29.7053  -27.8375   19.3541 F   0  0  0  0  0  0  0  0  0  0  0  0
  1  2  1  0  0  0  0
  1  5  2  0  0  0  0
  2  6  2  0  0  0  0
  3 10  2  0  0  0  0
  3 18  1  0  0  0  0
  4 11  1  0  0  0  0
  4 18  2  0  0  0  0
  5 20  1  0  0  0  0
  6 22  1  0  0  0  0
  7 12  2  0  0  0  0
  7 21  1  0  0  0  0
  8  9  2  0  0  0  0
  8 25  1  0  0  0  0
  9 26  1  0  0  0  0
 10 27  1  0  0  0  0
 11 27  2  0  0  0  0
 12 28  1  0  0  0  0
 13 14  2  0  0  0  0
 13 29  1  0  0  0  0
 14 30  1  0  0  0  0
 15 23  1  0  0  0  0
 15 28  2  0  0  0  0
 16 24  1  0  0  0  0
 16 25  2  0  0  0  0
 17 30  2  0  0  0  0
 17 31  1  0  0  0  0
 18 32  1  0  0  0  0
 19 32  1  0  0  0  0
 19 33  2  0  0  0  0
 19 34  1  0  0  0  0
 20 22  2  0  0  0  0
 20 39  1  0  0  0  0
 21 23  2  0  0  0  0
 21 40  1  0  0  0  0
 22 48  1  0  0  0  0
 23 41  1  0  0  0  0
 24 26  2  0  0  0  0
 24 51  1  0  0  0  0
 25 69  1  0  0  0  0
 26 72  1  0  0  0  0
 27 79  1  0  0  0  0
 28 80  1  0  0  0  0
 29 31  2  0  0  0  0
 29 79  1  0  0  0  0
 30 81  1  0  0  0  0
 31 82  1  0  0  0  0
 32 63  2  0  0  0  0
 33 64  1  0  0  0  0
 33 67  1  0  0  0  0
 34 68  1  0  0  0  0
 34 74  2  0  0  0  0
 35 49  1  0  0  0  0
 35 70  1  0  0  0  0
 35 75  2  0  0  0  0
 36 60  1  0  0  0  0
 36 65  1  0  0  0  0
 36 76  2  0  0  0  0
 37 61  1  0  0  0  0
 37 71  1  0  0  0  0
 37 77  2  0  0  0  0
 38 66  1  0  0  0  0
 38 72  1  0  0  0  0
 38 78  2  0  0  0  0
 39 42  1  0  0  0  0
 40 49  1  0  0  0  0
 41 65  1  0  0  0  0
 42 44  1  0  0  0  0
 43 45  1  0  0  0  0
 43 46  1  0  0  0  0
 44 48  1  0  0  0  0
 45 50  1  0  0  0  0
 46 66  1  0  0  0  0
 47 50  1  0  0  0  0
 47 66  1  0  0  0  0
 48 70  1  0  0  0  0
 49 65  1  0  0  0  0
 50 64  1  0  0  0  0
 52 61  1  0  0  0  0
 53 62  1  0  0  0  0
 54 62  1  0  0  0  0
 55 62  1  0  0  0  0
 56 72  1  0  0  0  0
 57 73  1  0  0  0  0
 58 59  1  0  0  0  0
 58 69  1  0  0  0  0
 59 80  1  0  0  0  0
 60 62  1  0  0  0  0
 60 71  1  0  0  0  0
 61 73  1  0  0  0  0
 63 64  1  0  0  0  0
M  CHG  1  73   1
M  ISO  4  38 100  59 101  72 100  80 101
M  END
> <Batch ID>
0013

> <Smiles>
CNC(C)C(=O)NC(C(=O)N1Cc2cc([101O:1][101CH2:1]CNc3ccc([100N:0](C)[100C:0](=O)N4CCCC(n5nc(-c6ccc(Oc7ccc(F)cc7F)cc6)c(C(N)=O)c5N)C4)c(C)c3)ccc2CC1C(=O)NC1CCCc2ccccc21)C(C)(C)C

> <Shape>
0.208

> <Color>
0.067

> <Negative vol penalty>
0.000

$$$$

  -OEChem-04042320483D

 82 90  0     1  0  0  0  0  0999 V2000
  -24.6122  -34.0114   28.0639 C   0  0  0  0  0  0  0  0  0  0  0  0
  -25.4919  -33.1965   27.3586 C   0  0  0  0  0  0  0  0  0  0  0  0
  -24.2567   -9.1059   21.4812 C   0  0  0  0  0  0  0  0  0  0  0  0
  -24.7683  -10.3935   23.4604 C   0  0  0  0  0  0  0  0  0  0  0  0
  -23.2367  -33.8149   27.9481 C   0  0  0  0  0  0  0  0  0  0  0  0
  -24.9966  -32.1839   26.5377 C   0  0  0  0  0  0  0  0  0  0  0  0
  -27.3828  -30.2386   21.2437 C   0  0  0  0  0  0  0  0  0  0  0  0
  -30.2159  -18.8786   20.0778 C   0  0  0  0  0  0  0  0  0  0  0  0
  -23.9218   -8.0121   22.2793 C   0  0  0  0  0  0  0  0  0  0  0  0
  -24.4333   -9.2997   24.2585 C   0  0  0  0  0  0  0  0  0  0  0  0
  -28.1972  -29.1529   20.9246 C   0  0  0  0  0  0  0  0  0  0  0  0
  -30.3965  -20.2134   20.4399 C   0  0  0  0  0  0  0  0  0  0  0  0
  -21.2944   -7.0103   24.1570 C   0  0  0  0  0  0  0  0  0  0  0  0
  -20.1253   -6.3155   23.8470 C   0  0  0  0  0  0  0  0  0  0  0  0
  -26.2451  -27.8791   20.3032 C   0  0  0  0  0  0  0  0  0  0  0  0
  -28.0127  -20.4509   20.7535 C   0  0  0  0  0  0  0  0  0  0  0  0
  -21.4143   -4.3017   23.4998 C   0  0  0  0  0  0  0  0  0  0  0  0
  -24.6800  -10.2966   22.0717 C   0  0  0  0  0  0  0  0  0  0  0  0
  -24.1683  -12.4504   20.8040 C   0  0  0  0  0  0  0  0  0  0  0  0
  -22.7241  -32.8057   27.1179 C   0  0  0  0  0  0  0  0  0  0  0  0
  -25.9903  -30.1489   21.1050 C   0  0  0  0  0  0  0  0  0  0  0  0
  -23.6130  -31.9729   26.4117 C   0  0  0  0  0  0  0  0  0  0  0  0
  -25.4155  -28.9660   20.6188 C   0  0  0  0  0  0  0  0  0  0  0  0
  -28.9336  -18.3299   20.0534 C   0  0  0  0  0  0  0  0  0  0  0  0
  -24.0101   -8.1090   23.6679 C   0  0  0  0  0  0  0  0  0  0  0  0
  -27.6281  -27.9719   20.4571 C   0  0  0  0  0  0  0  0  0  0  0  0
  -29.2950  -20.9996   20.7778 C   0  0  0  0  0  0  0  0  0  0  0  0
  -22.5234   -6.3509   24.1383 C   0  0  0  0  0  0  0  0  0  0  0  0
  -20.1853   -4.9612   23.5185 C   0  0  0  0  0  0  0  0  0  0  0  0
  -27.8321  -19.1160   20.3913 C   0  0  0  0  0  0  0  0  0  0  0  0
  -22.5834   -4.9966   23.8098 C   0  0  0  0  0  0  0  0  0  0  0  0
  -25.0267  -11.4267   21.2478 C   0  0  0  0  0  0  0  0  0  0  0  0
  -24.9747  -13.2760   20.0594 C   0  0  0  0  0  0  0  0  0  0  0  0
  -22.7672  -12.6382   21.0434 C   0  0  0  0  0  0  0  0  0  0  0  0
  -23.5206  -30.3437   23.0966 C   0  0  0  0  0  0  0  0  0  0  0  0
  -21.7957  -30.1726   20.3547 C   0  0  0  0  0  0  0  0  0  0  0  0
  -21.6387  -29.2028   17.0865 C   0  0  0  0  0  0  0  0  0  0  0  0
  -29.7411  -16.0584   19.3221 C   0  0  0  0  0  0  0  0  0  0  0  0
  -21.2309  -32.6009   27.0614 C   0  0  0  0  0  0  0  0  0  0  0  0
  -25.1278  -31.3381   21.4281 C   0  0  0  0  0  0  0  0  0  0  0  0
  -23.9275  -28.8254   20.4328 C   0  0  0  0  0  0  0  0  0  0  0  0
  -20.7774  -31.7478   25.8795 C   0  0  0  0  0  0  0  0  0  0  0  0
  -29.7068  -12.6236   18.3850 C   0  0  0  0  0  0  0  0  0  0  0  0
  -21.6503  -30.5032   25.7534 C   0  0  0  0  0  0  0  0  0  0  0  0
  -28.4155  -12.0902   19.0097 C   0  0  0  0  0  0  0  0  0  0  0  0
  -30.3849  -13.6587   19.2809 C   0  0  0  0  0  0  0  0  0  0  0  0
  -28.2331  -14.2360   20.3323 C   0  0  0  0  0  0  0  0  0  0  0  0
  -23.1136  -30.8799   25.4919 C   0  0  1  0  0  0  0  0  0  0  0  0
  -23.6820  -30.9615   21.7365 C   0  0  1  0  0  0  0  0  0  0  0  0
  -27.4802  -13.2383   19.4372 C   0  0  2  0  0  0  0  0  0  0  0  0
  -20.0851  -29.1624   15.1161 C   0  0  0  0  0  0  0  0  0  0  0  0
  -20.2767  -27.8395   21.6034 C   0  0  0  0  0  0  0  0  0  0  0  0
  -19.4426  -27.2500   19.3175 C   0  0  0  0  0  0  0  0  0  0  0  0
  -18.8500  -29.4513   20.3303 C   0  0  0  0  0  0  0  0  0  0  0  0
  -23.4541  -30.8939   15.4731 C   0  0  0  0  0  0  0  0  0  0  0  0
  -28.9589  -24.6088   20.6297 C   0  0  0  0  0  0  0  0  0  0  0  0
  -27.8587  -25.6093   20.3123 C   0  0  0  0  0  0  0  0  0  1  0  0
  -28.4097  -23.2060   20.8371 C   0  0  0  0  0  0  0  0  0  0  0  0
  -21.2136  -29.0531   19.5260 C   0  0  1  0  0  0  0  0  0  0  0  0
  -21.1770  -29.9352   15.8395 C   0  0  2  0  0  0  0  0  0  0  0  0
  -19.9736  -28.4001   20.1995 C   0  0  0  0  0  0  0  0  0  0  0  0
  -26.2823  -11.5853   20.8207 N   0  0  0  0  0  0  0  0  0  0  0  0
  -26.2187  -12.7183   20.1006 N   0  0  0  0  0  0  0  0  0  0  0  0
  -23.1260  -30.0139   20.7684 N   0  0  0  0  0  0  0  0  0  0  0  0
  -29.4398  -14.7176   19.6419 N   0  0  0  0  0  0  0  0  0  0  0  0
  -24.7340  -14.4175   19.3799 N   0  0  0  0  0  0  0  0  0  0  0  0
  -22.0916  -11.6955   21.8304 N   0  0  0  0  0  0  0  0  0  0  0  0
  -28.7535  -16.9736   19.6850 N   0  0  0  0  0  0  0  0  0  0  0  0
  -23.2983  -31.2591   24.1075 N   0  0  0  0  0  0  0  0  0  0  0  0
  -20.9493  -29.6168   18.2066 N   0  0  0  0  0  0  0  0  0  0  0  0
  -22.3176  -30.1280   14.8999 N   0  3  0  0  0  0  0  0  0  0  0  0
  -22.1296  -13.6042   20.5598 O   0  0  0  0  0  0  0  0  0  0  0  0
  -23.5911  -29.1265   23.2195 O   0  0  0  0  0  0  0  0  0  0  0  0
  -21.0982  -31.1551   20.6191 O   0  0  0  0  0  0  0  0  0  0  0  0
  -22.5198  -28.3462   17.0680 O   0  0  0  0  0  0  0  0  0  0  0  0
  -30.7851  -16.3685   18.7427 O   0  0  0  0  0  0  0  0  0  0  0  0
  -23.6831   -7.0420   24.4471 O   0  0  0  0  0  0  0  0  0  0  0  0
  -28.4206  -26.9104   20.1455 O   0  0  0  0  0  0  0  0  0  1  0  0
  -29.4727  -22.3109   21.1348 O   0  0  0  0  0  0  0  0  0  0  0  0
  -19.0624   -4.2937   23.2223 F   0  0  0  0  0  0  0  0  0  0  0  0
  -26.5952  -18.5992   20.3709 F   0  0  0  0  0  0  0  0  0  0  0  0
  -23.7611   -4.3575   23.7913 F   0  0  0  0  0  0  0  0  0  0  0  0
  1  2  1  0  0  0  0
  1  5  2  0  0  0  0
  2  6  2  0  0  0  0
  3  9  2  0  0  0  0
  3 18  1  0  0  0  0
  4 10  1  0  0  0  0
  4 18  2  0  0  0  0
  5 20  1  0  0  0  0
  6 22  1  0  0  0  0
  7 11  2  0  0  0  0
  7 21  1  0  0  0  0
  8 12  2  0  0  0  0
  8 24  1  0  0  0  0
  9 25  1  0  0  0  0
 10 25  2  0  0  0  0
 11 26  1  0  0  0  0
 12 27  1  0  0  0  0
 13 14  2  0  0  0  0
 13 28  1  0  0  0  0
 14 29  1  0  0  0  0
 15 23  1  0  0  0  0
 15 26  2  0  0  0  0
 16 27  2  0  0  0  0
 16 30  1  0  0  0  0
 17 29  2  0  0  0  0
 17 31  1  0  0  0  0
 18 32  1  0  0  0  0
 19 32  1  0  0  0  0
 19 33  2  0  0  0  0
 19 34  1  0  0  0  0
 20 22  2  0  0  0  0
 20 39  1  0  0  0  0
 21 23  2  0  0  0  0
 21 40  1  0  0  0  0
 22 48  1  0  0  0  0
 23 41  1  0  0  0  0
 24 30  2  0  0  0  0
 24 68  1  0  0  0  0
 25 77  1  0  0  0  0
 26 78  1  0  0  0  0
 27 79  1  0  0  0  0
 28 31  2  0  0  0  0
 28 77  1  0  0  0  0
 29 80  1  0  0  0  0
 30 81  1  0  0  0  0
 31 82  1  0  0  0  0
 32 62  2  0  0  0  0
 33 63  1  0  0  0  0
 33 66  1  0  0  0  0
 34 67  1  0  0  0  0
 34 72  2  0  0  0  0
 35 49  1  0  0  0  0
 35 69  1  0  0  0  0
 35 73  2  0  0  0  0
 36 59  1  0  0  0  0
 36 64  1  0  0  0  0
 36 74  2  0  0  0  0
 37 60  1  0  0  0  0
 37 70  1  0  0  0  0
 37 75  2  0  0  0  0
 38 65  1  0  0  0  0
 38 68  1  0  0  0  0
 38 76  2  0  0  0  0
 39 42  1  0  0  0  0
 40 49  1  0  0  0  0
 41 64  1  0  0  0  0
 42 44  1  0  0  0  0
 43 45  1  0  0  0  0
 43 46  1  0  0  0  0
 44 48  1  0  0  0  0
 45 50  1  0  0  0  0
 46 65  1  0  0  0  0
 47 50  1  0  0  0  0
 47 65  1  0  0  0  0
 48 69  1  0  0  0  0
 49 64  1  0  0  0  0
 50 63  1  0  0  0  0
 51 60  1  0  0  0  0
 52 61  1  0  0  0  0
 53 61  1  0  0  0  0
 54 61  1  0  0  0  0
 55 71  1  0  0  0  0
 56 57  1  0  0  0  0
 56 58  1  0  0  0  0
 57 78  1  0  0  0  0
 58 79  1  0  0  0  0
 59 61  1  0  0  0  0
 59 70  1  0  0  0  0
 60 71  1  0  0  0  0
 62 63  1  0  0  0  0
M  CHG  1  71   1
M  ISO  4  38 100  57 101  68 100  78 101
M  END
> <Batch ID>
0013

> <Smiles>
CNC(C)C(=O)NC(C(=O)N1Cc2cc([101O:1][101CH2:1]CCOc3ccc([100NH:0][100C:0](=O)N4CCCC(n5nc(-c6ccc(Oc7ccc(F)cc7F)cc6)c(C(N)=O)c5N)C4)c(F)c3)ccc2CC1C(=O)NC1CCCc2ccccc21)C(C)(C)C

> <Shape>
0.303

> <Color>
0.145

> <Negative vol penalty>
0.000

$$$$

  -OEChem-04042320483D

 87 96  0     1  0  0  0  0  0999 V2000
  -27.2069  -23.6686   17.4719 C   0  0  0  0  0  0  0  0  0  0  0  0
  -26.0435  -24.1413   18.0708 C   0  0  0  0  0  0  0  0  0  0  0  0
  -25.7172  -14.2532   19.8234 C   0  0  0  0  0  0  0  0  0  0  0  0
  -23.5214  -14.2120   20.8303 C   0  0  0  0  0  0  0  0  0  0  0  0
  -28.4503  -24.0032   18.0065 C   0  0  0  0  0  0  0  0  0  0  0  0
  -26.1230  -24.9480   19.2054 C   0  0  0  0  0  0  0  0  0  0  0  0
  -23.0213  -28.9441   18.9690 C   0  0  0  0  0  0  0  0  0  0  0  0
  -18.2505  -23.5618   18.9009 C   0  0  0  0  0  0  0  0  0  0  0  0
  -18.9250  -24.9869   20.7316 C   0  0  0  0  0  0  0  0  0  0  0  0
  -19.4578  -22.8696   18.9950 C   0  0  0  0  0  0  0  0  0  0  0  0
  -20.1322  -24.2946   20.8257 C   0  0  0  0  0  0  0  0  0  0  0  0
  -25.9608  -12.9659   20.3019 C   0  0  0  0  0  0  0  0  0  0  0  0
  -23.7650  -12.9247   21.3088 C   0  0  0  0  0  0  0  0  0  0  0  0
  -21.6710  -28.7185   19.2328 C   0  0  0  0  0  0  0  0  0  0  0  0
  -23.7555   -9.7728   20.0899 C   0  0  0  0  0  0  0  0  0  0  0  0
  -22.7435   -8.8248   19.9395 C   0  0  0  0  0  0  0  0  0  0  0  0
  -21.9755  -29.5544   21.4750 C   0  0  0  0  0  0  0  0  0  0  0  0
  -22.6555   -8.5382   22.3368 C   0  0  0  0  0  0  0  0  0  0  0  0
  -24.4975  -14.8763   20.0876 C   0  0  0  0  0  0  0  0  0  0  0  0
  -23.6718  -16.5599   18.3580 C   0  0  0  0  0  0  0  0  0  0  0  0
  -28.5453  -24.8223   19.1426 C   0  0  0  0  0  0  0  0  0  0  0  0
  -23.8627  -29.4672   19.9614 C   0  0  0  0  0  0  0  0  0  0  0  0
  -27.3688  -25.2927   19.7565 C   0  0  0  0  0  0  0  0  0  0  0  0
  -23.3356  -29.7881   21.2205 C   0  0  0  0  0  0  0  0  0  0  0  0
  -17.9841  -24.6205   19.7692 C   0  0  0  0  0  0  0  0  0  0  0  0
  -20.3986  -23.2359   19.9574 C   0  0  0  0  0  0  0  0  0  0  0  0
  -24.9847  -12.3016   21.0446 C   0  0  0  0  0  0  0  0  0  0  0  0
  -21.1485  -29.0210   20.4868 C   0  0  0  0  0  0  0  0  0  0  0  0
  -24.2177  -10.1034   21.3638 C   0  0  0  0  0  0  0  0  0  0  0  0
  -22.1934   -8.2075   21.0629 C   0  0  0  0  0  0  0  0  0  0  0  0
  -23.6676   -9.4862   22.4872 C   0  0  0  0  0  0  0  0  0  0  0  0
  -24.2454  -16.2064   19.5940 C   0  0  0  0  0  0  0  0  0  0  0  0
  -23.6505  -17.9332   18.3696 C   0  0  0  0  0  0  0  0  0  0  0  0
  -23.2003  -15.7219   17.2944 C   0  0  0  0  0  0  0  0  0  0  0  0
  -26.4508  -28.4266   21.4854 C   0  0  0  0  0  0  0  0  0  0  0  0
  -17.0075  -27.6252   20.3404 C   0  0  0  0  0  0  0  0  0  0  0  0
  -26.4476  -31.4233   22.7273 C   0  0  0  0  0  0  0  0  0  0  0  0
  -24.6749  -34.2312   23.5146 C   0  0  0  0  0  0  0  0  0  0  0  0
  -22.6659  -22.7676   20.9506 C   0  0  0  0  0  0  0  0  0  0  0  0
  -29.9102  -25.1181   19.7122 C   0  0  0  0  0  0  0  0  0  0  0  0
  -25.3111  -29.7297   19.6526 C   0  0  0  0  0  0  0  0  0  0  0  0
  -24.1923  -30.3706   22.3138 C   0  0  0  0  0  0  0  0  0  0  0  0
  -29.9197  -26.2853   20.6960 C   0  0  0  0  0  0  0  0  0  0  0  0
  -14.7016  -26.0748   18.8852 C   0  0  0  0  0  0  0  0  0  0  0  0
  -25.8269  -21.2347   21.5295 C   0  0  0  0  0  0  0  0  0  0  0  0
  -28.7701  -26.1549   21.6901 C   0  0  0  0  0  0  0  0  0  0  0  0
  -14.8286  -26.4303   20.3591 C   0  0  0  0  0  0  0  0  0  0  0  0
  -25.6501  -19.8189   20.9759 C   0  0  0  0  0  0  0  0  0  0  0  0
  -15.7532  -24.9861   18.6926 C   0  0  0  0  0  0  0  0  0  0  0  0
  -24.5532  -21.7440   22.2017 C   0  0  0  0  0  0  0  0  0  0  0  0
  -23.1641  -20.2475   20.8233 C   0  0  0  0  0  0  0  0  0  0  0  0
  -27.4147  -26.1905   20.9739 C   0  0  1  0  0  0  0  0  0  0  0  0
  -26.1875  -29.7852   20.9001 C   0  0  1  0  0  0  0  0  0  0  0  0
  -16.3314  -26.3204   20.6265 C   0  0  1  0  0  0  0  0  0  0  0  0
  -24.4004  -19.7163   20.0796 C   0  0  2  0  0  0  0  0  0  0  0  0
  -24.9379  -36.4999   24.5545 C   0  0  0  0  0  0  0  0  0  0  0  0
  -26.5374  -30.1415   25.4948 C   0  0  0  0  0  0  0  0  0  0  0  0
  -25.8469  -32.3454   26.4614 C   0  0  0  0  0  0  0  0  0  0  0  0
  -28.0053  -32.1484   25.2264 C   0  0  0  0  0  0  0  0  0  0  0  0
  -23.8440  -35.5972   21.0240 C   0  0  0  0  0  0  0  0  0  0  0  0
  -17.7207  -29.7671   21.3826 C   0  0  0  0  0  0  0  0  0  0  0  0
  -19.2039  -29.6628   21.6961 C   0  0  0  0  0  0  0  0  0  1  0  0
  -25.8302  -32.0774   23.9397 C   0  0  1  0  0  0  0  0  0  0  0  0
  -24.9522  -35.7019   23.2600 C   0  0  2  0  0  0  0  0  0  0  0  0
  -26.5390  -31.6654   25.2608 C   0  0  0  0  0  0  0  0  0  0  0  0
  -24.5656  -17.2693   20.3368 N   0  0  0  0  0  0  0  0  0  0  0  0
  -24.1919  -18.3043   19.5652 N   0  0  0  0  0  0  0  0  0  0  0  0
  -16.7892  -25.3076   19.6750 N   0  0  3  0  0  0  0  0  0  0  0  0
  -25.6036  -30.6031   21.9651 N   0  0  0  0  0  0  0  0  0  0  0  0
  -23.4122  -21.6199   21.2921 N   0  0  0  0  0  0  0  0  0  0  0  0
  -23.2217  -18.8474   17.4737 N   0  0  0  0  0  0  0  0  0  0  0  0
  -23.2968  -14.3319   17.4462 N   0  0  0  0  0  0  0  0  0  0  0  0
  -21.6250  -22.5326   20.0529 N   0  0  0  0  0  0  0  0  0  0  0  0
  -27.0684  -27.5490   20.6148 N   0  0  0  0  0  0  0  0  0  0  0  0
  -17.1036  -28.4616   21.4364 N   0  0  0  0  0  0  0  0  0  0  0  0
  -25.8403  -33.5127   23.6787 N   0  0  0  0  0  0  0  0  0  0  0  0
  -23.9233  -36.2722   22.3450 N   0  3  0  0  0  0  0  0  0  0  0  0
  -22.7231  -16.1920   16.2339 O   0  0  0  0  0  0  0  0  0  0  0  0
  -26.1195  -28.1924   22.6417 O   0  0  0  0  0  0  0  0  0  0  0  0
  -17.4152  -27.8590   19.2087 O   0  0  0  0  0  0  0  0  0  0  0  0
  -27.6330  -31.6380   22.4621 O   0  0  0  0  0  0  0  0  0  0  0  0
  -23.5381  -33.7670   23.5666 O   0  0  0  0  0  0  0  0  0  0  0  0
  -22.9477  -23.8819   21.3988 O   0  0  0  0  0  0  0  0  0  0  0  0
  -25.2220  -11.0453   21.5116 O   0  0  0  0  0  0  0  0  0  0  0  0
  -19.8310  -28.8011   20.7471 O   0  0  0  0  0  0  0  0  0  1  0  0
  -21.2205   -7.2983   20.9184 F   0  0  0  0  0  0  0  0  0  0  0  0
  -24.1067   -9.8006   23.7137 F   0  0  0  0  0  0  0  0  0  0  0  0
  1  2  1  0  0  0  0
  1  5  2  0  0  0  0
  2  6  2  0  0  0  0
  3 12  2  0  0  0  0
  3 19  1  0  0  0  0
  4 13  1  0  0  0  0
  4 19  2  0  0  0  0
  5 21  1  0  0  0  0
  6 23  1  0  0  0  0
  7 14  2  0  0  0  0
  7 22  1  0  0  0  0
  8 10  2  0  0  0  0
  8 25  1  0  0  0  0
  9 11  1  0  0  0  0
  9 25  2  0  0  0  0
 10 26  1  0  0  0  0
 11 26  2  0  0  0  0
 12 27  1  0  0  0  0
 13 27  2  0  0  0  0
 14 28  1  0  0  0  0
 15 16  2  0  0  0  0
 15 29  1  0  0  0  0
 16 30  1  0  0  0  0
 17 24  1  0  0  0  0
 17 28  2  0  0  0  0
 18 30  2  0  0  0  0
 18 31  1  0  0  0  0
 19 32  1  0  0  0  0
 20 32  1  0  0  0  0
 20 33  2  0  0  0  0
 20 34  1  0  0  0  0
 21 23  2  0  0  0  0
 21 40  1  0  0  0  0
 22 24  2  0  0  0  0
 22 41  1  0  0  0  0
 23 52  1  0  0  0  0
 24 42  1  0  0  0  0
 25 68  1  0  0  0  0
 26 73  1  0  0  0  0
 27 84  1  0  0  0  0
 28 85  1  0  0  0  0
 29 31  2  0  0  0  0
 29 84  1  0  0  0  0
 30 86  1  0  0  0  0
 31 87  1  0  0  0  0
 32 66  2  0  0  0  0
 33 67  1  0  0  0  0
 33 71  1  0  0  0  0
 34 72  1  0  0  0  0
 34 78  2  0  0  0  0
 35 53  1  0  0  0  0
 35 74  1  0  0  0  0
 35 79  2  0  0  0  0
 36 54  1  0  0  0  0
 36 75  1  0  0  0  0
 36 80  2  0  0  0  0
 37 63  1  0  0  0  0
 37 69  1  0  0  0  0
 37 81  2  0  0  0  0
 38 64  1  0  0  0  0
 38 76  1  0  0  0  0
 38 82  2  0  0  0  0
 39 70  1  0  0  0  0
 39 73  1  0  0  0  0
 39 83  2  0  0  0  0
 40 43  1  0  0  0  0
 41 53  1  0  0  0  0
 42 69  1  0  0  0  0
 43 46  1  0  0  0  0
 44 47  1  0  0  0  0
 44 49  1  0  0  0  0
 45 48  1  0  0  0  0
 45 50  1  0  0  0  0
 46 52  1  0  0  0  0
 47 54  1  0  0  0  0
 48 55  1  0  0  0  0
 49 68  1  0  0  0  0
 50 70  1  0  0  0  0
 51 55  1  0  0  0  0
 51 70  1  0  0  0  0
 52 74  1  0  0  0  0
 53 69  1  0  0  0  0
 54 68  1  0  0  0  0
 55 67  1  0  0  0  0
 56 64  1  0  0  0  0
 57 65  1  0  0  0  0
 58 65  1  0  0  0  0
 59 65  1  0  0  0  0
 60 77  1  0  0  0  0
 61 62  1  0  0  0  0
 61 75  1  0  0  0  0
 62 85  1  0  0  0  0
 63 65  1  0  0  0  0
 63 76  1  0  0  0  0
 64 77  1  0  0  0  0
 66 67  1  0  0  0  0
M  CHG  1  77   1
M  ISO  4  39 100  62 101  73 100  85 101
M  END
> <Batch ID>
0013

> <Smiles>
CNC(C)C(=O)NC(C(=O)N1Cc2cc([101O:1][101CH2:1]CNC(=O)C3CCCN3c3ccc([100NH:0][100C:0](=O)N4CCCC(n5nc(-c6ccc(Oc7ccc(F)cc7F)cc6)c(C(N)=O)c5N)C4)cc3)ccc2CC1C(=O)NC1CCCc2ccccc21)C(C)(C)C

> <Shape>
0.252

> <Color>
0.077

> <Negative vol penalty>
0.000

$$$$

  -OEChem-04042320483D

 83 91  0     1  0  0  0  0  0999 V2000
  -21.6078  -30.3532   19.1415 C   0  0  0  0  0  0  0  0  0  0  0  0
  -21.5423  -28.9716   19.2907 C   0  0  0  0  0  0  0  0  0  0  0  0
  -30.8231  -19.9639   18.9859 C   0  0  0  0  0  0  0  0  0  0  0  0
  -29.0521  -20.4209   20.5644 C   0  0  0  0  0  0  0  0  0  0  0  0
  -22.6779  -31.0620   19.6860 C   0  0  0  0  0  0  0  0  0  0  0  0
  -22.5475  -28.2978   19.9835 C   0  0  0  0  0  0  0  0  0  0  0  0
  -21.8943  -23.3412   23.5207 C   0  0  0  0  0  0  0  0  0  0  0  0
  -23.4979  -12.7956   21.4532 C   0  0  0  0  0  0  0  0  0  0  0  0
  -30.6333  -21.2197   18.4093 C   0  0  0  0  0  0  0  0  0  0  0  0
  -28.8623  -21.6768   19.9878 C   0  0  0  0  0  0  0  0  0  0  0  0
  -22.1026  -21.9837   23.2809 C   0  0  0  0  0  0  0  0  0  0  0  0
  -28.1537  -25.1460   19.1627 C   0  0  0  0  0  0  0  0  0  0  0  0
  -28.0060  -26.2376   20.0183 C   0  0  0  0  0  0  0  0  0  0  0  0
  -22.1508  -12.7889   21.8148 C   0  0  0  0  0  0  0  0  0  0  0  0
  -24.3068  -22.1578   24.2455 C   0  0  0  0  0  0  0  0  0  0  0  0
  -23.9028  -14.6113   22.9948 C   0  0  0  0  0  0  0  0  0  0  0  0
  -30.1950  -25.8070   20.9455 C   0  0  0  0  0  0  0  0  0  0  0  0
  -30.0325  -19.5645   20.0635 C   0  0  0  0  0  0  0  0  0  0  0  0
  -31.0910  -17.9411   21.7224 C   0  0  0  0  0  0  0  0  0  0  0  0
  -23.6918  -30.3977   20.3941 C   0  0  0  0  0  0  0  0  0  0  0  0
  -22.8964  -24.1209   24.1158 C   0  0  0  0  0  0  0  0  0  0  0  0
  -23.6329  -28.9982   20.5368 C   0  0  0  0  0  0  0  0  0  0  0  0
  -24.1077  -23.5244   24.4941 C   0  0  0  0  0  0  0  0  0  0  0  0
  -24.3740  -13.7068   22.0432 C   0  0  0  0  0  0  0  0  0  0  0  0
  -22.5557  -14.6046   23.3564 C   0  0  0  0  0  0  0  0  0  0  0  0
  -29.6529  -22.0761   18.9102 C   0  0  0  0  0  0  0  0  0  0  0  0
  -23.3101  -21.3924   23.6407 C   0  0  0  0  0  0  0  0  0  0  0  0
  -29.3220  -24.3848   19.1985 C   0  0  0  0  0  0  0  0  0  0  0  0
  -29.0267  -26.5682   20.9097 C   0  0  0  0  0  0  0  0  0  0  0  0
  -30.3427  -24.7153   20.0899 C   0  0  0  0  0  0  0  0  0  0  0  0
  -21.6796  -13.6935   22.7664 C   0  0  0  0  0  0  0  0  0  0  0  0
  -30.2278  -18.2672   20.6592 C   0  0  0  0  0  0  0  0  0  0  0  0
  -30.9098  -16.5928   21.9107 C   0  0  0  0  0  0  0  0  0  0  0  0
  -31.9774  -18.7820   22.4727 C   0  0  0  0  0  0  0  0  0  0  0  0
  -24.6036  -26.6470   23.2168 C   0  0  0  0  0  0  0  0  0  0  0  0
  -25.6736  -26.5242   26.2766 C   0  0  0  0  0  0  0  0  0  0  0  0
  -26.2126  -24.6614   29.0848 C   0  0  0  0  0  0  0  0  0  0  0  0
  -26.3722  -12.8823   20.7495 C   0  0  0  0  0  0  0  0  0  0  0  0
  -24.8531  -31.2010   20.9240 C   0  0  0  0  0  0  0  0  0  0  0  0
  -22.6460  -25.5781   24.3920 C   0  0  0  0  0  0  0  0  0  0  0  0
  -25.2079  -24.3131   25.1543 C   0  0  0  0  0  0  0  0  0  0  0  0
  -25.6836  -30.4564   21.9661 C   0  0  0  0  0  0  0  0  0  0  0  0
  -29.7098  -12.6085   19.5400 C   0  0  0  0  0  0  0  0  0  0  0  0
  -25.9837  -29.0370   21.4948 C   0  0  0  0  0  0  0  0  0  0  0  0
  -30.3018  -13.9971   19.7921 C   0  0  0  0  0  0  0  0  0  0  0  0
  -28.2417  -12.6848   19.1244 C   0  0  0  0  0  0  0  0  0  0  0  0
  -27.9711  -14.8422   20.2826 C   0  0  0  0  0  0  0  0  0  0  0  0
  -24.6912  -28.2345   21.3029 C   0  0  1  0  0  0  0  0  0  0  0  0
  -23.9305  -26.3885   24.5351 C   0  0  1  0  0  0  0  0  0  0  0  0
  -29.4300  -14.8129   20.7668 C   0  0  2  0  0  0  0  0  0  0  0  0
  -27.1354  -24.8284   31.4124 C   0  0  0  0  0  0  0  0  0  0  0  0
  -28.5097  -26.4969   25.1516 C   0  0  0  0  0  0  0  0  0  0  0  0
  -29.3154  -25.7168   27.3900 C   0  0  0  0  0  0  0  0  0  0  0  0
  -28.2027  -27.9387   27.1718 C   0  0  0  0  0  0  0  0  0  0  0  0
  -22.1313  -15.1666   25.7364 C   0  0  0  0  0  0  0  0  0  0  0  0
  -23.6110  -23.9330   30.2931 C   0  0  0  0  0  0  0  0  0  0  0  0
  -22.8025  -17.8231   23.8669 C   0  0  0  0  0  0  0  0  0  0  0  0
  -21.6429  -16.8371   23.9422 C   0  0  0  0  0  0  0  0  0  0  0  0
  -22.3701  -19.2179   23.4305 C   0  0  0  0  0  0  0  0  0  1  0  0
  -26.8151  -25.8337   26.9831 C   0  0  1  0  0  0  0  0  0  0  0  0
  -25.8901  -24.9236   30.5448 C   0  0  2  0  0  0  0  0  0  0  0  0
  -28.1909  -26.4818   26.6599 C   0  0  0  0  0  0  0  0  0  0  0  0
  -29.5487  -17.2109   20.2039 N   0  0  0  0  0  0  0  0  0  0  0  0
  -29.9853  -16.2080   20.9847 N   0  0  0  0  0  0  0  0  0  0  0  0
  -24.9175  -25.7358   25.3977 N   0  0  0  0  0  0  0  0  0  0  0  0
  -27.4769  -13.4689   20.0965 N   0  0  0  0  0  0  0  0  0  0  0  0
  -31.4527  -15.7105   22.7763 N   0  0  0  0  0  0  0  0  0  0  0  0
  -32.0407  -20.1440   22.1483 N   0  0  0  0  0  0  0  0  0  0  0  0
  -25.7425  -13.7128   21.6760 N   0  0  0  0  0  0  0  0  0  0  0  0
  -24.1737  -27.7964   22.5815 N   0  0  0  0  0  0  0  0  0  0  0  0
  -26.4747  -25.8301   28.4017 N   0  0  0  0  0  0  0  0  0  0  0  0
  -22.1119  -15.5249   24.3169 N   0  0  3  0  0  0  0  0  0  0  0  0
  -24.8944  -23.9322   31.0415 N   0  3  0  0  0  0  0  0  0  0  0  0
  -32.7042  -18.3356   23.3924 O   0  0  0  0  0  0  0  0  0  0  0  0
  -25.4512  -25.8626   22.8071 O   0  0  0  0  0  0  0  0  0  0  0  0
  -25.4562  -27.7174   26.5019 O   0  0  0  0  0  0  0  0  0  0  0  0
  -26.2339  -23.5323   28.5997 O   0  0  0  0  0  0  0  0  0  0  0  0
  -26.0281  -11.7192   20.5246 O   0  0  0  0  0  0  0  0  0  0  0  0
  -29.4675  -23.3017   18.3479 O   0  0  0  0  0  0  0  0  0  0  0  0
  -23.5163  -20.0677   23.4072 O   0  0  0  0  0  0  0  0  0  1  0  0
  -28.8853  -27.6175   21.7302 F   0  0  0  0  0  0  0  0  0  0  0  0
  -31.4679  -23.9885   20.1281 F   0  0  0  0  0  0  0  0  0  0  0  0
  -20.0046  -13.6500   23.1862 Cl  0  0  0  0  0  0  0  0  0  0  0  0
  1  2  1  0  0  0  0
  1  5  2  0  0  0  0
  2  6  2  0  0  0  0
  3  9  2  0  0  0  0
  3 18  1  0  0  0  0
  4 10  1  0  0  0  0
  4 18  2  0  0  0  0
  5 20  1  0  0  0  0
  6 22  1  0  0  0  0
  7 11  2  0  0  0  0
  7 21  1  0  0  0  0
  8 14  2  0  0  0  0
  8 24  1  0  0  0  0
  9 26  1  0  0  0  0
 10 26  2  0  0  0  0
 11 27  1  0  0  0  0
 12 13  2  0  0  0  0
 12 28  1  0  0  0  0
 13 29  1  0  0  0  0
 14 31  1  0  0  0  0
 15 23  1  0  0  0  0
 15 27  2  0  0  0  0
 16 24  2  0  0  0  0
 16 25  1  0  0  0  0
 17 29  2  0  0  0  0
 17 30  1  0  0  0  0
 18 32  1  0  0  0  0
 19 32  1  0  0  0  0
 19 33  2  0  0  0  0
 19 34  1  0  0  0  0
 20 22  2  0  0  0  0
 20 39  1  0  0  0  0
 21 23  2  0  0  0  0
 21 40  1  0  0  0  0
 22 48  1  0  0  0  0
 23 41  1  0  0  0  0
 24 69  1  0  0  0  0
 25 31  2  0  0  0  0
 25 72  1  0  0  0  0
 26 79  1  0  0  0  0
 27 80  1  0  0  0  0
 28 30  2  0  0  0  0
 28 79  1  0  0  0  0
 29 81  1  0  0  0  0
 30 82  1  0  0  0  0
 31 83  1  0  0  0  0
 32 63  2  0  0  0  0
 33 64  1  0  0  0  0
 33 67  1  0  0  0  0
 34 68  1  0  0  0  0
 34 74  2  0  0  0  0
 35 49  1  0  0  0  0
 35 70  1  0  0  0  0
 35 75  2  0  0  0  0
 36 60  1  0  0  0  0
 36 65  1  0  0  0  0
 36 76  2  0  0  0  0
 37 61  1  0  0  0  0
 37 71  1  0  0  0  0
 37 77  2  0  0  0  0
 38 66  1  0  0  0  0
 38 69  1  0  0  0  0
 38 78  2  0  0  0  0
 39 42  1  0  0  0  0
 40 49  1  0  0  0  0
 41 65  1  0  0  0  0
 42 44  1  0  0  0  0
 43 45  1  0  0  0  0
 43 46  1  0  0  0  0
 44 48  1  0  0  0  0
 45 50  1  0  0  0  0
 46 66  1  0  0  0  0
 47 50  1  0  0  0  0
 47 66  1  0  0  0  0
 48 70  1  0  0  0  0
 49 65  1  0  0  0  0
 50 64  1  0  0  0  0
 51 61  1  0  0  0  0
 52 62  1  0  0  0  0
 53 62  1  0  0  0  0
 54 62  1  0  0  0  0
 55 72  1  0  0  0  0
 56 73  1  0  0  0  0
 57 58  1  0  0  0  0
 57 59  1  0  0  0  0
 58 72  1  0  0  0  0
 59 80  1  0  0  0  0
 60 62  1  0  0  0  0
 60 71  1  0  0  0  0
 61 73  1  0  0  0  0
 63 64  1  0  0  0  0
M  CHG  1  73   1
M  ISO  4  38 100  59 101  69 100  80 101
M  END
> <Batch ID>
0013

> <Smiles>
CNC(C)C(=O)NC(C(=O)N1Cc2cc([101O:1][101CH2:1]CCN(C)c3cc([100NH:0][100C:0](=O)N4CCCC(n5nc(-c6ccc(Oc7ccc(F)cc7F)cc6)c(C(N)=O)c5N)C4)ccc3Cl)ccc2CC1C(=O)NC1CCCc2ccccc21)C(C)(C)C

> <Shape>
0.206

> <Color>
0.062

> <Negative vol penalty>
0.000

$$$$

  -OEChem-04042320483D

 82 90  0     1  0  0  0  0  0999 V2000
  -35.9092  -31.1665   20.0709 C   0  0  0  0  0  0  0  0  0  0  0  0
  -35.9895  -30.0060   20.8339 C   0  0  0  0  0  0  0  0  0  0  0  0
  -23.0463   -9.9635   19.8683 C   0  0  0  0  0  0  0  0  0  0  0  0
  -23.9077   -9.7563   22.1160 C   0  0  0  0  0  0  0  0  0  0  0  0
  -34.6783  -31.7950   19.8874 C   0  0  0  0  0  0  0  0  0  0  0  0
  -34.8389  -29.4739   21.4148 C   0  0  0  0  0  0  0  0  0  0  0  0
  -33.5448  -23.5480   22.2608 C   0  0  0  0  0  0  0  0  0  0  0  0
  -32.7769  -17.2532   23.6545 C   0  0  0  0  0  0  0  0  0  0  0  0
  -32.1462  -16.4571   22.6984 C   0  0  0  0  0  0  0  0  0  0  0  0
  -22.3135   -8.7894   20.0408 C   0  0  0  0  0  0  0  0  0  0  0  0
  -23.1748   -8.5821   22.2886 C   0  0  0  0  0  0  0  0  0  0  0  0
  -33.6592  -22.7121   23.3707 C   0  0  0  0  0  0  0  0  0  0  0  0
  -19.9761   -7.7198   22.9558 C   0  0  0  0  0  0  0  0  0  0  0  0
  -19.2721   -7.5667   24.1502 C   0  0  0  0  0  0  0  0  0  0  0  0
  -31.3390  -23.1072   23.8997 C   0  0  0  0  0  0  0  0  0  0  0  0
  -30.6244  -18.0379   24.4212 C   0  0  0  0  0  0  0  0  0  0  0  0
  -20.5436   -5.5726   24.6441 C   0  0  0  0  0  0  0  0  0  0  0  0
  -23.8435  -10.4470   20.9058 C   0  0  0  0  0  0  0  0  0  0  0  0
  -24.1816  -12.9733   21.0101 C   0  0  0  0  0  0  0  0  0  0  0  0
  -33.5105  -31.2649   20.4583 C   0  0  0  0  0  0  0  0  0  0  0  0
  -32.3275  -24.1795   21.9677 C   0  0  0  0  0  0  0  0  0  0  0  0
  -33.5914  -30.0966   21.2399 C   0  0  0  0  0  0  0  0  0  0  0  0
  -31.2111  -23.9486   22.7840 C   0  0  0  0  0  0  0  0  0  0  0  0
  -32.0160  -18.0435   24.5160 C   0  0  0  0  0  0  0  0  0  0  0  0
  -30.7546  -16.4515   22.6037 C   0  0  0  0  0  0  0  0  0  0  0  0
  -22.3777   -8.0986   21.2510 C   0  0  0  0  0  0  0  0  0  0  0  0
  -32.5569  -22.4939   24.1920 C   0  0  0  0  0  0  0  0  0  0  0  0
  -20.9638   -6.7992   22.6055 C   0  0  0  0  0  0  0  0  0  0  0  0
  -19.5558   -6.4932   24.9943 C   0  0  0  0  0  0  0  0  0  0  0  0
  -29.9936  -17.2419   23.4651 C   0  0  0  0  0  0  0  0  0  0  0  0
  -21.2476   -5.7257   23.4497 C   0  0  0  0  0  0  0  0  0  0  0  0
  -24.6013  -11.6595   20.7280 C   0  0  0  0  0  0  0  0  0  0  0  0
  -25.2570  -13.7576   20.6712 C   0  0  0  0  0  0  0  0  0  0  0  0
  -22.9314  -13.4428   21.5320 C   0  0  0  0  0  0  0  0  0  0  0  0
  -31.3586  -27.2002   21.7675 C   0  0  0  0  0  0  0  0  0  0  0  0
  -28.6079  -25.8397   20.7163 C   0  0  0  0  0  0  0  0  0  0  0  0
  -26.5814  -23.0951   20.6311 C   0  0  0  0  0  0  0  0  0  0  0  0
  -30.7264  -14.8008   20.7008 C   0  0  0  0  0  0  0  0  0  0  0  0
  -32.2102  -32.0058   20.2713 C   0  0  0  0  0  0  0  0  0  0  0  0
  -32.2134  -25.0571   20.7515 C   0  0  0  0  0  0  0  0  0  0  0  0
  -29.8764  -24.5866   22.5013 C   0  0  0  0  0  0  0  0  0  0  0  0
  -30.9787  -31.1698   20.6101 C   0  0  0  0  0  0  0  0  0  0  0  0
  -29.5056  -12.6179   18.1667 C   0  0  0  0  0  0  0  0  0  0  0  0
  -31.1749  -30.4436   21.9371 C   0  0  0  0  0  0  0  0  0  0  0  0
  -28.0864  -12.2820   18.6304 C   0  0  0  0  0  0  0  0  0  0  0  0
  -30.4736  -12.7352   19.3428 C   0  0  0  0  0  0  0  0  0  0  0  0
  -28.6307  -13.3193   20.8698 C   0  0  0  0  0  0  0  0  0  0  0  0
  -32.3617  -29.4751   21.8657 C   0  0  1  0  0  0  0  0  0  0  0  0
  -31.0630  -26.0551   20.8406 C   0  0  1  0  0  0  0  0  0  0  0  0
  -27.6062  -13.2548   19.7253 C   0  0  2  0  0  0  0  0  0  0  0  0
  -24.3818  -22.2980   19.7234 C   0  0  0  0  0  0  0  0  0  0  0  0
  -27.1454  -27.4281   22.8722 C   0  0  0  0  0  0  0  0  0  0  0  0
  -25.1776  -25.9129   22.5555 C   0  0  0  0  0  0  0  0  0  0  0  0
  -25.9704  -27.3361   20.6664 C   0  0  0  0  0  0  0  0  0  0  0  0
  -34.1094  -18.8496   25.5781 C   0  0  0  0  0  0  0  0  0  0  0  0
  -27.8791  -20.9667   19.0359 C   0  0  0  0  0  0  0  0  0  0  0  0
  -31.8916  -19.6831   26.3751 C   0  0  0  0  0  0  0  0  0  0  0  0
  -31.4927  -20.9739   25.6797 C   0  0  0  0  0  0  0  0  0  1  0  0
  -27.3455  -25.3357   21.3730 C   0  0  1  0  0  0  0  0  0  0  0  0
  -25.8798  -22.3964   19.4804 C   0  0  2  0  0  0  0  0  0  0  0  0
  -26.4352  -26.4926   21.8735 C   0  0  0  0  0  0  0  0  0  0  0  0
  -25.8461  -11.6080   20.2467 N   0  0  0  0  0  0  0  0  0  0  0  0
  -26.2179  -12.8993   20.2237 N   0  0  0  0  0  0  0  0  0  0  0  0
  -29.8169  -25.4414   21.3041 N   0  0  0  0  0  0  0  0  0  0  0  0
  -29.9551  -13.6765   20.3377 N   0  0  0  0  0  0  0  0  0  0  0  0
  -25.4650  -15.0907   20.7152 N   0  0  0  0  0  0  0  0  0  0  0  0
  -21.9349  -12.5024   21.8264 N   0  0  0  0  0  0  0  0  0  0  0  0
  -30.1169  -15.6421   21.6311 N   0  0  0  0  0  0  0  0  0  0  0  0
  -31.9879  -28.2690   21.1584 N   0  0  0  0  0  0  0  0  0  0  0  0
  -26.7078  -24.4495   20.4053 N   0  0  0  0  0  0  0  0  0  0  0  0
  -32.6497  -18.8427   25.4768 N   0  0  3  0  0  0  0  0  0  0  0  0
  -26.4191  -21.0181   19.3052 N   0  3  0  0  0  0  0  0  0  0  0  0
  -22.6989  -14.6617   21.7160 O   0  0  0  0  0  0  0  0  0  0  0  0
  -31.0380  -27.1206   22.9476 O   0  0  0  0  0  0  0  0  0  0  0  0
  -28.5245  -26.5544   19.7144 O   0  0  0  0  0  0  0  0  0  0  0  0
  -26.9744  -22.4997   21.6318 O   0  0  0  0  0  0  0  0  0  0  0  0
  -31.8336  -15.0169   20.2015 O   0  0  0  0  0  0  0  0  0  0  0  0
  -21.6625   -6.9530   21.4198 O   0  0  0  0  0  0  0  0  0  0  0  0
  -32.6660  -21.6789   25.2764 O   0  0  0  0  0  0  0  0  0  1  0  0
  -18.8807   -6.3472   26.1420 F   0  0  0  0  0  0  0  0  0  0  0  0
  -28.6555  -17.2445   23.3825 F   0  0  0  0  0  0  0  0  0  0  0  0
  -22.1962   -4.8387   23.1191 F   0  0  0  0  0  0  0  0  0  0  0  0
  1  2  1  0  0  0  0
  1  5  2  0  0  0  0
  2  6  2  0  0  0  0
  3 10  2  0  0  0  0
  3 18  1  0  0  0  0
  4 11  1  0  0  0  0
  4 18  2  0  0  0  0
  5 20  1  0  0  0  0
  6 22  1  0  0  0  0
  7 12  2  0  0  0  0
  7 21  1  0  0  0  0
  8  9  2  0  0  0  0
  8 24  1  0  0  0  0
  9 25  1  0  0  0  0
 10 26  1  0  0  0  0
 11 26  2  0  0  0  0
 12 27  1  0  0  0  0
 13 14  2  0  0  0  0
 13 28  1  0  0  0  0
 14 29  1  0  0  0  0
 15 23  1  0  0  0  0
 15 27  2  0  0  0  0
 16 24  2  0  0  0  0
 16 30  1  0  0  0  0
 17 29  2  0  0  0  0
 17 31  1  0  0  0  0
 18 32  1  0  0  0  0
 19 32  1  0  0  0  0
 19 33  2  0  0  0  0
 19 34  1  0  0  0  0
 20 22  2  0  0  0  0
 20 39  1  0  0  0  0
 21 23  2  0  0  0  0
 21 40  1  0  0  0  0
 22 48  1  0  0  0  0
 23 41  1  0  0  0  0
 24 71  1  0  0  0  0
 25 30  2  0  0  0  0
 25 68  1  0  0  0  0
 26 78  1  0  0  0  0
 27 79  1  0  0  0  0
 28 31  2  0  0  0  0
 28 78  1  0  0  0  0
 29 80  1  0  0  0  0
 30 81  1  0  0  0  0
 31 82  1  0  0  0  0
 32 62  2  0  0  0  0
 33 63  1  0  0  0  0
 33 66  1  0  0  0  0
 34 67  1  0  0  0  0
 34 73  2  0  0  0  0
 35 49  1  0  0  0  0
 35 69  1  0  0  0  0
 35 74  2  0  0  0  0
 36 59  1  0  0  0  0
 36 64  1  0  0  0  0
 36 75  2  0  0  0  0
 37 60  1  0  0  0  0
 37 70  1  0  0  0  0
 37 76  2  0  0  0  0
 38 65  1  0  0  0  0
 38 68  1  0  0  0  0
 38 77  2  0  0  0  0
 39 42  1  0  0  0  0
 40 49  1  0  0  0  0
 41 64  1  0  0  0  0
 42 44  1  0  0  0  0
 43 45  1  0  0  0  0
 43 46  1  0  0  0  0
 44 48  1  0  0  0  0
 45 50  1  0  0  0  0
 46 65  1  0  0  0  0
 47 50  1  0  0  0  0
 47 65  1  0  0  0  0
 48 69  1  0  0  0  0
 49 64  1  0  0  0  0
 50 63  1  0  0  0  0
 51 60  1  0  0  0  0
 52 61  1  0  0  0  0
 53 61  1  0  0  0  0
 54 61  1  0  0  0  0
 55 71  1  0  0  0  0
 56 72  1  0  0  0  0
 57 58  1  0  0  0  0
 57 71  1  0  0  0  0
 58 79  1  0  0  0  0
 59 61  1  0  0  0  0
 59 70  1  0  0  0  0
 60 72  1  0  0  0  0
 62 63  1  0  0  0  0
M  CHG  1  72   1
M  ISO  4  38 100  58 101  68 100  79 101
M  END
> <Batch ID>
0013

> <Smiles>
CNC(C)C(=O)NC(C(=O)N1Cc2cc([101O:1][101CH2:1]CN(C)c3ccc([100NH:0][100C:0](=O)N4CCCC(n5nc(-c6ccc(Oc7ccc(F)cc7F)cc6)c(C(N)=O)c5N)C4)c(F)c3)ccc2CC1C(=O)NC1CCCc2ccccc21)C(C)(C)C

> <Shape>
0.212

> <Color>
0.214

> <Negative vol penalty>
0.000

$$$$

  -OEChem-04042320483D

 85 93  0     1  0  0  0  0  0999 V2000
  -18.5014  -24.0200   21.5354 C   0  0  0  0  0  0  0  0  0  0  0  0
  -19.8834  -23.8660   21.4925 C   0  0  0  0  0  0  0  0  0  0  0  0
  -23.3758  -17.0311   21.8530 C   0  0  0  0  0  0  0  0  0  0  0  0
  -22.4140  -16.2743   19.7699 C   0  0  0  0  0  0  0  0  0  0  0  0
  -17.9489  -25.2511   21.8861 C   0  0  0  0  0  0  0  0  0  0  0  0
  -20.7137  -24.9434   21.7992 C   0  0  0  0  0  0  0  0  0  0  0  0
  -24.5387  -23.6408   24.8518 C   0  0  0  0  0  0  0  0  0  0  0  0
  -29.9412  -19.2534   18.9835 C   0  0  0  0  0  0  0  0  0  0  0  0
  -30.4116  -17.9792   19.3009 C   0  0  0  0  0  0  0  0  0  0  0  0
  -22.4340  -18.0581   21.9148 C   0  0  0  0  0  0  0  0  0  0  0  0
  -21.4721  -17.3013   19.8317 C   0  0  0  0  0  0  0  0  0  0  0  0
  -25.6209  -22.9815   24.2707 C   0  0  0  0  0  0  0  0  0  0  0  0
  -19.0404  -19.9405   19.2561 C   0  0  0  0  0  0  0  0  0  0  0  0
  -18.7958  -20.6668   18.0907 C   0  0  0  0  0  0  0  0  0  0  0  0
  -26.8519  -25.0556   24.2245 C   0  0  0  0  0  0  0  0  0  0  0  0
  -29.2000  -19.5478   21.2641 C   0  0  0  0  0  0  0  0  0  0  0  0
  -21.1133  -21.3468   18.0281 C   0  0  0  0  0  0  0  0  0  0  0  0
  -23.3658  -16.1392   20.7805 C   0  0  0  0  0  0  0  0  0  0  0  0
  -24.2165  -13.7793   21.2441 C   0  0  0  0  0  0  0  0  0  0  0  0
  -18.7729  -26.3415   22.2067 C   0  0  0  0  0  0  0  0  0  0  0  0
  -24.6009  -25.0169   25.1141 C   0  0  0  0  0  0  0  0  0  0  0  0
  -20.1718  -26.1906   22.1533 C   0  0  0  0  0  0  0  0  0  0  0  0
  -25.7700  -25.7295   24.8114 C   0  0  0  0  0  0  0  0  0  0  0  0
  -29.3354  -20.0377   19.9652 C   0  0  0  0  0  0  0  0  0  0  0  0
  -30.2762  -17.4893   20.5998 C   0  0  0  0  0  0  0  0  0  0  0  0
  -21.4821  -18.1932   20.9041 C   0  0  0  0  0  0  0  0  0  0  0  0
  -26.7767  -23.6894   23.9543 C   0  0  0  0  0  0  0  0  0  0  0  0
  -20.3214  -19.9173   19.8076 C   0  0  0  0  0  0  0  0  0  0  0  0
  -19.8322  -21.3700   17.4766 C   0  0  0  0  0  0  0  0  0  0  0  0
  -29.6704  -18.2736   21.5815 C   0  0  0  0  0  0  0  0  0  0  0  0
  -21.3579  -20.6205   19.1936 C   0  0  0  0  0  0  0  0  0  0  0  0
  -24.3388  -15.0785   20.7159 C   0  0  0  0  0  0  0  0  0  0  0  0
  -25.4008  -13.1639   20.9199 C   0  0  0  0  0  0  0  0  0  0  0  0
  -23.1294  -13.1822   21.9634 C   0  0  0  0  0  0  0  0  0  0  0  0
  -22.9800  -27.5650   24.1225 C   0  0  0  0  0  0  0  0  0  0  0  0
  -24.7851  -29.0930   26.3427 C   0  0  0  0  0  0  0  0  0  0  0  0
  -27.6441  -29.1601   28.2050 C   0  0  0  0  0  0  0  0  0  0  0  0
  -30.7936  -15.1415   19.9583 C   0  0  0  0  0  0  0  0  0  0  0  0
  -18.1298  -27.6658   22.5341 C   0  0  0  0  0  0  0  0  0  0  0  0
  -23.4348  -25.7081   25.7660 C   0  0  0  0  0  0  0  0  0  0  0  0
  -25.8949  -27.2040   25.0916 C   0  0  0  0  0  0  0  0  0  0  0  0
  -19.0783  -28.6533   23.2090 C   0  0  0  0  0  0  0  0  0  0  0  0
  -28.8868  -13.2180   17.6545 C   0  0  0  0  0  0  0  0  0  0  0  0
  -20.4143  -28.6974   22.4741 C   0  0  0  0  0  0  0  0  0  0  0  0
  -27.4788  -13.3623   18.2311 C   0  0  0  0  0  0  0  0  0  0  0  0
  -29.6818  -14.5204   17.7527 C   0  0  0  0  0  0  0  0  0  0  0  0
  -28.3259  -15.2354   19.6956 C   0  0  0  0  0  0  0  0  0  0  0  0
  -21.1055  -27.3289   22.5034 C   0  0  1  0  0  0  0  0  0  0  0  0
  -23.4167  -27.2130   25.5165 C   0  0  1  0  0  0  0  0  0  0  0  0
  -27.5233  -13.9255   19.6625 C   0  0  1  0  0  0  0  0  0  0  0  0
  -28.8575  -30.5550   29.9019 C   0  0  0  0  0  0  0  0  0  0  0  0
  -25.6188  -31.0377   24.1444 C   0  0  0  0  0  0  0  0  0  0  0  0
  -27.5017  -31.7848   25.6157 C   0  0  0  0  0  0  0  0  0  0  0  0
  -25.1408  -32.1049   26.3551 C   0  0  0  0  0  0  0  0  0  0  0  0
  -31.4550  -15.9745   22.2042 C   0  0  0  0  0  0  0  0  0  0  0  0
  -27.5528  -26.9952   30.2208 C   0  0  0  0  0  0  0  0  0  0  0  0
  -29.2778  -22.8805   21.4766 C   0  0  0  0  0  0  0  0  0  0  0  0
  -28.2320  -22.1541   20.6395 C   0  0  0  0  0  0  0  0  0  0  0  0
  -28.6657  -23.8136   22.5147 C   0  0  0  0  0  0  0  0  0  1  0  0
  -28.9221  -21.8049   18.2671 C   0  0  0  0  0  0  0  0  0  0  0  0
  -26.1302  -29.7783   26.3395 C   0  0  1  0  0  0  0  0  0  0  0  0
  -27.8775  -29.4127   29.6835 C   0  0  2  0  0  0  0  0  0  0  0  0
  -26.0951  -31.1491   25.6065 C   0  0  0  0  0  0  0  0  0  0  0  0
  -25.5086  -15.2778   20.1028 N   0  0  0  0  0  0  0  0  0  0  0  0
  -26.1322  -14.0957   20.2438 N   0  0  0  0  0  0  0  0  0  0  0  0
  -24.7254  -27.8362   25.7241 N   0  0  0  0  0  0  0  0  0  0  0  0
  -29.6620  -15.0406   19.1272 N   0  0  0  0  0  0  0  0  0  0  0  0
  -25.8775  -11.9221   21.1501 N   0  0  0  0  0  0  0  0  0  0  0  0
  -21.9870  -13.9556   22.2108 N   0  0  0  0  0  0  0  0  0  0  0  0
  -21.7207  -27.1009   23.7934 N   0  0  0  0  0  0  0  0  0  0  0  0
  -26.5516  -29.8570   27.7340 N   0  0  0  0  0  0  0  0  0  0  0  0
  -30.7639  -16.1695   20.9251 N   0  0  0  0  0  0  0  0  0  0  0  0
  -28.8630  -21.3190   19.6461 N   0  0  3  0  0  0  0  0  0  0  0  0
  -28.4263  -28.1912   30.3375 N   0  3  0  0  0  0  0  0  0  0  0  0
  -23.1765  -12.0031   22.3890 O   0  0  0  0  0  0  0  0  0  0  0  0
  -23.7294  -28.2112   23.3997 O   0  0  0  0  0  0  0  0  0  0  0  0
  -23.8244  -29.6490   26.8809 O   0  0  0  0  0  0  0  0  0  0  0  0
  -28.3617  -28.4215   27.5340 O   0  0  0  0  0  0  0  0  0  0  0  0
  -31.7454  -14.3575   19.8620 O   0  0  0  0  0  0  0  0  0  0  0  0
  -20.5628  -19.1951   20.9642 O   0  0  0  0  0  0  0  0  0  0  0  0
  -27.8343  -23.0485   23.3863 O   0  0  0  0  0  0  0  0  0  1  0  0
  -19.5976  -22.0662   16.3566 F   0  0  0  0  0  0  0  0  0  0  0  0
  -29.5346  -17.8125   22.8331 F   0  0  0  0  0  0  0  0  0  0  0  0
  -22.5909  -20.6010   19.7180 F   0  0  0  0  0  0  0  0  0  0  0  0
  -28.1758  -21.0030   17.4597 F   0  0  0  0  0  0  0  0  0  0  0  0
  1  2  1  0  0  0  0
  1  5  2  0  0  0  0
  2  6  2  0  0  0  0
  3 10  2  0  0  0  0
  3 18  1  0  0  0  0
  4 11  1  0  0  0  0
  4 18  2  0  0  0  0
  5 20  1  0  0  0  0
  6 22  1  0  0  0  0
  7 12  2  0  0  0  0
  7 21  1  0  0  0  0
  8  9  2  0  0  0  0
  8 24  1  0  0  0  0
  9 25  1  0  0  0  0
 10 26  1  0  0  0  0
 11 26  2  0  0  0  0
 12 27  1  0  0  0  0
 13 14  2  0  0  0  0
 13 28  1  0  0  0  0
 14 29  1  0  0  0  0
 15 23  1  0  0  0  0
 15 27  2  0  0  0  0
 16 24  2  0  0  0  0
 16 30  1  0  0  0  0
 17 29  2  0  0  0  0
 17 31  1  0  0  0  0
 18 32  1  0  0  0  0
 19 32  1  0  0  0  0
 19 33  2  0  0  0  0
 19 34  1  0  0  0  0
 20 22  2  0  0  0  0
 20 39  1  0  0  0  0
 21 23  2  0  0  0  0
 21 40  1  0  0  0  0
 22 48  1  0  0  0  0
 23 41  1  0  0  0  0
 24 73  1  0  0  0  0
 25 30  2  0  0  0  0
 25 72  1  0  0  0  0
 26 80  1  0  0  0  0
 27 81  1  0  0  0  0
 28 31  2  0  0  0  0
 28 80  1  0  0  0  0
 29 82  1  0  0  0  0
 30 83  1  0  0  0  0
 31 84  1  0  0  0  0
 32 64  2  0  0  0  0
 33 65  1  0  0  0  0
 33 68  1  0  0  0  0
 34 69  1  0  0  0  0
 34 75  2  0  0  0  0
 35 49  1  0  0  0  0
 35 70  1  0  0  0  0
 35 76  2  0  0  0  0
 36 61  1  0  0  0  0
 36 66  1  0  0  0  0
 36 77  2  0  0  0  0
 37 62  1  0  0  0  0
 37 71  1  0  0  0  0
 37 78  2  0  0  0  0
 38 67  1  0  0  0  0
 38 72  1  0  0  0  0
 38 79  2  0  0  0  0
 39 42  1  0  0  0  0
 40 49  1  0  0  0  0
 41 66  1  0  0  0  0
 42 44  1  0  0  0  0
 43 45  1  0  0  0  0
 43 46  1  0  0  0  0
 44 48  1  0  0  0  0
 45 50  1  0  0  0  0
 46 67  1  0  0  0  0
 47 50  1  0  0  0  0
 47 67  1  0  0  0  0
 48 70  1  0  0  0  0
 49 66  1  0  0  0  0
 50 65  1  0  0  0  0
 51 62  1  0  0  0  0
 52 63  1  0  0  0  0
 53 63  1  0  0  0  0
 54 63  1  0  0  0  0
 55 72  1  0  0  0  0
 56 74  1  0  0  0  0
 57 58  1  0  0  0  0
 57 59  1  0  0  0  0
 58 73  1  0  0  0  0
 59 81  1  0  0  0  0
 60 73  1  0  0  0  0
 60 85  1  0  0  0  0
 61 63  1  0  0  0  0
 61 71  1  0  0  0  0
 62 74  1  0  0  0  0
 64 65  1  0  0  0  0
M  CHG  1  74   1
M  ISO  4  38 100  59 101  72 100  81 101
M  END
> <Batch ID>
0013

> <Smiles>
CNC(C)C(=O)NC(C(=O)N1Cc2cc([101O:1][101CH2:1]CCN(CF)c3ccc([100N:0](C)[100C:0](=O)N4CCCC(n5nc(-c6ccc(Oc7ccc(F)cc7F)cc6)c(C(N)=O)c5N)C4)c(F)c3)ccc2CC1C(=O)NC1CCCc2ccccc21)C(C)(C)C

> <Shape>
0.230

> <Color>
0.106

> <Negative vol penalty>
0.000

$$$$

  -OEChem-04042320483D

 82 90  0     1  0  0  0  0  0999 V2000
  -17.7884  -32.9572   22.0745 C   0  0  0  0  0  0  0  0  0  0  0  0
  -19.0679  -33.0660   21.5393 C   0  0  0  0  0  0  0  0  0  0  0  0
  -23.0494  -13.0811   20.9633 C   0  0  0  0  0  0  0  0  0  0  0  0
  -23.3095  -14.7257   22.7139 C   0  0  0  0  0  0  0  0  0  0  0  0
  -17.5254  -32.0090   23.0622 C   0  0  0  0  0  0  0  0  0  0  0  0
  -20.0855  -32.2273   21.9923 C   0  0  0  0  0  0  0  0  0  0  0  0
  -25.9928  -28.8798   19.7086 C   0  0  0  0  0  0  0  0  0  0  0  0
  -30.7187  -21.5213   19.2402 C   0  0  0  0  0  0  0  0  0  0  0  0
  -22.3650  -12.2476   21.8479 C   0  0  0  0  0  0  0  0  0  0  0  0
  -22.6251  -13.8922   23.5986 C   0  0  0  0  0  0  0  0  0  0  0  0
  -27.3401  -28.7304   20.0343 C   0  0  0  0  0  0  0  0  0  0  0  0
  -31.0304  -22.8750   19.3659 C   0  0  0  0  0  0  0  0  0  0  0  0
  -19.2524  -12.0144   23.1479 C   0  0  0  0  0  0  0  0  0  0  0  0
  -18.0840  -11.4044   22.6914 C   0  0  0  0  0  0  0  0  0  0  0  0
  -26.7506  -27.0760   21.6880 C   0  0  0  0  0  0  0  0  0  0  0  0
  -28.3985  -22.0891   18.8780 C   0  0  0  0  0  0  0  0  0  0  0  0
  -19.0627   -9.2317   23.0901 C   0  0  0  0  0  0  0  0  0  0  0  0
  -23.5217  -14.3201   21.3963 C   0  0  0  0  0  0  0  0  0  0  0  0
  -23.6765  -16.1650   19.6413 C   0  0  0  0  0  0  0  0  0  0  0  0
  -18.5381  -31.1516   23.5207 C   0  0  0  0  0  0  0  0  0  0  0  0
  -25.0116  -28.1352   20.3788 C   0  0  0  0  0  0  0  0  0  0  0  0
  -19.8362  -31.2675   22.9881 C   0  0  0  0  0  0  0  0  0  0  0  0
  -25.3917  -27.2160   21.3671 C   0  0  0  0  0  0  0  0  0  0  0  0
  -29.4028  -21.1283   18.9962 C   0  0  0  0  0  0  0  0  0  0  0  0
  -22.1529  -12.6532   23.1656 C   0  0  0  0  0  0  0  0  0  0  0  0
  -27.7190  -27.8305   21.0261 C   0  0  0  0  0  0  0  0  0  0  0  0
  -20.3259  -11.2331   23.5754 C   0  0  0  0  0  0  0  0  0  0  0  0
  -30.0261  -23.8358   19.2478 C   0  0  0  0  0  0  0  0  0  0  0  0
  -17.9891  -10.0130   22.6625 C   0  0  0  0  0  0  0  0  0  0  0  0
  -28.7101  -23.4429   19.0038 C   0  0  0  0  0  0  0  0  0  0  0  0
  -20.2311   -9.8418   23.5465 C   0  0  0  0  0  0  0  0  0  0  0  0
  -24.2292  -15.1813   20.4831 C   0  0  0  0  0  0  0  0  0  0  0  0
  -24.7565  -16.6982   18.9811 C   0  0  0  0  0  0  0  0  0  0  0  0
  -22.3091  -16.5615   19.4714 C   0  0  0  0  0  0  0  0  0  0  0  0
  -22.5237  -28.8496   22.2236 C   0  0  0  0  0  0  0  0  0  0  0  0
  -21.9611  -25.6608   22.0310 C   0  0  0  0  0  0  0  0  0  0  0  0
  -23.2027  -22.5268   21.4987 C   0  0  0  0  0  0  0  0  0  0  0  0
  -29.9627  -18.6724   18.9586 C   0  0  0  0  0  0  0  0  0  0  0  0
  -18.2175  -30.1742   24.6236 C   0  0  0  0  0  0  0  0  0  0  0  0
  -23.5648  -28.2885   19.9972 C   0  0  0  0  0  0  0  0  0  0  0  0
  -24.3790  -26.3779   22.1023 C   0  0  0  0  0  0  0  0  0  0  0  0
  -19.2605  -29.0708   24.7819 C   0  0  0  0  0  0  0  0  0  0  0  0
  -29.5667  -15.1408   18.7393 C   0  0  0  0  0  0  0  0  0  0  0  0
  -20.6673  -29.6603   24.7690 C   0  0  0  0  0  0  0  0  0  0  0  0
  -28.0973  -14.9174   19.1042 C   0  0  0  0  0  0  0  0  0  0  0  0
  -30.1886  -16.2712   19.5572 C   0  0  0  0  0  0  0  0  0  0  0  0
  -27.9828  -17.3179   19.8864 C   0  0  0  0  0  0  0  0  0  0  0  0
  -20.9606  -30.3590   23.4358 C   0  0  1  0  0  0  0  0  0  0  0  0
  -22.6063  -27.8538   21.1015 C   0  0  1  0  0  0  0  0  0  0  0  0
  -27.2952  -16.2321   19.0426 C   0  0  2  0  0  0  0  0  0  0  0  0
  -22.5085  -20.1158   21.4447 C   0  0  0  0  0  0  0  0  0  0  0  0
  -21.8853  -25.6167   25.0810 C   0  0  0  0  0  0  0  0  0  0  0  0
  -22.1454  -23.1286   24.9821 C   0  0  0  0  0  0  0  0  0  0  0  0
  -20.1375  -24.2120   23.9736 C   0  0  0  0  0  0  0  0  0  0  0  0
  -23.9756  -22.2477   18.6556 C   0  0  0  0  0  0  0  0  0  0  0  0
  -31.2263  -27.0652   20.5521 C   0  0  0  0  0  0  0  0  0  0  0  0
  -29.9844  -27.9077   20.3065 C   0  0  0  0  0  0  0  0  0  1  0  0
  -30.9048  -25.5799   20.6049 C   0  0  0  0  0  0  0  0  0  0  0  0
  -22.3801  -24.4510   22.8310 C   0  0  1  0  0  0  0  0  0  0  0  0
  -22.7121  -21.3832   20.6292 C   0  0  2  0  0  0  0  0  0  0  0  0
  -21.6562  -24.3691   24.2046 C   0  0  0  0  0  0  0  0  0  0  0  0
  -25.5571  -15.0925   20.3698 N   0  0  0  0  0  0  0  0  0  0  0  0
  -25.8478  -16.0273   19.4491 N   0  0  0  0  0  0  0  0  0  0  0  0
  -22.9764  -26.5685   21.6976 N   0  0  0  0  0  0  0  0  0  0  0  0
  -29.3772  -17.4856   19.4479 N   0  0  0  0  0  0  0  0  0  0  0  0
  -24.8695  -17.6707   18.0517 N   0  0  0  0  0  0  0  0  0  0  0  0
  -21.3257  -15.9102   20.2283 N   0  0  0  0  0  0  0  0  0  0  0  0
  -29.0861  -19.7531   18.8684 N   0  0  0  0  0  0  0  0  0  0  0  0
  -21.2630  -29.3839   22.4100 N   0  0  0  0  0  0  0  0  0  0  0  0
  -22.1587  -23.2950   21.9691 N   0  0  0  0  0  0  0  0  0  0  0  0
  -23.6976  -21.0940   19.5493 N   0  3  0  0  0  0  0  0  0  0  0  0
  -21.9678  -17.4552   18.6600 O   0  0  0  0  0  0  0  0  0  0  0  0
  -23.5289  -29.1126   22.8733 O   0  0  0  0  0  0  0  0  0  0  0  0
  -20.7780  -25.7917   21.7075 O   0  0  0  0  0  0  0  0  0  0  0  0
  -24.3927  -22.7171   21.7399 O   0  0  0  0  0  0  0  0  0  0  0  0
  -31.1473  -18.7188   18.6172 O   0  0  0  0  0  0  0  0  0  0  0  0
  -21.4849  -11.8402   24.0290 O   0  0  0  0  0  0  0  0  0  0  0  0
  -29.0334  -27.6831   21.3464 O   0  0  0  0  0  0  0  0  0  1  0  0
  -30.3344  -25.1657   19.3709 O   0  0  0  0  0  0  0  0  0  0  0  0
  -16.8665   -9.4274   22.2256 F   0  0  0  0  0  0  0  0  0  0  0  0
  -27.7413  -24.3614   18.8881 F   0  0  0  0  0  0  0  0  0  0  0  0
  -21.2587   -9.0859   23.9571 F   0  0  0  0  0  0  0  0  0  0  0  0
  1  2  1  0  0  0  0
  1  5  2  0  0  0  0
  2  6  2  0  0  0  0
  3  9  2  0  0  0  0
  3 18  1  0  0  0  0
  4 10  1  0  0  0  0
  4 18  2  0  0  0  0
  5 20  1  0  0  0  0
  6 22  1  0  0  0  0
  7 11  2  0  0  0  0
  7 21  1  0  0  0  0
  8 12  2  0  0  0  0
  8 24  1  0  0  0  0
  9 25  1  0  0  0  0
 10 25  2  0  0  0  0
 11 26  1  0  0  0  0
 12 28  1  0  0  0  0
 13 14  2  0  0  0  0
 13 27  1  0  0  0  0
 14 29  1  0  0  0  0
 15 23  1  0  0  0  0
 15 26  2  0  0  0  0
 16 24  2  0  0  0  0
 16 30  1  0  0  0  0
 17 29  2  0  0  0  0
 17 31  1  0  0  0  0
 18 32  1  0  0  0  0
 19 32  1  0  0  0  0
 19 33  2  0  0  0  0
 19 34  1  0  0  0  0
 20 22  2  0  0  0  0
 20 39  1  0  0  0  0
 21 23  2  0  0  0  0
 21 40  1  0  0  0  0
 22 48  1  0  0  0  0
 23 41  1  0  0  0  0
 24 68  1  0  0  0  0
 25 77  1  0  0  0  0
 26 78  1  0  0  0  0
 27 31  2  0  0  0  0
 27 77  1  0  0  0  0
 28 30  2  0  0  0  0
 28 79  1  0  0  0  0
 29 80  1  0  0  0  0
 30 81  1  0  0  0  0
 31 82  1  0  0  0  0
 32 62  2  0  0  0  0
 33 63  1  0  0  0  0
 33 66  1  0  0  0  0
 34 67  1  0  0  0  0
 34 72  2  0  0  0  0
 35 49  1  0  0  0  0
 35 69  1  0  0  0  0
 35 73  2  0  0  0  0
 36 59  1  0  0  0  0
 36 64  1  0  0  0  0
 36 74  2  0  0  0  0
 37 60  1  0  0  0  0
 37 70  1  0  0  0  0
 37 75  2  0  0  0  0
 38 65  1  0  0  0  0
 38 68  1  0  0  0  0
 38 76  2  0  0  0  0
 39 42  1  0  0  0  0
 40 49  1  0  0  0  0
 41 64  1  0  0  0  0
 42 44  1  0  0  0  0
 43 45  1  0  0  0  0
 43 46  1  0  0  0  0
 44 48  1  0  0  0  0
 45 50  1  0  0  0  0
 46 65  1  0  0  0  0
 47 50  1  0  0  0  0
 47 65  1  0  0  0  0
 48 69  1  0  0  0  0
 49 64  1  0  0  0  0
 50 63  1  0  0  0  0
 51 60  1  0  0  0  0
 52 61  1  0  0  0  0
 53 61  1  0  0  0  0
 54 61  1  0  0  0  0
 55 71  1  0  0  0  0
 56 57  1  0  0  0  0
 56 58  1  0  0  0  0
 57 78  1  0  0  0  0
 58 79  1  0  0  0  0
 59 61  1  0  0  0  0
 59 70  1  0  0  0  0
 60 71  1  0  0  0  0
 62 63  1  0  0  0  0
M  CHG  1  71   1
M  ISO  4  38 100  57 101  68 100  78 101
M  END
> <Batch ID>
0013

> <Smiles>
CNC(C)C(=O)NC(C(=O)N1Cc2cc([101O:1][101CH2:1]CCOc3ccc([100NH:0][100C:0](=O)N4CCCC(n5nc(-c6ccc(Oc7ccc(F)cc7F)cc6)c(C(N)=O)c5N)C4)cc3F)ccc2CC1C(=O)NC1CCCc2ccccc21)C(C)(C)C

> <Shape>
0.201

> <Color>
0.083

> <Negative vol penalty>
0.000

$$$$

  -OEChem-04042320483D

 83 91  0     1  0  0  0  0  0999 V2000
  -27.9192  -24.5270   16.9315 C   0  0  0  0  0  0  0  0  0  0  0  0
  -26.7274  -24.7882   17.5999 C   0  0  0  0  0  0  0  0  0  0  0  0
  -26.0141  -12.5918   19.6224 C   0  0  0  0  0  0  0  0  0  0  0  0
  -24.2276  -13.2335   21.1171 C   0  0  0  0  0  0  0  0  0  0  0  0
  -29.1267  -24.9848   17.4572 C   0  0  0  0  0  0  0  0  0  0  0  0
  -26.7424  -25.5065   18.7950 C   0  0  0  0  0  0  0  0  0  0  0  0
  -23.1281  -29.0487   18.9784 C   0  0  0  0  0  0  0  0  0  0  0  0
  -21.8497  -22.0790   23.2128 C   0  0  0  0  0  0  0  0  0  0  0  0
  -23.0981  -23.8518   22.1471 C   0  0  0  0  0  0  0  0  0  0  0  0
  -22.8755  -21.1804   22.9197 C   0  0  0  0  0  0  0  0  0  0  0  0
  -24.1239  -22.9532   21.8540 C   0  0  0  0  0  0  0  0  0  0  0  0
  -26.1378  -11.3749   20.2927 C   0  0  0  0  0  0  0  0  0  0  0  0
  -24.3513  -12.0165   21.7874 C   0  0  0  0  0  0  0  0  0  0  0  0
  -21.8313  -28.6212   19.2600 C   0  0  0  0  0  0  0  0  0  0  0  0
  -23.4054   -8.8068   21.3144 C   0  0  0  0  0  0  0  0  0  0  0  0
  -22.2333   -8.1159   21.6217 C   0  0  0  0  0  0  0  0  0  0  0  0
  -22.1084  -29.3119   21.5547 C   0  0  0  0  0  0  0  0  0  0  0  0
  -22.7779   -8.2377   23.9724 C   0  0  0  0  0  0  0  0  0  0  0  0
  -25.0590  -13.5212   20.0346 C   0  0  0  0  0  0  0  0  0  0  0  0
  -24.1069  -15.0606   18.2371 C   0  0  0  0  0  0  0  0  0  0  0  0
  -29.1556  -25.7173   18.6544 C   0  0  0  0  0  0  0  0  0  0  0  0
  -23.9300  -29.6020   19.9870 C   0  0  0  0  0  0  0  0  0  0  0  0
  -27.9516  -25.9733   19.3379 C   0  0  0  0  0  0  0  0  0  0  0  0
  -23.4141  -29.7480   21.2826 C   0  0  0  0  0  0  0  0  0  0  0  0
  -21.9610  -23.4147   22.8265 C   0  0  0  0  0  0  0  0  0  0  0  0
  -24.0126  -21.6175   22.2403 C   0  0  0  0  0  0  0  0  0  0  0  0
  -25.3064  -11.0872   21.3752 C   0  0  0  0  0  0  0  0  0  0  0  0
  -21.3223  -28.7501   20.5490 C   0  0  0  0  0  0  0  0  0  0  0  0
  -24.2638   -9.2131   22.3360 C   0  0  0  0  0  0  0  0  0  0  0  0
  -21.9195   -7.8314   22.9507 C   0  0  0  0  0  0  0  0  0  0  0  0
  -23.9500   -8.9286   23.6650 C   0  0  0  0  0  0  0  0  0  0  0  0
  -24.9311  -14.7787   19.3430 C   0  0  0  0  0  0  0  0  0  0  0  0
  -24.3475  -16.3838   17.9580 C   0  0  0  0  0  0  0  0  0  0  0  0
  -23.2044  -14.2032   17.5258 C   0  0  0  0  0  0  0  0  0  0  0  0
  -26.6912  -28.8072   21.3463 C   0  0  0  0  0  0  0  0  0  0  0  0
  -26.3361  -31.6684   22.8327 C   0  0  0  0  0  0  0  0  0  0  0  0
  -24.2363  -34.1380   23.8999 C   0  0  0  0  0  0  0  0  0  0  0  0
  -26.2494  -20.9752   21.2757 C   0  0  0  0  0  0  0  0  0  0  0  0
  -30.4898  -26.1507   19.2083 C   0  0  0  0  0  0  0  0  0  0  0  0
  -25.3173  -30.0829   19.6607 C   0  0  0  0  0  0  0  0  0  0  0  0
  -24.2272  -30.3541   22.3962 C   0  0  0  0  0  0  0  0  0  0  0  0
  -30.3816  -27.2272   20.2851 C   0  0  0  0  0  0  0  0  0  0  0  0
  -27.7623  -19.7233   18.3057 C   0  0  0  0  0  0  0  0  0  0  0  0
  -29.2993  -26.8636   21.2966 C   0  0  0  0  0  0  0  0  0  0  0  0
  -27.1285  -18.3414   18.1306 C   0  0  0  0  0  0  0  0  0  0  0  0
  -28.0047  -20.0538   19.7773 C   0  0  0  0  0  0  0  0  0  0  0  0
  -26.1955  -18.5326   20.4716 C   0  0  0  0  0  0  0  0  0  0  0  0
  -27.9244  -26.7705   20.6240 C   0  0  1  0  0  0  0  0  0  0  0  0
  -26.2263  -30.1590   20.8836 C   0  0  1  0  0  0  0  0  0  0  0  0
  -25.8727  -18.1820   19.0099 C   0  0  2  0  0  0  0  0  0  0  0  0
  -24.2342  -36.3324   25.1172 C   0  0  0  0  0  0  0  0  0  0  0  0
  -26.7038  -30.1973   25.4804 C   0  0  0  0  0  0  0  0  0  0  0  0
  -25.7634  -32.2037   26.6459 C   0  0  0  0  0  0  0  0  0  0  0  0
  -27.8791  -32.4003   25.3391 C   0  0  0  0  0  0  0  0  0  0  0  0
  -23.1342  -35.5695   21.5558 C   0  0  0  0  0  0  0  0  0  0  0  0
  -20.8576  -24.3811   23.1418 C   0  0  0  0  0  0  0  0  0  0  0  0
  -19.1274  -25.9187   22.2030 C   0  0  0  0  0  0  0  0  0  0  0  0
  -19.5486  -27.2440   20.0575 C   0  0  0  0  0  0  0  0  0  1  0  0
  -25.6845  -32.1350   24.1121 C   0  0  1  0  0  0  0  0  0  0  0  0
  -24.3046  -35.6481   23.7609 C   0  0  2  0  0  0  0  0  0  0  0  0
  -18.5439  -26.4703   20.9051 C   0  0  1  0  0  0  0  0  0  0  0  0
  -26.4928  -31.7208   25.3740 C   0  0  0  0  0  0  0  0  0  0  0  0
  -25.6423  -15.8375   19.7392 N   0  0  0  0  0  0  0  0  0  0  0  0
  -25.2658  -16.7977   18.8776 N   0  0  0  0  0  0  0  0  0  0  0  0
  -25.5802  -30.8034   22.0288 N   0  0  0  0  0  0  0  0  0  0  0  0
  -26.7706  -19.8848   20.5476 N   0  0  0  0  0  0  0  0  0  0  0  0
  -23.8612  -17.2219   17.0181 N   0  0  0  0  0  0  0  0  0  0  0  0
  -23.0777  -12.8718   17.9447 N   0  0  0  0  0  0  0  0  0  0  0  0
  -25.0549  -20.7050   21.9426 N   0  0  0  0  0  0  0  0  0  0  0  0
  -27.3861  -28.0931   20.3889 N   0  0  0  0  0  0  0  0  0  0  0  0
  -25.4927  -33.5743   23.9711 N   0  0  0  0  0  0  0  0  0  0  0  0
  -23.1740  -36.1430   22.9256 N   0  3  0  0  0  0  0  0  0  0  0  0
  -20.2625  -25.0029   21.9278 N   0  3  0  0  0  0  0  0  0  0  0  0
  -22.5425  -14.6014   16.5374 O   0  0  0  0  0  0  0  0  0  0  0  0
  -26.4394  -28.4398   22.4879 O   0  0  0  0  0  0  0  0  0  0  0  0
  -27.4710  -32.0628   22.5533 O   0  0  0  0  0  0  0  0  0  0  0  0
  -23.1746  -33.5205   23.9449 O   0  0  0  0  0  0  0  0  0  0  0  0
  -26.8063  -22.0760   21.2833 O   0  0  0  0  0  0  0  0  0  0  0  0
  -18.0237  -25.3957   20.1209 O   0  0  0  0  0  0  0  0  0  0  0  0
  -25.4267   -9.8997   22.0293 O   0  0  0  0  0  0  0  0  0  0  0  0
  -20.0571  -28.3330   20.8268 O   0  0  0  0  0  0  0  0  0  1  0  0
  -20.7932   -7.1693   23.2458 F   0  0  0  0  0  0  0  0  0  0  0  0
  -24.7702   -9.3174   24.6509 F   0  0  0  0  0  0  0  0  0  0  0  0
  1  2  1  0  0  0  0
  1  5  2  0  0  0  0
  2  6  2  0  0  0  0
  3 12  2  0  0  0  0
  3 19  1  0  0  0  0
  4 13  1  0  0  0  0
  4 19  2  0  0  0  0
  5 21  1  0  0  0  0
  6 23  1  0  0  0  0
  7 14  2  0  0  0  0
  7 22  1  0  0  0  0
  8 10  2  0  0  0  0
  8 25  1  0  0  0  0
  9 11  1  0  0  0  0
  9 25  2  0  0  0  0
 10 26  1  0  0  0  0
 11 26  2  0  0  0  0
 12 27  1  0  0  0  0
 13 27  2  0  0  0  0
 14 28  1  0  0  0  0
 15 16  2  0  0  0  0
 15 29  1  0  0  0  0
 16 30  1  0  0  0  0
 17 24  1  0  0  0  0
 17 28  2  0  0  0  0
 18 30  2  0  0  0  0
 18 31  1  0  0  0  0
 19 32  1  0  0  0  0
 20 32  1  0  0  0  0
 20 33  2  0  0  0  0
 20 34  1  0  0  0  0
 21 23  2  0  0  0  0
 21 39  1  0  0  0  0
 22 24  2  0  0  0  0
 22 40  1  0  0  0  0
 23 48  1  0  0  0  0
 24 41  1  0  0  0  0
 25 56  1  0  0  0  0
 26 69  1  0  0  0  0
 27 80  1  0  0  0  0
 28 81  1  0  0  0  0
 29 31  2  0  0  0  0
 29 80  1  0  0  0  0
 30 82  1  0  0  0  0
 31 83  1  0  0  0  0
 32 63  2  0  0  0  0
 33 64  1  0  0  0  0
 33 67  1  0  0  0  0
 34 68  1  0  0  0  0
 34 74  2  0  0  0  0
 35 49  1  0  0  0  0
 35 70  1  0  0  0  0
 35 75  2  0  0  0  0
 36 59  1  0  0  0  0
 36 65  1  0  0  0  0
 36 76  2  0  0  0  0
 37 60  1  0  0  0  0
 37 71  1  0  0  0  0
 37 77  2  0  0  0  0
 38 66  1  0  0  0  0
 38 69  1  0  0  0  0
 38 78  2  0  0  0  0
 39 42  1  0  0  0  0
 40 49  1  0  0  0  0
 41 65  1  0  0  0  0
 42 44  1  0  0  0  0
 43 45  1  0  0  0  0
 43 46  1  0  0  0  0
 44 48  1  0  0  0  0
 45 50  1  0  0  0  0
 46 66  1  0  0  0  0
 47 50  1  0  0  0  0
 47 66  1  0  0  0  0
 48 70  1  0  0  0  0
 49 65  1  0  0  0  0
 50 64  1  0  0  0  0
 51 60  1  0  0  0  0
 52 62  1  0  0  0  0
 53 62  1  0  0  0  0
 54 62  1  0  0  0  0
 55 72  1  0  0  0  0
 56 73  1  0  0  0  0
 57 61  1  0  0  0  0
 57 73  1  0  0  0  0
 58 61  1  0  0  0  0
 58 81  1  0  0  0  0
 59 62  1  0  0  0  0
 59 71  1  0  0  0  0
 60 72  1  0  0  0  0
 61 79  1  0  0  0  0
 63 64  1  0  0  0  0
M  CHG  2  72   1  73   1
M  ISO  4  38 100  58 101  69 100  81 101
M  END
> <Batch ID>
0013

> <Smiles>
CNC(C)C(=O)NC(C(=O)N1Cc2cc([101O:1][101CH2:1]C(O)CNCc3ccc([100NH:0][100C:0](=O)N4CCCC(n5nc(-c6ccc(Oc7ccc(F)cc7F)cc6)c(C(N)=O)c5N)C4)cc3)ccc2CC1C(=O)NC1CCCc2ccccc21)C(C)(C)C

> <Shape>
0.298

> <Color>
0.078

> <Negative vol penalty>
0.000

$$$$
