
  -OEChem-04042320513D

 83 91  0     1  0  0  0  0  0999 V2000
  -17.4048  -11.4590   22.9787 C   0  0  0  0  0  0  0  0  0  0  0  0
  -17.8097  -12.7294   22.5818 C   0  0  0  0  0  0  0  0  0  0  0  0
  -28.6058  -28.2756   20.6917 C   0  0  0  0  0  0  0  0  0  0  0  0
  -27.3373  -26.7674   19.2940 C   0  0  0  0  0  0  0  0  0  0  0  0
  -18.3307  -10.5737   23.5290 C   0  0  0  0  0  0  0  0  0  0  0  0
  -19.1407  -13.1156   22.7359 C   0  0  0  0  0  0  0  0  0  0  0  0
  -22.3674  -16.7678   19.0271 C   0  0  0  0  0  0  0  0  0  0  0  0
  -21.9060  -24.8222   19.6584 C   0  0  0  0  0  0  0  0  0  0  0  0
  -23.3037  -25.3068   21.5685 C   0  0  0  0  0  0  0  0  0  0  0  0
  -22.8105  -23.8442   19.2446 C   0  0  0  0  0  0  0  0  0  0  0  0
  -24.2082  -24.3288   21.1548 C   0  0  0  0  0  0  0  0  0  0  0  0
  -29.7399  -27.4822   20.5186 C   0  0  0  0  0  0  0  0  0  0  0  0
  -28.4715  -25.9740   19.1209 C   0  0  0  0  0  0  0  0  0  0  0  0
  -22.6865  -18.1235   19.0908 C   0  0  0  0  0  0  0  0  0  0  0  0
  -30.1679  -23.6357   20.8774 C   0  0  0  0  0  0  0  0  0  0  0  0
  -30.0168  -22.2543   20.9975 C   0  0  0  0  0  0  0  0  0  0  0  0
  -24.8094  -17.5706   20.0942 C   0  0  0  0  0  0  0  0  0  0  0  0
  -30.7885  -21.9724   18.7254 C   0  0  0  0  0  0  0  0  0  0  0  0
  -27.4045  -27.9182   20.0794 C   0  0  0  0  0  0  0  0  0  0  0  0
  -25.8231  -29.8214   19.4594 C   0  0  0  0  0  0  0  0  0  0  0  0
  -19.6757  -10.9457   23.6810 C   0  0  0  0  0  0  0  0  0  0  0  0
  -23.2639  -15.8023   19.5073 C   0  0  0  0  0  0  0  0  0  0  0  0
  -20.0852  -12.2348   23.2899 C   0  0  0  0  0  0  0  0  0  0  0  0
  -24.5004  -16.2032   20.0331 C   0  0  0  0  0  0  0  0  0  0  0  0
  -22.1527  -25.5535   20.8203 C   0  0  0  0  0  0  0  0  0  0  0  0
  -23.9615  -23.5975   19.9928 C   0  0  0  0  0  0  0  0  0  0  0  0
  -29.6727  -26.3315   19.7332 C   0  0  0  0  0  0  0  0  0  0  0  0
  -23.9063  -18.5253   19.6271 C   0  0  0  0  0  0  0  0  0  0  0  0
  -30.6291  -24.1856   19.6813 C   0  0  0  0  0  0  0  0  0  0  0  0
  -30.3272  -21.4227   19.9215 C   0  0  0  0  0  0  0  0  0  0  0  0
  -30.9394  -23.3539   18.6053 C   0  0  0  0  0  0  0  0  0  0  0  0
  -26.2325  -28.7370   20.2583 C   0  0  0  0  0  0  0  0  0  0  0  0
  -24.6590  -30.2579   20.0434 C   0  0  0  0  0  0  0  0  0  0  0  0
  -26.4398  -30.3839   18.2937 C   0  0  0  0  0  0  0  0  0  0  0  0
  -23.1777  -13.6065   21.8039 C   0  0  0  0  0  0  0  0  0  0  0  0
  -26.0382  -12.7388   20.5443 C   0  0  0  0  0  0  0  0  0  0  0  0
  -28.8011  -13.6246   18.7475 C   0  0  0  0  0  0  0  0  0  0  0  0
  -20.8438  -27.1644   23.7058 C   0  0  0  0  0  0  0  0  0  0  0  0
  -20.6302   -9.9713   24.3245 C   0  0  0  0  0  0  0  0  0  0  0  0
  -22.9161  -14.3424   19.4068 C   0  0  0  0  0  0  0  0  0  0  0  0
  -25.5063  -15.2050   20.5434 C   0  0  0  0  0  0  0  0  0  0  0  0
  -22.0994  -10.3247   24.1080 C   0  0  0  0  0  0  0  0  0  0  0  0
  -22.4207  -30.4671   24.2602 C   0  0  0  0  0  0  0  0  0  0  0  0
  -22.3378  -11.8065   24.3801 C   0  0  0  0  0  0  0  0  0  0  0  0
  -23.5860  -30.4499   23.2723 C   0  0  0  0  0  0  0  0  0  0  0  0
  -22.0497  -29.0619   24.7242 C   0  0  0  0  0  0  0  0  0  0  0  0
  -22.9293  -28.0987   22.6235 C   0  0  0  0  0  0  0  0  0  0  0  0
  -21.5254  -12.6818   23.4181 C   0  0  1  0  0  0  0  0  0  0  0  0
  -23.6875  -13.4749   20.3967 C   0  0  1  0  0  0  0  0  0  0  0  0
  -23.2978  -29.4952   22.1006 C   0  0  2  0  0  0  0  0  0  0  0  0
  -30.9860  -12.7124   17.9160 C   0  0  0  0  0  0  0  0  0  0  0  0
  -27.2097  -12.9935   23.3502 C   0  0  0  0  0  0  0  0  0  0  0  0
  -29.4915  -13.0139   22.3202 C   0  0  0  0  0  0  0  0  0  0  0  0
  -28.0235  -11.0145   22.0556 C   0  0  0  0  0  0  0  0  0  0  0  0
  -26.0774  -22.3538   20.3622 C   0  0  0  0  0  0  0  0  0  0  0  0
  -19.6353  -25.2862   22.6612 C   0  0  0  0  0  0  0  0  0  0  0  0
  -28.0370  -14.0531   15.9206 C   0  0  0  0  0  0  0  0  0  0  0  0
  -21.1865  -26.5996   21.2632 C   0  0  0  0  0  0  0  0  0  0  0  0
  -24.6363  -21.8279   18.3886 C   0  0  0  0  0  0  0  0  0  0  0  0
  -23.6670  -20.6959   18.6854 C   0  0  0  0  0  0  0  0  0  1  0  0
  -27.4759  -13.1310   20.7858 C   0  0  1  0  0  0  0  0  0  0  0  0
  -29.5166  -12.9399   17.5970 C   0  0  2  0  0  0  0  0  0  0  0  0
  -28.0306  -12.5574   22.1202 C   0  0  0  0  0  0  0  0  0  0  0  0
  -25.3966  -28.4993   21.2726 N   0  0  0  0  0  0  0  0  0  0  0  0
  -24.4503  -29.4405   21.1150 N   0  0  0  0  0  0  0  0  0  0  0  0
  -25.1173  -13.7897   20.4293 N   0  0  0  0  0  0  0  0  0  0  0  0
  -21.8235  -28.1643   23.5908 N   0  0  0  0  0  0  0  0  0  0  0  0
  -23.8040  -31.2574   19.7397 N   0  0  0  0  0  0  0  0  0  0  0  0
  -27.6324  -29.8138   17.8278 N   0  0  0  0  0  0  0  0  0  0  0  0
  -22.1594  -12.7267   22.1179 N   0  0  0  0  0  0  0  0  0  0  0  0
  -28.2176  -12.7125   19.6013 N   0  0  0  0  0  0  0  0  0  0  0  0
  -24.8694  -22.6139   19.5785 N   0  0  3  0  0  0  0  0  0  0  0  0
  -20.6477  -26.3304   22.5946 N   0  0  0  0  0  0  0  0  0  0  0  0
  -29.4268  -13.7709   16.3632 N   0  3  0  0  0  0  0  0  0  0  0  0
  -25.9566  -31.3733   17.6928 O   0  0  0  0  0  0  0  0  0  0  0  0
  -23.6725  -14.4432   22.5501 O   0  0  0  0  0  0  0  0  0  0  0  0
  -25.7444  -11.5441   20.4537 O   0  0  0  0  0  0  0  0  0  0  0  0
  -28.7667  -14.8462   18.8780 O   0  0  0  0  0  0  0  0  0  0  0  0
  -20.1756  -27.0312   24.7390 O   0  0  0  0  0  0  0  0  0  0  0  0
  -30.7792  -25.5572   19.5639 O   0  0  0  0  0  0  0  0  0  0  0  0
  -24.2200  -19.8479   19.6911 O   0  0  0  0  0  0  0  0  0  1  0  0
  -30.1836  -20.0960   20.0375 F   0  0  0  0  0  0  0  0  0  0  0  0
  -31.3841  -23.8762   17.4541 F   0  0  0  0  0  0  0  0  0  0  0  0
  1  2  1  0  0  0  0
  1  5  2  0  0  0  0
  2  6  2  0  0  0  0
  3 12  2  0  0  0  0
  3 19  1  0  0  0  0
  4 13  1  0  0  0  0
  4 19  2  0  0  0  0
  5 21  1  0  0  0  0
  6 23  1  0  0  0  0
  7 14  2  0  0  0  0
  7 22  1  0  0  0  0
  8 10  2  0  0  0  0
  8 25  1  0  0  0  0
  9 11  1  0  0  0  0
  9 25  2  0  0  0  0
 10 26  1  0  0  0  0
 11 26  2  0  0  0  0
 12 27  1  0  0  0  0
 13 27  2  0  0  0  0
 14 28  1  0  0  0  0
 15 16  2  0  0  0  0
 15 29  1  0  0  0  0
 16 30  1  0  0  0  0
 17 24  1  0  0  0  0
 17 28  2  0  0  0  0
 18 30  2  0  0  0  0
 18 31  1  0  0  0  0
 19 32  1  0  0  0  0
 20 32  1  0  0  0  0
 20 33  2  0  0  0  0
 20 34  1  0  0  0  0
 21 23  2  0  0  0  0
 21 39  1  0  0  0  0
 22 24  2  0  0  0  0
 22 40  1  0  0  0  0
 23 48  1  0  0  0  0
 24 41  1  0  0  0  0
 25 58  1  0  0  0  0
 26 72  1  0  0  0  0
 27 80  1  0  0  0  0
 28 81  1  0  0  0  0
 29 31  2  0  0  0  0
 29 80  1  0  0  0  0
 30 82  1  0  0  0  0
 31 83  1  0  0  0  0
 32 64  2  0  0  0  0
 33 65  1  0  0  0  0
 33 68  1  0  0  0  0
 34 69  1  0  0  0  0
 34 75  2  0  0  0  0
 35 49  1  0  0  0  0
 35 70  1  0  0  0  0
 35 76  2  0  0  0  0
 36 61  1  0  0  0  0
 36 66  1  0  0  0  0
 36 77  2  0  0  0  0
 37 62  1  0  0  0  0
 37 71  1  0  0  0  0
 37 78  2  0  0  0  0
 38 67  1  0  0  0  0
 38 73  1  0  0  0  0
 38 79  2  0  0  0  0
 39 42  1  0  0  0  0
 40 49  1  0  0  0  0
 41 66  1  0  0  0  0
 42 44  1  0  0  0  0
 43 45  1  0  0  0  0
 43 46  1  0  0  0  0
 44 48  1  0  0  0  0
 45 50  1  0  0  0  0
 46 67  1  0  0  0  0
 47 50  1  0  0  0  0
 47 67  1  0  0  0  0
 48 70  1  0  0  0  0
 49 66  1  0  0  0  0
 50 65  1  0  0  0  0
 51 62  1  0  0  0  0
 52 63  1  0  0  0  0
 53 63  1  0  0  0  0
 54 63  1  0  0  0  0
 55 72  1  0  0  0  0
 56 73  1  0  0  0  0
 57 74  1  0  0  0  0
 58 73  1  0  0  0  0
 59 60  1  0  0  0  0
 59 72  1  0  0  0  0
 60 81  1  0  0  0  0
 61 63  1  0  0  0  0
 61 71  1  0  0  0  0
 62 74  1  0  0  0  0
 64 65  1  0  0  0  0
M  CHG  1  74   1
M  ISO  4  38 100  60 101  73 100  81 101
M  END
> <Batch ID>
0014

> <Smiles>
CNC(C)C(=O)NC(C(=O)N1Cc2cc([101O:1][101CH2:1]CN(C)c3ccc(C[100N:0](C)[100C:0](=O)N4CCCC(n5nc(-c6ccc(Oc7ccc(F)cc7F)cc6)c(C(N)=O)c5N)C4)cc3)ccc2CC1C(=O)NC1CCCc2ccccc21)C(C)(C)C

> <Shape>
0.241

> <Color>
0.066

> <Negative vol penalty>
0.000

$$$$

  -OEChem-04042320513D

 83 92  0     1  0  0  0  0  0999 V2000
  -22.0489  -12.1483   19.3092 C   0  0  0  0  0  0  0  0  0  0  0  0
  -21.9134  -13.5029   19.5956 C   0  0  0  0  0  0  0  0  0  0  0  0
  -28.9575  -27.2005   21.9958 C   0  0  0  0  0  0  0  0  0  0  0  0
  -27.1198  -26.1721   23.1799 C   0  0  0  0  0  0  0  0  0  0  0  0
  -23.2391  -11.4884   19.6128 C   0  0  0  0  0  0  0  0  0  0  0  0
  -22.9677  -14.1983   20.1866 C   0  0  0  0  0  0  0  0  0  0  0  0
  -23.7928  -18.6947   18.0080 C   0  0  0  0  0  0  0  0  0  0  0  0
  -19.5958  -25.1609   19.0530 C   0  0  0  0  0  0  0  0  0  0  0  0
  -19.1420  -24.0434   21.1465 C   0  0  0  0  0  0  0  0  0  0  0  0
  -20.3093  -24.0462   18.6126 C   0  0  0  0  0  0  0  0  0  0  0  0
  -19.8554  -22.9286   20.7060 C   0  0  0  0  0  0  0  0  0  0  0  0
  -29.8476  -26.7100   22.9511 C   0  0  0  0  0  0  0  0  0  0  0  0
  -28.0099  -25.6814   24.1352 C   0  0  0  0  0  0  0  0  0  0  0  0
  -22.9273  -19.7343   18.3457 C   0  0  0  0  0  0  0  0  0  0  0  0
  -32.5605  -26.0302   25.2752 C   0  0  0  0  0  0  0  0  0  0  0  0
  -33.5358  -26.9003   25.7624 C   0  0  0  0  0  0  0  0  0  0  0  0
  -24.5715  -20.5944   19.8872 C   0  0  0  0  0  0  0  0  0  0  0  0
  -31.8086  -28.3828   26.5725 C   0  0  0  0  0  0  0  0  0  0  0  0
  -27.5935  -26.9317   22.1103 C   0  0  0  0  0  0  0  0  0  0  0  0
  -26.6729  -27.1668   19.7428 C   0  0  0  0  0  0  0  0  0  0  0  0
  -24.3119  -12.1783   20.1990 C   0  0  0  0  0  0  0  0  0  0  0  0
  -25.0519  -18.5909   18.6164 C   0  0  0  0  0  0  0  0  0  0  0  0
  -24.1728  -13.5468   20.4995 C   0  0  0  0  0  0  0  0  0  0  0  0
  -25.4521  -19.5540   19.5535 C   0  0  0  0  0  0  0  0  0  0  0  0
  -19.0122  -25.1595   20.3200 C   0  0  0  0  0  0  0  0  0  0  0  0
  -20.4391  -22.9300   19.4391 C   0  0  0  0  0  0  0  0  0  0  0  0
  -29.3738  -25.9504   24.0208 C   0  0  0  0  0  0  0  0  0  0  0  0
  -23.3154  -20.6827   19.2876 C   0  0  0  0  0  0  0  0  0  0  0  0
  -31.2092  -26.3365   25.4366 C   0  0  0  0  0  0  0  0  0  0  0  0
  -33.1599  -28.0765   26.4111 C   0  0  0  0  0  0  0  0  0  0  0  0
  -30.8333  -27.5127   26.0852 C   0  0  0  0  0  0  0  0  0  0  0  0
  -26.6734  -27.4387   21.1241 C   0  0  0  0  0  0  0  0  0  0  0  0
  -25.6077  -27.8820   19.2526 C   0  0  0  0  0  0  0  0  0  0  0  0
  -27.5562  -26.3416   18.9719 C   0  0  0  0  0  0  0  0  0  0  0  0
  -20.5781  -29.8849   21.8610 C   0  0  0  0  0  0  0  0  0  0  0  0
  -26.4808  -16.4320   20.4607 C   0  0  0  0  0  0  0  0  0  0  0  0
  -29.0524  -18.3698   20.0674 C   0  0  0  0  0  0  0  0  0  0  0  0
  -30.2505  -21.4877   19.3674 C   0  0  0  0  0  0  0  0  0  0  0  0
  -25.5618  -11.4116   20.5522 C   0  0  0  0  0  0  0  0  0  0  0  0
  -25.9845  -17.4787   18.2215 C   0  0  0  0  0  0  0  0  0  0  0  0
  -26.8014  -19.4989   20.2205 C   0  0  0  0  0  0  0  0  0  0  0  0
  -26.7659  -12.3064   20.8345 C   0  0  0  0  0  0  0  0  0  0  0  0
  -23.0238  -31.8120   20.0876 C   0  0  0  0  0  0  0  0  0  0  0  0
  -26.3737  -13.4524   21.7616 C   0  0  0  0  0  0  0  0  0  0  0  0
  -24.2460  -30.8954   20.0517 C   0  0  0  0  0  0  0  0  0  0  0  0
  -19.0195  -28.8190   23.4695 C   0  0  0  0  0  0  0  0  0  0  0  0
  -22.2430  -31.6510   21.3882 C   0  0  0  0  0  0  0  0  0  0  0  0
  -23.0503  -29.3261   21.6432 C   0  0  0  0  0  0  0  0  0  0  0  0
  -18.0280  -28.1377   22.5503 C   0  0  0  0  0  0  0  0  0  0  0  0
  -20.2551  -27.4134   21.9098 C   0  0  0  0  0  0  0  0  0  0  0  0
  -25.3028  -14.3412   21.1177 C   0  0  1  0  0  0  0  0  0  0  0  0
  -20.3495  -28.6908   22.7383 C   0  0  1  0  0  0  0  0  0  0  0  0
  -27.0391  -17.1783   19.2821 C   0  0  1  0  0  0  0  0  0  0  0  0
  -23.8502  -29.4350   20.3329 C   0  0  2  0  0  0  0  0  0  0  0  0
  -32.3960  -22.7722   19.1572 C   0  0  0  0  0  0  0  0  0  0  0  0
  -29.2988  -18.4510   23.1076 C   0  0  0  0  0  0  0  0  0  0  0  0
  -30.7973  -20.4418   22.8633 C   0  0  0  0  0  0  0  0  0  0  0  0
  -31.4736  -18.2469   21.8897 C   0  0  0  0  0  0  0  0  0  0  0  0
  -29.7256  -22.1250   16.5254 C   0  0  0  0  0  0  0  0  0  0  0  0
  -18.2493  -26.3509   20.7916 C   0  0  0  0  0  0  0  0  0  0  0  0
  -21.2052  -21.7307   18.9639 C   0  0  0  0  0  0  0  0  0  1  0  0
  -29.6120  -19.5654   20.7997 C   0  0  1  0  0  0  0  0  0  0  0  0
  -31.3414  -21.9590   18.4228 C   0  0  2  0  0  0  0  0  0  0  0  0
  -30.2692  -19.1765   22.1541 C   0  0  0  0  0  0  0  0  0  0  0  0
  -25.6870  -28.2624   21.4879 N   0  0  0  0  0  0  0  0  0  0  0  0
  -25.0566  -28.5144   20.3281 N   0  0  0  0  0  0  0  0  0  0  0  0
  -21.9054  -30.2472   21.6304 N   0  0  0  0  0  0  0  0  0  0  0  0
  -27.6751  -18.3890   19.8056 N   0  0  0  0  0  0  0  0  0  0  0  0
  -25.0980  -28.0254   18.0108 N   0  0  0  0  0  0  0  0  0  0  0  0
  -27.2299  -24.9890   18.8034 N   0  0  0  0  0  0  0  0  0  0  0  0
  -25.8997  -15.2211   20.1359 N   0  0  0  0  0  0  0  0  0  0  0  0
  -30.5151  -20.2298   19.8663 N   0  0  0  0  0  0  0  0  0  0  0  0
  -18.8132  -26.9633   22.0321 N   0  3  2  0  0  0  0  0  0  0  0  0
  -30.7612  -22.8071   17.3435 N   0  3  0  0  0  0  0  0  0  0  0  0
  -28.6122  -26.7865   18.4616 O   0  0  0  0  0  0  0  0  0  0  0  0
  -19.6059  -30.4803   21.3892 O   0  0  0  0  0  0  0  0  0  0  0  0
  -26.5719  -16.9181   21.5819 O   0  0  0  0  0  0  0  0  0  0  0  0
  -29.8106  -17.4559   19.7334 O   0  0  0  0  0  0  0  0  0  0  0  0
  -29.2641  -22.1689   19.6387 O   0  0  0  0  0  0  0  0  0  0  0  0
  -30.2422  -25.4713   24.9530 O   0  0  0  0  0  0  0  0  0  0  0  0
  -22.4723  -21.6980   19.6195 O   0  0  0  0  0  0  0  0  0  1  0  0
  -34.0966  -28.9112   26.8803 F   0  0  0  0  0  0  0  0  0  0  0  0
  -29.5367  -27.8117   26.2443 F   0  0  0  0  0  0  0  0  0  0  0  0
  1  2  1  0  0  0  0
  1  5  2  0  0  0  0
  2  6  2  0  0  0  0
  3 12  2  0  0  0  0
  3 19  1  0  0  0  0
  4 13  1  0  0  0  0
  4 19  2  0  0  0  0
  5 21  1  0  0  0  0
  6 23  1  0  0  0  0
  7 14  2  0  0  0  0
  7 22  1  0  0  0  0
  8 10  2  0  0  0  0
  8 25  1  0  0  0  0
  9 11  1  0  0  0  0
  9 25  2  0  0  0  0
 10 26  1  0  0  0  0
 11 26  2  0  0  0  0
 12 27  1  0  0  0  0
 13 27  2  0  0  0  0
 14 28  1  0  0  0  0
 15 16  2  0  0  0  0
 15 29  1  0  0  0  0
 16 30  1  0  0  0  0
 17 24  1  0  0  0  0
 17 28  2  0  0  0  0
 18 30  2  0  0  0  0
 18 31  1  0  0  0  0
 19 32  1  0  0  0  0
 20 32  1  0  0  0  0
 20 33  2  0  0  0  0
 20 34  1  0  0  0  0
 21 23  2  0  0  0  0
 21 39  1  0  0  0  0
 22 24  2  0  0  0  0
 22 40  1  0  0  0  0
 23 51  1  0  0  0  0
 24 41  1  0  0  0  0
 25 60  1  0  0  0  0
 26 61  1  0  0  0  0
 27 80  1  0  0  0  0
 28 81  1  0  0  0  0
 29 31  2  0  0  0  0
 29 80  1  0  0  0  0
 30 82  1  0  0  0  0
 31 83  1  0  0  0  0
 32 65  2  0  0  0  0
 33 66  1  0  0  0  0
 33 69  1  0  0  0  0
 34 70  1  0  0  0  0
 34 75  2  0  0  0  0
 35 52  1  0  0  0  0
 35 67  1  0  0  0  0
 35 76  2  0  0  0  0
 36 53  1  0  0  0  0
 36 71  1  0  0  0  0
 36 77  2  0  0  0  0
 37 62  1  0  0  0  0
 37 68  1  0  0  0  0
 37 78  2  0  0  0  0
 38 63  1  0  0  0  0
 38 72  1  0  0  0  0
 38 79  2  0  0  0  0
 39 42  1  0  0  0  0
 40 53  1  0  0  0  0
 41 68  1  0  0  0  0
 42 44  1  0  0  0  0
 43 45  1  0  0  0  0
 43 47  1  0  0  0  0
 44 51  1  0  0  0  0
 45 54  1  0  0  0  0
 46 49  1  0  0  0  0
 46 52  1  0  0  0  0
 47 67  1  0  0  0  0
 48 54  1  0  0  0  0
 48 67  1  0  0  0  0
 49 73  1  0  0  0  0
 50 52  1  0  0  0  0
 50 73  1  0  0  0  0
 51 71  1  0  0  0  0
 53 68  1  0  0  0  0
 54 66  1  0  0  0  0
 55 63  1  0  0  0  0
 56 64  1  0  0  0  0
 57 64  1  0  0  0  0
 58 64  1  0  0  0  0
 59 74  1  0  0  0  0
 60 73  1  0  0  0  0
 61 81  1  0  0  0  0
 62 64  1  0  0  0  0
 62 72  1  0  0  0  0
 63 74  1  0  0  0  0
 65 66  1  0  0  0  0
M  CHG  2  73   1  74   1
M  ISO  4  35 100  52 100  61 101  81 101
M  END
> <Batch ID>
0014

> <Smiles>
CNC(C)C(=O)NC(C(=O)N1Cc2cc([101O:1][101CH2:1]c3ccc(CN4CC[100CH:0]([100C:0](=O)N5CCCC(n6nc(-c7ccc(Oc8ccc(F)cc8F)cc7)c(C(N)=O)c6N)C5)C4)cc3)ccc2CC1C(=O)NC1CCCc2ccccc21)C(C)(C)C

> <Shape>
0.216

> <Color>
0.085

> <Negative vol penalty>
0.000

$$$$

  -OEChem-04042320513D

 85 94  0     1  0  0  0  0  0999 V2000
  -33.0279  -32.6336   19.3516 C   0  0  0  0  0  0  0  0  0  0  0  0
  -33.7802  -31.5547   19.8049 C   0  0  0  0  0  0  0  0  0  0  0  0
  -23.0302   -9.9870   19.8943 C   0  0  0  0  0  0  0  0  0  0  0  0
  -23.8582   -9.8376   22.1591 C   0  0  0  0  0  0  0  0  0  0  0  0
  -31.7019  -32.7771   19.7578 C   0  0  0  0  0  0  0  0  0  0  0  0
  -33.2071  -30.6192   20.6657 C   0  0  0  0  0  0  0  0  0  0  0  0
  -33.4208  -23.6404   22.2675 C   0  0  0  0  0  0  0  0  0  0  0  0
  -30.7205  -18.0399   24.2859 C   0  0  0  0  0  0  0  0  0  0  0  0
  -30.0827  -17.2371   23.3381 C   0  0  0  0  0  0  0  0  0  0  0  0
  -22.2717   -8.8338   20.0955 C   0  0  0  0  0  0  0  0  0  0  0  0
  -23.0996   -8.6845   22.3603 C   0  0  0  0  0  0  0  0  0  0  0  0
  -33.5816  -22.7907   23.3612 C   0  0  0  0  0  0  0  0  0  0  0  0
  -19.8759   -7.9079   23.0122 C   0  0  0  0  0  0  0  0  0  0  0  0
  -19.1536   -7.8085   24.2013 C   0  0  0  0  0  0  0  0  0  0  0  0
  -32.2174  -16.3962   22.6390 C   0  0  0  0  0  0  0  0  0  0  0  0
  -31.2583  -23.0975   23.9333 C   0  0  0  0  0  0  0  0  0  0  0  0
  -20.3783   -5.8073   24.7780 C   0  0  0  0  0  0  0  0  0  0  0  0
  -23.8235  -10.4889   20.9260 C   0  0  0  0  0  0  0  0  0  0  0  0
  -24.2109  -13.0101   20.9516 C   0  0  0  0  0  0  0  0  0  0  0  0
  -31.1094  -31.8377   20.6163 C   0  0  0  0  0  0  0  0  0  0  0  0
  -32.1782  -24.2345   22.0044 C   0  0  0  0  0  0  0  0  0  0  0  0
  -31.8723  -30.7511   21.0849 C   0  0  0  0  0  0  0  0  0  0  0  0
  -32.8833  -17.2157   23.5767 C   0  0  0  0  0  0  0  0  0  0  0  0
  -31.0837  -23.9522   22.8341 C   0  0  0  0  0  0  0  0  0  0  0  0
  -32.1240  -18.0456   24.4467 C   0  0  0  0  0  0  0  0  0  0  0  0
  -30.8313  -16.4095   22.5185 C   0  0  0  0  0  0  0  0  0  0  0  0
  -22.3064   -8.1826   21.3285 C   0  0  0  0  0  0  0  0  0  0  0  0
  -32.5009  -22.5215   24.1959 C   0  0  0  0  0  0  0  0  0  0  0  0
  -20.8494   -6.9569   22.7059 C   0  0  0  0  0  0  0  0  0  0  0  0
  -19.4048   -6.7582   25.0842 C   0  0  0  0  0  0  0  0  0  0  0  0
  -21.1006   -5.9067   23.5888 C   0  0  0  0  0  0  0  0  0  0  0  0
  -24.6077  -11.6797   20.7186 C   0  0  0  0  0  0  0  0  0  0  0  0
  -25.3062  -13.7614   20.6016 C   0  0  0  0  0  0  0  0  0  0  0  0
  -22.9638  -13.5212   21.4407 C   0  0  0  0  0  0  0  0  0  0  0  0
  -31.1043  -27.2233   21.8707 C   0  0  0  0  0  0  0  0  0  0  0  0
  -28.3845  -25.7870   20.8401 C   0  0  0  0  0  0  0  0  0  0  0  0
  -26.4511  -22.9765   20.7402 C   0  0  0  0  0  0  0  0  0  0  0  0
  -30.7946  -14.6973   20.6710 C   0  0  0  0  0  0  0  0  0  0  0  0
  -29.6871  -32.0607   21.0657 C   0  0  0  0  0  0  0  0  0  0  0  0
  -32.0146  -25.1276   20.8052 C   0  0  0  0  0  0  0  0  0  0  0  0
  -29.7237  -24.5488   22.5833 C   0  0  0  0  0  0  0  0  0  0  0  0
  -29.0414  -30.8219   21.6811 C   0  0  0  0  0  0  0  0  0  0  0  0
  -29.5630  -12.4558   18.1939 C   0  0  0  0  0  0  0  0  0  0  0  0
  -29.9878  -30.1687   22.6833 C   0  0  0  0  0  0  0  0  0  0  0  0
  -28.1314  -12.1635   18.6491 C   0  0  0  0  0  0  0  0  0  0  0  0
  -34.9336  -18.3975   24.4429 C   0  0  0  0  0  0  0  0  0  0  0  0
  -30.5178  -12.5931   19.3784 C   0  0  0  0  0  0  0  0  0  0  0  0
  -34.1472  -18.6253   25.7218 C   0  0  0  0  0  0  0  0  0  0  0  0
  -28.6675  -13.2637   20.8602 C   0  0  0  0  0  0  0  0  0  0  0  0
  -31.2787  -29.7019   21.9997 C   0  0  1  0  0  0  0  0  0  0  0  0
  -30.8326  -26.0841   20.9293 C   0  0  1  0  0  0  0  0  0  0  0  0
  -27.6567  -13.1813   19.7047 C   0  0  2  0  0  0  0  0  0  0  0  0
  -34.4151  -17.1694   23.6643 C   0  0  0  0  0  0  0  0  0  0  0  0
  -34.8373  -15.8663   24.3742 C   0  0  0  0  0  0  0  0  0  0  0  0
  -35.0851  -17.2088   22.2719 C   0  0  0  0  0  0  0  0  0  0  0  0
  -24.2653  -22.1197   19.8539 C   0  0  0  0  0  0  0  0  0  0  0  0
  -26.9043  -27.2889   23.0453 C   0  0  0  0  0  0  0  0  0  0  0  0
  -24.9842  -25.7127   22.7340 C   0  0  0  0  0  0  0  0  0  0  0  0
  -25.6973  -27.1930   20.8571 C   0  0  0  0  0  0  0  0  0  0  0  0
  -27.7941  -20.9202   19.0889 C   0  0  0  0  0  0  0  0  0  0  0  0
  -31.9616  -19.6517   26.3419 C   0  0  0  0  0  0  0  0  0  0  0  0
  -31.5145  -20.9417   25.6748 C   0  0  0  0  0  0  0  0  0  1  0  0
  -27.1508  -25.2294   21.5079 C   0  0  1  0  0  0  0  0  0  0  0  0
  -25.7550  -22.2732   19.5890 C   0  0  2  0  0  0  0  0  0  0  0  0
  -26.2102  -26.3462   22.0422 C   0  0  0  0  0  0  0  0  0  0  0  0
  -25.8574  -11.5878   20.2562 N   0  0  0  0  0  0  0  0  0  0  0  0
  -26.2553  -12.8700   20.1957 N   0  0  0  0  0  0  0  0  0  0  0  0
  -32.7403  -18.8449   25.4119 N   0  0  3  0  0  0  0  0  0  0  0  0
  -29.6158  -25.4206   21.4019 N   0  0  0  0  0  0  0  0  0  0  0  0
  -30.0056  -13.5770   20.3347 N   0  0  0  0  0  0  0  0  0  0  0  0
  -25.5403  -15.0909   20.6044 N   0  0  0  0  0  0  0  0  0  0  0  0
  -21.9448  -12.6108   21.7524 N   0  0  0  0  0  0  0  0  0  0  0  0
  -30.1901  -15.5809   21.5646 N   0  0  0  0  0  0  0  0  0  0  0  0
  -31.0504  -28.4695   21.2762 N   0  0  0  0  0  0  0  0  0  0  0  0
  -26.5278  -24.3380   20.5355 N   0  0  0  0  0  0  0  0  0  0  0  0
  -26.3377  -20.9173   19.3820 N   0  3  0  0  0  0  0  0  0  0  0  0
  -22.7535  -14.7499   21.5812 O   0  0  0  0  0  0  0  0  0  0  0  0
  -31.3436  -26.9890   23.0495 O   0  0  0  0  0  0  0  0  0  0  0  0
  -28.2606  -26.5148   19.8519 O   0  0  0  0  0  0  0  0  0  0  0  0
  -26.8803  -22.3785   21.7244 O   0  0  0  0  0  0  0  0  0  0  0  0
  -31.9123  -14.8748   20.1799 O   0  0  0  0  0  0  0  0  0  0  0  0
  -21.5662   -7.0574   21.5254 O   0  0  0  0  0  0  0  0  0  0  0  0
  -32.6563  -21.6873   25.2719 O   0  0  0  0  0  0  0  0  0  1  0  0
  -18.7122   -6.6637   26.2268 F   0  0  0  0  0  0  0  0  0  0  0  0
  -22.0354   -4.9908   23.3005 F   0  0  0  0  0  0  0  0  0  0  0  0
  1  2  1  0  0  0  0
  1  5  2  0  0  0  0
  2  6  2  0  0  0  0
  3 10  2  0  0  0  0
  3 18  1  0  0  0  0
  4 11  1  0  0  0  0
  4 18  2  0  0  0  0
  5 20  1  0  0  0  0
  6 22  1  0  0  0  0
  7 12  2  0  0  0  0
  7 21  1  0  0  0  0
  8  9  2  0  0  0  0
  8 25  1  0  0  0  0
  9 26  1  0  0  0  0
 10 27  1  0  0  0  0
 11 27  2  0  0  0  0
 12 28  1  0  0  0  0
 13 14  2  0  0  0  0
 13 29  1  0  0  0  0
 14 30  1  0  0  0  0
 15 23  1  0  0  0  0
 15 26  2  0  0  0  0
 16 24  1  0  0  0  0
 16 28  2  0  0  0  0
 17 30  2  0  0  0  0
 17 31  1  0  0  0  0
 18 32  1  0  0  0  0
 19 32  1  0  0  0  0
 19 33  2  0  0  0  0
 19 34  1  0  0  0  0
 20 22  2  0  0  0  0
 20 39  1  0  0  0  0
 21 24  2  0  0  0  0
 21 40  1  0  0  0  0
 22 50  1  0  0  0  0
 23 25  2  0  0  0  0
 23 53  1  0  0  0  0
 24 41  1  0  0  0  0
 25 68  1  0  0  0  0
 26 73  1  0  0  0  0
 27 82  1  0  0  0  0
 28 83  1  0  0  0  0
 29 31  2  0  0  0  0
 29 82  1  0  0  0  0
 30 84  1  0  0  0  0
 31 85  1  0  0  0  0
 32 66  2  0  0  0  0
 33 67  1  0  0  0  0
 33 71  1  0  0  0  0
 34 72  1  0  0  0  0
 34 77  2  0  0  0  0
 35 51  1  0  0  0  0
 35 74  1  0  0  0  0
 35 78  2  0  0  0  0
 36 63  1  0  0  0  0
 36 69  1  0  0  0  0
 36 79  2  0  0  0  0
 37 64  1  0  0  0  0
 37 75  1  0  0  0  0
 37 80  2  0  0  0  0
 38 70  1  0  0  0  0
 38 73  1  0  0  0  0
 38 81  2  0  0  0  0
 39 42  1  0  0  0  0
 40 51  1  0  0  0  0
 41 69  1  0  0  0  0
 42 44  1  0  0  0  0
 43 45  1  0  0  0  0
 43 47  1  0  0  0  0
 44 50  1  0  0  0  0
 45 52  1  0  0  0  0
 46 48  1  0  0  0  0
 46 53  1  0  0  0  0
 47 70  1  0  0  0  0
 48 68  1  0  0  0  0
 49 52  1  0  0  0  0
 49 70  1  0  0  0  0
 50 74  1  0  0  0  0
 51 69  1  0  0  0  0
 52 67  1  0  0  0  0
 53 54  1  0  0  0  0
 53 55  1  0  0  0  0
 56 64  1  0  0  0  0
 57 65  1  0  0  0  0
 58 65  1  0  0  0  0
 59 65  1  0  0  0  0
 60 76  1  0  0  0  0
 61 62  1  0  0  0  0
 61 68  1  0  0  0  0
 62 83  1  0  0  0  0
 63 65  1  0  0  0  0
 63 75  1  0  0  0  0
 64 76  1  0  0  0  0
 66 67  1  0  0  0  0
M  CHG  1  76   1
M  ISO  4  38 100  62 101  73 100  83 101
M  END
> <Batch ID>
0014

> <Smiles>
CNC(C)C(=O)NC(C(=O)N1Cc2cc([101O:1][101CH2:1]CN3CCC(C)(C)c4cc([100NH:0][100C:0](=O)N5CCCC(n6nc(-c7ccc(Oc8ccc(F)cc8F)cc7)c(C(N)=O)c6N)C5)ccc43)ccc2CC1C(=O)NC1CCCc2ccccc21)C(C)(C)C

> <Shape>
0.207

> <Color>
0.211

> <Negative vol penalty>
0.000

$$$$

  -OEChem-04042320513D

 86 93  0     1  0  0  0  0  0999 V2000
  -16.4080  -26.4705   25.6637 C   0  0  0  0  0  0  0  0  0  0  0  0
  -17.5309  -25.7014   25.9517 C   0  0  0  0  0  0  0  0  0  0  0  0
  -23.0118  -10.0623   21.5041 C   0  0  0  0  0  0  0  0  0  0  0  0
  -23.8823  -10.9169   23.5896 C   0  0  0  0  0  0  0  0  0  0  0  0
  -16.4071  -27.3116   24.5518 C   0  0  0  0  0  0  0  0  0  0  0  0
  -18.6533  -25.7722   25.1273 C   0  0  0  0  0  0  0  0  0  0  0  0
  -25.8004  -25.3583   25.3790 C   0  0  0  0  0  0  0  0  0  0  0  0
  -22.2499   -9.1277   22.2052 C   0  0  0  0  0  0  0  0  0  0  0  0
  -23.1204   -9.9822   24.2906 C   0  0  0  0  0  0  0  0  0  0  0  0
  -26.8625  -24.6884   24.7731 C   0  0  0  0  0  0  0  0  0  0  0  0
  -20.3500   -6.2791   23.4297 C   0  0  0  0  0  0  0  0  0  0  0  0
  -20.3395   -4.9656   22.9605 C   0  0  0  0  0  0  0  0  0  0  0  0
  -26.7764  -26.2360   22.9247 C   0  0  0  0  0  0  0  0  0  0  0  0
  -22.7329   -4.8378   23.2646 C   0  0  0  0  0  0  0  0  0  0  0  0
  -23.8281  -10.9569   22.1963 C   0  0  0  0  0  0  0  0  0  0  0  0
  -24.2323  -13.2244   21.0995 C   0  0  0  0  0  0  0  0  0  0  0  0
  -17.5336  -27.4000   23.7187 C   0  0  0  0  0  0  0  0  0  0  0  0
  -25.2103  -26.4674   24.7560 C   0  0  0  0  0  0  0  0  0  0  0  0
  -18.6669  -26.6143   24.0024 C   0  0  0  0  0  0  0  0  0  0  0  0
  -25.7087  -26.9198   23.5259 C   0  0  0  0  0  0  0  0  0  0  0  0
  -22.3041   -9.0876   23.5984 C   0  0  0  0  0  0  0  0  0  0  0  0
  -27.3488  -25.1255   23.5445 C   0  0  0  0  0  0  0  0  0  0  0  0
  -21.5520   -6.8720   23.8164 C   0  0  0  0  0  0  0  0  0  0  0  0
  -21.5309   -4.2449   22.8779 C   0  0  0  0  0  0  0  0  0  0  0  0
  -22.7434   -6.1513   23.7339 C   0  0  0  0  0  0  0  0  0  0  0  0
  -24.6158  -11.9223   21.4727 C   0  0  0  0  0  0  0  0  0  0  0  0
  -25.3254  -13.7280   20.4378 C   0  0  0  0  0  0  0  0  0  0  0  0
  -22.9982  -13.9167   21.3304 C   0  0  0  0  0  0  0  0  0  0  0  0
  -22.3076  -27.1355   23.6461 C   0  0  0  0  0  0  0  0  0  0  0  0
  -23.5844  -30.0829   23.1932 C   0  0  0  0  0  0  0  0  0  0  0  0
  -30.2592  -17.9402   21.2728 C   0  0  0  0  0  0  0  0  0  0  0  0
  -26.3753  -31.9910   22.7280 C   0  0  0  0  0  0  0  0  0  0  0  0
  -30.8637  -14.4729   20.2042 C   0  0  0  0  0  0  0  0  0  0  0  0
  -17.4683  -28.2879   22.5013 C   0  0  0  0  0  0  0  0  0  0  0  0
  -24.0828  -27.1953   25.4352 C   0  0  0  0  0  0  0  0  0  0  0  0
  -25.1233  -28.1177   22.8254 C   0  0  0  0  0  0  0  0  0  0  0  0
  -18.8353  -28.5863   21.8910 C   0  0  0  0  0  0  0  0  0  0  0  0
  -29.5136  -11.4541   18.7674 C   0  0  0  0  0  0  0  0  0  0  0  0
  -19.6563  -27.3065   21.7690 C   0  0  0  0  0  0  0  0  0  0  0  0
  -28.1007  -11.3955   19.3468 C   0  0  0  0  0  0  0  0  0  0  0  0
  -30.5006  -12.0585   19.7611 C   0  0  0  0  0  0  0  0  0  0  0  0
  -28.6835  -13.3578   20.8414 C   0  0  0  0  0  0  0  0  0  0  0  0
  -19.9128  -26.6822   23.1459 C   0  0  1  0  0  0  0  0  0  0  0  0
  -23.2220  -28.0005   24.4667 C   0  0  1  0  0  0  0  0  0  0  0  0
  -27.6548  -12.7778   19.8556 C   0  0  2  0  0  0  0  0  0  0  0  0
  -27.0987  -34.3641   22.3503 C   0  0  0  0  0  0  0  0  0  0  0  0
  -30.5913  -19.6577   25.6897 C   0  0  0  0  0  0  0  0  0  0  0  0
  -32.1821  -20.8743   24.1922 C   0  0  0  0  0  0  0  0  0  0  0  0
  -27.8922  -19.6990   21.0317 C   0  0  0  0  0  0  0  0  0  0  0  0
  -22.6594  -29.9005   20.2913 C   0  0  0  0  0  0  0  0  0  0  0  0
  -24.2002  -31.7993   19.7538 C   0  0  0  0  0  0  0  0  0  0  0  0
  -22.3186  -32.1375   21.3562 C   0  0  0  0  0  0  0  0  0  0  0  0
  -32.2554  -19.3988   20.8389 C   0  0  0  0  0  0  0  0  0  0  0  0
  -27.9675  -32.0249   25.2225 C   0  0  0  0  0  0  0  0  0  0  0  0
  -31.0577  -16.7935   20.6894 C   0  0  0  0  0  0  0  0  0  0  0  0
  -29.8761  -20.1745   23.3353 C   0  0  0  0  0  0  0  0  0  0  0  0
  -29.1487  -23.2467   21.0284 C   0  0  0  0  0  0  0  0  0  0  0  0
  -28.4278  -24.4846   21.5244 C   0  0  0  0  0  0  0  0  0  1  0  0
  -24.3209  -30.7674   22.0672 C   0  0  1  0  0  0  0  0  0  0  0  0
  -26.8349  -33.2804   23.3842 C   0  0  2  0  0  0  0  0  0  0  0  0
  -31.0738  -19.8216   24.2451 C   0  0  0  0  0  0  0  0  0  0  0  0
  -30.2268  -20.3679   21.8458 C   0  0  2  0  0  0  0  0  0  0  0  0
  -28.9940  -20.7539   21.0006 C   0  0  2  0  0  0  0  0  0  0  0  0
  -23.3848  -31.1274   20.8791 C   0  0  0  0  0  0  0  0  0  0  0  0
  -25.8558  -11.6177   21.0805 N   0  0  0  0  0  0  0  0  0  0  0  0
  -26.2608  -12.7355   20.4539 N   0  0  0  0  0  0  0  0  0  0  0  0
  -24.0183  -28.7921   23.5267 N   0  0  0  0  0  0  0  0  0  0  0  0
  -30.0292  -13.3520   20.2543 N   0  0  0  0  0  0  0  0  0  0  0  0
  -25.5682  -14.9185   19.8494 N   0  0  0  0  0  0  0  0  0  0  0  0
  -21.9795  -13.2524   22.0270 N   0  0  0  0  0  0  0  0  0  0  0  0
  -20.9643  -27.3971   23.8371 N   0  0  0  0  0  0  0  0  0  0  0  0
  -25.0003  -31.9137   22.6612 N   0  0  0  0  0  0  0  0  0  0  0  0
  -30.8879  -19.1941   21.3195 N   0  0  0  0  0  0  0  0  0  0  0  0
  -28.0895  -33.0508   24.1551 N   0  3  0  0  0  0  0  0  0  0  0  0
  -28.4120  -22.0380   21.4762 N   0  3  0  0  0  0  0  0  0  0  0  0
  -22.7985  -15.0840   20.9165 O   0  0  0  0  0  0  0  0  0  0  0  0
  -22.7855  -26.2941   22.8941 O   0  0  0  0  0  0  0  0  0  0  0  0
  -22.6628  -30.6746   23.7608 O   0  0  0  0  0  0  0  0  0  0  0  0
  -29.1092  -17.7223   21.6665 O   0  0  0  0  0  0  0  0  0  0  0  0
  -27.1580  -31.1393   22.3125 O   0  0  0  0  0  0  0  0  0  0  0  0
  -32.0108  -14.4633   19.7612 O   0  0  0  0  0  0  0  0  0  0  0  0
  -21.5606   -8.1759   24.2828 O   0  0  0  0  0  0  0  0  0  0  0  0
  -28.3849  -24.4730   22.9507 O   0  0  0  0  0  0  0  0  0  1  0  0
  -30.2669  -15.5994   20.7052 O   0  0  0  0  0  0  0  0  0  0  0  0
  -21.5205   -2.9831   22.4288 F   0  0  0  0  0  0  0  0  0  0  0  0
  -23.9010   -6.7152   24.1050 F   0  0  0  0  0  0  0  0  0  0  0  0
  1  2  1  0  0  0  0
  1  5  2  0  0  0  0
  2  6  2  0  0  0  0
  3  8  2  0  0  0  0
  3 15  1  0  0  0  0
  4  9  1  0  0  0  0
  4 15  2  0  0  0  0
  5 17  1  0  0  0  0
  6 19  1  0  0  0  0
  7 10  2  0  0  0  0
  7 18  1  0  0  0  0
  8 21  1  0  0  0  0
  9 21  2  0  0  0  0
 10 22  1  0  0  0  0
 11 12  2  0  0  0  0
 11 23  1  0  0  0  0
 12 24  1  0  0  0  0
 13 20  1  0  0  0  0
 13 22  2  0  0  0  0
 14 24  2  0  0  0  0
 14 25  1  0  0  0  0
 15 26  1  0  0  0  0
 16 26  1  0  0  0  0
 16 27  2  0  0  0  0
 16 28  1  0  0  0  0
 17 19  2  0  0  0  0
 17 34  1  0  0  0  0
 18 20  2  0  0  0  0
 18 35  1  0  0  0  0
 19 43  1  0  0  0  0
 20 36  1  0  0  0  0
 21 82  1  0  0  0  0
 22 83  1  0  0  0  0
 23 25  2  0  0  0  0
 23 82  1  0  0  0  0
 24 85  1  0  0  0  0
 25 86  1  0  0  0  0
 26 65  2  0  0  0  0
 27 66  1  0  0  0  0
 27 69  1  0  0  0  0
 28 70  1  0  0  0  0
 28 76  2  0  0  0  0
 29 44  1  0  0  0  0
 29 71  1  0  0  0  0
 29 77  2  0  0  0  0
 30 59  1  0  0  0  0
 30 67  1  0  0  0  0
 30 78  2  0  0  0  0
 31 55  1  0  0  0  0
 31 73  1  0  0  0  0
 31 79  2  0  0  0  0
 32 60  1  0  0  0  0
 32 72  1  0  0  0  0
 32 80  2  0  0  0  0
 33 68  1  0  0  0  0
 33 81  2  0  0  0  0
 33 84  1  0  0  0  0
 34 37  1  0  0  0  0
 35 44  1  0  0  0  0
 36 67  1  0  0  0  0
 37 39  1  0  0  0  0
 38 40  1  0  0  0  0
 38 41  1  0  0  0  0
 39 43  1  0  0  0  0
 40 45  1  0  0  0  0
 41 68  1  0  0  0  0
 42 45  1  0  0  0  0
 42 68  1  0  0  0  0
 43 71  1  0  0  0  0
 44 67  1  0  0  0  0
 45 66  1  0  0  0  0
 46 60  1  0  0  0  0
 47 61  1  0  0  0  0
 48 61  1  0  0  0  0
 49 63  1  0  0  0  0
 50 64  1  0  0  0  0
 51 64  1  0  0  0  0
 52 64  1  0  0  0  0
 53 73  1  0  0  0  0
 54 74  1  0  0  0  0
 55 84  1  0  0  0  0
 56 61  1  0  0  0  0
 56 62  1  0  0  0  0
 57 58  1  0  0  0  0
 57 75  1  0  0  0  0
 58 83  1  0  0  0  0
 59 64  1  0  0  0  0
 59 72  1  0  0  0  0
 60 74  1  0  0  0  0
 62 63  1  0  0  0  0
 62 73  1  0  0  0  0
 63 75  1  0  0  0  0
 65 66  1  0  0  0  0
M  CHG  2  74   1  75   1
M  ISO  4  33 100  58 101  83 101  84 100
M  END
> <Batch ID>
0014

> <Smiles>
CNC(C)C(=O)NC(C(=O)N1Cc2cc([101O:1][101CH2:1]CNC(C)C(CC(C)C)N(C)C(=O)C[100O:0][100C:0](=O)N3CCCC(n4nc(-c5ccc(Oc6ccc(F)cc6F)cc5)c(C(N)=O)c4N)C3)ccc2CC1C(=O)NC1CCCc2ccccc21)C(C)(C)C

> <Shape>
0.314

> <Color>
0.158

> <Negative vol penalty>
0.000

$$$$

  -OEChem-04042320513D

 84 92  0     1  0  0  0  0  0999 V2000
  -31.9677  -18.1865   19.5296 C   0  0  0  0  0  0  0  0  0  0  0  0
  -31.5088  -17.4893   20.6414 C   0  0  0  0  0  0  0  0  0  0  0  0
  -26.6887  -29.7545   19.2968 C   0  0  0  0  0  0  0  0  0  0  0  0
  -26.2705  -29.0525   21.5704 C   0  0  0  0  0  0  0  0  0  0  0  0
  -27.2355  -20.6078   24.9700 C   0  0  0  0  0  0  0  0  0  0  0  0
  -31.1690  -18.2802   18.3919 C   0  0  0  0  0  0  0  0  0  0  0  0
  -30.2560  -16.8755   20.6117 C   0  0  0  0  0  0  0  0  0  0  0  0
  -29.0677  -14.0342   24.4481 C   0  0  0  0  0  0  0  0  0  0  0  0
  -27.8336  -21.4635   24.0450 C   0  0  0  0  0  0  0  0  0  0  0  0
  -25.5406  -30.5459   19.3299 C   0  0  0  0  0  0  0  0  0  0  0  0
  -25.1223  -29.8439   21.6036 C   0  0  0  0  0  0  0  0  0  0  0  0
  -28.7604  -14.5542   25.7046 C   0  0  0  0  0  0  0  0  0  0  0  0
  -22.5221  -32.4714   18.6942 C   0  0  0  0  0  0  0  0  0  0  0  0
  -21.6667  -32.4222   17.5935 C   0  0  0  0  0  0  0  0  0  0  0  0
  -26.4170  -14.1633   25.2866 C   0  0  0  0  0  0  0  0  0  0  0  0
  -27.7322  -19.7246   22.3707 C   0  0  0  0  0  0  0  0  0  0  0  0
  -21.3437  -30.0547   17.9504 C   0  0  0  0  0  0  0  0  0  0  0  0
  -27.0537  -29.0078   20.4171 C   0  0  0  0  0  0  0  0  0  0  0  0
  -26.8858  -19.3104   24.5954 C   0  0  0  0  0  0  0  0  0  0  0  0
  -29.5460  -28.5714   20.7418 C   0  0  0  0  0  0  0  0  0  0  0  0
  -29.9008  -17.6776   18.3535 C   0  0  0  0  0  0  0  0  0  0  0  0
  -28.0493  -13.5841   23.5956 C   0  0  0  0  0  0  0  0  0  0  0  0
  -29.4450  -16.9385   19.4641 C   0  0  0  0  0  0  0  0  0  0  0  0
  -26.7142  -13.6356   24.0208 C   0  0  0  0  0  0  0  0  0  0  0  0
  -28.0820  -21.0220   22.7454 C   0  0  0  0  0  0  0  0  0  0  0  0
  -24.7574  -30.5906   20.4833 C   0  0  0  0  0  0  0  0  0  0  0  0
  -27.4347  -14.6216   26.1229 C   0  0  0  0  0  0  0  0  0  0  0  0
  -22.7883  -31.3122   19.4230 C   0  0  0  0  0  0  0  0  0  0  0  0
  -21.0775  -31.2139   17.2217 C   0  0  0  0  0  0  0  0  0  0  0  0
  -27.1341  -18.8689   23.2958 C   0  0  0  0  0  0  0  0  0  0  0  0
  -22.1991  -30.1039   19.0511 C   0  0  0  0  0  0  0  0  0  0  0  0
  -28.2393  -28.1897   20.3833 C   0  0  0  0  0  0  0  0  0  0  0  0
  -30.3023  -27.4439   20.5337 C   0  0  0  0  0  0  0  0  0  0  0  0
  -26.2516  -18.4016   25.5848 C   0  0  0  0  0  0  0  0  0  0  0  0
  -30.0326  -29.8324   21.2202 C   0  0  0  0  0  0  0  0  0  0  0  0
  -26.9992  -14.4258   20.7159 C   0  0  0  0  0  0  0  0  0  0  0  0
  -25.1169  -11.8072   21.0655 C   0  0  0  0  0  0  0  0  0  0  0  0
  -23.5850   -9.6004   23.1703 C   0  0  0  0  0  0  0  0  0  0  0  0
  -29.0052  -21.6113   20.4768 C   0  0  0  0  0  0  0  0  0  0  0  0
  -29.0811  -17.8038   17.0936 C   0  0  0  0  0  0  0  0  0  0  0  0
  -28.3995  -13.0011   22.2540 C   0  0  0  0  0  0  0  0  0  0  0  0
  -25.5856  -13.1468   23.1515 C   0  0  0  0  0  0  0  0  0  0  0  0
  -27.6020  -17.5044   17.3141 C   0  0  0  0  0  0  0  0  0  0  0  0
  -30.4700  -23.4929   17.8327 C   0  0  0  0  0  0  0  0  0  0  0  0
  -27.4440  -16.1935   18.0700 C   0  0  0  0  0  0  0  0  0  0  0  0
  -30.1884  -24.9458   18.2224 C   0  0  0  0  0  0  0  0  0  0  0  0
  -29.3102  -22.5709   18.2050 C   0  0  0  0  0  0  0  0  0  0  0  0
  -28.5963  -24.1047   19.9957 C   0  0  0  0  0  0  0  0  0  0  0  0
  -28.0731  -16.2888   19.4657 C   0  0  1  0  0  0  0  0  0  0  0  0
  -27.2414  -13.0470   21.2619 C   0  0  1  0  0  0  0  0  0  0  0  0
  -29.7632  -25.0608   19.6994 C   0  0  2  0  0  0  0  0  0  0  0  0
  -22.0831   -7.5900   23.1635 C   0  0  0  0  0  0  0  0  0  0  0  0
  -22.7247  -13.5995   20.4532 C   0  0  0  0  0  0  0  0  0  0  0  0
  -21.2366  -11.8113   21.3786 C   0  0  0  0  0  0  0  0  0  0  0  0
  -22.6436  -11.3459   19.3720 C   0  0  0  0  0  0  0  0  0  0  0  0
  -25.6333   -7.9214   24.4911 C   0  0  0  0  0  0  0  0  0  0  0  0
  -27.1981  -17.0774   28.7484 C   0  0  0  0  0  0  0  0  0  0  0  0
  -26.0913  -17.7916   27.9844 C   0  0  0  0  0  0  0  0  0  0  0  0
  -28.0063  -16.1283   27.8719 C   0  0  0  0  0  0  0  0  0  1  0  0
  -23.7451  -11.5455   21.6388 C   0  0  1  0  0  0  0  0  0  0  0  0
  -23.5215   -8.0837   23.1671 C   0  0  2  0  0  0  0  0  0  0  0  0
  -22.6084  -12.0866   20.7265 C   0  0  0  0  0  0  0  0  0  0  0  0
  -28.1661  -26.9190   19.9781 N   0  0  0  0  0  0  0  0  0  0  0  0
  -29.4364  -26.4926   20.0806 N   0  0  0  0  0  0  0  0  0  0  0  0
  -25.9784  -12.5911   21.8459 N   0  0  0  0  0  0  0  0  0  0  0  0
  -28.9655  -22.7311   19.6193 N   0  0  0  0  0  0  0  0  0  0  0  0
  -31.6170  -27.1835   20.6959 N   0  0  0  0  0  0  0  0  0  0  0  0
  -29.1204  -30.8848   21.3765 N   0  0  0  0  0  0  0  0  0  0  0  0
  -28.6895  -21.8914   21.8059 N   0  0  0  0  0  0  0  0  0  0  0  0
  -26.6016  -18.6042   26.9150 N   0  0  0  0  0  0  0  0  0  0  0  0
  -28.0894  -14.9734   20.0670 N   0  0  0  0  0  0  0  0  0  0  0  0
  -23.6757  -10.1105   21.8925 N   0  0  0  0  0  0  0  0  0  0  0  0
  -24.2039   -7.5341   24.3726 N   0  3  0  0  0  0  0  0  0  0  0  0
  -25.4858  -17.5260   25.1905 O   0  0  0  0  0  0  0  0  0  0  0  0
  -31.2435  -30.0250   21.4851 O   0  0  0  0  0  0  0  0  0  0  0  0
  -25.9039  -14.9530   20.8705 O   0  0  0  0  0  0  0  0  0  0  0  0
  -25.4156  -11.3276   19.9690 O   0  0  0  0  0  0  0  0  0  0  0  0
  -23.5533  -10.2662   24.2029 O   0  0  0  0  0  0  0  0  0  0  0  0
  -29.3243  -20.4919   20.0680 O   0  0  0  0  0  0  0  0  0  0  0  0
  -23.6371  -31.3629   20.5160 O   0  0  0  0  0  0  0  0  0  0  0  0
  -27.1319  -15.1293   27.3486 O   0  0  0  0  0  0  0  0  0  1  0  0
  -20.2549  -31.1671   16.1656 F   0  0  0  0  0  0  0  0  0  0  0  0
  -26.8026  -17.6239   22.9247 F   0  0  0  0  0  0  0  0  0  0  0  0
  -22.4501  -28.9872   19.7481 F   0  0  0  0  0  0  0  0  0  0  0  0
  1  2  1  0  0  0  0
  1  6  2  0  0  0  0
  2  7  2  0  0  0  0
  3 10  2  0  0  0  0
  3 18  1  0  0  0  0
  4 11  1  0  0  0  0
  4 18  2  0  0  0  0
  5  9  2  0  0  0  0
  5 19  1  0  0  0  0
  6 21  1  0  0  0  0
  7 23  1  0  0  0  0
  8 12  2  0  0  0  0
  8 22  1  0  0  0  0
  9 25  1  0  0  0  0
 10 26  1  0  0  0  0
 11 26  2  0  0  0  0
 12 27  1  0  0  0  0
 13 14  2  0  0  0  0
 13 28  1  0  0  0  0
 14 29  1  0  0  0  0
 15 24  1  0  0  0  0
 15 27  2  0  0  0  0
 16 25  2  0  0  0  0
 16 30  1  0  0  0  0
 17 29  2  0  0  0  0
 17 31  1  0  0  0  0
 18 32  1  0  0  0  0
 19 30  2  0  0  0  0
 19 34  1  0  0  0  0
 20 32  1  0  0  0  0
 20 33  2  0  0  0  0
 20 35  1  0  0  0  0
 21 23  2  0  0  0  0
 21 40  1  0  0  0  0
 22 24  2  0  0  0  0
 22 41  1  0  0  0  0
 23 49  1  0  0  0  0
 24 42  1  0  0  0  0
 25 69  1  0  0  0  0
 26 80  1  0  0  0  0
 27 81  1  0  0  0  0
 28 31  2  0  0  0  0
 28 80  1  0  0  0  0
 29 82  1  0  0  0  0
 30 83  1  0  0  0  0
 31 84  1  0  0  0  0
 32 63  2  0  0  0  0
 33 64  1  0  0  0  0
 33 67  1  0  0  0  0
 34 70  1  0  0  0  0
 34 74  2  0  0  0  0
 35 68  1  0  0  0  0
 35 75  2  0  0  0  0
 36 50  1  0  0  0  0
 36 71  1  0  0  0  0
 36 76  2  0  0  0  0
 37 60  1  0  0  0  0
 37 65  1  0  0  0  0
 37 77  2  0  0  0  0
 38 61  1  0  0  0  0
 38 72  1  0  0  0  0
 38 78  2  0  0  0  0
 39 66  1  0  0  0  0
 39 69  1  0  0  0  0
 39 79  2  0  0  0  0
 40 43  1  0  0  0  0
 41 50  1  0  0  0  0
 42 65  1  0  0  0  0
 43 45  1  0  0  0  0
 44 46  1  0  0  0  0
 44 47  1  0  0  0  0
 45 49  1  0  0  0  0
 46 51  1  0  0  0  0
 47 66  1  0  0  0  0
 48 51  1  0  0  0  0
 48 66  1  0  0  0  0
 49 71  1  0  0  0  0
 50 65  1  0  0  0  0
 51 64  1  0  0  0  0
 52 61  1  0  0  0  0
 53 62  1  0  0  0  0
 54 62  1  0  0  0  0
 55 62  1  0  0  0  0
 56 73  1  0  0  0  0
 57 58  1  0  0  0  0
 57 59  1  0  0  0  0
 58 70  1  0  0  0  0
 59 81  1  0  0  0  0
 60 62  1  0  0  0  0
 60 72  1  0  0  0  0
 61 73  1  0  0  0  0
 63 64  1  0  0  0  0
M  CHG  1  73   1
M  ISO  4  39 100  59 101  69 100  81 101
M  END
> <Batch ID>
0014

> <Smiles>
CNC(C)C(=O)NC(C(=O)N1Cc2cc([101O:1][101CH2:1]CCNC(=O)c3ccc([100NH:0][100C:0](=O)N4CCCC(n5nc(-c6ccc(Oc7ccc(F)cc7F)cc6)c(C(N)=O)c5N)C4)cc3F)ccc2CC1C(=O)NC1CCCc2ccccc21)C(C)(C)C

> <Shape>
0.227

> <Color>
0.061

> <Negative vol penalty>
0.000

$$$$

  -OEChem-04042320513D

 88 97  0     1  0  0  0  0  0999 V2000
  -17.6353  -26.3540   25.7221 C   0  0  0  0  0  0  0  0  0  0  0  0
  -18.7665  -25.5470   25.6540 C   0  0  0  0  0  0  0  0  0  0  0  0
  -23.1105  -16.1424   22.0930 C   0  0  0  0  0  0  0  0  0  0  0  0
  -22.2756  -15.5914   19.8938 C   0  0  0  0  0  0  0  0  0  0  0  0
  -17.4205  -27.3343   24.7542 C   0  0  0  0  0  0  0  0  0  0  0  0
  -19.6829  -25.7191   24.6172 C   0  0  0  0  0  0  0  0  0  0  0  0
  -24.4806  -25.6706   26.2371 C   0  0  0  0  0  0  0  0  0  0  0  0
  -29.4824  -19.3595   19.7903 C   0  0  0  0  0  0  0  0  0  0  0  0
  -30.0703  -18.1043   19.9461 C   0  0  0  0  0  0  0  0  0  0  0  0
  -22.0699  -17.0562   22.2591 C   0  0  0  0  0  0  0  0  0  0  0  0
  -21.2349  -16.5052   20.0600 C   0  0  0  0  0  0  0  0  0  0  0  0
  -25.0447  -24.4273   26.5197 C   0  0  0  0  0  0  0  0  0  0  0  0
  -19.8386  -19.7963   23.1175 C   0  0  0  0  0  0  0  0  0  0  0  0
  -20.1517  -21.0493   23.6442 C   0  0  0  0  0  0  0  0  0  0  0  0
  -26.1566  -24.4520   24.3791 C   0  0  0  0  0  0  0  0  0  0  0  0
  -29.2560  -18.0050   22.2186 C   0  0  0  0  0  0  0  0  0  0  0  0
  -21.6453  -21.4559   21.7892 C   0  0  0  0  0  0  0  0  0  0  0  0
  -23.2134  -15.4100   20.9103 C   0  0  0  0  0  0  0  0  0  0  0  0
  -24.2845  -13.1011   21.0812 C   0  0  0  0  0  0  0  0  0  0  0  0
  -18.3397  -27.5249   23.7105 C   0  0  0  0  0  0  0  0  0  0  0  0
  -24.7421  -26.3100   25.0168 C   0  0  0  0  0  0  0  0  0  0  0  0
  -19.4795  -26.7019   23.6336 C   0  0  0  0  0  0  0  0  0  0  0  0
  -25.5967  -25.7045   24.0845 C   0  0  0  0  0  0  0  0  0  0  0  0
  -28.7813  -19.9376   20.8486 C   0  0  0  0  0  0  0  0  0  0  0  0
  -29.9571  -17.4270   21.1602 C   0  0  0  0  0  0  0  0  0  0  0  0
  -21.1321  -17.2376   21.2427 C   0  0  0  0  0  0  0  0  0  0  0  0
  -25.8806  -23.8165   25.5894 C   0  0  0  0  0  0  0  0  0  0  0  0
  -20.4289  -19.3730   21.9266 C   0  0  0  0  0  0  0  0  0  0  0  0
  -28.6681  -19.2603   22.0628 C   0  0  0  0  0  0  0  0  0  0  0  0
  -21.0550  -21.8792   22.9801 C   0  0  0  0  0  0  0  0  0  0  0  0
  -21.3321  -20.2028   21.2625 C   0  0  0  0  0  0  0  0  0  0  0  0
  -24.2885  -14.4663   20.7378 C   0  0  0  0  0  0  0  0  0  0  0  0
  -25.5312  -12.6524   20.7193 C   0  0  0  0  0  0  0  0  0  0  0  0
  -23.2466  -12.3092   21.6741 C   0  0  0  0  0  0  0  0  0  0  0  0
  -22.9698  -27.2438   22.5488 C   0  0  0  0  0  0  0  0  0  0  0  0
  -25.7597  -28.5576   21.5425 C   0  0  0  0  0  0  0  0  0  0  0  0
  -29.1708  -28.5459   21.6452 C   0  0  0  0  0  0  0  0  0  0  0  0
  -30.7200  -15.2504   20.2266 C   0  0  0  0  0  0  0  0  0  0  0  0
  -18.0406  -28.5658   22.6609 C   0  0  0  0  0  0  0  0  0  0  0  0
  -24.1472  -27.6631   24.7383 C   0  0  0  0  0  0  0  0  0  0  0  0
  -25.9252  -26.3586   22.7682 C   0  0  0  0  0  0  0  0  0  0  0  0
  -19.2505  -28.9338   21.8059 C   0  0  0  0  0  0  0  0  0  0  0  0
  -29.0662  -13.4893   17.6177 C   0  0  0  0  0  0  0  0  0  0  0  0
  -24.9157  -21.0213   18.9172 C   0  0  0  0  0  0  0  0  0  0  0  0
  -25.2168  -22.4992   19.0641 C   0  0  0  0  0  0  0  0  0  0  0  0
  -19.9795  -27.6764   21.3432 C   0  0  0  0  0  0  0  0  0  0  0  0
  -27.6384  -13.4173   18.1578 C   0  0  0  0  0  0  0  0  0  0  0  0
  -29.7251  -14.8358   17.9190 C   0  0  0  0  0  0  0  0  0  0  0  0
  -28.2618  -15.1432   19.8910 C   0  0  0  0  0  0  0  0  0  0  0  0
  -26.2193  -20.3760   19.3354 C   0  0  0  0  0  0  0  0  0  0  0  0
  -26.0113  -22.5871   20.3553 C   0  0  0  0  0  0  0  0  0  0  0  0
  -20.5092  -26.8746   22.5382 C   0  0  1  0  0  0  0  0  0  0  0  0
  -24.0713  -27.9876   23.2495 C   0  0  1  0  0  0  0  0  0  0  0  0
  -27.5946  -13.7795   19.6528 C   0  0  1  0  0  0  0  0  0  0  0  0
  -31.1745  -29.7138   20.6868 C   0  0  0  0  0  0  0  0  0  0  0  0
  -25.3707  -27.0611   18.9121 C   0  0  0  0  0  0  0  0  0  0  0  0
  -27.7838  -27.4834   18.3955 C   0  0  0  0  0  0  0  0  0  0  0  0
  -26.2134  -29.4028   18.6653 C   0  0  0  0  0  0  0  0  0  0  0  0
  -31.2450  -15.8254   22.5865 C   0  0  0  0  0  0  0  0  0  0  0  0
  -30.0748  -29.4374   24.3186 C   0  0  0  0  0  0  0  0  0  0  0  0
  -28.1587  -21.2819   20.6638 C   0  0  0  0  0  0  0  0  0  0  0  0
  -27.8212  -20.6986   25.3468 C   0  0  0  0  0  0  0  0  0  0  0  0
  -27.2788  -22.0347   24.8642 C   0  0  0  0  0  0  0  0  0  1  0  0
  -28.7164  -20.0397   24.3091 C   0  0  0  0  0  0  0  0  0  0  0  0
  -26.9224  -28.0854   20.7034 C   0  0  1  0  0  0  0  0  0  0  0  0
  -30.1768  -29.6671   21.8336 C   0  0  2  0  0  0  0  0  0  0  0  0
  -26.5650  -27.9947   19.1930 C   0  0  0  0  0  0  0  0  0  0  0  0
  -25.4459  -14.8592   20.1994 N   0  0  0  0  0  0  0  0  0  0  0  0
  -26.1809  -13.7341   20.2017 N   0  0  0  0  0  0  0  0  0  0  0  0
  -25.3141  -27.6784   22.5396 N   0  0  0  0  0  0  0  0  0  0  0  0
  -29.6229  -15.1573   19.3495 N   0  0  0  0  0  0  0  0  0  0  0  0
  -26.1240  -11.4420   20.7967 N   0  0  0  0  0  0  0  0  0  0  0  0
  -22.0276  -12.9283   21.9826 N   0  0  0  0  0  0  0  0  0  0  0  0
  -21.7108  -27.4859   23.0644 N   0  0  0  0  0  0  0  0  0  0  0  0
  -28.0326  -28.9837   21.0019 N   0  0  0  0  0  0  0  0  0  0  0  0
  -30.5666  -16.1278   21.3215 N   0  0  0  0  0  0  0  0  0  0  0  0
  -26.6738  -21.2291   20.4993 N   0  3  0  0  0  0  0  0  0  0  0  0
  -30.9308  -29.4783   23.1051 N   0  3  0  0  0  0  0  0  0  0  0  0
  -23.4015  -11.0927   21.9380 O   0  0  0  0  0  0  0  0  0  0  0  0
  -23.2418  -26.5059   21.6089 O   0  0  0  0  0  0  0  0  0  0  0  0
  -25.2695  -29.6687   21.3260 O   0  0  0  0  0  0  0  0  0  0  0  0
  -29.3760  -27.3958   22.0271 O   0  0  0  0  0  0  0  0  0  0  0  0
  -31.7472  -14.5819   20.0593 O   0  0  0  0  0  0  0  0  0  0  0  0
  -20.1164  -18.1291   21.4046 O   0  0  0  0  0  0  0  0  0  0  0  0
  -26.4319  -22.6027   25.8625 O   0  0  0  0  0  0  0  0  0  1  0  0
  -27.9831  -19.8143   23.1127 O   0  0  0  0  0  0  0  0  0  0  0  0
  -21.3545  -23.0830   23.4852 F   0  0  0  0  0  0  0  0  0  0  0  0
  -21.9015  -19.8021   20.1174 F   0  0  0  0  0  0  0  0  0  0  0  0
  1  2  1  0  0  0  0
  1  5  2  0  0  0  0
  2  6  2  0  0  0  0
  3 10  2  0  0  0  0
  3 18  1  0  0  0  0
  4 11  1  0  0  0  0
  4 18  2  0  0  0  0
  5 20  1  0  0  0  0
  6 22  1  0  0  0  0
  7 12  2  0  0  0  0
  7 21  1  0  0  0  0
  8  9  2  0  0  0  0
  8 24  1  0  0  0  0
  9 25  1  0  0  0  0
 10 26  1  0  0  0  0
 11 26  2  0  0  0  0
 12 27  1  0  0  0  0
 13 14  2  0  0  0  0
 13 28  1  0  0  0  0
 14 30  1  0  0  0  0
 15 23  1  0  0  0  0
 15 27  2  0  0  0  0
 16 25  2  0  0  0  0
 16 29  1  0  0  0  0
 17 30  2  0  0  0  0
 17 31  1  0  0  0  0
 18 32  1  0  0  0  0
 19 32  1  0  0  0  0
 19 33  2  0  0  0  0
 19 34  1  0  0  0  0
 20 22  2  0  0  0  0
 20 39  1  0  0  0  0
 21 23  2  0  0  0  0
 21 40  1  0  0  0  0
 22 52  1  0  0  0  0
 23 41  1  0  0  0  0
 24 29  2  0  0  0  0
 24 61  1  0  0  0  0
 25 76  1  0  0  0  0
 26 84  1  0  0  0  0
 27 85  1  0  0  0  0
 28 31  2  0  0  0  0
 28 84  1  0  0  0  0
 29 86  1  0  0  0  0
 30 87  1  0  0  0  0
 31 88  1  0  0  0  0
 32 68  2  0  0  0  0
 33 69  1  0  0  0  0
 33 72  1  0  0  0  0
 34 73  1  0  0  0  0
 34 79  2  0  0  0  0
 35 53  1  0  0  0  0
 35 74  1  0  0  0  0
 35 80  2  0  0  0  0
 36 65  1  0  0  0  0
 36 70  1  0  0  0  0
 36 81  2  0  0  0  0
 37 66  1  0  0  0  0
 37 75  1  0  0  0  0
 37 82  2  0  0  0  0
 38 71  1  0  0  0  0
 38 76  1  0  0  0  0
 38 83  2  0  0  0  0
 39 42  1  0  0  0  0
 40 53  1  0  0  0  0
 41 70  1  0  0  0  0
 42 46  1  0  0  0  0
 43 47  1  0  0  0  0
 43 48  1  0  0  0  0
 44 45  1  0  0  0  0
 44 50  1  0  0  0  0
 45 51  1  0  0  0  0
 46 52  1  0  0  0  0
 47 54  1  0  0  0  0
 48 71  1  0  0  0  0
 49 54  1  0  0  0  0
 49 71  1  0  0  0  0
 50 77  1  0  0  0  0
 51 77  1  0  0  0  0
 52 74  1  0  0  0  0
 53 70  1  0  0  0  0
 54 69  1  0  0  0  0
 55 66  1  0  0  0  0
 56 67  1  0  0  0  0
 57 67  1  0  0  0  0
 58 67  1  0  0  0  0
 59 76  1  0  0  0  0
 60 78  1  0  0  0  0
 61 77  1  0  0  0  0
 62 63  1  0  0  0  0
 62 64  1  0  0  0  0
 63 85  1  0  0  0  0
 64 86  1  0  0  0  0
 65 67  1  0  0  0  0
 65 75  1  0  0  0  0
 66 78  1  0  0  0  0
 68 69  1  0  0  0  0
M  CHG  2  77   1  78   1
M  ISO  4  38 100  63 101  76 100  85 101
M  END
> <Batch ID>
0014

> <Smiles>
CNC(C)C(=O)NC(C(=O)N1Cc2cc([101O:1][101CH2:1]CCOc3cc([100N:0](C)[100C:0](=O)N4CCCC(n5nc(-c6ccc(Oc7ccc(F)cc7F)cc6)c(C(N)=O)c5N)C4)ccc3CN3CCCC3)ccc2CC1C(=O)NC1CCCc2ccccc21)C(C)(C)C

> <Shape>
0.216

> <Color>
0.097

> <Negative vol penalty>
0.000

$$$$

  -OEChem-04042320513D

 84 93  0     1  0  0  0  0  0999 V2000
  -17.6002  -13.7691   21.5537 C   0  0  0  0  0  0  0  0  0  0  0  0
  -18.3941  -14.8465   21.1736 C   0  0  0  0  0  0  0  0  0  0  0  0
  -22.9498  -28.7095   22.3089 C   0  0  0  0  0  0  0  0  0  0  0  0
  -23.0872  -30.3529   20.5432 C   0  0  0  0  0  0  0  0  0  0  0  0
  -18.1467  -12.7359   22.3137 C   0  0  0  0  0  0  0  0  0  0  0  0
  -19.7348  -14.8918   21.5543 C   0  0  0  0  0  0  0  0  0  0  0  0
  -24.4013  -17.2017   18.3305 C   0  0  0  0  0  0  0  0  0  0  0  0
  -27.7549  -23.5054   22.1337 C   0  0  0  0  0  0  0  0  0  0  0  0
  -28.4522  -24.3208   23.0250 C   0  0  0  0  0  0  0  0  0  0  0  0
  -21.8120  -29.3424   22.8094 C   0  0  0  0  0  0  0  0  0  0  0  0
  -21.9494  -30.9858   21.0437 C   0  0  0  0  0  0  0  0  0  0  0  0
  -25.0599  -18.4295   18.3816 C   0  0  0  0  0  0  0  0  0  0  0  0
  -18.5149  -29.4864   22.0737 C   0  0  0  0  0  0  0  0  0  0  0  0
  -17.4329  -28.6839   22.4354 C   0  0  0  0  0  0  0  0  0  0  0  0
  -26.7556  -17.4543   19.7933 C   0  0  0  0  0  0  0  0  0  0  0  0
  -29.1989  -24.2327   20.3385 C   0  0  0  0  0  0  0  0  0  0  0  0
  -17.5766  -29.5111   24.7008 C   0  0  0  0  0  0  0  0  0  0  0  0
  -23.5875  -29.2148   21.1758 C   0  0  0  0  0  0  0  0  0  0  0  0
  -24.8113  -27.5302   19.7020 C   0  0  0  0  0  0  0  0  0  0  0  0
  -19.4973  -12.7638   22.6957 C   0  0  0  0  0  0  0  0  0  0  0  0
  -24.9100  -16.0919   19.0204 C   0  0  0  0  0  0  0  0  0  0  0  0
  -20.2995  -13.8586   22.3213 C   0  0  0  0  0  0  0  0  0  0  0  0
  -26.1030  -16.2129   19.7472 C   0  0  0  0  0  0  0  0  0  0  0  0
  -28.1283  -23.4613   20.7904 C   0  0  0  0  0  0  0  0  0  0  0  0
  -29.5229  -25.0922   22.5730 C   0  0  0  0  0  0  0  0  0  0  0  0
  -21.3118  -30.4805   22.1768 C   0  0  0  0  0  0  0  0  0  0  0  0
  -26.2356  -18.5567   19.1155 C   0  0  0  0  0  0  0  0  0  0  0  0
  -19.1278  -30.3013   23.0256 C   0  0  0  0  0  0  0  0  0  0  0  0
  -16.9638  -28.6962   23.7490 C   0  0  0  0  0  0  0  0  0  0  0  0
  -29.8963  -25.0482   21.2298 C   0  0  0  0  0  0  0  0  0  0  0  0
  -18.6587  -30.3137   24.3391 C   0  0  0  0  0  0  0  0  0  0  0  0
  -24.7632  -28.5618   20.6587 C   0  0  0  0  0  0  0  0  0  0  0  0
  -26.1500  -27.2610   19.5544 C   0  0  0  0  0  0  0  0  0  0  0  0
  -23.7415  -26.8741   19.0086 C   0  0  0  0  0  0  0  0  0  0  0  0
  -23.8507  -14.2343   21.3722 C   0  0  0  0  0  0  0  0  0  0  0  0
  -26.5385  -12.5395   20.7194 C   0  0  0  0  0  0  0  0  0  0  0  0
  -29.6977  -12.5015   19.4291 C   0  0  0  0  0  0  0  0  0  0  0  0
  -30.8682  -27.1375   23.1189 C   0  0  0  0  0  0  0  0  0  0  0  0
  -20.0312  -11.6469   23.5573 C   0  0  0  0  0  0  0  0  0  0  0  0
  -24.2020  -14.7676   18.9334 C   0  0  0  0  0  0  0  0  0  0  0  0
  -26.7014  -15.0467   20.4890 C   0  0  0  0  0  0  0  0  0  0  0  0
  -21.5559  -11.5879   23.6021 C   0  0  0  0  0  0  0  0  0  0  0  0
  -30.3475  -29.6826   20.4837 C   0  0  0  0  0  0  0  0  0  0  0  0
  -22.1373  -12.9786   23.8359 C   0  0  0  0  0  0  0  0  0  0  0  0
  -28.8418  -29.6118   20.2363 C   0  0  0  0  0  0  0  0  0  0  0  0
  -26.5607  -21.7874   17.9024 C   0  0  0  0  0  0  0  0  0  0  0  0
  -30.7054  -29.2923   21.9145 C   0  0  0  0  0  0  0  0  0  0  0  0
  -27.7543  -22.5414   18.4885 C   0  0  0  0  0  0  0  0  0  0  0  0
  -28.6763  -27.8777   22.0659 C   0  0  0  0  0  0  0  0  0  0  0  0
  -26.3090  -21.8058   20.2887 C   0  0  0  0  0  0  0  0  0  0  0  0
  -21.7645  -13.9316   22.6939 C   0  0  1  0  0  0  0  0  0  0  0  0
  -24.5335  -13.8354   20.0946 C   0  0  1  0  0  0  0  0  0  0  0  0
  -28.2937  -28.2274   20.6199 C   0  0  1  0  0  0  0  0  0  0  0  0
  -26.0795  -20.9257   19.0607 C   0  0  2  0  0  0  0  0  0  1  0  0
  -31.6614  -10.9805   19.0716 C   0  0  0  0  0  0  0  0  0  0  0  0
  -27.2496  -12.7661   23.6779 C   0  0  0  0  0  0  0  0  0  0  0  0
  -29.5906  -12.0968   23.0950 C   0  0  0  0  0  0  0  0  0  0  0  0
  -27.7020  -10.5248   22.6649 C   0  0  0  0  0  0  0  0  0  0  0  0
  -30.5525  -25.3926   24.8181 C   0  0  0  0  0  0  0  0  0  0  0  0
  -29.5611  -12.8251   16.4905 C   0  0  0  0  0  0  0  0  0  0  0  0
  -27.9674  -12.5721   21.2055 C   0  0  1  0  0  0  0  0  0  0  0  0
  -30.3830  -11.5441   18.4709 C   0  0  2  0  0  0  0  0  0  0  0  0
  -28.1153  -12.0126   22.6485 C   0  0  0  0  0  0  0  0  0  0  0  0
  -25.9750  -28.9232   21.0887 N   0  0  0  0  0  0  0  0  0  0  0  0
  -26.7971  -28.1141   20.3990 N   0  0  0  0  0  0  0  0  0  0  0  0
  -27.4392  -22.6545   19.9094 N   0  0  3  0  0  0  0  0  0  0  0  0
  -25.9688  -13.7745   20.3785 N   0  0  0  0  0  0  0  0  0  0  0  0
  -30.1267  -28.0000   22.2856 N   0  0  0  0  0  0  0  0  0  0  0  0
  -26.8249  -26.3799   18.7859 N   0  0  0  0  0  0  0  0  0  0  0  0
  -22.4256  -27.2737   19.2791 N   0  0  0  0  0  0  0  0  0  0  0  0
  -22.5949  -13.6814   21.5353 N   0  0  0  0  0  0  0  0  0  0  0  0
  -28.7552  -11.8603   20.2049 N   0  0  0  0  0  0  0  0  0  0  0  0
  -30.2417  -25.9348   23.4973 N   0  0  0  0  0  0  0  0  0  0  0  0
  -30.7286  -12.2418   17.2002 N   0  3  0  0  0  0  0  0  0  0  0  0
  -23.9454  -25.9493   18.1860 O   0  0  0  0  0  0  0  0  0  0  0  0
  -24.4216  -14.9867   22.1530 O   0  0  0  0  0  0  0  0  0  0  0  0
  -25.9519  -11.4575   20.6381 O   0  0  0  0  0  0  0  0  0  0  0  0
  -29.9737  -13.6978   19.4865 O   0  0  0  0  0  0  0  0  0  0  0  0
  -31.9898  -27.4419   23.5432 O   0  0  0  0  0  0  0  0  0  0  0  0
  -20.2014  -31.0981   22.6647 O   0  0  0  0  0  0  0  0  0  0  0  0
  -26.8801  -19.7541   19.1676 O   0  0  0  0  0  0  0  0  0  1  0  0
  -15.9238  -27.9266   24.0958 F   0  0  0  0  0  0  0  0  0  0  0  0
  -30.9234  -25.7858   20.7845 F   0  0  0  0  0  0  0  0  0  0  0  0
  -19.2427  -31.0953   25.2577 F   0  0  0  0  0  0  0  0  0  0  0  0
  1  2  1  0  0  0  0
  1  5  2  0  0  0  0
  2  6  2  0  0  0  0
  3 10  2  0  0  0  0
  3 18  1  0  0  0  0
  4 11  1  0  0  0  0
  4 18  2  0  0  0  0
  5 20  1  0  0  0  0
  6 22  1  0  0  0  0
  7 12  2  0  0  0  0
  7 21  1  0  0  0  0
  8  9  2  0  0  0  0
  8 24  1  0  0  0  0
  9 25  1  0  0  0  0
 10 26  1  0  0  0  0
 11 26  2  0  0  0  0
 12 27  1  0  0  0  0
 13 14  2  0  0  0  0
 13 28  1  0  0  0  0
 14 29  1  0  0  0  0
 15 23  1  0  0  0  0
 15 27  2  0  0  0  0
 16 24  2  0  0  0  0
 16 30  1  0  0  0  0
 17 29  2  0  0  0  0
 17 31  1  0  0  0  0
 18 32  1  0  0  0  0
 19 32  1  0  0  0  0
 19 33  2  0  0  0  0
 19 34  1  0  0  0  0
 20 22  2  0  0  0  0
 20 39  1  0  0  0  0
 21 23  2  0  0  0  0
 21 40  1  0  0  0  0
 22 51  1  0  0  0  0
 23 41  1  0  0  0  0
 24 66  1  0  0  0  0
 25 30  2  0  0  0  0
 25 73  1  0  0  0  0
 26 80  1  0  0  0  0
 27 81  1  0  0  0  0
 28 31  2  0  0  0  0
 28 80  1  0  0  0  0
 29 82  1  0  0  0  0
 30 83  1  0  0  0  0
 31 84  1  0  0  0  0
 32 64  2  0  0  0  0
 33 65  1  0  0  0  0
 33 69  1  0  0  0  0
 34 70  1  0  0  0  0
 34 75  2  0  0  0  0
 35 52  1  0  0  0  0
 35 71  1  0  0  0  0
 35 76  2  0  0  0  0
 36 61  1  0  0  0  0
 36 67  1  0  0  0  0
 36 77  2  0  0  0  0
 37 62  1  0  0  0  0
 37 72  1  0  0  0  0
 37 78  2  0  0  0  0
 38 68  1  0  0  0  0
 38 73  1  0  0  0  0
 38 79  2  0  0  0  0
 39 42  1  0  0  0  0
 40 52  1  0  0  0  0
 41 67  1  0  0  0  0
 42 44  1  0  0  0  0
 43 45  1  0  0  0  0
 43 47  1  0  0  0  0
 44 51  1  0  0  0  0
 45 53  1  0  0  0  0
 46 48  1  0  0  0  0
 46 54  1  0  0  0  0
 47 68  1  0  0  0  0
 48 66  1  0  0  0  0
 49 53  1  0  0  0  0
 49 68  1  0  0  0  0
 50 54  1  0  0  0  0
 50 66  1  0  0  0  0
 51 71  1  0  0  0  0
 52 67  1  0  0  0  0
 53 65  1  0  0  0  0
 54 81  1  0  0  0  0
 55 62  1  0  0  0  0
 56 63  1  0  0  0  0
 57 63  1  0  0  0  0
 58 63  1  0  0  0  0
 59 73  1  0  0  0  0
 60 74  1  0  0  0  0
 61 63  1  0  0  0  0
 61 72  1  0  0  0  0
 62 74  1  0  0  0  0
 64 65  1  0  0  0  0
M  CHG  1  74   1
M  ISO  4  38 100  54 101  73 100  81 101
M  END
> <Batch ID>
0014

> <Smiles>
CNC(C)C(=O)NC(C(=O)N1Cc2cc([101O:1][101CH:1]3CCN(c4ccc([100N:0](C)[100C:0](=O)N5CCCC(n6nc(-c7ccc(Oc8ccc(F)cc8F)cc7)c(C(N)=O)c6N)C5)c(F)c4)C3)ccc2CC1C(=O)NC1CCCc2ccccc21)C(C)(C)C

> <Shape>
0.241

> <Color>
0.060

> <Negative vol penalty>
0.000

$$$$

  -OEChem-04042320513D

 83 91  0     1  0  0  0  0  0999 V2000
  -28.7911  -29.9019   27.5124 C   0  0  0  0  0  0  0  0  0  0  0  0
  -28.5167  -29.0508   26.4466 C   0  0  0  0  0  0  0  0  0  0  0  0
  -24.2823   -9.4915   21.9384 C   0  0  0  0  0  0  0  0  0  0  0  0
  -24.7172  -11.0688   23.7160 C   0  0  0  0  0  0  0  0  0  0  0  0
  -27.8016  -30.7601   27.9902 C   0  0  0  0  0  0  0  0  0  0  0  0
  -27.2523  -29.0568   25.8587 C   0  0  0  0  0  0  0  0  0  0  0  0
  -27.4621  -29.0325   20.7991 C   0  0  0  0  0  0  0  0  0  0  0  0
  -29.9487  -20.5980   19.3503 C   0  0  0  0  0  0  0  0  0  0  0  0
  -29.8297  -19.2185   19.1818 C   0  0  0  0  0  0  0  0  0  0  0  0
  -23.9864   -8.5086   22.8828 C   0  0  0  0  0  0  0  0  0  0  0  0
  -24.4212  -10.0859   24.6605 C   0  0  0  0  0  0  0  0  0  0  0  0
  -27.7367  -27.8143   20.1790 C   0  0  0  0  0  0  0  0  0  0  0  0
  -21.3849   -7.6692   24.8729 C   0  0  0  0  0  0  0  0  0  0  0  0
  -20.2502   -6.8864   24.6601 C   0  0  0  0  0  0  0  0  0  0  0  0
  -25.3870  -27.5282   19.7142 C   0  0  0  0  0  0  0  0  0  0  0  0
  -27.5537  -20.7722   19.6161 C   0  0  0  0  0  0  0  0  0  0  0  0
  -21.6282   -4.9026   24.6090 C   0  0  0  0  0  0  0  0  0  0  0  0
  -24.6478  -10.7716   22.3550 C   0  0  0  0  0  0  0  0  0  0  0  0
  -24.0572  -12.6984   20.7909 C   0  0  0  0  0  0  0  0  0  0  0  0
  -26.5274  -30.7835   27.4017 C   0  0  0  0  0  0  0  0  0  0  0  0
  -26.1444  -29.5033   20.8911 C   0  0  0  0  0  0  0  0  0  0  0  0
  -26.2444  -29.9152   26.3300 C   0  0  0  0  0  0  0  0  0  0  0  0
  -25.0986  -28.7538   20.3336 C   0  0  0  0  0  0  0  0  0  0  0  0
  -28.8107  -21.3749   19.5675 C   0  0  0  0  0  0  0  0  0  0  0  0
  -28.5727  -18.6158   19.2304 C   0  0  0  0  0  0  0  0  0  0  0  0
  -24.0558   -8.8058   24.2438 C   0  0  0  0  0  0  0  0  0  0  0  0
  -26.6988  -27.0606   19.6390 C   0  0  0  0  0  0  0  0  0  0  0  0
  -22.6413   -7.0687   24.9536 C   0  0  0  0  0  0  0  0  0  0  0  0
  -20.3718   -5.5032   24.5282 C   0  0  0  0  0  0  0  0  0  0  0  0
  -27.4346  -19.3926   19.4475 C   0  0  0  0  0  0  0  0  0  0  0  0
  -22.7630   -5.6854   24.8218 C   0  0  0  0  0  0  0  0  0  0  0  0
  -24.9542  -11.7872   21.3798 C   0  0  0  0  0  0  0  0  0  0  0  0
  -24.8351  -13.4446   19.9398 C   0  0  0  0  0  0  0  0  0  0  0  0
  -22.6468  -12.8564   20.9951 C   0  0  0  0  0  0  0  0  0  0  0  0
  -24.1682  -30.1853   23.2855 C   0  0  0  0  0  0  0  0  0  0  0  0
  -22.2608  -31.2568   20.8905 C   0  0  0  0  0  0  0  0  0  0  0  0
  -27.8705  -23.6409   19.3332 C   0  0  0  0  0  0  0  0  0  0  0  0
  -21.4090  -31.1302   17.5882 C   0  0  0  0  0  0  0  0  0  0  0  0
  -29.4848  -16.3013   18.8339 C   0  0  0  0  0  0  0  0  0  0  0  0
  -25.4757  -31.6947   27.9833 C   0  0  0  0  0  0  0  0  0  0  0  0
  -25.8679  -30.8320   21.5394 C   0  0  0  0  0  0  0  0  0  0  0  0
  -23.6690  -29.2245   20.3882 C   0  0  0  0  0  0  0  0  0  0  0  0
  -24.2768  -31.9068   27.0625 C   0  0  0  0  0  0  0  0  0  0  0  0
  -29.6083  -12.7700   18.3958 C   0  0  0  0  0  0  0  0  0  0  0  0
  -23.7982  -30.5747   26.4938 C   0  0  0  0  0  0  0  0  0  0  0  0
  -28.3347  -12.2744   19.0846 C   0  0  0  0  0  0  0  0  0  0  0  0
  -30.2317  -13.9508   19.1379 C   0  0  0  0  0  0  0  0  0  0  0  0
  -28.0461  -14.5764   20.0870 C   0  0  0  0  0  0  0  0  0  0  0  0
  -24.8926  -29.9102   25.6499 C   0  0  1  0  0  0  0  0  0  0  0  0
  -24.4302  -30.9694   22.0308 C   0  0  1  0  0  0  0  0  0  0  0  0
  -27.3463  -13.4292   19.3400 C   0  0  2  0  0  0  0  0  0  0  0  0
  -19.7854  -32.0925   15.9343 C   0  0  0  0  0  0  0  0  0  0  0  0
  -20.0630  -29.4572   22.0047 C   0  0  0  0  0  0  0  0  0  0  0  0
  -18.8433  -29.7206   19.8341 C   0  0  0  0  0  0  0  0  0  0  0  0
  -19.2862  -31.7161   21.2640 C   0  0  0  0  0  0  0  0  0  0  0  0
  -30.1638  -23.3504   20.3395 C   0  0  0  0  0  0  0  0  0  0  0  0
  -23.5834  -32.3160   15.9682 C   0  0  0  0  0  0  0  0  0  0  0  0
  -28.0904  -25.1363   19.5111 C   0  0  0  0  0  0  0  0  0  1  0  0
  -21.2002  -30.6396   20.0110 C   0  0  1  0  0  0  0  0  0  0  0  0
  -21.1607  -32.2277   16.5692 C   0  0  2  0  0  0  0  0  0  0  0  0
  -19.8748  -30.3733   20.7790 C   0  0  0  0  0  0  0  0  0  0  0  0
  -26.2061  -11.9386   20.9399 N   0  0  0  0  0  0  0  0  0  0  0  0
  -26.1014  -12.9537   20.0654 N   0  0  0  0  0  0  0  0  0  0  0  0
  -23.4489  -30.5271   21.0381 N   0  0  0  0  0  0  0  0  0  0  0  0
  -29.2382  -15.0076   19.3402 N   0  0  0  0  0  0  0  0  0  0  0  0
  -24.5527  -14.4660   19.1035 N   0  0  0  0  0  0  0  0  0  0  0  0
  -22.0042  -12.0063   21.9055 N   0  0  0  0  0  0  0  0  0  0  0  0
  -28.4549  -17.2143   19.0584 N   0  0  0  0  0  0  0  0  0  0  0  0
  -24.9780  -30.5373   24.3484 N   0  0  0  0  0  0  0  0  0  0  0  0
  -21.0569  -31.5261   18.8612 N   0  0  0  0  0  0  0  0  0  0  0  0
  -28.9340  -22.8080   19.7419 N   0  0  0  0  0  0  0  0  0  0  0  0
  -22.1849  -32.1721   15.4881 N   0  3  0  0  0  0  0  0  0  0  0  0
  -21.9734  -13.7147   20.3761 O   0  0  0  0  0  0  0  0  0  0  0  0
  -23.2950  -29.3255   23.2893 O   0  0  0  0  0  0  0  0  0  0  0  0
  -22.0458  -32.3494   21.4211 O   0  0  0  0  0  0  0  0  0  0  0  0
  -26.8150  -23.2523   18.8267 O   0  0  0  0  0  0  0  0  0  0  0  0
  -21.8658  -30.0303   17.2846 O   0  0  0  0  0  0  0  0  0  0  0  0
  -30.5206  -16.5716   18.2207 O   0  0  0  0  0  0  0  0  0  0  0  0
  -23.7668   -7.8471   25.1657 O   0  0  0  0  0  0  0  0  0  0  0  0
  -26.9640  -25.8709   19.0338 O   0  0  0  0  0  0  0  0  0  1  0  0
  -19.2819   -4.7515   24.3254 F   0  0  0  0  0  0  0  0  0  0  0  0
  -26.2212  -18.8243   19.4947 F   0  0  0  0  0  0  0  0  0  0  0  0
  -23.9672   -5.1027   24.8997 F   0  0  0  0  0  0  0  0  0  0  0  0
  1  2  1  0  0  0  0
  1  5  2  0  0  0  0
  2  6  2  0  0  0  0
  3 10  2  0  0  0  0
  3 18  1  0  0  0  0
  4 11  1  0  0  0  0
  4 18  2  0  0  0  0
  5 20  1  0  0  0  0
  6 22  1  0  0  0  0
  7 12  2  0  0  0  0
  7 21  1  0  0  0  0
  8  9  2  0  0  0  0
  8 24  1  0  0  0  0
  9 25  1  0  0  0  0
 10 26  1  0  0  0  0
 11 26  2  0  0  0  0
 12 27  1  0  0  0  0
 13 14  2  0  0  0  0
 13 28  1  0  0  0  0
 14 29  1  0  0  0  0
 15 23  1  0  0  0  0
 15 27  2  0  0  0  0
 16 24  2  0  0  0  0
 16 30  1  0  0  0  0
 17 29  2  0  0  0  0
 17 31  1  0  0  0  0
 18 32  1  0  0  0  0
 19 32  1  0  0  0  0
 19 33  2  0  0  0  0
 19 34  1  0  0  0  0
 20 22  2  0  0  0  0
 20 40  1  0  0  0  0
 21 23  2  0  0  0  0
 21 41  1  0  0  0  0
 22 49  1  0  0  0  0
 23 42  1  0  0  0  0
 24 71  1  0  0  0  0
 25 30  2  0  0  0  0
 25 68  1  0  0  0  0
 26 79  1  0  0  0  0
 27 80  1  0  0  0  0
 28 31  2  0  0  0  0
 28 79  1  0  0  0  0
 29 81  1  0  0  0  0
 30 82  1  0  0  0  0
 31 83  1  0  0  0  0
 32 62  2  0  0  0  0
 33 63  1  0  0  0  0
 33 66  1  0  0  0  0
 34 67  1  0  0  0  0
 34 73  2  0  0  0  0
 35 50  1  0  0  0  0
 35 69  1  0  0  0  0
 35 74  2  0  0  0  0
 36 59  1  0  0  0  0
 36 64  1  0  0  0  0
 36 75  2  0  0  0  0
 37 58  1  0  0  0  0
 37 71  1  0  0  0  0
 37 76  2  0  0  0  0
 38 60  1  0  0  0  0
 38 70  1  0  0  0  0
 38 77  2  0  0  0  0
 39 65  1  0  0  0  0
 39 68  1  0  0  0  0
 39 78  2  0  0  0  0
 40 43  1  0  0  0  0
 41 50  1  0  0  0  0
 42 64  1  0  0  0  0
 43 45  1  0  0  0  0
 44 46  1  0  0  0  0
 44 47  1  0  0  0  0
 45 49  1  0  0  0  0
 46 51  1  0  0  0  0
 47 65  1  0  0  0  0
 48 51  1  0  0  0  0
 48 65  1  0  0  0  0
 49 69  1  0  0  0  0
 50 64  1  0  0  0  0
 51 63  1  0  0  0  0
 52 60  1  0  0  0  0
 53 61  1  0  0  0  0
 54 61  1  0  0  0  0
 55 61  1  0  0  0  0
 56 71  1  0  0  0  0
 57 72  1  0  0  0  0
 58 80  1  0  0  0  0
 59 61  1  0  0  0  0
 59 70  1  0  0  0  0
 60 72  1  0  0  0  0
 62 63  1  0  0  0  0
M  CHG  1  72   1
M  ISO  4  39 100  58 101  68 100  80 101
M  END
> <Batch ID>
0014

> <Smiles>
CNC(C)C(=O)NC(C(=O)N1Cc2cc([101O:1][101CH2:1]C(=O)N(C)c3ccc([100NH:0][100C:0](=O)N4CCCC(n5nc(-c6ccc(Oc7ccc(F)cc7F)cc6)c(C(N)=O)c5N)C4)c(F)c3)ccc2CC1C(=O)NC1CCCc2ccccc21)C(C)(C)C

> <Shape>
0.297

> <Color>
0.119

> <Negative vol penalty>
0.000

$$$$

  -OEChem-04042320513D

 82 90  0     1  0  0  0  0  0999 V2000
  -24.2260   -6.7249   23.9000 C   0  0  0  0  0  0  0  0  0  0  0  0
  -25.3960   -7.4713   23.8026 C   0  0  0  0  0  0  0  0  0  0  0  0
  -23.7913  -33.1165   22.1097 C   0  0  0  0  0  0  0  0  0  0  0  0
  -25.7696  -32.3438   23.2612 C   0  0  0  0  0  0  0  0  0  0  0  0
  -23.1367   -7.0288   23.0846 C   0  0  0  0  0  0  0  0  0  0  0  0
  -25.4776   -8.5215   22.8889 C   0  0  0  0  0  0  0  0  0  0  0  0
  -28.4894  -14.9661   22.0451 C   0  0  0  0  0  0  0  0  0  0  0  0
  -27.6610  -23.4188   19.8564 C   0  0  0  0  0  0  0  0  0  0  0  0
  -23.8279  -34.3026   22.8427 C   0  0  0  0  0  0  0  0  0  0  0  0
  -25.8062  -33.5299   23.9943 C   0  0  0  0  0  0  0  0  0  0  0  0
  -29.2689  -15.6800   21.1359 C   0  0  0  0  0  0  0  0  0  0  0  0
  -28.6497  -22.4474   19.7006 C   0  0  0  0  0  0  0  0  0  0  0  0
  -25.5458  -37.2144   22.7854 C   0  0  0  0  0  0  0  0  0  0  0  0
  -25.3505  -38.4100   22.0940 C   0  0  0  0  0  0  0  0  0  0  0  0
  -27.2964  -16.1644   19.8344 C   0  0  0  0  0  0  0  0  0  0  0  0
  -26.4051  -21.9141   21.2690 C   0  0  0  0  0  0  0  0  0  0  0  0
  -23.4156  -38.8844   23.4608 C   0  0  0  0  0  0  0  0  0  0  0  0
  -24.7622  -32.1371   22.3190 C   0  0  0  0  0  0  0  0  0  0  0  0
  -25.3457  -30.6568   20.3250 C   0  0  0  0  0  0  0  0  0  0  0  0
  -23.2016   -8.0893   22.1672 C   0  0  0  0  0  0  0  0  0  0  0  0
  -27.1069  -14.8366   21.8496 C   0  0  0  0  0  0  0  0  0  0  0  0
  -24.3885   -8.8390   22.0595 C   0  0  0  0  0  0  0  0  0  0  0  0
  -26.5012  -15.4505   20.7440 C   0  0  0  0  0  0  0  0  0  0  0  0
  -26.5387  -23.1522   20.6407 C   0  0  0  0  0  0  0  0  0  0  0  0
  -24.8353  -34.5094   23.7850 C   0  0  0  0  0  0  0  0  0  0  0  0
  -28.6728  -16.2769   20.0289 C   0  0  0  0  0  0  0  0  0  0  0  0
  -24.6759  -36.8537   23.8144 C   0  0  0  0  0  0  0  0  0  0  0  0
  -28.5161  -21.2092   20.3289 C   0  0  0  0  0  0  0  0  0  0  0  0
  -24.2855  -39.2450   22.4318 C   0  0  0  0  0  0  0  0  0  0  0  0
  -23.6108  -37.6887   24.1521 C   0  0  0  0  0  0  0  0  0  0  0  0
  -27.3938  -20.9426   21.1132 C   0  0  0  0  0  0  0  0  0  0  0  0
  -24.7246  -30.9114   21.5624 C   0  0  0  0  0  0  0  0  0  0  0  0
  -25.0093  -29.3575   20.0328 C   0  0  0  0  0  0  0  0  0  0  0  0
  -26.1545  -31.5177   19.5123 C   0  0  0  0  0  0  0  0  0  0  0  0
  -25.1271  -12.3948   21.3785 C   0  0  0  0  0  0  0  0  0  0  0  0
  -22.8544  -14.6971   21.6163 C   0  0  0  0  0  0  0  0  0  0  0  0
  -22.0350  -17.9986   21.3419 C   0  0  0  0  0  0  0  0  0  0  0  0
  -24.3589  -24.0374   21.5414 C   0  0  0  0  0  0  0  0  0  0  0  0
  -22.0149   -8.3500   21.2737 C   0  0  0  0  0  0  0  0  0  0  0  0
  -26.2761  -14.0858   22.8538 C   0  0  0  0  0  0  0  0  0  0  0  0
  -25.0179  -15.3582   20.4995 C   0  0  0  0  0  0  0  0  0  0  0  0
  -22.0519   -9.7169   20.5951 C   0  0  0  0  0  0  0  0  0  0  0  0
  -21.6542  -26.2546   22.2093 C   0  0  0  0  0  0  0  0  0  0  0  0
  -23.4328   -9.9820   20.0038 C   0  0  0  0  0  0  0  0  0  0  0  0
  -22.2630  -27.6428   21.9987 C   0  0  0  0  0  0  0  0  0  0  0  0
  -22.6522  -25.2880   22.8445 C   0  0  0  0  0  0  0  0  0  0  0  0
  -24.5510  -26.5711   21.9403 C   0  0  0  0  0  0  0  0  0  0  0  0
  -24.5070  -10.0016   21.0979 C   0  0  1  0  0  0  0  0  0  0  0  0
  -24.9544  -13.5842   22.2803 C   0  0  1  0  0  0  0  0  0  0  0  0
  -23.6040  -27.5614   21.2432 C   0  0  2  0  0  0  0  0  0  0  0  0
  -20.0915  -19.5708   21.5621 C   0  0  0  0  0  0  0  0  0  0  0  0
  -21.7683  -13.7262   18.9353 C   0  0  0  0  0  0  0  0  0  0  0  0
  -20.4849  -15.8686   18.7584 C   0  0  0  0  0  0  0  0  0  0  0  0
  -20.0161  -14.2868   20.6294 C   0  0  0  0  0  0  0  0  0  0  0  0
  -23.3630  -19.5219   23.5040 C   0  0  0  0  0  0  0  0  0  0  0  0
  -30.9096  -18.8530   18.8157 C   0  0  0  0  0  0  0  0  0  0  0  0
  -30.5993  -17.6179   19.6467 C   0  0  0  0  0  0  0  0  0  1  0  0
  -29.7610  -19.8494   18.8266 C   0  0  0  0  0  0  0  0  0  0  0  0
  -22.1632  -15.6216   20.6434 C   0  0  1  0  0  0  0  0  0  0  0  0
  -21.2741  -18.9281   22.2701 C   0  0  2  0  0  0  0  0  0  0  0  0
  -21.1364  -14.8761   19.7449 C   0  0  0  0  0  0  0  0  0  0  0  0
  -24.0450  -29.8585   22.0245 N   0  0  0  0  0  0  0  0  0  0  0  0
  -24.2370  -28.9297   21.0724 N   0  0  0  0  0  0  0  0  0  0  0  0
  -24.2493  -14.6080   21.5064 N   0  0  0  0  0  0  0  0  0  0  0  0
  -23.8965  -25.2600   22.0727 N   0  0  0  0  0  0  0  0  0  0  0  0
  -25.3017  -28.5508   18.9907 N   0  0  0  0  0  0  0  0  0  0  0  0
  -26.4016  -32.8221   19.9614 N   0  0  0  0  0  0  0  0  0  0  0  0
  -25.5346  -24.1394   20.7985 N   0  0  0  0  0  0  0  0  0  0  0  0
  -24.4746  -11.2579   21.8156 N   0  0  0  0  0  0  0  0  0  0  0  0
  -21.5875  -16.6982   21.4421 N   0  0  0  0  0  0  0  0  0  0  0  0
  -22.1695  -20.0109   22.7668 N   0  3  0  0  0  0  0  0  0  0  0  0
  -26.6299  -31.1467   18.4124 O   0  0  0  0  0  0  0  0  0  0  0  0
  -25.8012  -12.5012   20.3607 O   0  0  0  0  0  0  0  0  0  0  0  0
  -22.1821  -14.0822   22.4480 O   0  0  0  0  0  0  0  0  0  0  0  0
  -22.9336  -18.3878   20.5993 O   0  0  0  0  0  0  0  0  0  0  0  0
  -23.7417  -22.9824   21.7086 O   0  0  0  0  0  0  0  0  0  0  0  0
  -24.8715  -35.6667   24.5004 O   0  0  0  0  0  0  0  0  0  0  0  0
  -29.4314  -16.9737   19.1396 O   0  0  0  0  0  0  0  0  0  1  0  0
  -29.5032  -20.2737   20.1583 O   0  0  0  0  0  0  0  0  0  0  0  0
  -24.0990  -40.3939   21.7688 F   0  0  0  0  0  0  0  0  0  0  0  0
  -22.7725  -37.3481   25.1406 F   0  0  0  0  0  0  0  0  0  0  0  0
  -27.2032  -19.4198   21.9013 Cl  0  0  0  0  0  0  0  0  0  0  0  0
  1  2  1  0  0  0  0
  1  5  2  0  0  0  0
  2  6  2  0  0  0  0
  3  9  2  0  0  0  0
  3 18  1  0  0  0  0
  4 10  1  0  0  0  0
  4 18  2  0  0  0  0
  5 20  1  0  0  0  0
  6 22  1  0  0  0  0
  7 11  2  0  0  0  0
  7 21  1  0  0  0  0
  8 12  2  0  0  0  0
  8 24  1  0  0  0  0
  9 25  1  0  0  0  0
 10 25  2  0  0  0  0
 11 26  1  0  0  0  0
 12 28  1  0  0  0  0
 13 14  2  0  0  0  0
 13 27  1  0  0  0  0
 14 29  1  0  0  0  0
 15 23  1  0  0  0  0
 15 26  2  0  0  0  0
 16 24  2  0  0  0  0
 16 31  1  0  0  0  0
 17 29  2  0  0  0  0
 17 30  1  0  0  0  0
 18 32  1  0  0  0  0
 19 32  1  0  0  0  0
 19 33  2  0  0  0  0
 19 34  1  0  0  0  0
 20 22  2  0  0  0  0
 20 39  1  0  0  0  0
 21 23  2  0  0  0  0
 21 40  1  0  0  0  0
 22 48  1  0  0  0  0
 23 41  1  0  0  0  0
 24 68  1  0  0  0  0
 25 77  1  0  0  0  0
 26 78  1  0  0  0  0
 27 30  2  0  0  0  0
 27 77  1  0  0  0  0
 28 31  2  0  0  0  0
 28 79  1  0  0  0  0
 29 80  1  0  0  0  0
 30 81  1  0  0  0  0
 31 82  1  0  0  0  0
 32 62  2  0  0  0  0
 33 63  1  0  0  0  0
 33 66  1  0  0  0  0
 34 67  1  0  0  0  0
 34 72  2  0  0  0  0
 35 49  1  0  0  0  0
 35 69  1  0  0  0  0
 35 73  2  0  0  0  0
 36 59  1  0  0  0  0
 36 64  1  0  0  0  0
 36 74  2  0  0  0  0
 37 60  1  0  0  0  0
 37 70  1  0  0  0  0
 37 75  2  0  0  0  0
 38 65  1  0  0  0  0
 38 68  1  0  0  0  0
 38 76  2  0  0  0  0
 39 42  1  0  0  0  0
 40 49  1  0  0  0  0
 41 64  1  0  0  0  0
 42 44  1  0  0  0  0
 43 45  1  0  0  0  0
 43 46  1  0  0  0  0
 44 48  1  0  0  0  0
 45 50  1  0  0  0  0
 46 65  1  0  0  0  0
 47 50  1  0  0  0  0
 47 65  1  0  0  0  0
 48 69  1  0  0  0  0
 49 64  1  0  0  0  0
 50 63  1  0  0  0  0
 51 60  1  0  0  0  0
 52 61  1  0  0  0  0
 53 61  1  0  0  0  0
 54 61  1  0  0  0  0
 55 71  1  0  0  0  0
 56 57  1  0  0  0  0
 56 58  1  0  0  0  0
 57 78  1  0  0  0  0
 58 79  1  0  0  0  0
 59 61  1  0  0  0  0
 59 70  1  0  0  0  0
 60 71  1  0  0  0  0
 62 63  1  0  0  0  0
M  CHG  1  71   1
M  ISO  4  38 100  57 101  68 100  78 101
M  END
> <Batch ID>
0014

> <Smiles>
CNC(C)C(=O)NC(C(=O)N1Cc2cc([101O:1][101CH2:1]CCOc3ccc([100NH:0][100C:0](=O)N4CCCC(n5nc(-c6ccc(Oc7ccc(F)cc7F)cc6)c(C(N)=O)c5N)C4)cc3Cl)ccc2CC1C(=O)NC1CCCc2ccccc21)C(C)(C)C

> <Shape>
0.242

> <Color>
0.069

> <Negative vol penalty>
0.000

$$$$

  -OEChem-04042320513D

 85 94  0     1  0  0  0  0  0999 V2000
  -16.8251  -29.2499   24.3567 C   0  0  0  0  0  0  0  0  0  0  0  0
  -17.1674  -28.3023   23.3975 C   0  0  0  0  0  0  0  0  0  0  0  0
  -26.0289  -13.3273   19.9243 C   0  0  0  0  0  0  0  0  0  0  0  0
  -26.2898  -14.0684   22.2090 C   0  0  0  0  0  0  0  0  0  0  0  0
  -17.5949  -30.4034   24.5011 C   0  0  0  0  0  0  0  0  0  0  0  0
  -18.2791  -28.5081   22.5813 C   0  0  0  0  0  0  0  0  0  0  0  0
  -22.1082  -24.2397   20.4308 C   0  0  0  0  0  0  0  0  0  0  0  0
  -27.9028  -20.0832   16.2007 C   0  0  0  0  0  0  0  0  0  0  0  0
  -27.0910  -18.2141   14.9027 C   0  0  0  0  0  0  0  0  0  0  0  0
  -29.1908  -19.5490   16.1644 C   0  0  0  0  0  0  0  0  0  0  0  0
  -28.3791  -17.6800   14.8664 C   0  0  0  0  0  0  0  0  0  0  0  0
  -25.6509  -12.0635   20.3773 C   0  0  0  0  0  0  0  0  0  0  0  0
  -25.9118  -12.8045   22.6621 C   0  0  0  0  0  0  0  0  0  0  0  0
  -22.1892  -23.5854   19.2023 C   0  0  0  0  0  0  0  0  0  0  0  0
  -22.8796  -10.5971   21.6432 C   0  0  0  0  0  0  0  0  0  0  0  0
  -21.7730   -9.9973   21.0422 C   0  0  0  0  0  0  0  0  0  0  0  0
  -23.8443  -25.1798   18.4690 C   0  0  0  0  0  0  0  0  0  0  0  0
  -23.1585   -8.1480   20.3367 C   0  0  0  0  0  0  0  0  0  0  0  0
  -26.3484  -14.3298   20.8401 C   0  0  0  0  0  0  0  0  0  0  0  0
  -25.8971  -16.7330   20.1131 C   0  0  0  0  0  0  0  0  0  0  0  0
  -18.7222  -30.6189   23.6928 C   0  0  0  0  0  0  0  0  0  0  0  0
  -22.8881  -25.3773   20.6840 C   0  0  0  0  0  0  0  0  0  0  0  0
  -19.0639  -29.6662   22.7141 C   0  0  0  0  0  0  0  0  0  0  0  0
  -23.7733  -25.8452   19.7024 C   0  0  0  0  0  0  0  0  0  0  0  0
  -26.8529  -19.4157   15.5699 C   0  0  0  0  0  0  0  0  0  0  0  0
  -29.4289  -18.3474   15.4972 C   0  0  0  0  0  0  0  0  0  0  0  0
  -25.5923  -11.8020   21.7462 C   0  0  0  0  0  0  0  0  0  0  0  0
  -23.0551  -24.0571   18.2201 C   0  0  0  0  0  0  0  0  0  0  0  0
  -24.1257   -9.9725   21.5909 C   0  0  0  0  0  0  0  0  0  0  0  0
  -21.9124   -8.7727   20.3890 C   0  0  0  0  0  0  0  0  0  0  0  0
  -24.2652   -8.7479   20.9377 C   0  0  0  0  0  0  0  0  0  0  0  0
  -26.7396  -15.6354   20.3727 C   0  0  0  0  0  0  0  0  0  0  0  0
  -26.7475  -17.7271   19.6945 C   0  0  0  0  0  0  0  0  0  0  0  0
  -25.1371  -21.1592   16.2371 C   0  0  0  0  0  0  0  0  0  0  0  0
  -24.4733  -16.8441   20.2392 C   0  0  0  0  0  0  0  0  0  0  0  0
  -22.2637  -28.4226   21.3475 C   0  0  0  0  0  0  0  0  0  0  0  0
  -25.4781  -28.5885   21.7510 C   0  0  0  0  0  0  0  0  0  0  0  0
  -28.5578  -27.3035   21.0363 C   0  0  0  0  0  0  0  0  0  0  0  0
  -31.7074  -17.9902   16.4832 C   0  0  0  0  0  0  0  0  0  0  0  0
  -19.4960  -31.9034   23.8538 C   0  0  0  0  0  0  0  0  0  0  0  0
  -22.8088  -26.0559   22.0240 C   0  0  0  0  0  0  0  0  0  0  0  0
  -24.6469  -27.0504   19.9319 C   0  0  0  0  0  0  0  0  0  0  0  0
  -20.8765  -31.8685   23.2030 C   0  0  0  0  0  0  0  0  0  0  0  0
  -31.5785  -18.6346   20.1248 C   0  0  0  0  0  0  0  0  0  0  0  0
  -20.7886  -31.2871   21.7955 C   0  0  0  0  0  0  0  0  0  0  0  0
  -30.2780  -17.9519   20.5443 C   0  0  0  0  0  0  0  0  0  0  0  0
  -23.1939  -19.9777   15.5352 C   0  0  0  0  0  0  0  0  0  0  0  0
  -32.2039  -17.9619   18.9066 C   0  0  0  0  0  0  0  0  0  0  0  0
  -24.4211  -19.3355   14.9198 C   0  0  0  0  0  0  0  0  0  0  0  0
  -29.9741  -17.1820   18.1576 C   0  0  0  0  0  0  0  0  0  0  0  0
  -20.2770  -29.8419   21.8266 C   0  0  1  0  0  0  0  0  0  0  0  0
  -23.6744  -21.3785   15.8855 C   0  0  1  0  0  0  0  0  0  0  0  0
  -23.2714  -27.5092   21.9862 C   0  0  1  0  0  0  0  0  0  0  0  0
  -29.3033  -17.8661   19.3582 C   0  0  1  0  0  0  0  0  0  0  0  0
  -30.9993  -27.6759   21.4812 C   0  0  0  0  0  0  0  0  0  0  0  0
  -25.4795  -30.9175   19.7798 C   0  0  0  0  0  0  0  0  0  0  0  0
  -27.9539  -30.6211   19.5389 C   0  0  0  0  0  0  0  0  0  0  0  0
  -26.9815  -31.2225   21.7560 C   0  0  0  0  0  0  0  0  0  0  0  0
  -31.2318  -17.2295   14.1970 C   0  0  0  0  0  0  0  0  0  0  0  0
  -28.8432  -24.6597   22.3355 C   0  0  0  0  0  0  0  0  0  0  0  0
  -22.8822  -22.0165   17.0111 C   0  0  0  0  0  0  0  0  0  1  0  0
  -26.6545  -28.8840   20.8523 C   0  0  1  0  0  0  0  0  0  0  0  0
  -29.7362  -26.9565   21.9282 C   0  0  2  0  0  0  0  0  0  0  0  0
  -26.7496  -30.3897   20.4764 C   0  0  0  0  0  0  0  0  0  0  0  0
  -28.0263  -15.9063   20.1384 N   0  0  0  0  0  0  0  0  0  0  0  0
  -27.9988  -17.1854   19.7272 N   0  0  0  0  0  0  0  0  0  0  0  0
  -25.5349  -19.9619   15.6072 N   0  0  0  0  0  0  0  0  0  0  0  0
  -24.5287  -27.6833   21.2559 N   0  0  0  0  0  0  0  0  0  0  0  0
  -31.2469  -17.8330   17.8066 N   0  0  0  0  0  0  0  0  0  0  0  0
  -26.5395  -19.0028   19.3052 N   0  0  0  0  0  0  0  0  0  0  0  0
  -23.7526  -15.7270   20.6830 N   0  0  0  0  0  0  0  0  0  0  0  0
  -21.3345  -28.9399   22.2298 N   0  0  0  0  0  0  0  0  0  0  0  0
  -27.8326  -28.3637   21.5377 N   0  0  0  0  0  0  0  0  0  0  0  0
  -30.7608  -17.7948   15.4595 N   0  0  0  0  0  0  0  0  0  0  0  0
  -29.9950  -25.4892   21.8971 N   0  3  0  0  0  0  0  0  0  0  0  0
  -25.7936  -21.9529   16.8954 O   0  0  0  0  0  0  0  0  0  0  0  0
  -23.8564  -17.8976   19.9507 O   0  0  0  0  0  0  0  0  0  0  0  0
  -22.3256  -28.6430   20.1436 O   0  0  0  0  0  0  0  0  0  0  0  0
  -25.4078  -29.1350   22.8546 O   0  0  0  0  0  0  0  0  0  0  0  0
  -28.3080  -26.6973   19.9968 O   0  0  0  0  0  0  0  0  0  0  0  0
  -32.8933  -18.2332   16.2275 O   0  0  0  0  0  0  0  0  0  0  0  0
  -25.2232  -10.5689   22.1887 O   0  0  0  0  0  0  0  0  0  0  0  0
  -23.1356  -23.4208   17.0200 O   0  0  0  0  0  0  0  0  0  1  0  0
  -20.8493   -8.1960   19.8132 F   0  0  0  0  0  0  0  0  0  0  0  0
  -25.4595   -8.1425   20.8851 F   0  0  0  0  0  0  0  0  0  0  0  0
  1  2  1  0  0  0  0
  1  5  2  0  0  0  0
  2  6  2  0  0  0  0
  3 12  2  0  0  0  0
  3 19  1  0  0  0  0
  4 13  1  0  0  0  0
  4 19  2  0  0  0  0
  5 21  1  0  0  0  0
  6 23  1  0  0  0  0
  7 14  2  0  0  0  0
  7 22  1  0  0  0  0
  8 10  2  0  0  0  0
  8 25  1  0  0  0  0
  9 11  1  0  0  0  0
  9 25  2  0  0  0  0
 10 26  1  0  0  0  0
 11 26  2  0  0  0  0
 12 27  1  0  0  0  0
 13 27  2  0  0  0  0
 14 28  1  0  0  0  0
 15 16  2  0  0  0  0
 15 29  1  0  0  0  0
 16 30  1  0  0  0  0
 17 24  1  0  0  0  0
 17 28  2  0  0  0  0
 18 30  2  0  0  0  0
 18 31  1  0  0  0  0
 19 32  1  0  0  0  0
 20 32  1  0  0  0  0
 20 33  2  0  0  0  0
 20 35  1  0  0  0  0
 21 23  2  0  0  0  0
 21 40  1  0  0  0  0
 22 24  2  0  0  0  0
 22 41  1  0  0  0  0
 23 51  1  0  0  0  0
 24 42  1  0  0  0  0
 25 67  1  0  0  0  0
 26 74  1  0  0  0  0
 27 82  1  0  0  0  0
 28 83  1  0  0  0  0
 29 31  2  0  0  0  0
 29 82  1  0  0  0  0
 30 84  1  0  0  0  0
 31 85  1  0  0  0  0
 32 65  2  0  0  0  0
 33 66  1  0  0  0  0
 33 70  1  0  0  0  0
 34 52  1  0  0  0  0
 34 67  1  0  0  0  0
 34 76  2  0  0  0  0
 35 71  1  0  0  0  0
 35 77  2  0  0  0  0
 36 53  1  0  0  0  0
 36 72  1  0  0  0  0
 36 78  2  0  0  0  0
 37 62  1  0  0  0  0
 37 68  1  0  0  0  0
 37 79  2  0  0  0  0
 38 63  1  0  0  0  0
 38 73  1  0  0  0  0
 38 80  2  0  0  0  0
 39 69  1  0  0  0  0
 39 74  1  0  0  0  0
 39 81  2  0  0  0  0
 40 43  1  0  0  0  0
 41 53  1  0  0  0  0
 42 68  1  0  0  0  0
 43 45  1  0  0  0  0
 44 46  1  0  0  0  0
 44 48  1  0  0  0  0
 45 51  1  0  0  0  0
 46 54  1  0  0  0  0
 47 49  1  0  0  0  0
 47 52  1  0  0  0  0
 48 69  1  0  0  0  0
 49 67  1  0  0  0  0
 50 54  1  0  0  0  0
 50 69  1  0  0  0  0
 51 72  1  0  0  0  0
 52 61  1  0  0  0  0
 53 68  1  0  0  0  0
 54 66  1  0  0  0  0
 55 63  1  0  0  0  0
 56 64  1  0  0  0  0
 57 64  1  0  0  0  0
 58 64  1  0  0  0  0
 59 74  1  0  0  0  0
 60 75  1  0  0  0  0
 61 83  1  0  0  0  0
 62 64  1  0  0  0  0
 62 73  1  0  0  0  0
 63 75  1  0  0  0  0
 65 66  1  0  0  0  0
M  CHG  1  75   1
M  ISO  4  39 100  61 101  74 100  83 101
M  END
> <Batch ID>
0014

> <Smiles>
CNC(C)C(=O)NC(C(=O)N1Cc2cc([101O:1][101CH2:1]C3CCN(c4ccc([100N:0](C)[100C:0](=O)N5CCCC(n6nc(-c7ccc(Oc8ccc(F)cc8F)cc7)c(C(N)=O)c6N)C5)cc4)C3=O)ccc2CC1C(=O)NC1CCCc2ccccc21)C(C)(C)C

> <Shape>
0.209

> <Color>
0.081

> <Negative vol penalty>
0.000

$$$$

  -OEChem-04042320513D

 83 91  0     1  0  0  0  0  0999 V2000
  -28.4019  -37.8886   19.9837 C   0  0  0  0  0  0  0  0  0  0  0  0
  -28.7995  -36.5696   19.7897 C   0  0  0  0  0  0  0  0  0  0  0  0
  -24.8678   -7.9171   21.3102 C   0  0  0  0  0  0  0  0  0  0  0  0
  -23.4911   -9.8961   21.1515 C   0  0  0  0  0  0  0  0  0  0  0  0
  -27.4691  -38.1959   20.9733 C   0  0  0  0  0  0  0  0  0  0  0  0
  -28.2652  -35.5572   20.5861 C   0  0  0  0  0  0  0  0  0  0  0  0
  -27.0191  -29.8071   18.8865 C   0  0  0  0  0  0  0  0  0  0  0  0
  -28.9871  -17.5804   20.4227 C   0  0  0  0  0  0  0  0  0  0  0  0
  -24.0451   -7.4261   22.3239 C   0  0  0  0  0  0  0  0  0  0  0  0
  -22.6683   -9.4050   22.1652 C   0  0  0  0  0  0  0  0  0  0  0  0
  -27.7194  -28.6112   19.0390 C   0  0  0  0  0  0  0  0  0  0  0  0
  -28.6573  -18.8755   20.8219 C   0  0  0  0  0  0  0  0  0  0  0  0
  -21.0377   -5.9007   22.5718 C   0  0  0  0  0  0  0  0  0  0  0  0
  -20.6516   -4.5621   22.5020 C   0  0  0  0  0  0  0  0  0  0  0  0
  -26.4281  -28.1141   21.0151 C   0  0  0  0  0  0  0  0  0  0  0  0
  -26.7099  -17.2234   19.6990 C   0  0  0  0  0  0  0  0  0  0  0  0
  -21.7106   -4.1456   24.6333 C   0  0  0  0  0  0  0  0  0  0  0  0
  -24.5908   -9.1521   20.7240 C   0  0  0  0  0  0  0  0  0  0  0  0
  -25.3003   -9.4517   18.2920 C   0  0  0  0  0  0  0  0  0  0  0  0
  -26.9159  -37.1856   21.7758 C   0  0  0  0  0  0  0  0  0  0  0  0
  -26.0238  -30.1712   19.8049 C   0  0  0  0  0  0  0  0  0  0  0  0
  -27.3252  -35.8515   21.5883 C   0  0  0  0  0  0  0  0  0  0  0  0
  -25.7149  -29.3139   20.8705 C   0  0  0  0  0  0  0  0  0  0  0  0
  -28.0134  -16.7543   19.8612 C   0  0  0  0  0  0  0  0  0  0  0  0
  -22.9454   -8.1700   22.7514 C   0  0  0  0  0  0  0  0  0  0  0  0
  -27.4259  -27.7659   20.1051 C   0  0  0  0  0  0  0  0  0  0  0  0
  -21.7604   -6.3617   23.6723 C   0  0  0  0  0  0  0  0  0  0  0  0
  -27.3537  -19.3446   20.6597 C   0  0  0  0  0  0  0  0  0  0  0  0
  -20.9881   -3.6846   23.5328 C   0  0  0  0  0  0  0  0  0  0  0  0
  -26.3800  -18.5186   20.0983 C   0  0  0  0  0  0  0  0  0  0  0  0
  -22.0968   -5.4842   24.7030 C   0  0  0  0  0  0  0  0  0  0  0  0
  -25.4406   -9.6602   19.6771 C   0  0  0  0  0  0  0  0  0  0  0  0
  -26.3504  -10.1385   17.7333 C   0  0  0  0  0  0  0  0  0  0  0  0
  -24.3093   -8.7042   17.5745 C   0  0  0  0  0  0  0  0  0  0  0  0
  -25.6192  -32.5832   21.8352 C   0  0  0  0  0  0  0  0  0  0  0  0
  -22.7072  -31.2205   22.2659 C   0  0  0  0  0  0  0  0  0  0  0  0
  -20.7671  -28.4178   22.1010 C   0  0  0  0  0  0  0  0  0  0  0  0
  -29.5939  -14.8180   19.5463 C   0  0  0  0  0  0  0  0  0  0  0  0
  -25.9463  -37.5724   22.8643 C   0  0  0  0  0  0  0  0  0  0  0  0
  -25.2591  -31.4519   19.6112 C   0  0  0  0  0  0  0  0  0  0  0  0
  -24.6414  -29.6491   21.8724 C   0  0  0  0  0  0  0  0  0  0  0  0
  -25.1476  -36.3940   23.4155 C   0  0  0  0  0  0  0  0  0  0  0  0
  -30.8140  -11.5837   18.6934 C   0  0  0  0  0  0  0  0  0  0  0  0
  -26.0682  -35.2112   23.6991 C   0  0  0  0  0  0  0  0  0  0  0  0
  -29.5608  -10.7056   18.7169 C   0  0  0  0  0  0  0  0  0  0  0  0
  -30.7811  -12.6484   19.7883 C   0  0  0  0  0  0  0  0  0  0  0  0
  -28.3183  -12.6029   19.8320 C   0  0  0  0  0  0  0  0  0  0  0  0
  -26.7498  -34.7224   22.4154 C   0  0  1  0  0  0  0  0  0  0  0  0
  -24.6203  -31.9667   20.8973 C   0  0  1  0  0  0  0  0  0  0  0  0
  -28.2760  -11.5569   18.7061 C   0  0  2  0  0  0  0  0  0  0  0  0
  -18.4361  -27.6061   22.5539 C   0  0  0  0  0  0  0  0  0  0  0  0
  -23.2992  -31.1982   25.2591 C   0  0  0  0  0  0  0  0  0  0  0  0
  -21.4267  -29.5612   25.5464 C   0  0  0  0  0  0  0  0  0  0  0  0
  -20.9585  -31.8468   24.6634 C   0  0  0  0  0  0  0  0  0  0  0  0
  -20.3486  -27.6798   19.2657 C   0  0  0  0  0  0  0  0  0  0  0  0
  -27.9552  -24.1906   20.3555 C   0  0  0  0  0  0  0  0  0  0  0  0
  -27.2267  -23.0036   20.9762 C   0  0  0  0  0  0  0  0  0  0  0  0
  -27.4143  -25.5159   20.8755 C   0  0  0  0  0  0  0  0  0  1  0  0
  -27.7375  -21.6799   20.4251 C   0  0  0  0  0  0  0  0  0  0  0  0
  -22.1455  -30.1685   23.1915 C   0  0  1  0  0  0  0  0  0  0  0  0
  -19.3866  -28.1813   21.5155 C   0  0  2  0  0  0  0  0  0  0  0  0
  -21.9791  -30.6880   24.6475 C   0  0  0  0  0  0  0  0  0  0  0  0
  -26.4967  -10.4198   19.9799 N   0  0  0  0  0  0  0  0  0  0  0  0
  -27.0296  -10.6946   18.7771 N   0  0  0  0  0  0  0  0  0  0  0  0
  -23.9261  -30.9154   21.6438 N   0  0  0  0  0  0  0  0  0  0  0  0
  -29.5374  -13.4181   19.7135 N   0  0  0  0  0  0  0  0  0  0  0  0
  -26.7499  -10.3148   16.4559 N   0  0  0  0  0  0  0  0  0  0  0  0
  -23.3006   -8.0600   18.3037 N   0  0  0  0  0  0  0  0  0  0  0  0
  -28.3484  -15.4386   19.4557 N   0  0  0  0  0  0  0  0  0  0  0  0
  -25.8307  -33.9324   21.6245 N   0  0  0  0  0  0  0  0  0  0  0  0
  -20.9062  -29.7042   22.5775 N   0  0  0  0  0  0  0  0  0  0  0  0
  -19.4652  -27.2291   20.3717 N   0  3  0  0  0  0  0  0  0  0  0  0
  -24.3275   -8.5967   16.3248 O   0  0  0  0  0  0  0  0  0  0  0  0
  -26.1572  -31.8867   22.6880 O   0  0  0  0  0  0  0  0  0  0  0  0
  -22.0838  -32.2712   22.0955 O   0  0  0  0  0  0  0  0  0  0  0  0
  -21.6339  -27.5472   22.1359 O   0  0  0  0  0  0  0  0  0  0  0  0
  -30.6682  -15.4185   19.4604 O   0  0  0  0  0  0  0  0  0  0  0  0
  -22.1423   -7.6910   23.7404 O   0  0  0  0  0  0  0  0  0  0  0  0
  -28.1084  -26.5984   20.2567 O   0  0  0  0  0  0  0  0  0  1  0  0
  -27.0315  -20.6179   21.0519 O   0  0  0  0  0  0  0  0  0  0  0  0
  -20.6159   -2.3996   23.4664 F   0  0  0  0  0  0  0  0  0  0  0  0
  -25.1263  -18.9641   19.9388 F   0  0  0  0  0  0  0  0  0  0  0  0
  -22.7899   -5.9215   25.7633 F   0  0  0  0  0  0  0  0  0  0  0  0
  1  2  1  0  0  0  0
  1  5  2  0  0  0  0
  2  6  2  0  0  0  0
  3  9  2  0  0  0  0
  3 18  1  0  0  0  0
  4 10  1  0  0  0  0
  4 18  2  0  0  0  0
  5 20  1  0  0  0  0
  6 22  1  0  0  0  0
  7 11  2  0  0  0  0
  7 21  1  0  0  0  0
  8 12  2  0  0  0  0
  8 24  1  0  0  0  0
  9 25  1  0  0  0  0
 10 25  2  0  0  0  0
 11 26  1  0  0  0  0
 12 28  1  0  0  0  0
 13 14  2  0  0  0  0
 13 27  1  0  0  0  0
 14 29  1  0  0  0  0
 15 23  1  0  0  0  0
 15 26  2  0  0  0  0
 16 24  2  0  0  0  0
 16 30  1  0  0  0  0
 17 29  2  0  0  0  0
 17 31  1  0  0  0  0
 18 32  1  0  0  0  0
 19 32  1  0  0  0  0
 19 33  2  0  0  0  0
 19 34  1  0  0  0  0
 20 22  2  0  0  0  0
 20 39  1  0  0  0  0
 21 23  2  0  0  0  0
 21 40  1  0  0  0  0
 22 48  1  0  0  0  0
 23 41  1  0  0  0  0
 24 69  1  0  0  0  0
 25 78  1  0  0  0  0
 26 79  1  0  0  0  0
 27 31  2  0  0  0  0
 27 78  1  0  0  0  0
 28 30  2  0  0  0  0
 28 80  1  0  0  0  0
 29 81  1  0  0  0  0
 30 82  1  0  0  0  0
 31 83  1  0  0  0  0
 32 63  2  0  0  0  0
 33 64  1  0  0  0  0
 33 67  1  0  0  0  0
 34 68  1  0  0  0  0
 34 73  2  0  0  0  0
 35 49  1  0  0  0  0
 35 70  1  0  0  0  0
 35 74  2  0  0  0  0
 36 60  1  0  0  0  0
 36 65  1  0  0  0  0
 36 75  2  0  0  0  0
 37 61  1  0  0  0  0
 37 71  1  0  0  0  0
 37 76  2  0  0  0  0
 38 66  1  0  0  0  0
 38 69  1  0  0  0  0
 38 77  2  0  0  0  0
 39 42  1  0  0  0  0
 40 49  1  0  0  0  0
 41 65  1  0  0  0  0
 42 44  1  0  0  0  0
 43 45  1  0  0  0  0
 43 46  1  0  0  0  0
 44 48  1  0  0  0  0
 45 50  1  0  0  0  0
 46 66  1  0  0  0  0
 47 50  1  0  0  0  0
 47 66  1  0  0  0  0
 48 70  1  0  0  0  0
 49 65  1  0  0  0  0
 50 64  1  0  0  0  0
 51 61  1  0  0  0  0
 52 62  1  0  0  0  0
 53 62  1  0  0  0  0
 54 62  1  0  0  0  0
 55 72  1  0  0  0  0
 56 57  1  0  0  0  0
 56 58  1  0  0  0  0
 57 59  1  0  0  0  0
 58 79  1  0  0  0  0
 59 80  1  0  0  0  0
 60 62  1  0  0  0  0
 60 71  1  0  0  0  0
 61 72  1  0  0  0  0
 63 64  1  0  0  0  0
M  CHG  1  72   1
M  ISO  4  38 100  58 101  69 100  79 101
M  END
> <Batch ID>
0014

> <Smiles>
CNC(C)C(=O)NC(C(=O)N1Cc2cc([101O:1][101CH2:1]CCCOc3ccc([100NH:0][100C:0](=O)N4CCCC(n5nc(-c6ccc(Oc7ccc(F)cc7F)cc6)c(C(N)=O)c5N)C4)cc3F)ccc2CC1C(=O)NC1CCCc2ccccc21)C(C)(C)C

> <Shape>
0.285

> <Color>
0.090

> <Negative vol penalty>
0.000

$$$$

  -OEChem-04042320513D

 88 96  0     1  0  0  0  0  0999 V2000
  -17.1694  -13.3602   30.5821 C   0  0  0  0  0  0  0  0  0  0  0  0
  -17.7805  -13.8762   29.4437 C   0  0  0  0  0  0  0  0  0  0  0  0
  -23.1906   -9.8531   19.9506 C   0  0  0  0  0  0  0  0  0  0  0  0
  -23.8807   -9.9304   22.2647 C   0  0  0  0  0  0  0  0  0  0  0  0
  -17.4488  -13.9107   31.8322 C   0  0  0  0  0  0  0  0  0  0  0  0
  -18.6705  -14.9439   29.5548 C   0  0  0  0  0  0  0  0  0  0  0  0
  -23.6806  -15.9274   26.1729 C   0  0  0  0  0  0  0  0  0  0  0  0
  -30.4819  -17.3466   24.3782 C   0  0  0  0  0  0  0  0  0  0  0  0
  -29.8066  -18.5475   24.5955 C   0  0  0  0  0  0  0  0  0  0  0  0
  -22.4836   -8.6770   20.2007 C   0  0  0  0  0  0  0  0  0  0  0  0
  -23.1737   -8.7543   22.5148 C   0  0  0  0  0  0  0  0  0  0  0  0
  -23.9203  -16.7400   25.0657 C   0  0  0  0  0  0  0  0  0  0  0  0
  -23.1717   -5.3887   20.5715 C   0  0  0  0  0  0  0  0  0  0  0  0
  -23.3054   -4.3457   19.6550 C   0  0  0  0  0  0  0  0  0  0  0  0
  -24.7871  -18.4573   26.5213 C   0  0  0  0  0  0  0  0  0  0  0  0
  -29.4291  -18.7652   22.2191 C   0  0  0  0  0  0  0  0  0  0  0  0
  -20.9279   -4.4138   19.2307 C   0  0  0  0  0  0  0  0  0  0  0  0
  -23.8892  -10.4798   20.9826 C   0  0  0  0  0  0  0  0  0  0  0  0
  -24.1390  -13.0136   20.8245 C   0  0  0  0  0  0  0  0  0  0  0  0
  -18.3500  -14.9794   31.9597 C   0  0  0  0  0  0  0  0  0  0  0  0
  -23.9828  -16.3787   27.4658 C   0  0  0  0  0  0  0  0  0  0  0  0
  -18.9611  -15.5101   30.8076 C   0  0  0  0  0  0  0  0  0  0  0  0
  -24.5527  -17.6475   27.6430 C   0  0  0  0  0  0  0  0  0  0  0  0
  -30.6309  -16.8549   23.0814 C   0  0  0  0  0  0  0  0  0  0  0  0
  -29.2802  -19.2568   23.5160 C   0  0  0  0  0  0  0  0  0  0  0  0
  -22.4751   -8.1276   21.4828 C   0  0  0  0  0  0  0  0  0  0  0  0
  -24.4709  -18.0063   25.2400 C   0  0  0  0  0  0  0  0  0  0  0  0
  -21.9161   -5.9442   20.8177 C   0  0  0  0  0  0  0  0  0  0  0  0
  -22.1835   -3.8583   18.9846 C   0  0  0  0  0  0  0  0  0  0  0  0
  -30.1045  -17.5642   22.0018 C   0  0  0  0  0  0  0  0  0  0  0  0
  -20.7942   -5.4568   20.1473 C   0  0  0  0  0  0  0  0  0  0  0  0
  -24.6202  -11.6944   20.7248 C   0  0  0  0  0  0  0  0  0  0  0  0
  -25.2125  -13.7977   20.4790 C   0  0  0  0  0  0  0  0  0  0  0  0
  -22.8380  -13.4879   21.1962 C   0  0  0  0  0  0  0  0  0  0  0  0
  -22.2910  -16.9450   30.0965 C   0  0  0  0  0  0  0  0  0  0  0  0
  -25.2184  -17.4392   31.4036 C   0  0  0  0  0  0  0  0  0  0  0  0
  -28.4984  -18.2589   30.9378 C   0  0  0  0  0  0  0  0  0  0  0  0
  -30.8801  -14.1037   20.9284 C   0  0  0  0  0  0  0  0  0  0  0  0
  -18.5843  -15.5722   33.3266 C   0  0  0  0  0  0  0  0  0  0  0  0
  -23.7431  -15.4795   28.6475 C   0  0  0  0  0  0  0  0  0  0  0  0
  -24.9139  -18.1709   29.0083 C   0  0  0  0  0  0  0  0  0  0  0  0
  -19.8253  -16.4581   33.4018 C   0  0  0  0  0  0  0  0  0  0  0  0
  -29.3973  -13.0841   17.9640 C   0  0  0  0  0  0  0  0  0  0  0  0
  -19.8692  -17.4171   32.2164 C   0  0  0  0  0  0  0  0  0  0  0  0
  -27.9634  -12.7443   18.3682 C   0  0  0  0  0  0  0  0  0  0  0  0
  -30.3879  -12.6071   19.0194 C   0  0  0  0  0  0  0  0  0  0  0  0
  -28.6902  -12.8251   20.8058 C   0  0  0  0  0  0  0  0  0  0  0  0
  -19.9512  -16.6517   30.8902 C   0  0  1  0  0  0  0  0  0  0  0  0
  -23.6124  -16.2425   29.9621 C   0  0  1  0  0  0  0  0  0  0  0  0
  -27.6430  -13.2873   19.7718 C   0  0  2  0  0  0  0  0  0  0  0  0
  -27.0672  -13.8477   23.7120 C   0  0  0  0  0  0  0  0  0  0  0  0
  -30.3885  -21.7455   24.7859 C   0  0  0  0  0  0  0  0  0  0  0  0
  -30.6374  -18.6184   32.1998 C   0  0  0  0  0  0  0  0  0  0  0  0
  -24.1954  -20.1498   32.3606 C   0  0  0  0  0  0  0  0  0  0  0  0
  -26.5727  -20.8309   32.7517 C   0  0  0  0  0  0  0  0  0  0  0  0
  -25.5996  -18.9183   34.0238 C   0  0  0  0  0  0  0  0  0  0  0  0
  -29.8596  -16.0698   29.4840 C   0  0  0  0  0  0  0  0  0  0  0  0
  -31.3536  -15.5705   22.8525 C   0  0  0  0  0  0  0  0  0  0  0  0
  -28.1139  -14.4858   22.8093 C   0  0  0  0  0  0  0  0  0  0  0  0
  -26.3846  -19.9241   22.8651 C   0  0  0  0  0  0  0  0  0  0  0  0
  -28.9648  -21.3114   24.8723 C   0  0  0  0  0  0  0  0  0  0  0  0
  -29.5149  -13.9377   23.0529 C   0  0  0  0  0  0  0  0  0  0  0  0
  -27.5491  -20.9070   22.8523 C   0  0  0  0  0  0  0  0  0  0  0  0
  -25.7935  -19.7200   24.2551 C   0  0  0  0  0  0  0  0  0  1  0  0
  -26.1282  -18.6327   31.5679 C   0  0  1  0  0  0  0  0  0  0  0  0
  -29.7784  -17.6176   31.4426 C   0  0  2  0  0  0  0  0  0  0  0  0
  -25.6155  -19.6241   32.6503 C   0  0  0  0  0  0  0  0  0  0  0  0
  -25.8997  -11.6396   20.3455 N   0  0  0  0  0  0  0  0  0  0  0  0
  -26.2316  -12.9341   20.2038 N   0  0  0  0  0  0  0  0  0  0  0  0
  -24.6546  -17.2568   30.1329 N   0  0  0  0  0  0  0  0  0  0  0  0
  -30.0503  -13.1374   20.3406 N   0  0  0  0  0  0  0  0  0  0  0  0
  -25.3746  -15.1347   20.3868 N   0  0  0  0  0  0  0  0  0  0  0  0
  -21.8514  -12.5468   21.5211 N   0  0  0  0  0  0  0  0  0  0  0  0
  -21.2979  -16.1714   30.6663 N   0  0  0  0  0  0  0  0  0  0  0  0
  -27.4599  -18.0977   31.8304 N   0  0  0  0  0  0  0  0  0  0  0  0
  -28.6010  -20.4640   23.7351 N   0  0  3  0  0  0  0  0  0  0  0  0
  -30.5171  -14.5734   22.1997 N   0  0  0  0  0  0  0  0  0  0  0  0
  -30.5747  -17.0830   30.3020 N   0  3  0  0  0  0  0  0  0  0  0  0
  -22.5539  -14.7094   21.2232 O   0  0  0  0  0  0  0  0  0  0  0  0
  -22.1811  -18.1038   29.7132 O   0  0  0  0  0  0  0  0  0  0  0  0
  -25.0211  -16.6922   32.3652 O   0  0  0  0  0  0  0  0  0  0  0  0
  -28.4278  -18.8474   29.8611 O   0  0  0  0  0  0  0  0  0  0  0  0
  -31.8943  -14.5193   20.3533 O   0  0  0  0  0  0  0  0  0  0  0  0
  -21.7852   -6.9801   21.7272 O   0  0  0  0  0  0  0  0  0  0  0  0
  -24.7052  -18.8018   24.1610 O   0  0  0  0  0  0  0  0  0  1  0  0
  -22.3123   -2.8577   18.1034 F   0  0  0  0  0  0  0  0  0  0  0  0
  -30.2436  -17.1004   20.7520 F   0  0  0  0  0  0  0  0  0  0  0  0
  -19.5856   -5.9872   20.3787 F   0  0  0  0  0  0  0  0  0  0  0  0
  1  2  1  0  0  0  0
  1  5  2  0  0  0  0
  2  6  2  0  0  0  0
  3 10  2  0  0  0  0
  3 18  1  0  0  0  0
  4 11  1  0  0  0  0
  4 18  2  0  0  0  0
  5 20  1  0  0  0  0
  6 22  1  0  0  0  0
  7 12  2  0  0  0  0
  7 21  1  0  0  0  0
  8  9  2  0  0  0  0
  8 24  1  0  0  0  0
  9 25  1  0  0  0  0
 10 26  1  0  0  0  0
 11 26  2  0  0  0  0
 12 27  1  0  0  0  0
 13 14  2  0  0  0  0
 13 28  1  0  0  0  0
 14 29  1  0  0  0  0
 15 23  1  0  0  0  0
 15 27  2  0  0  0  0
 16 25  2  0  0  0  0
 16 30  1  0  0  0  0
 17 29  2  0  0  0  0
 17 31  1  0  0  0  0
 18 32  1  0  0  0  0
 19 32  1  0  0  0  0
 19 33  2  0  0  0  0
 19 34  1  0  0  0  0
 20 22  2  0  0  0  0
 20 39  1  0  0  0  0
 21 23  2  0  0  0  0
 21 40  1  0  0  0  0
 22 48  1  0  0  0  0
 23 41  1  0  0  0  0
 24 30  2  0  0  0  0
 24 58  1  0  0  0  0
 25 76  1  0  0  0  0
 26 84  1  0  0  0  0
 27 85  1  0  0  0  0
 28 31  2  0  0  0  0
 28 84  1  0  0  0  0
 29 86  1  0  0  0  0
 30 87  1  0  0  0  0
 31 88  1  0  0  0  0
 32 68  2  0  0  0  0
 33 69  1  0  0  0  0
 33 72  1  0  0  0  0
 34 73  1  0  0  0  0
 34 79  2  0  0  0  0
 35 49  1  0  0  0  0
 35 74  1  0  0  0  0
 35 80  2  0  0  0  0
 36 65  1  0  0  0  0
 36 70  1  0  0  0  0
 36 81  2  0  0  0  0
 37 66  1  0  0  0  0
 37 75  1  0  0  0  0
 37 82  2  0  0  0  0
 38 71  1  0  0  0  0
 38 77  1  0  0  0  0
 38 83  2  0  0  0  0
 39 42  1  0  0  0  0
 40 49  1  0  0  0  0
 41 70  1  0  0  0  0
 42 44  1  0  0  0  0
 43 45  1  0  0  0  0
 43 46  1  0  0  0  0
 44 48  1  0  0  0  0
 45 50  1  0  0  0  0
 46 71  1  0  0  0  0
 47 50  1  0  0  0  0
 47 71  1  0  0  0  0
 48 74  1  0  0  0  0
 49 70  1  0  0  0  0
 50 69  1  0  0  0  0
 51 59  1  0  0  0  0
 52 61  1  0  0  0  0
 53 66  1  0  0  0  0
 54 67  1  0  0  0  0
 55 67  1  0  0  0  0
 56 67  1  0  0  0  0
 57 78  1  0  0  0  0
 58 77  1  0  0  0  0
 59 62  1  0  0  0  0
 60 63  1  0  0  0  0
 60 64  1  0  0  0  0
 61 76  1  0  0  0  0
 62 77  1  0  0  0  0
 63 76  1  0  0  0  0
 64 85  1  0  0  0  0
 65 67  1  0  0  0  0
 65 75  1  0  0  0  0
 66 78  1  0  0  0  0
 68 69  1  0  0  0  0
M  CHG  1  78   1
M  ISO  4  38 100  64 101  77 100  85 101
M  END
> <Batch ID>
0014

> <Smiles>
CCC[100N:0](Cc1ccc(N(CC)CC[101CH2:1][101O:1]c2ccc3c(c2)CN(C(=O)C(NC(=O)C(C)NC)C(C)(C)C)C(C(=O)NC2CCCc4ccccc42)C3)cc1F)[100C:0](=O)N1CCCC(n2nc(-c3ccc(Oc4ccc(F)cc4F)cc3)c(C(N)=O)c2N)C1

> <Shape>
0.162

> <Color>
0.200

> <Negative vol penalty>
0.000

$$$$

  -OEChem-04042320513D

 84 92  0     1  0  0  0  0  0999 V2000
  -21.1272  -20.5637   25.1399 C   0  0  0  0  0  0  0  0  0  0  0  0
  -22.4346  -20.6386   24.6702 C   0  0  0  0  0  0  0  0  0  0  0  0
  -24.4870   -9.3083   20.0187 C   0  0  0  0  0  0  0  0  0  0  0  0
  -24.4576   -9.7765   22.3887 C   0  0  0  0  0  0  0  0  0  0  0  0
  -20.1861  -21.5082   24.7321 C   0  0  0  0  0  0  0  0  0  0  0  0
  -22.8014  -21.6574   23.7916 C   0  0  0  0  0  0  0  0  0  0  0  0
  -28.2135  -24.5102   23.5160 C   0  0  0  0  0  0  0  0  0  0  0  0
  -29.1758  -19.1773   19.5501 C   0  0  0  0  0  0  0  0  0  0  0  0
  -24.2165   -7.9653   20.2806 C   0  0  0  0  0  0  0  0  0  0  0  0
  -24.1870   -8.4335   22.6507 C   0  0  0  0  0  0  0  0  0  0  0  0
  -29.3233  -24.3385   22.6899 C   0  0  0  0  0  0  0  0  0  0  0  0
  -29.7595  -20.2664   18.9031 C   0  0  0  0  0  0  0  0  0  0  0  0
  -23.1313   -5.1966   23.9259 C   0  0  0  0  0  0  0  0  0  0  0  0
  -22.1393   -4.9047   24.8620 C   0  0  0  0  0  0  0  0  0  0  0  0
  -28.5232  -26.1069   21.2575 C   0  0  0  0  0  0  0  0  0  0  0  0
  -27.4312  -20.6168   20.3993 C   0  0  0  0  0  0  0  0  0  0  0  0
  -20.5174   -6.0777   23.5089 C   0  0  0  0  0  0  0  0  0  0  0  0
  -24.6076  -10.2140   21.0727 C   0  0  0  0  0  0  0  0  0  0  0  0
  -23.9522  -12.6312   20.5880 C   0  0  0  0  0  0  0  0  0  0  0  0
  -20.5439  -22.5447   23.8557 C   0  0  0  0  0  0  0  0  0  0  0  0
  -27.2429  -25.4758   23.2126 C   0  0  0  0  0  0  0  0  0  0  0  0
  -21.8638  -22.6158   23.3707 C   0  0  0  0  0  0  0  0  0  0  0  0
  -27.4033  -26.2906   22.0828 C   0  0  0  0  0  0  0  0  0  0  0  0
  -28.0116  -19.3525   20.2982 C   0  0  0  0  0  0  0  0  0  0  0  0
  -24.0665   -7.5278   21.5966 C   0  0  0  0  0  0  0  0  0  0  0  0
  -29.4769  -25.1349   21.5589 C   0  0  0  0  0  0  0  0  0  0  0  0
  -22.8164   -5.9291   22.7813 C   0  0  0  0  0  0  0  0  0  0  0  0
  -29.1791  -21.5307   19.0042 C   0  0  0  0  0  0  0  0  0  0  0  0
  -20.8323   -5.3452   24.6535 C   0  0  0  0  0  0  0  0  0  0  0  0
  -28.0149  -21.7060   19.7523 C   0  0  0  0  0  0  0  0  0  0  0  0
  -21.5095   -6.3696   22.5729 C   0  0  0  0  0  0  0  0  0  0  0  0
  -24.8876  -11.6014   20.8028 C   0  0  0  0  0  0  0  0  0  0  0  0
  -24.7177  -13.7519   20.3770 C   0  0  0  0  0  0  0  0  0  0  0  0
  -22.5194  -12.5795   20.5800 C   0  0  0  0  0  0  0  0  0  0  0  0
  -24.1413  -25.3987   22.5214 C   0  0  0  0  0  0  0  0  0  0  0  0
  -24.4294  -28.6270   22.6539 C   0  0  0  0  0  0  0  0  0  0  0  0
  -26.4489  -31.3677   22.4153 C   0  0  0  0  0  0  0  0  0  0  0  0
  -29.1301  -16.8250   22.2221 C   0  0  0  0  0  0  0  0  0  0  0  0
  -19.4802  -23.5147   23.4059 C   0  0  0  0  0  0  0  0  0  0  0  0
  -26.0652  -25.6667   24.1285 C   0  0  0  0  0  0  0  0  0  0  0  0
  -26.4002  -27.3553   21.7241 C   0  0  0  0  0  0  0  0  0  0  0  0
  -20.0424  -24.7821   22.7672 C   0  0  0  0  0  0  0  0  0  0  0  0
  -29.6793  -14.2728   19.5980 C   0  0  0  0  0  0  0  0  0  0  0  0
  -21.1305  -24.4332   21.7567 C   0  0  0  0  0  0  0  0  0  0  0  0
  -28.4320  -13.3986   19.7173 C   0  0  0  0  0  0  0  0  0  0  0  0
  -30.0394  -14.9315   20.9262 C   0  0  0  0  0  0  0  0  0  0  0  0
  -27.6782  -14.8344   21.6540 C   0  0  0  0  0  0  0  0  0  0  0  0
  -22.3062  -23.7206   22.4359 C   0  0  1  0  0  0  0  0  0  0  0  0
  -24.8760  -26.3316   23.4421 C   0  0  1  0  0  0  0  0  0  0  0  0
  -27.2613  -14.1929   20.3220 C   0  0  2  0  0  0  0  0  0  0  0  0
  -26.3909  -33.8737   22.5338 C   0  0  0  0  0  0  0  0  0  0  0  0
  -23.1824  -28.7273   19.8710 C   0  0  0  0  0  0  0  0  0  0  0  0
  -24.0114  -31.0802   19.6604 C   0  0  0  0  0  0  0  0  0  0  0  0
  -22.3683  -30.4936   21.4432 C   0  0  0  0  0  0  0  0  0  0  0  0
  -27.9635  -18.6890   23.3375 C   0  0  0  0  0  0  0  0  0  0  0  0
  -28.3104  -31.4178   24.7156 C   0  0  0  0  0  0  0  0  0  0  0  0
  -27.3895  -18.1879   20.9912 C   0  0  0  0  0  0  0  0  0  0  0  0
  -31.3293  -24.4144   18.5322 C   0  0  0  0  0  0  0  0  0  0  0  0
  -30.3872  -25.2687   19.3658 C   0  0  0  0  0  0  0  0  0  1  0  0
  -31.0855  -22.9281   18.7421 C   0  0  0  0  0  0  0  0  0  0  0  0
  -24.7631  -29.7123   21.6590 C   0  0  1  0  0  0  0  0  0  0  0  0
  -26.6064  -32.5839   23.3101 C   0  0  2  0  0  0  0  0  0  0  0  0
  -23.5994  -29.9821   20.6638 C   0  0  0  0  0  0  0  0  0  0  0  0
  -26.1509  -12.0297   20.7344 N   0  0  0  0  0  0  0  0  0  0  0  0
  -26.0147  -13.3411   20.4741 N   0  0  0  0  0  0  0  0  0  0  0  0
  -25.2625  -27.4992   22.6474 N   0  0  0  0  0  0  0  0  0  0  0  0
  -28.8967  -15.6432   21.4998 N   0  0  0  0  0  0  0  0  0  0  0  0
  -24.4013  -15.0388   20.1196 N   0  0  0  0  0  0  0  0  0  0  0  0
  -21.8940  -11.3474   20.8149 N   0  0  0  0  0  0  0  0  0  0  0  0
  -23.1384  -24.6746   23.1373 N   0  0  0  0  0  0  0  0  0  0  0  0
  -25.1608  -30.8765   22.4431 N   0  0  0  0  0  0  0  0  0  0  0  0
  -28.1223  -17.8009   22.1947 N   0  0  0  0  0  0  0  0  0  0  0  0
  -27.9725  -32.6159   23.9048 N   0  3  0  0  0  0  0  0  0  0  0  0
  -21.8148  -13.5925   20.3545 O   0  0  0  0  0  0  0  0  0  0  0  0
  -24.4598  -25.3413   21.3395 O   0  0  0  0  0  0  0  0  0  0  0  0
  -23.4695  -28.7775   23.4139 O   0  0  0  0  0  0  0  0  0  0  0  0
  -27.3750  -30.9024   21.7547 O   0  0  0  0  0  0  0  0  0  0  0  0
  -30.1833  -17.0018   22.8476 O   0  0  0  0  0  0  0  0  0  0  0  0
  -23.8022   -6.2174   21.8525 O   0  0  0  0  0  0  0  0  0  0  0  0
  -30.5589  -24.9689   20.7504 O   0  0  0  0  0  0  0  0  0  1  0  0
  -29.7541  -22.6002   18.3684 O   0  0  0  0  0  0  0  0  0  0  0  0
  -19.8795   -5.0635   25.5518 F   0  0  0  0  0  0  0  0  0  0  0  0
  -27.4529  -22.9183   19.8534 F   0  0  0  0  0  0  0  0  0  0  0  0
  -21.2006   -7.0727   21.4746 F   0  0  0  0  0  0  0  0  0  0  0  0
  1  2  1  0  0  0  0
  1  5  2  0  0  0  0
  2  6  2  0  0  0  0
  3  9  2  0  0  0  0
  3 18  1  0  0  0  0
  4 10  1  0  0  0  0
  4 18  2  0  0  0  0
  5 20  1  0  0  0  0
  6 22  1  0  0  0  0
  7 11  2  0  0  0  0
  7 21  1  0  0  0  0
  8 12  2  0  0  0  0
  8 24  1  0  0  0  0
  9 25  1  0  0  0  0
 10 25  2  0  0  0  0
 11 26  1  0  0  0  0
 12 28  1  0  0  0  0
 13 14  2  0  0  0  0
 13 27  1  0  0  0  0
 14 29  1  0  0  0  0
 15 23  1  0  0  0  0
 15 26  2  0  0  0  0
 16 24  2  0  0  0  0
 16 30  1  0  0  0  0
 17 29  2  0  0  0  0
 17 31  1  0  0  0  0
 18 32  1  0  0  0  0
 19 32  1  0  0  0  0
 19 33  2  0  0  0  0
 19 34  1  0  0  0  0
 20 22  2  0  0  0  0
 20 39  1  0  0  0  0
 21 23  2  0  0  0  0
 21 40  1  0  0  0  0
 22 48  1  0  0  0  0
 23 41  1  0  0  0  0
 24 57  1  0  0  0  0
 25 79  1  0  0  0  0
 26 80  1  0  0  0  0
 27 31  2  0  0  0  0
 27 79  1  0  0  0  0
 28 30  2  0  0  0  0
 28 81  1  0  0  0  0
 29 82  1  0  0  0  0
 30 83  1  0  0  0  0
 31 84  1  0  0  0  0
 32 64  2  0  0  0  0
 33 65  1  0  0  0  0
 33 68  1  0  0  0  0
 34 69  1  0  0  0  0
 34 74  2  0  0  0  0
 35 49  1  0  0  0  0
 35 70  1  0  0  0  0
 35 75  2  0  0  0  0
 36 61  1  0  0  0  0
 36 66  1  0  0  0  0
 36 76  2  0  0  0  0
 37 62  1  0  0  0  0
 37 71  1  0  0  0  0
 37 77  2  0  0  0  0
 38 67  1  0  0  0  0
 38 72  1  0  0  0  0
 38 78  2  0  0  0  0
 39 42  1  0  0  0  0
 40 49  1  0  0  0  0
 41 66  1  0  0  0  0
 42 44  1  0  0  0  0
 43 45  1  0  0  0  0
 43 46  1  0  0  0  0
 44 48  1  0  0  0  0
 45 50  1  0  0  0  0
 46 67  1  0  0  0  0
 47 50  1  0  0  0  0
 47 67  1  0  0  0  0
 48 70  1  0  0  0  0
 49 66  1  0  0  0  0
 50 65  1  0  0  0  0
 51 62  1  0  0  0  0
 52 63  1  0  0  0  0
 53 63  1  0  0  0  0
 54 63  1  0  0  0  0
 55 72  1  0  0  0  0
 56 73  1  0  0  0  0
 57 72  1  0  0  0  0
 58 59  1  0  0  0  0
 58 60  1  0  0  0  0
 59 80  1  0  0  0  0
 60 81  1  0  0  0  0
 61 63  1  0  0  0  0
 61 71  1  0  0  0  0
 62 73  1  0  0  0  0
 64 65  1  0  0  0  0
M  CHG  1  73   1
M  ISO  4  38 100  59 101  72 100  80 101
M  END
> <Batch ID>
0014

> <Smiles>
CNC(C)C(=O)NC(C(=O)N1Cc2cc([101O:1][101CH2:1]CCOc3ccc(C[100N:0](C)[100C:0](=O)N4CCCC(n5nc(-c6ccc(Oc7ccc(F)cc7F)cc6)c(C(N)=O)c5N)C4)cc3F)ccc2CC1C(=O)NC1CCCc2ccccc21)C(C)(C)C

> <Shape>
0.289

> <Color>
0.108

> <Negative vol penalty>
0.000

$$$$

  -OEChem-04042320513D

 83 91  0     1  0  0  0  0  0999 V2000
  -20.8014  -29.2831   29.9056 C   0  0  0  0  0  0  0  0  0  0  0  0
  -21.7253  -28.2457   29.8298 C   0  0  0  0  0  0  0  0  0  0  0  0
  -23.1895   -9.6673   20.4679 C   0  0  0  0  0  0  0  0  0  0  0  0
  -23.8372  -10.1863   22.7368 C   0  0  0  0  0  0  0  0  0  0  0  0
  -20.2244  -29.7876   28.7410 C   0  0  0  0  0  0  0  0  0  0  0  0
  -22.0718  -27.7115   28.5893 C   0  0  0  0  0  0  0  0  0  0  0  0
  -27.5560  -25.5672   26.9065 C   0  0  0  0  0  0  0  0  0  0  0  0
  -32.2787  -18.3056   22.6669 C   0  0  0  0  0  0  0  0  0  0  0  0
  -31.7540  -17.2331   21.9459 C   0  0  0  0  0  0  0  0  0  0  0  0
  -22.4833   -8.5543   20.9241 C   0  0  0  0  0  0  0  0  0  0  0  0
  -23.1309   -9.0733   23.1930 C   0  0  0  0  0  0  0  0  0  0  0  0
  -28.0769  -24.2759   26.8359 C   0  0  0  0  0  0  0  0  0  0  0  0
  -23.5869   -5.7270   23.3522 C   0  0  0  0  0  0  0  0  0  0  0  0
  -24.2094   -4.9047   24.2913 C   0  0  0  0  0  0  0  0  0  0  0  0
  -27.5247  -24.1880   24.4893 C   0  0  0  0  0  0  0  0  0  0  0  0
  -30.0482  -19.1717   23.0017 C   0  0  0  0  0  0  0  0  0  0  0  0
  -22.4221   -5.3402   25.8575 C   0  0  0  0  0  0  0  0  0  0  0  0
  -23.8665  -10.4833   21.3743 C   0  0  0  0  0  0  0  0  0  0  0  0
  -24.1078  -12.9433   20.7436 C   0  0  0  0  0  0  0  0  0  0  0  0
  -20.5713  -29.2658   27.4848 C   0  0  0  0  0  0  0  0  0  0  0  0
  -27.0047  -26.1754   25.7696 C   0  0  0  0  0  0  0  0  0  0  0  0
  -21.4979  -28.2086   27.4069 C   0  0  0  0  0  0  0  0  0  0  0  0
  -26.9998  -25.4880   24.5475 C   0  0  0  0  0  0  0  0  0  0  0  0
  -29.5235  -18.0992   22.2806 C   0  0  0  0  0  0  0  0  0  0  0  0
  -31.4258  -19.2749   23.1949 C   0  0  0  0  0  0  0  0  0  0  0  0
  -30.3764  -17.1298   21.7527 C   0  0  0  0  0  0  0  0  0  0  0  0
  -22.4540   -8.2573   22.2866 C   0  0  0  0  0  0  0  0  0  0  0  0
  -28.0587  -23.5849   25.6278 C   0  0  0  0  0  0  0  0  0  0  0  0
  -22.3820   -6.3560   23.6658 C   0  0  0  0  0  0  0  0  0  0  0  0
  -23.6270   -4.7113   25.5439 C   0  0  0  0  0  0  0  0  0  0  0  0
  -21.7996   -6.1626   24.9184 C   0  0  0  0  0  0  0  0  0  0  0  0
  -24.5966  -11.6328   20.9036 C   0  0  0  0  0  0  0  0  0  0  0  0
  -25.1839  -13.6562   20.2742 C   0  0  0  0  0  0  0  0  0  0  0  0
  -22.7982  -13.4692   20.9966 C   0  0  0  0  0  0  0  0  0  0  0  0
  -24.1257  -27.2703   24.9846 C   0  0  0  0  0  0  0  0  0  0  0  0
  -25.6725  -28.3060   22.3281 C   0  0  0  0  0  0  0  0  0  0  0  0
  -28.3157  -27.9649   20.1965 C   0  0  0  0  0  0  0  0  0  0  0  0
  -30.5869  -14.9920   20.4367 C   0  0  0  0  0  0  0  0  0  0  0  0
  -19.8856  -29.8118   26.2574 C   0  0  0  0  0  0  0  0  0  0  0  0
  -26.4711  -27.5791   25.8562 C   0  0  0  0  0  0  0  0  0  0  0  0
  -26.4378  -26.1042   23.2933 C   0  0  0  0  0  0  0  0  0  0  0  0
  -20.5872  -29.4429   24.9529 C   0  0  0  0  0  0  0  0  0  0  0  0
  -29.6896  -12.0877   18.5829 C   0  0  0  0  0  0  0  0  0  0  0  0
  -20.9471  -27.9606   24.9409 C   0  0  0  0  0  0  0  0  0  0  0  0
  -28.2444  -11.8182   19.0082 C   0  0  0  0  0  0  0  0  0  0  0  0
  -30.5355  -12.6059   19.7446 C   0  0  0  0  0  0  0  0  0  0  0  0
  -28.5357  -13.5020   20.8702 C   0  0  0  0  0  0  0  0  0  0  0  0
  -21.9180  -27.6194   26.0778 C   0  0  1  0  0  0  0  0  0  0  0  0
  -25.4676  -27.9058   24.7545 C   0  0  1  0  0  0  0  0  0  0  0  0
  -27.6287  -13.0400   19.7179 C   0  0  2  0  0  0  0  0  0  0  0  0
  -28.0438  -18.0130   22.0904 C   0  0  0  0  0  0  0  0  0  0  0  0
  -29.2893  -28.9314   18.0952 C   0  0  0  0  0  0  0  0  0  0  0  0
  -23.5582  -26.8479   20.6808 C   0  0  0  0  0  0  0  0  0  0  0  0
  -25.0752  -27.0339   18.6978 C   0  0  0  0  0  0  0  0  0  0  0  0
  -24.2024  -29.0966   19.7960 C   0  0  0  0  0  0  0  0  0  0  0  0
  -33.3996  -20.4596   24.1227 C   0  0  0  0  0  0  0  0  0  0  0  0
  -30.8036  -28.7711   21.5819 C   0  0  0  0  0  0  0  0  0  0  0  0
  -30.5075  -20.9349   25.7995 C   0  0  0  0  0  0  0  0  0  0  0  0
  -31.1015  -21.3803   24.4687 C   0  0  0  0  0  0  0  0  0  0  0  0
  -29.6328  -22.0018   26.4474 C   0  0  0  0  0  0  0  0  0  1  0  0
  -25.9707  -27.7217   20.9685 C   0  0  1  0  0  0  0  0  0  0  0  0
  -29.2789  -28.9840   19.6150 C   0  0  2  0  0  0  0  0  0  0  0  0
  -24.7105  -27.6624   20.0596 C   0  0  0  0  0  0  0  0  0  0  0  0
  -25.8830  -11.5172   20.5634 N   0  0  0  0  0  0  0  0  0  0  0  0
  -26.2117  -12.7640   20.1848 N   0  0  0  0  0  0  0  0  0  0  0  0
  -25.9221  -27.4763   23.4305 N   0  0  0  0  0  0  0  0  0  0  0  0
  -29.8923  -13.7659   20.3656 N   0  0  0  0  0  0  0  0  0  0  0  0
  -25.3418  -14.9528   19.9333 N   0  0  0  0  0  0  0  0  0  0  0  0
  -21.8101  -12.5990   21.4770 N   0  0  0  0  0  0  0  0  0  0  0  0
  -29.8628  -16.0319   21.0188 N   0  0  0  0  0  0  0  0  0  0  0  0
  -23.2607  -28.0399   25.7390 N   0  0  0  0  0  0  0  0  0  0  0  0
  -27.0683  -28.5092   20.4175 N   0  0  0  0  0  0  0  0  0  0  0  0
  -31.9534  -20.3528   23.9203 N   0  0  3  0  0  0  0  0  0  0  0  0
  -30.6630  -28.7263   20.1037 N   0  3  0  0  0  0  0  0  0  0  0  0
  -22.5083  -14.6714   20.7870 O   0  0  0  0  0  0  0  0  0  0  0  0
  -23.8918  -26.1644   24.5115 O   0  0  0  0  0  0  0  0  0  0  0  0
  -25.2411  -29.4588   22.4096 O   0  0  0  0  0  0  0  0  0  0  0  0
  -28.6367  -26.8013   20.4278 O   0  0  0  0  0  0  0  0  0  0  0  0
  -31.7292  -15.1177   19.9879 O   0  0  0  0  0  0  0  0  0  0  0  0
  -21.7648   -7.1715   22.7321 O   0  0  0  0  0  0  0  0  0  0  0  0
  -28.5659  -22.3242   25.5563 O   0  0  0  0  0  0  0  0  0  1  0  0
  -24.2242   -3.9204   26.4451 F   0  0  0  0  0  0  0  0  0  0  0  0
  -20.6415   -6.7632   25.2250 F   0  0  0  0  0  0  0  0  0  0  0  0
  1  2  1  0  0  0  0
  1  5  2  0  0  0  0
  2  6  2  0  0  0  0
  3 10  2  0  0  0  0
  3 18  1  0  0  0  0
  4 11  1  0  0  0  0
  4 18  2  0  0  0  0
  5 20  1  0  0  0  0
  6 22  1  0  0  0  0
  7 12  2  0  0  0  0
  7 21  1  0  0  0  0
  8  9  2  0  0  0  0
  8 25  1  0  0  0  0
  9 26  1  0  0  0  0
 10 27  1  0  0  0  0
 11 27  2  0  0  0  0
 12 28  1  0  0  0  0
 13 14  2  0  0  0  0
 13 29  1  0  0  0  0
 14 30  1  0  0  0  0
 15 23  1  0  0  0  0
 15 28  2  0  0  0  0
 16 24  1  0  0  0  0
 16 25  2  0  0  0  0
 17 30  2  0  0  0  0
 17 31  1  0  0  0  0
 18 32  1  0  0  0  0
 19 32  1  0  0  0  0
 19 33  2  0  0  0  0
 19 34  1  0  0  0  0
 20 22  2  0  0  0  0
 20 39  1  0  0  0  0
 21 23  2  0  0  0  0
 21 40  1  0  0  0  0
 22 48  1  0  0  0  0
 23 41  1  0  0  0  0
 24 26  2  0  0  0  0
 24 51  1  0  0  0  0
 25 73  1  0  0  0  0
 26 70  1  0  0  0  0
 27 80  1  0  0  0  0
 28 81  1  0  0  0  0
 29 31  2  0  0  0  0
 29 80  1  0  0  0  0
 30 82  1  0  0  0  0
 31 83  1  0  0  0  0
 32 64  2  0  0  0  0
 33 65  1  0  0  0  0
 33 68  1  0  0  0  0
 34 69  1  0  0  0  0
 34 75  2  0  0  0  0
 35 49  1  0  0  0  0
 35 71  1  0  0  0  0
 35 76  2  0  0  0  0
 36 61  1  0  0  0  0
 36 66  1  0  0  0  0
 36 77  2  0  0  0  0
 37 62  1  0  0  0  0
 37 72  1  0  0  0  0
 37 78  2  0  0  0  0
 38 67  1  0  0  0  0
 38 70  1  0  0  0  0
 38 79  2  0  0  0  0
 39 42  1  0  0  0  0
 40 49  1  0  0  0  0
 41 66  1  0  0  0  0
 42 44  1  0  0  0  0
 43 45  1  0  0  0  0
 43 46  1  0  0  0  0
 44 48  1  0  0  0  0
 45 50  1  0  0  0  0
 46 67  1  0  0  0  0
 47 50  1  0  0  0  0
 47 67  1  0  0  0  0
 48 71  1  0  0  0  0
 49 66  1  0  0  0  0
 50 65  1  0  0  0  0
 52 62  1  0  0  0  0
 53 63  1  0  0  0  0
 54 63  1  0  0  0  0
 55 63  1  0  0  0  0
 56 73  1  0  0  0  0
 57 74  1  0  0  0  0
 58 59  1  0  0  0  0
 58 60  1  0  0  0  0
 59 73  1  0  0  0  0
 60 81  1  0  0  0  0
 61 63  1  0  0  0  0
 61 72  1  0  0  0  0
 62 74  1  0  0  0  0
 64 65  1  0  0  0  0
M  CHG  1  74   1
M  ISO  4  38 100  60 101  70 100  81 101
M  END
> <Batch ID>
0014

> <Smiles>
CNC(C)C(=O)NC(C(=O)N1Cc2cc([101O:1][101CH2:1]CCN(C)c3ccc([100NH:0][100C:0](=O)N4CCCC(n5nc(-c6ccc(Oc7ccc(F)cc7F)cc6)c(C(N)=O)c5N)C4)c(C)c3)ccc2CC1C(=O)NC1CCCc2ccccc21)C(C)(C)C

> <Shape>
0.230

> <Color>
0.188

> <Negative vol penalty>
0.000

$$$$

  -OEChem-04042320513D

 83 91  0     1  0  0  0  0  0999 V2000
  -23.2802  -18.3815   22.4159 C   0  0  0  0  0  0  0  0  0  0  0  0
  -24.4189  -18.2784   23.2085 C   0  0  0  0  0  0  0  0  0  0  0  0
  -23.2883   -9.8003   19.9132 C   0  0  0  0  0  0  0  0  0  0  0  0
  -23.7420   -9.9401   22.2821 C   0  0  0  0  0  0  0  0  0  0  0  0
  -22.4147  -19.4625   22.5784 C   0  0  0  0  0  0  0  0  0  0  0  0
  -24.6933  -19.2569   24.1633 C   0  0  0  0  0  0  0  0  0  0  0  0
  -26.1278  -17.2900   28.6039 C   0  0  0  0  0  0  0  0  0  0  0  0
  -32.6968  -15.3655   24.6209 C   0  0  0  0  0  0  0  0  0  0  0  0
  -32.2040  -14.6064   23.5596 C   0  0  0  0  0  0  0  0  0  0  0  0
  -22.5627   -8.6274   20.1213 C   0  0  0  0  0  0  0  0  0  0  0  0
  -23.0164   -8.7671   22.4902 C   0  0  0  0  0  0  0  0  0  0  0  0
  -27.4416  -16.8343   28.7037 C   0  0  0  0  0  0  0  0  0  0  0  0
  -19.7701   -7.8544   22.7113 C   0  0  0  0  0  0  0  0  0  0  0  0
  -18.8691   -7.8318   23.7758 C   0  0  0  0  0  0  0  0  0  0  0  0
  -28.0580  -18.8768   29.8295 C   0  0  0  0  0  0  0  0  0  0  0  0
  -31.1456  -14.2773   26.1197 C   0  0  0  0  0  0  0  0  0  0  0  0
  -20.0769   -5.9847   24.7589 C   0  0  0  0  0  0  0  0  0  0  0  0
  -23.8780  -10.4567   20.9936 C   0  0  0  0  0  0  0  0  0  0  0  0
  -24.1359  -12.9869   20.7958 C   0  0  0  0  0  0  0  0  0  0  0  0
  -22.6736  -20.4496   23.5423 C   0  0  0  0  0  0  0  0  0  0  0  0
  -25.7709  -18.5492   29.1072 C   0  0  0  0  0  0  0  0  0  0  0  0
  -23.8312  -20.3528   24.3379 C   0  0  0  0  0  0  0  0  0  0  0  0
  -26.7385  -19.3450   29.7371 C   0  0  0  0  0  0  0  0  0  0  0  0
  -32.1677  -15.2010   25.9010 C   0  0  0  0  0  0  0  0  0  0  0  0
  -31.1820  -13.6827   23.7783 C   0  0  0  0  0  0  0  0  0  0  0  0
  -22.4268   -8.1107   21.4098 C   0  0  0  0  0  0  0  0  0  0  0  0
  -28.4076  -17.6289   29.3140 C   0  0  0  0  0  0  0  0  0  0  0  0
  -20.8245   -6.9421   22.6705 C   0  0  0  0  0  0  0  0  0  0  0  0
  -19.0225   -6.8969   24.7996 C   0  0  0  0  0  0  0  0  0  0  0  0
  -30.6527  -13.5181   25.0584 C   0  0  0  0  0  0  0  0  0  0  0  0
  -20.9779   -6.0073   23.6943 C   0  0  0  0  0  0  0  0  0  0  0  0
  -24.6281  -11.6681   20.7791 C   0  0  0  0  0  0  0  0  0  0  0  0
  -25.2367  -13.7674   20.5398 C   0  0  0  0  0  0  0  0  0  0  0  0
  -22.8029  -13.4637   21.0225 C   0  0  0  0  0  0  0  0  0  0  0  0
  -24.6210  -21.2279   27.8398 C   0  0  0  0  0  0  0  0  0  0  0  0
  -24.4466  -22.1600   30.9419 C   0  0  0  0  0  0  0  0  0  0  0  0
  -25.5776  -21.8040   34.1420 C   0  0  0  0  0  0  0  0  0  0  0  0
  -31.0984  -12.9555   21.3678 C   0  0  0  0  0  0  0  0  0  0  0  0
  -21.7338  -21.6244   23.6488 C   0  0  0  0  0  0  0  0  0  0  0  0
  -24.3437  -19.0149   29.0154 C   0  0  0  0  0  0  0  0  0  0  0  0
  -26.4024  -20.6961   30.3117 C   0  0  0  0  0  0  0  0  0  0  0  0
  -21.8996  -22.4219   24.9398 C   0  0  0  0  0  0  0  0  0  0  0  0
  -29.4607  -13.6606   18.2859 C   0  0  0  0  0  0  0  0  0  0  0  0
  -23.3755  -22.6913   25.2151 C   0  0  0  0  0  0  0  0  0  0  0  0
  -27.9899  -13.3555   18.5788 C   0  0  0  0  0  0  0  0  0  0  0  0
  -30.3953  -12.6855   18.9997 C   0  0  0  0  0  0  0  0  0  0  0  0
  -28.7045  -12.2558   20.7392 C   0  0  0  0  0  0  0  0  0  0  0  0
  -24.1501  -21.3810   25.4015 C   0  0  1  0  0  0  0  0  0  0  0  0
  -24.2031  -20.5315   29.1040 C   0  0  1  0  0  0  0  0  0  0  0  0
  -27.7269  -13.2516   20.0939 C   0  0  2  0  0  0  0  0  0  0  0  0
  -25.2724  -22.7313   36.4538 C   0  0  0  0  0  0  0  0  0  0  0  0
  -26.0483  -24.6358   30.1577 C   0  0  0  0  0  0  0  0  0  0  0  0
  -26.5202  -25.0145   32.5871 C   0  0  0  0  0  0  0  0  0  0  0  0
  -24.1704  -25.0698   31.7514 C   0  0  0  0  0  0  0  0  0  0  0  0
  -24.7071  -19.1824   35.2042 C   0  0  0  0  0  0  0  0  0  0  0  0
  -31.7886  -18.2653   26.4708 C   0  0  0  0  0  0  0  0  0  0  0  0
  -32.6968  -16.0183   27.0425 C   0  0  0  0  0  0  0  0  0  0  0  0
  -31.9974  -17.5762   28.8548 C   0  0  0  0  0  0  0  0  0  0  0  0
  -30.7202  -18.1751   29.4100 C   0  0  0  0  0  0  0  0  0  1  0  0
  -25.3801  -22.8549   31.9035 C   0  0  1  0  0  0  0  0  0  0  0  0
  -24.8400  -21.6633   35.4613 C   0  0  2  0  0  0  0  0  0  0  0  0
  -25.5368  -24.3692   31.5875 C   0  0  0  0  0  0  0  0  0  0  0  0
  -25.9394  -11.6101   20.5319 N   0  0  0  0  0  0  0  0  0  0  0  0
  -26.2805  -12.9023   20.3908 N   0  0  0  0  0  0  0  0  0  0  0  0
  -24.9946  -21.1099   30.1917 N   0  0  0  0  0  0  0  0  0  0  0  0
  -30.0903  -12.6428   20.4315 N   0  0  0  0  0  0  0  0  0  0  0  0
  -25.4038  -15.1025   20.4297 N   0  0  0  0  0  0  0  0  0  0  0  0
  -21.7911  -12.5262   21.2708 N   0  0  0  0  0  0  0  0  0  0  0  0
  -30.6829  -12.9132   22.6982 N   0  0  0  0  0  0  0  0  0  0  0  0
  -23.9113  -20.8361   26.7207 N   0  0  0  0  0  0  0  0  0  0  0  0
  -24.8715  -22.5733   33.2416 N   0  0  0  0  0  0  0  0  0  0  0  0
  -25.1063  -20.3264   36.0637 N   0  3  0  0  0  0  0  0  0  0  0  0
  -31.7616  -17.1262   27.4597 N   0  3  1  0  0  0  0  0  0  0  0  0
  -22.5144  -14.6841   20.9891 O   0  0  0  0  0  0  0  0  0  0  0  0
  -25.5196  -22.0602   27.8772 O   0  0  0  0  0  0  0  0  0  0  0  0
  -23.2725  -22.5305   30.8646 O   0  0  0  0  0  0  0  0  0  0  0  0
  -26.6726  -21.2866   33.9326 O   0  0  0  0  0  0  0  0  0  0  0  0
  -32.2387  -13.2665   21.0141 O   0  0  0  0  0  0  0  0  0  0  0  0
  -21.7186   -6.9663   21.6133 O   0  0  0  0  0  0  0  0  0  0  0  0
  -29.6908  -17.1868   29.4123 O   0  0  0  0  0  0  0  0  0  1  0  0
  -18.1581   -6.8764   25.8226 F   0  0  0  0  0  0  0  0  0  0  0  0
  -29.6692  -12.6344   25.2798 F   0  0  0  0  0  0  0  0  0  0  0  0
  -21.9896   -5.1291   23.6612 F   0  0  0  0  0  0  0  0  0  0  0  0
  1  2  1  0  0  0  0
  1  5  2  0  0  0  0
  2  6  2  0  0  0  0
  3 10  2  0  0  0  0
  3 18  1  0  0  0  0
  4 11  1  0  0  0  0
  4 18  2  0  0  0  0
  5 20  1  0  0  0  0
  6 22  1  0  0  0  0
  7 12  2  0  0  0  0
  7 21  1  0  0  0  0
  8  9  2  0  0  0  0
  8 24  1  0  0  0  0
  9 25  1  0  0  0  0
 10 26  1  0  0  0  0
 11 26  2  0  0  0  0
 12 27  1  0  0  0  0
 13 14  2  0  0  0  0
 13 28  1  0  0  0  0
 14 29  1  0  0  0  0
 15 23  1  0  0  0  0
 15 27  2  0  0  0  0
 16 24  2  0  0  0  0
 16 30  1  0  0  0  0
 17 29  2  0  0  0  0
 17 31  1  0  0  0  0
 18 32  1  0  0  0  0
 19 32  1  0  0  0  0
 19 33  2  0  0  0  0
 19 34  1  0  0  0  0
 20 22  2  0  0  0  0
 20 39  1  0  0  0  0
 21 23  2  0  0  0  0
 21 40  1  0  0  0  0
 22 48  1  0  0  0  0
 23 41  1  0  0  0  0
 24 57  1  0  0  0  0
 25 30  2  0  0  0  0
 25 69  1  0  0  0  0
 26 79  1  0  0  0  0
 27 80  1  0  0  0  0
 28 31  2  0  0  0  0
 28 79  1  0  0  0  0
 29 81  1  0  0  0  0
 30 82  1  0  0  0  0
 31 83  1  0  0  0  0
 32 63  2  0  0  0  0
 33 64  1  0  0  0  0
 33 67  1  0  0  0  0
 34 68  1  0  0  0  0
 34 74  2  0  0  0  0
 35 49  1  0  0  0  0
 35 70  1  0  0  0  0
 35 75  2  0  0  0  0
 36 60  1  0  0  0  0
 36 65  1  0  0  0  0
 36 76  2  0  0  0  0
 37 61  1  0  0  0  0
 37 71  1  0  0  0  0
 37 77  2  0  0  0  0
 38 66  1  0  0  0  0
 38 69  1  0  0  0  0
 38 78  2  0  0  0  0
 39 42  1  0  0  0  0
 40 49  1  0  0  0  0
 41 65  1  0  0  0  0
 42 44  1  0  0  0  0
 43 45  1  0  0  0  0
 43 46  1  0  0  0  0
 44 48  1  0  0  0  0
 45 50  1  0  0  0  0
 46 66  1  0  0  0  0
 47 50  1  0  0  0  0
 47 66  1  0  0  0  0
 48 70  1  0  0  0  0
 49 65  1  0  0  0  0
 50 64  1  0  0  0  0
 51 61  1  0  0  0  0
 52 62  1  0  0  0  0
 53 62  1  0  0  0  0
 54 62  1  0  0  0  0
 55 72  1  0  0  0  0
 56 73  1  0  0  0  0
 57 73  1  0  0  0  0
 58 59  1  0  0  0  0
 58 73  1  0  0  0  0
 59 80  1  0  0  0  0
 60 62  1  0  0  0  0
 60 71  1  0  0  0  0
 61 72  1  0  0  0  0
 63 64  1  0  0  0  0
M  CHG  2  72   1  73   1
M  ISO  4  38 100  59 101  69 100  80 101
M  END
> <Batch ID>
0014

> <Smiles>
CNC(C)C(=O)NC(C(=O)N1Cc2cc([101O:1][101CH2:1]CN(C)Cc3ccc([100NH:0][100C:0](=O)N4CCCC(n5nc(-c6ccc(Oc7ccc(F)cc7F)cc6)c(C(N)=O)c5N)C4)c(F)c3)ccc2CC1C(=O)NC1CCCc2ccccc21)C(C)(C)C

> <Shape>
0.135

> <Color>
0.174

> <Negative vol penalty>
0.000

$$$$

  -OEChem-04042320513D

 84 92  0     1  0  0  0  0  0999 V2000
  -31.4236  -25.3022   17.9806 C   0  0  0  0  0  0  0  0  0  0  0  0
  -30.0554  -25.0846   18.1076 C   0  0  0  0  0  0  0  0  0  0  0  0
  -27.6019  -14.9096   19.6827 C   0  0  0  0  0  0  0  0  0  0  0  0
  -25.2173  -15.2028   19.4290 C   0  0  0  0  0  0  0  0  0  0  0  0
  -32.1076  -26.0220   18.9593 C   0  0  0  0  0  0  0  0  0  0  0  0
  -29.3706  -25.5858   19.2140 C   0  0  0  0  0  0  0  0  0  0  0  0
  -23.6239  -27.6992   19.3395 C   0  0  0  0  0  0  0  0  0  0  0  0
  -20.2889  -22.4991   21.9390 C   0  0  0  0  0  0  0  0  0  0  0  0
  -21.5442  -22.1818   21.4200 C   0  0  0  0  0  0  0  0  0  0  0  0
  -27.3979  -13.5855   20.0709 C   0  0  0  0  0  0  0  0  0  0  0  0
  -25.0132  -13.8787   19.8171 C   0  0  0  0  0  0  0  0  0  0  0  0
  -22.4178  -27.1148   19.7235 C   0  0  0  0  0  0  0  0  0  0  0  0
  -24.9422  -12.1095   22.6974 C   0  0  0  0  0  0  0  0  0  0  0  0
  -23.9289  -11.8538   23.6211 C   0  0  0  0  0  0  0  0  0  0  0  0
  -22.6385  -28.1101   21.9097 C   0  0  0  0  0  0  0  0  0  0  0  0
  -22.5923  -23.5189   23.1378 C   0  0  0  0  0  0  0  0  0  0  0  0
  -22.8248  -10.4263   22.0148 C   0  0  0  0  0  0  0  0  0  0  0  0
  -26.5116  -15.7183   19.3618 C   0  0  0  0  0  0  0  0  0  0  0  0
  -26.9200  -17.5684   17.6536 C   0  0  0  0  0  0  0  0  0  0  0  0
  -31.4290  -26.5406   20.0735 C   0  0  0  0  0  0  0  0  0  0  0  0
  -24.3531  -28.4858   20.2427 C   0  0  0  0  0  0  0  0  0  0  0  0
  -30.0464  -26.3121   20.2093 C   0  0  0  0  0  0  0  0  0  0  0  0
  -23.8524  -28.7055   21.5339 C   0  0  0  0  0  0  0  0  0  0  0  0
  -20.1854  -23.3264   23.0573 C   0  0  0  0  0  0  0  0  0  0  0  0
  -22.6959  -22.6917   22.0194 C   0  0  0  0  0  0  0  0  0  0  0  0
  -26.1035  -13.0700   20.1381 C   0  0  0  0  0  0  0  0  0  0  0  0
  -21.9263  -27.3178   21.0097 C   0  0  0  0  0  0  0  0  0  0  0  0
  -24.8968  -11.5237   21.4323 C   0  0  0  0  0  0  0  0  0  0  0  0
  -22.8702  -11.0122   23.2799 C   0  0  0  0  0  0  0  0  0  0  0  0
  -21.3370  -23.8363   23.6567 C   0  0  0  0  0  0  0  0  0  0  0  0
  -23.8381  -10.6820   21.0910 C   0  0  0  0  0  0  0  0  0  0  0  0
  -26.7217  -17.0864   18.9613 C   0  0  0  0  0  0  0  0  0  0  0  0
  -27.0696  -18.9251   17.8068 C   0  0  0  0  0  0  0  0  0  0  0  0
  -26.9647  -16.8538   16.4115 C   0  0  0  0  0  0  0  0  0  0  0  0
  -27.2372  -28.2928   21.5650 C   0  0  0  0  0  0  0  0  0  0  0  0
  -26.4726  -31.2233   22.7271 C   0  0  0  0  0  0  0  0  0  0  0  0
  -24.0370  -33.4516   23.5926 C   0  0  0  0  0  0  0  0  0  0  0  0
  -25.2124  -22.7931   21.9655 C   0  0  0  0  0  0  0  0  0  0  0  0
  -32.2197  -27.2719   21.1293 C   0  0  0  0  0  0  0  0  0  0  0  0
  -25.6392  -29.1311   19.8045 C   0  0  0  0  0  0  0  0  0  0  0  0
  -24.5868  -29.5583   22.5348 C   0  0  0  0  0  0  0  0  0  0  0  0
  -31.3522  -28.0903   22.0822 C   0  0  0  0  0  0  0  0  0  0  0  0
  -28.5768  -22.1933   20.9662 C   0  0  0  0  0  0  0  0  0  0  0  0
  -30.1598  -27.2670   22.5590 C   0  0  0  0  0  0  0  0  0  0  0  0
  -28.4999  -20.8625   20.2144 C   0  0  0  0  0  0  0  0  0  0  0  0
  -27.6240  -22.2261   22.1599 C   0  0  0  0  0  0  0  0  0  0  0  0
  -26.1513  -20.5612   21.0978 C   0  0  0  0  0  0  0  0  0  0  0  0
  -29.2639  -26.8611   21.3825 C   0  0  1  0  0  0  0  0  0  0  0  0
  -26.5543  -29.4920   20.9705 C   0  0  1  0  0  0  0  0  0  0  0  0
  -27.0459  -20.5050   19.8487 C   0  0  2  0  0  0  0  0  0  0  0  0
  -23.7193  -35.7498   24.5490 C   0  0  0  0  0  0  0  0  0  0  0  0
  -27.1315  -30.1544   25.5080 C   0  0  0  0  0  0  0  0  0  0  0  0
  -25.9157  -32.1180   26.4746 C   0  0  0  0  0  0  0  0  0  0  0  0
  -27.9417  -32.4785   25.0647 C   0  0  0  0  0  0  0  0  0  0  0  0
  -22.6667  -34.4053   21.1489 C   0  0  0  0  0  0  0  0  0  0  0  0
  -17.5366  -25.5063   24.6734 C   0  0  0  0  0  0  0  0  0  0  0  0
  -18.8333  -23.6636   23.6135 C   0  0  0  0  0  0  0  0  0  0  0  0
  -18.5027  -27.1272   22.1361 C   0  0  0  0  0  0  0  0  0  0  0  0
  -18.1654  -25.6497   22.2680 C   0  0  0  0  0  0  0  0  0  0  0  0
  -19.9758  -27.4426   22.3646 C   0  0  0  0  0  0  0  0  0  1  0  0
  -25.7871  -31.7345   23.9711 C   0  0  1  0  0  0  0  0  0  0  0  0
  -23.8634  -34.9266   23.2785 C   0  0  2  0  0  0  0  0  0  0  0  0
  -26.6809  -31.6037   25.2366 C   0  0  0  0  0  0  0  0  0  0  0  0
  -26.7432  -18.0578   19.8778 N   0  0  0  0  0  0  0  0  0  0  0  0
  -26.9567  -19.1639   19.1449 N   0  0  0  0  0  0  0  0  0  0  0  0
  -25.8429  -30.1624   22.0608 N   0  0  0  0  0  0  0  0  0  0  0  0
  -26.2649  -21.8816   21.7369 N   0  0  0  0  0  0  0  0  0  0  0  0
  -27.2855  -19.9252   16.9261 N   0  0  0  0  0  0  0  0  0  0  0  0
  -26.7921  -15.4631   16.4341 N   0  0  0  0  0  0  0  0  0  0  0  0
  -23.9709  -22.3710   21.4911 N   0  0  0  0  0  0  0  0  0  0  0  0
  -28.4412  -27.9763   20.9654 N   0  0  0  0  0  0  0  0  0  0  0  0
  -25.3678  -33.0999   23.6743 N   0  0  0  0  0  0  0  0  0  0  0  0
  -22.6491  -35.1384   22.4409 N   0  3  0  0  0  0  0  0  0  0  0  0
  -18.5446  -25.1456   23.6088 N   0  3  1  0  0  0  0  0  0  0  0  0
  -27.1686  -17.4293   15.3157 O   0  0  0  0  0  0  0  0  0  0  0  0
  -26.7114  -27.6996   22.4996 O   0  0  0  0  0  0  0  0  0  0  0  0
  -27.5242  -31.7506   22.3560 O   0  0  0  0  0  0  0  0  0  0  0  0
  -23.0871  -32.6885   23.7535 O   0  0  0  0  0  0  0  0  0  0  0  0
  -25.4038  -23.8807   22.5155 O   0  0  0  0  0  0  0  0  0  0  0  0
  -25.9040  -11.7779   20.5166 O   0  0  0  0  0  0  0  0  0  0  0  0
  -20.7496  -26.7481   21.3873 O   0  0  0  0  0  0  0  0  0  1  0  0
  -21.8979  -10.7655   24.1676 F   0  0  0  0  0  0  0  0  0  0  0  0
  -21.2477  -24.6318   24.7316 F   0  0  0  0  0  0  0  0  0  0  0  0
  -23.7897  -10.1154   19.8776 F   0  0  0  0  0  0  0  0  0  0  0  0
  1  2  1  0  0  0  0
  1  5  2  0  0  0  0
  2  6  2  0  0  0  0
  3 10  2  0  0  0  0
  3 18  1  0  0  0  0
  4 11  1  0  0  0  0
  4 18  2  0  0  0  0
  5 20  1  0  0  0  0
  6 22  1  0  0  0  0
  7 12  2  0  0  0  0
  7 21  1  0  0  0  0
  8  9  2  0  0  0  0
  8 24  1  0  0  0  0
  9 25  1  0  0  0  0
 10 26  1  0  0  0  0
 11 26  2  0  0  0  0
 12 27  1  0  0  0  0
 13 14  2  0  0  0  0
 13 28  1  0  0  0  0
 14 29  1  0  0  0  0
 15 23  1  0  0  0  0
 15 27  2  0  0  0  0
 16 25  2  0  0  0  0
 16 30  1  0  0  0  0
 17 29  2  0  0  0  0
 17 31  1  0  0  0  0
 18 32  1  0  0  0  0
 19 32  1  0  0  0  0
 19 33  2  0  0  0  0
 19 34  1  0  0  0  0
 20 22  2  0  0  0  0
 20 39  1  0  0  0  0
 21 23  2  0  0  0  0
 21 40  1  0  0  0  0
 22 48  1  0  0  0  0
 23 41  1  0  0  0  0
 24 30  2  0  0  0  0
 24 57  1  0  0  0  0
 25 70  1  0  0  0  0
 26 80  1  0  0  0  0
 27 81  1  0  0  0  0
 28 31  2  0  0  0  0
 28 80  1  0  0  0  0
 29 82  1  0  0  0  0
 30 83  1  0  0  0  0
 31 84  1  0  0  0  0
 32 64  2  0  0  0  0
 33 65  1  0  0  0  0
 33 68  1  0  0  0  0
 34 69  1  0  0  0  0
 34 75  2  0  0  0  0
 35 49  1  0  0  0  0
 35 71  1  0  0  0  0
 35 76  2  0  0  0  0
 36 61  1  0  0  0  0
 36 66  1  0  0  0  0
 36 77  2  0  0  0  0
 37 62  1  0  0  0  0
 37 72  1  0  0  0  0
 37 78  2  0  0  0  0
 38 67  1  0  0  0  0
 38 70  1  0  0  0  0
 38 79  2  0  0  0  0
 39 42  1  0  0  0  0
 40 49  1  0  0  0  0
 41 66  1  0  0  0  0
 42 44  1  0  0  0  0
 43 45  1  0  0  0  0
 43 46  1  0  0  0  0
 44 48  1  0  0  0  0
 45 50  1  0  0  0  0
 46 67  1  0  0  0  0
 47 50  1  0  0  0  0
 47 67  1  0  0  0  0
 48 71  1  0  0  0  0
 49 66  1  0  0  0  0
 50 65  1  0  0  0  0
 51 62  1  0  0  0  0
 52 63  1  0  0  0  0
 53 63  1  0  0  0  0
 54 63  1  0  0  0  0
 55 73  1  0  0  0  0
 56 74  1  0  0  0  0
 57 74  1  0  0  0  0
 58 59  1  0  0  0  0
 58 60  1  0  0  0  0
 59 74  1  0  0  0  0
 60 81  1  0  0  0  0
 61 63  1  0  0  0  0
 61 72  1  0  0  0  0
 62 73  1  0  0  0  0
 64 65  1  0  0  0  0
M  CHG  2  73   1  74   1
M  ISO  4  38 100  60 101  70 100  81 101
M  END
> <Batch ID>
0014

> <Smiles>
CNC(C)C(=O)NC(C(=O)N1Cc2cc([101O:1][101CH2:1]CCN(C)Cc3ccc([100NH:0][100C:0](=O)N4CCCC(n5nc(-c6ccc(Oc7ccc(F)cc7F)cc6)c(C(N)=O)c5N)C4)cc3F)ccc2CC1C(=O)NC1CCCc2ccccc21)C(C)(C)C

> <Shape>
0.275

> <Color>
0.062

> <Negative vol penalty>
0.000

$$$$

  -OEChem-04042320513D

 84 93  0     1  0  0  0  0  0999 V2000
  -28.8663  -36.9470   22.7220 C   0  0  0  0  0  0  0  0  0  0  0  0
  -29.1605  -35.5958   22.5700 C   0  0  0  0  0  0  0  0  0  0  0  0
  -23.5854   -9.5586   19.8029 C   0  0  0  0  0  0  0  0  0  0  0  0
  -24.4194   -9.5314   22.0702 C   0  0  0  0  0  0  0  0  0  0  0  0
  -27.5923  -37.3404   23.1298 C   0  0  0  0  0  0  0  0  0  0  0  0
  -28.1810  -34.6370   22.8268 C   0  0  0  0  0  0  0  0  0  0  0  0
  -27.3990  -29.3034   19.9205 C   0  0  0  0  0  0  0  0  0  0  0  0
  -28.7804  -23.0474   20.2387 C   0  0  0  0  0  0  0  0  0  0  0  0
  -28.9701  -21.7147   20.6038 C   0  0  0  0  0  0  0  0  0  0  0  0
  -23.0882   -8.2661   19.9703 C   0  0  0  0  0  0  0  0  0  0  0  0
  -23.9222   -8.2389   22.2377 C   0  0  0  0  0  0  0  0  0  0  0  0
  -27.7796  -27.9995   20.2345 C   0  0  0  0  0  0  0  0  0  0  0  0
  -20.9347   -6.7804   22.8442 C   0  0  0  0  0  0  0  0  0  0  0  0
  -20.2464   -6.5003   24.0246 C   0  0  0  0  0  0  0  0  0  0  0  0
  -25.5972  -27.5964   21.1799 C   0  0  0  0  0  0  0  0  0  0  0  0
  -28.9642  -23.7083   22.5553 C   0  0  0  0  0  0  0  0  0  0  0  0
  -21.8661   -4.7904   24.5633 C   0  0  0  0  0  0  0  0  0  0  0  0
  -24.2510  -10.1912   20.8529 C   0  0  0  0  0  0  0  0  0  0  0  0
  -24.0946  -12.7358   20.9418 C   0  0  0  0  0  0  0  0  0  0  0  0
  -26.5940  -36.3864   23.3823 C   0  0  0  0  0  0  0  0  0  0  0  0
  -26.1160  -29.7678   20.2442 C   0  0  0  0  0  0  0  0  0  0  0  0
  -26.8929  -35.0179   23.2396 C   0  0  0  0  0  0  0  0  0  0  0  0
  -25.2018  -28.9058   20.8666 C   0  0  0  0  0  0  0  0  0  0  0  0
  -28.7775  -24.0443   21.2145 C   0  0  0  0  0  0  0  0  0  0  0  0
  -29.1567  -21.3787   21.9447 C   0  0  0  0  0  0  0  0  0  0  0  0
  -23.2566   -7.6063   21.1877 C   0  0  0  0  0  0  0  0  0  0  0  0
  -26.8797  -27.1466   20.8669 C   0  0  0  0  0  0  0  0  0  0  0  0
  -22.0887   -6.0654   22.5233 C   0  0  0  0  0  0  0  0  0  0  0  0
  -20.7121   -5.5053   24.8842 C   0  0  0  0  0  0  0  0  0  0  0  0
  -29.1538  -22.3755   22.9205 C   0  0  0  0  0  0  0  0  0  0  0  0
  -22.5544   -5.0705   23.3829 C   0  0  0  0  0  0  0  0  0  0  0  0
  -24.7653  -11.5260   20.6804 C   0  0  0  0  0  0  0  0  0  0  0  0
  -25.0066  -13.7108   20.6189 C   0  0  0  0  0  0  0  0  0  0  0  0
  -22.7661  -12.9585   21.4328 C   0  0  0  0  0  0  0  0  0  0  0  0
  -24.9690  -32.0735   22.1075 C   0  0  0  0  0  0  0  0  0  0  0  0
  -22.1379  -31.1938   20.7910 C   0  0  0  0  0  0  0  0  0  0  0  0
  -20.2834  -28.7739   19.2573 C   0  0  0  0  0  0  0  0  0  0  0  0
  -30.1941  -15.7634   20.7668 C   0  0  0  0  0  0  0  0  0  0  0  0
  -25.2456  -36.8575   23.8666 C   0  0  0  0  0  0  0  0  0  0  0  0
  -25.7118  -31.1687   19.8747 C   0  0  0  0  0  0  0  0  0  0  0  0
  -23.8058  -29.3494   21.2171 C   0  0  0  0  0  0  0  0  0  0  0  0
  -24.1540  -35.7961   23.7568 C   0  0  0  0  0  0  0  0  0  0  0  0
  -29.4444  -13.4002   18.2114 C   0  0  0  0  0  0  0  0  0  0  0  0
  -24.6530  -34.4593   24.2962 C   0  0  0  0  0  0  0  0  0  0  0  0
  -28.1088  -12.7978   18.6508 C   0  0  0  0  0  0  0  0  0  0  0  0
  -29.4065  -18.0877   23.5912 C   0  0  0  0  0  0  0  0  0  0  0  0
  -30.3484  -13.6997   19.4052 C   0  0  0  0  0  0  0  0  0  0  0  0
  -29.5474  -19.6072   23.6774 C   0  0  0  0  0  0  0  0  0  0  0  0
  -28.3975  -13.9324   20.8931 C   0  0  0  0  0  0  0  0  0  0  0  0
  -29.3382  -18.9443   21.3591 C   0  0  0  0  0  0  0  0  0  0  0  0
  -25.8500  -33.9492   23.4847 C   0  0  1  0  0  0  0  0  0  0  0  0
  -24.5525  -31.6971   20.7138 C   0  0  1  0  0  0  0  0  0  0  0  0
  -27.4296  -13.6651   19.7277 C   0  0  2  0  0  0  0  0  0  0  0  0
  -29.8928  -17.7800   22.1816 C   0  0  2  0  0  0  0  0  0  0  0  0
  -17.9907  -28.3370   18.3355 C   0  0  0  0  0  0  0  0  0  0  0  0
  -21.0608  -30.8739   23.6278 C   0  0  0  0  0  0  0  0  0  0  0  0
  -19.1523  -29.5593   22.6804 C   0  0  0  0  0  0  0  0  0  0  0  0
  -19.4699  -31.9445   22.0225 C   0  0  0  0  0  0  0  0  0  0  0  0
  -21.3413  -28.3063   16.5331 C   0  0  0  0  0  0  0  0  0  0  0  0
  -28.5737  -25.4780   20.8217 C   0  0  0  0  0  0  0  0  0  1  0  0
  -21.0630  -30.1920   21.1376 C   0  0  1  0  0  0  0  0  0  0  0  0
  -19.4011  -28.8120   18.0226 C   0  0  2  0  0  0  0  0  0  0  0  0
  -20.2134  -30.6344   22.3623 C   0  0  0  0  0  0  0  0  0  0  0  0
  -26.0075  -11.7128   20.2262 N   0  0  0  0  0  0  0  0  0  0  0  0
  -26.1245  -13.0513   20.1997 N   0  0  0  0  0  0  0  0  0  0  0  0
  -29.3439  -20.0606   22.3030 N   0  0  3  0  0  0  0  0  0  0  0  0
  -23.4601  -30.7302   20.8410 N   0  0  0  0  0  0  0  0  0  0  0  0
  -29.6452  -14.5270   20.3886 N   0  0  0  0  0  0  0  0  0  0  0  0
  -24.9534  -15.0592   20.6554 N   0  0  0  0  0  0  0  0  0  0  0  0
  -21.9625  -11.8452   21.7142 N   0  0  0  0  0  0  0  0  0  0  0  0
  -25.4047  -33.3790   22.2313 N   0  0  0  0  0  0  0  0  0  0  0  0
  -20.2900  -29.9842   19.9179 N   0  0  0  0  0  0  0  0  0  0  0  0
  -29.4608  -16.4873   21.6990 N   0  0  0  0  0  0  0  0  0  0  0  0
  -19.9655  -27.9381   16.9555 N   0  3  0  0  0  0  0  0  0  0  0  0
  -22.2994  -14.1107   21.6008 O   0  0  0  0  0  0  0  0  0  0  0  0
  -24.8988  -31.2416   23.0045 O   0  0  0  0  0  0  0  0  0  0  0  0
  -21.8157  -32.3432   20.4801 O   0  0  0  0  0  0  0  0  0  0  0  0
  -20.9018  -27.7697   19.6034 O   0  0  0  0  0  0  0  0  0  0  0  0
  -31.2562  -16.1930   20.3036 O   0  0  0  0  0  0  0  0  0  0  0  0
  -22.7714   -6.3453   21.3514 O   0  0  0  0  0  0  0  0  0  0  0  0
  -27.2490  -25.8736   21.1751 O   0  0  0  0  0  0  0  0  0  1  0  0
  -20.0519   -5.2375   26.0185 F   0  0  0  0  0  0  0  0  0  0  0  0
  -29.3324  -22.0637   24.2121 F   0  0  0  0  0  0  0  0  0  0  0  0
  -23.6631   -4.3812   23.0805 F   0  0  0  0  0  0  0  0  0  0  0  0
  1  2  1  0  0  0  0
  1  5  2  0  0  0  0
  2  6  2  0  0  0  0
  3 10  2  0  0  0  0
  3 18  1  0  0  0  0
  4 11  1  0  0  0  0
  4 18  2  0  0  0  0
  5 20  1  0  0  0  0
  6 22  1  0  0  0  0
  7 12  2  0  0  0  0
  7 21  1  0  0  0  0
  8  9  2  0  0  0  0
  8 24  1  0  0  0  0
  9 25  1  0  0  0  0
 10 26  1  0  0  0  0
 11 26  2  0  0  0  0
 12 27  1  0  0  0  0
 13 14  2  0  0  0  0
 13 28  1  0  0  0  0
 14 29  1  0  0  0  0
 15 23  1  0  0  0  0
 15 27  2  0  0  0  0
 16 24  2  0  0  0  0
 16 30  1  0  0  0  0
 17 29  2  0  0  0  0
 17 31  1  0  0  0  0
 18 32  1  0  0  0  0
 19 32  1  0  0  0  0
 19 33  2  0  0  0  0
 19 34  1  0  0  0  0
 20 22  2  0  0  0  0
 20 39  1  0  0  0  0
 21 23  2  0  0  0  0
 21 40  1  0  0  0  0
 22 51  1  0  0  0  0
 23 41  1  0  0  0  0
 24 60  1  0  0  0  0
 25 30  2  0  0  0  0
 25 66  1  0  0  0  0
 26 80  1  0  0  0  0
 27 81  1  0  0  0  0
 28 31  2  0  0  0  0
 28 80  1  0  0  0  0
 29 82  1  0  0  0  0
 30 83  1  0  0  0  0
 31 84  1  0  0  0  0
 32 64  2  0  0  0  0
 33 65  1  0  0  0  0
 33 69  1  0  0  0  0
 34 70  1  0  0  0  0
 34 75  2  0  0  0  0
 35 52  1  0  0  0  0
 35 71  1  0  0  0  0
 35 76  2  0  0  0  0
 36 61  1  0  0  0  0
 36 67  1  0  0  0  0
 36 77  2  0  0  0  0
 37 62  1  0  0  0  0
 37 72  1  0  0  0  0
 37 78  2  0  0  0  0
 38 68  1  0  0  0  0
 38 73  1  0  0  0  0
 38 79  2  0  0  0  0
 39 42  1  0  0  0  0
 40 52  1  0  0  0  0
 41 67  1  0  0  0  0
 42 44  1  0  0  0  0
 43 45  1  0  0  0  0
 43 47  1  0  0  0  0
 44 51  1  0  0  0  0
 45 53  1  0  0  0  0
 46 48  1  0  0  0  0
 46 54  1  0  0  0  0
 47 68  1  0  0  0  0
 48 66  1  0  0  0  0
 49 53  1  0  0  0  0
 49 68  1  0  0  0  0
 50 54  1  0  0  0  0
 50 66  1  0  0  0  0
 51 71  1  0  0  0  0
 52 67  1  0  0  0  0
 53 65  1  0  0  0  0
 54 73  1  0  0  0  0
 55 62  1  0  0  0  0
 56 63  1  0  0  0  0
 57 63  1  0  0  0  0
 58 63  1  0  0  0  0
 59 74  1  0  0  0  0
 60 81  1  0  0  0  0
 61 63  1  0  0  0  0
 61 72  1  0  0  0  0
 62 74  1  0  0  0  0
 64 65  1  0  0  0  0
M  CHG  1  74   1
M  ISO  4  38 100  60 101  73 100  81 101
M  END
> <Batch ID>
0014

> <Smiles>
CNC(C)C(=O)NC(C(=O)N1Cc2cc([101O:1][101CH2:1]c3ccc(N4CCC([100NH:0][100C:0](=O)N5CCCC(n6nc(-c7ccc(Oc8ccc(F)cc8F)cc7)c(C(N)=O)c6N)C5)C4)c(F)c3)ccc2CC1C(=O)NC1CCCc2ccccc21)C(C)(C)C

> <Shape>
0.353

> <Color>
0.162

> <Negative vol penalty>
0.000

$$$$

  -OEChem-04042320513D

 93103  0     1  0  0  0  0  0999 V2000
  -17.0131  -35.8657   16.2041 C   0  0  0  0  0  0  0  0  0  0  0  0
  -18.0295  -34.9173   16.1515 C   0  0  0  0  0  0  0  0  0  0  0  0
  -23.0513  -10.1318   19.8836 C   0  0  0  0  0  0  0  0  0  0  0  0
  -23.9048   -9.5922   22.0784 C   0  0  0  0  0  0  0  0  0  0  0  0
  -17.2170  -37.0675   16.8808 C   0  0  0  0  0  0  0  0  0  0  0  0
  -19.2510  -35.1706   16.7746 C   0  0  0  0  0  0  0  0  0  0  0  0
  -24.1053  -25.9316   14.5612 C   0  0  0  0  0  0  0  0  0  0  0  0
  -25.0965  -25.3085   16.6746 C   0  0  0  0  0  0  0  0  0  0  0  0
  -20.9472  -31.1952   19.4135 C   0  0  0  0  0  0  0  0  0  0  0  0
  -23.3402  -26.9031   15.2065 C   0  0  0  0  0  0  0  0  0  0  0  0
  -24.3313  -26.2800   17.3199 C   0  0  0  0  0  0  0  0  0  0  0  0
  -29.4638  -19.7717   16.3894 C   0  0  0  0  0  0  0  0  0  0  0  0
  -29.5099  -18.6759   17.2512 C   0  0  0  0  0  0  0  0  0  0  0  0
  -22.2665   -8.9790   19.9053 C   0  0  0  0  0  0  0  0  0  0  0  0
  -23.1199   -8.4393   22.1002 C   0  0  0  0  0  0  0  0  0  0  0  0
  -21.5381  -30.1581   18.6931 C   0  0  0  0  0  0  0  0  0  0  0  0
  -19.3473   -7.9786   21.2876 C   0  0  0  0  0  0  0  0  0  0  0  0
  -18.0208   -8.0896   20.8711 C   0  0  0  0  0  0  0  0  0  0  0  0
  -23.7205  -31.0058   19.2744 C   0  0  0  0  0  0  0  0  0  0  0  0
  -28.0823  -18.5109   14.8601 C   0  0  0  0  0  0  0  0  0  0  0  0
  -18.4359   -6.4782   19.1194 C   0  0  0  0  0  0  0  0  0  0  0  0
  -23.8706  -10.4384   20.9701 C   0  0  0  0  0  0  0  0  0  0  0  0
  -24.3223  -12.9114   21.4035 C   0  0  0  0  0  0  0  0  0  0  0  0
  -24.9835  -25.1343   15.2953 C   0  0  0  0  0  0  0  0  0  0  0  0
  -18.4382  -37.3317   17.5208 C   0  0  0  0  0  0  0  0  0  0  0  0
  -21.7398  -32.1533   20.0618 C   0  0  0  0  0  0  0  0  0  0  0  0
  -19.4719  -36.3777   17.4594 C   0  0  0  0  0  0  0  0  0  0  0  0
  -23.1372  -32.0526   20.0045 C   0  0  0  0  0  0  0  0  0  0  0  0
  -23.4532  -27.0773   16.5858 C   0  0  0  0  0  0  0  0  0  0  0  0
  -28.7500  -19.6892   15.1939 C   0  0  0  0  0  0  0  0  0  0  0  0
  -28.8422  -17.4976   16.9174 C   0  0  0  0  0  0  0  0  0  0  0  0
  -22.3007   -8.1327   21.0136 C   0  0  0  0  0  0  0  0  0  0  0  0
  -22.9249  -30.0649   18.6211 C   0  0  0  0  0  0  0  0  0  0  0  0
  -20.2182   -7.1175   20.6200 C   0  0  0  0  0  0  0  0  0  0  0  0
  -17.5650   -7.3394   19.7870 C   0  0  0  0  0  0  0  0  0  0  0  0
  -19.7625   -6.3673   19.5360 C   0  0  0  0  0  0  0  0  0  0  0  0
  -28.1284  -17.4151   15.7219 C   0  0  0  0  0  0  0  0  0  0  0  0
  -24.6820  -11.6288   20.9480 C   0  0  0  0  0  0  0  0  0  0  0  0
  -25.4317  -13.6847   21.1632 C   0  0  0  0  0  0  0  0  0  0  0  0
  -23.0952  -13.3633   21.9913 C   0  0  0  0  0  0  0  0  0  0  0  0
  -22.1140  -35.2995   19.8066 C   0  0  0  0  0  0  0  0  0  0  0  0
  -24.0001  -34.8944   22.4144 C   0  0  0  0  0  0  0  0  0  0  0  0
  -25.9493  -32.8086   24.2845 C   0  0  0  0  0  0  0  0  0  0  0  0
  -29.4567  -15.1427   17.4391 C   0  0  0  0  0  0  0  0  0  0  0  0
  -18.6284  -38.6649   18.1998 C   0  0  0  0  0  0  0  0  0  0  0  0
  -21.0871  -33.2506   20.8570 C   0  0  0  0  0  0  0  0  0  0  0  0
  -24.0329  -33.0441   20.6997 C   0  0  0  0  0  0  0  0  0  0  0  0
  -19.8208  -38.6987   19.1523 C   0  0  0  0  0  0  0  0  0  0  0  0
  -30.1290  -12.4077   19.8220 C   0  0  0  0  0  0  0  0  0  0  0  0
  -21.0485  -38.0782   18.4930 C   0  0  0  0  0  0  0  0  0  0  0  0
  -28.7313  -12.0295   20.3093 C   0  0  0  0  0  0  0  0  0  0  0  0
  -27.3013  -24.3897   14.7849 C   0  0  0  0  0  0  0  0  0  0  0  0
  -25.4602  -22.6973   15.1497 C   0  0  0  0  0  0  0  0  0  0  0  0
  -30.1044  -12.9518   18.3967 C   0  0  0  0  0  0  0  0  0  0  0  0
  -27.7689  -13.7181   18.6944 C   0  0  0  0  0  0  0  0  0  0  0  0
  -28.1657  -23.3007   14.1625 C   0  0  0  0  0  0  0  0  0  0  0  0
  -26.3386  -21.6214   14.5242 C   0  0  0  0  0  0  0  0  0  0  0  0
  -25.8019  -24.0954   14.6062 C   0  0  0  0  0  0  0  0  0  0  0  0
  -20.8021  -36.6054   18.1440 C   0  0  1  0  0  0  0  0  0  0  0  0
  -21.9889  -34.4658   21.0504 C   0  0  1  0  0  0  0  0  0  0  0  0
  -27.7550  -13.2068   20.1430 C   0  0  1  0  0  0  0  0  0  0  0  0
  -27.3898  -32.7737   26.3390 C   0  0  0  0  0  0  0  0  0  0  0  0
  -26.2076  -36.3464   20.8884 C   0  0  0  0  0  0  0  0  0  0  0  0
  -27.8494  -35.4577   22.5566 C   0  0  0  0  0  0  0  0  0  0  0  0
  -26.0174  -36.9785   23.3006 C   0  0  0  0  0  0  0  0  0  0  0  0
  -28.6274  -16.6248   19.2517 C   0  0  0  0  0  0  0  0  0  0  0  0
  -24.2393  -30.7762   25.5901 C   0  0  0  0  0  0  0  0  0  0  0  0
  -28.7011  -20.8682   14.2672 C   0  0  0  0  0  0  0  0  0  0  0  0
  -22.6310  -28.1237   17.2789 C   0  0  0  0  0  0  0  0  0  1  0  0
  -25.4638  -34.6017   22.6402 C   0  0  1  0  0  0  0  0  0  0  0  0
  -25.9951  -32.5427   25.7784 C   0  0  2  0  0  0  0  0  0  0  0  0
  -26.3679  -35.8283   22.3317 C   0  0  0  0  0  0  0  0  0  0  0  0
  -25.9228  -11.5858   20.4555 N   0  0  0  0  0  0  0  0  0  0  0  0
  -26.3525  -12.8509   20.6000 N   0  0  0  0  0  0  0  0  0  0  0  0
  -23.3471  -34.1024   21.4593 N   0  0  0  0  0  0  0  0  0  0  0  0
  -29.1355  -14.0394   18.2551 N   0  0  0  0  0  0  0  0  0  0  0  0
  -25.6996  -14.9898   21.3807 N   0  0  0  0  0  0  0  0  0  0  0  0
  -22.0575  -12.4376   22.1663 N   0  0  0  0  0  0  0  0  0  0  0  0
  -20.9102  -35.7805   19.3282 N   0  0  0  0  0  0  0  0  0  0  0  0
  -25.5748  -34.1066   24.0080 N   0  0  0  0  0  0  0  0  0  0  0  0
  -28.9097  -16.3831   17.8330 N   0  0  0  0  0  0  0  0  0  0  0  0
  -27.7914  -21.9627   14.7536 N   0  3  0  0  0  0  0  0  0  0  0  0
  -25.6001  -31.1349   26.0663 N   0  3  0  0  0  0  0  0  0  0  0  0
  -22.9180  -14.5565   22.3356 O   0  0  0  0  0  0  0  0  0  0  0  0
  -23.2210  -35.4932   19.3180 O   0  0  0  0  0  0  0  0  0  0  0  0
  -23.4545  -35.7879   23.0668 O   0  0  0  0  0  0  0  0  0  0  0  0
  -26.2222  -31.9518   23.4467 O   0  0  0  0  0  0  0  0  0  0  0  0
  -30.1974  -15.0326   16.4548 O   0  0  0  0  0  0  0  0  0  0  0  0
  -21.5347   -7.0078   21.0352 O   0  0  0  0  0  0  0  0  0  0  0  0
  -23.5042  -29.0539   17.9181 O   0  0  0  0  0  0  0  0  0  1  0  0
  -16.2907   -7.4450   19.3881 F   0  0  0  0  0  0  0  0  0  0  0  0
  -20.5942   -5.5374   18.8914 F   0  0  0  0  0  0  0  0  0  0  0  0
  -27.2877  -15.9750   15.2696 Cl  0  0  0  0  0  0  0  0  0  0  0  0
  1  2  1  0  0  0  0
  1  5  2  0  0  0  0
  2  6  2  0  0  0  0
  3 14  2  0  0  0  0
  3 22  1  0  0  0  0
  4 15  1  0  0  0  0
  4 22  2  0  0  0  0
  5 25  1  0  0  0  0
  6 27  1  0  0  0  0
  7 10  2  0  0  0  0
  7 24  1  0  0  0  0
  8 11  1  0  0  0  0
  8 24  2  0  0  0  0
  9 16  2  0  0  0  0
  9 26  1  0  0  0  0
 10 29  1  0  0  0  0
 11 29  2  0  0  0  0
 12 13  2  0  0  0  0
 12 30  1  0  0  0  0
 13 31  1  0  0  0  0
 14 32  1  0  0  0  0
 15 32  2  0  0  0  0
 16 33  1  0  0  0  0
 17 18  2  0  0  0  0
 17 34  1  0  0  0  0
 18 35  1  0  0  0  0
 19 28  1  0  0  0  0
 19 33  2  0  0  0  0
 20 30  2  0  0  0  0
 20 37  1  0  0  0  0
 21 35  2  0  0  0  0
 21 36  1  0  0  0  0
 22 38  1  0  0  0  0
 23 38  1  0  0  0  0
 23 39  2  0  0  0  0
 23 40  1  0  0  0  0
 24 58  1  0  0  0  0
 25 27  2  0  0  0  0
 25 45  1  0  0  0  0
 26 28  2  0  0  0  0
 26 46  1  0  0  0  0
 27 59  1  0  0  0  0
 28 47  1  0  0  0  0
 29 69  1  0  0  0  0
 30 68  1  0  0  0  0
 31 37  2  0  0  0  0
 31 81  1  0  0  0  0
 32 89  1  0  0  0  0
 33 90  1  0  0  0  0
 34 36  2  0  0  0  0
 34 89  1  0  0  0  0
 35 91  1  0  0  0  0
 36 92  1  0  0  0  0
 37 93  1  0  0  0  0
 38 73  2  0  0  0  0
 39 74  1  0  0  0  0
 39 77  1  0  0  0  0
 40 78  1  0  0  0  0
 40 84  2  0  0  0  0
 41 60  1  0  0  0  0
 41 79  1  0  0  0  0
 41 85  2  0  0  0  0
 42 70  1  0  0  0  0
 42 75  1  0  0  0  0
 42 86  2  0  0  0  0
 43 71  1  0  0  0  0
 43 80  1  0  0  0  0
 43 87  2  0  0  0  0
 44 76  1  0  0  0  0
 44 81  1  0  0  0  0
 44 88  2  0  0  0  0
 45 48  1  0  0  0  0
 46 60  1  0  0  0  0
 47 75  1  0  0  0  0
 48 50  1  0  0  0  0
 49 51  1  0  0  0  0
 49 54  1  0  0  0  0
 50 59  1  0  0  0  0
 51 61  1  0  0  0  0
 52 56  1  0  0  0  0
 52 58  1  0  0  0  0
 53 57  1  0  0  0  0
 53 58  1  0  0  0  0
 54 76  1  0  0  0  0
 55 61  1  0  0  0  0
 55 76  1  0  0  0  0
 56 82  1  0  0  0  0
 57 82  1  0  0  0  0
 59 79  1  0  0  0  0
 60 75  1  0  0  0  0
 61 74  1  0  0  0  0
 62 71  1  0  0  0  0
 63 72  1  0  0  0  0
 64 72  1  0  0  0  0
 65 72  1  0  0  0  0
 66 81  1  0  0  0  0
 67 83  1  0  0  0  0
 68 82  1  0  0  0  0
 69 90  1  0  0  0  0
 70 72  1  0  0  0  0
 70 80  1  0  0  0  0
 71 83  1  0  0  0  0
 73 74  1  0  0  0  0
M  CHG  2  82   1  83   1
M  ISO  4  44 100  69 101  81 100  90 101
M  END
> <Batch ID>
0014

> <Smiles>
CNC(C)C(=O)NC(C(=O)N1Cc2cc([101O:1][101CH2:1]c3ccc(C4CCN(Cc5ccc([100N:0](C)[100C:0](=O)N6CCCC(n7nc(-c8ccc(Oc9ccc(F)cc9F)cc8)c(C(N)=O)c7N)C6)c(Cl)c5)CC4)cc3)ccc2CC1C(=O)NC1CCCc2ccccc21)C(C)(C)C

> <Shape>
0.196

> <Color>
0.140

> <Negative vol penalty>
0.000

$$$$

  -OEChem-04042320513D

 84 92  0     1  0  0  0  0  0999 V2000
  -29.9897  -24.1972   16.4503 C   0  0  0  0  0  0  0  0  0  0  0  0
  -28.7305  -24.2190   17.0413 C   0  0  0  0  0  0  0  0  0  0  0  0
  -24.4668   -9.2988   21.5182 C   0  0  0  0  0  0  0  0  0  0  0  0
  -22.5734  -10.4340   20.5366 C   0  0  0  0  0  0  0  0  0  0  0  0
  -31.0679  -24.8108   17.0867 C   0  0  0  0  0  0  0  0  0  0  0  0
  -28.5489  -24.8534   18.2697 C   0  0  0  0  0  0  0  0  0  0  0  0
  -24.3919  -27.7438   18.3679 C   0  0  0  0  0  0  0  0  0  0  0  0
  -19.8867  -19.0334   22.1624 C   0  0  0  0  0  0  0  0  0  0  0  0
  -20.6593  -19.9086   24.2776 C   0  0  0  0  0  0  0  0  0  0  0  0
  -21.0558  -18.2816   22.0464 C   0  0  0  0  0  0  0  0  0  0  0  0
  -21.8285  -19.1568   24.1617 C   0  0  0  0  0  0  0  0  0  0  0  0
  -23.7014   -8.1408   21.6553 C   0  0  0  0  0  0  0  0  0  0  0  0
  -21.8080   -9.2760   20.6737 C   0  0  0  0  0  0  0  0  0  0  0  0
  -23.1688  -27.0947   18.5305 C   0  0  0  0  0  0  0  0  0  0  0  0
  -21.3325   -6.9555   23.7548 C   0  0  0  0  0  0  0  0  0  0  0  0
  -21.4068   -6.2703   24.9674 C   0  0  0  0  0  0  0  0  0  0  0  0
  -23.1789  -27.6752   20.8719 C   0  0  0  0  0  0  0  0  0  0  0  0
  -22.2136   -4.3091   23.8097 C   0  0  0  0  0  0  0  0  0  0  0  0
  -23.9028  -10.4454   20.9589 C   0  0  0  0  0  0  0  0  0  0  0  0
  -25.4859  -12.0118   19.7146 C   0  0  0  0  0  0  0  0  0  0  0  0
  -30.8974  -25.4613   18.3189 C   0  0  0  0  0  0  0  0  0  0  0  0
  -25.0240  -28.3551   19.4602 C   0  0  0  0  0  0  0  0  0  0  0  0
  -29.6261  -25.4750   18.9238 C   0  0  0  0  0  0  0  0  0  0  0  0
  -24.4087  -28.3336   20.7200 C   0  0  0  0  0  0  0  0  0  0  0  0
  -19.6884  -19.8470   23.2780 C   0  0  0  0  0  0  0  0  0  0  0  0
  -22.0267  -18.3433   23.0460 C   0  0  0  0  0  0  0  0  0  0  0  0
  -22.3720   -8.1294   21.2331 C   0  0  0  0  0  0  0  0  0  0  0  0
  -22.5635  -27.0578   19.7833 C   0  0  0  0  0  0  0  0  0  0  0  0
  -21.6986   -6.3176   22.5696 C   0  0  0  0  0  0  0  0  0  0  0  0
  -21.8474   -4.9471   24.9949 C   0  0  0  0  0  0  0  0  0  0  0  0
  -22.1391   -4.9944   22.5970 C   0  0  0  0  0  0  0  0  0  0  0  0
  -24.6928  -11.6421   20.8174 C   0  0  0  0  0  0  0  0  0  0  0  0
  -26.0263  -13.2231   20.0711 C   0  0  0  0  0  0  0  0  0  0  0  0
  -25.7136  -11.3219   18.4785 C   0  0  0  0  0  0  0  0  0  0  0  0
  -27.7856  -27.9346   20.9771 C   0  0  0  0  0  0  0  0  0  0  0  0
  -26.8649  -30.6009   22.5788 C   0  0  0  0  0  0  0  0  0  0  0  0
  -24.3195  -32.6249   23.6139 C   0  0  0  0  0  0  0  0  0  0  0  0
  -24.2771  -17.5261   23.8299 C   0  0  0  0  0  0  0  0  0  0  0  0
  -32.1026  -26.0696   18.9915 C   0  0  0  0  0  0  0  0  0  0  0  0
  -26.3303  -29.0742   19.2626 C   0  0  0  0  0  0  0  0  0  0  0  0
  -25.0363  -28.9920   21.9204 C   0  0  0  0  0  0  0  0  0  0  0  0
  -31.7479  -27.0443   20.1115 C   0  0  0  0  0  0  0  0  0  0  0  0
  -27.3574  -15.7427   23.9200 C   0  0  0  0  0  0  0  0  0  0  0  0
  -30.6781  -26.4469   21.0201 C   0  0  0  0  0  0  0  0  0  0  0  0
  -27.0978  -14.5256   23.0293 C   0  0  0  0  0  0  0  0  0  0  0  0
  -26.1211  -16.1256   24.7316 C   0  0  0  0  0  0  0  0  0  0  0  0
  -24.6369  -15.1006   23.0536 C   0  0  0  0  0  0  0  0  0  0  0  0
  -29.3841  -26.1745   20.2438 C   0  0  1  0  0  0  0  0  0  0  0  0
  -27.1332  -29.2195   20.5516 C   0  0  1  0  0  0  0  0  0  0  0  0
  -25.8338  -14.7167   22.1683 C   0  0  2  0  0  0  0  0  0  0  0  0
  -23.8744  -34.7088   24.9393 C   0  0  0  0  0  0  0  0  0  0  0  0
  -27.3007  -29.0449   25.1670 C   0  0  0  0  0  0  0  0  0  0  0  0
  -25.9668  -30.7947   26.3617 C   0  0  0  0  0  0  0  0  0  0  0  0
  -28.1001  -31.4138   25.2267 C   0  0  0  0  0  0  0  0  0  0  0  0
  -23.1481  -34.0035   21.2717 C   0  0  0  0  0  0  0  0  0  0  0  0
  -17.5626  -22.8489   24.2005 C   0  0  0  0  0  0  0  0  0  0  0  0
  -18.4308  -20.6557   23.4027 C   0  0  0  0  0  0  0  0  0  0  0  0
  -19.8825  -23.9625   22.3708 C   0  0  0  0  0  0  0  0  0  0  0  0
  -20.1900  -24.6449   21.0400 C   0  0  0  0  0  0  0  0  0  0  0  0
  -18.9968  -22.7424   22.1674 C   0  0  0  0  0  0  0  0  0  0  0  0
  -21.1109  -25.8431   21.2222 C   0  0  0  0  0  0  0  0  0  1  0  0
  -26.0638  -30.8740   23.8289 C   0  0  1  0  0  0  0  0  0  0  0  0
  -24.1447  -34.1318   23.5584 C   0  0  2  0  0  0  0  0  0  0  0  0
  -26.8467  -30.5177   25.1241 C   0  0  0  0  0  0  0  0  0  0  0  0
  -24.7239  -12.5454   21.8008 N   0  0  0  0  0  0  0  0  0  0  0  0
  -25.5432  -13.4946   21.3173 N   0  0  0  0  0  0  0  0  0  0  0  0
  -26.3167  -29.6771   21.6777 N   0  0  0  0  0  0  0  0  0  0  0  0
  -24.9643  -16.2940   23.8494 N   0  0  0  0  0  0  0  0  0  0  0  0
  -26.8630  -14.0718   19.4370 N   0  0  0  0  0  0  0  0  0  0  0  0
  -25.0802  -10.0883   18.2754 N   0  0  0  0  0  0  0  0  0  0  0  0
  -23.2143  -17.5794   22.9286 N   0  0  0  0  0  0  0  0  0  0  0  0
  -28.6497  -27.4045   20.0381 N   0  0  0  0  0  0  0  0  0  0  0  0
  -25.6449  -32.2691   23.7486 N   0  0  0  0  0  0  0  0  0  0  0  0
  -23.0037  -34.4884   22.6684 N   0  3  0  0  0  0  0  0  0  0  0  0
  -18.6885  -22.1406   23.4870 N   0  3  1  0  0  0  0  0  0  0  0  0
  -26.4697  -11.7779   17.5876 O   0  0  0  0  0  0  0  0  0  0  0  0
  -27.5253  -27.4600   22.0765 O   0  0  0  0  0  0  0  0  0  0  0  0
  -27.9340  -31.1910   22.4047 O   0  0  0  0  0  0  0  0  0  0  0  0
  -23.3745  -31.8418   23.5483 O   0  0  0  0  0  0  0  0  0  0  0  0
  -24.6239  -18.4740   24.5394 O   0  0  0  0  0  0  0  0  0  0  0  0
  -21.6249   -6.9995   21.3666 O   0  0  0  0  0  0  0  0  0  0  0  0
  -21.3700  -26.4244   19.9449 O   0  0  0  0  0  0  0  0  0  1  0  0
  -21.9202   -4.2897   26.1596 F   0  0  0  0  0  0  0  0  0  0  0  0
  -22.4933   -4.3767   21.4618 F   0  0  0  0  0  0  0  0  0  0  0  0
  1  2  1  0  0  0  0
  1  5  2  0  0  0  0
  2  6  2  0  0  0  0
  3 12  2  0  0  0  0
  3 19  1  0  0  0  0
  4 13  1  0  0  0  0
  4 19  2  0  0  0  0
  5 21  1  0  0  0  0
  6 23  1  0  0  0  0
  7 14  2  0  0  0  0
  7 22  1  0  0  0  0
  8 10  2  0  0  0  0
  8 25  1  0  0  0  0
  9 11  1  0  0  0  0
  9 25  2  0  0  0  0
 10 26  1  0  0  0  0
 11 26  2  0  0  0  0
 12 27  1  0  0  0  0
 13 27  2  0  0  0  0
 14 28  1  0  0  0  0
 15 16  2  0  0  0  0
 15 29  1  0  0  0  0
 16 30  1  0  0  0  0
 17 24  1  0  0  0  0
 17 28  2  0  0  0  0
 18 30  2  0  0  0  0
 18 31  1  0  0  0  0
 19 32  1  0  0  0  0
 20 32  1  0  0  0  0
 20 33  2  0  0  0  0
 20 34  1  0  0  0  0
 21 23  2  0  0  0  0
 21 39  1  0  0  0  0
 22 24  2  0  0  0  0
 22 40  1  0  0  0  0
 23 48  1  0  0  0  0
 24 41  1  0  0  0  0
 25 57  1  0  0  0  0
 26 71  1  0  0  0  0
 27 81  1  0  0  0  0
 28 82  1  0  0  0  0
 29 31  2  0  0  0  0
 29 81  1  0  0  0  0
 30 83  1  0  0  0  0
 31 84  1  0  0  0  0
 32 65  2  0  0  0  0
 33 66  1  0  0  0  0
 33 69  1  0  0  0  0
 34 70  1  0  0  0  0
 34 76  2  0  0  0  0
 35 49  1  0  0  0  0
 35 72  1  0  0  0  0
 35 77  2  0  0  0  0
 36 62  1  0  0  0  0
 36 67  1  0  0  0  0
 36 78  2  0  0  0  0
 37 63  1  0  0  0  0
 37 73  1  0  0  0  0
 37 79  2  0  0  0  0
 38 68  1  0  0  0  0
 38 71  1  0  0  0  0
 38 80  2  0  0  0  0
 39 42  1  0  0  0  0
 40 49  1  0  0  0  0
 41 67  1  0  0  0  0
 42 44  1  0  0  0  0
 43 45  1  0  0  0  0
 43 46  1  0  0  0  0
 44 48  1  0  0  0  0
 45 50  1  0  0  0  0
 46 68  1  0  0  0  0
 47 50  1  0  0  0  0
 47 68  1  0  0  0  0
 48 72  1  0  0  0  0
 49 67  1  0  0  0  0
 50 66  1  0  0  0  0
 51 63  1  0  0  0  0
 52 64  1  0  0  0  0
 53 64  1  0  0  0  0
 54 64  1  0  0  0  0
 55 74  1  0  0  0  0
 56 75  1  0  0  0  0
 57 75  1  0  0  0  0
 58 59  1  0  0  0  0
 58 60  1  0  0  0  0
 59 61  1  0  0  0  0
 60 75  1  0  0  0  0
 61 82  1  0  0  0  0
 62 64  1  0  0  0  0
 62 73  1  0  0  0  0
 63 74  1  0  0  0  0
 65 66  1  0  0  0  0
M  CHG  2  74   1  75   1
M  ISO  4  38 100  61 101  71 100  82 101
M  END
> <Batch ID>
0014

> <Smiles>
CNC(C)C(=O)NC(C(=O)N1Cc2cc([101O:1][101CH2:1]CCCN(C)Cc3ccc([100NH:0][100C:0](=O)N4CCCC(n5nc(-c6ccc(Oc7ccc(F)cc7F)cc6)c(C(N)=O)c5N)C4)cc3)ccc2CC1C(=O)NC1CCCc2ccccc21)C(C)(C)C

> <Shape>
0.283

> <Color>
0.110

> <Negative vol penalty>
0.000

$$$$

  -OEChem-04042320513D

 84 92  0     1  0  0  0  0  0999 V2000
  -21.7815  -12.4404   19.2783 C   0  0  0  0  0  0  0  0  0  0  0  0
  -21.7021  -13.7959   19.5811 C   0  0  0  0  0  0  0  0  0  0  0  0
  -27.5107  -28.2486   21.3712 C   0  0  0  0  0  0  0  0  0  0  0  0
  -25.8236  -27.7980   23.0408 C   0  0  0  0  0  0  0  0  0  0  0  0
  -22.9371  -11.7246   19.5881 C   0  0  0  0  0  0  0  0  0  0  0  0
  -22.7781  -14.4362   20.1948 C   0  0  0  0  0  0  0  0  0  0  0  0
  -23.8299  -18.9193   18.0876 C   0  0  0  0  0  0  0  0  0  0  0  0
  -18.9815  -27.1651   21.3557 C   0  0  0  0  0  0  0  0  0  0  0  0
  -19.2723  -25.8383   21.6730 C   0  0  0  0  0  0  0  0  0  0  0  0
  -28.3175  -27.2502   21.9169 C   0  0  0  0  0  0  0  0  0  0  0  0
  -26.6304  -26.7995   23.5866 C   0  0  0  0  0  0  0  0  0  0  0  0
  -23.0067  -19.9918   18.4282 C   0  0  0  0  0  0  0  0  0  0  0  0
  -27.4361  -23.5923   22.8901 C   0  0  0  0  0  0  0  0  0  0  0  0
  -26.8314  -22.3781   23.2151 C   0  0  0  0  0  0  0  0  0  0  0  0
  -24.6666  -20.7582   20.0019 C   0  0  0  0  0  0  0  0  0  0  0  0
  -19.7844  -27.8600   23.5258 C   0  0  0  0  0  0  0  0  0  0  0  0
  -27.4848  -22.6703   25.5226 C   0  0  0  0  0  0  0  0  0  0  0  0
  -26.2637  -28.5225   21.9331 C   0  0  0  0  0  0  0  0  0  0  0  0
  -25.7398  -30.9213   21.2411 C   0  0  0  0  0  0  0  0  0  0  0  0
  -24.0315  -12.3586   20.1972 C   0  0  0  0  0  0  0  0  0  0  0  0
  -25.0750  -18.7519   18.7105 C   0  0  0  0  0  0  0  0  0  0  0  0
  -23.9490  -13.7279   20.5143 C   0  0  0  0  0  0  0  0  0  0  0  0
  -25.5048  -19.6842   19.6656 C   0  0  0  0  0  0  0  0  0  0  0  0
  -19.2376  -28.1760   22.2821 C   0  0  0  0  0  0  0  0  0  0  0  0
  -19.8191  -25.5223   22.9167 C   0  0  0  0  0  0  0  0  0  0  0  0
  -27.8774  -26.5257   23.0246 C   0  0  0  0  0  0  0  0  0  0  0  0
  -23.4237  -20.9098   19.3875 C   0  0  0  0  0  0  0  0  0  0  0  0
  -28.0651  -24.3455   23.8814 C   0  0  0  0  0  0  0  0  0  0  0  0
  -26.8558  -21.9171   24.5313 C   0  0  0  0  0  0  0  0  0  0  0  0
  -28.0895  -23.8846   25.1976 C   0  0  0  0  0  0  0  0  0  0  0  0
  -20.0752  -26.5332   23.8431 C   0  0  0  0  0  0  0  0  0  0  0  0
  -25.4301  -29.5541   21.3701 C   0  0  0  0  0  0  0  0  0  0  0  0
  -24.6284  -31.4708   20.6499 C   0  0  0  0  0  0  0  0  0  0  0  0
  -26.9260  -31.6311   21.6214 C   0  0  0  0  0  0  0  0  0  0  0  0
  -26.3824  -16.5083   20.5437 C   0  0  0  0  0  0  0  0  0  0  0  0
  -29.0420  -18.3350   20.2094 C   0  0  0  0  0  0  0  0  0  0  0  0
  -30.3859  -21.4055   19.5667 C   0  0  0  0  0  0  0  0  0  0  0  0
  -18.9903  -30.0119   20.6210 C   0  0  0  0  0  0  0  0  0  0  0  0
  -25.2414  -11.5328   20.5560 C   0  0  0  0  0  0  0  0  0  0  0  0
  -25.9627  -17.6047   18.3126 C   0  0  0  0  0  0  0  0  0  0  0  0
  -26.8413  -19.5608   20.3489 C   0  0  0  0  0  0  0  0  0  0  0  0
  -26.4800  -12.3696   20.8656 C   0  0  0  0  0  0  0  0  0  0  0  0
  -21.0134  -30.3881   17.7212 C   0  0  0  0  0  0  0  0  0  0  0  0
  -26.1265  -13.5198   21.8030 C   0  0  0  0  0  0  0  0  0  0  0  0
  -22.4176  -30.3385   18.3224 C   0  0  0  0  0  0  0  0  0  0  0  0
  -20.0663  -29.3956   18.3963 C   0  0  0  0  0  0  0  0  0  0  0  0
  -21.4114  -29.4795   20.4719 C   0  0  0  0  0  0  0  0  0  0  0  0
  -25.1046  -14.4635   21.1575 C   0  0  1  0  0  0  0  0  0  0  0  0
  -26.9888  -17.2442   19.3825 C   0  0  1  0  0  0  0  0  0  0  0  0
  -22.3701  -30.5075   19.8512 C   0  0  1  0  0  0  0  0  0  0  0  0
  -32.5886  -22.5963   19.4012 C   0  0  0  0  0  0  0  0  0  0  0  0
  -29.2513  -18.3661   23.2533 C   0  0  0  0  0  0  0  0  0  0  0  0
  -30.8393  -20.2915   23.0549 C   0  0  0  0  0  0  0  0  0  0  0  0
  -31.4310  -18.0815   22.0606 C   0  0  0  0  0  0  0  0  0  0  0  0
  -18.3358  -30.4005   22.9865 C   0  0  0  0  0  0  0  0  0  0  0  0
  -19.0800  -23.3380   23.8347 C   0  0  0  0  0  0  0  0  0  0  0  0
  -29.9276  -22.1020   16.7271 C   0  0  0  0  0  0  0  0  0  0  0  0
  -21.3814  -23.0467   21.4639 C   0  0  0  0  0  0  0  0  0  0  0  0
  -21.3790  -23.5920   22.8869 C   0  0  0  0  0  0  0  0  0  0  0  0
  -22.7249  -22.4535   21.0562 C   0  0  0  0  0  0  0  0  0  1  0  0
  -29.6441  -19.4951   20.9648 C   0  0  1  0  0  0  0  0  0  0  0  0
  -31.5091  -21.8401   18.6426 C   0  0  2  0  0  0  0  0  0  0  0  0
  -30.2653  -19.0601   22.3221 C   0  0  0  0  0  0  0  0  0  0  0  0
  -24.2169  -29.2535   20.8991 N   0  0  0  0  0  0  0  0  0  0  0  0
  -23.7545  -30.4395   20.4683 N   0  0  0  0  0  0  0  0  0  0  0  0
  -27.6706  -18.4186   19.9303 N   0  0  0  0  0  0  0  0  0  0  0  0
  -20.0852  -29.5676   19.8558 N   0  0  0  0  0  0  0  0  0  0  0  0
  -24.3232  -32.7306   20.2731 N   0  0  0  0  0  0  0  0  0  0  0  0
  -26.9938  -32.1768   22.9106 N   0  0  0  0  0  0  0  0  0  0  0  0
  -25.7528  -15.3286   20.1953 N   0  0  0  0  0  0  0  0  0  0  0  0
  -30.5881  -20.1308   20.0520 N   0  0  0  0  0  0  0  0  0  0  0  0
  -18.9358  -29.5493   21.9534 N   0  0  0  0  0  0  0  0  0  0  0  0
  -20.1003  -24.1794   23.2065 N   0  0  3  0  0  0  0  0  0  0  0  0
  -30.9814  -22.7269   17.5674 N   0  3  0  0  0  0  0  0  0  0  0  0
  -27.8906  -31.7913   20.8355 O   0  0  0  0  0  0  0  0  0  0  0  0
  -26.4799  -16.9754   21.6724 O   0  0  0  0  0  0  0  0  0  0  0  0
  -29.7635  -17.3928   19.8729 O   0  0  0  0  0  0  0  0  0  0  0  0
  -29.4271  -22.1263   19.8345 O   0  0  0  0  0  0  0  0  0  0  0  0
  -18.1413  -30.7831   20.1580 O   0  0  0  0  0  0  0  0  0  0  0  0
  -28.6643  -25.5512   23.5573 O   0  0  0  0  0  0  0  0  0  0  0  0
  -22.6219  -21.9571   19.7223 O   0  0  0  0  0  0  0  0  0  1  0  0
  -26.2737  -20.7518   24.8435 F   0  0  0  0  0  0  0  0  0  0  0  0
  -28.6913  -24.6043   26.1545 F   0  0  0  0  0  0  0  0  0  0  0  0
  -20.7524  -26.1854   25.3938 Cl  0  0  0  0  0  0  0  0  0  0  0  0
  1  2  1  0  0  0  0
  1  5  2  0  0  0  0
  2  6  2  0  0  0  0
  3 10  2  0  0  0  0
  3 18  1  0  0  0  0
  4 11  1  0  0  0  0
  4 18  2  0  0  0  0
  5 20  1  0  0  0  0
  6 22  1  0  0  0  0
  7 12  2  0  0  0  0
  7 21  1  0  0  0  0
  8  9  2  0  0  0  0
  8 24  1  0  0  0  0
  9 25  1  0  0  0  0
 10 26  1  0  0  0  0
 11 26  2  0  0  0  0
 12 27  1  0  0  0  0
 13 14  2  0  0  0  0
 13 28  1  0  0  0  0
 14 29  1  0  0  0  0
 15 23  1  0  0  0  0
 15 27  2  0  0  0  0
 16 24  2  0  0  0  0
 16 31  1  0  0  0  0
 17 29  2  0  0  0  0
 17 30  1  0  0  0  0
 18 32  1  0  0  0  0
 19 32  1  0  0  0  0
 19 33  2  0  0  0  0
 19 34  1  0  0  0  0
 20 22  2  0  0  0  0
 20 39  1  0  0  0  0
 21 23  2  0  0  0  0
 21 40  1  0  0  0  0
 22 48  1  0  0  0  0
 23 41  1  0  0  0  0
 24 72  1  0  0  0  0
 25 31  2  0  0  0  0
 25 73  1  0  0  0  0
 26 80  1  0  0  0  0
 27 81  1  0  0  0  0
 28 30  2  0  0  0  0
 28 80  1  0  0  0  0
 29 82  1  0  0  0  0
 30 83  1  0  0  0  0
 31 84  1  0  0  0  0
 32 64  2  0  0  0  0
 33 65  1  0  0  0  0
 33 68  1  0  0  0  0
 34 69  1  0  0  0  0
 34 75  2  0  0  0  0
 35 49  1  0  0  0  0
 35 70  1  0  0  0  0
 35 76  2  0  0  0  0
 36 61  1  0  0  0  0
 36 66  1  0  0  0  0
 36 77  2  0  0  0  0
 37 62  1  0  0  0  0
 37 71  1  0  0  0  0
 37 78  2  0  0  0  0
 38 67  1  0  0  0  0
 38 72  1  0  0  0  0
 38 79  2  0  0  0  0
 39 42  1  0  0  0  0
 40 49  1  0  0  0  0
 41 66  1  0  0  0  0
 42 44  1  0  0  0  0
 43 45  1  0  0  0  0
 43 46  1  0  0  0  0
 44 48  1  0  0  0  0
 45 50  1  0  0  0  0
 46 67  1  0  0  0  0
 47 50  1  0  0  0  0
 47 67  1  0  0  0  0
 48 70  1  0  0  0  0
 49 66  1  0  0  0  0
 50 65  1  0  0  0  0
 51 62  1  0  0  0  0
 52 63  1  0  0  0  0
 53 63  1  0  0  0  0
 54 63  1  0  0  0  0
 55 72  1  0  0  0  0
 56 73  1  0  0  0  0
 57 74  1  0  0  0  0
 58 59  1  0  0  0  0
 58 60  1  0  0  0  0
 59 73  1  0  0  0  0
 60 81  1  0  0  0  0
 61 63  1  0  0  0  0
 61 71  1  0  0  0  0
 62 74  1  0  0  0  0
 64 65  1  0  0  0  0
M  CHG  1  74   1
M  ISO  4  38 100  60 101  72 100  81 101
M  END
> <Batch ID>
0014

> <Smiles>
CNC(C)C(=O)NC(C(=O)N1Cc2cc([101O:1][101CH2:1]CCN(C)c3ccc([100N:0](C)[100C:0](=O)N4CCCC(n5nc(-c6ccc(Oc7ccc(F)cc7F)cc6)c(C(N)=O)c5N)C4)cc3Cl)ccc2CC1C(=O)NC1CCCc2ccccc21)C(C)(C)C

> <Shape>
0.200

> <Color>
0.082

> <Negative vol penalty>
0.000

$$$$

  -OEChem-04042320513D

 89 98  0     1  0  0  0  0  0999 V2000
  -24.1463   -9.2701   23.1840 C   0  0  0  0  0  0  0  0  0  0  0  0
  -25.1960  -10.1589   23.3924 C   0  0  0  0  0  0  0  0  0  0  0  0
  -23.8642  -29.7737   20.7360 C   0  0  0  0  0  0  0  0  0  0  0  0
  -26.0322  -30.0296   21.7712 C   0  0  0  0  0  0  0  0  0  0  0  0
  -23.2495   -9.4852   22.1383 C   0  0  0  0  0  0  0  0  0  0  0  0
  -25.3503  -11.2628   22.5545 C   0  0  0  0  0  0  0  0  0  0  0  0
  -27.5903  -18.0666   22.6397 C   0  0  0  0  0  0  0  0  0  0  0  0
  -29.5591  -25.7618   18.2578 C   0  0  0  0  0  0  0  0  0  0  0  0
  -30.2365  -26.8922   17.8007 C   0  0  0  0  0  0  0  0  0  0  0  0
  -23.3082  -30.6261   21.6898 C   0  0  0  0  0  0  0  0  0  0  0  0
  -25.4762  -30.8821   22.7250 C   0  0  0  0  0  0  0  0  0  0  0  0
  -28.4600  -18.9227   21.9656 C   0  0  0  0  0  0  0  0  0  0  0  0
  -24.5086  -34.1147   22.9119 C   0  0  0  0  0  0  0  0  0  0  0  0
  -25.2001  -35.2884   23.2116 C   0  0  0  0  0  0  0  0  0  0  0  0
  -26.8038  -19.2366   20.2400 C   0  0  0  0  0  0  0  0  0  0  0  0
  -32.0688  -26.3989   19.2962 C   0  0  0  0  0  0  0  0  0  0  0  0
  -25.3905  -34.5878   25.5160 C   0  0  0  0  0  0  0  0  0  0  0  0
  -25.2263  -29.4754   20.7767 C   0  0  0  0  0  0  0  0  0  0  0  0
  -25.4529  -27.2530   19.5450 C   0  0  0  0  0  0  0  0  0  0  0  0
  -23.3872  -10.5975   21.2931 C   0  0  0  0  0  0  0  0  0  0  0  0
  -26.3228  -17.7800   22.1127 C   0  0  0  0  0  0  0  0  0  0  0  0
  -24.4553  -11.4922   21.4957 C   0  0  0  0  0  0  0  0  0  0  0  0
  -25.9189  -18.3786   20.9107 C   0  0  0  0  0  0  0  0  0  0  0  0
  -31.3914  -25.2685   19.7533 C   0  0  0  0  0  0  0  0  0  0  0  0
  -30.1366  -24.9500   19.2342 C   0  0  0  0  0  0  0  0  0  0  0  0
  -31.4914  -27.2107   18.3199 C   0  0  0  0  0  0  0  0  0  0  0  0
  -24.1141  -31.1804   22.6842 C   0  0  0  0  0  0  0  0  0  0  0  0
  -28.0679  -19.5056   20.7641 C   0  0  0  0  0  0  0  0  0  0  0  0
  -24.2579  -33.1776   23.9142 C   0  0  0  0  0  0  0  0  0  0  0  0
  -25.6411  -35.5249   24.5136 C   0  0  0  0  0  0  0  0  0  0  0  0
  -24.6989  -33.4141   25.2162 C   0  0  0  0  0  0  0  0  0  0  0  0
  -25.8011  -28.5944   19.7921 C   0  0  0  0  0  0  0  0  0  0  0  0
  -26.2828  -26.8658   18.5213 C   0  0  0  0  0  0  0  0  0  0  0  0
  -29.5007  -22.4976   19.1488 C   0  0  0  0  0  0  0  0  0  0  0  0
  -24.4673  -26.4305   20.1836 C   0  0  0  0  0  0  0  0  0  0  0  0
  -24.8534  -15.1455   21.1108 C   0  0  0  0  0  0  0  0  0  0  0  0
  -22.3029  -17.1335   20.8556 C   0  0  0  0  0  0  0  0  0  0  0  0
  -21.1392  -20.3199   20.4819 C   0  0  0  0  0  0  0  0  0  0  0  0
  -31.6741  -29.2449   16.8639 C   0  0  0  0  0  0  0  0  0  0  0  0
  -22.4209  -10.7624   20.1469 C   0  0  0  0  0  0  0  0  0  0  0  0
  -25.3862  -16.8754   22.8656 C   0  0  0  0  0  0  0  0  0  0  0  0
  -24.5610  -18.1194   20.3129 C   0  0  0  0  0  0  0  0  0  0  0  0
  -22.4346  -12.1608   19.5350 C   0  0  0  0  0  0  0  0  0  0  0  0
  -28.6950  -28.5859   14.7703 C   0  0  0  0  0  0  0  0  0  0  0  0
  -23.8681  -12.6276   19.3021 C   0  0  0  0  0  0  0  0  0  0  0  0
  -27.5720  -28.4838   15.8007 C   0  0  0  0  0  0  0  0  0  0  0  0
  -28.2645  -22.4176   21.1847 C   0  0  0  0  0  0  0  0  0  0  0  0
  -29.8194  -29.5003   15.2467 C   0  0  0  0  0  0  0  0  0  0  0  0
  -28.4659  -23.8623   20.7752 C   0  0  0  0  0  0  0  0  0  0  0  0
  -29.2555  -29.0092   17.6094 C   0  0  0  0  0  0  0  0  0  0  0  0
  -24.6414  -12.7148   20.6234 C   0  0  1  0  0  0  0  0  0  0  0  0
  -28.4753  -21.6582   19.8879 C   0  0  2  0  0  0  0  0  0  1  0  0
  -24.3160  -16.2499   21.9764 C   0  0  1  0  0  0  0  0  0  0  0  0
  -28.1292  -28.0616   17.1702 C   0  0  1  0  0  0  0  0  0  0  0  0
  -34.4946  -27.6603   17.3469 C   0  0  0  0  0  0  0  0  0  0  0  0
  -19.0071  -21.6261   20.2692 C   0  0  0  0  0  0  0  0  0  0  0  0
  -22.0192  -16.1952   17.9662 C   0  0  0  0  0  0  0  0  0  0  0  0
  -20.5402  -18.1706   17.5432 C   0  0  0  0  0  0  0  0  0  0  0  0
  -19.8582  -16.4365   19.2016 C   0  0  0  0  0  0  0  0  0  0  0  0
  -21.7048  -21.8656   22.9415 C   0  0  0  0  0  0  0  0  0  0  0  0
  -33.5996  -28.5274   18.2090 C   0  0  0  0  0  0  0  0  0  0  0  0
  -21.7440  -18.0216   19.7703 C   0  0  1  0  0  0  0  0  0  0  0  0
  -20.0641  -21.0931   21.2239 C   0  0  2  0  0  0  0  0  0  0  0  0
  -32.0332  -24.4170   20.8001 C   0  0  0  0  0  0  0  0  0  0  0  0
  -21.0668  -17.2095   18.6303 C   0  0  0  0  0  0  0  0  0  0  0  0
  -26.7764  -29.0301   18.9902 N   0  0  0  0  0  0  0  0  0  0  0  0
  -27.0481  -27.9562   18.2292 N   0  0  0  0  0  0  0  0  0  0  0  0
  -29.4271  -23.7979   19.6885 N   0  0  0  0  0  0  0  0  0  0  0  0
  -23.6835  -17.2229   21.0834 N   0  0  0  0  0  0  0  0  0  0  0  0
  -30.2989  -29.1231   16.5773 N   0  0  0  0  0  0  0  0  0  0  0  0
  -26.4253  -25.7023   17.8517 N   0  0  0  0  0  0  0  0  0  0  0  0
  -24.8486  -25.6777   21.3026 N   0  0  0  0  0  0  0  0  0  0  0  0
  -24.2736  -13.9134   21.3461 N   0  0  0  0  0  0  0  0  0  0  0  0
  -20.8581  -18.9708   20.4354 N   0  0  0  0  0  0  0  0  0  0  0  0
  -32.1919  -28.3794   17.8462 N   0  0  0  0  0  0  0  0  0  0  0  0
  -20.6646  -22.2467   21.9516 N   0  3  0  0  0  0  0  0  0  0  0  0
  -30.1973  -22.0559   18.2471 O   0  0  0  0  0  0  0  0  0  0  0  0
  -23.2877  -26.3524   19.7642 O   0  0  0  0  0  0  0  0  0  0  0  0
  -25.7282  -15.3931   20.2892 O   0  0  0  0  0  0  0  0  0  0  0  0
  -21.5415  -16.3932   21.4832 O   0  0  0  0  0  0  0  0  0  0  0  0
  -22.1276  -20.8592   19.9892 O   0  0  0  0  0  0  0  0  0  0  0  0
  -32.3817  -30.1034   16.3228 O   0  0  0  0  0  0  0  0  0  0  0  0
  -23.5719  -32.0125   23.6150 O   0  0  0  0  0  0  0  0  0  0  0  0
  -28.9151  -20.3411   20.1037 O   0  0  0  0  0  0  0  0  0  1  0  0
  -26.3066  -36.6513   24.8009 F   0  0  0  0  0  0  0  0  0  0  0  0
  -24.4621  -32.5170   26.1832 F   0  0  0  0  0  0  0  0  0  0  0  0
  -33.2576  -24.8715   21.1967 F   0  0  0  0  0  0  0  0  0  0  0  0
  -31.2990  -24.3182   21.9463 F   0  0  0  0  0  0  0  0  0  0  0  0
  -32.2345  -23.1353   20.3797 F   0  0  0  0  0  0  0  0  0  0  0  0
  1  2  1  0  0  0  0
  1  5  2  0  0  0  0
  2  6  2  0  0  0  0
  3 10  2  0  0  0  0
  3 18  1  0  0  0  0
  4 11  1  0  0  0  0
  4 18  2  0  0  0  0
  5 20  1  0  0  0  0
  6 22  1  0  0  0  0
  7 12  2  0  0  0  0
  7 21  1  0  0  0  0
  8  9  2  0  0  0  0
  8 25  1  0  0  0  0
  9 26  1  0  0  0  0
 10 27  1  0  0  0  0
 11 27  2  0  0  0  0
 12 28  1  0  0  0  0
 13 14  2  0  0  0  0
 13 29  1  0  0  0  0
 14 30  1  0  0  0  0
 15 23  1  0  0  0  0
 15 28  2  0  0  0  0
 16 24  1  0  0  0  0
 16 26  2  0  0  0  0
 17 30  2  0  0  0  0
 17 31  1  0  0  0  0
 18 32  1  0  0  0  0
 19 32  1  0  0  0  0
 19 33  2  0  0  0  0
 19 35  1  0  0  0  0
 20 22  2  0  0  0  0
 20 40  1  0  0  0  0
 21 23  2  0  0  0  0
 21 41  1  0  0  0  0
 22 51  1  0  0  0  0
 23 42  1  0  0  0  0
 24 25  2  0  0  0  0
 24 64  1  0  0  0  0
 25 68  1  0  0  0  0
 26 75  1  0  0  0  0
 27 83  1  0  0  0  0
 28 84  1  0  0  0  0
 29 31  2  0  0  0  0
 29 83  1  0  0  0  0
 30 85  1  0  0  0  0
 31 86  1  0  0  0  0
 32 66  2  0  0  0  0
 33 67  1  0  0  0  0
 33 71  1  0  0  0  0
 34 52  1  0  0  0  0
 34 68  1  0  0  0  0
 34 77  2  0  0  0  0
 35 72  1  0  0  0  0
 35 78  2  0  0  0  0
 36 53  1  0  0  0  0
 36 73  1  0  0  0  0
 36 79  2  0  0  0  0
 37 62  1  0  0  0  0
 37 69  1  0  0  0  0
 37 80  2  0  0  0  0
 38 63  1  0  0  0  0
 38 74  1  0  0  0  0
 38 81  2  0  0  0  0
 39 70  1  0  0  0  0
 39 75  1  0  0  0  0
 39 82  2  0  0  0  0
 40 43  1  0  0  0  0
 41 53  1  0  0  0  0
 42 69  1  0  0  0  0
 43 45  1  0  0  0  0
 44 46  1  0  0  0  0
 44 48  1  0  0  0  0
 45 51  1  0  0  0  0
 46 54  1  0  0  0  0
 47 49  1  0  0  0  0
 47 52  1  0  0  0  0
 48 70  1  0  0  0  0
 49 68  1  0  0  0  0
 50 54  1  0  0  0  0
 50 70  1  0  0  0  0
 51 73  1  0  0  0  0
 52 84  1  0  0  0  0
 53 69  1  0  0  0  0
 54 67  1  0  0  0  0
 55 61  1  0  0  0  0
 56 63  1  0  0  0  0
 57 65  1  0  0  0  0
 58 65  1  0  0  0  0
 59 65  1  0  0  0  0
 60 76  1  0  0  0  0
 61 75  1  0  0  0  0
 62 65  1  0  0  0  0
 62 74  1  0  0  0  0
 63 76  1  0  0  0  0
 64 87  1  0  0  0  0
 64 88  1  0  0  0  0
 64 89  1  0  0  0  0
 66 67  1  0  0  0  0
M  CHG  1  76   1
M  ISO  4  39 100  52 101  75 100  84 101
M  END
> <Batch ID>
0014

> <Smiles>
CC[100N:0](c1ccc(N2CC[101CH:1]([101O:1]c3ccc4c(c3)CN(C(=O)C(NC(=O)C(C)NC)C(C)(C)C)C(C(=O)NC3CCCc5ccccc53)C4)C2=O)c(C(F)(F)F)c1)[100C:0](=O)N1CCCC(n2nc(-c3ccc(Oc4ccc(F)cc4F)cc3)c(C(N)=O)c2N)C1

> <Shape>
0.230

> <Color>
0.069

> <Negative vol penalty>
0.000

$$$$

  -OEChem-04042320513D

 83 92  0     1  0  0  0  0  0999 V2000
  -16.7671  -29.9311   23.9653 C   0  0  0  0  0  0  0  0  0  0  0  0
  -17.9158  -30.5272   24.4758 C   0  0  0  0  0  0  0  0  0  0  0  0
  -28.1091  -15.6373   19.3329 C   0  0  0  0  0  0  0  0  0  0  0  0
  -29.4409  -15.9730   21.3206 C   0  0  0  0  0  0  0  0  0  0  0  0
  -16.8698  -28.7925   23.1672 C   0  0  0  0  0  0  0  0  0  0  0  0
  -19.1679  -29.9843   24.1893 C   0  0  0  0  0  0  0  0  0  0  0  0
  -25.9757  -31.9249   23.0916 C   0  0  0  0  0  0  0  0  0  0  0  0
  -28.8717  -26.3579   24.5997 C   0  0  0  0  0  0  0  0  0  0  0  0
  -30.6512  -27.4420   23.3770 C   0  0  0  0  0  0  0  0  0  0  0  0
  -28.7388  -25.4206   23.5753 C   0  0  0  0  0  0  0  0  0  0  0  0
  -30.5184  -26.5047   22.3526 C   0  0  0  0  0  0  0  0  0  0  0  0
  -28.4723  -14.2906   19.3170 C   0  0  0  0  0  0  0  0  0  0  0  0
  -29.8041  -14.6263   21.3046 C   0  0  0  0  0  0  0  0  0  0  0  0
  -27.2641  -31.6329   23.5371 C   0  0  0  0  0  0  0  0  0  0  0  0
  -28.4296  -11.6669   22.1838 C   0  0  0  0  0  0  0  0  0  0  0  0
  -28.3860  -10.9712   23.3919 C   0  0  0  0  0  0  0  0  0  0  0  0
  -27.3248  -29.7098   22.0820 C   0  0  0  0  0  0  0  0  0  0  0  0
  -30.7485  -10.5006   23.2060 C   0  0  0  0  0  0  0  0  0  0  0  0
  -28.5934  -16.4785   20.3347 C   0  0  0  0  0  0  0  0  0  0  0  0
  -27.1084  -18.4435   20.9989 C   0  0  0  0  0  0  0  0  0  0  0  0
  -18.1244  -28.2410   22.8629 C   0  0  0  0  0  0  0  0  0  0  0  0
  -25.3469  -31.1039   22.1444 C   0  0  0  0  0  0  0  0  0  0  0  0
  -19.2874  -28.8365   23.3875 C   0  0  0  0  0  0  0  0  0  0  0  0
  -26.0294  -29.9950   21.6242 C   0  0  0  0  0  0  0  0  0  0  0  0
  -29.8278  -27.3687   24.5005 C   0  0  0  0  0  0  0  0  0  0  0  0
  -29.5622  -25.4940   22.4518 C   0  0  0  0  0  0  0  0  0  0  0  0
  -29.3198  -13.7852   20.3028 C   0  0  0  0  0  0  0  0  0  0  0  0
  -27.9378  -30.5236   23.0345 C   0  0  0  0  0  0  0  0  0  0  0  0
  -29.6325  -11.7794   21.4866 C   0  0  0  0  0  0  0  0  0  0  0  0
  -29.5455  -10.3880   23.9030 C   0  0  0  0  0  0  0  0  0  0  0  0
  -30.7920  -11.1963   21.9978 C   0  0  0  0  0  0  0  0  0  0  0  0
  -28.2190  -17.8697   20.3514 C   0  0  0  0  0  0  0  0  0  0  0  0
  -27.1989  -19.7838   20.7129 C   0  0  0  0  0  0  0  0  0  0  0  0
  -26.0864  -17.8206   21.7883 C   0  0  0  0  0  0  0  0  0  0  0  0
  -22.7278  -29.3029   22.1231 C   0  0  0  0  0  0  0  0  0  0  0  0
  -23.4664  -28.9511   18.9842 C   0  0  0  0  0  0  0  0  0  0  0  0
  -25.8518  -29.0147   16.5443 C   0  0  0  0  0  0  0  0  0  0  0  0
  -30.1640  -24.4718   20.2293 C   0  0  0  0  0  0  0  0  0  0  0  0
  -18.1823  -26.9818   22.0348 C   0  0  0  0  0  0  0  0  0  0  0  0
  -23.9671  -31.4477   21.6543 C   0  0  0  0  0  0  0  0  0  0  0  0
  -25.4064  -29.0936   20.5909 C   0  0  0  0  0  0  0  0  0  0  0  0
  -19.5696  -26.6874   21.4700 C   0  0  0  0  0  0  0  0  0  0  0  0
  -30.1596  -22.2607   17.4386 C   0  0  0  0  0  0  0  0  0  0  0  0
  -29.9148  -29.3009   27.6590 C   0  0  0  0  0  0  0  0  0  0  0  0
  -20.6323  -26.8519   22.5518 C   0  0  0  0  0  0  0  0  0  0  0  0
  -29.5630  -20.9684   18.0009 C   0  0  0  0  0  0  0  0  0  0  0  0
  -30.9538  -30.0023   26.7985 C   0  0  0  0  0  0  0  0  0  0  0  0
  -29.6597  -27.9938   26.9154 C   0  0  0  0  0  0  0  0  0  0  0  0
  -31.0485  -22.9668   18.4609 C   0  0  0  0  0  0  0  0  0  0  0  0
  -29.8221  -21.9244   20.3259 C   0  0  0  0  0  0  0  0  0  0  0  0
  -20.6650  -28.2917   23.0787 C   0  0  1  0  0  0  0  0  0  0  0  0
  -23.2255  -30.2502   21.0683 C   0  0  1  0  0  0  0  0  0  0  0  0
  -28.8673  -21.2113   19.3546 C   0  0  2  0  0  0  0  0  0  0  0  0
  -30.5498  -29.6339   25.3640 C   0  0  2  0  0  0  0  0  0  0  0  0
  -26.1604  -28.6479   14.0811 C   0  0  0  0  0  0  0  0  0  0  0  0
  -23.3292  -25.9341   19.4188 C   0  0  0  0  0  0  0  0  0  0  0  0
  -24.5469  -25.6367   17.2515 C   0  0  0  0  0  0  0  0  0  0  0  0
  -22.3037  -26.7277   17.2803 C   0  0  0  0  0  0  0  0  0  0  0  0
  -26.7509  -31.8029   16.1240 C   0  0  0  0  0  0  0  0  0  0  0  0
  -29.5257  -30.6192   24.8023 C   0  0  0  0  0  0  0  0  0  1  0  0
  -24.3038  -27.9821   18.1850 C   0  0  1  0  0  0  0  0  0  0  0  0
  -25.8733  -29.6663   15.1734 C   0  0  2  0  0  0  0  0  0  0  0  0
  -23.6322  -26.5858   18.0548 C   0  0  0  0  0  0  0  0  0  0  0  0
  -28.9605  -18.7717   19.7028 N   0  0  0  0  0  0  0  0  0  0  0  0
  -28.3145  -19.9258   19.9412 N   0  0  0  0  0  0  0  0  0  0  0  0
  -29.9583  -28.2987   25.5147 N   0  0  3  0  0  0  0  0  0  0  0  0
  -24.0532  -29.4679   20.1480 N   0  0  0  0  0  0  0  0  0  0  0  0
  -30.3216  -23.1669   19.7164 N   0  0  0  0  0  0  0  0  0  0  0  0
  -26.4322  -20.8430   21.0486 N   0  0  0  0  0  0  0  0  0  0  0  0
  -26.1445  -16.4338   21.9827 N   0  0  0  0  0  0  0  0  0  0  0  0
  -29.4272  -24.5417   21.4112 N   0  0  0  0  0  0  0  0  0  0  0  0
  -21.3540  -29.1561   22.1446 N   0  0  0  0  0  0  0  0  0  0  0  0
  -24.5776  -28.6348   16.9093 N   0  0  0  0  0  0  0  0  0  0  0  0
  -26.9229  -30.7229   15.1185 N   0  3  0  0  0  0  0  0  0  0  0  0
  -25.1404  -18.4721   22.2923 O   0  0  0  0  0  0  0  0  0  0  0  0
  -23.5310  -28.7451   22.8618 O   0  0  0  0  0  0  0  0  0  0  0  0
  -22.3362  -29.2444   18.5865 O   0  0  0  0  0  0  0  0  0  0  0  0
  -26.8647  -28.8552   17.2220 O   0  0  0  0  0  0  0  0  0  0  0  0
  -30.6237  -25.4577   19.6474 O   0  0  0  0  0  0  0  0  0  0  0  0
  -29.6742  -12.4711   20.2877 O   0  0  0  0  0  0  0  0  0  0  0  0
  -29.1952  -30.2359   23.4681 O   0  0  0  0  0  0  0  0  0  1  0  0
  -29.5039   -9.7213   25.0640 F   0  0  0  0  0  0  0  0  0  0  0  0
  -31.9508  -11.3020   21.3332 F   0  0  0  0  0  0  0  0  0  0  0  0
  1  2  1  0  0  0  0
  1  5  2  0  0  0  0
  2  6  2  0  0  0  0
  3 12  2  0  0  0  0
  3 19  1  0  0  0  0
  4 13  1  0  0  0  0
  4 19  2  0  0  0  0
  5 21  1  0  0  0  0
  6 23  1  0  0  0  0
  7 14  2  0  0  0  0
  7 22  1  0  0  0  0
  8 10  2  0  0  0  0
  8 25  1  0  0  0  0
  9 11  1  0  0  0  0
  9 25  2  0  0  0  0
 10 26  1  0  0  0  0
 11 26  2  0  0  0  0
 12 27  1  0  0  0  0
 13 27  2  0  0  0  0
 14 28  1  0  0  0  0
 15 16  2  0  0  0  0
 15 29  1  0  0  0  0
 16 30  1  0  0  0  0
 17 24  1  0  0  0  0
 17 28  2  0  0  0  0
 18 30  2  0  0  0  0
 18 31  1  0  0  0  0
 19 32  1  0  0  0  0
 20 32  1  0  0  0  0
 20 33  2  0  0  0  0
 20 34  1  0  0  0  0
 21 23  2  0  0  0  0
 21 39  1  0  0  0  0
 22 24  2  0  0  0  0
 22 40  1  0  0  0  0
 23 51  1  0  0  0  0
 24 41  1  0  0  0  0
 25 66  1  0  0  0  0
 26 71  1  0  0  0  0
 27 80  1  0  0  0  0
 28 81  1  0  0  0  0
 29 31  2  0  0  0  0
 29 80  1  0  0  0  0
 30 82  1  0  0  0  0
 31 83  1  0  0  0  0
 32 64  2  0  0  0  0
 33 65  1  0  0  0  0
 33 69  1  0  0  0  0
 34 70  1  0  0  0  0
 34 75  2  0  0  0  0
 35 52  1  0  0  0  0
 35 72  1  0  0  0  0
 35 76  2  0  0  0  0
 36 61  1  0  0  0  0
 36 67  1  0  0  0  0
 36 77  2  0  0  0  0
 37 62  1  0  0  0  0
 37 73  1  0  0  0  0
 37 78  2  0  0  0  0
 38 68  1  0  0  0  0
 38 71  1  0  0  0  0
 38 79  2  0  0  0  0
 39 42  1  0  0  0  0
 40 52  1  0  0  0  0
 41 67  1  0  0  0  0
 42 45  1  0  0  0  0
 43 46  1  0  0  0  0
 43 49  1  0  0  0  0
 44 47  1  0  0  0  0
 44 48  1  0  0  0  0
 45 51  1  0  0  0  0
 46 53  1  0  0  0  0
 47 54  1  0  0  0  0
 48 66  1  0  0  0  0
 49 68  1  0  0  0  0
 50 53  1  0  0  0  0
 50 68  1  0  0  0  0
 51 72  1  0  0  0  0
 52 67  1  0  0  0  0
 53 65  1  0  0  0  0
 54 60  1  0  0  0  0
 54 66  1  0  0  0  0
 55 62  1  0  0  0  0
 56 63  1  0  0  0  0
 57 63  1  0  0  0  0
 58 63  1  0  0  0  0
 59 74  1  0  0  0  0
 60 81  1  0  0  0  0
 61 63  1  0  0  0  0
 61 73  1  0  0  0  0
 62 74  1  0  0  0  0
 64 65  1  0  0  0  0
M  CHG  1  74   1
M  ISO  4  38 100  60 101  71 100  81 101
M  END
> <Batch ID>
0014

> <Smiles>
CNC(C)C(=O)NC(C(=O)N1Cc2cc([101O:1][101CH2:1]C3CCCN3c3ccc([100NH:0][100C:0](=O)N4CCCC(n5nc(-c6ccc(Oc7ccc(F)cc7F)cc6)c(C(N)=O)c5N)C4)cc3)ccc2CC1C(=O)NC1CCCc2ccccc21)C(C)(C)C

> <Shape>
0.266

> <Color>
0.114

> <Negative vol penalty>
0.000

$$$$

  -OEChem-04042320513D

 82 90  0     1  0  0  0  0  0999 V2000
  -35.9092  -31.1665   20.0709 C   0  0  0  0  0  0  0  0  0  0  0  0
  -35.9895  -30.0060   20.8339 C   0  0  0  0  0  0  0  0  0  0  0  0
  -23.0463   -9.9635   19.8683 C   0  0  0  0  0  0  0  0  0  0  0  0
  -23.9077   -9.7563   22.1160 C   0  0  0  0  0  0  0  0  0  0  0  0
  -34.6783  -31.7950   19.8874 C   0  0  0  0  0  0  0  0  0  0  0  0
  -34.8389  -29.4739   21.4148 C   0  0  0  0  0  0  0  0  0  0  0  0
  -33.5448  -23.5480   22.2608 C   0  0  0  0  0  0  0  0  0  0  0  0
  -32.7769  -17.2532   23.6545 C   0  0  0  0  0  0  0  0  0  0  0  0
  -32.1462  -16.4571   22.6984 C   0  0  0  0  0  0  0  0  0  0  0  0
  -22.3135   -8.7894   20.0408 C   0  0  0  0  0  0  0  0  0  0  0  0
  -23.1748   -8.5821   22.2886 C   0  0  0  0  0  0  0  0  0  0  0  0
  -33.6592  -22.7121   23.3707 C   0  0  0  0  0  0  0  0  0  0  0  0
  -19.9761   -7.7198   22.9558 C   0  0  0  0  0  0  0  0  0  0  0  0
  -19.2721   -7.5667   24.1502 C   0  0  0  0  0  0  0  0  0  0  0  0
  -31.3390  -23.1072   23.8997 C   0  0  0  0  0  0  0  0  0  0  0  0
  -30.6244  -18.0379   24.4212 C   0  0  0  0  0  0  0  0  0  0  0  0
  -20.5436   -5.5726   24.6441 C   0  0  0  0  0  0  0  0  0  0  0  0
  -23.8435  -10.4470   20.9058 C   0  0  0  0  0  0  0  0  0  0  0  0
  -24.1816  -12.9733   21.0101 C   0  0  0  0  0  0  0  0  0  0  0  0
  -33.5105  -31.2649   20.4583 C   0  0  0  0  0  0  0  0  0  0  0  0
  -32.3275  -24.1795   21.9677 C   0  0  0  0  0  0  0  0  0  0  0  0
  -33.5914  -30.0966   21.2399 C   0  0  0  0  0  0  0  0  0  0  0  0
  -31.2111  -23.9486   22.7840 C   0  0  0  0  0  0  0  0  0  0  0  0
  -32.0160  -18.0435   24.5160 C   0  0  0  0  0  0  0  0  0  0  0  0
  -30.7546  -16.4515   22.6037 C   0  0  0  0  0  0  0  0  0  0  0  0
  -22.3777   -8.0986   21.2510 C   0  0  0  0  0  0  0  0  0  0  0  0
  -32.5569  -22.4939   24.1920 C   0  0  0  0  0  0  0  0  0  0  0  0
  -20.9638   -6.7992   22.6055 C   0  0  0  0  0  0  0  0  0  0  0  0
  -19.5558   -6.4932   24.9943 C   0  0  0  0  0  0  0  0  0  0  0  0
  -29.9936  -17.2419   23.4651 C   0  0  0  0  0  0  0  0  0  0  0  0
  -21.2476   -5.7257   23.4497 C   0  0  0  0  0  0  0  0  0  0  0  0
  -24.6013  -11.6595   20.7280 C   0  0  0  0  0  0  0  0  0  0  0  0
  -25.2570  -13.7576   20.6712 C   0  0  0  0  0  0  0  0  0  0  0  0
  -22.9314  -13.4428   21.5320 C   0  0  0  0  0  0  0  0  0  0  0  0
  -31.3586  -27.2002   21.7675 C   0  0  0  0  0  0  0  0  0  0  0  0
  -28.6079  -25.8397   20.7163 C   0  0  0  0  0  0  0  0  0  0  0  0
  -26.5814  -23.0951   20.6311 C   0  0  0  0  0  0  0  0  0  0  0  0
  -30.7264  -14.8008   20.7008 C   0  0  0  0  0  0  0  0  0  0  0  0
  -32.2102  -32.0058   20.2713 C   0  0  0  0  0  0  0  0  0  0  0  0
  -32.2134  -25.0571   20.7515 C   0  0  0  0  0  0  0  0  0  0  0  0
  -29.8764  -24.5866   22.5013 C   0  0  0  0  0  0  0  0  0  0  0  0
  -30.9787  -31.1698   20.6101 C   0  0  0  0  0  0  0  0  0  0  0  0
  -29.5056  -12.6179   18.1667 C   0  0  0  0  0  0  0  0  0  0  0  0
  -31.1749  -30.4436   21.9371 C   0  0  0  0  0  0  0  0  0  0  0  0
  -28.0864  -12.2820   18.6304 C   0  0  0  0  0  0  0  0  0  0  0  0
  -30.4736  -12.7352   19.3428 C   0  0  0  0  0  0  0  0  0  0  0  0
  -28.6307  -13.3193   20.8698 C   0  0  0  0  0  0  0  0  0  0  0  0
  -32.3617  -29.4751   21.8657 C   0  0  1  0  0  0  0  0  0  0  0  0
  -31.0630  -26.0551   20.8406 C   0  0  1  0  0  0  0  0  0  0  0  0
  -27.6062  -13.2548   19.7253 C   0  0  2  0  0  0  0  0  0  0  0  0
  -24.3818  -22.2980   19.7234 C   0  0  0  0  0  0  0  0  0  0  0  0
  -27.1454  -27.4281   22.8722 C   0  0  0  0  0  0  0  0  0  0  0  0
  -25.1776  -25.9129   22.5555 C   0  0  0  0  0  0  0  0  0  0  0  0
  -25.9704  -27.3361   20.6664 C   0  0  0  0  0  0  0  0  0  0  0  0
  -34.1094  -18.8496   25.5781 C   0  0  0  0  0  0  0  0  0  0  0  0
  -27.8791  -20.9667   19.0359 C   0  0  0  0  0  0  0  0  0  0  0  0
  -31.8916  -19.6831   26.3751 C   0  0  0  0  0  0  0  0  0  0  0  0
  -31.4927  -20.9739   25.6797 C   0  0  0  0  0  0  0  0  0  1  0  0
  -27.3455  -25.3357   21.3730 C   0  0  1  0  0  0  0  0  0  0  0  0
  -25.8798  -22.3964   19.4804 C   0  0  2  0  0  0  0  0  0  0  0  0
  -26.4352  -26.4926   21.8735 C   0  0  0  0  0  0  0  0  0  0  0  0
  -25.8461  -11.6080   20.2467 N   0  0  0  0  0  0  0  0  0  0  0  0
  -26.2179  -12.8993   20.2237 N   0  0  0  0  0  0  0  0  0  0  0  0
  -29.8169  -25.4414   21.3041 N   0  0  0  0  0  0  0  0  0  0  0  0
  -29.9551  -13.6765   20.3377 N   0  0  0  0  0  0  0  0  0  0  0  0
  -25.4650  -15.0907   20.7152 N   0  0  0  0  0  0  0  0  0  0  0  0
  -21.9349  -12.5024   21.8264 N   0  0  0  0  0  0  0  0  0  0  0  0
  -30.1169  -15.6421   21.6311 N   0  0  0  0  0  0  0  0  0  0  0  0
  -31.9879  -28.2690   21.1584 N   0  0  0  0  0  0  0  0  0  0  0  0
  -26.7078  -24.4495   20.4053 N   0  0  0  0  0  0  0  0  0  0  0  0
  -32.6497  -18.8427   25.4768 N   0  0  3  0  0  0  0  0  0  0  0  0
  -26.4191  -21.0181   19.3052 N   0  3  0  0  0  0  0  0  0  0  0  0
  -22.6989  -14.6617   21.7160 O   0  0  0  0  0  0  0  0  0  0  0  0
  -31.0380  -27.1206   22.9476 O   0  0  0  0  0  0  0  0  0  0  0  0
  -28.5245  -26.5544   19.7144 O   0  0  0  0  0  0  0  0  0  0  0  0
  -26.9744  -22.4997   21.6318 O   0  0  0  0  0  0  0  0  0  0  0  0
  -31.8336  -15.0169   20.2015 O   0  0  0  0  0  0  0  0  0  0  0  0
  -21.6625   -6.9530   21.4198 O   0  0  0  0  0  0  0  0  0  0  0  0
  -32.6660  -21.6789   25.2764 O   0  0  0  0  0  0  0  0  0  1  0  0
  -18.8807   -6.3472   26.1420 F   0  0  0  0  0  0  0  0  0  0  0  0
  -28.6555  -17.2445   23.3825 F   0  0  0  0  0  0  0  0  0  0  0  0
  -22.1962   -4.8387   23.1191 F   0  0  0  0  0  0  0  0  0  0  0  0
  1  2  1  0  0  0  0
  1  5  2  0  0  0  0
  2  6  2  0  0  0  0
  3 10  2  0  0  0  0
  3 18  1  0  0  0  0
  4 11  1  0  0  0  0
  4 18  2  0  0  0  0
  5 20  1  0  0  0  0
  6 22  1  0  0  0  0
  7 12  2  0  0  0  0
  7 21  1  0  0  0  0
  8  9  2  0  0  0  0
  8 24  1  0  0  0  0
  9 25  1  0  0  0  0
 10 26  1  0  0  0  0
 11 26  2  0  0  0  0
 12 27  1  0  0  0  0
 13 14  2  0  0  0  0
 13 28  1  0  0  0  0
 14 29  1  0  0  0  0
 15 23  1  0  0  0  0
 15 27  2  0  0  0  0
 16 24  2  0  0  0  0
 16 30  1  0  0  0  0
 17 29  2  0  0  0  0
 17 31  1  0  0  0  0
 18 32  1  0  0  0  0
 19 32  1  0  0  0  0
 19 33  2  0  0  0  0
 19 34  1  0  0  0  0
 20 22  2  0  0  0  0
 20 39  1  0  0  0  0
 21 23  2  0  0  0  0
 21 40  1  0  0  0  0
 22 48  1  0  0  0  0
 23 41  1  0  0  0  0
 24 71  1  0  0  0  0
 25 30  2  0  0  0  0
 25 68  1  0  0  0  0
 26 78  1  0  0  0  0
 27 79  1  0  0  0  0
 28 31  2  0  0  0  0
 28 78  1  0  0  0  0
 29 80  1  0  0  0  0
 30 81  1  0  0  0  0
 31 82  1  0  0  0  0
 32 62  2  0  0  0  0
 33 63  1  0  0  0  0
 33 66  1  0  0  0  0
 34 67  1  0  0  0  0
 34 73  2  0  0  0  0
 35 49  1  0  0  0  0
 35 69  1  0  0  0  0
 35 74  2  0  0  0  0
 36 59  1  0  0  0  0
 36 64  1  0  0  0  0
 36 75  2  0  0  0  0
 37 60  1  0  0  0  0
 37 70  1  0  0  0  0
 37 76  2  0  0  0  0
 38 65  1  0  0  0  0
 38 68  1  0  0  0  0
 38 77  2  0  0  0  0
 39 42  1  0  0  0  0
 40 49  1  0  0  0  0
 41 64  1  0  0  0  0
 42 44  1  0  0  0  0
 43 45  1  0  0  0  0
 43 46  1  0  0  0  0
 44 48  1  0  0  0  0
 45 50  1  0  0  0  0
 46 65  1  0  0  0  0
 47 50  1  0  0  0  0
 47 65  1  0  0  0  0
 48 69  1  0  0  0  0
 49 64  1  0  0  0  0
 50 63  1  0  0  0  0
 51 60  1  0  0  0  0
 52 61  1  0  0  0  0
 53 61  1  0  0  0  0
 54 61  1  0  0  0  0
 55 71  1  0  0  0  0
 56 72  1  0  0  0  0
 57 58  1  0  0  0  0
 57 71  1  0  0  0  0
 58 79  1  0  0  0  0
 59 61  1  0  0  0  0
 59 70  1  0  0  0  0
 60 72  1  0  0  0  0
 62 63  1  0  0  0  0
M  CHG  1  72   1
M  ISO  4  38 100  58 101  68 100  79 101
M  END
> <Batch ID>
0014

> <Smiles>
CNC(C)C(=O)NC(C(=O)N1Cc2cc([101O:1][101CH2:1]CN(C)c3ccc([100NH:0][100C:0](=O)N4CCCC(n5nc(-c6ccc(Oc7ccc(F)cc7F)cc6)c(C(N)=O)c5N)C4)c(F)c3)ccc2CC1C(=O)NC1CCCc2ccccc21)C(C)(C)C

> <Shape>
0.212

> <Color>
0.214

> <Negative vol penalty>
0.000

$$$$

  -OEChem-04042320513D

 86 95  0     1  0  0  0  0  0999 V2000
  -32.1004  -32.9693   20.3792 C   0  0  0  0  0  0  0  0  0  0  0  0
  -31.4747  -31.7671   20.0650 C   0  0  0  0  0  0  0  0  0  0  0  0
  -22.9675  -10.1236   19.8903 C   0  0  0  0  0  0  0  0  0  0  0  0
  -24.1849   -9.6932   21.9323 C   0  0  0  0  0  0  0  0  0  0  0  0
  -31.7102  -33.6815   21.5125 C   0  0  0  0  0  0  0  0  0  0  0  0
  -30.4591  -31.2759   20.8846 C   0  0  0  0  0  0  0  0  0  0  0  0
  -26.4829  -29.5800   18.2466 C   0  0  0  0  0  0  0  0  0  0  0  0
  -29.0890  -20.3094   21.0510 C   0  0  0  0  0  0  0  0  0  0  0  0
  -28.9871  -18.9751   21.4445 C   0  0  0  0  0  0  0  0  0  0  0  0
  -22.2987   -8.9079   20.0327 C   0  0  0  0  0  0  0  0  0  0  0  0
  -23.5160   -8.4774   22.0748 C   0  0  0  0  0  0  0  0  0  0  0  0
  -26.6015  -28.3240   17.6531 C   0  0  0  0  0  0  0  0  0  0  0  0
  -20.4871   -7.4114   23.1284 C   0  0  0  0  0  0  0  0  0  0  0  0
  -19.9888   -7.0918   24.3914 C   0  0  0  0  0  0  0  0  0  0  0  0
  -25.3420  -27.3543   19.4677 C   0  0  0  0  0  0  0  0  0  0  0  0
  -29.6299  -19.6056   18.8040 C   0  0  0  0  0  0  0  0  0  0  0  0
  -21.3678   -5.1085   24.4336 C   0  0  0  0  0  0  0  0  0  0  0  0
  -23.9107  -10.5162   20.8400 C   0  0  0  0  0  0  0  0  0  0  0  0
  -24.2043  -13.0253   21.1948 C   0  0  0  0  0  0  0  0  0  0  0  0
  -30.6827  -33.2037   22.3411 C   0  0  0  0  0  0  0  0  0  0  0  0
  -25.8012  -29.7311   19.4627 C   0  0  0  0  0  0  0  0  0  0  0  0
  -30.0557  -31.9818   22.0308 C   0  0  0  0  0  0  0  0  0  0  0  0
  -25.2140  -28.6137   20.0733 C   0  0  0  0  0  0  0  0  0  0  0  0
  -29.4103  -20.6247   19.7308 C   0  0  0  0  0  0  0  0  0  0  0  0
  -29.2067  -17.9560   20.5177 C   0  0  0  0  0  0  0  0  0  0  0  0
  -22.5729   -8.0848   21.1250 C   0  0  0  0  0  0  0  0  0  0  0  0
  -26.0334  -27.2105   18.2651 C   0  0  0  0  0  0  0  0  0  0  0  0
  -21.4258   -6.5795   22.5180 C   0  0  0  0  0  0  0  0  0  0  0  0
  -20.4291   -5.9403   25.0440 C   0  0  0  0  0  0  0  0  0  0  0  0
  -29.5280  -18.2712   19.1974 C   0  0  0  0  0  0  0  0  0  0  0  0
  -21.8661   -5.4281   23.1706 C   0  0  0  0  0  0  0  0  0  0  0  0
  -24.6023  -11.7716   20.6931 C   0  0  0  0  0  0  0  0  0  0  0  0
  -25.1931  -13.8875   20.7881 C   0  0  0  0  0  0  0  0  0  0  0  0
  -23.0446  -13.3788   21.9602 C   0  0  0  0  0  0  0  0  0  0  0  0
  -26.6062  -30.7042   22.3797 C   0  0  0  0  0  0  0  0  0  0  0  0
  -23.4225  -30.4171   22.9310 C   0  0  0  0  0  0  0  0  0  0  0  0
  -20.4510  -28.9776   22.0681 C   0  0  0  0  0  0  0  0  0  0  0  0
  -30.8011  -14.7367   20.4065 C   0  0  0  0  0  0  0  0  0  0  0  0
  -30.3278  -33.9849   23.5814 C   0  0  0  0  0  0  0  0  0  0  0  0
  -25.6592  -31.0969   20.0765 C   0  0  0  0  0  0  0  0  0  0  0  0
  -24.4544  -28.7257   21.3690 C   0  0  0  0  0  0  0  0  0  0  0  0
  -28.9873  -33.5834   24.1914 C   0  0  0  0  0  0  0  0  0  0  0  0
  -28.9993  -13.2590   17.5304 C   0  0  0  0  0  0  0  0  0  0  0  0
  -28.8727  -32.0646   24.2756 C   0  0  0  0  0  0  0  0  0  0  0  0
  -27.6935  -12.7828   18.1645 C   0  0  0  0  0  0  0  0  0  0  0  0
  -30.1478  -13.2665   18.5347 C   0  0  0  0  0  0  0  0  0  0  0  0
  -28.5574  -13.5710   20.4035 C   0  0  0  0  0  0  0  0  0  0  0  0
  -28.5243  -23.8809   18.0071 C   0  0  0  0  0  0  0  0  0  0  0  0
  -27.1752  -22.4546   18.7211 C   0  0  0  0  0  0  0  0  0  0  0  0
  -28.9331  -31.4287   22.8816 C   0  0  1  0  0  0  0  0  0  0  0  0
  -25.3850  -31.0523   21.5766 C   0  0  1  0  0  0  0  0  0  0  0  0
  -26.9889  -23.7557   17.9119 C   0  0  0  0  0  0  0  0  0  0  0  0
  -27.3695  -13.5959   19.4299 C   0  0  2  0  0  0  0  0  0  0  0  0
  -18.0303  -28.9100   22.7261 C   0  0  0  0  0  0  0  0  0  0  0  0
  -24.1220  -28.6427   25.3127 C   0  0  0  0  0  0  0  0  0  0  0  0
  -21.7448  -27.8575   25.3369 C   0  0  0  0  0  0  0  0  0  0  0  0
  -22.2652  -30.2652   25.7303 C   0  0  0  0  0  0  0  0  0  0  0  0
  -31.4114  -16.6885   21.7839 C   0  0  0  0  0  0  0  0  0  0  0  0
  -19.5864  -30.0154   19.4348 C   0  0  0  0  0  0  0  0  0  0  0  0
  -29.0982  -16.5301   20.9415 C   0  0  0  0  0  0  0  0  0  0  0  0
  -29.5203  -22.0599   19.3076 C   0  0  0  0  0  0  0  0  0  0  0  0
  -26.1705  -24.8548   18.5613 C   0  0  0  0  0  0  0  0  0  1  0  0
  -22.5153  -29.3071   23.4040 C   0  0  1  0  0  0  0  0  0  0  0  0
  -19.0730  -29.5717   21.8386 C   0  0  2  0  0  0  0  0  0  0  0  0
  -22.6777  -29.0154   24.9226 C   0  0  0  0  0  0  0  0  0  0  0  0
  -25.7540  -11.8281   20.0190 N   0  0  0  0  0  0  0  0  0  0  0  0
  -26.0881  -13.1276   20.0942 N   0  0  0  0  0  0  0  0  0  0  0  0
  -24.3484  -30.0815   21.9331 N   0  0  0  0  0  0  0  0  0  0  0  0
  -29.7974  -14.0096   19.7456 N   0  0  0  0  0  0  0  0  0  0  0  0
  -25.3754  -15.2140   20.9599 N   0  0  0  0  0  0  0  0  0  0  0  0
  -22.1300  -12.3699   22.2919 N   0  0  0  0  0  0  0  0  0  0  0  0
  -27.6633  -31.5765   22.2032 N   0  0  0  0  0  0  0  0  0  0  0  0
  -21.1635  -29.6890   23.0102 N   0  0  0  0  0  0  0  0  0  0  0  0
  -30.4054  -15.8947   21.0929 N   0  0  0  0  0  0  0  0  0  0  0  0
  -28.5694  -22.4221   18.2341 N   0  3  0  0  0  0  0  0  0  0  0  0
  -18.6621  -29.3930   20.4173 N   0  3  0  0  0  0  0  0  0  0  0  0
  -22.8175  -14.5574   22.3247 O   0  0  0  0  0  0  0  0  0  0  0  0
  -26.5902  -29.7180   23.1069 O   0  0  0  0  0  0  0  0  0  0  0  0
  -23.3090  -31.5423   23.4237 O   0  0  0  0  0  0  0  0  0  0  0  0
  -20.8536  -27.9798   21.4740 O   0  0  0  0  0  0  0  0  0  0  0  0
  -31.9850  -14.3768   20.3762 O   0  0  0  0  0  0  0  0  0  0  0  0
  -21.9202   -6.8986   21.2644 O   0  0  0  0  0  0  0  0  0  0  0  0
  -26.1482  -25.9833   17.6882 O   0  0  0  0  0  0  0  0  0  1  0  0
  -19.9516   -5.6344   26.2575 F   0  0  0  0  0  0  0  0  0  0  0  0
  -29.7417  -17.2987   18.3001 F   0  0  0  0  0  0  0  0  0  0  0  0
  -22.7686   -4.6256   22.5898 F   0  0  0  0  0  0  0  0  0  0  0  0
  1  2  1  0  0  0  0
  1  5  2  0  0  0  0
  2  6  2  0  0  0  0
  3 10  2  0  0  0  0
  3 18  1  0  0  0  0
  4 11  1  0  0  0  0
  4 18  2  0  0  0  0
  5 20  1  0  0  0  0
  6 22  1  0  0  0  0
  7 12  2  0  0  0  0
  7 21  1  0  0  0  0
  8  9  2  0  0  0  0
  8 24  1  0  0  0  0
  9 25  1  0  0  0  0
 10 26  1  0  0  0  0
 11 26  2  0  0  0  0
 12 27  1  0  0  0  0
 13 14  2  0  0  0  0
 13 28  1  0  0  0  0
 14 29  1  0  0  0  0
 15 23  1  0  0  0  0
 15 27  2  0  0  0  0
 16 24  2  0  0  0  0
 16 30  1  0  0  0  0
 17 29  2  0  0  0  0
 17 31  1  0  0  0  0
 18 32  1  0  0  0  0
 19 32  1  0  0  0  0
 19 33  2  0  0  0  0
 19 34  1  0  0  0  0
 20 22  2  0  0  0  0
 20 39  1  0  0  0  0
 21 23  2  0  0  0  0
 21 40  1  0  0  0  0
 22 50  1  0  0  0  0
 23 41  1  0  0  0  0
 24 61  1  0  0  0  0
 25 30  2  0  0  0  0
 25 60  1  0  0  0  0
 26 82  1  0  0  0  0
 27 83  1  0  0  0  0
 28 31  2  0  0  0  0
 28 82  1  0  0  0  0
 29 84  1  0  0  0  0
 30 85  1  0  0  0  0
 31 86  1  0  0  0  0
 32 66  2  0  0  0  0
 33 67  1  0  0  0  0
 33 70  1  0  0  0  0
 34 71  1  0  0  0  0
 34 77  2  0  0  0  0
 35 51  1  0  0  0  0
 35 72  1  0  0  0  0
 35 78  2  0  0  0  0
 36 63  1  0  0  0  0
 36 68  1  0  0  0  0
 36 79  2  0  0  0  0
 37 64  1  0  0  0  0
 37 73  1  0  0  0  0
 37 80  2  0  0  0  0
 38 69  1  0  0  0  0
 38 74  1  0  0  0  0
 38 81  2  0  0  0  0
 39 42  1  0  0  0  0
 40 51  1  0  0  0  0
 41 68  1  0  0  0  0
 42 44  1  0  0  0  0
 43 45  1  0  0  0  0
 43 46  1  0  0  0  0
 44 50  1  0  0  0  0
 45 53  1  0  0  0  0
 46 69  1  0  0  0  0
 47 53  1  0  0  0  0
 47 69  1  0  0  0  0
 48 52  1  0  0  0  0
 48 75  1  0  0  0  0
 49 52  1  0  0  0  0
 49 75  1  0  0  0  0
 50 72  1  0  0  0  0
 51 68  1  0  0  0  0
 52 62  1  0  0  0  0
 53 67  1  0  0  0  0
 54 64  1  0  0  0  0
 55 65  1  0  0  0  0
 56 65  1  0  0  0  0
 57 65  1  0  0  0  0
 58 74  1  0  0  0  0
 59 76  1  0  0  0  0
 60 74  1  0  0  0  0
 61 75  1  0  0  0  0
 62 83  1  0  0  0  0
 63 65  1  0  0  0  0
 63 73  1  0  0  0  0
 64 76  1  0  0  0  0
 66 67  1  0  0  0  0
M  CHG  2  75   1  76   1
M  ISO  4  38 100  62 101  74 100  83 101
M  END
> <Batch ID>
0014

> <Smiles>
CNC(C)C(=O)NC(C(=O)N1Cc2cc([101O:1][101CH2:1]C3CN(Cc4ccc(C[100N:0](C)[100C:0](=O)N5CCCC(n6nc(-c7ccc(Oc8ccc(F)cc8F)cc7)c(C(N)=O)c6N)C5)c(F)c4)C3)ccc2CC1C(=O)NC1CCCc2ccccc21)C(C)(C)C

> <Shape>
0.357

> <Color>
0.199

> <Negative vol penalty>
0.000

$$$$

  -OEChem-04042320513D

 85 93  0     1  0  0  0  0  0999 V2000
  -24.2133  -23.6184   27.5718 C   0  0  0  0  0  0  0  0  0  0  0  0
  -25.1684  -24.1703   26.7241 C   0  0  0  0  0  0  0  0  0  0  0  0
  -26.8102  -13.4717   21.0208 C   0  0  0  0  0  0  0  0  0  0  0  0
  -27.2144  -13.2711   18.6473 C   0  0  0  0  0  0  0  0  0  0  0  0
  -22.8891  -24.0492   27.5025 C   0  0  0  0  0  0  0  0  0  0  0  0
  -24.7995  -25.1525   25.8056 C   0  0  0  0  0  0  0  0  0  0  0  0
  -28.0633  -29.0227   25.6846 C   0  0  0  0  0  0  0  0  0  0  0  0
  -26.2817  -12.1810   21.0399 C   0  0  0  0  0  0  0  0  0  0  0  0
  -26.6858  -11.9804   18.6664 C   0  0  0  0  0  0  0  0  0  0  0  0
  -29.2552  -28.8289   24.9877 C   0  0  0  0  0  0  0  0  0  0  0  0
  -23.3728  -10.6687   20.2178 C   0  0  0  0  0  0  0  0  0  0  0  0
  -22.1857  -10.4657   20.9214 C   0  0  0  0  0  0  0  0  0  0  0  0
  -28.3402  -30.0237   23.1024 C   0  0  0  0  0  0  0  0  0  0  0  0
  -23.3049   -8.8704   22.3496 C   0  0  0  0  0  0  0  0  0  0  0  0
  -27.2765  -14.0168   19.8245 C   0  0  0  0  0  0  0  0  0  0  0  0
  -29.1654  -15.7222   20.0011 C   0  0  0  0  0  0  0  0  0  0  0  0
  -22.5057  -25.0442   26.5894 C   0  0  0  0  0  0  0  0  0  0  0  0
  -26.9952  -29.7101   25.0905 C   0  0  0  0  0  0  0  0  0  0  0  0
  -23.4687  -25.5961   25.7231 C   0  0  0  0  0  0  0  0  0  0  0  0
  -27.1367  -30.2271   23.7948 C   0  0  0  0  0  0  0  0  0  0  0  0
  -26.2195  -11.4353   19.8627 C   0  0  0  0  0  0  0  0  0  0  0  0
  -29.3928  -29.3269   23.6954 C   0  0  0  0  0  0  0  0  0  0  0  0
  -24.5260   -9.9725   20.5800 C   0  0  0  0  0  0  0  0  0  0  0  0
  -22.1517   -9.5666   21.9873 C   0  0  0  0  0  0  0  0  0  0  0  0
  -24.4921   -9.0734   21.6459 C   0  0  0  0  0  0  0  0  0  0  0  0
  -27.8221  -15.3502   19.8040 C   0  0  0  0  0  0  0  0  0  0  0  0
  -29.1634  -17.0907   19.8843 C   0  0  0  0  0  0  0  0  0  0  0  0
  -27.1019  -24.2498   20.5692 C   0  0  0  0  0  0  0  0  0  0  0  0
  -26.3360  -23.2605   21.0437 C   0  0  0  0  0  0  0  0  0  0  0  0
  -30.3125  -14.9039   20.2660 C   0  0  0  0  0  0  0  0  0  0  0  0
  -26.9380  -21.9261   21.2377 C   0  0  0  0  0  0  0  0  0  0  0  0
  -24.0104  -28.9607   24.2951 C   0  0  0  0  0  0  0  0  0  0  0  0
  -23.8199  -32.1200   23.5844 C   0  0  0  0  0  0  0  0  0  0  0  0
  -25.4389  -34.9998   22.7287 C   0  0  0  0  0  0  0  0  0  0  0  0
  -21.0531  -25.4438   26.5186 C   0  0  0  0  0  0  0  0  0  0  0  0
  -25.7257  -29.9340   25.8655 C   0  0  0  0  0  0  0  0  0  0  0  0
  -26.0272  -30.9898   23.1197 C   0  0  0  0  0  0  0  0  0  0  0  0
  -26.6087  -25.6509   20.3276 C   0  0  0  0  0  0  0  0  0  0  0  0
  -20.8180  -26.7562   25.7753 C   0  0  0  0  0  0  0  0  0  0  0  0
  -27.8952  -26.4395   20.0993 C   0  0  0  0  0  0  0  0  0  0  0  0
  -25.5975  -20.2645   18.2588 C   0  0  0  0  0  0  0  0  0  0  0  0
  -21.6046  -26.7780   24.4685 C   0  0  0  0  0  0  0  0  0  0  0  0
  -26.1357  -18.8484   18.4453 C   0  0  0  0  0  0  0  0  0  0  0  0
  -25.2601  -20.9282   19.5931 C   0  0  0  0  0  0  0  0  0  0  0  0
  -26.9319  -19.5107   20.7491 C   0  0  0  0  0  0  0  0  0  0  0  0
  -23.1124  -26.6814   24.7305 C   0  0  1  0  0  0  0  0  0  0  0  0
  -28.5615  -24.1434   20.2162 C   0  0  2  0  0  0  0  0  0  0  0  0
  -24.5191  -30.2023   24.9712 C   0  0  1  0  0  0  0  0  0  0  0  0
  -28.8188  -25.4283   19.4162 C   0  0  2  0  0  0  0  0  0  0  0  0
  -27.3222  -18.8412   19.4222 C   0  0  1  0  0  0  0  0  0  0  0  0
  -25.0120  -37.4107   22.1785 C   0  0  0  0  0  0  0  0  0  0  0  0
  -22.8233  -31.3094   20.8168 C   0  0  0  0  0  0  0  0  0  0  0  0
  -23.3220  -33.6342   20.0329 C   0  0  0  0  0  0  0  0  0  0  0  0
  -21.6282  -33.2609   21.8257 C   0  0  0  0  0  0  0  0  0  0  0  0
  -27.0624  -35.9308   25.0214 C   0  0  0  0  0  0  0  0  0  0  0  0
  -28.5724  -23.1102   17.9506 C   0  0  0  0  0  0  0  0  0  0  0  0
  -30.4084  -22.6087   19.5563 C   0  0  0  0  0  0  0  0  0  0  0  0
  -30.0880  -27.6009   17.6355 C   0  0  0  0  0  0  0  0  0  0  0  0
  -30.2747  -25.8705   19.4164 C   0  0  0  0  0  0  0  0  0  0  0  0
  -31.5786  -28.1341   21.0902 C   0  0  0  0  0  0  0  0  0  0  0  0
  -31.6019  -27.9713   19.5778 C   0  0  0  0  0  0  0  0  0  0  0  0
  -30.4656  -29.0460   21.5915 C   0  0  0  0  0  0  0  0  0  1  0  0
  -24.0815  -32.9570   22.3557 C   0  0  1  0  0  0  0  0  0  0  0  0
  -25.3404  -36.4118   23.2772 C   0  0  2  0  0  0  0  0  0  0  0  0
  -22.9841  -32.7744   21.2695 C   0  0  0  0  0  0  0  0  0  0  0  0
  -27.0246  -16.3978   19.5792 N   0  0  0  0  0  0  0  0  0  0  0  0
  -27.8694  -17.4416   19.6344 N   0  0  0  0  0  0  0  0  0  0  0  0
  -26.3907  -20.8569   20.5308 N   0  0  0  0  0  0  0  0  0  0  0  0
  -24.8032  -31.1771   23.9161 N   0  0  0  0  0  0  0  0  0  0  0  0
  -30.1424  -18.0161   19.9720 N   0  0  0  0  0  0  0  0  0  0  0  0
  -30.1373  -13.5161   20.3542 N   0  0  0  0  0  0  0  0  0  0  0  0
  -23.6320  -27.9591   25.1687 N   0  0  0  0  0  0  0  0  0  0  0  0
  -24.2371  -34.3303   22.8229 N   0  0  0  0  0  0  0  0  0  0  0  0
  -26.6296  -36.8137   23.9078 N   0  3  0  0  0  0  0  0  0  0  0  0
  -28.9498  -22.9630   19.4040 N   0  3  0  0  0  0  0  0  0  0  0  0
  -30.3464  -27.3453   19.1009 N   0  3  1  0  0  0  0  0  0  0  0  0
  -31.4562  -15.3903   20.4362 O   0  0  0  0  0  0  0  0  0  0  0  0
  -27.8873  -21.8387   22.0188 O   0  0  0  0  0  0  0  0  0  0  0  0
  -23.9630  -28.9153   23.0714 O   0  0  0  0  0  0  0  0  0  0  0  0
  -22.7847  -32.3010   24.2303 O   0  0  0  0  0  0  0  0  0  0  0  0
  -26.4770  -34.5382   22.2599 O   0  0  0  0  0  0  0  0  0  0  0  0
  -25.7040  -10.1758   19.8810 O   0  0  0  0  0  0  0  0  0  0  0  0
  -30.5548  -29.1385   23.0128 O   0  0  0  0  0  0  0  0  0  1  0  0
  -21.0120   -9.3729   22.6639 F   0  0  0  0  0  0  0  0  0  0  0  0
  -25.5970   -8.4026   21.9993 F   0  0  0  0  0  0  0  0  0  0  0  0
  1  2  1  0  0  0  0
  1  5  2  0  0  0  0
  2  6  2  0  0  0  0
  3  8  2  0  0  0  0
  3 15  1  0  0  0  0
  4  9  1  0  0  0  0
  4 15  2  0  0  0  0
  5 17  1  0  0  0  0
  6 19  1  0  0  0  0
  7 10  2  0  0  0  0
  7 18  1  0  0  0  0
  8 21  1  0  0  0  0
  9 21  2  0  0  0  0
 10 22  1  0  0  0  0
 11 12  2  0  0  0  0
 11 23  1  0  0  0  0
 12 24  1  0  0  0  0
 13 20  1  0  0  0  0
 13 22  2  0  0  0  0
 14 24  2  0  0  0  0
 14 25  1  0  0  0  0
 15 26  1  0  0  0  0
 16 26  1  0  0  0  0
 16 27  2  0  0  0  0
 16 30  1  0  0  0  0
 17 19  2  0  0  0  0
 17 35  1  0  0  0  0
 18 20  2  0  0  0  0
 18 36  1  0  0  0  0
 19 46  1  0  0  0  0
 20 37  1  0  0  0  0
 21 82  1  0  0  0  0
 22 83  1  0  0  0  0
 23 25  2  0  0  0  0
 23 82  1  0  0  0  0
 24 84  1  0  0  0  0
 25 85  1  0  0  0  0
 26 66  2  0  0  0  0
 27 67  1  0  0  0  0
 27 70  1  0  0  0  0
 28 29  2  0  0  0  0
 28 38  1  0  0  0  0
 28 47  1  0  0  0  0
 29 31  1  0  0  0  0
 30 71  1  0  0  0  0
 30 77  2  0  0  0  0
 31 68  1  0  0  0  0
 31 78  2  0  0  0  0
 32 48  1  0  0  0  0
 32 72  1  0  0  0  0
 32 79  2  0  0  0  0
 33 63  1  0  0  0  0
 33 69  1  0  0  0  0
 33 80  2  0  0  0  0
 34 64  1  0  0  0  0
 34 73  1  0  0  0  0
 34 81  2  0  0  0  0
 35 39  1  0  0  0  0
 36 48  1  0  0  0  0
 37 69  1  0  0  0  0
 38 40  1  0  0  0  0
 39 42  1  0  0  0  0
 40 49  1  0  0  0  0
 41 43  1  0  0  0  0
 41 44  1  0  0  0  0
 42 46  1  0  0  0  0
 43 50  1  0  0  0  0
 44 68  1  0  0  0  0
 45 50  1  0  0  0  0
 45 68  1  0  0  0  0
 46 72  1  0  0  0  0
 47 49  1  0  0  0  0
 47 75  1  0  0  0  0
 48 69  1  0  0  0  0
 49 59  1  0  0  0  0
 50 67  1  0  0  0  0
 51 64  1  0  0  0  0
 52 65  1  0  0  0  0
 53 65  1  0  0  0  0
 54 65  1  0  0  0  0
 55 74  1  0  0  0  0
 56 75  1  0  0  0  0
 57 75  1  0  0  0  0
 58 76  1  0  0  0  0
 59 76  1  0  0  0  0
 60 61  1  0  0  0  0
 60 62  1  0  0  0  0
 61 76  1  0  0  0  0
 62 83  1  0  0  0  0
 63 65  1  0  0  0  0
 63 73  1  0  0  0  0
 64 74  1  0  0  0  0
 66 67  1  0  0  0  0
M  CHG  3  74   1  75   1  76   1
M  ISO  4  29 100  31 100  62 101  83 101
M  END
> <Batch ID>
0014

> <Smiles>
CNC(C)C(=O)NC(C(=O)N1Cc2cc([101O:1][101CH2:1]CCN(C)CC3CCC(=[100CH:0][100C:0](=O)N4CCCC(n5nc(-c6ccc(Oc7ccc(F)cc7F)cc6)c(C(N)=O)c5N)C4)C3N(C)C)ccc2CC1C(=O)NC1CCCc2ccccc21)C(C)(C)C

> <Shape>
0.264

> <Color>
0.110

> <Negative vol penalty>
0.000

$$$$

  -OEChem-04042320513D

 84 93  0     1  0  0  0  0  0999 V2000
  -26.5743  -37.1247   25.0759 C   0  0  0  0  0  0  0  0  0  0  0  0
  -27.5232  -36.2168   24.6169 C   0  0  0  0  0  0  0  0  0  0  0  0
  -22.7974  -10.2909   20.2395 C   0  0  0  0  0  0  0  0  0  0  0  0
  -24.5630   -9.2333   21.5049 C   0  0  0  0  0  0  0  0  0  0  0  0
  -25.4094  -36.6642   25.6881 C   0  0  0  0  0  0  0  0  0  0  0  0
  -27.3082  -34.8476   24.7710 C   0  0  0  0  0  0  0  0  0  0  0  0
  -27.2009  -29.1670   19.4095 C   0  0  0  0  0  0  0  0  0  0  0  0
  -25.7618  -19.6314   19.0667 C   0  0  0  0  0  0  0  0  0  0  0  0
  -26.0674  -18.2871   19.2787 C   0  0  0  0  0  0  0  0  0  0  0  0
  -21.8498   -9.7444   21.1048 C   0  0  0  0  0  0  0  0  0  0  0  0
  -23.6153   -8.6867   22.3703 C   0  0  0  0  0  0  0  0  0  0  0  0
  -27.0012  -28.0996   18.5339 C   0  0  0  0  0  0  0  0  0  0  0  0
  -21.4472   -6.0924   22.3732 C   0  0  0  0  0  0  0  0  0  0  0  0
  -21.5863   -4.7490   22.7215 C   0  0  0  0  0  0  0  0  0  0  0  0
  -25.5485  -27.0341   20.1471 C   0  0  0  0  0  0  0  0  0  0  0  0
  -28.3825  -18.8716   19.6475 C   0  0  0  0  0  0  0  0  0  0  0  0
  -21.7771   -5.3719   25.0481 C   0  0  0  0  0  0  0  0  0  0  0  0
  -24.1540  -10.0353   20.4395 C   0  0  0  0  0  0  0  0  0  0  0  0
  -25.2367  -10.3908   18.1571 C   0  0  0  0  0  0  0  0  0  0  0  0
  -25.1755  -35.2885   25.8411 C   0  0  0  0  0  0  0  0  0  0  0  0
  -26.5622  -29.1794   20.6526 C   0  0  0  0  0  0  0  0  0  0  0  0
  -26.1397  -34.3683   25.3871 C   0  0  0  0  0  0  0  0  0  0  0  0
  -25.7349  -28.1066   21.0233 C   0  0  0  0  0  0  0  0  0  0  0  0
  -26.7665  -20.5958   19.1449 C   0  0  0  0  0  0  0  0  0  0  0  0
  -27.3777  -17.9072   19.5692 C   0  0  0  0  0  0  0  0  0  0  0  0
  -22.2587   -8.9423   22.1702 C   0  0  0  0  0  0  0  0  0  0  0  0
  -26.1772  -27.0356   18.9019 C   0  0  0  0  0  0  0  0  0  0  0  0
  -21.4732   -7.0757   23.3623 C   0  0  0  0  0  0  0  0  0  0  0  0
  -21.7511   -4.3887   24.0589 C   0  0  0  0  0  0  0  0  0  0  0  0
  -28.0768  -20.2159   19.4354 C   0  0  0  0  0  0  0  0  0  0  0  0
  -21.6381   -6.7154   24.6997 C   0  0  0  0  0  0  0  0  0  0  0  0
  -25.1334  -10.5992   19.5456 C   0  0  0  0  0  0  0  0  0  0  0  0
  -26.3219  -11.1421   17.7771 C   0  0  0  0  0  0  0  0  0  0  0  0
  -24.4244   -9.5899   17.2886 C   0  0  0  0  0  0  0  0  0  0  0  0
  -25.9646  -31.0000   23.8782 C   0  0  0  0  0  0  0  0  0  0  0  0
  -23.2745  -29.8012   23.0200 C   0  0  0  0  0  0  0  0  0  0  0  0
  -20.4292  -28.6752   21.5121 C   0  0  0  0  0  0  0  0  0  0  0  0
  -28.9361  -15.9956   20.0826 C   0  0  0  0  0  0  0  0  0  0  0  0
  -23.9233  -34.8397   26.5517 C   0  0  0  0  0  0  0  0  0  0  0  0
  -26.7970  -30.2790   21.6524 C   0  0  0  0  0  0  0  0  0  0  0  0
  -25.0958  -28.1461   22.3846 C   0  0  0  0  0  0  0  0  0  0  0  0
  -23.5986  -33.3632   26.3397 C   0  0  0  0  0  0  0  0  0  0  0  0
  -30.4711  -12.8446   19.4564 C   0  0  0  0  0  0  0  0  0  0  0  0
  -24.8471  -32.5087   26.5347 C   0  0  0  0  0  0  0  0  0  0  0  0
  -29.2859  -11.8934   19.2758 C   0  0  0  0  0  0  0  0  0  0  0  0
  -25.5230  -23.7126   17.4904 C   0  0  0  0  0  0  0  0  0  0  0  0
  -26.9135  -24.3034   19.4814 C   0  0  0  0  0  0  0  0  0  0  0  0
  -30.1941  -13.8991   20.5264 C   0  0  0  0  0  0  0  0  0  0  0  0
  -25.3550  -22.2932   18.0257 C   0  0  0  0  0  0  0  0  0  0  0  0
  -26.7431  -22.8868   20.0212 C   0  0  0  0  0  0  0  0  0  0  0  0
  -27.7652  -13.7068   20.1624 C   0  0  0  0  0  0  0  0  0  0  0  0
  -25.9311  -32.8748   25.5137 C   0  0  1  0  0  0  0  0  0  0  0  0
  -25.5488  -30.6094   22.4904 C   0  0  1  0  0  0  0  0  0  0  0  0
  -27.9721  -12.6668   19.0492 C   0  0  2  0  0  0  0  0  0  0  0  0
  -25.7325  -24.7209   18.6128 C   0  0  0  0  0  0  0  0  0  1  0  0
  -17.9463  -28.5323   21.8475 C   0  0  0  0  0  0  0  0  0  0  0  0
  -23.6780  -27.5255   25.0106 C   0  0  0  0  0  0  0  0  0  0  0  0
  -21.3145  -26.8223   24.5775 C   0  0  0  0  0  0  0  0  0  0  0  0
  -21.7864  -29.0672   25.5575 C   0  0  0  0  0  0  0  0  0  0  0  0
  -19.8925  -30.2948   19.0939 C   0  0  0  0  0  0  0  0  0  0  0  0
  -22.3161  -28.6416   23.1223 C   0  0  1  0  0  0  0  0  0  0  0  0
  -19.0901  -29.3443   21.2599 C   0  0  2  0  0  0  0  0  0  0  0  0
  -22.2924  -28.0162   24.5456 C   0  0  0  0  0  0  0  0  0  0  0  0
  -26.0777  -11.4184   20.0157 N   0  0  0  0  0  0  0  0  0  0  0  0
  -26.7848  -11.7315   18.9166 N   0  0  0  0  0  0  0  0  0  0  0  0
  -26.4568  -21.9449   18.9299 N   0  0  0  0  0  0  0  0  0  0  0  0
  -24.5953  -29.5008   22.6654 N   0  0  0  0  0  0  0  0  0  0  0  0
  -28.9363  -14.5939   20.2438 N   0  0  0  0  0  0  0  0  0  0  0  0
  -26.9159  -11.3494   16.5826 N   0  0  0  0  0  0  0  0  0  0  0  0
  -23.3492   -8.8826   17.8436 N   0  0  0  0  0  0  0  0  0  0  0  0
  -27.6879  -16.5415   19.7847 N   0  0  0  0  0  0  0  0  0  0  0  0
  -25.6265  -32.2947   24.2233 N   0  0  0  0  0  0  0  0  0  0  0  0
  -21.0227  -29.1396   22.6668 N   0  0  0  0  0  0  0  0  0  0  0  0
  -18.8548  -29.4968   19.7962 N   0  3  0  0  0  0  0  0  0  0  0  0
  -24.6553   -9.4910   16.0597 O   0  0  0  0  0  0  0  0  0  0  0  0
  -26.5479  -30.1870   24.5855 O   0  0  0  0  0  0  0  0  0  0  0  0
  -22.8671  -30.9427   23.2532 O   0  0  0  0  0  0  0  0  0  0  0  0
  -20.8997  -27.8229   20.7620 O   0  0  0  0  0  0  0  0  0  0  0  0
  -29.9720  -16.6593   20.1731 O   0  0  0  0  0  0  0  0  0  0  0  0
  -21.3343   -8.4090   23.0150 O   0  0  0  0  0  0  0  0  0  0  0  0
  -25.9830  -25.9989   18.0404 O   0  0  0  0  0  0  0  0  0  1  0  0
  -21.8831   -3.0984   24.3934 F   0  0  0  0  0  0  0  0  0  0  0  0
  -29.0502  -21.1347   19.5115 F   0  0  0  0  0  0  0  0  0  0  0  0
  -21.6626   -7.6554   25.6545 F   0  0  0  0  0  0  0  0  0  0  0  0
  1  2  1  0  0  0  0
  1  5  2  0  0  0  0
  2  6  2  0  0  0  0
  3 10  2  0  0  0  0
  3 18  1  0  0  0  0
  4 11  1  0  0  0  0
  4 18  2  0  0  0  0
  5 20  1  0  0  0  0
  6 22  1  0  0  0  0
  7 12  2  0  0  0  0
  7 21  1  0  0  0  0
  8  9  2  0  0  0  0
  8 24  1  0  0  0  0
  9 25  1  0  0  0  0
 10 26  1  0  0  0  0
 11 26  2  0  0  0  0
 12 27  1  0  0  0  0
 13 14  2  0  0  0  0
 13 28  1  0  0  0  0
 14 29  1  0  0  0  0
 15 23  1  0  0  0  0
 15 27  2  0  0  0  0
 16 25  2  0  0  0  0
 16 30  1  0  0  0  0
 17 29  2  0  0  0  0
 17 31  1  0  0  0  0
 18 32  1  0  0  0  0
 19 32  1  0  0  0  0
 19 33  2  0  0  0  0
 19 34  1  0  0  0  0
 20 22  2  0  0  0  0
 20 39  1  0  0  0  0
 21 23  2  0  0  0  0
 21 40  1  0  0  0  0
 22 52  1  0  0  0  0
 23 41  1  0  0  0  0
 24 30  2  0  0  0  0
 24 66  1  0  0  0  0
 25 71  1  0  0  0  0
 26 80  1  0  0  0  0
 27 81  1  0  0  0  0
 28 31  2  0  0  0  0
 28 80  1  0  0  0  0
 29 82  1  0  0  0  0
 30 83  1  0  0  0  0
 31 84  1  0  0  0  0
 32 64  2  0  0  0  0
 33 65  1  0  0  0  0
 33 69  1  0  0  0  0
 34 70  1  0  0  0  0
 34 75  2  0  0  0  0
 35 53  1  0  0  0  0
 35 72  1  0  0  0  0
 35 76  2  0  0  0  0
 36 61  1  0  0  0  0
 36 67  1  0  0  0  0
 36 77  2  0  0  0  0
 37 62  1  0  0  0  0
 37 73  1  0  0  0  0
 37 78  2  0  0  0  0
 38 68  1  0  0  0  0
 38 71  1  0  0  0  0
 38 79  2  0  0  0  0
 39 42  1  0  0  0  0
 40 53  1  0  0  0  0
 41 67  1  0  0  0  0
 42 44  1  0  0  0  0
 43 45  1  0  0  0  0
 43 48  1  0  0  0  0
 44 52  1  0  0  0  0
 45 54  1  0  0  0  0
 46 49  1  0  0  0  0
 46 55  1  0  0  0  0
 47 50  1  0  0  0  0
 47 55  1  0  0  0  0
 48 68  1  0  0  0  0
 49 66  1  0  0  0  0
 50 66  1  0  0  0  0
 51 54  1  0  0  0  0
 51 68  1  0  0  0  0
 52 72  1  0  0  0  0
 53 67  1  0  0  0  0
 54 65  1  0  0  0  0
 55 81  1  0  0  0  0
 56 62  1  0  0  0  0
 57 63  1  0  0  0  0
 58 63  1  0  0  0  0
 59 63  1  0  0  0  0
 60 74  1  0  0  0  0
 61 63  1  0  0  0  0
 61 73  1  0  0  0  0
 62 74  1  0  0  0  0
 64 65  1  0  0  0  0
M  CHG  1  74   1
M  ISO  4  38 100  55 101  71 100  81 101
M  END
> <Batch ID>
0014

> <Smiles>
CNC(C)C(=O)NC(C(=O)N1Cc2cc([101O:1][101CH:1]3CCN(c4ccc([100NH:0][100C:0](=O)N5CCCC(n6nc(-c7ccc(Oc8ccc(F)cc8F)cc7)c(C(N)=O)c6N)C5)cc4F)CC3)ccc2CC1C(=O)NC1CCCc2ccccc21)C(C)(C)C

> <Shape>
0.316

> <Color>
0.105

> <Negative vol penalty>
0.000

$$$$

  -OEChem-04042320513D

 82 90  0     1  0  0  0  0  0999 V2000
  -17.7884  -32.9572   22.0745 C   0  0  0  0  0  0  0  0  0  0  0  0
  -19.0679  -33.0660   21.5393 C   0  0  0  0  0  0  0  0  0  0  0  0
  -23.0494  -13.0811   20.9633 C   0  0  0  0  0  0  0  0  0  0  0  0
  -23.3095  -14.7257   22.7139 C   0  0  0  0  0  0  0  0  0  0  0  0
  -17.5254  -32.0090   23.0622 C   0  0  0  0  0  0  0  0  0  0  0  0
  -20.0855  -32.2273   21.9923 C   0  0  0  0  0  0  0  0  0  0  0  0
  -25.9928  -28.8798   19.7086 C   0  0  0  0  0  0  0  0  0  0  0  0
  -30.7187  -21.5213   19.2402 C   0  0  0  0  0  0  0  0  0  0  0  0
  -22.3650  -12.2476   21.8479 C   0  0  0  0  0  0  0  0  0  0  0  0
  -22.6251  -13.8922   23.5986 C   0  0  0  0  0  0  0  0  0  0  0  0
  -27.3401  -28.7304   20.0343 C   0  0  0  0  0  0  0  0  0  0  0  0
  -31.0304  -22.8750   19.3659 C   0  0  0  0  0  0  0  0  0  0  0  0
  -19.2524  -12.0144   23.1479 C   0  0  0  0  0  0  0  0  0  0  0  0
  -18.0840  -11.4044   22.6914 C   0  0  0  0  0  0  0  0  0  0  0  0
  -26.7506  -27.0760   21.6880 C   0  0  0  0  0  0  0  0  0  0  0  0
  -28.3985  -22.0891   18.8780 C   0  0  0  0  0  0  0  0  0  0  0  0
  -19.0627   -9.2317   23.0901 C   0  0  0  0  0  0  0  0  0  0  0  0
  -23.5217  -14.3201   21.3963 C   0  0  0  0  0  0  0  0  0  0  0  0
  -23.6765  -16.1650   19.6413 C   0  0  0  0  0  0  0  0  0  0  0  0
  -18.5381  -31.1516   23.5207 C   0  0  0  0  0  0  0  0  0  0  0  0
  -25.0116  -28.1352   20.3788 C   0  0  0  0  0  0  0  0  0  0  0  0
  -19.8362  -31.2675   22.9881 C   0  0  0  0  0  0  0  0  0  0  0  0
  -25.3917  -27.2160   21.3671 C   0  0  0  0  0  0  0  0  0  0  0  0
  -29.4028  -21.1283   18.9962 C   0  0  0  0  0  0  0  0  0  0  0  0
  -22.1529  -12.6532   23.1656 C   0  0  0  0  0  0  0  0  0  0  0  0
  -27.7190  -27.8305   21.0261 C   0  0  0  0  0  0  0  0  0  0  0  0
  -20.3259  -11.2331   23.5754 C   0  0  0  0  0  0  0  0  0  0  0  0
  -30.0261  -23.8358   19.2478 C   0  0  0  0  0  0  0  0  0  0  0  0
  -17.9891  -10.0130   22.6625 C   0  0  0  0  0  0  0  0  0  0  0  0
  -28.7101  -23.4429   19.0038 C   0  0  0  0  0  0  0  0  0  0  0  0
  -20.2311   -9.8418   23.5465 C   0  0  0  0  0  0  0  0  0  0  0  0
  -24.2292  -15.1813   20.4831 C   0  0  0  0  0  0  0  0  0  0  0  0
  -24.7565  -16.6982   18.9811 C   0  0  0  0  0  0  0  0  0  0  0  0
  -22.3091  -16.5615   19.4714 C   0  0  0  0  0  0  0  0  0  0  0  0
  -22.5237  -28.8496   22.2236 C   0  0  0  0  0  0  0  0  0  0  0  0
  -21.9611  -25.6608   22.0310 C   0  0  0  0  0  0  0  0  0  0  0  0
  -23.2027  -22.5268   21.4987 C   0  0  0  0  0  0  0  0  0  0  0  0
  -29.9627  -18.6724   18.9586 C   0  0  0  0  0  0  0  0  0  0  0  0
  -18.2175  -30.1742   24.6236 C   0  0  0  0  0  0  0  0  0  0  0  0
  -23.5648  -28.2885   19.9972 C   0  0  0  0  0  0  0  0  0  0  0  0
  -24.3790  -26.3779   22.1023 C   0  0  0  0  0  0  0  0  0  0  0  0
  -19.2605  -29.0708   24.7819 C   0  0  0  0  0  0  0  0  0  0  0  0
  -29.5667  -15.1408   18.7393 C   0  0  0  0  0  0  0  0  0  0  0  0
  -20.6673  -29.6603   24.7690 C   0  0  0  0  0  0  0  0  0  0  0  0
  -28.0973  -14.9174   19.1042 C   0  0  0  0  0  0  0  0  0  0  0  0
  -30.1886  -16.2712   19.5572 C   0  0  0  0  0  0  0  0  0  0  0  0
  -27.9828  -17.3179   19.8864 C   0  0  0  0  0  0  0  0  0  0  0  0
  -20.9606  -30.3590   23.4358 C   0  0  1  0  0  0  0  0  0  0  0  0
  -22.6063  -27.8538   21.1015 C   0  0  1  0  0  0  0  0  0  0  0  0
  -27.2952  -16.2321   19.0426 C   0  0  2  0  0  0  0  0  0  0  0  0
  -22.5085  -20.1158   21.4447 C   0  0  0  0  0  0  0  0  0  0  0  0
  -21.8853  -25.6167   25.0810 C   0  0  0  0  0  0  0  0  0  0  0  0
  -22.1454  -23.1286   24.9821 C   0  0  0  0  0  0  0  0  0  0  0  0
  -20.1375  -24.2120   23.9736 C   0  0  0  0  0  0  0  0  0  0  0  0
  -23.9756  -22.2477   18.6556 C   0  0  0  0  0  0  0  0  0  0  0  0
  -31.2263  -27.0652   20.5521 C   0  0  0  0  0  0  0  0  0  0  0  0
  -29.9844  -27.9077   20.3065 C   0  0  0  0  0  0  0  0  0  1  0  0
  -30.9048  -25.5799   20.6049 C   0  0  0  0  0  0  0  0  0  0  0  0
  -22.3801  -24.4510   22.8310 C   0  0  1  0  0  0  0  0  0  0  0  0
  -22.7121  -21.3832   20.6292 C   0  0  2  0  0  0  0  0  0  0  0  0
  -21.6562  -24.3691   24.2046 C   0  0  0  0  0  0  0  0  0  0  0  0
  -25.5571  -15.0925   20.3698 N   0  0  0  0  0  0  0  0  0  0  0  0
  -25.8478  -16.0273   19.4491 N   0  0  0  0  0  0  0  0  0  0  0  0
  -22.9764  -26.5685   21.6976 N   0  0  0  0  0  0  0  0  0  0  0  0
  -29.3772  -17.4856   19.4479 N   0  0  0  0  0  0  0  0  0  0  0  0
  -24.8695  -17.6707   18.0517 N   0  0  0  0  0  0  0  0  0  0  0  0
  -21.3257  -15.9102   20.2283 N   0  0  0  0  0  0  0  0  0  0  0  0
  -29.0861  -19.7531   18.8684 N   0  0  0  0  0  0  0  0  0  0  0  0
  -21.2630  -29.3839   22.4100 N   0  0  0  0  0  0  0  0  0  0  0  0
  -22.1587  -23.2950   21.9691 N   0  0  0  0  0  0  0  0  0  0  0  0
  -23.6976  -21.0940   19.5493 N   0  3  0  0  0  0  0  0  0  0  0  0
  -21.9678  -17.4552   18.6600 O   0  0  0  0  0  0  0  0  0  0  0  0
  -23.5289  -29.1126   22.8733 O   0  0  0  0  0  0  0  0  0  0  0  0
  -20.7780  -25.7917   21.7075 O   0  0  0  0  0  0  0  0  0  0  0  0
  -24.3927  -22.7171   21.7399 O   0  0  0  0  0  0  0  0  0  0  0  0
  -31.1473  -18.7188   18.6172 O   0  0  0  0  0  0  0  0  0  0  0  0
  -21.4849  -11.8402   24.0290 O   0  0  0  0  0  0  0  0  0  0  0  0
  -29.0334  -27.6831   21.3464 O   0  0  0  0  0  0  0  0  0  1  0  0
  -30.3344  -25.1657   19.3709 O   0  0  0  0  0  0  0  0  0  0  0  0
  -16.8665   -9.4274   22.2256 F   0  0  0  0  0  0  0  0  0  0  0  0
  -27.7413  -24.3614   18.8881 F   0  0  0  0  0  0  0  0  0  0  0  0
  -21.2587   -9.0859   23.9571 F   0  0  0  0  0  0  0  0  0  0  0  0
  1  2  1  0  0  0  0
  1  5  2  0  0  0  0
  2  6  2  0  0  0  0
  3  9  2  0  0  0  0
  3 18  1  0  0  0  0
  4 10  1  0  0  0  0
  4 18  2  0  0  0  0
  5 20  1  0  0  0  0
  6 22  1  0  0  0  0
  7 11  2  0  0  0  0
  7 21  1  0  0  0  0
  8 12  2  0  0  0  0
  8 24  1  0  0  0  0
  9 25  1  0  0  0  0
 10 25  2  0  0  0  0
 11 26  1  0  0  0  0
 12 28  1  0  0  0  0
 13 14  2  0  0  0  0
 13 27  1  0  0  0  0
 14 29  1  0  0  0  0
 15 23  1  0  0  0  0
 15 26  2  0  0  0  0
 16 24  2  0  0  0  0
 16 30  1  0  0  0  0
 17 29  2  0  0  0  0
 17 31  1  0  0  0  0
 18 32  1  0  0  0  0
 19 32  1  0  0  0  0
 19 33  2  0  0  0  0
 19 34  1  0  0  0  0
 20 22  2  0  0  0  0
 20 39  1  0  0  0  0
 21 23  2  0  0  0  0
 21 40  1  0  0  0  0
 22 48  1  0  0  0  0
 23 41  1  0  0  0  0
 24 68  1  0  0  0  0
 25 77  1  0  0  0  0
 26 78  1  0  0  0  0
 27 31  2  0  0  0  0
 27 77  1  0  0  0  0
 28 30  2  0  0  0  0
 28 79  1  0  0  0  0
 29 80  1  0  0  0  0
 30 81  1  0  0  0  0
 31 82  1  0  0  0  0
 32 62  2  0  0  0  0
 33 63  1  0  0  0  0
 33 66  1  0  0  0  0
 34 67  1  0  0  0  0
 34 72  2  0  0  0  0
 35 49  1  0  0  0  0
 35 69  1  0  0  0  0
 35 73  2  0  0  0  0
 36 59  1  0  0  0  0
 36 64  1  0  0  0  0
 36 74  2  0  0  0  0
 37 60  1  0  0  0  0
 37 70  1  0  0  0  0
 37 75  2  0  0  0  0
 38 65  1  0  0  0  0
 38 68  1  0  0  0  0
 38 76  2  0  0  0  0
 39 42  1  0  0  0  0
 40 49  1  0  0  0  0
 41 64  1  0  0  0  0
 42 44  1  0  0  0  0
 43 45  1  0  0  0  0
 43 46  1  0  0  0  0
 44 48  1  0  0  0  0
 45 50  1  0  0  0  0
 46 65  1  0  0  0  0
 47 50  1  0  0  0  0
 47 65  1  0  0  0  0
 48 69  1  0  0  0  0
 49 64  1  0  0  0  0
 50 63  1  0  0  0  0
 51 60  1  0  0  0  0
 52 61  1  0  0  0  0
 53 61  1  0  0  0  0
 54 61  1  0  0  0  0
 55 71  1  0  0  0  0
 56 57  1  0  0  0  0
 56 58  1  0  0  0  0
 57 78  1  0  0  0  0
 58 79  1  0  0  0  0
 59 61  1  0  0  0  0
 59 70  1  0  0  0  0
 60 71  1  0  0  0  0
 62 63  1  0  0  0  0
M  CHG  1  71   1
M  ISO  4  38 100  57 101  68 100  78 101
M  END
> <Batch ID>
0014

> <Smiles>
CNC(C)C(=O)NC(C(=O)N1Cc2cc([101O:1][101CH2:1]CCOc3ccc([100NH:0][100C:0](=O)N4CCCC(n5nc(-c6ccc(Oc7ccc(F)cc7F)cc6)c(C(N)=O)c5N)C4)cc3F)ccc2CC1C(=O)NC1CCCc2ccccc21)C(C)(C)C

> <Shape>
0.201

> <Color>
0.083

> <Negative vol penalty>
0.000

$$$$

  -OEChem-04042320513D

 84 92  0     1  0  0  0  0  0999 V2000
  -31.4117  -25.2780   17.9801 C   0  0  0  0  0  0  0  0  0  0  0  0
  -30.0428  -25.0640   18.1056 C   0  0  0  0  0  0  0  0  0  0  0  0
  -27.6033  -14.9229   19.6942 C   0  0  0  0  0  0  0  0  0  0  0  0
  -25.2192  -15.2125   19.4309 C   0  0  0  0  0  0  0  0  0  0  0  0
  -32.0966  -25.9955   18.9598 C   0  0  0  0  0  0  0  0  0  0  0  0
  -29.3582  -25.5664   19.2117 C   0  0  0  0  0  0  0  0  0  0  0  0
  -23.6171  -27.6949   19.3328 C   0  0  0  0  0  0  0  0  0  0  0  0
  -21.3136  -23.8392   23.6472 C   0  0  0  0  0  0  0  0  0  0  0  0
  -22.5701  -23.5233   23.1304 C   0  0  0  0  0  0  0  0  0  0  0  0
  -27.3997  -13.5985   20.0816 C   0  0  0  0  0  0  0  0  0  0  0  0
  -25.0155  -13.8881   19.8182 C   0  0  0  0  0  0  0  0  0  0  0  0
  -22.4090  -27.1135   19.7153 C   0  0  0  0  0  0  0  0  0  0  0  0
  -24.9357  -12.1188   22.6982 C   0  0  0  0  0  0  0  0  0  0  0  0
  -23.9190  -11.8616   23.6179 C   0  0  0  0  0  0  0  0  0  0  0  0
  -22.6303  -28.1072   21.9023 C   0  0  0  0  0  0  0  0  0  0  0  0
  -20.2697  -22.5036   21.9257 C   0  0  0  0  0  0  0  0  0  0  0  0
  -22.8235  -10.4325   22.0072 C   0  0  0  0  0  0  0  0  0  0  0  0
  -26.5131  -15.7299   19.3689 C   0  0  0  0  0  0  0  0  0  0  0  0
  -26.9255  -17.5807   17.6624 C   0  0  0  0  0  0  0  0  0  0  0  0
  -31.4184  -26.5153   20.0736 C   0  0  0  0  0  0  0  0  0  0  0  0
  -24.3475  -28.4792   20.2372 C   0  0  0  0  0  0  0  0  0  0  0  0
  -30.0350  -26.2904   20.2079 C   0  0  0  0  0  0  0  0  0  0  0  0
  -23.8461  -28.6995   21.5280 C   0  0  0  0  0  0  0  0  0  0  0  0
  -20.1634  -23.3293   23.0449 C   0  0  0  0  0  0  0  0  0  0  0  0
  -22.6764  -22.6977   22.0112 C   0  0  0  0  0  0  0  0  0  0  0  0
  -26.1058  -13.0810   20.1436 C   0  0  0  0  0  0  0  0  0  0  0  0
  -21.9169  -27.3172   21.0012 C   0  0  0  0  0  0  0  0  0  0  0  0
  -24.8962  -11.5329   21.4329 C   0  0  0  0  0  0  0  0  0  0  0  0
  -22.8629  -11.0184   23.2724 C   0  0  0  0  0  0  0  0  0  0  0  0
  -21.5262  -22.1878   21.4088 C   0  0  0  0  0  0  0  0  0  0  0  0
  -23.8401  -10.6897   21.0875 C   0  0  0  0  0  0  0  0  0  0  0  0
  -26.7228  -17.0983   18.9693 C   0  0  0  0  0  0  0  0  0  0  0  0
  -27.0725  -18.9376   17.8161 C   0  0  0  0  0  0  0  0  0  0  0  0
  -26.9763  -16.8661   16.4204 C   0  0  0  0  0  0  0  0  0  0  0  0
  -27.2298  -28.2778   21.5621 C   0  0  0  0  0  0  0  0  0  0  0  0
  -26.4719  -31.2096   22.7250 C   0  0  0  0  0  0  0  0  0  0  0  0
  -24.0413  -33.4440   23.5895 C   0  0  0  0  0  0  0  0  0  0  0  0
  -25.1930  -22.8028   21.9674 C   0  0  0  0  0  0  0  0  0  0  0  0
  -32.2100  -27.2439   21.1306 C   0  0  0  0  0  0  0  0  0  0  0  0
  -25.6357  -29.1213   19.8005 C   0  0  0  0  0  0  0  0  0  0  0  0
  -24.5818  -29.5498   22.5301 C   0  0  0  0  0  0  0  0  0  0  0  0
  -31.3437  -28.0641   22.0830 C   0  0  0  0  0  0  0  0  0  0  0  0
  -28.5622  -22.2079   20.9816 C   0  0  0  0  0  0  0  0  0  0  0  0
  -30.1488  -27.2437   22.5583 C   0  0  0  0  0  0  0  0  0  0  0  0
  -28.4903  -20.8770   20.2295 C   0  0  0  0  0  0  0  0  0  0  0  0
  -27.6046  -22.2394   22.1715 C   0  0  0  0  0  0  0  0  0  0  0  0
  -26.1386  -20.5723   21.1034 C   0  0  0  0  0  0  0  0  0  0  0  0
  -29.2529  -26.8408   21.3807 C   0  0  1  0  0  0  0  0  0  0  0  0
  -26.5506  -29.4791   20.9676 C   0  0  1  0  0  0  0  0  0  0  0  0
  -27.0383  -20.5174   19.8579 C   0  0  2  0  0  0  0  0  0  0  0  0
  -23.7288  -35.7425   24.5468 C   0  0  0  0  0  0  0  0  0  0  0  0
  -27.1253  -30.1376   25.5060 C   0  0  0  0  0  0  0  0  0  0  0  0
  -25.9137  -32.1039   26.4725 C   0  0  0  0  0  0  0  0  0  0  0  0
  -27.9421  -32.4597   25.0647 C   0  0  0  0  0  0  0  0  0  0  0  0
  -22.6759  -34.4027   21.1450 C   0  0  0  0  0  0  0  0  0  0  0  0
  -17.5189  -25.5153   24.6597 C   0  0  0  0  0  0  0  0  0  0  0  0
  -18.8118  -23.6698   23.6000 C   0  0  0  0  0  0  0  0  0  0  0  0
  -18.4917  -27.1351   22.1242 C   0  0  0  0  0  0  0  0  0  0  0  0
  -18.1504  -25.6583   22.2550 C   0  0  0  0  0  0  0  0  0  0  0  0
  -19.9654  -27.4465   22.3543 C   0  0  0  0  0  0  0  0  0  1  0  0
  -25.7865  -31.7220   23.9687 C   0  0  1  0  0  0  0  0  0  0  0  0
  -23.8720  -34.9196   23.2759 C   0  0  2  0  0  0  0  0  0  0  0  0
  -26.6787  -31.5881   25.2349 C   0  0  0  0  0  0  0  0  0  0  0  0
  -26.7391  -18.0698   19.8858 N   0  0  0  0  0  0  0  0  0  0  0  0
  -26.9539  -19.1761   19.1537 N   0  0  0  0  0  0  0  0  0  0  0  0
  -25.8400  -30.1508   22.0576 N   0  0  0  0  0  0  0  0  0  0  0  0
  -26.2477  -21.8928   21.7430 N   0  0  0  0  0  0  0  0  0  0  0  0
  -27.2905  -19.9380   16.9363 N   0  0  0  0  0  0  0  0  0  0  0  0
  -26.8057  -15.4751   16.4424 N   0  0  0  0  0  0  0  0  0  0  0  0
  -23.9540  -22.3789   21.4880 N   0  0  0  0  0  0  0  0  0  0  0  0
  -28.4336  -27.9584   20.9635 N   0  0  0  0  0  0  0  0  0  0  0  0
  -25.3711  -33.0887   23.6722 N   0  0  0  0  0  0  0  0  0  0  0  0
  -22.6590  -35.1351   22.4374 N   0  3  0  0  0  0  0  0  0  0  0  0
  -18.5269  -25.1525   23.5959 N   0  3  1  0  0  0  0  0  0  0  0  0
  -27.1837  -17.4419   15.3255 O   0  0  0  0  0  0  0  0  0  0  0  0
  -26.7015  -27.6855   22.4958 O   0  0  0  0  0  0  0  0  0  0  0  0
  -27.5252  -31.7344   22.3553 O   0  0  0  0  0  0  0  0  0  0  0  0
  -23.0892  -32.6833   23.7490 O   0  0  0  0  0  0  0  0  0  0  0  0
  -25.3805  -23.8907   22.5181 O   0  0  0  0  0  0  0  0  0  0  0  0
  -25.9067  -11.7887   20.5213 O   0  0  0  0  0  0  0  0  0  0  0  0
  -20.7383  -26.7504   21.3774 O   0  0  0  0  0  0  0  0  0  1  0  0
  -21.8875  -10.7703   24.1562 F   0  0  0  0  0  0  0  0  0  0  0  0
  -21.6164  -21.3945   20.3318 F   0  0  0  0  0  0  0  0  0  0  0  0
  -23.7974  -10.1230   19.8739 F   0  0  0  0  0  0  0  0  0  0  0  0
  1  2  1  0  0  0  0
  1  5  2  0  0  0  0
  2  6  2  0  0  0  0
  3 10  2  0  0  0  0
  3 18  1  0  0  0  0
  4 11  1  0  0  0  0
  4 18  2  0  0  0  0
  5 20  1  0  0  0  0
  6 22  1  0  0  0  0
  7 12  2  0  0  0  0
  7 21  1  0  0  0  0
  8  9  2  0  0  0  0
  8 24  1  0  0  0  0
  9 25  1  0  0  0  0
 10 26  1  0  0  0  0
 11 26  2  0  0  0  0
 12 27  1  0  0  0  0
 13 14  2  0  0  0  0
 13 28  1  0  0  0  0
 14 29  1  0  0  0  0
 15 23  1  0  0  0  0
 15 27  2  0  0  0  0
 16 24  2  0  0  0  0
 16 30  1  0  0  0  0
 17 29  2  0  0  0  0
 17 31  1  0  0  0  0
 18 32  1  0  0  0  0
 19 32  1  0  0  0  0
 19 33  2  0  0  0  0
 19 34  1  0  0  0  0
 20 22  2  0  0  0  0
 20 39  1  0  0  0  0
 21 23  2  0  0  0  0
 21 40  1  0  0  0  0
 22 48  1  0  0  0  0
 23 41  1  0  0  0  0
 24 57  1  0  0  0  0
 25 30  2  0  0  0  0
 25 70  1  0  0  0  0
 26 80  1  0  0  0  0
 27 81  1  0  0  0  0
 28 31  2  0  0  0  0
 28 80  1  0  0  0  0
 29 82  1  0  0  0  0
 30 83  1  0  0  0  0
 31 84  1  0  0  0  0
 32 64  2  0  0  0  0
 33 65  1  0  0  0  0
 33 68  1  0  0  0  0
 34 69  1  0  0  0  0
 34 75  2  0  0  0  0
 35 49  1  0  0  0  0
 35 71  1  0  0  0  0
 35 76  2  0  0  0  0
 36 61  1  0  0  0  0
 36 66  1  0  0  0  0
 36 77  2  0  0  0  0
 37 62  1  0  0  0  0
 37 72  1  0  0  0  0
 37 78  2  0  0  0  0
 38 67  1  0  0  0  0
 38 70  1  0  0  0  0
 38 79  2  0  0  0  0
 39 42  1  0  0  0  0
 40 49  1  0  0  0  0
 41 66  1  0  0  0  0
 42 44  1  0  0  0  0
 43 45  1  0  0  0  0
 43 46  1  0  0  0  0
 44 48  1  0  0  0  0
 45 50  1  0  0  0  0
 46 67  1  0  0  0  0
 47 50  1  0  0  0  0
 47 67  1  0  0  0  0
 48 71  1  0  0  0  0
 49 66  1  0  0  0  0
 50 65  1  0  0  0  0
 51 62  1  0  0  0  0
 52 63  1  0  0  0  0
 53 63  1  0  0  0  0
 54 63  1  0  0  0  0
 55 73  1  0  0  0  0
 56 74  1  0  0  0  0
 57 74  1  0  0  0  0
 58 59  1  0  0  0  0
 58 60  1  0  0  0  0
 59 74  1  0  0  0  0
 60 81  1  0  0  0  0
 61 63  1  0  0  0  0
 61 72  1  0  0  0  0
 62 73  1  0  0  0  0
 64 65  1  0  0  0  0
M  CHG  2  73   1  74   1
M  ISO  4  38 100  60 101  70 100  81 101
M  END
> <Batch ID>
0014

> <Smiles>
CNC(C)C(=O)NC(C(=O)N1Cc2cc([101O:1][101CH2:1]CCN(C)Cc3ccc([100NH:0][100C:0](=O)N4CCCC(n5nc(-c6ccc(Oc7ccc(F)cc7F)cc6)c(C(N)=O)c5N)C4)c(F)c3)ccc2CC1C(=O)NC1CCCc2ccccc21)C(C)(C)C

> <Shape>
0.274

> <Color>
0.062

> <Negative vol penalty>
0.000

$$$$

  -OEChem-04042320513D

 86 95  0     1  0  0  0  0  0999 V2000
  -16.9935  -29.0320   24.3191 C   0  0  0  0  0  0  0  0  0  0  0  0
  -17.6128  -28.0502   23.5523 C   0  0  0  0  0  0  0  0  0  0  0  0
  -28.5638  -19.6673   18.8488 C   0  0  0  0  0  0  0  0  0  0  0  0
  -29.2903  -20.1186   21.1084 C   0  0  0  0  0  0  0  0  0  0  0  0
  -17.4272  -30.3546   24.2386 C   0  0  0  0  0  0  0  0  0  0  0  0
  -18.6654  -28.3908   22.7035 C   0  0  0  0  0  0  0  0  0  0  0  0
  -22.5361  -25.1395   23.0079 C   0  0  0  0  0  0  0  0  0  0  0  0
  -22.8992  -15.1062   20.6872 C   0  0  0  0  0  0  0  0  0  0  0  0
  -23.8088  -14.0593   20.5381 C   0  0  0  0  0  0  0  0  0  0  0  0
  -28.1677  -20.9975   18.7105 C   0  0  0  0  0  0  0  0  0  0  0  0
  -28.8942  -21.4489   20.9700 C   0  0  0  0  0  0  0  0  0  0  0  0
  -22.4002  -23.9235   22.3396 C   0  0  0  0  0  0  0  0  0  0  0  0
  -29.6363  -23.9854   18.1205 C   0  0  0  0  0  0  0  0  0  0  0  0
  -29.9866  -24.6470   16.9436 C   0  0  0  0  0  0  0  0  0  0  0  0
  -23.7420  -24.7772   20.5258 C   0  0  0  0  0  0  0  0  0  0  0  0
  -23.4431  -15.8948   18.4693 C   0  0  0  0  0  0  0  0  0  0  0  0
  -27.6496  -25.0237   16.4599 C   0  0  0  0  0  0  0  0  0  0  0  0
  -29.1251  -19.2278   20.0478 C   0  0  0  0  0  0  0  0  0  0  0  0
  -30.7969  -17.3070   19.8949 C   0  0  0  0  0  0  0  0  0  0  0  0
  -18.4920  -30.7099   23.3956 C   0  0  0  0  0  0  0  0  0  0  0  0
  -23.2680  -26.1891   22.4342 C   0  0  0  0  0  0  0  0  0  0  0  0
  -19.1129  -29.7196   22.6106 C   0  0  0  0  0  0  0  0  0  0  0  0
  -23.8878  -26.0047   21.1900 C   0  0  0  0  0  0  0  0  0  0  0  0
  -22.7163  -16.0239   19.6528 C   0  0  0  0  0  0  0  0  0  0  0  0
  -24.5356  -13.9302   19.3546 C   0  0  0  0  0  0  0  0  0  0  0  0
  -28.3329  -21.8883   19.7710 C   0  0  0  0  0  0  0  0  0  0  0  0
  -23.0008  -23.7432   21.0971 C   0  0  0  0  0  0  0  0  0  0  0  0
  -28.2927  -23.8429   18.4671 C   0  0  0  0  0  0  0  0  0  0  0  0
  -28.9933  -25.1662   16.1133 C   0  0  0  0  0  0  0  0  0  0  0  0
  -24.3528  -14.8479   18.3201 C   0  0  0  0  0  0  0  0  0  0  0  0
  -27.2994  -24.3621   17.6368 C   0  0  0  0  0  0  0  0  0  0  0  0
  -29.5340  -17.8536   20.1916 C   0  0  0  0  0  0  0  0  0  0  0  0
  -30.6746  -15.9738   20.2014 C   0  0  0  0  0  0  0  0  0  0  0  0
  -22.3823  -19.5870   19.4092 C   0  0  0  0  0  0  0  0  0  0  0  0
  -31.9753  -17.9472   19.3877 C   0  0  0  0  0  0  0  0  0  0  0  0
  -22.5820  -29.1417   21.4776 C   0  0  0  0  0  0  0  0  0  0  0  0
  -25.7881  -29.3194   21.0171 C   0  0  0  0  0  0  0  0  0  0  0  0
  -28.7291  -27.6828   20.4527 C   0  0  0  0  0  0  0  0  0  0  0  0
  -26.1542  -12.3036   20.3166 C   0  0  0  0  0  0  0  0  0  0  0  0
  -18.8946  -32.1607   23.3067 C   0  0  0  0  0  0  0  0  0  0  0  0
  -23.4275  -27.4855   23.1800 C   0  0  0  0  0  0  0  0  0  0  0  0
  -24.7012  -27.0931   20.5402 C   0  0  0  0  0  0  0  0  0  0  0  0
  -20.2623  -32.3749   22.6636 C   0  0  0  0  0  0  0  0  0  0  0  0
  -28.2965  -12.9861   23.0712 C   0  0  0  0  0  0  0  0  0  0  0  0
  -20.3900  -31.5437   21.3910 C   0  0  0  0  0  0  0  0  0  0  0  0
  -28.9766  -14.2762   22.6143 C   0  0  0  0  0  0  0  0  0  0  0  0
  -26.8164  -12.9528   22.6886 C   0  0  0  0  0  0  0  0  0  0  0  0
  -23.2068  -18.8205   21.1836 C   0  0  0  0  0  0  0  0  0  0  0  0
  -27.2424  -14.4846   20.7922 C   0  0  0  0  0  0  0  0  0  0  0  0
  -20.2742  -30.0455   21.6967 C   0  0  1  0  0  0  0  0  0  0  0  0
  -23.3017  -20.2059   20.4887 C   0  0  2  0  0  0  0  0  0  0  0  0
  -23.7657  -28.6613   22.2687 C   0  0  1  0  0  0  0  0  0  0  0  0
  -28.7448  -14.5207   21.1128 C   0  0  1  0  0  0  0  0  0  0  0  0
  -31.1760  -28.0995   20.0837 C   0  0  0  0  0  0  0  0  0  0  0  0
  -25.2019  -30.2165   18.1603 C   0  0  0  0  0  0  0  0  0  0  0  0
  -27.5829  -29.6999   17.5837 C   0  0  0  0  0  0  0  0  0  0  0  0
  -27.0646  -31.4533   19.2807 C   0  0  0  0  0  0  0  0  0  0  0  0
  -25.5417  -12.1503   17.9131 C   0  0  0  0  0  0  0  0  0  0  0  0
  -29.4741  -26.1432   22.8680 C   0  0  0  0  0  0  0  0  0  0  0  0
  -21.7381  -17.1515   19.8136 C   0  0  0  0  0  0  0  0  0  0  0  0
  -22.7215  -21.3859   21.2438 C   0  0  0  0  0  0  0  0  0  1  0  0
  -26.7216  -29.0186   19.8695 C   0  0  1  0  0  0  0  0  0  0  0  0
  -30.0923  -27.8056   21.1093 C   0  0  2  0  0  0  0  0  0  0  0  0
  -26.6259  -30.0770   18.7346 C   0  0  0  0  0  0  0  0  0  0  0  0
  -28.6726  -16.9421   20.6511 N   0  0  0  0  0  0  0  0  0  0  0  0
  -29.3956  -15.8092   20.6454 N   0  0  0  0  0  0  0  0  0  0  0  0
  -22.3946  -18.3995   20.0544 N   0  0  0  0  0  0  0  0  0  0  0  0
  -24.8226  -28.3446   21.3060 N   0  0  0  0  0  0  0  0  0  0  0  0
  -26.6422  -13.2314   21.2561 N   0  0  0  0  0  0  0  0  0  0  0  0
  -31.5374  -14.9379   20.1317 N   0  0  0  0  0  0  0  0  0  0  0  0
  -31.9283  -19.3235   19.1271 N   0  0  0  0  0  0  0  0  0  0  0  0
  -21.5130  -29.5462   22.2541 N   0  0  0  0  0  0  0  0  0  0  0  0
  -28.0530  -28.8845   20.4508 N   0  0  0  0  0  0  0  0  0  0  0  0
  -25.4770  -12.8457   19.2031 N   0  0  0  0  0  0  0  0  0  0  0  0
  -30.4434  -26.5406   21.8146 N   0  3  0  0  0  0  0  0  0  0  0  0
  -21.8432  -19.9697   18.3964 O   0  0  0  0  0  0  0  0  0  0  0  0
  -33.0334  -17.3144   19.1564 O   0  0  0  0  0  0  0  0  0  0  0  0
  -22.6353  -29.1464   20.2533 O   0  0  0  0  0  0  0  0  0  0  0  0
  -25.9155  -30.3771   21.6391 O   0  0  0  0  0  0  0  0  0  0  0  0
  -28.3078  -26.6273   19.9847 O   0  0  0  0  0  0  0  0  0  0  0  0
  -26.3326  -11.0867   20.4485 O   0  0  0  0  0  0  0  0  0  0  0  0
  -27.9466  -23.1865   19.6363 O   0  0  0  0  0  0  0  0  0  0  0  0
  -22.8692  -22.5574   20.4424 O   0  0  0  0  0  0  0  0  0  1  0  0
  -29.3298  -25.8029   14.9839 F   0  0  0  0  0  0  0  0  0  0  0  0
  -25.0470  -14.7344   17.1788 F   0  0  0  0  0  0  0  0  0  0  0  0
  -26.0070  -24.2293   17.9651 F   0  0  0  0  0  0  0  0  0  0  0  0
  1  2  1  0  0  0  0
  1  5  2  0  0  0  0
  2  6  2  0  0  0  0
  3 10  2  0  0  0  0
  3 18  1  0  0  0  0
  4 11  1  0  0  0  0
  4 18  2  0  0  0  0
  5 20  1  0  0  0  0
  6 22  1  0  0  0  0
  7 12  2  0  0  0  0
  7 21  1  0  0  0  0
  8  9  2  0  0  0  0
  8 24  1  0  0  0  0
  9 25  1  0  0  0  0
 10 26  1  0  0  0  0
 11 26  2  0  0  0  0
 12 27  1  0  0  0  0
 13 14  2  0  0  0  0
 13 28  1  0  0  0  0
 14 29  1  0  0  0  0
 15 23  1  0  0  0  0
 15 27  2  0  0  0  0
 16 24  2  0  0  0  0
 16 30  1  0  0  0  0
 17 29  2  0  0  0  0
 17 31  1  0  0  0  0
 18 32  1  0  0  0  0
 19 32  1  0  0  0  0
 19 33  2  0  0  0  0
 19 35  1  0  0  0  0
 20 22  2  0  0  0  0
 20 40  1  0  0  0  0
 21 23  2  0  0  0  0
 21 41  1  0  0  0  0
 22 50  1  0  0  0  0
 23 42  1  0  0  0  0
 24 60  1  0  0  0  0
 25 30  2  0  0  0  0
 25 74  1  0  0  0  0
 26 82  1  0  0  0  0
 27 83  1  0  0  0  0
 28 31  2  0  0  0  0
 28 82  1  0  0  0  0
 29 84  1  0  0  0  0
 30 85  1  0  0  0  0
 31 86  1  0  0  0  0
 32 65  2  0  0  0  0
 33 66  1  0  0  0  0
 33 70  1  0  0  0  0
 34 51  1  0  0  0  0
 34 67  1  0  0  0  0
 34 76  2  0  0  0  0
 35 71  1  0  0  0  0
 35 77  2  0  0  0  0
 36 52  1  0  0  0  0
 36 72  1  0  0  0  0
 36 78  2  0  0  0  0
 37 62  1  0  0  0  0
 37 68  1  0  0  0  0
 37 79  2  0  0  0  0
 38 63  1  0  0  0  0
 38 73  1  0  0  0  0
 38 80  2  0  0  0  0
 39 69  1  0  0  0  0
 39 74  1  0  0  0  0
 39 81  2  0  0  0  0
 40 43  1  0  0  0  0
 41 52  1  0  0  0  0
 42 68  1  0  0  0  0
 43 45  1  0  0  0  0
 44 46  1  0  0  0  0
 44 47  1  0  0  0  0
 45 50  1  0  0  0  0
 46 53  1  0  0  0  0
 47 69  1  0  0  0  0
 48 51  1  0  0  0  0
 48 67  1  0  0  0  0
 49 53  1  0  0  0  0
 49 69  1  0  0  0  0
 50 72  1  0  0  0  0
 51 61  1  0  0  0  0
 52 68  1  0  0  0  0
 53 66  1  0  0  0  0
 54 63  1  0  0  0  0
 55 64  1  0  0  0  0
 56 64  1  0  0  0  0
 57 64  1  0  0  0  0
 58 74  1  0  0  0  0
 59 75  1  0  0  0  0
 60 67  1  0  0  0  0
 61 83  1  0  0  0  0
 62 64  1  0  0  0  0
 62 73  1  0  0  0  0
 63 75  1  0  0  0  0
 65 66  1  0  0  0  0
M  CHG  1  75   1
M  ISO  4  39 100  61 101  74 100  83 101
M  END
> <Batch ID>
0014

> <Smiles>
CNC(C)C(=O)NC(C(=O)N1Cc2cc([101O:1][101CH2:1]C3CN(Cc4ccc([100N:0](C)[100C:0](=O)N5CCCC(n6nc(-c7ccc(Oc8ccc(F)cc8F)cc7)c(C(N)=O)c6N)C5)c(F)c4)C3=O)ccc2CC1C(=O)NC1CCCc2ccccc21)C(C)(C)C

> <Shape>
0.242

> <Color>
0.090

> <Negative vol penalty>
0.000

$$$$

  -OEChem-04042320513D

 85 93  0     1  0  0  0  0  0999 V2000
  -20.3107  -25.9664   14.5195 C   0  0  0  0  0  0  0  0  0  0  0  0
  -20.3373  -26.8790   15.5692 C   0  0  0  0  0  0  0  0  0  0  0  0
  -25.1161  -15.0989   20.2405 C   0  0  0  0  0  0  0  0  0  0  0  0
  -22.8120  -14.6666   20.8248 C   0  0  0  0  0  0  0  0  0  0  0  0
  -21.0540  -24.7896   14.6014 C   0  0  0  0  0  0  0  0  0  0  0  0
  -21.1065  -26.6149   16.7019 C   0  0  0  0  0  0  0  0  0  0  0  0
  -24.1067  -30.6931   20.1476 C   0  0  0  0  0  0  0  0  0  0  0  0
  -20.8058  -28.4054   22.0140 C   0  0  0  0  0  0  0  0  0  0  0  0
  -20.7016  -27.2250   21.2783 C   0  0  0  0  0  0  0  0  0  0  0  0
  -25.4832  -13.8636   20.7743 C   0  0  0  0  0  0  0  0  0  0  0  0
  -23.1791  -13.4313   21.3585 C   0  0  0  0  0  0  0  0  0  0  0  0
  -23.7894  -31.3158   21.3539 C   0  0  0  0  0  0  0  0  0  0  0  0
  -23.9325  -10.3458   20.2042 C   0  0  0  0  0  0  0  0  0  0  0  0
  -23.1424   -9.2421   19.8829 C   0  0  0  0  0  0  0  0  0  0  0  0
  -25.0620  -29.6469   22.5432 C   0  0  0  0  0  0  0  0  0  0  0  0
  -18.7232  -27.8954   23.1274 C   0  0  0  0  0  0  0  0  0  0  0  0
  -22.6639   -8.9025   22.2266 C   0  0  0  0  0  0  0  0  0  0  0  0
  -23.7805  -15.5004   20.2658 C   0  0  0  0  0  0  0  0  0  0  0  0
  -23.0132  -17.0490   18.3894 C   0  0  0  0  0  0  0  0  0  0  0  0
  -21.8403  -24.5155   15.7316 C   0  0  0  0  0  0  0  0  0  0  0  0
  -24.8963  -29.5344   20.1308 C   0  0  0  0  0  0  0  0  0  0  0  0
  -21.8600  -25.4328   16.7996 C   0  0  0  0  0  0  0  0  0  0  0  0
  -25.3900  -29.0128   21.3351 C   0  0  0  0  0  0  0  0  0  0  0  0
  -19.8166  -28.7406   22.9387 C   0  0  0  0  0  0  0  0  0  0  0  0
  -19.6081  -26.3798   21.4670 C   0  0  0  0  0  0  0  0  0  0  0  0
  -24.5147  -13.0298   21.3333 C   0  0  0  0  0  0  0  0  0  0  0  0
  -24.2647  -30.7911   22.5522 C   0  0  0  0  0  0  0  0  0  0  0  0
  -24.0884  -10.7278   21.5367 C   0  0  0  0  0  0  0  0  0  0  0  0
  -22.5081   -8.5205   20.8941 C   0  0  0  0  0  0  0  0  0  0  0  0
  -18.6189  -26.7150   22.3915 C   0  0  0  0  0  0  0  0  0  0  0  0
  -23.4540  -10.0062   22.5479 C   0  0  0  0  0  0  0  0  0  0  0  0
  -23.4007  -16.7766   19.7151 C   0  0  0  0  0  0  0  0  0  0  0  0
  -22.7562  -18.3982   18.3772 C   0  0  0  0  0  0  0  0  0  0  0  0
  -22.8961  -16.1618   17.2692 C   0  0  0  0  0  0  0  0  0  0  0  0
  -24.4503  -26.5294   19.1955 C   0  0  0  0  0  0  0  0  0  0  0  0
  -27.6091  -26.2578   19.8813 C   0  0  0  0  0  0  0  0  0  0  0  0
  -30.3054  -27.4149   21.6243 C   0  0  0  0  0  0  0  0  0  0  0  0
  -20.4184  -22.8154   20.6066 C   0  0  0  0  0  0  0  0  0  0  0  0
  -22.5896  -23.2081   15.7948 C   0  0  0  0  0  0  0  0  0  0  0  0
  -25.2518  -28.8899   18.8190 C   0  0  0  0  0  0  0  0  0  0  0  0
  -26.2582  -27.7826   21.3697 C   0  0  0  0  0  0  0  0  0  0  0  0
  -23.6735  -23.1787   16.8693 C   0  0  0  0  0  0  0  0  0  0  0  0
  -23.7160  -21.9664   21.8324 C   0  0  0  0  0  0  0  0  0  0  0  0
  -23.1355  -23.7305   18.1856 C   0  0  0  0  0  0  0  0  0  0  0  0
  -23.8930  -20.5528   21.2751 C   0  0  0  0  0  0  0  0  0  0  0  0
  -22.2757  -22.2105   22.2731 C   0  0  0  0  0  0  0  0  0  0  0  0
  -21.4323  -20.5544   20.6546 C   0  0  0  0  0  0  0  0  0  0  0  0
  -22.7016  -25.1935   18.0343 C   0  0  1  0  0  0  0  0  0  0  0  0
  -25.6370  -27.4205   18.9603 C   0  0  1  0  0  0  0  0  0  0  0  0
  -22.8623  -20.2528   20.1706 C   0  0  2  0  0  0  0  0  0  0  0  0
  -32.7445  -26.9656   22.0065 C   0  0  0  0  0  0  0  0  0  0  0  0
  -26.8908  -23.8858   21.6610 C   0  0  0  0  0  0  0  0  0  0  0  0
  -29.1492  -24.0877   22.7227 C   0  0  0  0  0  0  0  0  0  0  0  0
  -28.9584  -23.5725   20.2894 C   0  0  0  0  0  0  0  0  0  0  0  0
  -31.0775  -30.0759   20.5840 C   0  0  0  0  0  0  0  0  0  0  0  0
  -20.4488  -29.1019   25.9892 C   0  0  0  0  0  0  0  0  0  0  0  0
  -19.4987  -25.1189   20.6779 C   0  0  0  0  0  0  0  0  0  0  0  0
  -19.9285  -30.0104   23.7299 C   0  0  0  0  0  0  0  0  0  0  0  0
  -22.8434  -31.1618   25.8432 C   0  0  0  0  0  0  0  0  0  0  0  0
  -21.4432  -31.2646   25.2574 C   0  0  0  0  0  0  0  0  0  0  0  0
  -23.8661  -30.5626   24.8857 C   0  0  0  0  0  0  0  0  0  1  0  0
  -28.4094  -25.8999   21.1103 C   0  0  1  0  0  0  0  0  0  0  0  0
  -31.7227  -27.7398   21.1883 C   0  0  2  0  0  0  0  0  0  0  0  0
  -28.3340  -24.3835   21.4457 C   0  0  0  0  0  0  0  0  0  0  0  0
  -23.3921  -17.8653   20.4889 N   0  0  0  0  0  0  0  0  0  0  0  0
  -22.9963  -18.8349   19.6468 N   0  0  0  0  0  0  0  0  0  0  0  0
  -26.5729  -27.1849   20.0616 N   0  0  0  0  0  0  0  0  0  0  0  0
  -21.3467  -21.9246   21.1706 N   0  0  0  0  0  0  0  0  0  0  0  0
  -22.3505  -19.2417   17.4044 N   0  0  0  0  0  0  0  0  0  0  0  0
  -23.1986  -14.8062   17.4561 N   0  0  0  0  0  0  0  0  0  0  0  0
  -23.8563  -26.0660   18.0371 N   0  0  0  0  0  0  0  0  0  0  0  0
  -29.7620  -26.3932   20.8746 N   0  0  0  0  0  0  0  0  0  0  0  0
  -20.3960  -24.0910   21.1569 N   0  0  0  0  0  0  0  0  0  0  0  0
  -31.9945  -29.1958   21.3532 N   0  3  0  0  0  0  0  0  0  0  0  0
  -20.9556  -29.9311   24.8337 N   0  3  1  0  0  0  0  0  0  0  0  0
  -22.5497  -16.5625   16.1321 O   0  0  0  0  0  0  0  0  0  0  0  0
  -24.1004  -26.2795   20.3430 O   0  0  0  0  0  0  0  0  0  0  0  0
  -27.8976  -25.7395   18.7997 O   0  0  0  0  0  0  0  0  0  0  0  0
  -29.7384  -28.0058   22.5408 O   0  0  0  0  0  0  0  0  0  0  0  0
  -19.6681  -22.4988   19.6771 O   0  0  0  0  0  0  0  0  0  0  0  0
  -24.8725  -11.8242   21.8540 O   0  0  0  0  0  0  0  0  0  0  0  0
  -23.9559  -31.3966   23.7312 O   0  0  0  0  0  0  0  0  0  1  0  0
  -21.7481   -7.4616   20.5853 F   0  0  0  0  0  0  0  0  0  0  0  0
  -17.5641  -25.9094   22.5789 F   0  0  0  0  0  0  0  0  0  0  0  0
  -23.5990  -10.3691   23.8297 F   0  0  0  0  0  0  0  0  0  0  0  0
  1  2  1  0  0  0  0
  1  5  2  0  0  0  0
  2  6  2  0  0  0  0
  3 10  2  0  0  0  0
  3 18  1  0  0  0  0
  4 11  1  0  0  0  0
  4 18  2  0  0  0  0
  5 20  1  0  0  0  0
  6 22  1  0  0  0  0
  7 12  2  0  0  0  0
  7 21  1  0  0  0  0
  8  9  2  0  0  0  0
  8 24  1  0  0  0  0
  9 25  1  0  0  0  0
 10 26  1  0  0  0  0
 11 26  2  0  0  0  0
 12 27  1  0  0  0  0
 13 14  2  0  0  0  0
 13 28  1  0  0  0  0
 14 29  1  0  0  0  0
 15 23  1  0  0  0  0
 15 27  2  0  0  0  0
 16 24  2  0  0  0  0
 16 30  1  0  0  0  0
 17 29  2  0  0  0  0
 17 31  1  0  0  0  0
 18 32  1  0  0  0  0
 19 32  1  0  0  0  0
 19 33  2  0  0  0  0
 19 34  1  0  0  0  0
 20 22  2  0  0  0  0
 20 39  1  0  0  0  0
 21 23  2  0  0  0  0
 21 40  1  0  0  0  0
 22 48  1  0  0  0  0
 23 41  1  0  0  0  0
 24 58  1  0  0  0  0
 25 30  2  0  0  0  0
 25 57  1  0  0  0  0
 26 81  1  0  0  0  0
 27 82  1  0  0  0  0
 28 31  2  0  0  0  0
 28 81  1  0  0  0  0
 29 83  1  0  0  0  0
 30 84  1  0  0  0  0
 31 85  1  0  0  0  0
 32 65  2  0  0  0  0
 33 66  1  0  0  0  0
 33 69  1  0  0  0  0
 34 70  1  0  0  0  0
 34 76  2  0  0  0  0
 35 49  1  0  0  0  0
 35 71  1  0  0  0  0
 35 77  2  0  0  0  0
 36 62  1  0  0  0  0
 36 67  1  0  0  0  0
 36 78  2  0  0  0  0
 37 63  1  0  0  0  0
 37 72  1  0  0  0  0
 37 79  2  0  0  0  0
 38 68  1  0  0  0  0
 38 73  1  0  0  0  0
 38 80  2  0  0  0  0
 39 42  1  0  0  0  0
 40 49  1  0  0  0  0
 41 67  1  0  0  0  0
 42 44  1  0  0  0  0
 43 45  1  0  0  0  0
 43 46  1  0  0  0  0
 44 48  1  0  0  0  0
 45 50  1  0  0  0  0
 46 68  1  0  0  0  0
 47 50  1  0  0  0  0
 47 68  1  0  0  0  0
 48 71  1  0  0  0  0
 49 67  1  0  0  0  0
 50 66  1  0  0  0  0
 51 63  1  0  0  0  0
 52 64  1  0  0  0  0
 53 64  1  0  0  0  0
 54 64  1  0  0  0  0
 55 74  1  0  0  0  0
 56 75  1  0  0  0  0
 57 73  1  0  0  0  0
 58 75  1  0  0  0  0
 59 60  1  0  0  0  0
 59 61  1  0  0  0  0
 60 75  1  0  0  0  0
 61 82  1  0  0  0  0
 62 64  1  0  0  0  0
 62 72  1  0  0  0  0
 63 74  1  0  0  0  0
 65 66  1  0  0  0  0
M  CHG  2  74   1  75   1
M  ISO  4  38 100  61 101  73 100  82 101
M  END
> <Batch ID>
0014

> <Smiles>
CNC(C)C(=O)NC(C(=O)N1Cc2cc([101O:1][101CH2:1]CCN(C)Cc3ccc(C[100NH:0][100C:0](=O)N4CCCC(n5nc(-c6ccc(Oc7ccc(F)cc7F)cc6)c(C(N)=O)c5N)C4)c(F)c3)ccc2CC1C(=O)NC1CCCc2ccccc21)C(C)(C)C

> <Shape>
0.213

> <Color>
0.076

> <Negative vol penalty>
0.000

$$$$

  -OEChem-04042320513D

 85 93  0     1  0  0  0  0  0999 V2000
  -23.8380  -23.5026   18.3016 C   0  0  0  0  0  0  0  0  0  0  0  0
  -24.7674  -22.5878   18.7862 C   0  0  0  0  0  0  0  0  0  0  0  0
  -32.8309  -16.6050   25.6091 C   0  0  0  0  0  0  0  0  0  0  0  0
  -26.0022  -27.6658   18.9665 C   0  0  0  0  0  0  0  0  0  0  0  0
  -26.6972  -28.4517   21.1428 C   0  0  0  0  0  0  0  0  0  0  0  0
  -22.5127  -23.4416   18.7303 C   0  0  0  0  0  0  0  0  0  0  0  0
  -24.3722  -21.6122   19.7008 C   0  0  0  0  0  0  0  0  0  0  0  0
  -26.2148  -17.0321   18.5729 C   0  0  0  0  0  0  0  0  0  0  0  0
  -32.9149  -17.9626   25.3001 C   0  0  0  0  0  0  0  0  0  0  0  0
  -32.7366  -15.6614   24.5860 C   0  0  0  0  0  0  0  0  0  0  0  0
  -24.9017  -28.5218   19.0088 C   0  0  0  0  0  0  0  0  0  0  0  0
  -25.5967  -29.3078   21.1851 C   0  0  0  0  0  0  0  0  0  0  0  0
  -27.5483  -16.7849   18.8964 C   0  0  0  0  0  0  0  0  0  0  0  0
  -22.7744  -31.4383   22.0249 C   0  0  0  0  0  0  0  0  0  0  0  0
  -22.0411  -31.4934   23.2102 C   0  0  0  0  0  0  0  0  0  0  0  0
  -26.8424  -15.6054   20.8788 C   0  0  0  0  0  0  0  0  0  0  0  0
  -32.8102  -17.4332   22.9452 C   0  0  0  0  0  0  0  0  0  0  0  0
  -21.5519  -29.1353   23.0173 C   0  0  0  0  0  0  0  0  0  0  0  0
  -26.8999  -27.6307   20.0336 C   0  0  0  0  0  0  0  0  0  0  0  0
  -29.3168  -27.0314   19.4792 C   0  0  0  0  0  0  0  0  0  0  0  0
  -22.0989  -22.4587   19.6431 C   0  0  0  0  0  0  0  0  0  0  0  0
  -25.1838  -16.5764   19.4071 C   0  0  0  0  0  0  0  0  0  0  0  0
  -23.0404  -21.5388   20.1431 C   0  0  0  0  0  0  0  0  0  0  0  0
  -25.4967  -15.8459   20.5623 C   0  0  0  0  0  0  0  0  0  0  0  0
  -32.9046  -18.3767   23.9682 C   0  0  0  0  0  0  0  0  0  0  0  0
  -32.7262  -16.0755   23.2541 C   0  0  0  0  0  0  0  0  0  0  0  0
  -24.6990  -29.3428   20.1181 C   0  0  0  0  0  0  0  0  0  0  0  0
  -27.8624  -16.0739   20.0509 C   0  0  0  0  0  0  0  0  0  0  0  0
  -22.8964  -30.2316   21.3358 C   0  0  0  0  0  0  0  0  0  0  0  0
  -21.4299  -30.3420   23.7064 C   0  0  0  0  0  0  0  0  0  0  0  0
  -22.2851  -29.0802   21.8319 C   0  0  0  0  0  0  0  0  0  0  0  0
  -28.0366  -26.7463   19.9907 C   0  0  0  0  0  0  0  0  0  0  0  0
  -30.0291  -25.8728   19.6710 C   0  0  0  0  0  0  0  0  0  0  0  0
  -29.8173  -28.2359   18.8838 C   0  0  0  0  0  0  0  0  0  0  0  0
  -22.8880  -17.9742   21.1038 C   0  0  0  0  0  0  0  0  0  0  0  0
  -21.9391  -14.9144   21.6133 C   0  0  0  0  0  0  0  0  0  0  0  0
  -32.0085  -15.4088   20.9614 C   0  0  0  0  0  0  0  0  0  0  0  0
  -22.7701  -11.6069   21.7435 C   0  0  0  0  0  0  0  0  0  0  0  0
  -31.5746  -21.7146   22.8754 C   0  0  0  0  0  0  0  0  0  0  0  0
  -20.6660  -22.4619   20.1135 C   0  0  0  0  0  0  0  0  0  0  0  0
  -23.7496  -16.8282   19.0301 C   0  0  0  0  0  0  0  0  0  0  0  0
  -24.4261  -15.3174   21.4806 C   0  0  0  0  0  0  0  0  0  0  0  0
  -20.2467  -21.1636   20.7982 C   0  0  0  0  0  0  0  0  0  0  0  0
  -28.4942  -21.2491   21.0336 C   0  0  0  0  0  0  0  0  0  0  0  0
  -21.3037  -20.7269   21.8075 C   0  0  0  0  0  0  0  0  0  0  0  0
  -28.2082  -22.6734   20.5544 C   0  0  0  0  0  0  0  0  0  0  0  0
  -29.0878  -21.2476   22.4393 C   0  0  0  0  0  0  0  0  0  0  0  0
  -30.0340  -23.4994   22.1113 C   0  0  0  0  0  0  0  0  0  0  0  0
  -22.6448  -20.4504   21.1172 C   0  0  1  0  0  0  0  0  0  0  0  0
  -22.7983  -16.7617   20.2209 C   0  0  1  0  0  0  0  0  0  0  0  0
  -29.4534  -23.5700   20.6872 C   0  0  2  0  0  0  0  0  0  0  0  0
  -34.7388  -13.8712   22.0453 C   0  0  0  0  0  0  0  0  0  0  0  0
  -21.7904   -9.3471   22.2234 C   0  0  0  0  0  0  0  0  0  0  0  0
  -22.0006  -15.5251   24.6021 C   0  0  0  0  0  0  0  0  0  0  0  0
  -21.9559  -13.0597   25.0360 C   0  0  0  0  0  0  0  0  0  0  0  0
  -20.0474  -14.1519   23.8579 C   0  0  0  0  0  0  0  0  0  0  0  0
  -23.3708  -10.6382   19.0123 C   0  0  0  0  0  0  0  0  0  0  0  0
  -32.9945  -19.8282   23.6385 C   0  0  0  0  0  0  0  0  0  0  0  0
  -31.3202  -16.7723   20.8914 C   0  0  0  0  0  0  0  0  0  0  0  0
  -33.2987  -13.8060   22.4256 C   0  0  0  0  0  0  0  0  0  0  0  0
  -30.1259  -16.7956   19.9446 C   0  0  0  0  0  0  0  0  0  1  0  0
  -22.2469  -13.8576   22.6464 C   0  0  1  0  0  0  0  0  0  0  0  0
  -22.1062  -10.3774   21.1504 C   0  0  2  0  0  0  0  0  0  0  0  0
  -21.5832  -14.1601   24.0195 C   0  0  0  0  0  0  0  0  0  0  0  0
  -27.9383  -25.5039   20.4713 N   0  0  0  0  0  0  0  0  0  0  0  0
  -29.1658  -24.9981   20.2625 N   0  0  0  0  0  0  0  0  0  0  0  0
  -23.0391  -15.5949   21.0723 N   0  0  0  0  0  0  0  0  0  0  0  0
  -30.2804  -22.1049   22.4932 N   0  0  0  0  0  0  0  0  0  0  0  0
  -31.3034  -25.5271   19.3897 N   0  0  0  0  0  0  0  0  0  0  0  0
  -28.9517  -29.3316   18.7638 N   0  0  0  0  0  0  0  0  0  0  0  0
  -22.6167  -19.1638   20.4552 N   0  0  0  0  0  0  0  0  0  0  0  0
  -21.8487  -12.5833   22.0581 N   0  0  0  0  0  0  0  0  0  0  0  0
  -31.7217  -20.3789   23.2288 N   0  0  0  0  0  0  0  0  0  0  0  0
  -32.6289  -15.0949   22.1915 N   0  0  0  0  0  0  0  0  0  0  0  0
  -22.9985   -9.7440   20.1388 N   0  3  0  0  0  0  0  0  0  0  0  0
  -30.9925  -28.3321   18.4557 O   0  0  0  0  0  0  0  0  0  0  0  0
  -23.1801  -17.8403   22.2864 O   0  0  0  0  0  0  0  0  0  0  0  0
  -20.7664  -15.1233   21.2927 O   0  0  0  0  0  0  0  0  0  0  0  0
  -31.9643  -14.6581   19.9836 O   0  0  0  0  0  0  0  0  0  0  0  0
  -23.9843  -11.6912   21.9144 O   0  0  0  0  0  0  0  0  0  0  0  0
  -32.5303  -22.4978   22.8950 O   0  0  0  0  0  0  0  0  0  0  0  0
  -23.6253  -30.1783   20.1596 O   0  0  0  0  0  0  0  0  0  0  0  0
  -29.1631  -15.8318   20.3694 O   0  0  0  0  0  0  0  0  0  1  0  0
  -20.7270  -30.3948   24.8454 F   0  0  0  0  0  0  0  0  0  0  0  0
  -22.3998  -27.9179   21.1749 F   0  0  0  0  0  0  0  0  0  0  0  0
  1  2  1  0  0  0  0
  1  6  2  0  0  0  0
  2  7  2  0  0  0  0
  3  9  1  0  0  0  0
  3 10  2  0  0  0  0
  4 11  2  0  0  0  0
  4 19  1  0  0  0  0
  5 12  1  0  0  0  0
  5 19  2  0  0  0  0
  6 21  1  0  0  0  0
  7 23  1  0  0  0  0
  8 13  2  0  0  0  0
  8 22  1  0  0  0  0
  9 25  2  0  0  0  0
 10 26  1  0  0  0  0
 11 27  1  0  0  0  0
 12 27  2  0  0  0  0
 13 28  1  0  0  0  0
 14 15  2  0  0  0  0
 14 29  1  0  0  0  0
 15 30  1  0  0  0  0
 16 24  1  0  0  0  0
 16 28  2  0  0  0  0
 17 25  1  0  0  0  0
 17 26  2  0  0  0  0
 18 30  2  0  0  0  0
 18 31  1  0  0  0  0
 19 32  1  0  0  0  0
 20 32  1  0  0  0  0
 20 33  2  0  0  0  0
 20 34  1  0  0  0  0
 21 23  2  0  0  0  0
 21 40  1  0  0  0  0
 22 24  2  0  0  0  0
 22 41  1  0  0  0  0
 23 49  1  0  0  0  0
 24 42  1  0  0  0  0
 25 58  1  0  0  0  0
 26 74  1  0  0  0  0
 27 82  1  0  0  0  0
 28 83  1  0  0  0  0
 29 31  2  0  0  0  0
 29 82  1  0  0  0  0
 30 84  1  0  0  0  0
 31 85  1  0  0  0  0
 32 65  2  0  0  0  0
 33 66  1  0  0  0  0
 33 69  1  0  0  0  0
 34 70  1  0  0  0  0
 34 76  2  0  0  0  0
 35 50  1  0  0  0  0
 35 71  1  0  0  0  0
 35 77  2  0  0  0  0
 36 62  1  0  0  0  0
 36 67  1  0  0  0  0
 36 78  2  0  0  0  0
 37 59  1  0  0  0  0
 37 74  1  0  0  0  0
 37 79  2  0  0  0  0
 38 63  1  0  0  0  0
 38 72  1  0  0  0  0
 38 80  2  0  0  0  0
 39 68  1  0  0  0  0
 39 73  1  0  0  0  0
 39 81  2  0  0  0  0
 40 43  1  0  0  0  0
 41 50  1  0  0  0  0
 42 67  1  0  0  0  0
 43 45  1  0  0  0  0
 44 46  1  0  0  0  0
 44 47  1  0  0  0  0
 45 49  1  0  0  0  0
 46 51  1  0  0  0  0
 47 68  1  0  0  0  0
 48 51  1  0  0  0  0
 48 68  1  0  0  0  0
 49 71  1  0  0  0  0
 50 67  1  0  0  0  0
 51 66  1  0  0  0  0
 52 60  1  0  0  0  0
 53 63  1  0  0  0  0
 54 64  1  0  0  0  0
 55 64  1  0  0  0  0
 56 64  1  0  0  0  0
 57 75  1  0  0  0  0
 58 73  1  0  0  0  0
 59 61  1  0  0  0  0
 60 74  1  0  0  0  0
 61 83  1  0  0  0  0
 62 64  1  0  0  0  0
 62 72  1  0  0  0  0
 63 75  1  0  0  0  0
 65 66  1  0  0  0  0
M  CHG  1  75   1
M  ISO  4  39 100  61 101  73 100  83 101
M  END
> <Batch ID>
0014

> <Smiles>
CCN(C(=O)C[101CH2:1][101O:1]c1ccc2c(c1)CN(C(=O)C(NC(=O)C(C)NC)C(C)(C)C)C(C(=O)NC1CCCc3ccccc31)C2)c1cccc(C[100NH:0][100C:0](=O)N2CCCC(n3nc(-c4ccc(Oc5ccc(F)cc5F)cc4)c(C(N)=O)c3N)C2)c1

> <Shape>
0.201

> <Color>
0.072

> <Negative vol penalty>
0.000

$$$$

  -OEChem-04042320513D

 84 92  0     1  0  0  0  0  0999 V2000
  -25.6316  -11.0991   20.8948 C   0  0  0  0  0  0  0  0  0  0  0  0
  -26.6750  -11.9442   20.5309 C   0  0  0  0  0  0  0  0  0  0  0  0
  -20.2508  -26.9582   23.2986 C   0  0  0  0  0  0  0  0  0  0  0  0
  -20.3820  -28.7581   21.6924 C   0  0  0  0  0  0  0  0  0  0  0  0
  -24.3253  -11.5845   20.9374 C   0  0  0  0  0  0  0  0  0  0  0  0
  -26.4125  -13.2752   20.2082 C   0  0  0  0  0  0  0  0  0  0  0  0
  -29.3369  -19.8015   20.6224 C   0  0  0  0  0  0  0  0  0  0  0  0
  -30.7425  -30.2168   19.7237 C   0  0  0  0  0  0  0  0  0  0  0  0
  -31.1083  -29.2575   18.7796 C   0  0  0  0  0  0  0  0  0  0  0  0
  -18.8581  -27.0109   23.2439 C   0  0  0  0  0  0  0  0  0  0  0  0
  -18.9892  -28.8108   21.6376 C   0  0  0  0  0  0  0  0  0  0  0  0
  -29.6356  -20.9009   19.8187 C   0  0  0  0  0  0  0  0  0  0  0  0
  -16.4043  -25.9456   21.1758 C   0  0  0  0  0  0  0  0  0  0  0  0
  -15.7133  -24.7379   21.0774 C   0  0  0  0  0  0  0  0  0  0  0  0
  -27.3499  -21.6496   20.0038 C   0  0  0  0  0  0  0  0  0  0  0  0
  -30.8509  -27.5233   20.4420 C   0  0  0  0  0  0  0  0  0  0  0  0
  -14.5774  -25.2186   23.1548 C   0  0  0  0  0  0  0  0  0  0  0  0
  -21.0128  -27.8319   22.5229 C   0  0  0  0  0  0  0  0  0  0  0  0
  -23.3055  -26.9992   21.7758 C   0  0  0  0  0  0  0  0  0  0  0  0
  -24.0479  -12.9245   20.6245 C   0  0  0  0  0  0  0  0  0  0  0  0
  -28.0376  -19.6118   21.1147 C   0  0  0  0  0  0  0  0  0  0  0  0
  -25.1010  -13.7787   20.2454 C   0  0  0  0  0  0  0  0  0  0  0  0
  -27.0379  -20.5484   20.8156 C   0  0  0  0  0  0  0  0  0  0  0  0
  -30.4310  -29.8295   21.0271 C   0  0  0  0  0  0  0  0  0  0  0  0
  -31.1625  -27.9107   19.1387 C   0  0  0  0  0  0  0  0  0  0  0  0
  -18.2272  -27.9372   22.4134 C   0  0  0  0  0  0  0  0  0  0  0  0
  -28.6414  -21.8236   19.5069 C   0  0  0  0  0  0  0  0  0  0  0  0
  -16.1819  -26.7897   22.2638 C   0  0  0  0  0  0  0  0  0  0  0  0
  -14.7998  -24.3745   22.0669 C   0  0  0  0  0  0  0  0  0  0  0  0
  -15.2684  -26.4263   23.2533 C   0  0  0  0  0  0  0  0  0  0  0  0
  -30.4852  -28.4827   21.3862 C   0  0  0  0  0  0  0  0  0  0  0  0
  -22.4516  -27.7783   22.5794 C   0  0  0  0  0  0  0  0  0  0  0  0
  -24.5686  -27.3049   22.2202 C   0  0  0  0  0  0  0  0  0  0  0  0
  -22.9855  -26.0814   20.7218 C   0  0  0  0  0  0  0  0  0  0  0  0
  -25.8148  -17.3656   20.7720 C   0  0  0  0  0  0  0  0  0  0  0  0
  -24.2558  -19.1157   23.0146 C   0  0  0  0  0  0  0  0  0  0  0  0
  -23.8059  -22.1384   24.5337 C   0  0  0  0  0  0  0  0  0  0  0  0
  -28.3847  -31.0379   23.8474 C   0  0  0  0  0  0  0  0  0  0  0  0
  -22.6138  -13.3914   20.6388 C   0  0  0  0  0  0  0  0  0  0  0  0
  -27.7379  -18.4351   22.0023 C   0  0  0  0  0  0  0  0  0  0  0  0
  -25.6321  -20.4012   21.3358 C   0  0  0  0  0  0  0  0  0  0  0  0
  -22.4680  -14.9110   20.6453 C   0  0  0  0  0  0  0  0  0  0  0  0
  -26.0904  -29.8688   26.3064 C   0  0  0  0  0  0  0  0  0  0  0  0
  -23.3886  -15.5401   19.6044 C   0  0  0  0  0  0  0  0  0  0  0  0
  -25.0072  -29.1624   25.4894 C   0  0  0  0  0  0  0  0  0  0  0  0
  -26.6226  -31.1064   25.5872 C   0  0  0  0  0  0  0  0  0  0  0  0
  -26.0137  -30.1606   23.3944 C   0  0  0  0  0  0  0  0  0  0  0  0
  -24.8595  -15.2350   19.9124 C   0  0  1  0  0  0  0  0  0  0  0  0
  -26.2579  -18.0656   22.0255 C   0  0  1  0  0  0  0  0  0  0  0  0
  -25.4857  -28.8750   24.0536 C   0  0  2  0  0  0  0  0  0  0  0  0
  -22.4344  -23.2677   26.3060 C   0  0  0  0  0  0  0  0  0  0  0  0
  -21.8690  -19.1924   21.1153 C   0  0  0  0  0  0  0  0  0  0  0  0
  -20.9328  -21.0716   22.4792 C   0  0  0  0  0  0  0  0  0  0  0  0
  -21.2787  -18.8304   23.5184 C   0  0  0  0  0  0  0  0  0  0  0  0
  -31.8560  -27.3541   16.8215 C   0  0  0  0  0  0  0  0  0  0  0  0
  -26.2062  -22.7989   26.1340 C   0  0  0  0  0  0  0  0  0  0  0  0
  -30.0450  -30.8883   22.0089 C   0  0  0  0  0  0  0  0  0  0  0  0
  -30.2309  -24.8986   18.4741 C   0  0  0  0  0  0  0  0  0  0  0  0
  -31.6092  -25.5463   18.5302 C   0  0  0  0  0  0  0  0  0  0  0  0
  -30.2619  -23.4062   18.7822 C   0  0  0  0  0  0  0  0  0  1  0  0
  -23.2858  -20.2720   22.9843 C   0  0  1  0  0  0  0  0  0  0  0  0
  -23.7269  -22.5276   25.9988 C   0  0  2  0  0  0  0  0  0  0  0  0
  -21.8675  -19.8436   22.5127 C   0  0  0  0  0  0  0  0  0  0  0  0
  -23.1162  -28.5228   23.4671 N   0  0  0  0  0  0  0  0  0  0  0  0
  -24.4011  -28.2128   23.2241 N   0  0  0  0  0  0  0  0  0  0  0  0
  -25.3872  -19.2307   22.1945 N   0  0  0  0  0  0  0  0  0  0  0  0
  -27.0615  -30.7653   24.2318 N   0  0  0  0  0  0  0  0  0  0  0  0
  -25.7952  -26.8828   21.8464 N   0  0  0  0  0  0  0  0  0  0  0  0
  -21.6372  -25.8853   20.3930 N   0  0  0  0  0  0  0  0  0  0  0  0
  -25.3390  -16.0852   20.9810 N   0  0  0  0  0  0  0  0  0  0  0  0
  -23.3183  -20.8671   24.3159 N   0  0  0  0  0  0  0  0  0  0  0  0
  -28.7200  -30.6774   22.5480 N   0  0  0  0  0  0  0  0  0  0  0  0
  -31.5297  -26.9462   18.1894 N   0  0  3  0  0  0  0  0  0  0  0  0
  -24.8715  -23.4098   26.3629 N   0  3  0  0  0  0  0  0  0  0  0  0
  -23.8680  -25.4415   20.1013 O   0  0  0  0  0  0  0  0  0  0  0  0
  -25.8969  -17.9448   19.6953 O   0  0  0  0  0  0  0  0  0  0  0  0
  -24.0220  -18.1492   23.7446 O   0  0  0  0  0  0  0  0  0  0  0  0
  -24.2518  -22.8886   23.6683 O   0  0  0  0  0  0  0  0  0  0  0  0
  -29.2080  -31.5586   24.6077 O   0  0  0  0  0  0  0  0  0  0  0  0
  -16.8682  -27.9887   22.3596 O   0  0  0  0  0  0  0  0  0  0  0  0
  -28.9301  -22.8972   18.7221 O   0  0  0  0  0  0  0  0  0  1  0  0
  -14.1351  -23.2155   21.9715 F   0  0  0  0  0  0  0  0  0  0  0  0
  -15.0497  -27.2337   24.3002 F   0  0  0  0  0  0  0  0  0  0  0  0
  -30.1079  -27.9672   22.9896 Cl  0  0  0  0  0  0  0  0  0  0  0  0
  1  2  1  0  0  0  0
  1  5  2  0  0  0  0
  2  6  2  0  0  0  0
  3 10  2  0  0  0  0
  3 18  1  0  0  0  0
  4 11  1  0  0  0  0
  4 18  2  0  0  0  0
  5 20  1  0  0  0  0
  6 22  1  0  0  0  0
  7 12  2  0  0  0  0
  7 21  1  0  0  0  0
  8  9  2  0  0  0  0
  8 24  1  0  0  0  0
  9 25  1  0  0  0  0
 10 26  1  0  0  0  0
 11 26  2  0  0  0  0
 12 27  1  0  0  0  0
 13 14  2  0  0  0  0
 13 28  1  0  0  0  0
 14 29  1  0  0  0  0
 15 23  1  0  0  0  0
 15 27  2  0  0  0  0
 16 25  2  0  0  0  0
 16 31  1  0  0  0  0
 17 29  2  0  0  0  0
 17 30  1  0  0  0  0
 18 32  1  0  0  0  0
 19 32  1  0  0  0  0
 19 33  2  0  0  0  0
 19 34  1  0  0  0  0
 20 22  2  0  0  0  0
 20 39  1  0  0  0  0
 21 23  2  0  0  0  0
 21 40  1  0  0  0  0
 22 48  1  0  0  0  0
 23 41  1  0  0  0  0
 24 31  2  0  0  0  0
 24 57  1  0  0  0  0
 25 73  1  0  0  0  0
 26 80  1  0  0  0  0
 27 81  1  0  0  0  0
 28 30  2  0  0  0  0
 28 80  1  0  0  0  0
 29 82  1  0  0  0  0
 30 83  1  0  0  0  0
 31 84  1  0  0  0  0
 32 64  2  0  0  0  0
 33 65  1  0  0  0  0
 33 68  1  0  0  0  0
 34 69  1  0  0  0  0
 34 75  2  0  0  0  0
 35 49  1  0  0  0  0
 35 70  1  0  0  0  0
 35 76  2  0  0  0  0
 36 61  1  0  0  0  0
 36 66  1  0  0  0  0
 36 77  2  0  0  0  0
 37 62  1  0  0  0  0
 37 71  1  0  0  0  0
 37 78  2  0  0  0  0
 38 67  1  0  0  0  0
 38 72  1  0  0  0  0
 38 79  2  0  0  0  0
 39 42  1  0  0  0  0
 40 49  1  0  0  0  0
 41 66  1  0  0  0  0
 42 44  1  0  0  0  0
 43 45  1  0  0  0  0
 43 46  1  0  0  0  0
 44 48  1  0  0  0  0
 45 50  1  0  0  0  0
 46 67  1  0  0  0  0
 47 50  1  0  0  0  0
 47 67  1  0  0  0  0
 48 70  1  0  0  0  0
 49 66  1  0  0  0  0
 50 65  1  0  0  0  0
 51 62  1  0  0  0  0
 52 63  1  0  0  0  0
 53 63  1  0  0  0  0
 54 63  1  0  0  0  0
 55 73  1  0  0  0  0
 56 74  1  0  0  0  0
 57 72  1  0  0  0  0
 58 59  1  0  0  0  0
 58 60  1  0  0  0  0
 59 73  1  0  0  0  0
 60 81  1  0  0  0  0
 61 63  1  0  0  0  0
 61 71  1  0  0  0  0
 62 74  1  0  0  0  0
 64 65  1  0  0  0  0
M  CHG  1  74   1
M  ISO  4  38 100  60 101  72 100  81 101
M  END
> <Batch ID>
0014

> <Smiles>
CNC(C)C(=O)NC(C(=O)N1Cc2cc([101O:1][101CH2:1]CCN(C)c3ccc(C[100NH:0][100C:0](=O)N4CCCC(n5nc(-c6ccc(Oc7ccc(F)cc7F)cc6)c(C(N)=O)c5N)C4)c(Cl)c3)ccc2CC1C(=O)NC1CCCc2ccccc21)C(C)(C)C

> <Shape>
0.212

> <Color>
0.078

> <Negative vol penalty>
0.000

$$$$

  -OEChem-04042320513D

 83 91  0     1  0  0  0  0  0999 V2000
  -22.0028  -11.8184   20.3339 C   0  0  0  0  0  0  0  0  0  0  0  0
  -21.7846  -13.0191   21.0017 C   0  0  0  0  0  0  0  0  0  0  0  0
  -26.1054  -26.6802   21.5131 C   0  0  0  0  0  0  0  0  0  0  0  0
  -25.5679  -27.6380   19.3612 C   0  0  0  0  0  0  0  0  0  0  0  0
  -23.2965  -11.4525   19.9647 C   0  0  0  0  0  0  0  0  0  0  0  0
  -22.8602  -13.8542   21.3019 C   0  0  0  0  0  0  0  0  0  0  0  0
  -22.8521  -19.9776   21.3980 C   0  0  0  0  0  0  0  0  0  0  0  0
  -21.1604  -24.7933   27.2877 C   0  0  0  0  0  0  0  0  0  0  0  0
  -20.4066  -22.8460   26.0725 C   0  0  0  0  0  0  0  0  0  0  0  0
  -20.2143  -25.5740   26.6236 C   0  0  0  0  0  0  0  0  0  0  0  0
  -19.4606  -23.6267   25.4083 C   0  0  0  0  0  0  0  0  0  0  0  0
  -27.3961  -26.3987   21.0655 C   0  0  0  0  0  0  0  0  0  0  0  0
  -26.8587  -27.3566   18.9136 C   0  0  0  0  0  0  0  0  0  0  0  0
  -22.7371  -20.8992   22.4378 C   0  0  0  0  0  0  0  0  0  0  0  0
  -30.2897  -28.0818   20.5889 C   0  0  0  0  0  0  0  0  0  0  0  0
  -31.3520  -28.3888   21.4391 C   0  0  0  0  0  0  0  0  0  0  0  0
  -25.1406  -21.0821   22.5335 C   0  0  0  0  0  0  0  0  0  0  0  0
  -32.0089  -26.0639   21.4579 C   0  0  0  0  0  0  0  0  0  0  0  0
  -25.1912  -27.2998   20.6610 C   0  0  0  0  0  0  0  0  0  0  0  0
  -23.4148  -28.7666   21.7566 C   0  0  0  0  0  0  0  0  0  0  0  0
  -24.3874  -12.2880   20.2519 C   0  0  0  0  0  0  0  0  0  0  0  0
  -24.1147  -19.5924   20.9247 C   0  0  0  0  0  0  0  0  0  0  0  0
  -24.1699  -13.4985   20.9374 C   0  0  0  0  0  0  0  0  0  0  0  0
  -25.2688  -20.1573   21.4859 C   0  0  0  0  0  0  0  0  0  0  0  0
  -21.2566  -23.4293   27.0121 C   0  0  0  0  0  0  0  0  0  0  0  0
  -19.3644  -24.9907   25.6839 C   0  0  0  0  0  0  0  0  0  0  0  0
  -27.7728  -26.7369   19.7657 C   0  0  0  0  0  0  0  0  0  0  0  0
  -23.8815  -21.4494   23.0077 C   0  0  0  0  0  0  0  0  0  0  0  0
  -30.0869  -26.7658   20.1733 C   0  0  0  0  0  0  0  0  0  0  0  0
  -32.2117  -27.3799   21.8736 C   0  0  0  0  0  0  0  0  0  0  0  0
  -30.9465  -25.7568   20.6078 C   0  0  0  0  0  0  0  0  0  0  0  0
  -23.8576  -27.5903   21.1226 C   0  0  0  0  0  0  0  0  0  0  0  0
  -22.0794  -28.5481   21.9920 C   0  0  0  0  0  0  0  0  0  0  0  0
  -24.1454  -29.9510   22.1019 C   0  0  0  0  0  0  0  0  0  0  0  0
  -25.7166  -16.8506   20.7834 C   0  0  0  0  0  0  0  0  0  0  0  0
  -27.8482  -18.6324   19.1089 C   0  0  0  0  0  0  0  0  0  0  0  0
  -29.1279  -21.7176   18.4084 C   0  0  0  0  0  0  0  0  0  0  0  0
  -17.9637  -25.4818   23.6868 C   0  0  0  0  0  0  0  0  0  0  0  0
  -25.7733  -11.8278   19.8749 C   0  0  0  0  0  0  0  0  0  0  0  0
  -24.2210  -18.6173   19.7844 C   0  0  0  0  0  0  0  0  0  0  0  0
  -26.6470  -19.7923   21.0003 C   0  0  0  0  0  0  0  0  0  0  0  0
  -26.8134  -12.9449   19.8980 C   0  0  0  0  0  0  0  0  0  0  0  0
  -18.9834  -24.9223   20.3267 C   0  0  0  0  0  0  0  0  0  0  0  0
  -26.6831  -13.7693   21.1748 C   0  0  0  0  0  0  0  0  0  0  0  0
  -20.3216  -25.6595   20.2890 C   0  0  0  0  0  0  0  0  0  0  0  0
  -18.7731  -24.1851   21.6496 C   0  0  0  0  0  0  0  0  0  0  0  0
  -20.2677  -25.7804   22.8096 C   0  0  0  0  0  0  0  0  0  0  0  0
  -25.3080  -14.4427   21.2588 C   0  0  1  0  0  0  0  0  0  0  0  0
  -25.5713  -17.9096   19.7274 C   0  0  1  0  0  0  0  0  0  0  0  0
  -20.4809  -26.5779   21.5135 C   0  0  1  0  0  0  0  0  0  0  0  0
  -30.8891  -22.8526   17.0273 C   0  0  0  0  0  0  0  0  0  0  0  0
  -29.9909  -17.6744   21.0585 C   0  0  0  0  0  0  0  0  0  0  0  0
  -31.4632  -19.5276   20.2425 C   0  0  0  0  0  0  0  0  0  0  0  0
  -30.7144  -17.7456   18.6657 C   0  0  0  0  0  0  0  0  0  0  0  0
  -17.6511  -26.8118   25.7625 C   0  0  0  0  0  0  0  0  0  0  0  0
  -27.1124  -23.3033   16.9311 C   0  0  0  0  0  0  0  0  0  0  0  0
  -23.8410  -20.6814   27.4041 C   0  0  0  0  0  0  0  0  0  0  0  0
  -22.2742  -22.5897   27.7266 C   0  0  0  0  0  0  0  0  0  0  0  0
  -24.3027  -22.8703   26.3098 C   0  0  0  0  0  0  0  0  0  0  0  0
  -24.8342  -22.3854   24.9755 C   0  0  0  0  0  0  0  0  0  1  0  0
  -29.0505  -19.4737   19.4636 C   0  0  1  0  0  0  0  0  0  0  0  0
  -29.4373  -22.4043   17.0904 C   0  0  2  0  0  0  0  0  0  0  0  0
  -30.2790  -18.6110   19.8682 C   0  0  0  0  0  0  0  0  0  0  0  0
  -22.8826  -26.6910   20.9653 N   0  0  0  0  0  0  0  0  0  0  0  0
  -21.8139  -27.3025   21.5039 N   0  0  0  0  0  0  0  0  0  0  0  0
  -26.6989  -18.8298   19.8874 N   0  0  0  0  0  0  0  0  0  0  0  0
  -18.9752  -25.0913   22.7890 N   0  0  0  0  0  0  0  0  0  0  0  0
  -21.1182  -29.3018   22.5667 N   0  0  0  0  0  0  0  0  0  0  0  0
  -25.5100  -30.0096   21.7880 N   0  0  0  0  0  0  0  0  0  0  0  0
  -25.2609  -15.6046   20.3972 N   0  0  0  0  0  0  0  0  0  0  0  0
  -29.2862  -20.3507   18.3217 N   0  0  0  0  0  0  0  0  0  0  0  0
  -18.3847  -25.7986   24.9963 N   0  0  0  0  0  0  0  0  0  0  0  0
  -28.5677  -23.6015   16.9133 N   0  3  0  0  0  0  0  0  0  0  0  0
  -23.2587  -21.9312   26.7919 N   0  3  1  0  0  0  0  0  0  0  0  0
  -23.6077  -30.9219   22.6867 O   0  0  0  0  0  0  0  0  0  0  0  0
  -26.2074  -17.1421   21.8678 O   0  0  0  0  0  0  0  0  0  0  0  0
  -27.9237  -17.8348   18.1710 O   0  0  0  0  0  0  0  0  0  0  0  0
  -28.7840  -22.3328   19.4153 O   0  0  0  0  0  0  0  0  0  0  0  0
  -16.7798  -25.5664   23.3388 O   0  0  0  0  0  0  0  0  0  0  0  0
  -29.0322  -26.4626   19.3287 O   0  0  0  0  0  0  0  0  0  0  0  0
  -23.7721  -22.3487   24.0231 O   0  0  0  0  0  0  0  0  0  1  0  0
  -33.2327  -27.6752   22.6887 F   0  0  0  0  0  0  0  0  0  0  0  0
  -30.7575  -24.4909   20.2110 F   0  0  0  0  0  0  0  0  0  0  0  0
  1  2  1  0  0  0  0
  1  5  2  0  0  0  0
  2  6  2  0  0  0  0
  3 12  2  0  0  0  0
  3 19  1  0  0  0  0
  4 13  1  0  0  0  0
  4 19  2  0  0  0  0
  5 21  1  0  0  0  0
  6 23  1  0  0  0  0
  7 14  2  0  0  0  0
  7 22  1  0  0  0  0
  8 10  2  0  0  0  0
  8 25  1  0  0  0  0
  9 11  1  0  0  0  0
  9 25  2  0  0  0  0
 10 26  1  0  0  0  0
 11 26  2  0  0  0  0
 12 27  1  0  0  0  0
 13 27  2  0  0  0  0
 14 28  1  0  0  0  0
 15 16  2  0  0  0  0
 15 29  1  0  0  0  0
 16 30  1  0  0  0  0
 17 24  1  0  0  0  0
 17 28  2  0  0  0  0
 18 30  2  0  0  0  0
 18 31  1  0  0  0  0
 19 32  1  0  0  0  0
 20 32  1  0  0  0  0
 20 33  2  0  0  0  0
 20 34  1  0  0  0  0
 21 23  2  0  0  0  0
 21 39  1  0  0  0  0
 22 24  2  0  0  0  0
 22 40  1  0  0  0  0
 23 48  1  0  0  0  0
 24 41  1  0  0  0  0
 25 58  1  0  0  0  0
 26 72  1  0  0  0  0
 27 80  1  0  0  0  0
 28 81  1  0  0  0  0
 29 31  2  0  0  0  0
 29 80  1  0  0  0  0
 30 82  1  0  0  0  0
 31 83  1  0  0  0  0
 32 64  2  0  0  0  0
 33 65  1  0  0  0  0
 33 68  1  0  0  0  0
 34 69  1  0  0  0  0
 34 75  2  0  0  0  0
 35 49  1  0  0  0  0
 35 70  1  0  0  0  0
 35 76  2  0  0  0  0
 36 61  1  0  0  0  0
 36 66  1  0  0  0  0
 36 77  2  0  0  0  0
 37 62  1  0  0  0  0
 37 71  1  0  0  0  0
 37 78  2  0  0  0  0
 38 67  1  0  0  0  0
 38 72  1  0  0  0  0
 38 79  2  0  0  0  0
 39 42  1  0  0  0  0
 40 49  1  0  0  0  0
 41 66  1  0  0  0  0
 42 44  1  0  0  0  0
 43 45  1  0  0  0  0
 43 46  1  0  0  0  0
 44 48  1  0  0  0  0
 45 50  1  0  0  0  0
 46 67  1  0  0  0  0
 47 50  1  0  0  0  0
 47 67  1  0  0  0  0
 48 70  1  0  0  0  0
 49 66  1  0  0  0  0
 50 65  1  0  0  0  0
 51 62  1  0  0  0  0
 52 63  1  0  0  0  0
 53 63  1  0  0  0  0
 54 63  1  0  0  0  0
 55 72  1  0  0  0  0
 56 73  1  0  0  0  0
 57 74  1  0  0  0  0
 58 74  1  0  0  0  0
 59 60  1  0  0  0  0
 59 74  1  0  0  0  0
 60 81  1  0  0  0  0
 61 63  1  0  0  0  0
 61 71  1  0  0  0  0
 62 73  1  0  0  0  0
 64 65  1  0  0  0  0
M  CHG  2  73   1  74   1
M  ISO  4  38 100  60 101  72 100  81 101
M  END
> <Batch ID>
0014

> <Smiles>
CNC(C)C(=O)NC(C(=O)N1Cc2cc([101O:1][101CH2:1]CN(C)Cc3ccc([100N:0](C)[100C:0](=O)N4CCCC(n5nc(-c6ccc(Oc7ccc(F)cc7F)cc6)c(C(N)=O)c5N)C4)cc3)ccc2CC1C(=O)NC1CCCc2ccccc21)C(C)(C)C

> <Shape>
0.226

> <Color>
0.069

> <Negative vol penalty>
0.000

$$$$

  -OEChem-04042320513D

 86 94  0     1  0  0  0  0  0999 V2000
  -18.5737  -25.2602   19.9768 C   0  0  0  0  0  0  0  0  0  0  0  0
  -19.6550  -25.9239   19.4061 C   0  0  0  0  0  0  0  0  0  0  0  0
  -25.5477  -13.5785   19.4646 C   0  0  0  0  0  0  0  0  0  0  0  0
  -25.3223  -14.1096   21.8108 C   0  0  0  0  0  0  0  0  0  0  0  0
  -18.2491  -25.4806   21.3147 C   0  0  0  0  0  0  0  0  0  0  0  0
  -20.4117  -26.8094   20.1728 C   0  0  0  0  0  0  0  0  0  0  0  0
  -25.3932  -26.1892   19.5058 C   0  0  0  0  0  0  0  0  0  0  0  0
  -28.8354  -23.8504   20.3062 C   0  0  0  0  0  0  0  0  0  0  0  0
  -29.0658  -24.9886   19.5336 C   0  0  0  0  0  0  0  0  0  0  0  0
  -25.0088  -12.3136   19.6992 C   0  0  0  0  0  0  0  0  0  0  0  0
  -24.7833  -12.8446   22.0453 C   0  0  0  0  0  0  0  0  0  0  0  0
  -25.9522  -26.7262   18.3470 C   0  0  0  0  0  0  0  0  0  0  0  0
  -21.9471  -10.9592   20.1730 C   0  0  0  0  0  0  0  0  0  0  0  0
  -20.9752  -10.4942   19.2871 C   0  0  0  0  0  0  0  0  0  0  0  0
  -26.7326  -28.6267   19.6113 C   0  0  0  0  0  0  0  0  0  0  0  0
  -30.6590  -22.7242   19.1911 C   0  0  0  0  0  0  0  0  0  0  0  0
  -22.3827   -8.6107   18.7316 C   0  0  0  0  0  0  0  0  0  0  0  0
  -25.7045  -14.4766   20.5205 C   0  0  0  0  0  0  0  0  0  0  0  0
  -25.5610  -16.9579   19.9459 C   0  0  0  0  0  0  0  0  0  0  0  0
  -19.0081  -26.3620   22.1008 C   0  0  0  0  0  0  0  0  0  0  0  0
  -25.4905  -26.8733   20.7261 C   0  0  0  0  0  0  0  0  0  0  0  0
  -20.0961  -27.0429   21.5221 C   0  0  0  0  0  0  0  0  0  0  0  0
  -26.1762  -28.0950   20.7847 C   0  0  0  0  0  0  0  0  0  0  0  0
  -29.6320  -22.7182   20.1350 C   0  0  0  0  0  0  0  0  0  0  0  0
  -30.0927  -24.9946   18.5897 C   0  0  0  0  0  0  0  0  0  0  0  0
  -24.6266  -11.9466   20.9895 C   0  0  0  0  0  0  0  0  0  0  0  0
  -26.6195  -27.9465   18.3990 C   0  0  0  0  0  0  0  0  0  0  0  0
  -23.1368  -10.2499   20.3382 C   0  0  0  0  0  0  0  0  0  0  0  0
  -21.1930   -9.3199   18.5665 C   0  0  0  0  0  0  0  0  0  0  0  0
  -30.8894  -23.8624   18.4184 C   0  0  0  0  0  0  0  0  0  0  0  0
  -23.3546   -9.0757   19.6175 C   0  0  0  0  0  0  0  0  0  0  0  0
  -26.2617  -15.7832   20.2789 C   0  0  0  0  0  0  0  0  0  0  0  0
  -26.5367  -17.9167   19.8235 C   0  0  0  0  0  0  0  0  0  0  0  0
  -24.1538  -17.1639   19.7636 C   0  0  0  0  0  0  0  0  0  0  0  0
  -23.4014  -28.1288   22.7665 C   0  0  0  0  0  0  0  0  0  0  0  0
  -26.0515  -28.6232   24.5707 C   0  0  0  0  0  0  0  0  0  0  0  0
  -29.4376  -29.0302   24.6945 C   0  0  0  0  0  0  0  0  0  0  0  0
  -31.1824  -20.1978   22.1754 C   0  0  0  0  0  0  0  0  0  0  0  0
  -18.5900  -26.6040   23.5295 C   0  0  0  0  0  0  0  0  0  0  0  0
  -24.9053  -26.2677   21.9723 C   0  0  0  0  0  0  0  0  0  0  0  0
  -26.3260  -28.8592   22.0738 C   0  0  0  0  0  0  0  0  0  0  0  0
  -19.6702  -27.2735   24.3752 C   0  0  0  0  0  0  0  0  0  0  0  0
  -31.5672  -17.5171   19.6521 C   0  0  0  0  0  0  0  0  0  0  0  0
  -20.2806  -28.4532   23.6251 C   0  0  0  0  0  0  0  0  0  0  0  0
  -30.1769  -16.8846   19.6234 C   0  0  0  0  0  0  0  0  0  0  0  0
  -31.8804  -18.1369   21.0105 C   0  0  0  0  0  0  0  0  0  0  0  0
  -29.4714  -18.4852   21.4457 C   0  0  0  0  0  0  0  0  0  0  0  0
  -20.9561  -27.9922   22.3279 C   0  0  1  0  0  0  0  0  0  0  0  0
  -24.6189  -27.2985   23.0599 C   0  0  1  0  0  0  0  0  0  0  0  0
  -29.1062  -17.8924   20.0765 C   0  0  2  0  0  0  0  0  0  0  0  0
  -31.3130  -29.4544   26.3070 C   0  0  0  0  0  0  0  0  0  0  0  0
  -28.8509  -30.1885   17.1003 C   0  0  0  0  0  0  0  0  0  0  0  0
  -25.2258  -31.5547   24.7561 C   0  0  0  0  0  0  0  0  0  0  0  0
  -27.5473  -32.0875   25.5273 C   0  0  0  0  0  0  0  0  0  0  0  0
  -26.0984  -30.5798   26.8875 C   0  0  0  0  0  0  0  0  0  0  0  0
  -30.7148  -22.5481   22.7560 C   0  0  0  0  0  0  0  0  0  0  0  0
  -30.7588  -26.4718   24.0107 C   0  0  0  0  0  0  0  0  0  0  0  0
  -29.5365  -25.4432   15.5330 C   0  0  0  0  0  0  0  0  0  0  0  0
  -29.3855  -21.5012   20.9608 C   0  0  0  0  0  0  0  0  0  0  0  0
  -30.3375  -26.2199   17.7592 C   0  0  0  0  0  0  0  0  0  0  0  0
  -29.2209  -27.8187   16.2107 C   0  0  0  0  0  0  0  0  0  0  0  0
  -27.0600  -29.7383   24.7059 C   0  0  1  0  0  0  0  0  0  0  0  0
  -30.4965  -28.3977   25.5794 C   0  0  2  0  0  0  0  0  0  0  0  0
  -28.5742  -28.7008   17.2738 C   0  0  2  0  0  0  0  0  0  1  0  0
  -26.4786  -30.9769   25.4444 C   0  0  0  0  0  0  0  0  0  0  0  0
  -27.5808  -15.9758   20.3625 N   0  0  0  0  0  0  0  0  0  0  0  0
  -27.7167  -17.2827   20.0802 N   0  0  0  0  0  0  0  0  0  0  0  0
  -25.7311  -28.2288   23.2639 N   0  0  0  0  0  0  0  0  0  0  0  0
  -30.8260  -19.0577   21.4366 N   0  0  0  0  0  0  0  0  0  0  0  0
  -26.4920  -19.2319   19.5222 N   0  0  0  0  0  0  0  0  0  0  0  0
  -23.2918  -16.0710   19.9275 N   0  0  0  0  0  0  0  0  0  0  0  0
  -22.2421  -27.3928   22.6131 N   0  0  0  0  0  0  0  0  0  0  0  0
  -28.2310  -29.1537   25.3504 N   0  0  0  0  0  0  0  0  0  0  0  0
  -30.3790  -21.3376   22.0199 N   0  0  0  0  0  0  0  0  0  0  0  0
  -31.4251  -27.5663   24.7625 N   0  3  0  0  0  0  0  0  0  0  0  0
  -29.3114  -26.4101   16.6693 N   0  3  1  0  0  0  0  0  0  0  0  0
  -23.6767  -18.2803   19.4483 O   0  0  0  0  0  0  0  0  0  0  0  0
  -23.5059  -29.3472   22.6867 O   0  0  0  0  0  0  0  0  0  0  0  0
  -25.5711  -28.1156   25.5872 O   0  0  0  0  0  0  0  0  0  0  0  0
  -29.6597  -29.3832   23.5384 O   0  0  0  0  0  0  0  0  0  0  0  0
  -32.1683  -20.2000   22.9236 O   0  0  0  0  0  0  0  0  0  0  0  0
  -24.1004  -10.7124   21.2187 O   0  0  0  0  0  0  0  0  0  0  0  0
  -27.1654  -28.4732   17.2692 O   0  0  0  0  0  0  0  0  0  1  0  0
  -20.2589   -8.8727   17.7169 F   0  0  0  0  0  0  0  0  0  0  0  0
  -31.8779  -23.8586   17.5132 F   0  0  0  0  0  0  0  0  0  0  0  0
  -24.4951   -8.3894   19.7729 F   0  0  0  0  0  0  0  0  0  0  0  0
  1  2  1  0  0  0  0
  1  5  2  0  0  0  0
  2  6  2  0  0  0  0
  3 10  2  0  0  0  0
  3 18  1  0  0  0  0
  4 11  1  0  0  0  0
  4 18  2  0  0  0  0
  5 20  1  0  0  0  0
  6 22  1  0  0  0  0
  7 12  2  0  0  0  0
  7 21  1  0  0  0  0
  8  9  2  0  0  0  0
  8 24  1  0  0  0  0
  9 25  1  0  0  0  0
 10 26  1  0  0  0  0
 11 26  2  0  0  0  0
 12 27  1  0  0  0  0
 13 14  2  0  0  0  0
 13 28  1  0  0  0  0
 14 29  1  0  0  0  0
 15 23  1  0  0  0  0
 15 27  2  0  0  0  0
 16 24  2  0  0  0  0
 16 30  1  0  0  0  0
 17 29  2  0  0  0  0
 17 31  1  0  0  0  0
 18 32  1  0  0  0  0
 19 32  1  0  0  0  0
 19 33  2  0  0  0  0
 19 34  1  0  0  0  0
 20 22  2  0  0  0  0
 20 39  1  0  0  0  0
 21 23  2  0  0  0  0
 21 40  1  0  0  0  0
 22 48  1  0  0  0  0
 23 41  1  0  0  0  0
 24 59  1  0  0  0  0
 25 30  2  0  0  0  0
 25 60  1  0  0  0  0
 26 82  1  0  0  0  0
 27 83  1  0  0  0  0
 28 31  2  0  0  0  0
 28 82  1  0  0  0  0
 29 84  1  0  0  0  0
 30 85  1  0  0  0  0
 31 86  1  0  0  0  0
 32 66  2  0  0  0  0
 33 67  1  0  0  0  0
 33 70  1  0  0  0  0
 34 71  1  0  0  0  0
 34 77  2  0  0  0  0
 35 49  1  0  0  0  0
 35 72  1  0  0  0  0
 35 78  2  0  0  0  0
 36 62  1  0  0  0  0
 36 68  1  0  0  0  0
 36 79  2  0  0  0  0
 37 63  1  0  0  0  0
 37 73  1  0  0  0  0
 37 80  2  0  0  0  0
 38 69  1  0  0  0  0
 38 74  1  0  0  0  0
 38 81  2  0  0  0  0
 39 42  1  0  0  0  0
 40 49  1  0  0  0  0
 41 68  1  0  0  0  0
 42 44  1  0  0  0  0
 43 45  1  0  0  0  0
 43 46  1  0  0  0  0
 44 48  1  0  0  0  0
 45 50  1  0  0  0  0
 46 69  1  0  0  0  0
 47 50  1  0  0  0  0
 47 69  1  0  0  0  0
 48 72  1  0  0  0  0
 49 68  1  0  0  0  0
 50 67  1  0  0  0  0
 51 63  1  0  0  0  0
 52 64  1  0  0  0  0
 53 65  1  0  0  0  0
 54 65  1  0  0  0  0
 55 65  1  0  0  0  0
 56 74  1  0  0  0  0
 57 75  1  0  0  0  0
 58 76  1  0  0  0  0
 59 74  1  0  0  0  0
 60 76  1  0  0  0  0
 61 64  1  0  0  0  0
 61 76  1  0  0  0  0
 62 65  1  0  0  0  0
 62 73  1  0  0  0  0
 63 75  1  0  0  0  0
 64 83  1  0  0  0  0
 66 67  1  0  0  0  0
M  CHG  2  75   1  76   1
M  ISO  4  38 100  64 101  74 100  83 101
M  END
> <Batch ID>
0014

> <Smiles>
CNC(C)C(=O)NC(C(=O)N1Cc2cc([101O:1][101CH:1](C)CN(C)Cc3ccc(C[100N:0](C)[100C:0](=O)N4CCCC(n5nc(-c6ccc(Oc7ccc(F)cc7F)cc6)c(C(N)=O)c5N)C4)cc3F)ccc2CC1C(=O)NC1CCCc2ccccc21)C(C)(C)C

> <Shape>
0.267

> <Color>
0.061

> <Negative vol penalty>
0.000

$$$$

  -OEChem-04042320513D

 87 96  0     1  0  0  0  0  0999 V2000
  -22.0658  -27.3145   19.6754 C   0  0  0  0  0  0  0  0  0  0  0  0
  -22.6762  -26.6472   18.6182 C   0  0  0  0  0  0  0  0  0  0  0  0
  -23.0545   -9.8394   20.0280 C   0  0  0  0  0  0  0  0  0  0  0  0
  -23.5332  -10.0472   22.3869 C   0  0  0  0  0  0  0  0  0  0  0  0
  -22.8191  -28.1505   20.4985 C   0  0  0  0  0  0  0  0  0  0  0  0
  -24.0402  -26.8164   18.3830 C   0  0  0  0  0  0  0  0  0  0  0  0
  -26.4080  -22.4389   17.4474 C   0  0  0  0  0  0  0  0  0  0  0  0
  -29.4479  -15.9825   19.2101 C   0  0  0  0  0  0  0  0  0  0  0  0
  -22.2452   -8.7339   20.2896 C   0  0  0  0  0  0  0  0  0  0  0  0
  -22.7239   -8.9416   22.6486 C   0  0  0  0  0  0  0  0  0  0  0  0
  -26.2625  -21.8963   16.1713 C   0  0  0  0  0  0  0  0  0  0  0  0
  -21.0720   -5.9557   23.8998 C   0  0  0  0  0  0  0  0  0  0  0  0
  -29.1590  -16.9279   20.1965 C   0  0  0  0  0  0  0  0  0  0  0  0
  -21.5579   -4.9908   24.7820 C   0  0  0  0  0  0  0  0  0  0  0  0
  -28.4258  -22.7710   15.5595 C   0  0  0  0  0  0  0  0  0  0  0  0
  -27.9197  -18.2212   18.5913 C   0  0  0  0  0  0  0  0  0  0  0  0
  -23.4467   -4.6094   23.3245 C   0  0  0  0  0  0  0  0  0  0  0  0
  -23.6985  -10.4960   21.0767 C   0  0  0  0  0  0  0  0  0  0  0  0
  -24.1424  -12.9891   20.7679 C   0  0  0  0  0  0  0  0  0  0  0  0
  -24.1949  -28.3226   20.2791 C   0  0  0  0  0  0  0  0  0  0  0  0
  -27.5606  -23.1621   17.7862 C   0  0  0  0  0  0  0  0  0  0  0  0
  -24.8123  -27.6566   19.2031 C   0  0  0  0  0  0  0  0  0  0  0  0
  -28.5846  -23.3195   16.8413 C   0  0  0  0  0  0  0  0  0  0  0  0
  -28.1951  -17.2735   17.5910 C   0  0  0  0  0  0  0  0  0  0  0  0
  -28.9548  -16.1269   17.9027 C   0  0  0  0  0  0  0  0  0  0  0  0
  -22.0799   -8.2850   21.5998 C   0  0  0  0  0  0  0  0  0  0  0  0
  -27.2702  -22.0648   15.2262 C   0  0  0  0  0  0  0  0  0  0  0  0
  -21.7734   -6.2475   22.7299 C   0  0  0  0  0  0  0  0  0  0  0  0
  -28.3900  -18.0435   19.8895 C   0  0  0  0  0  0  0  0  0  0  0  0
  -22.7453   -4.3176   24.4944 C   0  0  0  0  0  0  0  0  0  0  0  0
  -22.9607   -5.5744   22.4423 C   0  0  0  0  0  0  0  0  0  0  0  0
  -24.5351  -11.6378   20.8071 C   0  0  0  0  0  0  0  0  0  0  0  0
  -25.2964  -13.6736   20.4743 C   0  0  0  0  0  0  0  0  0  0  0  0
  -22.8501  -13.5733   20.9783 C   0  0  0  0  0  0  0  0  0  0  0  0
  -28.1480  -26.1532   18.6873 C   0  0  0  0  0  0  0  0  0  0  0  0
  -31.1628  -25.0266   19.0923 C   0  0  0  0  0  0  0  0  0  0  0  0
  -33.5217  -22.7016   18.2698 C   0  0  0  0  0  0  0  0  0  0  0  0
  -29.8711  -13.9264   17.1108 C   0  0  0  0  0  0  0  0  0  0  0  0
  -24.9582  -29.2735   21.1666 C   0  0  0  0  0  0  0  0  0  0  0  0
  -27.7139  -23.7181   19.1753 C   0  0  0  0  0  0  0  0  0  0  0  0
  -27.7077  -17.5560   16.1913 C   0  0  0  0  0  0  0  0  0  0  0  0
  -29.8505  -24.0701   17.1614 C   0  0  0  0  0  0  0  0  0  0  0  0
  -26.4730  -29.1062   21.0781 C   0  0  0  0  0  0  0  0  0  0  0  0
  -30.1153  -12.1860   20.3715 C   0  0  0  0  0  0  0  0  0  0  0  0
  -26.9158  -29.0153   19.6213 C   0  0  0  0  0  0  0  0  0  0  0  0
  -28.6526  -11.9238   20.7241 C   0  0  0  0  0  0  0  0  0  0  0  0
  -30.3317  -12.2433   18.8624 C   0  0  0  0  0  0  0  0  0  0  0  0
  -29.0877  -15.5996   15.4912 C   0  0  0  0  0  0  0  0  0  0  0  0
  -27.9882  -12.9806   18.5273 C   0  0  0  0  0  0  0  0  0  0  0  0
  -26.2945  -27.7952   18.9309 C   0  0  1  0  0  0  0  0  0  0  0  0
  -28.7047  -24.8758   19.2495 C   0  0  1  0  0  0  0  0  0  0  0  0
  -27.7575  -16.3213   15.2904 C   0  0  2  0  0  0  0  0  0  0  0  0
  -27.7382  -12.9548   20.0428 C   0  0  1  0  0  0  0  0  0  0  0  0
  -35.9034  -22.0621   18.7347 C   0  0  0  0  0  0  0  0  0  0  0  0
  -32.1213  -27.3093   17.3089 C   0  0  0  0  0  0  0  0  0  0  0  0
  -34.2927  -26.0929   17.0378 C   0  0  0  0  0  0  0  0  0  0  0  0
  -33.5692  -26.8610   19.2982 C   0  0  0  0  0  0  0  0  0  0  0  0
  -32.7239  -20.0674   19.3577 C   0  0  0  0  0  0  0  0  0  0  0  0
  -25.1050  -16.3032   13.6822 C   0  0  0  0  0  0  0  0  0  0  0  0
  -27.5579  -16.7071   13.8269 C   0  0  0  0  0  0  0  0  0  0  0  0
  -26.8908  -19.5169   12.7016 C   0  0  0  0  0  0  0  0  0  0  0  0
  -26.1247  -18.2235   12.4679 C   0  0  0  0  0  0  0  0  0  0  0  0
  -26.3534  -20.3468   13.8611 C   0  0  0  0  0  0  0  0  0  1  0  0
  -32.3859  -24.9065   18.2157 C   0  0  1  0  0  0  0  0  0  0  0  0
  -34.4484  -21.8596   19.1281 C   0  0  2  0  0  0  0  0  0  0  0  0
  -33.0677  -26.2799   17.9582 C   0  0  0  0  0  0  0  0  0  0  0  0
  -25.8368  -11.4717   20.5580 N   0  0  0  0  0  0  0  0  0  0  0  0
  -26.2721  -12.7275   20.3595 N   0  0  0  0  0  0  0  0  0  0  0  0
  -29.2411  -15.1596   16.8787 N   0  0  0  0  0  0  0  0  0  0  0  0
  -29.9506  -24.6004   18.5311 N   0  0  0  0  0  0  0  0  0  0  0  0
  -29.4130  -13.1813   18.2156 N   0  0  0  0  0  0  0  0  0  0  0  0
  -25.5616  -14.9865   20.3056 N   0  0  0  0  0  0  0  0  0  0  0  0
  -21.7731  -12.7254   21.2707 N   0  0  0  0  0  0  0  0  0  0  0  0
  -26.9947  -26.5875   19.3125 N   0  0  0  0  0  0  0  0  0  0  0  0
  -33.2508  -23.9205   18.8547 N   0  0  0  0  0  0  0  0  0  0  0  0
  -34.1188  -20.4136   18.9817 N   0  3  0  0  0  0  0  0  0  0  0  0
  -26.2229  -17.3208   13.6764 N   0  3  1  0  0  0  0  0  0  0  0  0
  -22.6529  -14.8092   20.8928 O   0  0  0  0  0  0  0  0  0  0  0  0
  -28.7230  -26.7048   17.7563 O   0  0  0  0  0  0  0  0  0  0  0  0
  -31.2797  -25.4751   20.2355 O   0  0  0  0  0  0  0  0  0  0  0  0
  -33.0850  -22.3179   17.1869 O   0  0  0  0  0  0  0  0  0  0  0  0
  -30.7361  -13.4943   16.3390 O   0  0  0  0  0  0  0  0  0  0  0  0
  -21.2900   -7.2064   21.8555 O   0  0  0  0  0  0  0  0  0  0  0  0
  -27.1296  -21.5332   13.9711 O   0  0  0  0  0  0  0  0  0  1  0  0
  -28.1188  -18.9543   20.8331 F   0  0  0  0  0  0  0  0  0  0  0  0
  -23.2126   -3.3921   25.3424 F   0  0  0  0  0  0  0  0  0  0  0  0
  -23.6395   -5.8513   21.3205 F   0  0  0  0  0  0  0  0  0  0  0  0
  1  2  1  0  0  0  0
  1  5  2  0  0  0  0
  2  6  2  0  0  0  0
  3  9  2  0  0  0  0
  3 18  1  0  0  0  0
  4 10  1  0  0  0  0
  4 18  2  0  0  0  0
  5 20  1  0  0  0  0
  6 22  1  0  0  0  0
  7 11  2  0  0  0  0
  7 21  1  0  0  0  0
  8 13  2  0  0  0  0
  8 25  1  0  0  0  0
  9 26  1  0  0  0  0
 10 26  2  0  0  0  0
 11 27  1  0  0  0  0
 12 14  2  0  0  0  0
 12 28  1  0  0  0  0
 13 29  1  0  0  0  0
 14 30  1  0  0  0  0
 15 23  1  0  0  0  0
 15 27  2  0  0  0  0
 16 24  1  0  0  0  0
 16 29  2  0  0  0  0
 17 30  2  0  0  0  0
 17 31  1  0  0  0  0
 18 32  1  0  0  0  0
 19 32  1  0  0  0  0
 19 33  2  0  0  0  0
 19 34  1  0  0  0  0
 20 22  2  0  0  0  0
 20 39  1  0  0  0  0
 21 23  2  0  0  0  0
 21 40  1  0  0  0  0
 22 50  1  0  0  0  0
 23 42  1  0  0  0  0
 24 25  2  0  0  0  0
 24 41  1  0  0  0  0
 25 69  1  0  0  0  0
 26 83  1  0  0  0  0
 27 84  1  0  0  0  0
 28 31  2  0  0  0  0
 28 83  1  0  0  0  0
 29 85  1  0  0  0  0
 30 86  1  0  0  0  0
 31 87  1  0  0  0  0
 32 67  2  0  0  0  0
 33 68  1  0  0  0  0
 33 72  1  0  0  0  0
 34 73  1  0  0  0  0
 34 78  2  0  0  0  0
 35 51  1  0  0  0  0
 35 74  1  0  0  0  0
 35 79  2  0  0  0  0
 36 64  1  0  0  0  0
 36 70  1  0  0  0  0
 36 80  2  0  0  0  0
 37 65  1  0  0  0  0
 37 75  1  0  0  0  0
 37 81  2  0  0  0  0
 38 69  1  0  0  0  0
 38 71  1  0  0  0  0
 38 82  2  0  0  0  0
 39 43  1  0  0  0  0
 40 51  1  0  0  0  0
 41 52  1  0  0  0  0
 42 70  1  0  0  0  0
 43 45  1  0  0  0  0
 44 46  1  0  0  0  0
 44 47  1  0  0  0  0
 45 50  1  0  0  0  0
 46 53  1  0  0  0  0
 47 71  1  0  0  0  0
 48 52  1  0  0  0  0
 48 69  1  0  0  0  0
 49 53  1  0  0  0  0
 49 71  1  0  0  0  0
 50 74  1  0  0  0  0
 51 70  1  0  0  0  0
 52 60  1  0  0  0  0
 53 68  1  0  0  0  0
 54 65  1  0  0  0  0
 55 66  1  0  0  0  0
 56 66  1  0  0  0  0
 57 66  1  0  0  0  0
 58 76  1  0  0  0  0
 59 77  1  0  0  0  0
 60 77  1  0  0  0  0
 61 62  1  0  0  0  0
 61 63  1  0  0  0  0
 62 77  1  0  0  0  0
 63 84  1  0  0  0  0
 64 66  1  0  0  0  0
 64 75  1  0  0  0  0
 65 76  1  0  0  0  0
 67 68  1  0  0  0  0
M  CHG  2  76   1  77   1
M  ISO  4  38 100  63 101  69 100  84 101
M  END
> <Batch ID>
0014

> <Smiles>
CNC(C)C(=O)NC(C(=O)N1Cc2cc([101O:1][101CH2:1]CCN(C)CC3Cc4cc(F)ccc4[100N:0]([100C:0](=O)N4CCCC(n5nc(-c6ccc(Oc7ccc(F)cc7F)cc6)c(C(N)=O)c5N)C4)C3)ccc2CC1C(=O)NC1CCCc2ccccc21)C(C)(C)C

> <Shape>
0.262

> <Color>
0.204

> <Negative vol penalty>
0.000

$$$$

  -OEChem-04042320513D

 82 90  0     1  0  0  0  0  0999 V2000
  -24.5775  -25.9682   36.9384 C   0  0  0  0  0  0  0  0  0  0  0  0
  -25.5147  -25.5869   35.9837 C   0  0  0  0  0  0  0  0  0  0  0  0
  -23.0742   -9.8686   19.9404 C   0  0  0  0  0  0  0  0  0  0  0  0
  -23.8338   -9.8748   22.2338 C   0  0  0  0  0  0  0  0  0  0  0  0
  -23.8030  -25.0014   37.5783 C   0  0  0  0  0  0  0  0  0  0  0  0
  -25.6788  -24.2384   35.6690 C   0  0  0  0  0  0  0  0  0  0  0  0
  -27.0489  -21.8777   30.1866 C   0  0  0  0  0  0  0  0  0  0  0  0
  -29.8813  -17.4535   23.1395 C   0  0  0  0  0  0  0  0  0  0  0  0
  -32.0652  -16.6033   22.5523 C   0  0  0  0  0  0  0  0  0  0  0  0
  -30.4686  -18.3363   24.0458 C   0  0  0  0  0  0  0  0  0  0  0  0
  -32.6526  -17.4861   23.4585 C   0  0  0  0  0  0  0  0  0  0  0  0
  -22.3295   -8.7159   20.1901 C   0  0  0  0  0  0  0  0  0  0  0  0
  -23.0891   -8.7221   22.4836 C   0  0  0  0  0  0  0  0  0  0  0  0
  -28.2493  -21.4443   29.6254 C   0  0  0  0  0  0  0  0  0  0  0  0
  -19.8603   -7.9263   23.0857 C   0  0  0  0  0  0  0  0  0  0  0  0
  -19.1032   -7.8867   24.2564 C   0  0  0  0  0  0  0  0  0  0  0  0
  -27.7247  -19.1790   30.2674 C   0  0  0  0  0  0  0  0  0  0  0  0
  -20.3433   -5.9484   24.9928 C   0  0  0  0  0  0  0  0  0  0  0  0
  -23.8264  -10.4480   20.9622 C   0  0  0  0  0  0  0  0  0  0  0  0
  -24.1698  -12.9730   20.8425 C   0  0  0  0  0  0  0  0  0  0  0  0
  -23.9509  -23.6411   37.2643 C   0  0  0  0  0  0  0  0  0  0  0  0
  -26.1810  -20.9650   30.8032 C   0  0  0  0  0  0  0  0  0  0  0  0
  -24.9066  -23.2524   36.3062 C   0  0  0  0  0  0  0  0  0  0  0  0
  -26.5127  -19.6029   30.8335 C   0  0  0  0  0  0  0  0  0  0  0  0
  -30.6796  -16.5869   22.3928 C   0  0  0  0  0  0  0  0  0  0  0  0
  -31.8542  -18.3526   24.2053 C   0  0  0  0  0  0  0  0  0  0  0  0
  -22.3369   -8.1426   21.4617 C   0  0  0  0  0  0  0  0  0  0  0  0
  -28.5887  -20.0952   29.6683 C   0  0  0  0  0  0  0  0  0  0  0  0
  -20.8589   -6.9769   22.8684 C   0  0  0  0  0  0  0  0  0  0  0  0
  -19.3447   -6.8978   25.2101 C   0  0  0  0  0  0  0  0  0  0  0  0
  -21.1004   -5.9880   23.8220 C   0  0  0  0  0  0  0  0  0  0  0  0
  -24.5962  -11.6384   20.7047 C   0  0  0  0  0  0  0  0  0  0  0  0
  -25.2625  -13.7218   20.4795 C   0  0  0  0  0  0  0  0  0  0  0  0
  -22.8997  -13.4896   21.2614 C   0  0  0  0  0  0  0  0  0  0  0  0
  -25.0412  -20.5908   33.7467 C   0  0  0  0  0  0  0  0  0  0  0  0
  -23.2609  -18.2707   32.3432 C   0  0  0  0  0  0  0  0  0  0  0  0
  -22.8988  -16.0502   29.7771 C   0  0  0  0  0  0  0  0  0  0  0  0
  -30.7294  -14.7638   20.6550 C   0  0  0  0  0  0  0  0  0  0  0  0
  -23.1244  -22.6284   38.0165 C   0  0  0  0  0  0  0  0  0  0  0  0
  -24.8774  -21.4445   31.3802 C   0  0  0  0  0  0  0  0  0  0  0  0
  -25.6060  -18.5798   31.4657 C   0  0  0  0  0  0  0  0  0  0  0  0
  -23.0967  -21.2528   37.3554 C   0  0  0  0  0  0  0  0  0  0  0  0
  -29.6137  -12.3509   18.2863 C   0  0  0  0  0  0  0  0  0  0  0  0
  -24.5037  -20.8288   36.9462 C   0  0  0  0  0  0  0  0  0  0  0  0
  -28.1738  -12.0603   18.7157 C   0  0  0  0  0  0  0  0  0  0  0  0
  -30.5288  -12.5790   19.4881 C   0  0  0  0  0  0  0  0  0  0  0  0
  -28.6222  -13.3046   20.8692 C   0  0  0  0  0  0  0  0  0  0  0  0
  -25.0964  -21.8016   35.9197 C   0  0  1  0  0  0  0  0  0  0  0  0
  -24.3094  -20.5026   32.4374 C   0  0  1  0  0  0  0  0  0  0  0  0
  -27.6494  -13.1321   19.6912 C   0  0  2  0  0  0  0  0  0  0  0  0
  -21.3598  -14.2622   28.9215 C   0  0  0  0  0  0  0  0  0  0  0  0
  -24.3109  -16.3522   34.4708 C   0  0  0  0  0  0  0  0  0  0  0  0
  -23.5309  -14.4504   33.0413 C   0  0  0  0  0  0  0  0  0  0  0  0
  -21.8810  -16.0919   33.9392 C   0  0  0  0  0  0  0  0  0  0  0  0
  -33.8988  -19.2575   25.2828 C   0  0  0  0  0  0  0  0  0  0  0  0
  -22.3889  -17.5290   27.2647 C   0  0  0  0  0  0  0  0  0  0  0  0
  -31.0777  -19.4702   27.1260 C   0  0  0  0  0  0  0  0  0  0  0  0
  -31.6493  -20.1604   25.8935 C   0  0  0  0  0  0  0  0  0  0  0  0
  -30.2643  -20.4084   28.0099 C   0  0  0  0  0  0  0  0  0  1  0  0
  -23.4431  -16.7954   32.0799 C   0  0  1  0  0  0  0  0  0  0  0  0
  -21.7197  -15.7390   28.8731 C   0  0  2  0  0  0  0  0  0  0  0  0
  -23.3097  -15.9418   33.3725 C   0  0  0  0  0  0  0  0  0  0  0  0
  -25.8611  -11.5418   20.2866 N   0  0  0  0  0  0  0  0  0  0  0  0
  -26.2389  -12.8251   20.1585 N   0  0  0  0  0  0  0  0  0  0  0  0
  -24.3456  -19.0989   32.0218 N   0  0  0  0  0  0  0  0  0  0  0  0
  -29.9704  -13.6101   20.3655 N   0  0  0  0  0  0  0  0  0  0  0  0
  -25.4738  -15.0531   20.4067 N   0  0  0  0  0  0  0  0  0  0  0  0
  -21.8871  -12.5810   21.5984 N   0  0  0  0  0  0  0  0  0  0  0  0
  -30.0825  -15.6891   21.4734 N   0  0  0  0  0  0  0  0  0  0  0  0
  -24.5421  -21.5505   34.6066 N   0  0  0  0  0  0  0  0  0  0  0  0
  -22.4892  -16.4469   31.0325 N   0  0  0  0  0  0  0  0  0  0  0  0
  -32.4443  -19.2409   25.1159 N   0  0  3  0  0  0  0  0  0  0  0  0
  -22.0393  -16.0988   27.4626 N   0  3  0  0  0  0  0  0  0  0  0  0
  -22.6642  -14.7203   21.3188 O   0  0  0  0  0  0  0  0  0  0  0  0
  -25.9876  -19.8425   33.9616 O   0  0  0  0  0  0  0  0  0  0  0  0
  -22.1927  -18.6743   32.8100 O   0  0  0  0  0  0  0  0  0  0  0  0
  -24.0666  -15.9477   29.4078 O   0  0  0  0  0  0  0  0  0  0  0  0
  -31.8586  -14.9318   20.1875 O   0  0  0  0  0  0  0  0  0  0  0  0
  -21.6102   -7.0180   21.7058 O   0  0  0  0  0  0  0  0  0  0  0  0
  -29.7601  -19.6697   29.1219 O   0  0  0  0  0  0  0  0  0  1  0  0
  -18.6186   -6.8609   26.3350 F   0  0  0  0  0  0  0  0  0  0  0  0
  -22.0591   -5.0739   23.6194 F   0  0  0  0  0  0  0  0  0  0  0  0
  1  2  1  0  0  0  0
  1  5  2  0  0  0  0
  2  6  2  0  0  0  0
  3 12  2  0  0  0  0
  3 19  1  0  0  0  0
  4 13  1  0  0  0  0
  4 19  2  0  0  0  0
  5 21  1  0  0  0  0
  6 23  1  0  0  0  0
  7 14  2  0  0  0  0
  7 22  1  0  0  0  0
  8 10  2  0  0  0  0
  8 25  1  0  0  0  0
  9 11  1  0  0  0  0
  9 25  2  0  0  0  0
 10 26  1  0  0  0  0
 11 26  2  0  0  0  0
 12 27  1  0  0  0  0
 13 27  2  0  0  0  0
 14 28  1  0  0  0  0
 15 16  2  0  0  0  0
 15 29  1  0  0  0  0
 16 30  1  0  0  0  0
 17 24  1  0  0  0  0
 17 28  2  0  0  0  0
 18 30  2  0  0  0  0
 18 31  1  0  0  0  0
 19 32  1  0  0  0  0
 20 32  1  0  0  0  0
 20 33  2  0  0  0  0
 20 34  1  0  0  0  0
 21 23  2  0  0  0  0
 21 39  1  0  0  0  0
 22 24  2  0  0  0  0
 22 40  1  0  0  0  0
 23 48  1  0  0  0  0
 24 41  1  0  0  0  0
 25 69  1  0  0  0  0
 26 72  1  0  0  0  0
 27 79  1  0  0  0  0
 28 80  1  0  0  0  0
 29 31  2  0  0  0  0
 29 79  1  0  0  0  0
 30 81  1  0  0  0  0
 31 82  1  0  0  0  0
 32 63  2  0  0  0  0
 33 64  1  0  0  0  0
 33 67  1  0  0  0  0
 34 68  1  0  0  0  0
 34 74  2  0  0  0  0
 35 49  1  0  0  0  0
 35 70  1  0  0  0  0
 35 75  2  0  0  0  0
 36 60  1  0  0  0  0
 36 65  1  0  0  0  0
 36 76  2  0  0  0  0
 37 61  1  0  0  0  0
 37 71  1  0  0  0  0
 37 77  2  0  0  0  0
 38 66  1  0  0  0  0
 38 69  1  0  0  0  0
 38 78  2  0  0  0  0
 39 42  1  0  0  0  0
 40 49  1  0  0  0  0
 41 65  1  0  0  0  0
 42 44  1  0  0  0  0
 43 45  1  0  0  0  0
 43 46  1  0  0  0  0
 44 48  1  0  0  0  0
 45 50  1  0  0  0  0
 46 66  1  0  0  0  0
 47 50  1  0  0  0  0
 47 66  1  0  0  0  0
 48 70  1  0  0  0  0
 49 65  1  0  0  0  0
 50 64  1  0  0  0  0
 51 61  1  0  0  0  0
 52 62  1  0  0  0  0
 53 62  1  0  0  0  0
 54 62  1  0  0  0  0
 55 72  1  0  0  0  0
 56 73  1  0  0  0  0
 57 58  1  0  0  0  0
 57 59  1  0  0  0  0
 58 72  1  0  0  0  0
 59 80  1  0  0  0  0
 60 62  1  0  0  0  0
 60 71  1  0  0  0  0
 61 73  1  0  0  0  0
 63 64  1  0  0  0  0
M  CHG  1  73   1
M  ISO  4  38 100  59 101  69 100  80 101
M  END
> <Batch ID>
0014

> <Smiles>
CNC(C)C(=O)NC(C(=O)N1Cc2cc([101O:1][101CH2:1]CCN(C)c3ccc([100NH:0][100C:0](=O)N4CCCC(n5nc(-c6ccc(Oc7ccc(F)cc7F)cc6)c(C(N)=O)c5N)C4)cc3)ccc2CC1C(=O)NC1CCCc2ccccc21)C(C)(C)C

> <Shape>
0.167

> <Color>
0.200

> <Negative vol penalty>
0.000

$$$$

  -OEChem-04042320513D

 84 92  0     1  0  0  0  0  0999 V2000
  -31.4117  -25.2780   17.9801 C   0  0  0  0  0  0  0  0  0  0  0  0
  -30.0428  -25.0640   18.1056 C   0  0  0  0  0  0  0  0  0  0  0  0
  -27.6033  -14.9229   19.6942 C   0  0  0  0  0  0  0  0  0  0  0  0
  -25.2192  -15.2125   19.4309 C   0  0  0  0  0  0  0  0  0  0  0  0
  -32.0966  -25.9955   18.9598 C   0  0  0  0  0  0  0  0  0  0  0  0
  -29.3582  -25.5664   19.2117 C   0  0  0  0  0  0  0  0  0  0  0  0
  -23.6171  -27.6949   19.3328 C   0  0  0  0  0  0  0  0  0  0  0  0
  -21.3136  -23.8392   23.6472 C   0  0  0  0  0  0  0  0  0  0  0  0
  -22.5701  -23.5233   23.1304 C   0  0  0  0  0  0  0  0  0  0  0  0
  -27.3997  -13.5985   20.0816 C   0  0  0  0  0  0  0  0  0  0  0  0
  -25.0155  -13.8881   19.8182 C   0  0  0  0  0  0  0  0  0  0  0  0
  -22.4090  -27.1135   19.7153 C   0  0  0  0  0  0  0  0  0  0  0  0
  -24.9357  -12.1188   22.6982 C   0  0  0  0  0  0  0  0  0  0  0  0
  -23.9190  -11.8616   23.6179 C   0  0  0  0  0  0  0  0  0  0  0  0
  -22.6303  -28.1072   21.9023 C   0  0  0  0  0  0  0  0  0  0  0  0
  -20.2697  -22.5036   21.9257 C   0  0  0  0  0  0  0  0  0  0  0  0
  -22.8235  -10.4325   22.0072 C   0  0  0  0  0  0  0  0  0  0  0  0
  -26.5131  -15.7299   19.3689 C   0  0  0  0  0  0  0  0  0  0  0  0
  -26.9255  -17.5807   17.6624 C   0  0  0  0  0  0  0  0  0  0  0  0
  -31.4184  -26.5153   20.0736 C   0  0  0  0  0  0  0  0  0  0  0  0
  -24.3475  -28.4792   20.2372 C   0  0  0  0  0  0  0  0  0  0  0  0
  -30.0350  -26.2904   20.2079 C   0  0  0  0  0  0  0  0  0  0  0  0
  -23.8461  -28.6995   21.5280 C   0  0  0  0  0  0  0  0  0  0  0  0
  -20.1634  -23.3293   23.0449 C   0  0  0  0  0  0  0  0  0  0  0  0
  -22.6764  -22.6977   22.0112 C   0  0  0  0  0  0  0  0  0  0  0  0
  -26.1058  -13.0810   20.1436 C   0  0  0  0  0  0  0  0  0  0  0  0
  -21.9169  -27.3172   21.0012 C   0  0  0  0  0  0  0  0  0  0  0  0
  -24.8962  -11.5329   21.4329 C   0  0  0  0  0  0  0  0  0  0  0  0
  -22.8629  -11.0184   23.2724 C   0  0  0  0  0  0  0  0  0  0  0  0
  -21.5262  -22.1878   21.4088 C   0  0  0  0  0  0  0  0  0  0  0  0
  -23.8401  -10.6897   21.0875 C   0  0  0  0  0  0  0  0  0  0  0  0
  -26.7228  -17.0983   18.9693 C   0  0  0  0  0  0  0  0  0  0  0  0
  -27.0725  -18.9376   17.8161 C   0  0  0  0  0  0  0  0  0  0  0  0
  -26.9763  -16.8661   16.4204 C   0  0  0  0  0  0  0  0  0  0  0  0
  -27.2298  -28.2778   21.5621 C   0  0  0  0  0  0  0  0  0  0  0  0
  -26.4719  -31.2096   22.7250 C   0  0  0  0  0  0  0  0  0  0  0  0
  -24.0413  -33.4440   23.5895 C   0  0  0  0  0  0  0  0  0  0  0  0
  -25.1930  -22.8028   21.9674 C   0  0  0  0  0  0  0  0  0  0  0  0
  -32.2100  -27.2439   21.1306 C   0  0  0  0  0  0  0  0  0  0  0  0
  -25.6357  -29.1213   19.8005 C   0  0  0  0  0  0  0  0  0  0  0  0
  -24.5818  -29.5498   22.5301 C   0  0  0  0  0  0  0  0  0  0  0  0
  -31.3437  -28.0641   22.0830 C   0  0  0  0  0  0  0  0  0  0  0  0
  -28.5622  -22.2079   20.9816 C   0  0  0  0  0  0  0  0  0  0  0  0
  -30.1488  -27.2437   22.5583 C   0  0  0  0  0  0  0  0  0  0  0  0
  -28.4903  -20.8770   20.2295 C   0  0  0  0  0  0  0  0  0  0  0  0
  -27.6046  -22.2394   22.1715 C   0  0  0  0  0  0  0  0  0  0  0  0
  -26.1386  -20.5723   21.1034 C   0  0  0  0  0  0  0  0  0  0  0  0
  -29.2529  -26.8408   21.3807 C   0  0  1  0  0  0  0  0  0  0  0  0
  -26.5506  -29.4791   20.9676 C   0  0  1  0  0  0  0  0  0  0  0  0
  -27.0383  -20.5174   19.8579 C   0  0  2  0  0  0  0  0  0  0  0  0
  -23.7288  -35.7425   24.5468 C   0  0  0  0  0  0  0  0  0  0  0  0
  -27.1253  -30.1376   25.5060 C   0  0  0  0  0  0  0  0  0  0  0  0
  -25.9137  -32.1039   26.4725 C   0  0  0  0  0  0  0  0  0  0  0  0
  -27.9421  -32.4597   25.0647 C   0  0  0  0  0  0  0  0  0  0  0  0
  -22.6759  -34.4027   21.1450 C   0  0  0  0  0  0  0  0  0  0  0  0
  -17.5189  -25.5153   24.6597 C   0  0  0  0  0  0  0  0  0  0  0  0
  -18.8118  -23.6698   23.6000 C   0  0  0  0  0  0  0  0  0  0  0  0
  -18.4917  -27.1351   22.1242 C   0  0  0  0  0  0  0  0  0  0  0  0
  -18.1504  -25.6583   22.2550 C   0  0  0  0  0  0  0  0  0  0  0  0
  -19.9654  -27.4465   22.3543 C   0  0  0  0  0  0  0  0  0  1  0  0
  -25.7865  -31.7220   23.9687 C   0  0  1  0  0  0  0  0  0  0  0  0
  -23.8720  -34.9196   23.2759 C   0  0  2  0  0  0  0  0  0  0  0  0
  -26.6787  -31.5881   25.2349 C   0  0  0  0  0  0  0  0  0  0  0  0
  -26.7391  -18.0698   19.8858 N   0  0  0  0  0  0  0  0  0  0  0  0
  -26.9539  -19.1761   19.1537 N   0  0  0  0  0  0  0  0  0  0  0  0
  -25.8400  -30.1508   22.0576 N   0  0  0  0  0  0  0  0  0  0  0  0
  -26.2477  -21.8928   21.7430 N   0  0  0  0  0  0  0  0  0  0  0  0
  -27.2905  -19.9380   16.9363 N   0  0  0  0  0  0  0  0  0  0  0  0
  -26.8057  -15.4751   16.4424 N   0  0  0  0  0  0  0  0  0  0  0  0
  -23.9540  -22.3789   21.4880 N   0  0  0  0  0  0  0  0  0  0  0  0
  -28.4336  -27.9584   20.9635 N   0  0  0  0  0  0  0  0  0  0  0  0
  -25.3711  -33.0887   23.6722 N   0  0  0  0  0  0  0  0  0  0  0  0
  -22.6590  -35.1351   22.4374 N   0  3  0  0  0  0  0  0  0  0  0  0
  -18.5269  -25.1525   23.5959 N   0  3  1  0  0  0  0  0  0  0  0  0
  -27.1837  -17.4419   15.3255 O   0  0  0  0  0  0  0  0  0  0  0  0
  -26.7015  -27.6855   22.4958 O   0  0  0  0  0  0  0  0  0  0  0  0
  -27.5252  -31.7344   22.3553 O   0  0  0  0  0  0  0  0  0  0  0  0
  -23.0892  -32.6833   23.7490 O   0  0  0  0  0  0  0  0  0  0  0  0
  -25.3805  -23.8907   22.5181 O   0  0  0  0  0  0  0  0  0  0  0  0
  -25.9067  -11.7887   20.5213 O   0  0  0  0  0  0  0  0  0  0  0  0
  -20.7383  -26.7504   21.3774 O   0  0  0  0  0  0  0  0  0  1  0  0
  -21.8875  -10.7703   24.1562 F   0  0  0  0  0  0  0  0  0  0  0  0
  -21.6164  -21.3945   20.3318 F   0  0  0  0  0  0  0  0  0  0  0  0
  -23.7974  -10.1230   19.8739 F   0  0  0  0  0  0  0  0  0  0  0  0
  1  2  1  0  0  0  0
  1  5  2  0  0  0  0
  2  6  2  0  0  0  0
  3 10  2  0  0  0  0
  3 18  1  0  0  0  0
  4 11  1  0  0  0  0
  4 18  2  0  0  0  0
  5 20  1  0  0  0  0
  6 22  1  0  0  0  0
  7 12  2  0  0  0  0
  7 21  1  0  0  0  0
  8  9  2  0  0  0  0
  8 24  1  0  0  0  0
  9 25  1  0  0  0  0
 10 26  1  0  0  0  0
 11 26  2  0  0  0  0
 12 27  1  0  0  0  0
 13 14  2  0  0  0  0
 13 28  1  0  0  0  0
 14 29  1  0  0  0  0
 15 23  1  0  0  0  0
 15 27  2  0  0  0  0
 16 24  2  0  0  0  0
 16 30  1  0  0  0  0
 17 29  2  0  0  0  0
 17 31  1  0  0  0  0
 18 32  1  0  0  0  0
 19 32  1  0  0  0  0
 19 33  2  0  0  0  0
 19 34  1  0  0  0  0
 20 22  2  0  0  0  0
 20 39  1  0  0  0  0
 21 23  2  0  0  0  0
 21 40  1  0  0  0  0
 22 48  1  0  0  0  0
 23 41  1  0  0  0  0
 24 57  1  0  0  0  0
 25 30  2  0  0  0  0
 25 70  1  0  0  0  0
 26 80  1  0  0  0  0
 27 81  1  0  0  0  0
 28 31  2  0  0  0  0
 28 80  1  0  0  0  0
 29 82  1  0  0  0  0
 30 83  1  0  0  0  0
 31 84  1  0  0  0  0
 32 64  2  0  0  0  0
 33 65  1  0  0  0  0
 33 68  1  0  0  0  0
 34 69  1  0  0  0  0
 34 75  2  0  0  0  0
 35 49  1  0  0  0  0
 35 71  1  0  0  0  0
 35 76  2  0  0  0  0
 36 61  1  0  0  0  0
 36 66  1  0  0  0  0
 36 77  2  0  0  0  0
 37 62  1  0  0  0  0
 37 72  1  0  0  0  0
 37 78  2  0  0  0  0
 38 67  1  0  0  0  0
 38 70  1  0  0  0  0
 38 79  2  0  0  0  0
 39 42  1  0  0  0  0
 40 49  1  0  0  0  0
 41 66  1  0  0  0  0
 42 44  1  0  0  0  0
 43 45  1  0  0  0  0
 43 46  1  0  0  0  0
 44 48  1  0  0  0  0
 45 50  1  0  0  0  0
 46 67  1  0  0  0  0
 47 50  1  0  0  0  0
 47 67  1  0  0  0  0
 48 71  1  0  0  0  0
 49 66  1  0  0  0  0
 50 65  1  0  0  0  0
 51 62  1  0  0  0  0
 52 63  1  0  0  0  0
 53 63  1  0  0  0  0
 54 63  1  0  0  0  0
 55 73  1  0  0  0  0
 56 74  1  0  0  0  0
 57 74  1  0  0  0  0
 58 59  1  0  0  0  0
 58 60  1  0  0  0  0
 59 74  1  0  0  0  0
 60 81  1  0  0  0  0
 61 63  1  0  0  0  0
 61 72  1  0  0  0  0
 62 73  1  0  0  0  0
 64 65  1  0  0  0  0
M  CHG  2  73   1  74   1
M  ISO  4  38 100  60 101  70 100  81 101
M  END
> <Batch ID>
0014

> <Smiles>
CNC(C)C(=O)NC(C(=O)N1Cc2cc([101O:1][101CH2:1]CCN(C)Cc3ccc([100NH:0][100C:0](=O)N4CCCC(n5nc(-c6ccc(Oc7ccc(F)cc7F)cc6)c(C(N)=O)c5N)C4)c(F)c3)ccc2CC1C(=O)NC1CCCc2ccccc21)C(C)(C)C

> <Shape>
0.274

> <Color>
0.062

> <Negative vol penalty>
0.000

$$$$

  -OEChem-04042320513D

 88 96  0     1  0  0  0  0  0999 V2000
  -23.1463  -21.1907   29.8931 C   0  0  0  0  0  0  0  0  0  0  0  0
  -23.8641  -21.4726   28.7352 C   0  0  0  0  0  0  0  0  0  0  0  0
  -23.2781   -9.6637   21.1530 C   0  0  0  0  0  0  0  0  0  0  0  0
  -24.0986  -10.4392   23.2890 C   0  0  0  0  0  0  0  0  0  0  0  0
  -21.8168  -21.5957   30.0036 C   0  0  0  0  0  0  0  0  0  0  0  0
  -23.2525  -22.1589   27.6868 C   0  0  0  0  0  0  0  0  0  0  0  0
  -26.1962  -25.8094   25.7753 C   0  0  0  0  0  0  0  0  0  0  0  0
  -29.5993  -18.4004   18.9665 C   0  0  0  0  0  0  0  0  0  0  0  0
  -28.4650  -19.0354   21.0029 C   0  0  0  0  0  0  0  0  0  0  0  0
  -29.7339  -19.7453   18.6220 C   0  0  0  0  0  0  0  0  0  0  0  0
  -28.5997  -20.3804   20.6585 C   0  0  0  0  0  0  0  0  0  0  0  0
  -22.6407   -8.5963   21.7853 C   0  0  0  0  0  0  0  0  0  0  0  0
  -23.4611   -9.3718   23.9214 C   0  0  0  0  0  0  0  0  0  0  0  0
  -27.2183  -25.4166   24.9124 C   0  0  0  0  0  0  0  0  0  0  0  0
  -23.4966   -5.5833   23.0556 C   0  0  0  0  0  0  0  0  0  0  0  0
  -23.6232   -4.3198   22.4783 C   0  0  0  0  0  0  0  0  0  0  0  0
  -25.8538  -26.0387   23.0228 C   0  0  0  0  0  0  0  0  0  0  0  0
  -21.2242   -4.1983   22.2185 C   0  0  0  0  0  0  0  0  0  0  0  0
  -24.0072  -10.5851   21.9048 C   0  0  0  0  0  0  0  0  0  0  0  0
  -24.1330  -12.9645   20.9936 C   0  0  0  0  0  0  0  0  0  0  0  0
  -21.1914  -22.2958   28.9599 C   0  0  0  0  0  0  0  0  0  0  0  0
  -24.9890  -26.3105   25.2673 C   0  0  0  0  0  0  0  0  0  0  0  0
  -21.9129  -22.5726   27.7829 C   0  0  0  0  0  0  0  0  0  0  0  0
  -24.8189  -26.4395   23.8815 C   0  0  0  0  0  0  0  0  0  0  0  0
  -28.9648  -18.0454   20.1569 C   0  0  0  0  0  0  0  0  0  0  0  0
  -29.2342  -20.7353   19.4680 C   0  0  0  0  0  0  0  0  0  0  0  0
  -22.7321   -8.4504   23.1695 C   0  0  0  0  0  0  0  0  0  0  0  0
  -27.0461  -25.5285   23.5358 C   0  0  0  0  0  0  0  0  0  0  0  0
  -22.2339   -6.1543   23.2144 C   0  0  0  0  0  0  0  0  0  0  0  0
  -22.4870   -3.6273   22.0598 C   0  0  0  0  0  0  0  0  0  0  0  0
  -21.0977   -5.4618   22.7958 C   0  0  0  0  0  0  0  0  0  0  0  0
  -24.6664  -11.6876   21.2520 C   0  0  0  0  0  0  0  0  0  0  0  0
  -25.1480  -13.6388   20.3598 C   0  0  0  0  0  0  0  0  0  0  0  0
  -22.8360  -13.4939   21.2991 C   0  0  0  0  0  0  0  0  0  0  0  0
  -21.9484  -25.3927   25.3957 C   0  0  0  0  0  0  0  0  0  0  0  0
  -21.4363  -28.2245   23.8988 C   0  0  0  0  0  0  0  0  0  0  0  0
  -30.5090  -22.5303   18.3206 C   0  0  0  0  0  0  0  0  0  0  0  0
  -22.6722  -30.7318   21.9410 C   0  0  0  0  0  0  0  0  0  0  0  0
  -30.6897  -14.9041   20.4320 C   0  0  0  0  0  0  0  0  0  0  0  0
  -19.7382  -22.6717   29.1063 C   0  0  0  0  0  0  0  0  0  0  0  0
  -23.9064  -26.7548   26.2123 C   0  0  0  0  0  0  0  0  0  0  0  0
  -23.5497  -26.9902   23.2862 C   0  0  0  0  0  0  0  0  0  0  0  0
  -19.2766  -23.7230   28.1004 C   0  0  0  0  0  0  0  0  0  0  0  0
  -29.5270  -11.9989   18.4547 C   0  0  0  0  0  0  0  0  0  0  0  0
  -19.7601  -23.3684   26.6978 C   0  0  0  0  0  0  0  0  0  0  0  0
  -28.1431  -11.7283   19.0425 C   0  0  0  0  0  0  0  0  0  0  0  0
  -30.4616  -12.6401   19.4761 C   0  0  0  0  0  0  0  0  0  0  0  0
  -28.5334  -13.6081   20.6841 C   0  0  0  0  0  0  0  0  0  0  0  0
  -21.2919  -23.3367   26.6338 C   0  0  1  0  0  0  0  0  0  0  0  0
  -22.5224  -26.7702   25.5706 C   0  0  1  0  0  0  0  0  0  0  0  0
  -27.5531  -13.0048   19.6669 C   0  0  2  0  0  0  0  0  0  0  0  0
  -29.2346  -23.4446   16.3644 C   0  0  0  0  0  0  0  0  0  0  0  0
  -31.6246  -24.1033   16.6836 C   0  0  0  0  0  0  0  0  0  0  0  0
  -22.0052  -32.8931   20.8540 C   0  0  0  0  0  0  0  0  0  0  0  0
  -19.9116  -26.6745   21.7581 C   0  0  0  0  0  0  0  0  0  0  0  0
  -20.1012  -28.6793   20.2705 C   0  0  0  0  0  0  0  0  0  0  0  0
  -18.8575  -28.8416   22.4267 C   0  0  0  0  0  0  0  0  0  0  0  0
  -30.8281  -16.8513   21.9382 C   0  0  0  0  0  0  0  0  0  0  0  0
  -24.6989  -32.2580   23.4649 C   0  0  0  0  0  0  0  0  0  0  0  0
  -28.8208  -16.6074   20.5251 C   0  0  0  0  0  0  0  0  0  0  0  0
  -28.7016  -23.6620   20.9239 C   0  0  0  0  0  0  0  0  0  0  0  0
  -28.3683  -23.0654   19.5631 C   0  0  0  0  0  0  0  0  0  0  0  0
  -27.6531  -24.6562   21.4082 C   0  0  0  0  0  0  0  0  0  1  0  0
  -21.3802  -28.6786   22.4602 C   0  0  1  0  0  0  0  0  0  0  0  0
  -30.3184  -23.7451   17.3997 C   0  0  0  0  0  0  0  0  0  0  0  0
  -22.6172  -32.2421   22.0846 C   0  0  2  0  0  0  0  0  0  0  0  0
  -20.0859  -28.2063   21.7397 C   0  0  0  0  0  0  0  0  0  0  0  0
  -25.9226  -11.5560   20.8178 N   0  0  0  0  0  0  0  0  0  0  0  0
  -26.1870  -12.7589   20.2800 N   0  0  0  0  0  0  0  0  0  0  0  0
  -22.5182  -27.4052   24.2512 N   0  0  0  0  0  0  0  0  0  0  0  0
  -29.8587  -13.8261   20.0853 N   0  0  0  0  0  0  0  0  0  0  0  0
  -25.2441  -14.8925   19.8685 N   0  0  0  0  0  0  0  0  0  0  0  0
  -21.9135  -12.6659   21.9532 N   0  0  0  0  0  0  0  0  0  0  0  0
  -21.8231  -24.6816   26.5739 N   0  0  0  0  0  0  0  0  0  0  0  0
  -21.5576  -30.1265   22.4819 N   0  0  0  0  0  0  0  0  0  0  0  0
  -29.3758  -22.1484   19.1066 N   0  0  0  0  0  0  0  0  0  0  0  0
  -30.0742  -16.0281   21.0034 N   0  0  0  0  0  0  0  0  0  0  0  0
  -23.9881  -32.7944   22.2758 N   0  3  0  0  0  0  0  0  0  0  0  0
  -22.4992  -14.6610   20.9862 O   0  0  0  0  0  0  0  0  0  0  0  0
  -21.6406  -25.0042   24.2750 O   0  0  0  0  0  0  0  0  0  0  0  0
  -20.5566  -28.5894   24.6829 O   0  0  0  0  0  0  0  0  0  0  0  0
  -31.6102  -21.9698   18.3412 O   0  0  0  0  0  0  0  0  0  0  0  0
  -23.6083  -30.1478   21.3996 O   0  0  0  0  0  0  0  0  0  0  0  0
  -31.9108  -14.8679   20.2329 O   0  0  0  0  0  0  0  0  0  0  0  0
  -22.1100   -7.4091   23.7869 O   0  0  0  0  0  0  0  0  0  0  0  0
  -28.0419  -25.1452   22.6912 O   0  0  0  0  0  0  0  0  0  1  0  0
  -22.6088   -2.4147   21.5040 F   0  0  0  0  0  0  0  0  0  0  0  0
  -19.8820   -6.0057   22.9447 F   0  0  0  0  0  0  0  0  0  0  0  0
  1  2  1  0  0  0  0
  1  5  2  0  0  0  0
  2  6  2  0  0  0  0
  3 12  2  0  0  0  0
  3 19  1  0  0  0  0
  4 13  1  0  0  0  0
  4 19  2  0  0  0  0
  5 21  1  0  0  0  0
  6 23  1  0  0  0  0
  7 14  2  0  0  0  0
  7 22  1  0  0  0  0
  8 10  2  0  0  0  0
  8 25  1  0  0  0  0
  9 11  1  0  0  0  0
  9 25  2  0  0  0  0
 10 26  1  0  0  0  0
 11 26  2  0  0  0  0
 12 27  1  0  0  0  0
 13 27  2  0  0  0  0
 14 28  1  0  0  0  0
 15 16  2  0  0  0  0
 15 29  1  0  0  0  0
 16 30  1  0  0  0  0
 17 24  1  0  0  0  0
 17 28  2  0  0  0  0
 18 30  2  0  0  0  0
 18 31  1  0  0  0  0
 19 32  1  0  0  0  0
 20 32  1  0  0  0  0
 20 33  2  0  0  0  0
 20 34  1  0  0  0  0
 21 23  2  0  0  0  0
 21 40  1  0  0  0  0
 22 24  2  0  0  0  0
 22 41  1  0  0  0  0
 23 49  1  0  0  0  0
 24 42  1  0  0  0  0
 25 60  1  0  0  0  0
 26 76  1  0  0  0  0
 27 85  1  0  0  0  0
 28 86  1  0  0  0  0
 29 31  2  0  0  0  0
 29 85  1  0  0  0  0
 30 87  1  0  0  0  0
 31 88  1  0  0  0  0
 32 68  2  0  0  0  0
 33 69  1  0  0  0  0
 33 72  1  0  0  0  0
 34 73  1  0  0  0  0
 34 79  2  0  0  0  0
 35 50  1  0  0  0  0
 35 74  1  0  0  0  0
 35 80  2  0  0  0  0
 36 64  1  0  0  0  0
 36 70  1  0  0  0  0
 36 81  2  0  0  0  0
 37 65  1  0  0  0  0
 37 76  1  0  0  0  0
 37 82  2  0  0  0  0
 38 66  1  0  0  0  0
 38 75  1  0  0  0  0
 38 83  2  0  0  0  0
 39 71  1  0  0  0  0
 39 77  1  0  0  0  0
 39 84  2  0  0  0  0
 40 43  1  0  0  0  0
 41 50  1  0  0  0  0
 42 70  1  0  0  0  0
 43 45  1  0  0  0  0
 44 46  1  0  0  0  0
 44 47  1  0  0  0  0
 45 49  1  0  0  0  0
 46 51  1  0  0  0  0
 47 71  1  0  0  0  0
 48 51  1  0  0  0  0
 48 71  1  0  0  0  0
 49 74  1  0  0  0  0
 50 70  1  0  0  0  0
 51 69  1  0  0  0  0
 52 65  1  0  0  0  0
 53 65  1  0  0  0  0
 54 66  1  0  0  0  0
 55 67  1  0  0  0  0
 56 67  1  0  0  0  0
 57 67  1  0  0  0  0
 58 77  1  0  0  0  0
 59 78  1  0  0  0  0
 60 77  1  0  0  0  0
 61 62  1  0  0  0  0
 61 63  1  0  0  0  0
 62 76  1  0  0  0  0
 63 86  1  0  0  0  0
 64 67  1  0  0  0  0
 64 75  1  0  0  0  0
 66 78  1  0  0  0  0
 68 69  1  0  0  0  0
M  CHG  1  78   1
M  ISO  4  39 100  63 101  77 100  86 101
M  END
> <Batch ID>
0014

> <Smiles>
CNC(C)C(=O)NC(C(=O)N1Cc2cc([101O:1][101CH2:1]CCN(C(=O)C(C)C)c3ccc(C[100N:0](C)[100C:0](=O)N4CCCC(n5nc(-c6ccc(Oc7ccc(F)cc7F)cc6)c(C(N)=O)c5N)C4)cc3)ccc2CC1C(=O)NC1CCCc2ccccc21)C(C)(C)C

> <Shape>
0.308

> <Color>
0.167

> <Negative vol penalty>
0.000

$$$$

  -OEChem-04042320513D

 83 91  0     1  0  0  0  0  0999 V2000
  -30.2668  -19.4828   17.7846 C   0  0  0  0  0  0  0  0  0  0  0  0
  -30.5285  -18.8199   18.9783 C   0  0  0  0  0  0  0  0  0  0  0  0
  -26.6004  -28.3532   19.1491 C   0  0  0  0  0  0  0  0  0  0  0  0
  -26.0477  -26.3658   20.4069 C   0  0  0  0  0  0  0  0  0  0  0  0
  -29.2049  -20.3817   17.7093 C   0  0  0  0  0  0  0  0  0  0  0  0
  -29.7212  -19.0465   20.0936 C   0  0  0  0  0  0  0  0  0  0  0  0
  -22.8101  -17.1399   22.8967 C   0  0  0  0  0  0  0  0  0  0  0  0
  -22.4902  -19.6601   15.2938 C   0  0  0  0  0  0  0  0  0  0  0  0
  -23.7235  -18.7510   17.1619 C   0  0  0  0  0  0  0  0  0  0  0  0
  -21.2944  -19.4467   15.9794 C   0  0  0  0  0  0  0  0  0  0  0  0
  -22.5276  -18.5378   17.8476 C   0  0  0  0  0  0  0  0  0  0  0  0
  -25.8625  -29.1259   20.0457 C   0  0  0  0  0  0  0  0  0  0  0  0
  -25.3098  -27.1386   21.3036 C   0  0  0  0  0  0  0  0  0  0  0  0
  -21.6251  -16.8901   22.2059 C   0  0  0  0  0  0  0  0  0  0  0  0
  -26.2745  -30.4252   23.1400 C   0  0  0  0  0  0  0  0  0  0  0  0
  -26.8459  -31.6138   23.5944 C   0  0  0  0  0  0  0  0  0  0  0  0
  -22.8542  -15.6093   20.5725 C   0  0  0  0  0  0  0  0  0  0  0  0
  -24.9956  -32.8586   22.6648 C   0  0  0  0  0  0  0  0  0  0  0  0
  -26.6930  -26.9731   19.3297 C   0  0  0  0  0  0  0  0  0  0  0  0
  -28.8212  -25.8469   18.4871 C   0  0  0  0  0  0  0  0  0  0  0  0
  -28.3923  -20.6282   18.8282 C   0  0  0  0  0  0  0  0  0  0  0  0
  -24.0297  -16.6345   22.4238 C   0  0  0  0  0  0  0  0  0  0  0  0
  -28.6300  -19.9319   20.0308 C   0  0  0  0  0  0  0  0  0  0  0  0
  -24.0529  -15.8519   21.2606 C   0  0  0  0  0  0  0  0  0  0  0  0
  -23.7047  -19.3122   15.8850 C   0  0  0  0  0  0  0  0  0  0  0  0
  -21.3131  -18.8856   17.2563 C   0  0  0  0  0  0  0  0  0  0  0  0
  -25.2172  -28.5187   21.1230 C   0  0  0  0  0  0  0  0  0  0  0  0
  -21.6474  -16.1271   21.0421 C   0  0  0  0  0  0  0  0  0  0  0  0
  -25.0637  -30.4533   22.4480 C   0  0  0  0  0  0  0  0  0  0  0  0
  -26.2064  -32.8305   23.3568 C   0  0  0  0  0  0  0  0  0  0  0  0
  -24.4242  -31.6700   22.2104 C   0  0  0  0  0  0  0  0  0  0  0  0
  -27.4546  -26.1742   18.4035 C   0  0  0  0  0  0  0  0  0  0  0  0
  -29.0584  -25.0762   17.3753 C   0  0  0  0  0  0  0  0  0  0  0  0
  -29.7897  -26.2073   19.4811 C   0  0  0  0  0  0  0  0  0  0  0  0
  -26.7547  -17.9264   21.4194 C   0  0  0  0  0  0  0  0  0  0  0  0
  -27.7394  -14.8365   21.3455 C   0  0  0  0  0  0  0  0  0  0  0  0
  -26.9061  -11.5347   21.1202 C   0  0  0  0  0  0  0  0  0  0  0  0
  -25.5301  -21.6479   13.9623 C   0  0  0  0  0  0  0  0  0  0  0  0
  -27.2516  -21.6052   18.6888 C   0  0  0  0  0  0  0  0  0  0  0  0
  -25.2953  -16.8905   23.1951 C   0  0  0  0  0  0  0  0  0  0  0  0
  -25.3333  -15.2693   20.7222 C   0  0  0  0  0  0  0  0  0  0  0  0
  -26.7336  -22.1098   20.0317 C   0  0  0  0  0  0  0  0  0  0  0  0
  -27.5258  -24.3961   12.8942 C   0  0  0  0  0  0  0  0  0  0  0  0
  -26.4803  -20.9358   20.9655 C   0  0  0  0  0  0  0  0  0  0  0  0
  -27.8572  -25.1339   14.1926 C   0  0  0  0  0  0  0  0  0  0  0  0
  -26.1128  -23.8176   12.9187 C   0  0  0  0  0  0  0  0  0  0  0  0
  -26.1456  -23.6990   15.3801 C   0  0  0  0  0  0  0  0  0  0  0  0
  -27.7842  -20.1854   21.2655 C   0  0  1  0  0  0  0  0  0  0  0  0
  -26.5526  -16.7573   22.3414 C   0  0  1  0  0  0  0  0  0  0  0  0
  -27.5803  -24.2521   15.4250 C   0  0  2  0  0  0  0  0  0  0  0  0
  -27.9304   -9.2450   21.0489 C   0  0  0  0  0  0  0  0  0  0  0  0
  -28.5729  -15.3023   18.4475 C   0  0  0  0  0  0  0  0  0  0  0  0
  -28.6853  -12.8185   18.1538 C   0  0  0  0  0  0  0  0  0  0  0  0
  -30.1886  -13.9480   19.7930 C   0  0  0  0  0  0  0  0  0  0  0  0
  -25.5070  -10.7052   23.5928 C   0  0  0  0  0  0  0  0  0  0  0  0
  -19.0667  -16.7664   16.6896 C   0  0  0  0  0  0  0  0  0  0  0  0
  -24.9837  -19.5399   15.1526 C   0  0  0  0  0  0  0  0  0  0  0  0
  -20.0265  -18.6581   17.9938 C   0  0  0  0  0  0  0  0  0  0  0  0
  -18.6880  -16.9035   19.1472 C   0  0  0  0  0  0  0  0  0  0  0  0
  -19.4700  -16.8748   20.4456 C   0  0  0  0  0  0  0  0  0  1  0  0
  -27.7240  -13.7339   20.3145 C   0  0  1  0  0  0  0  0  0  0  0  0
  -27.3375  -10.3291   21.9354 C   0  0  2  0  0  0  0  0  0  0  0  0
  -28.7687  -13.9631   19.1860 C   0  0  0  0  0  0  0  0  0  0  0  0
  -26.8650  -25.6542   17.3237 N   0  0  0  0  0  0  0  0  0  0  0  0
  -27.8659  -24.9923   16.7186 N   0  0  0  0  0  0  0  0  0  0  0  0
  -26.5453  -15.5529   21.5085 N   0  0  0  0  0  0  0  0  0  0  0  0
  -25.9158  -22.9903   14.1114 N   0  0  0  0  0  0  0  0  0  0  0  0
  -30.1685  -24.4689   16.9050 N   0  0  0  0  0  0  0  0  0  0  0  0
  -29.3774  -27.0043   20.5577 N   0  0  0  0  0  0  0  0  0  0  0  0
  -27.4737  -18.9658   21.9781 N   0  0  0  0  0  0  0  0  0  0  0  0
  -27.9018  -12.4859   21.0488 N   0  0  0  0  0  0  0  0  0  0  0  0
  -25.3714  -20.9328   15.1431 N   0  0  0  0  0  0  0  0  0  0  0  0
  -26.1727   -9.7540   22.6659 N   0  3  0  0  0  0  0  0  0  0  0  0
  -19.6117  -17.2079   18.0254 N   0  3  1  0  0  0  0  0  0  0  0  0
  -30.9891  -25.8472   19.4078 O   0  0  0  0  0  0  0  0  0  0  0  0
  -26.2938  -17.8876   20.2846 O   0  0  0  0  0  0  0  0  0  0  0  0
  -28.7708  -15.0494   21.9879 O   0  0  0  0  0  0  0  0  0  0  0  0
  -25.7980  -11.6223   20.5958 O   0  0  0  0  0  0  0  0  0  0  0  0
  -25.3463  -21.1238   12.8584 O   0  0  0  0  0  0  0  0  0  0  0  0
  -24.4973  -29.2724   21.9982 O   0  0  0  0  0  0  0  0  0  0  0  0
  -20.4923  -15.8824   20.3655 O   0  0  0  0  0  0  0  0  0  1  0  0
  -26.7545  -33.9716   23.7945 F   0  0  0  0  0  0  0  0  0  0  0  0
  -23.2603  -31.7033   21.5472 F   0  0  0  0  0  0  0  0  0  0  0  0
  1  2  1  0  0  0  0
  1  5  2  0  0  0  0
  2  6  2  0  0  0  0
  3 12  2  0  0  0  0
  3 19  1  0  0  0  0
  4 13  1  0  0  0  0
  4 19  2  0  0  0  0
  5 21  1  0  0  0  0
  6 23  1  0  0  0  0
  7 14  2  0  0  0  0
  7 22  1  0  0  0  0
  8 10  2  0  0  0  0
  8 25  1  0  0  0  0
  9 11  1  0  0  0  0
  9 25  2  0  0  0  0
 10 26  1  0  0  0  0
 11 26  2  0  0  0  0
 12 27  1  0  0  0  0
 13 27  2  0  0  0  0
 14 28  1  0  0  0  0
 15 16  2  0  0  0  0
 15 29  1  0  0  0  0
 16 30  1  0  0  0  0
 17 24  1  0  0  0  0
 17 28  2  0  0  0  0
 18 30  2  0  0  0  0
 18 31  1  0  0  0  0
 19 32  1  0  0  0  0
 20 32  1  0  0  0  0
 20 33  2  0  0  0  0
 20 34  1  0  0  0  0
 21 23  2  0  0  0  0
 21 39  1  0  0  0  0
 22 24  2  0  0  0  0
 22 40  1  0  0  0  0
 23 48  1  0  0  0  0
 24 41  1  0  0  0  0
 25 57  1  0  0  0  0
 26 58  1  0  0  0  0
 27 80  1  0  0  0  0
 28 81  1  0  0  0  0
 29 31  2  0  0  0  0
 29 80  1  0  0  0  0
 30 82  1  0  0  0  0
 31 83  1  0  0  0  0
 32 64  2  0  0  0  0
 33 65  1  0  0  0  0
 33 68  1  0  0  0  0
 34 69  1  0  0  0  0
 34 75  2  0  0  0  0
 35 49  1  0  0  0  0
 35 70  1  0  0  0  0
 35 76  2  0  0  0  0
 36 61  1  0  0  0  0
 36 66  1  0  0  0  0
 36 77  2  0  0  0  0
 37 62  1  0  0  0  0
 37 71  1  0  0  0  0
 37 78  2  0  0  0  0
 38 67  1  0  0  0  0
 38 72  1  0  0  0  0
 38 79  2  0  0  0  0
 39 42  1  0  0  0  0
 40 49  1  0  0  0  0
 41 66  1  0  0  0  0
 42 44  1  0  0  0  0
 43 45  1  0  0  0  0
 43 46  1  0  0  0  0
 44 48  1  0  0  0  0
 45 50  1  0  0  0  0
 46 67  1  0  0  0  0
 47 50  1  0  0  0  0
 47 67  1  0  0  0  0
 48 70  1  0  0  0  0
 49 66  1  0  0  0  0
 50 65  1  0  0  0  0
 51 62  1  0  0  0  0
 52 63  1  0  0  0  0
 53 63  1  0  0  0  0
 54 63  1  0  0  0  0
 55 73  1  0  0  0  0
 56 74  1  0  0  0  0
 57 72  1  0  0  0  0
 58 74  1  0  0  0  0
 59 60  1  0  0  0  0
 59 74  1  0  0  0  0
 60 81  1  0  0  0  0
 61 63  1  0  0  0  0
 61 71  1  0  0  0  0
 62 73  1  0  0  0  0
 64 65  1  0  0  0  0
M  CHG  2  73   1  74   1
M  ISO  4  38 100  60 101  72 100  81 101
M  END
> <Batch ID>
0014

> <Smiles>
CNC(C)C(=O)NC(C(=O)N1Cc2cc([101O:1][101CH2:1]CN(C)Cc3ccc(C[100NH:0][100C:0](=O)N4CCCC(n5nc(-c6ccc(Oc7ccc(F)cc7F)cc6)c(C(N)=O)c5N)C4)cc3)ccc2CC1C(=O)NC1CCCc2ccccc21)C(C)(C)C

> <Shape>
0.202

> <Color>
0.047

> <Negative vol penalty>
0.000

$$$$

  -OEChem-04042320513D

 83 91  0     1  0  0  0  0  0999 V2000
  -27.7651  -24.0178   17.1536 C   0  0  0  0  0  0  0  0  0  0  0  0
  -26.5732  -24.3487   17.7902 C   0  0  0  0  0  0  0  0  0  0  0  0
  -26.5603  -16.8264   21.9762 C   0  0  0  0  0  0  0  0  0  0  0  0
  -24.3440  -15.8908   21.7535 C   0  0  0  0  0  0  0  0  0  0  0  0
  -28.9806  -24.4456   17.6860 C   0  0  0  0  0  0  0  0  0  0  0  0
  -26.5962  -25.1067   18.9604 C   0  0  0  0  0  0  0  0  0  0  0  0
  -23.1238  -28.7928   18.9558 C   0  0  0  0  0  0  0  0  0  0  0  0
  -21.9970  -24.3896   24.8881 C   0  0  0  0  0  0  0  0  0  0  0  0
  -27.1147  -15.5654   21.7565 C   0  0  0  0  0  0  0  0  0  0  0  0
  -24.8983  -14.6298   21.5338 C   0  0  0  0  0  0  0  0  0  0  0  0
  -21.8063  -28.4268   19.2274 C   0  0  0  0  0  0  0  0  0  0  0  0
  -20.9262  -24.4746   23.9984 C   0  0  0  0  0  0  0  0  0  0  0  0
  -27.7437  -13.5462   19.1183 C   0  0  0  0  0  0  0  0  0  0  0  0
  -28.8205  -13.4563   18.2363 C   0  0  0  0  0  0  0  0  0  0  0  0
  -22.0709  -29.1851   21.5021 C   0  0  0  0  0  0  0  0  0  0  0  0
  -23.5084  -25.0835   23.1357 C   0  0  0  0  0  0  0  0  0  0  0  0
  -30.1994  -12.5687   20.0106 C   0  0  0  0  0  0  0  0  0  0  0  0
  -25.1749  -16.9891   21.9748 C   0  0  0  0  0  0  0  0  0  0  0  0
  -24.2885  -19.2633   21.2333 C   0  0  0  0  0  0  0  0  0  0  0  0
  -29.0180  -25.2174   18.8580 C   0  0  0  0  0  0  0  0  0  0  0  0
  -23.9296  -29.3487   19.9599 C   0  0  0  0  0  0  0  0  0  0  0  0
  -27.8134  -25.5441   19.5097 C   0  0  0  0  0  0  0  0  0  0  0  0
  -23.3976  -29.5597   21.2400 C   0  0  0  0  0  0  0  0  0  0  0  0
  -23.2882  -24.6941   24.4568 C   0  0  0  0  0  0  0  0  0  0  0  0
  -26.2837  -14.4672   21.5352 C   0  0  0  0  0  0  0  0  0  0  0  0
  -21.2805  -28.6202   20.5015 C   0  0  0  0  0  0  0  0  0  0  0  0
  -27.8946  -13.1475   20.4464 C   0  0  0  0  0  0  0  0  0  0  0  0
  -21.1465  -24.8641   22.6772 C   0  0  0  0  0  0  0  0  0  0  0  0
  -30.0484  -12.9675   18.6825 C   0  0  0  0  0  0  0  0  0  0  0  0
  -22.4376  -25.1685   22.2458 C   0  0  0  0  0  0  0  0  0  0  0  0
  -29.1225  -12.6587   20.8925 C   0  0  0  0  0  0  0  0  0  0  0  0
  -24.6017  -18.2913   22.2022 C   0  0  0  0  0  0  0  0  0  0  0  0
  -23.7723  -20.3125   21.9538 C   0  0  0  0  0  0  0  0  0  0  0  0
  -24.4496  -19.2215   19.8092 C   0  0  0  0  0  0  0  0  0  0  0  0
  -26.6327  -28.4933   21.3969 C   0  0  0  0  0  0  0  0  0  0  0  0
  -26.3666  -31.4161   22.7785 C   0  0  0  0  0  0  0  0  0  0  0  0
  -24.3491  -34.0019   23.7218 C   0  0  0  0  0  0  0  0  0  0  0  0
  -24.4327  -23.7036   26.4568 C   0  0  0  0  0  0  0  0  0  0  0  0
  -30.3586  -25.6168   19.4217 C   0  0  0  0  0  0  0  0  0  0  0  0
  -25.3405  -29.7630   19.6436 C   0  0  0  0  0  0  0  0  0  0  0  0
  -24.2147  -30.1715   22.3474 C   0  0  0  0  0  0  0  0  0  0  0  0
  -30.2749  -26.7334   20.4592 C   0  0  0  0  0  0  0  0  0  0  0  0
  -22.3590  -20.6566   26.7860 C   0  0  0  0  0  0  0  0  0  0  0  0
  -29.1615  -26.4480   21.4621 C   0  0  0  0  0  0  0  0  0  0  0  0
  -22.7978  -19.8165   25.5881 C   0  0  0  0  0  0  0  0  0  0  0  0
  -23.4763  -21.5736   27.2744 C   0  0  0  0  0  0  0  0  0  0  0  0
  -24.4702  -21.6177   25.0047 C   0  0  0  0  0  0  0  0  0  0  0  0
  -27.7959  -26.3858   20.7673 C   0  0  1  0  0  0  0  0  0  0  0  0
  -26.2304  -29.8455   20.8800 C   0  0  1  0  0  0  0  0  0  0  0  0
  -23.3492  -20.7147   24.4686 C   0  0  1  0  0  0  0  0  0  0  0  0
  -24.4136  -36.2355   24.8637 C   0  0  0  0  0  0  0  0  0  0  0  0
  -26.6291  -30.0242   25.4810 C   0  0  0  0  0  0  0  0  0  0  0  0
  -25.7496  -32.1052   26.5599 C   0  0  0  0  0  0  0  0  0  0  0  0
  -27.8939  -32.1729   25.2871 C   0  0  0  0  0  0  0  0  0  0  0  0
  -25.3993  -25.6676   25.3433 C   0  0  0  0  0  0  0  0  0  0  0  0
  -23.3460  -35.3936   21.3102 C   0  0  0  0  0  0  0  0  0  0  0  0
  -18.4349  -26.4255   20.8739 C   0  0  0  0  0  0  0  0  0  0  0  0
  -19.4568  -27.1690   20.0282 C   0  0  0  0  0  0  0  0  0  1  0  0
  -19.0521  -25.8550   22.1411 C   0  0  0  0  0  0  0  0  0  0  0  0
  -25.7121  -31.9519   24.0289 C   0  0  1  0  0  0  0  0  0  0  0  0
  -24.4801  -35.5024   23.5330 C   0  0  2  0  0  0  0  0  0  0  0  0
  -26.4811  -31.5502   25.3191 C   0  0  0  0  0  0  0  0  0  0  0  0
  -24.3091  -18.6878   23.4437 N   0  0  0  0  0  0  0  0  0  0  0  0
  -23.8067  -19.9206   23.2597 N   0  0  0  0  0  0  0  0  0  0  0  0
  -25.5908  -30.5542   21.9904 N   0  0  0  0  0  0  0  0  0  0  0  0
  -24.0322  -22.3791   26.1859 N   0  0  0  0  0  0  0  0  0  0  0  0
  -23.2970  -21.5229   21.5914 N   0  0  0  0  0  0  0  0  0  0  0  0
  -24.9958  -18.0668   19.2322 N   0  0  0  0  0  0  0  0  0  0  0  0
  -27.3151  -27.7197   20.4774 N   0  0  0  0  0  0  0  0  0  0  0  0
  -25.5805  -33.3920   23.8356 N   0  0  0  0  0  0  0  0  0  0  0  0
  -24.3956  -24.6062   25.3769 N   0  0  0  0  0  0  0  0  0  0  0  0
  -23.3849  -36.0123   22.6603 N   0  3  0  0  0  0  0  0  0  0  0  0
  -24.1344  -20.1860   19.0718 O   0  0  0  0  0  0  0  0  0  0  0  0
  -26.3466  -28.1759   22.5454 O   0  0  0  0  0  0  0  0  0  0  0  0
  -27.5211  -31.7555   22.5072 O   0  0  0  0  0  0  0  0  0  0  0  0
  -23.2629  -33.4286   23.7678 O   0  0  0  0  0  0  0  0  0  0  0  0
  -24.8484  -24.0467   27.5704 O   0  0  0  0  0  0  0  0  0  0  0  0
  -26.8243  -13.2366   21.3205 O   0  0  0  0  0  0  0  0  0  0  0  0
  -19.9950  -28.2631   20.7695 O   0  0  0  0  0  0  0  0  0  1  0  0
  -20.0930  -24.9477   21.8044 O   0  0  0  0  0  0  0  0  0  0  0  0
  -31.0820  -12.8797   17.8351 F   0  0  0  0  0  0  0  0  0  0  0  0
  -22.6553  -25.5444   20.9781 F   0  0  0  0  0  0  0  0  0  0  0  0
  -29.2733  -12.2729   22.1670 F   0  0  0  0  0  0  0  0  0  0  0  0
  1  2  1  0  0  0  0
  1  5  2  0  0  0  0
  2  6  2  0  0  0  0
  3  9  2  0  0  0  0
  3 18  1  0  0  0  0
  4 10  1  0  0  0  0
  4 18  2  0  0  0  0
  5 20  1  0  0  0  0
  6 22  1  0  0  0  0
  7 11  2  0  0  0  0
  7 21  1  0  0  0  0
  8 12  2  0  0  0  0
  8 24  1  0  0  0  0
  9 25  1  0  0  0  0
 10 25  2  0  0  0  0
 11 26  1  0  0  0  0
 12 28  1  0  0  0  0
 13 14  2  0  0  0  0
 13 27  1  0  0  0  0
 14 29  1  0  0  0  0
 15 23  1  0  0  0  0
 15 26  2  0  0  0  0
 16 24  2  0  0  0  0
 16 30  1  0  0  0  0
 17 29  2  0  0  0  0
 17 31  1  0  0  0  0
 18 32  1  0  0  0  0
 19 32  1  0  0  0  0
 19 33  2  0  0  0  0
 19 34  1  0  0  0  0
 20 22  2  0  0  0  0
 20 39  1  0  0  0  0
 21 23  2  0  0  0  0
 21 40  1  0  0  0  0
 22 48  1  0  0  0  0
 23 41  1  0  0  0  0
 24 71  1  0  0  0  0
 25 78  1  0  0  0  0
 26 79  1  0  0  0  0
 27 31  2  0  0  0  0
 27 78  1  0  0  0  0
 28 30  2  0  0  0  0
 28 80  1  0  0  0  0
 29 81  1  0  0  0  0
 30 82  1  0  0  0  0
 31 83  1  0  0  0  0
 32 63  2  0  0  0  0
 33 64  1  0  0  0  0
 33 67  1  0  0  0  0
 34 68  1  0  0  0  0
 34 73  2  0  0  0  0
 35 49  1  0  0  0  0
 35 69  1  0  0  0  0
 35 74  2  0  0  0  0
 36 60  1  0  0  0  0
 36 65  1  0  0  0  0
 36 75  2  0  0  0  0
 37 61  1  0  0  0  0
 37 70  1  0  0  0  0
 37 76  2  0  0  0  0
 38 66  1  0  0  0  0
 38 71  1  0  0  0  0
 38 77  2  0  0  0  0
 39 42  1  0  0  0  0
 40 49  1  0  0  0  0
 41 65  1  0  0  0  0
 42 44  1  0  0  0  0
 43 45  1  0  0  0  0
 43 46  1  0  0  0  0
 44 48  1  0  0  0  0
 45 50  1  0  0  0  0
 46 66  1  0  0  0  0
 47 50  1  0  0  0  0
 47 66  1  0  0  0  0
 48 69  1  0  0  0  0
 49 65  1  0  0  0  0
 50 64  1  0  0  0  0
 51 61  1  0  0  0  0
 52 62  1  0  0  0  0
 53 62  1  0  0  0  0
 54 62  1  0  0  0  0
 55 71  1  0  0  0  0
 56 72  1  0  0  0  0
 57 58  1  0  0  0  0
 57 59  1  0  0  0  0
 58 79  1  0  0  0  0
 59 80  1  0  0  0  0
 60 62  1  0  0  0  0
 60 70  1  0  0  0  0
 61 72  1  0  0  0  0
 63 64  1  0  0  0  0
M  CHG  1  72   1
M  ISO  4  38 100  58 101  71 100  79 101
M  END
> <Batch ID>
0014

> <Smiles>
CNC(C)C(=O)NC(C(=O)N1Cc2cc([101O:1][101CH2:1]CCOc3ccc([100N:0](C)[100C:0](=O)N4CCCC(n5nc(-c6ccc(Oc7ccc(F)cc7F)cc6)c(C(N)=O)c5N)C4)cc3F)ccc2CC1C(=O)NC1CCCc2ccccc21)C(C)(C)C

> <Shape>
0.259

> <Color>
0.073

> <Negative vol penalty>
0.000

$$$$

  -OEChem-04042320513D

 84 92  0     1  0  0  0  0  0999 V2000
  -29.8678   -2.0832   36.8256 C   0  0  0  0  0  0  0  0  0  0  0  0
  -29.8000   -2.9386   35.7306 C   0  0  0  0  0  0  0  0  0  0  0  0
  -23.2846   -9.7975   19.9080 C   0  0  0  0  0  0  0  0  0  0  0  0
  -23.7225   -9.9368   22.2799 C   0  0  0  0  0  0  0  0  0  0  0  0
  -28.6956   -1.5915   37.3984 C   0  0  0  0  0  0  0  0  0  0  0  0
  -28.5597   -3.3021   35.2070 C   0  0  0  0  0  0  0  0  0  0  0  0
  -27.0427   -8.6994   32.7426 C   0  0  0  0  0  0  0  0  0  0  0  0
  -28.4291  -11.5084   25.2454 C   0  0  0  0  0  0  0  0  0  0  0  0
  -28.4860  -10.3588   23.1212 C   0  0  0  0  0  0  0  0  0  0  0  0
  -27.7612  -10.4241   25.8143 C   0  0  0  0  0  0  0  0  0  0  0  0
  -27.8181   -9.2744   23.6902 C   0  0  0  0  0  0  0  0  0  0  0  0
  -22.5525   -8.6278   20.1119 C   0  0  0  0  0  0  0  0  0  0  0  0
  -22.9904   -8.7671   22.4838 C   0  0  0  0  0  0  0  0  0  0  0  0
  -26.9560   -9.1361   31.4214 C   0  0  0  0  0  0  0  0  0  0  0  0
  -19.7387   -7.8687   22.6830 C   0  0  0  0  0  0  0  0  0  0  0  0
  -18.8303   -7.8507   23.7413 C   0  0  0  0  0  0  0  0  0  0  0  0
  -24.5870   -8.6809   31.4327 C   0  0  0  0  0  0  0  0  0  0  0  0
  -20.0233   -5.9990   24.7339 C   0  0  0  0  0  0  0  0  0  0  0  0
  -23.8696  -10.4519   20.9921 C   0  0  0  0  0  0  0  0  0  0  0  0
  -24.1400  -12.9809   20.7945 C   0  0  0  0  0  0  0  0  0  0  0  0
  -27.4401   -1.9568   36.8876 C   0  0  0  0  0  0  0  0  0  0  0  0
  -25.9022   -8.2391   33.4164 C   0  0  0  0  0  0  0  0  0  0  0  0
  -27.3696   -2.8138   35.7726 C   0  0  0  0  0  0  0  0  0  0  0  0
  -24.6614   -8.2413   32.7633 C   0  0  0  0  0  0  0  0  0  0  0  0
  -28.7915  -11.4758   23.8987 C   0  0  0  0  0  0  0  0  0  0  0  0
  -27.4557   -9.3071   25.0368 C   0  0  0  0  0  0  0  0  0  0  0  0
  -22.4054   -8.1126   21.3998 C   0  0  0  0  0  0  0  0  0  0  0  0
  -25.7286   -9.1242   30.7653 C   0  0  0  0  0  0  0  0  0  0  0  0
  -20.7894   -6.9518   22.6500 C   0  0  0  0  0  0  0  0  0  0  0  0
  -18.9726   -6.9159   24.7667 C   0  0  0  0  0  0  0  0  0  0  0  0
  -20.9317   -6.0170   23.6755 C   0  0  0  0  0  0  0  0  0  0  0  0
  -24.6265  -11.6599   20.7821 C   0  0  0  0  0  0  0  0  0  0  0  0
  -25.2459  -13.7565   20.5456 C   0  0  0  0  0  0  0  0  0  0  0  0
  -22.8075  -13.4637   21.0117 C   0  0  0  0  0  0  0  0  0  0  0  0
  -25.0315   -5.4755   34.7233 C   0  0  0  0  0  0  0  0  0  0  0  0
  -22.4723   -7.2006   35.7218 C   0  0  0  0  0  0  0  0  0  0  0  0
  -20.4424   -9.9047   35.2594 C   0  0  0  0  0  0  0  0  0  0  0  0
  -31.1496  -12.3509   21.3872 C   0  0  0  0  0  0  0  0  0  0  0  0
  -26.2020   -1.3624   37.5107 C   0  0  0  0  0  0  0  0  0  0  0  0
  -26.0076   -7.7965   34.8501 C   0  0  0  0  0  0  0  0  0  0  0  0
  -23.4036   -7.7759   33.4487 C   0  0  0  0  0  0  0  0  0  0  0  0
  -24.9172   -2.0935   37.1297 C   0  0  0  0  0  0  0  0  0  0  0  0
  -29.4877  -13.6547   18.3475 C   0  0  0  0  0  0  0  0  0  0  0  0
  -24.8769   -2.3545   35.6274 C   0  0  0  0  0  0  0  0  0  0  0  0
  -28.0171  -13.3328   18.6079 C   0  0  0  0  0  0  0  0  0  0  0  0
  -30.4170  -12.6711   19.0522 C   0  0  0  0  0  0  0  0  0  0  0  0
  -28.6994  -12.2294   20.7753 C   0  0  0  0  0  0  0  0  0  0  0  0
  -26.0424   -3.2508   35.1916 C   0  0  1  0  0  0  0  0  0  0  0  0
  -24.8755   -6.8653   35.2727 C   0  0  1  0  0  0  0  0  0  0  0  0
  -27.7370  -13.2295   20.1172 C   0  0  2  0  0  0  0  0  0  0  0  0
  -18.4121  -11.0298   36.2130 C   0  0  0  0  0  0  0  0  0  0  0  0
  -20.6974   -5.0672   34.4536 C   0  0  0  0  0  0  0  0  0  0  0  0
  -18.7849   -6.6772   34.5889 C   0  0  0  0  0  0  0  0  0  0  0  0
  -19.9058   -5.8966   36.6762 C   0  0  0  0  0  0  0  0  0  0  0  0
  -26.4659   -7.0444   24.7913 C   0  0  0  0  0  0  0  0  0  0  0  0
  -31.8627  -12.0559   23.7290 C   0  0  0  0  0  0  0  0  0  0  0  0
  -21.9521  -12.3786   35.8592 C   0  0  0  0  0  0  0  0  0  0  0  0
  -29.5053  -12.6348   23.2894 C   0  0  0  0  0  0  0  0  0  0  0  0
  -25.1026   -8.9645   27.2113 C   0  0  0  0  0  0  0  0  0  0  0  0
  -26.4098   -8.2097   27.0020 C   0  0  0  0  0  0  0  0  0  0  0  0
  -24.6335   -8.9512   28.6614 C   0  0  0  0  0  0  0  0  0  1  0  0
  -21.1096   -7.5176   35.1547 C   0  0  1  0  0  0  0  0  0  0  0  0
  -19.9311  -10.9575   36.2262 C   0  0  2  0  0  0  0  0  0  0  0  0
  -20.1483   -6.2967   35.2045 C   0  0  0  0  0  0  0  0  0  0  0  0
  -25.9392  -11.5961   20.5439 N   0  0  0  0  0  0  0  0  0  0  0  0
  -26.2869  -12.8867   20.4044 N   0  0  0  0  0  0  0  0  0  0  0  0
  -23.5593   -7.3469   34.8484 N   0  0  0  0  0  0  0  0  0  0  0  0
  -30.1009  -12.5599   20.4766 N   0  0  0  0  0  0  0  0  0  0  0  0
  -25.4196  -15.0907   20.4359 N   0  0  0  0  0  0  0  0  0  0  0  0
  -21.7900  -12.5308   21.2536 N   0  0  0  0  0  0  0  0  0  0  0  0
  -25.7716   -4.6317   35.5293 N   0  0  0  0  0  0  0  0  0  0  0  0
  -20.6276   -8.6877   35.8806 N   0  0  0  0  0  0  0  0  0  0  0  0
  -26.7858   -8.2161   25.6089 N   0  0  3  0  0  0  0  0  0  0  0  0
  -30.8090  -12.2608   22.7454 N   0  0  0  0  0  0  0  0  0  0  0  0
  -20.4686  -12.2991   35.8629 N   0  3  0  0  0  0  0  0  0  0  0  0
  -22.5246  -14.6852   20.9756 O   0  0  0  0  0  0  0  0  0  0  0  0
  -24.5171   -5.1895   33.6485 O   0  0  0  0  0  0  0  0  0  0  0  0
  -22.5694   -6.8434   36.8985 O   0  0  0  0  0  0  0  0  0  0  0  0
  -20.6527  -10.1376   34.0711 O   0  0  0  0  0  0  0  0  0  0  0  0
  -32.3246  -12.2600   21.0088 O   0  0  0  0  0  0  0  0  0  0  0  0
  -21.6909   -6.9715   21.5991 O   0  0  0  0  0  0  0  0  0  0  0  0
  -25.6413   -9.5493   29.4756 O   0  0  0  0  0  0  0  0  0  1  0  0
  -18.1010   -6.8998   25.7838 F   0  0  0  0  0  0  0  0  0  0  0  0
  -21.9398   -5.1344   23.6500 F   0  0  0  0  0  0  0  0  0  0  0  0
  1  2  1  0  0  0  0
  1  5  2  0  0  0  0
  2  6  2  0  0  0  0
  3 12  2  0  0  0  0
  3 19  1  0  0  0  0
  4 13  1  0  0  0  0
  4 19  2  0  0  0  0
  5 21  1  0  0  0  0
  6 23  1  0  0  0  0
  7 14  2  0  0  0  0
  7 22  1  0  0  0  0
  8 10  2  0  0  0  0
  8 25  1  0  0  0  0
  9 11  1  0  0  0  0
  9 25  2  0  0  0  0
 10 26  1  0  0  0  0
 11 26  2  0  0  0  0
 12 27  1  0  0  0  0
 13 27  2  0  0  0  0
 14 28  1  0  0  0  0
 15 16  2  0  0  0  0
 15 29  1  0  0  0  0
 16 30  1  0  0  0  0
 17 24  1  0  0  0  0
 17 28  2  0  0  0  0
 18 30  2  0  0  0  0
 18 31  1  0  0  0  0
 19 32  1  0  0  0  0
 20 32  1  0  0  0  0
 20 33  2  0  0  0  0
 20 34  1  0  0  0  0
 21 23  2  0  0  0  0
 21 39  1  0  0  0  0
 22 24  2  0  0  0  0
 22 40  1  0  0  0  0
 23 48  1  0  0  0  0
 24 41  1  0  0  0  0
 25 58  1  0  0  0  0
 26 73  1  0  0  0  0
 27 81  1  0  0  0  0
 28 82  1  0  0  0  0
 29 31  2  0  0  0  0
 29 81  1  0  0  0  0
 30 83  1  0  0  0  0
 31 84  1  0  0  0  0
 32 65  2  0  0  0  0
 33 66  1  0  0  0  0
 33 69  1  0  0  0  0
 34 70  1  0  0  0  0
 34 76  2  0  0  0  0
 35 49  1  0  0  0  0
 35 71  1  0  0  0  0
 35 77  2  0  0  0  0
 36 62  1  0  0  0  0
 36 67  1  0  0  0  0
 36 78  2  0  0  0  0
 37 63  1  0  0  0  0
 37 72  1  0  0  0  0
 37 79  2  0  0  0  0
 38 68  1  0  0  0  0
 38 74  1  0  0  0  0
 38 80  2  0  0  0  0
 39 42  1  0  0  0  0
 40 49  1  0  0  0  0
 41 67  1  0  0  0  0
 42 44  1  0  0  0  0
 43 45  1  0  0  0  0
 43 46  1  0  0  0  0
 44 48  1  0  0  0  0
 45 50  1  0  0  0  0
 46 68  1  0  0  0  0
 47 50  1  0  0  0  0
 47 68  1  0  0  0  0
 48 71  1  0  0  0  0
 49 67  1  0  0  0  0
 50 66  1  0  0  0  0
 51 63  1  0  0  0  0
 52 64  1  0  0  0  0
 53 64  1  0  0  0  0
 54 64  1  0  0  0  0
 55 73  1  0  0  0  0
 56 74  1  0  0  0  0
 57 75  1  0  0  0  0
 58 74  1  0  0  0  0
 59 60  1  0  0  0  0
 59 61  1  0  0  0  0
 60 73  1  0  0  0  0
 61 82  1  0  0  0  0
 62 64  1  0  0  0  0
 62 72  1  0  0  0  0
 63 75  1  0  0  0  0
 65 66  1  0  0  0  0
M  CHG  1  75   1
M  ISO  4  38 100  61 101  74 100  82 101
M  END
> <Batch ID>
0014

> <Smiles>
CNC(C)C(=O)NC(C(=O)N1Cc2cc([101O:1][101CH2:1]CCN(C)c3ccc(C[100N:0](C)[100C:0](=O)N4CCCC(n5nc(-c6ccc(Oc7ccc(F)cc7F)cc6)c(C(N)=O)c5N)C4)cc3)ccc2CC1C(=O)NC1CCCc2ccccc21)C(C)(C)C

> <Shape>
0.132

> <Color>
0.185

> <Negative vol penalty>
0.000

$$$$

  -OEChem-04042320513D

 85 93  0     1  0  0  0  0  0999 V2000
  -16.8325  -28.9334   24.2448 C   0  0  0  0  0  0  0  0  0  0  0  0
  -17.2348  -28.1415   23.1741 C   0  0  0  0  0  0  0  0  0  0  0  0
  -25.8268  -14.0525   20.6700 C   0  0  0  0  0  0  0  0  0  0  0  0
  -23.4974  -13.9081   21.2946 C   0  0  0  0  0  0  0  0  0  0  0  0
  -17.5580  -30.0772   24.5757 C   0  0  0  0  0  0  0  0  0  0  0  0
  -18.3622  -28.4935   22.4329 C   0  0  0  0  0  0  0  0  0  0  0  0
  -22.3958  -24.6872   19.8350 C   0  0  0  0  0  0  0  0  0  0  0  0
  -28.4576  -21.3435   18.9565 C   0  0  0  0  0  0  0  0  0  0  0  0
  -28.5872  -21.0129   20.3054 C   0  0  0  0  0  0  0  0  0  0  0  0
  -26.0052  -12.7157   21.0260 C   0  0  0  0  0  0  0  0  0  0  0  0
  -23.6758  -12.5712   21.6506 C   0  0  0  0  0  0  0  0  0  0  0  0
  -22.5349  -24.2160   18.5303 C   0  0  0  0  0  0  0  0  0  0  0  0
  -23.9024   -9.5865   20.0819 C   0  0  0  0  0  0  0  0  0  0  0  0
  -22.9397   -8.6706   19.6579 C   0  0  0  0  0  0  0  0  0  0  0  0
  -24.1555  -25.9463   18.0845 C   0  0  0  0  0  0  0  0  0  0  0  0
  -26.6754  -22.8800   19.5045 C   0  0  0  0  0  0  0  0  0  0  0  0
  -22.4675   -8.1019   21.9581 C   0  0  0  0  0  0  0  0  0  0  0  0
  -24.5729  -14.6487   20.8043 C   0  0  0  0  0  0  0  0  0  0  0  0
  -24.0184  -16.5317   19.1751 C   0  0  0  0  0  0  0  0  0  0  0  0
  -18.7005  -30.4381   23.8442 C   0  0  0  0  0  0  0  0  0  0  0  0
  -23.1287  -25.8002   20.2717 C   0  0  0  0  0  0  0  0  0  0  0  0
  -19.1029  -29.6438   22.7535 C   0  0  0  0  0  0  0  0  0  0  0  0
  -24.0258  -26.4281   19.3960 C   0  0  0  0  0  0  0  0  0  0  0  0
  -27.5017  -22.2772   18.5561 C   0  0  0  0  0  0  0  0  0  0  0  0
  -27.7610  -21.6157   21.2538 C   0  0  0  0  0  0  0  0  0  0  0  0
  -24.9297  -11.9750   21.5163 C   0  0  0  0  0  0  0  0  0  0  0  0
  -23.4127  -24.8472   17.6539 C   0  0  0  0  0  0  0  0  0  0  0  0
  -24.1477   -9.7602   21.4441 C   0  0  0  0  0  0  0  0  0  0  0  0
  -22.2223   -7.9283   20.5959 C   0  0  0  0  0  0  0  0  0  0  0  0
  -26.8051  -22.5493   20.8534 C   0  0  0  0  0  0  0  0  0  0  0  0
  -23.4303   -9.0179   22.3821 C   0  0  0  0  0  0  0  0  0  0  0  0
  -24.3882  -16.0297   20.4373 C   0  0  0  0  0  0  0  0  0  0  0  0
  -23.9788  -17.8940   19.3456 C   0  0  0  0  0  0  0  0  0  0  0  0
  -23.7359  -15.8294   17.9575 C   0  0  0  0  0  0  0  0  0  0  0  0
  -22.3819  -28.7012   21.3347 C   0  0  0  0  0  0  0  0  0  0  0  0
  -25.5755  -28.9033   21.8659 C   0  0  0  0  0  0  0  0  0  0  0  0
  -28.7168  -27.8240   21.0824 C   0  0  0  0  0  0  0  0  0  0  0  0
  -26.8244  -21.3029   23.5595 C   0  0  0  0  0  0  0  0  0  0  0  0
  -19.4251  -31.7092   24.2100 C   0  0  0  0  0  0  0  0  0  0  0  0
  -22.9871  -26.2798   21.6903 C   0  0  0  0  0  0  0  0  0  0  0  0
  -24.8508  -27.6141   19.8218 C   0  0  0  0  0  0  0  0  0  0  0  0
  -20.8244  -31.8075   23.6078 C   0  0  0  0  0  0  0  0  0  0  0  0
  -23.2352  -21.2568   22.6603 C   0  0  0  0  0  0  0  0  0  0  0  0
  -20.7976  -31.4287   22.1304 C   0  0  0  0  0  0  0  0  0  0  0  0
  -23.0796  -19.9112   21.9540 C   0  0  0  0  0  0  0  0  0  0  0  0
  -24.3554  -21.2268   23.6956 C   0  0  0  0  0  0  0  0  0  0  0  0
  -25.5153  -19.4396   22.4299 C   0  0  0  0  0  0  0  0  0  0  0  0
  -20.3348  -29.9790   21.9409 C   0  0  1  0  0  0  0  0  0  0  0  0
  -23.4009  -27.7368   21.8725 C   0  0  1  0  0  0  0  0  0  0  0  0
  -24.4198  -19.4557   21.3534 C   0  0  1  0  0  0  0  0  0  0  0  0
  -31.2104  -27.5974   21.2499 C   0  0  0  0  0  0  0  0  0  0  0  0
  -25.5554  -31.4867   20.2424 C   0  0  0  0  0  0  0  0  0  0  0  0
  -28.0444  -31.3007   20.0460 C   0  0  0  0  0  0  0  0  0  0  0  0
  -26.9876  -31.5534   22.2915 C   0  0  0  0  0  0  0  0  0  0  0  0
  -29.2468  -21.1358   23.1910 C   0  0  0  0  0  0  0  0  0  0  0  0
  -28.5008  -25.6025   23.0259 C   0  0  0  0  0  0  0  0  0  0  0  0
  -26.3460  -20.5402   16.2144 C   0  0  0  0  0  0  0  0  0  0  0  0
  -27.3613  -22.6322   17.1051 C   0  0  0  0  0  0  0  0  0  0  0  0
  -24.2211  -22.5440   15.0026 C   0  0  0  0  0  0  0  0  0  0  0  0
  -25.7096  -22.7440   15.2450 C   0  0  0  0  0  0  0  0  0  0  0  0
  -23.3448  -22.9938   16.1652 C   0  0  0  0  0  0  0  0  0  1  0  0
  -26.7670  -29.3576   21.0579 C   0  0  1  0  0  0  0  0  0  0  0  0
  -29.8797  -27.3893   21.9560 C   0  0  2  0  0  0  0  0  0  0  0  0
  -26.8218  -30.9035   20.9005 C   0  0  0  0  0  0  0  0  0  0  0  0
  -24.5707  -16.9946   21.3427 N   0  0  0  0  0  0  0  0  0  0  0  0
  -24.3146  -18.1165   20.6487 N   0  0  0  0  0  0  0  0  0  0  0  0
  -24.6724  -28.0495   21.2168 N   0  0  0  0  0  0  0  0  0  0  0  0
  -25.6097  -20.7343   23.1241 N   0  0  0  0  0  0  0  0  0  0  0  0
  -23.6900  -18.9113   18.5065 N   0  0  0  0  0  0  0  0  0  0  0  0
  -23.8234  -14.4306   17.9573 N   0  0  0  0  0  0  0  0  0  0  0  0
  -21.4102  -29.0608   22.2490 N   0  0  0  0  0  0  0  0  0  0  0  0
  -27.9416  -28.7806   21.7028 N   0  0  0  0  0  0  0  0  0  0  0  0
  -27.8970  -21.2714   22.6480 N   0  0  0  0  0  0  0  0  0  0  0  0
  -29.7538  -25.9461   22.3056 N   0  3  0  0  0  0  0  0  0  0  0  0
  -26.1429  -22.0159   16.4605 N   0  3  1  0  0  0  0  0  0  0  0  0
  -23.4314  -16.4257   16.8967 O   0  0  0  0  0  0  0  0  0  0  0  0
  -22.4714  -29.0914   20.1765 O   0  0  0  0  0  0  0  0  0  0  0  0
  -25.4544  -29.2860   23.0323 O   0  0  0  0  0  0  0  0  0  0  0  0
  -28.5184  -27.3637   19.9602 O   0  0  0  0  0  0  0  0  0  0  0  0
  -26.9617  -21.7576   24.7018 O   0  0  0  0  0  0  0  0  0  0  0  0
  -25.1033  -10.6705   21.8635 O   0  0  0  0  0  0  0  0  0  0  0  0
  -23.5499  -24.3897   16.3797 O   0  0  0  0  0  0  0  0  0  1  0  0
  -21.2968   -7.0498   20.1886 F   0  0  0  0  0  0  0  0  0  0  0  0
  -26.0046  -23.1339   21.7561 F   0  0  0  0  0  0  0  0  0  0  0  0
  -23.6607   -9.1812   23.6921 F   0  0  0  0  0  0  0  0  0  0  0  0
  1  2  1  0  0  0  0
  1  5  2  0  0  0  0
  2  6  2  0  0  0  0
  3 10  2  0  0  0  0
  3 18  1  0  0  0  0
  4 11  1  0  0  0  0
  4 18  2  0  0  0  0
  5 20  1  0  0  0  0
  6 22  1  0  0  0  0
  7 12  2  0  0  0  0
  7 21  1  0  0  0  0
  8  9  2  0  0  0  0
  8 24  1  0  0  0  0
  9 25  1  0  0  0  0
 10 26  1  0  0  0  0
 11 26  2  0  0  0  0
 12 27  1  0  0  0  0
 13 14  2  0  0  0  0
 13 28  1  0  0  0  0
 14 29  1  0  0  0  0
 15 23  1  0  0  0  0
 15 27  2  0  0  0  0
 16 24  2  0  0  0  0
 16 30  1  0  0  0  0
 17 29  2  0  0  0  0
 17 31  1  0  0  0  0
 18 32  1  0  0  0  0
 19 32  1  0  0  0  0
 19 33  2  0  0  0  0
 19 34  1  0  0  0  0
 20 22  2  0  0  0  0
 20 39  1  0  0  0  0
 21 23  2  0  0  0  0
 21 40  1  0  0  0  0
 22 48  1  0  0  0  0
 23 41  1  0  0  0  0
 24 58  1  0  0  0  0
 25 30  2  0  0  0  0
 25 73  1  0  0  0  0
 26 81  1  0  0  0  0
 27 82  1  0  0  0  0
 28 31  2  0  0  0  0
 28 81  1  0  0  0  0
 29 83  1  0  0  0  0
 30 84  1  0  0  0  0
 31 85  1  0  0  0  0
 32 65  2  0  0  0  0
 33 66  1  0  0  0  0
 33 69  1  0  0  0  0
 34 70  1  0  0  0  0
 34 76  2  0  0  0  0
 35 49  1  0  0  0  0
 35 71  1  0  0  0  0
 35 77  2  0  0  0  0
 36 62  1  0  0  0  0
 36 67  1  0  0  0  0
 36 78  2  0  0  0  0
 37 63  1  0  0  0  0
 37 72  1  0  0  0  0
 37 79  2  0  0  0  0
 38 68  1  0  0  0  0
 38 73  1  0  0  0  0
 38 80  2  0  0  0  0
 39 42  1  0  0  0  0
 40 49  1  0  0  0  0
 41 67  1  0  0  0  0
 42 44  1  0  0  0  0
 43 45  1  0  0  0  0
 43 46  1  0  0  0  0
 44 48  1  0  0  0  0
 45 50  1  0  0  0  0
 46 68  1  0  0  0  0
 47 50  1  0  0  0  0
 47 68  1  0  0  0  0
 48 71  1  0  0  0  0
 49 67  1  0  0  0  0
 50 66  1  0  0  0  0
 51 63  1  0  0  0  0
 52 64  1  0  0  0  0
 53 64  1  0  0  0  0
 54 64  1  0  0  0  0
 55 73  1  0  0  0  0
 56 74  1  0  0  0  0
 57 75  1  0  0  0  0
 58 75  1  0  0  0  0
 59 60  1  0  0  0  0
 59 61  1  0  0  0  0
 60 75  1  0  0  0  0
 61 82  1  0  0  0  0
 62 64  1  0  0  0  0
 62 72  1  0  0  0  0
 63 74  1  0  0  0  0
 65 66  1  0  0  0  0
M  CHG  2  74   1  75   1
M  ISO  4  38 100  61 101  73 100  82 101
M  END
> <Batch ID>
0014

> <Smiles>
CNC(C)C(=O)NC(C(=O)N1Cc2cc([101O:1][101CH2:1]CCN(C)Cc3ccc([100N:0](C)[100C:0](=O)N4CCCC(n5nc(-c6ccc(Oc7ccc(F)cc7F)cc6)c(C(N)=O)c5N)C4)c(F)c3)ccc2CC1C(=O)NC1CCCc2ccccc21)C(C)(C)C

> <Shape>
0.216

> <Color>
0.075

> <Negative vol penalty>
0.000

$$$$

  -OEChem-04042320513D

 87 96  0     1  0  0  0  0  0999 V2000
  -32.9640  -27.0112   22.2747 C   0  0  0  0  0  0  0  0  0  0  0  0
  -32.0411  -26.4585   21.3925 C   0  0  0  0  0  0  0  0  0  0  0  0
  -25.8567  -15.7986   20.0408 C   0  0  0  0  0  0  0  0  0  0  0  0
  -23.6461  -15.0742   20.6934 C   0  0  0  0  0  0  0  0  0  0  0  0
  -32.5639  -27.3841   23.5571 C   0  0  0  0  0  0  0  0  0  0  0  0
  -30.7177  -26.2775   21.7927 C   0  0  0  0  0  0  0  0  0  0  0  0
  -27.4012  -27.7583   18.2638 C   0  0  0  0  0  0  0  0  0  0  0  0
  -26.2510  -23.0152   19.9995 C   0  0  0  0  0  0  0  0  0  0  0  0
  -26.1276  -23.0132   21.3889 C   0  0  0  0  0  0  0  0  0  0  0  0
  -26.3118  -14.4826   20.1219 C   0  0  0  0  0  0  0  0  0  0  0  0
  -24.1013  -13.7582   20.7744 C   0  0  0  0  0  0  0  0  0  0  0  0
  -27.1867  -26.8957   17.1897 C   0  0  0  0  0  0  0  0  0  0  0  0
  -26.1824  -11.6813   18.2327 C   0  0  0  0  0  0  0  0  0  0  0  0
  -26.9839  -11.2075   17.1941 C   0  0  0  0  0  0  0  0  0  0  0  0
  -25.1604  -26.1077   18.2347 C   0  0  0  0  0  0  0  0  0  0  0  0
  -27.9826  -21.4738   21.5513 C   0  0  0  0  0  0  0  0  0  0  0  0
  -28.7708  -10.7871   18.7649 C   0  0  0  0  0  0  0  0  0  0  0  0
  -24.5238  -16.0944   20.3266 C   0  0  0  0  0  0  0  0  0  0  0  0
  -23.5091  -18.0976   19.1162 C   0  0  0  0  0  0  0  0  0  0  0  0
  -31.2326  -27.2166   23.9700 C   0  0  0  0  0  0  0  0  0  0  0  0
  -26.5010  -27.7942   19.3384 C   0  0  0  0  0  0  0  0  0  0  0  0
  -30.2996  -26.6474   23.0823 C   0  0  0  0  0  0  0  0  0  0  0  0
  -25.3643  -26.9735   19.3201 C   0  0  0  0  0  0  0  0  0  0  0  0
  -27.2401  -22.2464   19.3860 C   0  0  0  0  0  0  0  0  0  0  0  0
  -26.9934  -22.2425   22.1648 C   0  0  0  0  0  0  0  0  0  0  0  0
  -25.4342  -13.4624   20.4886 C   0  0  0  0  0  0  0  0  0  0  0  0
  -26.0678  -26.0682   17.1763 C   0  0  0  0  0  0  0  0  0  0  0  0
  -26.6751  -11.7081   19.5374 C   0  0  0  0  0  0  0  0  0  0  0  0
  -28.2781  -10.7604   17.4602 C   0  0  0  0  0  0  0  0  0  0  0  0
  -28.1059  -21.4758   20.1619 C   0  0  0  0  0  0  0  0  0  0  0  0
  -27.9693  -11.2610   19.8035 C   0  0  0  0  0  0  0  0  0  0  0  0
  -24.0532  -17.4537   20.2437 C   0  0  0  0  0  0  0  0  0  0  0  0
  -23.2207  -19.3678   19.5520 C   0  0  0  0  0  0  0  0  0  0  0  0
  -26.1882  -21.8062   15.8139 C   0  0  0  0  0  0  0  0  0  0  0  0
  -25.6274  -22.9633   15.4451 C   0  0  0  0  0  0  0  0  0  0  0  0
  -23.2845  -17.5927   17.7932 C   0  0  0  0  0  0  0  0  0  0  0  0
  -26.6984  -27.1821   22.4513 C   0  0  0  0  0  0  0  0  0  0  0  0
  -23.6583  -28.3134   22.4701 C   0  0  0  0  0  0  0  0  0  0  0  0
  -20.7751  -28.9013   20.7415 C   0  0  0  0  0  0  0  0  0  0  0  0
  -25.6393  -22.4319   24.2675 C   0  0  0  0  0  0  0  0  0  0  0  0
  -30.8579  -27.5911   25.3821 C   0  0  0  0  0  0  0  0  0  0  0  0
  -26.7325  -28.7495   20.4770 C   0  0  0  0  0  0  0  0  0  0  0  0
  -24.3570  -26.9887   20.4397 C   0  0  0  0  0  0  0  0  0  0  0  0
  -26.6667  -20.7325   14.8871 C   0  0  0  0  0  0  0  0  0  0  0  0
  -29.3520  -27.7123   25.6008 C   0  0  0  0  0  0  0  0  0  0  0  0
  -27.3360  -19.7672   15.8531 C   0  0  0  0  0  0  0  0  0  0  0  0
  -22.0729  -21.8329   23.4832 C   0  0  0  0  0  0  0  0  0  0  0  0
  -28.6257  -26.5197   24.9869 C   0  0  0  0  0  0  0  0  0  0  0  0
  -22.1306  -20.6395   22.5313 C   0  0  0  0  0  0  0  0  0  0  0  0
  -23.2457  -21.8363   24.4589 C   0  0  0  0  0  0  0  0  0  0  0  0
  -24.6382  -20.5875   22.8332 C   0  0  0  0  0  0  0  0  0  0  0  0
  -26.5895  -19.9654   17.1630 C   0  0  0  0  0  0  0  0  0  0  0  0
  -28.8494  -26.4581   23.4711 C   0  0  1  0  0  0  0  0  0  0  0  0
  -26.0218  -28.3324   21.7608 C   0  0  1  0  0  0  0  0  0  0  0  0
  -23.4893  -20.5834   21.8136 C   0  0  1  0  0  0  0  0  0  0  0  0
  -18.4507  -29.8005   21.0351 C   0  0  0  0  0  0  0  0  0  0  0  0
  -22.8388  -25.7302   23.8722 C   0  0  0  0  0  0  0  0  0  0  0  0
  -20.4604  -26.2495   23.2875 C   0  0  0  0  0  0  0  0  0  0  0  0
  -21.7453  -27.7944   24.7656 C   0  0  0  0  0  0  0  0  0  0  0  0
  -28.0879  -22.2960   24.3986 C   0  0  0  0  0  0  0  0  0  0  0  0
  -21.2362  -31.0598   18.7699 C   0  0  0  0  0  0  0  0  0  0  0  0
  -27.3706  -22.2529   17.8914 C   0  0  0  0  0  0  0  0  0  0  0  0
  -25.1637  -24.0081   16.4052 C   0  0  0  0  0  0  0  0  0  1  0  0
  -22.2889  -27.7017   22.2983 C   0  0  1  0  0  0  0  0  0  0  0  0
  -19.8858  -30.1285   20.6534 C   0  0  2  0  0  0  0  0  0  0  0  0
  -21.8532  -26.8670   23.5356 C   0  0  0  0  0  0  0  0  0  0  0  0
  -24.1083  -18.2492   21.3152 N   0  0  0  0  0  0  0  0  0  0  0  0
  -23.5952  -19.4061   20.8629 N   0  0  0  0  0  0  0  0  0  0  0  0
  -24.6308  -27.9354   21.5335 N   0  0  0  0  0  0  0  0  0  0  0  0
  -24.5295  -21.7219   23.7650 N   0  0  0  0  0  0  0  0  0  0  0  0
  -22.6858  -20.4445   18.9380 N   0  0  0  0  0  0  0  0  0  0  0  0
  -23.6383  -16.2653   17.5156 N   0  0  0  0  0  0  0  0  0  0  0  0
  -28.0135  -27.4283   22.7970 N   0  0  0  0  0  0  0  0  0  0  0  0
  -21.3882  -28.8021   21.9725 N   0  0  0  0  0  0  0  0  0  0  0  0
  -26.8646  -22.2388   23.6015 N   0  0  0  0  0  0  0  0  0  0  0  0
  -26.2993  -21.4556   17.2035 N   0  3  1  0  0  0  0  0  0  0  0  0
  -19.8905  -30.6731   19.2663 N   0  3  0  0  0  0  0  0  0  0  0  0
  -22.8000  -18.3028   16.8796 O   0  0  0  0  0  0  0  0  0  0  0  0
  -26.0732  -26.1484   22.6567 O   0  0  0  0  0  0  0  0  0  0  0  0
  -23.8559  -29.1031   23.3968 O   0  0  0  0  0  0  0  0  0  0  0  0
  -20.9093  -28.1079   19.8125 O   0  0  0  0  0  0  0  0  0  0  0  0
  -25.5579  -23.1458   25.2746 O   0  0  0  0  0  0  0  0  0  0  0  0
  -25.8779  -12.1781   20.5676 O   0  0  0  0  0  0  0  0  0  0  0  0
  -25.8564  -25.2248   16.1294 O   0  0  0  0  0  0  0  0  0  1  0  0
  -29.0471  -10.3039   16.4630 F   0  0  0  0  0  0  0  0  0  0  0  0
  -29.0595  -20.7339   19.5816 F   0  0  0  0  0  0  0  0  0  0  0  0
  -28.4478  -11.2833   21.0551 F   0  0  0  0  0  0  0  0  0  0  0  0
  1  2  1  0  0  0  0
  1  5  2  0  0  0  0
  2  6  2  0  0  0  0
  3 10  2  0  0  0  0
  3 18  1  0  0  0  0
  4 11  1  0  0  0  0
  4 18  2  0  0  0  0
  5 20  1  0  0  0  0
  6 22  1  0  0  0  0
  7 12  2  0  0  0  0
  7 21  1  0  0  0  0
  8  9  2  0  0  0  0
  8 24  1  0  0  0  0
  9 25  1  0  0  0  0
 10 26  1  0  0  0  0
 11 26  2  0  0  0  0
 12 27  1  0  0  0  0
 13 14  2  0  0  0  0
 13 28  1  0  0  0  0
 14 29  1  0  0  0  0
 15 23  1  0  0  0  0
 15 27  2  0  0  0  0
 16 25  2  0  0  0  0
 16 30  1  0  0  0  0
 17 29  2  0  0  0  0
 17 31  1  0  0  0  0
 18 32  1  0  0  0  0
 19 32  1  0  0  0  0
 19 33  2  0  0  0  0
 19 36  1  0  0  0  0
 20 22  2  0  0  0  0
 20 41  1  0  0  0  0
 21 23  2  0  0  0  0
 21 42  1  0  0  0  0
 22 53  1  0  0  0  0
 23 43  1  0  0  0  0
 24 30  2  0  0  0  0
 24 62  1  0  0  0  0
 25 75  1  0  0  0  0
 26 83  1  0  0  0  0
 27 84  1  0  0  0  0
 28 31  2  0  0  0  0
 28 83  1  0  0  0  0
 29 85  1  0  0  0  0
 30 86  1  0  0  0  0
 31 87  1  0  0  0  0
 32 67  2  0  0  0  0
 33 68  1  0  0  0  0
 33 71  1  0  0  0  0
 34 35  2  0  0  0  0
 34 44  1  0  0  0  0
 34 76  1  0  0  0  0
 35 63  1  0  0  0  0
 36 72  1  0  0  0  0
 36 78  2  0  0  0  0
 37 54  1  0  0  0  0
 37 73  1  0  0  0  0
 37 79  2  0  0  0  0
 38 64  1  0  0  0  0
 38 69  1  0  0  0  0
 38 80  2  0  0  0  0
 39 65  1  0  0  0  0
 39 74  1  0  0  0  0
 39 81  2  0  0  0  0
 40 70  1  0  0  0  0
 40 75  1  0  0  0  0
 40 82  2  0  0  0  0
 41 45  1  0  0  0  0
 42 54  1  0  0  0  0
 43 69  1  0  0  0  0
 44 46  1  0  0  0  0
 45 48  1  0  0  0  0
 46 52  1  0  0  0  0
 47 49  1  0  0  0  0
 47 50  1  0  0  0  0
 48 53  1  0  0  0  0
 49 55  1  0  0  0  0
 50 70  1  0  0  0  0
 51 55  1  0  0  0  0
 51 70  1  0  0  0  0
 52 76  1  0  0  0  0
 53 73  1  0  0  0  0
 54 69  1  0  0  0  0
 55 68  1  0  0  0  0
 56 65  1  0  0  0  0
 57 66  1  0  0  0  0
 58 66  1  0  0  0  0
 59 66  1  0  0  0  0
 60 75  1  0  0  0  0
 61 77  1  0  0  0  0
 62 76  1  0  0  0  0
 63 84  1  0  0  0  0
 64 66  1  0  0  0  0
 64 74  1  0  0  0  0
 65 77  1  0  0  0  0
 67 68  1  0  0  0  0
M  CHG  2  76   1  77   1
M  ISO  4  40 100  63 101  75 100  84 101
M  END
> <Batch ID>
0014

> <Smiles>
CNC(C)C(=O)NC(C(=O)N1Cc2cc([101O:1][101CH2:1]C=C3CCCN3Cc3ccc([100N:0](C)[100C:0](=O)N4CCCC(n5nc(-c6ccc(Oc7ccc(F)cc7F)cc6)c(C(N)=O)c5N)C4)cc3F)ccc2CC1C(=O)NC1CCCc2ccccc21)C(C)(C)C

> <Shape>
0.137

> <Color>
0.052

> <Negative vol penalty>
0.000

$$$$

  -OEChem-04042320513D

 87 96  0     1  0  0  0  0  0999 V2000
  -18.7005  -22.0566   19.4747 C   0  0  0  0  0  0  0  0  0  0  0  0
  -19.8368  -21.6299   20.1545 C   0  0  0  0  0  0  0  0  0  0  0  0
  -24.6576  -28.6702   22.6789 C   0  0  0  0  0  0  0  0  0  0  0  0
  -23.3840  -28.7094   20.6263 C   0  0  0  0  0  0  0  0  0  0  0  0
  -17.7683  -21.1235   19.0230 C   0  0  0  0  0  0  0  0  0  0  0  0
  -20.0409  -20.2698   20.3840 C   0  0  0  0  0  0  0  0  0  0  0  0
  -24.7962  -18.8273   19.4084 C   0  0  0  0  0  0  0  0  0  0  0  0
  -29.5811  -19.4620   19.7706 C   0  0  0  0  0  0  0  0  0  0  0  0
  -29.3163  -20.6597   19.1064 C   0  0  0  0  0  0  0  0  0  0  0  0
  -23.4775  -28.7854   23.4134 C   0  0  0  0  0  0  0  0  0  0  0  0
  -22.2038  -28.8245   21.3608 C   0  0  0  0  0  0  0  0  0  0  0  0
  -25.7620  -19.1269   20.3682 C   0  0  0  0  0  0  0  0  0  0  0  0
  -20.1563  -26.7888   23.1170 C   0  0  0  0  0  0  0  0  0  0  0  0
  -19.0801  -25.9849   22.7416 C   0  0  0  0  0  0  0  0  0  0  0  0
  -25.6367  -16.8631   21.1921 C   0  0  0  0  0  0  0  0  0  0  0  0
  -29.6085  -21.8718   21.1759 C   0  0  0  0  0  0  0  0  0  0  0  0
  -17.7494  -27.9588   22.3292 C   0  0  0  0  0  0  0  0  0  0  0  0
  -24.6109  -28.6323   21.2853 C   0  0  0  0  0  0  0  0  0  0  0  0
  -26.9208  -29.4034   20.5255 C   0  0  0  0  0  0  0  0  0  0  0  0
  -17.9659  -19.7505   19.2386 C   0  0  0  0  0  0  0  0  0  0  0  0
  -24.2345  -17.5443   19.3402 C   0  0  0  0  0  0  0  0  0  0  0  0
  -19.1098  -19.3174   19.9359 C   0  0  0  0  0  0  0  0  0  0  0  0
  -24.6658  -16.5491   20.2289 C   0  0  0  0  0  0  0  0  0  0  0  0
  -29.8594  -19.4692   21.1374 C   0  0  0  0  0  0  0  0  0  0  0  0
  -29.3301  -21.8646   19.8090 C   0  0  0  0  0  0  0  0  0  0  0  0
  -22.2506  -28.8625   22.7544 C   0  0  0  0  0  0  0  0  0  0  0  0
  -26.1804  -18.1455   21.2621 C   0  0  0  0  0  0  0  0  0  0  0  0
  -20.0291  -28.1778   23.0986 C   0  0  0  0  0  0  0  0  0  0  0  0
  -17.8766  -26.5698   22.3477 C   0  0  0  0  0  0  0  0  0  0  0  0
  -29.8732  -20.6741   21.8400 C   0  0  0  0  0  0  0  0  0  0  0  0
  -18.8256  -28.7628   22.7047 C   0  0  0  0  0  0  0  0  0  0  0  0
  -25.8297  -28.5139   20.5259 C   0  0  0  0  0  0  0  0  0  0  0  0
  -27.8174  -28.8466   19.6466 C   0  0  0  0  0  0  0  0  0  0  0  0
  -27.1073  -30.6238   21.2546 C   0  0  0  0  0  0  0  0  0  0  0  0
  -21.3057  -16.3568   19.6803 C   0  0  0  0  0  0  0  0  0  0  0  0
  -22.7359  -13.6003   18.7429 C   0  0  0  0  0  0  0  0  0  0  0  0
  -25.8405  -11.8864   19.4070 C   0  0  0  0  0  0  0  0  0  0  0  0
  -28.7668  -23.2497   17.7816 C   0  0  0  0  0  0  0  0  0  0  0  0
  -16.9069  -18.7827   18.7731 C   0  0  0  0  0  0  0  0  0  0  0  0
  -23.2131  -17.2297   18.2818 C   0  0  0  0  0  0  0  0  0  0  0  0
  -24.1088  -15.1505   20.1842 C   0  0  0  0  0  0  0  0  0  0  0  0
  -17.3837  -17.3333   18.7283 C   0  0  0  0  0  0  0  0  0  0  0  0
  -28.0089  -26.0722   15.7478 C   0  0  0  0  0  0  0  0  0  0  0  0
  -18.1294  -16.9767   20.0103 C   0  0  0  0  0  0  0  0  0  0  0  0
  -27.4691  -27.1017   16.7431 C   0  0  0  0  0  0  0  0  0  0  0  0
  -31.5522  -16.2621   21.9938 C   0  0  0  0  0  0  0  0  0  0  0  0
  -30.1268  -16.9896   23.9244 C   0  0  0  0  0  0  0  0  0  0  0  0
  -27.5773  -24.6523   16.1104 C   0  0  0  0  0  0  0  0  0  0  0  0
  -30.7476  -17.1616   21.0604 C   0  0  0  0  0  0  0  0  0  0  0  0
  -27.3421  -25.2730   18.4829 C   0  0  0  0  0  0  0  0  0  0  0  0
  -19.3789  -17.8488   20.1825 C   0  0  1  0  0  0  0  0  0  0  0  0
  -22.3356  -16.0329   18.6352 C   0  0  1  0  0  0  0  0  0  0  0  0
  -27.8044  -26.7109   18.1958 C   0  0  2  0  0  0  0  0  0  0  0  0
  -29.3377  -17.9401   23.0108 C   0  0  2  0  0  0  0  0  0  0  0  0
  -30.7344  -15.8117   23.1859 C   0  0  0  0  0  0  0  0  0  0  0  0
  -27.1468  -10.2722   17.9980 C   0  0  0  0  0  0  0  0  0  0  0  0
  -21.1957  -11.4611   20.2797 C   0  0  0  0  0  0  0  0  0  0  0  0
  -23.2824  -10.0780   20.3080 C   0  0  0  0  0  0  0  0  0  0  0  0
  -22.2134  -10.6753   18.1347 C   0  0  0  0  0  0  0  0  0  0  0  0
  -28.2916  -13.5355   19.5843 C   0  0  0  0  0  0  0  0  0  0  0  0
  -27.9708  -17.3676   22.6205 C   0  0  0  0  0  0  0  0  0  1  0  0
  -23.4274  -12.4602   19.4508 C   0  0  1  0  0  0  0  0  0  0  0  0
  -27.0077  -11.7172   18.4512 C   0  0  2  0  0  0  0  0  0  0  0  0
  -22.5297  -11.1950   19.5541 C   0  0  0  0  0  0  0  0  0  0  0  0
  -26.0141  -27.4713   19.7117 N   0  0  0  0  0  0  0  0  0  0  0  0
  -27.2315  -27.7022   19.1914 N   0  0  0  0  0  0  0  0  0  0  0  0
  -30.1233  -18.2648   21.8019 N   0  0  2  0  0  0  0  0  0  0  0  0
  -23.1079  -14.8938   19.1354 N   0  0  0  0  0  0  0  0  0  0  0  0
  -27.9313  -24.3510   17.4992 N   0  0  0  0  0  0  0  0  0  0  0  0
  -29.0419  -29.2292   19.2263 N   0  0  0  0  0  0  0  0  0  0  0  0
  -26.6795  -31.8235   20.6697 N   0  0  0  0  0  0  0  0  0  0  0  0
  -29.0612  -23.0812   19.1342 N   0  0  0  0  0  0  0  0  0  0  0  0
  -20.4457  -17.3783   19.3251 N   0  0  0  0  0  0  0  0  0  0  0  0
  -24.6855  -12.2442   18.7444 N   0  0  0  0  0  0  0  0  0  0  0  0
  -28.2800  -12.1279   19.1095 N   0  3  0  0  0  0  0  0  0  0  0  0
  -27.6525  -30.6516   22.3840 O   0  0  0  0  0  0  0  0  0  0  0  0
  -21.2914  -15.7255   20.7305 O   0  0  0  0  0  0  0  0  0  0  0  0
  -21.9017  -13.3522   17.8687 O   0  0  0  0  0  0  0  0  0  0  0  0
  -25.9424  -11.7144   20.6197 O   0  0  0  0  0  0  0  0  0  0  0  0
  -29.2121  -22.5266   16.8866 O   0  0  0  0  0  0  0  0  0  0  0  0
  -21.0987  -28.9746   23.4708 O   0  0  0  0  0  0  0  0  0  0  0  0
  -27.1225  -18.4354   22.2003 O   0  0  0  0  0  0  0  0  0  1  0  0
  -16.8437  -25.7977   21.9858 F   0  0  0  0  0  0  0  0  0  0  0  0
  -30.1382  -20.6920   23.1541 F   0  0  0  0  0  0  0  0  0  0  0  0
  -18.6978  -30.0966   22.6838 F   0  0  0  0  0  0  0  0  0  0  0  0
  -31.5224  -15.1050   24.0341 F   0  0  0  0  0  0  0  0  0  0  0  0
  -29.7581  -14.9652   22.7760 F   0  0  0  0  0  0  0  0  0  0  0  0
  1  2  1  0  0  0  0
  1  5  2  0  0  0  0
  2  6  2  0  0  0  0
  3 10  2  0  0  0  0
  3 18  1  0  0  0  0
  4 11  1  0  0  0  0
  4 18  2  0  0  0  0
  5 20  1  0  0  0  0
  6 22  1  0  0  0  0
  7 12  2  0  0  0  0
  7 21  1  0  0  0  0
  8  9  2  0  0  0  0
  8 24  1  0  0  0  0
  9 25  1  0  0  0  0
 10 26  1  0  0  0  0
 11 26  2  0  0  0  0
 12 27  1  0  0  0  0
 13 14  2  0  0  0  0
 13 28  1  0  0  0  0
 14 29  1  0  0  0  0
 15 23  1  0  0  0  0
 15 27  2  0  0  0  0
 16 25  2  0  0  0  0
 16 30  1  0  0  0  0
 17 29  2  0  0  0  0
 17 31  1  0  0  0  0
 18 32  1  0  0  0  0
 19 32  1  0  0  0  0
 19 33  2  0  0  0  0
 19 34  1  0  0  0  0
 20 22  2  0  0  0  0
 20 39  1  0  0  0  0
 21 23  2  0  0  0  0
 21 40  1  0  0  0  0
 22 51  1  0  0  0  0
 23 41  1  0  0  0  0
 24 30  2  0  0  0  0
 24 67  1  0  0  0  0
 25 72  1  0  0  0  0
 26 81  1  0  0  0  0
 27 82  1  0  0  0  0
 28 31  2  0  0  0  0
 28 81  1  0  0  0  0
 29 83  1  0  0  0  0
 30 84  1  0  0  0  0
 31 85  1  0  0  0  0
 32 65  2  0  0  0  0
 33 66  1  0  0  0  0
 33 70  1  0  0  0  0
 34 71  1  0  0  0  0
 34 76  2  0  0  0  0
 35 52  1  0  0  0  0
 35 73  1  0  0  0  0
 35 77  2  0  0  0  0
 36 62  1  0  0  0  0
 36 68  1  0  0  0  0
 36 78  2  0  0  0  0
 37 63  1  0  0  0  0
 37 74  1  0  0  0  0
 37 79  2  0  0  0  0
 38 69  1  0  0  0  0
 38 72  1  0  0  0  0
 38 80  2  0  0  0  0
 39 42  1  0  0  0  0
 40 52  1  0  0  0  0
 41 68  1  0  0  0  0
 42 44  1  0  0  0  0
 43 45  1  0  0  0  0
 43 48  1  0  0  0  0
 44 51  1  0  0  0  0
 45 53  1  0  0  0  0
 46 49  1  0  0  0  0
 46 55  1  0  0  0  0
 47 54  1  0  0  0  0
 47 55  1  0  0  0  0
 48 69  1  0  0  0  0
 49 67  1  0  0  0  0
 50 53  1  0  0  0  0
 50 69  1  0  0  0  0
 51 73  1  0  0  0  0
 52 68  1  0  0  0  0
 53 66  1  0  0  0  0
 54 61  1  0  0  0  0
 54 67  1  0  0  0  0
 55 86  1  0  0  0  0
 55 87  1  0  0  0  0
 56 63  1  0  0  0  0
 57 64  1  0  0  0  0
 58 64  1  0  0  0  0
 59 64  1  0  0  0  0
 60 75  1  0  0  0  0
 61 82  1  0  0  0  0
 62 64  1  0  0  0  0
 62 74  1  0  0  0  0
 63 75  1  0  0  0  0
 65 66  1  0  0  0  0
M  CHG  1  75   1
M  ISO  4  38 100  61 101  72 100  82 101
M  END
> <Batch ID>
0014

> <Smiles>
CNC(C)C(=O)NC(C(=O)N1Cc2cc([101O:1][101CH2:1]C3CC(F)(F)CCN3c3ccc([100NH:0][100C:0](=O)N4CCCC(n5nc(-c6ccc(Oc7ccc(F)cc7F)cc6)c(C(N)=O)c5N)C4)cc3F)ccc2CC1C(=O)NC1CCCc2ccccc21)C(C)(C)C

> <Shape>
0.246

> <Color>
0.047

> <Negative vol penalty>
0.000

$$$$

  -OEChem-04042320513D

 87 96  0     1  0  0  0  0  0999 V2000
  -25.1327  -27.8630   13.6210 C   0  0  0  0  0  0  0  0  0  0  0  0
  -24.5855  -27.8481   14.9000 C   0  0  0  0  0  0  0  0  0  0  0  0
  -24.0303  -14.6474   20.9065 C   0  0  0  0  0  0  0  0  0  0  0  0
  -26.0692  -14.7253   19.6127 C   0  0  0  0  0  0  0  0  0  0  0  0
  -26.4464  -27.4410   13.4211 C   0  0  0  0  0  0  0  0  0  0  0  0
  -25.3514  -27.4100   15.9797 C   0  0  0  0  0  0  0  0  0  0  0  0
  -24.9232  -30.4338   20.0193 C   0  0  0  0  0  0  0  0  0  0  0  0
  -23.4748  -25.5037   22.6831 C   0  0  0  0  0  0  0  0  0  0  0  0
  -24.2376  -24.3585   22.4546 C   0  0  0  0  0  0  0  0  0  0  0  0
  -24.2782  -13.3102   21.2167 C   0  0  0  0  0  0  0  0  0  0  0  0
  -26.3171  -13.3882   19.9229 C   0  0  0  0  0  0  0  0  0  0  0  0
  -23.7709  -30.3032   20.7930 C   0  0  0  0  0  0  0  0  0  0  0  0
  -23.9633  -10.3034   19.7055 C   0  0  0  0  0  0  0  0  0  0  0  0
  -22.8991   -9.4073   19.6045 C   0  0  0  0  0  0  0  0  0  0  0  0
  -24.9978  -28.9683   22.3842 C   0  0  0  0  0  0  0  0  0  0  0  0
  -22.3663  -24.3983   24.5233 C   0  0  0  0  0  0  0  0  0  0  0  0
  -23.1244   -8.8755   21.9505 C   0  0  0  0  0  0  0  0  0  0  0  0
  -24.9257  -15.3549   20.1044 C   0  0  0  0  0  0  0  0  0  0  0  0
  -23.5537  -17.2577   19.1022 C   0  0  0  0  0  0  0  0  0  0  0  0
  -27.2320  -27.0066   14.5004 C   0  0  0  0  0  0  0  0  0  0  0  0
  -26.1209  -29.8224   20.4173 C   0  0  0  0  0  0  0  0  0  0  0  0
  -26.6764  -26.9804   15.7939 C   0  0  0  0  0  0  0  0  0  0  0  0
  -26.1646  -29.0947   21.6150 C   0  0  0  0  0  0  0  0  0  0  0  0
  -22.5392  -25.5236   23.7175 C   0  0  0  0  0  0  0  0  0  0  0  0
  -24.0647  -23.2331   23.2605 C   0  0  0  0  0  0  0  0  0  0  0  0
  -25.4216  -12.6806   20.7250 C   0  0  0  0  0  0  0  0  0  0  0  0
  -23.8073  -29.5680   21.9742 C   0  0  0  0  0  0  0  0  0  0  0  0
  -24.6082  -10.4854   20.9289 C   0  0  0  0  0  0  0  0  0  0  0  0
  -22.4796   -8.6934   20.7271 C   0  0  0  0  0  0  0  0  0  0  0  0
  -23.1291  -23.2530   24.2948 C   0  0  0  0  0  0  0  0  0  0  0  0
  -24.1887   -9.7716   22.0514 C   0  0  0  0  0  0  0  0  0  0  0  0
  -24.6699  -16.7360   19.7832 C   0  0  0  0  0  0  0  0  0  0  0  0
  -23.7839  -18.6108   19.0516 C   0  0  0  0  0  0  0  0  0  0  0  0
  -22.4108  -16.5798   18.5637 C   0  0  0  0  0  0  0  0  0  0  0  0
  -28.0221  -27.5960   19.1796 C   0  0  0  0  0  0  0  0  0  0  0  0
  -29.9200  -28.3740   21.6926 C   0  0  0  0  0  0  0  0  0  0  0  0
  -30.1751  -29.6786   24.8358 C   0  0  0  0  0  0  0  0  0  0  0  0
  -27.3876  -21.9976   22.6684 C   0  0  0  0  0  0  0  0  0  0  0  0
  -28.6316  -26.5150   14.2280 C   0  0  0  0  0  0  0  0  0  0  0  0
  -27.3619  -29.9951   19.5851 C   0  0  0  0  0  0  0  0  0  0  0  0
  -27.4304  -28.4359   22.0969 C   0  0  0  0  0  0  0  0  0  0  0  0
  -29.4982  -26.4195   15.4811 C   0  0  0  0  0  0  0  0  0  0  0  0
  -27.3255  -21.8180   18.9717 C   0  0  0  0  0  0  0  0  0  0  0  0
  -18.4741  -27.2734   22.7087 C   0  0  0  0  0  0  0  0  0  0  0  0
  -28.7328  -25.7341   16.6085 C   0  0  0  0  0  0  0  0  0  0  0  0
  -26.6021  -20.4971   18.7145 C   0  0  0  0  0  0  0  0  0  0  0  0
  -19.0567  -28.5626   22.1643 C   0  0  0  0  0  0  0  0  0  0  0  0
  -28.0691  -21.8074   20.3038 C   0  0  0  0  0  0  0  0  0  0  0  0
  -26.4889  -20.1363   21.2120 C   0  0  0  0  0  0  0  0  0  0  0  0
  -19.6288  -26.2940   22.6226 C   0  0  0  0  0  0  0  0  0  0  0  0
  -27.4836  -26.5355   16.9941 C   0  0  1  0  0  0  0  0  0  0  0  0
  -28.3979  -28.9008   19.8231 C   0  0  1  0  0  0  0  0  0  0  0  0
  -25.6914  -20.1307   19.8992 C   0  0  2  0  0  0  0  0  0  0  0  0
  -20.4374  -28.6023   22.8023 C   0  0  2  0  0  0  0  0  0  0  0  0
  -31.8506  -30.1468   26.6443 C   0  0  0  0  0  0  0  0  0  0  0  0
  -29.9629  -25.4102   22.4168 C   0  0  0  0  0  0  0  0  0  0  0  0
  -30.8138  -26.0478   24.6834 C   0  0  0  0  0  0  0  0  0  0  0  0
  -32.1640  -26.5738   22.6529 C   0  0  0  0  0  0  0  0  0  0  0  0
  -26.4082  -22.7655   24.7969 C   0  0  0  0  0  0  0  0  0  0  0  0
  -29.6425  -32.5882   24.7364 C   0  0  0  0  0  0  0  0  0  0  0  0
  -24.8809  -22.0096   23.0131 C   0  0  0  0  0  0  0  0  0  0  0  0
  -21.7184  -26.7553   23.9630 C   0  0  0  0  0  0  0  0  0  0  0  0
  -21.4324  -29.4626   22.0454 C   0  0  0  0  0  0  0  0  0  1  0  0
  -30.0580  -27.8935   23.1170 C   0  0  1  0  0  0  0  0  0  0  0  0
  -31.1273  -30.7022   25.4273 C   0  0  2  0  0  0  0  0  0  0  0  0
  -30.7252  -26.4920   23.2077 C   0  0  0  0  0  0  0  0  0  0  0  0
  -25.5444  -17.6806   20.1394 N   0  0  0  0  0  0  0  0  0  0  0  0
  -24.9777  -18.8095   19.6805 N   0  0  0  0  0  0  0  0  0  0  0  0
  -28.6158  -28.6283   21.2452 N   0  0  0  0  0  0  0  0  0  0  0  0
  -27.1906  -21.4140   21.4060 N   0  0  0  0  0  0  0  0  0  0  0  0
  -23.0797  -19.6381   18.5308 N   0  0  0  0  0  0  0  0  0  0  0  0
  -22.4672  -16.1234   17.2397 N   0  0  0  0  0  0  0  0  0  0  0  0
  -27.8457  -27.6738   17.8112 N   0  0  0  0  0  0  0  0  0  0  0  0
  -30.7733  -28.9433   23.8344 N   0  0  0  0  0  0  0  0  0  0  0  0
  -26.2567  -22.1550   23.4838 N   0  0  0  0  0  0  0  0  0  0  0  0
  -20.8772  -27.1446   22.7858 N   0  3  1  0  0  0  0  0  0  0  0  0
  -30.3820  -31.9247   25.8409 N   0  3  0  0  0  0  0  0  0  0  0  0
  -21.3644  -16.3990   19.2313 O   0  0  0  0  0  0  0  0  0  0  0  0
  -27.9027  -26.5927   19.8729 O   0  0  0  0  0  0  0  0  0  0  0  0
  -30.9326  -28.5251   21.0045 O   0  0  0  0  0  0  0  0  0  0  0  0
  -29.0175  -29.5422   25.2257 O   0  0  0  0  0  0  0  0  0  0  0  0
  -28.5088  -22.3661   23.0413 O   0  0  0  0  0  0  0  0  0  0  0  0
  -25.6640  -11.3760   21.0277 O   0  0  0  0  0  0  0  0  0  0  0  0
  -22.6837  -29.4384   22.7310 O   0  0  0  0  0  0  0  0  0  1  0  0
  -21.4567   -7.8342   20.6303 F   0  0  0  0  0  0  0  0  0  0  0  0
  -22.9553  -22.1761   25.0737 F   0  0  0  0  0  0  0  0  0  0  0  0
  -24.8035   -9.9431   23.2297 F   0  0  0  0  0  0  0  0  0  0  0  0
  1  2  1  0  0  0  0
  1  5  2  0  0  0  0
  2  6  2  0  0  0  0
  3 10  2  0  0  0  0
  3 18  1  0  0  0  0
  4 11  1  0  0  0  0
  4 18  2  0  0  0  0
  5 20  1  0  0  0  0
  6 22  1  0  0  0  0
  7 12  2  0  0  0  0
  7 21  1  0  0  0  0
  8  9  2  0  0  0  0
  8 24  1  0  0  0  0
  9 25  1  0  0  0  0
 10 26  1  0  0  0  0
 11 26  2  0  0  0  0
 12 27  1  0  0  0  0
 13 14  2  0  0  0  0
 13 28  1  0  0  0  0
 14 29  1  0  0  0  0
 15 23  1  0  0  0  0
 15 27  2  0  0  0  0
 16 24  2  0  0  0  0
 16 30  1  0  0  0  0
 17 29  2  0  0  0  0
 17 31  1  0  0  0  0
 18 32  1  0  0  0  0
 19 32  1  0  0  0  0
 19 33  2  0  0  0  0
 19 34  1  0  0  0  0
 20 22  2  0  0  0  0
 20 39  1  0  0  0  0
 21 23  2  0  0  0  0
 21 40  1  0  0  0  0
 22 51  1  0  0  0  0
 23 41  1  0  0  0  0
 24 62  1  0  0  0  0
 25 30  2  0  0  0  0
 25 61  1  0  0  0  0
 26 83  1  0  0  0  0
 27 84  1  0  0  0  0
 28 31  2  0  0  0  0
 28 83  1  0  0  0  0
 29 85  1  0  0  0  0
 30 86  1  0  0  0  0
 31 87  1  0  0  0  0
 32 67  2  0  0  0  0
 33 68  1  0  0  0  0
 33 71  1  0  0  0  0
 34 72  1  0  0  0  0
 34 78  2  0  0  0  0
 35 52  1  0  0  0  0
 35 73  1  0  0  0  0
 35 79  2  0  0  0  0
 36 64  1  0  0  0  0
 36 69  1  0  0  0  0
 36 80  2  0  0  0  0
 37 65  1  0  0  0  0
 37 74  1  0  0  0  0
 37 81  2  0  0  0  0
 38 70  1  0  0  0  0
 38 75  1  0  0  0  0
 38 82  2  0  0  0  0
 39 42  1  0  0  0  0
 40 52  1  0  0  0  0
 41 69  1  0  0  0  0
 42 45  1  0  0  0  0
 43 46  1  0  0  0  0
 43 48  1  0  0  0  0
 44 47  1  0  0  0  0
 44 50  1  0  0  0  0
 45 51  1  0  0  0  0
 46 53  1  0  0  0  0
 47 54  1  0  0  0  0
 48 70  1  0  0  0  0
 49 53  1  0  0  0  0
 49 70  1  0  0  0  0
 50 76  1  0  0  0  0
 51 73  1  0  0  0  0
 52 69  1  0  0  0  0
 53 68  1  0  0  0  0
 54 63  1  0  0  0  0
 54 76  1  0  0  0  0
 55 65  1  0  0  0  0
 56 66  1  0  0  0  0
 57 66  1  0  0  0  0
 58 66  1  0  0  0  0
 59 75  1  0  0  0  0
 60 77  1  0  0  0  0
 61 75  1  0  0  0  0
 62 76  1  0  0  0  0
 63 84  1  0  0  0  0
 64 66  1  0  0  0  0
 64 74  1  0  0  0  0
 65 77  1  0  0  0  0
 67 68  1  0  0  0  0
M  CHG  2  76   1  77   1
M  ISO  4  38 100  63 101  75 100  84 101
M  END
> <Batch ID>
0014

> <Smiles>
CNC(C)C(=O)NC(C(=O)N1Cc2cc([101O:1][101CH2:1]C3CCCN3Cc3ccc(C[100N:0](C)[100C:0](=O)N4CCCC(n5nc(-c6ccc(Oc7ccc(F)cc7F)cc6)c(C(N)=O)c5N)C4)c(F)c3)ccc2CC1C(=O)NC1CCCc2ccccc21)C(C)(C)C

> <Shape>
0.197

> <Color>
0.083

> <Negative vol penalty>
0.000

$$$$

  -OEChem-04042320513D

 85 94  0     1  0  0  0  0  0999 V2000
  -20.4830  -28.4624   23.4167 C   0  0  0  0  0  0  0  0  0  0  0  0
  -20.5450  -27.1385   22.9940 C   0  0  0  0  0  0  0  0  0  0  0  0
  -23.3152   -9.7421   19.8780 C   0  0  0  0  0  0  0  0  0  0  0  0
  -23.8204   -9.8552   22.2379 C   0  0  0  0  0  0  0  0  0  0  0  0
  -19.4287  -29.2761   23.0042 C   0  0  0  0  0  0  0  0  0  0  0  0
  -19.5518  -26.6270   22.1594 C   0  0  0  0  0  0  0  0  0  0  0  0
  -21.4424  -23.8891   18.3417 C   0  0  0  0  0  0  0  0  0  0  0  0
  -25.5119  -15.2025   15.9330 C   0  0  0  0  0  0  0  0  0  0  0  0
  -26.6121  -14.3838   15.6784 C   0  0  0  0  0  0  0  0  0  0  0  0
  -22.6264   -8.5467   20.0827 C   0  0  0  0  0  0  0  0  0  0  0  0
  -23.1315   -8.6597   22.4426 C   0  0  0  0  0  0  0  0  0  0  0  0
  -21.8560  -22.5901   18.6336 C   0  0  0  0  0  0  0  0  0  0  0  0
  -19.5974   -7.5831   21.2359 C   0  0  0  0  0  0  0  0  0  0  0  0
  -18.3567   -7.4356   20.6160 C   0  0  0  0  0  0  0  0  0  0  0  0
  -19.7876  -21.7357   17.7333 C   0  0  0  0  0  0  0  0  0  0  0  0
  -26.8188  -16.4632   17.5267 C   0  0  0  0  0  0  0  0  0  0  0  0
  -19.1831   -5.5053   19.4211 C   0  0  0  0  0  0  0  0  0  0  0  0
  -23.9123  -10.3964   20.9556 C   0  0  0  0  0  0  0  0  0  0  0  0
  -24.0978  -12.9356   20.7951 C   0  0  0  0  0  0  0  0  0  0  0  0
  -18.4273  -28.7771   22.1563 C   0  0  0  0  0  0  0  0  0  0  0  0
  -20.1915  -24.1224   17.7524 C   0  0  0  0  0  0  0  0  0  0  0  0
  -18.4824  -27.4344   21.7363 C   0  0  0  0  0  0  0  0  0  0  0  0
  -19.3615  -23.0385   17.4326 C   0  0  0  0  0  0  0  0  0  0  0  0
  -25.6152  -16.2423   16.8571 C   0  0  0  0  0  0  0  0  0  0  0  0
  -27.8156  -14.6048   16.3479 C   0  0  0  0  0  0  0  0  0  0  0  0
  -22.5345   -8.0055   21.3650 C   0  0  0  0  0  0  0  0  0  0  0  0
  -21.0273  -21.5133   18.3320 C   0  0  0  0  0  0  0  0  0  0  0  0
  -20.6311   -6.6918   20.9483 C   0  0  0  0  0  0  0  0  0  0  0  0
  -18.1495   -6.3967   19.7087 C   0  0  0  0  0  0  0  0  0  0  0  0
  -27.9190  -15.6445   17.2720 C   0  0  0  0  0  0  0  0  0  0  0  0
  -20.4239   -5.6528   20.0410 C   0  0  0  0  0  0  0  0  0  0  0  0
  -24.6245  -11.6311   20.7447 C   0  0  0  0  0  0  0  0  0  0  0  0
  -25.1710  -13.7498   20.5272 C   0  0  0  0  0  0  0  0  0  0  0  0
  -22.7582  -13.3724   21.0605 C   0  0  0  0  0  0  0  0  0  0  0  0
  -17.5590  -25.6790   18.6188 C   0  0  0  0  0  0  0  0  0  0  0  0
  -16.6116  -24.9640   15.5999 C   0  0  0  0  0  0  0  0  0  0  0  0
  -16.9100  -22.9318   12.8744 C   0  0  0  0  0  0  0  0  0  0  0  0
  -29.9411  -13.4680   17.0417 C   0  0  0  0  0  0  0  0  0  0  0  0
  -17.2819  -29.6812   21.7751 C   0  0  0  0  0  0  0  0  0  0  0  0
  -19.7714  -25.5277   17.4195 C   0  0  0  0  0  0  0  0  0  0  0  0
  -18.0178  -23.2339   16.7810 C   0  0  0  0  0  0  0  0  0  0  0  0
  -16.4707  -29.1690   20.5877 C   0  0  0  0  0  0  0  0  0  0  0  0
  -30.0787  -13.2815   20.7348 C   0  0  0  0  0  0  0  0  0  0  0  0
  -16.1533  -27.6867   20.7577 C   0  0  0  0  0  0  0  0  0  0  0  0
  -28.6544  -12.8740   21.1072 C   0  0  0  0  0  0  0  0  0  0  0  0
  -22.4768  -18.1759   16.8346 C   0  0  0  0  0  0  0  0  0  0  0  0
  -30.4724  -12.7664   19.3538 C   0  0  0  0  0  0  0  0  0  0  0  0
  -23.2283  -16.9007   16.4589 C   0  0  0  0  0  0  0  0  0  0  0  0
  -24.5383  -18.1695   18.0498 C   0  0  0  0  0  0  0  0  0  0  0  0
  -28.0976  -12.7678   18.6455 C   0  0  0  0  0  0  0  0  0  0  0  0
  -17.4374  -26.8501   20.8107 C   0  0  1  0  0  0  0  0  0  0  0  0
  -18.2595  -25.6845   17.2895 C   0  0  1  0  0  0  0  0  0  0  0  0
  -23.0567  -18.5329   18.2001 C   0  0  1  0  0  0  0  0  0  0  0  0
  -27.6627  -13.3090   20.0157 C   0  0  1  0  0  0  0  0  0  0  0  0
  -15.9770  -22.5738   10.5726 C   0  0  0  0  0  0  0  0  0  0  0  0
  -14.0922  -23.7434   16.8136 C   0  0  0  0  0  0  0  0  0  0  0  0
  -13.6823  -22.5909   14.6291 C   0  0  0  0  0  0  0  0  0  0  0  0
  -13.7064  -25.0829   14.7373 C   0  0  0  0  0  0  0  0  0  0  0  0
  -29.2238  -13.3912   14.6941 C   0  0  0  0  0  0  0  0  0  0  0  0
  -19.5503  -23.3676   11.6104 C   0  0  0  0  0  0  0  0  0  0  0  0
  -22.8311  -19.9843   18.5858 C   0  0  0  0  0  0  0  0  0  1  0  0
  -15.8812  -23.8118   14.9532 C   0  0  1  0  0  0  0  0  0  0  0  0
  -17.0648  -23.2444   11.3970 C   0  0  2  0  0  0  0  0  0  0  0  0
  -14.3650  -23.8034   15.2974 C   0  0  0  0  0  0  0  0  0  0  0  0
  -25.9308  -11.6128   20.4664 N   0  0  0  0  0  0  0  0  0  0  0  0
  -26.2338  -12.9159   20.3396 N   0  0  0  0  0  0  0  0  0  0  0  0
  -24.5278  -17.0518   17.1083 N   0  0  3  0  0  0  0  0  0  0  0  0
  -17.6491  -24.6273   16.4808 N   0  0  0  0  0  0  0  0  0  0  0  0
  -29.4884  -13.1370   18.3354 N   0  0  0  0  0  0  0  0  0  0  0  0
  -25.2998  -15.0905   20.4362 N   0  0  0  0  0  0  0  0  0  0  0  0
  -21.7779  -12.4038   21.3159 N   0  0  0  0  0  0  0  0  0  0  0  0
  -17.9805  -26.6732   19.4809 N   0  0  0  0  0  0  0  0  0  0  0  0
  -16.1694  -23.8956   13.5256 N   0  0  0  0  0  0  0  0  0  0  0  0
  -28.9515  -13.7560   16.0826 N   0  0  0  0  0  0  0  0  0  0  0  0
  -18.3885  -22.7703   10.9031 N   0  3  0  0  0  0  0  0  0  0  0  0
  -22.4365  -14.5848   21.0545 O   0  0  0  0  0  0  0  0  0  0  0  0
  -16.6987  -24.8361   18.8449 O   0  0  0  0  0  0  0  0  0  0  0  0
  -16.2786  -26.1201   15.3278 O   0  0  0  0  0  0  0  0  0  0  0  0
  -17.3943  -21.9308   13.3978 O   0  0  0  0  0  0  0  0  0  0  0  0
  -31.1421  -13.4539   16.7451 O   0  0  0  0  0  0  0  0  0  0  0  0
  -21.8622   -6.8391   21.5651 O   0  0  0  0  0  0  0  0  0  0  0  0
  -21.4283  -20.2444   18.6164 O   0  0  0  0  0  0  0  0  0  1  0  0
  -16.9574   -6.2542   19.1146 F   0  0  0  0  0  0  0  0  0  0  0  0
  -29.0709  -15.8656   17.9215 F   0  0  0  0  0  0  0  0  0  0  0  0
  -21.4128   -4.7927   19.7616 F   0  0  0  0  0  0  0  0  0  0  0  0
  1  2  1  0  0  0  0
  1  5  2  0  0  0  0
  2  6  2  0  0  0  0
  3 10  2  0  0  0  0
  3 18  1  0  0  0  0
  4 11  1  0  0  0  0
  4 18  2  0  0  0  0
  5 20  1  0  0  0  0
  6 22  1  0  0  0  0
  7 12  2  0  0  0  0
  7 21  1  0  0  0  0
  8  9  2  0  0  0  0
  8 24  1  0  0  0  0
  9 25  1  0  0  0  0
 10 26  1  0  0  0  0
 11 26  2  0  0  0  0
 12 27  1  0  0  0  0
 13 14  2  0  0  0  0
 13 28  1  0  0  0  0
 14 29  1  0  0  0  0
 15 23  1  0  0  0  0
 15 27  2  0  0  0  0
 16 24  2  0  0  0  0
 16 30  1  0  0  0  0
 17 29  2  0  0  0  0
 17 31  1  0  0  0  0
 18 32  1  0  0  0  0
 19 32  1  0  0  0  0
 19 33  2  0  0  0  0
 19 34  1  0  0  0  0
 20 22  2  0  0  0  0
 20 39  1  0  0  0  0
 21 23  2  0  0  0  0
 21 40  1  0  0  0  0
 22 51  1  0  0  0  0
 23 41  1  0  0  0  0
 24 67  1  0  0  0  0
 25 30  2  0  0  0  0
 25 74  1  0  0  0  0
 26 81  1  0  0  0  0
 27 82  1  0  0  0  0
 28 31  2  0  0  0  0
 28 81  1  0  0  0  0
 29 83  1  0  0  0  0
 30 84  1  0  0  0  0
 31 85  1  0  0  0  0
 32 65  2  0  0  0  0
 33 66  1  0  0  0  0
 33 70  1  0  0  0  0
 34 71  1  0  0  0  0
 34 76  2  0  0  0  0
 35 52  1  0  0  0  0
 35 72  1  0  0  0  0
 35 77  2  0  0  0  0
 36 62  1  0  0  0  0
 36 68  1  0  0  0  0
 36 78  2  0  0  0  0
 37 63  1  0  0  0  0
 37 73  1  0  0  0  0
 37 79  2  0  0  0  0
 38 69  1  0  0  0  0
 38 74  1  0  0  0  0
 38 80  2  0  0  0  0
 39 42  1  0  0  0  0
 40 52  1  0  0  0  0
 41 68  1  0  0  0  0
 42 44  1  0  0  0  0
 43 45  1  0  0  0  0
 43 47  1  0  0  0  0
 44 51  1  0  0  0  0
 45 54  1  0  0  0  0
 46 48  1  0  0  0  0
 46 53  1  0  0  0  0
 47 69  1  0  0  0  0
 48 67  1  0  0  0  0
 49 53  1  0  0  0  0
 49 67  1  0  0  0  0
 50 54  1  0  0  0  0
 50 69  1  0  0  0  0
 51 72  1  0  0  0  0
 52 68  1  0  0  0  0
 53 61  1  0  0  0  0
 54 66  1  0  0  0  0
 55 63  1  0  0  0  0
 56 64  1  0  0  0  0
 57 64  1  0  0  0  0
 58 64  1  0  0  0  0
 59 74  1  0  0  0  0
 60 75  1  0  0  0  0
 61 82  1  0  0  0  0
 62 64  1  0  0  0  0
 62 73  1  0  0  0  0
 63 75  1  0  0  0  0
 65 66  1  0  0  0  0
M  CHG  1  75   1
M  ISO  4  38 100  61 101  74 100  82 101
M  END
> <Batch ID>
0014

> <Smiles>
CNC(C)C(=O)NC(C(=O)N1Cc2cc([101O:1][101CH2:1]C3CCN(c4ccc([100N:0](C)[100C:0](=O)N5CCCC(n6nc(-c7ccc(Oc8ccc(F)cc8F)cc7)c(C(N)=O)c6N)C5)c(F)c4)C3)ccc2CC1C(=O)NC1CCCc2ccccc21)C(C)(C)C

> <Shape>
0.170

> <Color>
0.201

> <Negative vol penalty>
0.000

$$$$

  -OEChem-04042320513D

 85 93  0     1  0  0  0  0  0999 V2000
  -26.0535  -30.2057   19.9863 C   0  0  0  0  0  0  0  0  0  0  0  0
  -25.5272  -28.9179   19.9896 C   0  0  0  0  0  0  0  0  0  0  0  0
  -23.2732   -9.8083   19.8946 C   0  0  0  0  0  0  0  0  0  0  0  0
  -23.7167   -9.9180   22.2670 C   0  0  0  0  0  0  0  0  0  0  0  0
  -26.1140  -30.9298   18.7964 C   0  0  0  0  0  0  0  0  0  0  0  0
  -25.0602  -28.3538   18.8029 C   0  0  0  0  0  0  0  0  0  0  0  0
  -26.5947  -23.5666   18.1919 C   0  0  0  0  0  0  0  0  0  0  0  0
  -25.6742  -17.0499   17.7053 C   0  0  0  0  0  0  0  0  0  0  0  0
  -26.6132  -16.3351   16.9617 C   0  0  0  0  0  0  0  0  0  0  0  0
  -22.5358   -8.6400   20.0865 C   0  0  0  0  0  0  0  0  0  0  0  0
  -22.9792   -8.7497   22.4589 C   0  0  0  0  0  0  0  0  0  0  0  0
  -25.9202  -22.5844   18.9158 C   0  0  0  0  0  0  0  0  0  0  0  0
  -19.4429   -7.7946   21.1600 C   0  0  0  0  0  0  0  0  0  0  0  0
  -18.2152   -7.6883   20.5066 C   0  0  0  0  0  0  0  0  0  0  0  0
  -24.6309  -22.0319   16.9533 C   0  0  0  0  0  0  0  0  0  0  0  0
  -27.2591  -17.2459   19.5183 C   0  0  0  0  0  0  0  0  0  0  0  0
  -19.0033   -5.7216   19.3456 C   0  0  0  0  0  0  0  0  0  0  0  0
  -23.8637  -10.4473   20.9849 C   0  0  0  0  0  0  0  0  0  0  0  0
  -24.1462  -12.9770   20.8160 C   0  0  0  0  0  0  0  0  0  0  0  0
  -25.6563  -30.3706   17.5928 C   0  0  0  0  0  0  0  0  0  0  0  0
  -26.2842  -23.7966   16.8439 C   0  0  0  0  0  0  0  0  0  0  0  0
  -25.1134  -29.0715   17.5960 C   0  0  0  0  0  0  0  0  0  0  0  0
  -25.3047  -23.0158   16.2138 C   0  0  0  0  0  0  0  0  0  0  0  0
  -25.9972  -17.5054   18.9836 C   0  0  0  0  0  0  0  0  0  0  0  0
  -27.8751  -16.0756   17.4964 C   0  0  0  0  0  0  0  0  0  0  0  0
  -22.3887   -8.1107   21.3686 C   0  0  0  0  0  0  0  0  0  0  0  0
  -24.9361  -21.8189   18.2974 C   0  0  0  0  0  0  0  0  0  0  0  0
  -20.4509   -6.8644   20.9061 C   0  0  0  0  0  0  0  0  0  0  0  0
  -17.9953   -6.6519   19.5994 C   0  0  0  0  0  0  0  0  0  0  0  0
  -28.1981  -16.5310   18.7747 C   0  0  0  0  0  0  0  0  0  0  0  0
  -20.2311   -5.8279   19.9989 C   0  0  0  0  0  0  0  0  0  0  0  0
  -24.6261  -11.6539   20.7873 C   0  0  0  0  0  0  0  0  0  0  0  0
  -25.2554  -13.7499   20.5738 C   0  0  0  0  0  0  0  0  0  0  0  0
  -22.8166  -13.4639   21.0416 C   0  0  0  0  0  0  0  0  0  0  0  0
  -25.1533  -26.2657   15.1921 C   0  0  0  0  0  0  0  0  0  0  0  0
  -25.7447  -24.3373   12.6517 C   0  0  0  0  0  0  0  0  0  0  0  0
  -26.1556  -21.1684   11.4535 C   0  0  0  0  0  0  0  0  0  0  0  0
  -29.8319  -14.5180   17.3059 C   0  0  0  0  0  0  0  0  0  0  0  0
  -25.6987  -31.2096   16.3402 C   0  0  0  0  0  0  0  0  0  0  0  0
  -27.0396  -24.8417   16.0696 C   0  0  0  0  0  0  0  0  0  0  0  0
  -24.9482  -23.2095   14.7633 C   0  0  0  0  0  0  0  0  0  0  0  0
  -25.5278  -30.3989   15.0581 C   0  0  0  0  0  0  0  0  0  0  0  0
  -30.1629  -12.5813   20.4416 C   0  0  0  0  0  0  0  0  0  0  0  0
  -24.3646  -29.4217   15.1955 C   0  0  0  0  0  0  0  0  0  0  0  0
  -28.7174  -12.2063   20.7629 C   0  0  0  0  0  0  0  0  0  0  0  0
  -30.3851  -12.7461   18.9412 C   0  0  0  0  0  0  0  0  0  0  0  0
  -28.0018  -13.3478   18.6260 C   0  0  0  0  0  0  0  0  0  0  0  0
  -24.6196  -28.4159   16.3246 C   0  0  1  0  0  0  0  0  0  0  0  0
  -26.2829  -25.3390   14.8418 C   0  0  1  0  0  0  0  0  0  0  0  0
  -27.7426  -13.2156   20.1342 C   0  0  1  0  0  0  0  0  0  0  0  0
  -29.8934  -17.2646   13.5803 C   0  0  0  0  0  0  0  0  0  0  0  0
  -26.6765  -19.3532    9.8008 C   0  0  0  0  0  0  0  0  0  0  0  0
  -22.8492  -24.7829   11.7986 C   0  0  0  0  0  0  0  0  0  0  0  0
  -23.0672  -22.8078   10.2754 C   0  0  0  0  0  0  0  0  0  0  0  0
  -24.5056  -24.8156    9.9251 C   0  0  0  0  0  0  0  0  0  0  0  0
  -25.3906  -18.7027   21.0714 C   0  0  0  0  0  0  0  0  0  0  0  0
  -29.0382  -21.2276   12.1215 C   0  0  0  0  0  0  0  0  0  0  0  0
  -29.7788  -16.9165   15.0578 C   0  0  0  0  0  0  0  0  0  0  0  0
  -28.9697  -15.6485   15.3033 C   0  0  0  0  0  0  0  0  0  0  0  0
  -23.7432  -18.5217   19.2001 C   0  0  0  0  0  0  0  0  0  0  0  0
  -23.8094  -19.7246   18.2740 C   0  0  0  0  0  0  0  0  0  1  0  0
  -24.9575  -23.2955   11.8942 C   0  0  1  0  0  0  0  0  0  0  0  0
  -27.2143  -20.5625   10.5498 C   0  0  2  0  0  0  0  0  0  0  0  0
  -23.8500  -23.9229   11.0012 C   0  0  0  0  0  0  0  0  0  0  0  0
  -25.9380  -11.5864   20.5456 N   0  0  0  0  0  0  0  0  0  0  0  0
  -26.2919  -12.8768   20.4203 N   0  0  0  0  0  0  0  0  0  0  0  0
  -25.7104  -24.2480   14.0505 N   0  0  0  0  0  0  0  0  0  0  0  0
  -29.4121  -13.6633   18.3458 N   0  0  0  0  0  0  0  0  0  0  0  0
  -25.4355  -15.0845   20.4791 N   0  0  0  0  0  0  0  0  0  0  0  0
  -21.7949  -12.5332   21.2749 N   0  0  0  0  0  0  0  0  0  0  0  0
  -25.5454  -27.3921   15.8900 N   0  0  0  0  0  0  0  0  0  0  0  0
  -25.9351  -22.4979   11.1617 N   0  0  0  0  0  0  0  0  0  0  0  0
  -28.8438  -15.3357   16.7250 N   0  0  0  0  0  0  0  0  0  0  0  0
  -25.0540  -18.2240   19.7303 N   0  0  3  0  0  0  0  0  0  0  0  0
  -28.3948  -20.1322   11.3512 N   0  3  0  0  0  0  0  0  0  0  0  0
  -22.5397  -14.6871   21.0202 O   0  0  0  0  0  0  0  0  0  0  0  0
  -24.0107  -25.9807   14.8531 O   0  0  0  0  0  0  0  0  0  0  0  0
  -26.3729  -25.1944   12.0253 O   0  0  0  0  0  0  0  0  0  0  0  0
  -25.5790  -20.5255   12.3280 O   0  0  0  0  0  0  0  0  0  0  0  0
  -30.9951  -14.5138   16.8847 O   0  0  0  0  0  0  0  0  0  0  0  0
  -21.6690   -6.9708   21.5562 O   0  0  0  0  0  0  0  0  0  0  0  0
  -24.2757  -20.8600   19.0019 O   0  0  0  0  0  0  0  0  0  1  0  0
  -16.8157   -6.5490   18.9732 F   0  0  0  0  0  0  0  0  0  0  0  0
  -29.4078  -16.2869   19.2986 F   0  0  0  0  0  0  0  0  0  0  0  0
  -21.1952   -4.9306   19.7518 F   0  0  0  0  0  0  0  0  0  0  0  0
  1  2  1  0  0  0  0
  1  5  2  0  0  0  0
  2  6  2  0  0  0  0
  3 10  2  0  0  0  0
  3 18  1  0  0  0  0
  4 11  1  0  0  0  0
  4 18  2  0  0  0  0
  5 20  1  0  0  0  0
  6 22  1  0  0  0  0
  7 12  2  0  0  0  0
  7 21  1  0  0  0  0
  8  9  2  0  0  0  0
  8 24  1  0  0  0  0
  9 25  1  0  0  0  0
 10 26  1  0  0  0  0
 11 26  2  0  0  0  0
 12 27  1  0  0  0  0
 13 14  2  0  0  0  0
 13 28  1  0  0  0  0
 14 29  1  0  0  0  0
 15 23  1  0  0  0  0
 15 27  2  0  0  0  0
 16 24  2  0  0  0  0
 16 30  1  0  0  0  0
 17 29  2  0  0  0  0
 17 31  1  0  0  0  0
 18 32  1  0  0  0  0
 19 32  1  0  0  0  0
 19 33  2  0  0  0  0
 19 34  1  0  0  0  0
 20 22  2  0  0  0  0
 20 39  1  0  0  0  0
 21 23  2  0  0  0  0
 21 40  1  0  0  0  0
 22 48  1  0  0  0  0
 23 41  1  0  0  0  0
 24 74  1  0  0  0  0
 25 30  2  0  0  0  0
 25 73  1  0  0  0  0
 26 81  1  0  0  0  0
 27 82  1  0  0  0  0
 28 31  2  0  0  0  0
 28 81  1  0  0  0  0
 29 83  1  0  0  0  0
 30 84  1  0  0  0  0
 31 85  1  0  0  0  0
 32 65  2  0  0  0  0
 33 66  1  0  0  0  0
 33 69  1  0  0  0  0
 34 70  1  0  0  0  0
 34 76  2  0  0  0  0
 35 49  1  0  0  0  0
 35 71  1  0  0  0  0
 35 77  2  0  0  0  0
 36 62  1  0  0  0  0
 36 67  1  0  0  0  0
 36 78  2  0  0  0  0
 37 63  1  0  0  0  0
 37 72  1  0  0  0  0
 37 79  2  0  0  0  0
 38 68  1  0  0  0  0
 38 73  1  0  0  0  0
 38 80  2  0  0  0  0
 39 42  1  0  0  0  0
 40 49  1  0  0  0  0
 41 67  1  0  0  0  0
 42 44  1  0  0  0  0
 43 45  1  0  0  0  0
 43 46  1  0  0  0  0
 44 48  1  0  0  0  0
 45 50  1  0  0  0  0
 46 68  1  0  0  0  0
 47 50  1  0  0  0  0
 47 68  1  0  0  0  0
 48 71  1  0  0  0  0
 49 67  1  0  0  0  0
 50 66  1  0  0  0  0
 51 58  1  0  0  0  0
 52 63  1  0  0  0  0
 53 64  1  0  0  0  0
 54 64  1  0  0  0  0
 55 64  1  0  0  0  0
 56 74  1  0  0  0  0
 57 75  1  0  0  0  0
 58 59  1  0  0  0  0
 59 73  1  0  0  0  0
 60 61  1  0  0  0  0
 60 74  1  0  0  0  0
 61 82  1  0  0  0  0
 62 64  1  0  0  0  0
 62 72  1  0  0  0  0
 63 75  1  0  0  0  0
 65 66  1  0  0  0  0
M  CHG  1  75   1
M  ISO  4  38 100  61 101  73 100  82 101
M  END
> <Batch ID>
0014

> <Smiles>
CCC[100N:0](c1ccc(N(C)C[101CH2:1][101O:1]c2ccc3c(c2)CN(C(=O)C(NC(=O)C(C)NC)C(C)(C)C)C(C(=O)NC2CCCc4ccccc42)C3)cc1F)[100C:0](=O)N1CCCC(n2nc(-c3ccc(Oc4ccc(F)cc4F)cc3)c(C(N)=O)c2N)C1

> <Shape>
0.141

> <Color>
0.181

> <Negative vol penalty>
0.000

$$$$

  -OEChem-04042320513D

 84 93  0     1  0  0  0  0  0999 V2000
  -31.5108  -35.3654   14.4704 C   0  0  0  0  0  0  0  0  0  0  0  0
  -31.9718  -34.1911   15.0567 C   0  0  0  0  0  0  0  0  0  0  0  0
  -23.3558  -10.2604   22.3803 C   0  0  0  0  0  0  0  0  0  0  0  0
  -23.7041   -9.3929   20.1525 C   0  0  0  0  0  0  0  0  0  0  0  0
  -30.2572  -35.8696   14.8145 C   0  0  0  0  0  0  0  0  0  0  0  0
  -31.1799  -33.5208   15.9884 C   0  0  0  0  0  0  0  0  0  0  0  0
  -30.1077  -19.1554   19.5112 C   0  0  0  0  0  0  0  0  0  0  0  0
  -30.7950  -27.4647   16.8141 C   0  0  0  0  0  0  0  0  0  0  0  0
  -31.1155  -20.1187   19.5914 C   0  0  0  0  0  0  0  0  0  0  0  0
  -22.6645   -9.0989   22.7246 C   0  0  0  0  0  0  0  0  0  0  0  0
  -23.0129   -8.2313   20.4968 C   0  0  0  0  0  0  0  0  0  0  0  0
  -31.3944  -26.6032   17.7319 C   0  0  0  0  0  0  0  0  0  0  0  0
  -19.7939   -7.2617   20.8560 C   0  0  0  0  0  0  0  0  0  0  0  0
  -18.8493   -6.7774   19.9511 C   0  0  0  0  0  0  0  0  0  0  0  0
  -32.1489  -18.9449   21.4543 C   0  0  0  0  0  0  0  0  0  0  0  0
  -29.4318  -26.7351   19.1283 C   0  0  0  0  0  0  0  0  0  0  0  0
  -20.0815   -4.7069   19.7732 C   0  0  0  0  0  0  0  0  0  0  0  0
  -23.8756  -10.4074   21.0943 C   0  0  0  0  0  0  0  0  0  0  0  0
  -24.0970  -12.9261   20.7551 C   0  0  0  0  0  0  0  0  0  0  0  0
  -29.4456  -35.1999   15.7437 C   0  0  0  0  0  0  0  0  0  0  0  0
  -30.1415  -18.0926   20.3989 C   0  0  0  0  0  0  0  0  0  0  0  0
  -29.5117  -27.9774   17.0522 C   0  0  0  0  0  0  0  0  0  0  0  0
  -29.9149  -34.0171   16.3463 C   0  0  0  0  0  0  0  0  0  0  0  0
  -31.1514  -17.9884   21.3602 C   0  0  0  0  0  0  0  0  0  0  0  0
  -28.8173  -27.6009   18.2107 C   0  0  0  0  0  0  0  0  0  0  0  0
  -32.1291  -20.0142   20.5564 C   0  0  0  0  0  0  0  0  0  0  0  0
  -22.4931   -8.0843   21.7829 C   0  0  0  0  0  0  0  0  0  0  0  0
  -30.7139  -26.2406   18.8906 C   0  0  0  0  0  0  0  0  0  0  0  0
  -20.8823   -6.4687   21.2195 C   0  0  0  0  0  0  0  0  0  0  0  0
  -18.9931   -5.5000   19.4097 C   0  0  0  0  0  0  0  0  0  0  0  0
  -21.0261   -5.1912   20.6780 C   0  0  0  0  0  0  0  0  0  0  0  0
  -24.5893  -11.6073   20.7379 C   0  0  0  0  0  0  0  0  0  0  0  0
  -25.1557  -13.6933   20.3344 C   0  0  0  0  0  0  0  0  0  0  0  0
  -22.7988  -13.4140   21.1191 C   0  0  0  0  0  0  0  0  0  0  0  0
  -30.6048  -14.9346   20.5700 C   0  0  0  0  0  0  0  0  0  0  0  0
  -28.2989  -30.8869   17.4612 C   0  0  0  0  0  0  0  0  0  0  0  0
  -25.4755  -29.2901   17.4312 C   0  0  0  0  0  0  0  0  0  0  0  0
  -23.8014  -26.3556   17.9141 C   0  0  0  0  0  0  0  0  0  0  0  0
  -28.1178  -35.8087   16.1193 C   0  0  0  0  0  0  0  0  0  0  0  0
  -29.1593  -16.9688   20.5209 C   0  0  0  0  0  0  0  0  0  0  0  0
  -28.8684  -28.8844   16.0394 C   0  0  0  0  0  0  0  0  0  0  0  0
  -30.9525  -16.7833   22.2266 C   0  0  0  0  0  0  0  0  0  0  0  0
  -27.4295  -28.1076   18.5033 C   0  0  0  0  0  0  0  0  0  0  0  0
  -27.1831  -34.8372   16.8354 C   0  0  0  0  0  0  0  0  0  0  0  0
  -29.5782  -12.3749   18.2822 C   0  0  0  0  0  0  0  0  0  0  0  0
  -27.9323  -34.0849   17.9307 C   0  0  0  0  0  0  0  0  0  0  0  0
  -28.1598  -12.0343   18.7375 C   0  0  0  0  0  0  0  0  0  0  0  0
  -30.4751  -12.7263   19.4650 C   0  0  0  0  0  0  0  0  0  0  0  0
  -28.5239  -13.4868   20.7827 C   0  0  0  0  0  0  0  0  0  0  0  0
  -29.0748  -33.2480   17.3426 C   0  0  1  0  0  0  0  0  0  0  0  0
  -29.9198  -15.9755   21.4192 C   0  0  2  0  0  0  0  0  0  0  0  0
  -27.7638  -29.7538   16.6322 C   0  0  1  0  0  0  0  0  0  0  0  0
  -27.5769  -13.1557   19.6157 C   0  0  2  0  0  0  0  0  0  0  0  0
  -21.4944  -25.3703   17.8501 C   0  0  0  0  0  0  0  0  0  0  0  0
  -24.8300  -30.6346   20.0931 C   0  0  0  0  0  0  0  0  0  0  0  0
  -23.0215  -28.9369   20.4325 C   0  0  0  0  0  0  0  0  0  0  0  0
  -22.9094  -30.5060   18.4965 C   0  0  0  0  0  0  0  0  0  0  0  0
  -34.1882  -20.8949   21.6265 C   0  0  0  0  0  0  0  0  0  0  0  0
  -24.5546  -24.4358   15.7914 C   0  0  0  0  0  0  0  0  0  0  0  0
  -32.2042  -23.2136   20.1812 C   0  0  0  0  0  0  0  0  0  0  0  0
  -33.1465  -22.1133   19.7084 C   0  0  0  0  0  0  0  0  0  0  0  0
  -32.2182  -24.4391   19.2751 C   0  0  0  0  0  0  0  0  0  1  0  0
  -24.6077  -28.6332   18.4773 C   0  0  1  0  0  0  0  0  0  0  0  0
  -22.7708  -25.6326   17.0660 C   0  0  2  0  0  0  0  0  0  0  0  0
  -23.8690  -29.6695   19.3706 C   0  0  0  0  0  0  0  0  0  0  0  0
  -25.8616  -11.5371   20.3377 N   0  0  0  0  0  0  0  0  0  0  0  0
  -26.1778  -12.8214   20.0995 N   0  0  0  0  0  0  0  0  0  0  0  0
  -29.8760  -13.7793   20.2869 N   0  0  0  0  0  0  0  0  0  0  0  0
  -26.8455  -28.9969   17.4856 N   0  0  0  0  0  0  0  0  0  0  0  0
  -25.3026  -15.0220   20.1461 N   0  0  0  0  0  0  0  0  0  0  0  0
  -21.8282  -12.4895   21.5284 N   0  0  0  0  0  0  0  0  0  0  0  0
  -28.5571  -32.0378   16.7412 N   0  0  0  0  0  0  0  0  0  0  0  0
  -23.7212  -27.7234   17.7597 N   0  0  0  0  0  0  0  0  0  0  0  0
  -33.1273  -20.9969   20.6225 N   0  0  3  0  0  0  0  0  0  0  0  0
  -23.3111  -24.3254   16.5967 N   0  3  0  0  0  0  0  0  0  0  0  0
  -22.5031  -14.6319   21.0666 O   0  0  0  0  0  0  0  0  0  0  0  0
  -31.7524  -15.1450   20.1687 O   0  0  0  0  0  0  0  0  0  0  0  0
  -28.4639  -30.7293   18.6652 O   0  0  0  0  0  0  0  0  0  0  0  0
  -24.9560  -30.0302   16.5923 O   0  0  0  0  0  0  0  0  0  0  0  0
  -24.5956  -25.7662   18.6438 O   0  0  0  0  0  0  0  0  0  0  0  0
  -21.8188   -6.9506   22.1186 O   0  0  0  0  0  0  0  0  0  0  0  0
  -31.2969  -25.4004   19.7884 O   0  0  0  0  0  0  0  0  0  1  0  0
  -18.0852   -5.0344   18.5419 F   0  0  0  0  0  0  0  0  0  0  0  0
  -22.0690   -4.4242   21.0243 F   0  0  0  0  0  0  0  0  0  0  0  0
  1  2  1  0  0  0  0
  1  5  2  0  0  0  0
  2  6  2  0  0  0  0
  3 10  2  0  0  0  0
  3 18  1  0  0  0  0
  4 11  1  0  0  0  0
  4 18  2  0  0  0  0
  5 20  1  0  0  0  0
  6 23  1  0  0  0  0
  7  9  2  0  0  0  0
  7 21  1  0  0  0  0
  8 12  2  0  0  0  0
  8 22  1  0  0  0  0
  9 26  1  0  0  0  0
 10 27  1  0  0  0  0
 11 27  2  0  0  0  0
 12 28  1  0  0  0  0
 13 14  2  0  0  0  0
 13 29  1  0  0  0  0
 14 30  1  0  0  0  0
 15 24  1  0  0  0  0
 15 26  2  0  0  0  0
 16 25  1  0  0  0  0
 16 28  2  0  0  0  0
 17 30  2  0  0  0  0
 17 31  1  0  0  0  0
 18 32  1  0  0  0  0
 19 32  1  0  0  0  0
 19 33  2  0  0  0  0
 19 34  1  0  0  0  0
 20 23  2  0  0  0  0
 20 39  1  0  0  0  0
 21 24  2  0  0  0  0
 21 40  1  0  0  0  0
 22 25  2  0  0  0  0
 22 41  1  0  0  0  0
 23 50  1  0  0  0  0
 24 42  1  0  0  0  0
 25 43  1  0  0  0  0
 26 74  1  0  0  0  0
 27 81  1  0  0  0  0
 28 82  1  0  0  0  0
 29 31  2  0  0  0  0
 29 81  1  0  0  0  0
 30 83  1  0  0  0  0
 31 84  1  0  0  0  0
 32 66  2  0  0  0  0
 33 67  1  0  0  0  0
 33 70  1  0  0  0  0
 34 71  1  0  0  0  0
 34 76  2  0  0  0  0
 35 51  1  0  0  0  0
 35 68  1  0  0  0  0
 35 77  2  0  0  0  0
 36 52  1  0  0  0  0
 36 72  1  0  0  0  0
 36 78  2  0  0  0  0
 37 63  1  0  0  0  0
 37 69  1  0  0  0  0
 37 79  2  0  0  0  0
 38 64  1  0  0  0  0
 38 73  1  0  0  0  0
 38 80  2  0  0  0  0
 39 44  1  0  0  0  0
 40 51  1  0  0  0  0
 41 52  1  0  0  0  0
 42 51  1  0  0  0  0
 43 69  1  0  0  0  0
 44 46  1  0  0  0  0
 45 47  1  0  0  0  0
 45 48  1  0  0  0  0
 46 50  1  0  0  0  0
 47 53  1  0  0  0  0
 48 68  1  0  0  0  0
 49 53  1  0  0  0  0
 49 68  1  0  0  0  0
 50 72  1  0  0  0  0
 52 69  1  0  0  0  0
 53 67  1  0  0  0  0
 54 64  1  0  0  0  0
 55 65  1  0  0  0  0
 56 65  1  0  0  0  0
 57 65  1  0  0  0  0
 58 74  1  0  0  0  0
 59 75  1  0  0  0  0
 60 61  1  0  0  0  0
 60 62  1  0  0  0  0
 61 74  1  0  0  0  0
 62 82  1  0  0  0  0
 63 65  1  0  0  0  0
 63 73  1  0  0  0  0
 64 75  1  0  0  0  0
 66 67  1  0  0  0  0
M  CHG  1  75   1
M  ISO  4  35 100  51 100  62 101  82 101
M  END
> <Batch ID>
0014

> <Smiles>
CNC(C)C(=O)NC(C(=O)N1Cc2cc([101O:1][101CH2:1]CCN(C)c3ccc4c(c3)C[100CH:0]([100C:0](=O)N3CCCC(n5nc(-c6ccc(Oc7ccc(F)cc7F)cc6)c(C(N)=O)c5N)C3)C4)ccc2CC1C(=O)NC1CCCc2ccccc21)C(C)(C)C

> <Shape>
0.221

> <Color>
0.204

> <Negative vol penalty>
0.000

$$$$

  -OEChem-04042320513D

 82 90  0     1  0  0  0  0  0999 V2000
  -17.7884  -32.9572   22.0745 C   0  0  0  0  0  0  0  0  0  0  0  0
  -19.0679  -33.0660   21.5393 C   0  0  0  0  0  0  0  0  0  0  0  0
  -23.0494  -13.0811   20.9633 C   0  0  0  0  0  0  0  0  0  0  0  0
  -23.3095  -14.7257   22.7139 C   0  0  0  0  0  0  0  0  0  0  0  0
  -17.5254  -32.0090   23.0622 C   0  0  0  0  0  0  0  0  0  0  0  0
  -20.0855  -32.2273   21.9923 C   0  0  0  0  0  0  0  0  0  0  0  0
  -25.9928  -28.8798   19.7086 C   0  0  0  0  0  0  0  0  0  0  0  0
  -30.7187  -21.5213   19.2402 C   0  0  0  0  0  0  0  0  0  0  0  0
  -22.3650  -12.2476   21.8479 C   0  0  0  0  0  0  0  0  0  0  0  0
  -22.6251  -13.8922   23.5986 C   0  0  0  0  0  0  0  0  0  0  0  0
  -27.3401  -28.7304   20.0343 C   0  0  0  0  0  0  0  0  0  0  0  0
  -31.0304  -22.8750   19.3659 C   0  0  0  0  0  0  0  0  0  0  0  0
  -19.2524  -12.0144   23.1479 C   0  0  0  0  0  0  0  0  0  0  0  0
  -18.0840  -11.4044   22.6914 C   0  0  0  0  0  0  0  0  0  0  0  0
  -26.7506  -27.0760   21.6880 C   0  0  0  0  0  0  0  0  0  0  0  0
  -28.3985  -22.0891   18.8780 C   0  0  0  0  0  0  0  0  0  0  0  0
  -19.0627   -9.2317   23.0901 C   0  0  0  0  0  0  0  0  0  0  0  0
  -23.5217  -14.3201   21.3963 C   0  0  0  0  0  0  0  0  0  0  0  0
  -23.6765  -16.1650   19.6413 C   0  0  0  0  0  0  0  0  0  0  0  0
  -18.5381  -31.1516   23.5207 C   0  0  0  0  0  0  0  0  0  0  0  0
  -25.0116  -28.1352   20.3788 C   0  0  0  0  0  0  0  0  0  0  0  0
  -19.8362  -31.2675   22.9881 C   0  0  0  0  0  0  0  0  0  0  0  0
  -25.3917  -27.2160   21.3671 C   0  0  0  0  0  0  0  0  0  0  0  0
  -29.4028  -21.1283   18.9962 C   0  0  0  0  0  0  0  0  0  0  0  0
  -22.1529  -12.6532   23.1656 C   0  0  0  0  0  0  0  0  0  0  0  0
  -27.7190  -27.8305   21.0261 C   0  0  0  0  0  0  0  0  0  0  0  0
  -20.3259  -11.2331   23.5754 C   0  0  0  0  0  0  0  0  0  0  0  0
  -30.0261  -23.8358   19.2478 C   0  0  0  0  0  0  0  0  0  0  0  0
  -17.9891  -10.0130   22.6625 C   0  0  0  0  0  0  0  0  0  0  0  0
  -28.7101  -23.4429   19.0038 C   0  0  0  0  0  0  0  0  0  0  0  0
  -20.2311   -9.8418   23.5465 C   0  0  0  0  0  0  0  0  0  0  0  0
  -24.2292  -15.1813   20.4831 C   0  0  0  0  0  0  0  0  0  0  0  0
  -24.7565  -16.6982   18.9811 C   0  0  0  0  0  0  0  0  0  0  0  0
  -22.3091  -16.5615   19.4714 C   0  0  0  0  0  0  0  0  0  0  0  0
  -22.5237  -28.8496   22.2236 C   0  0  0  0  0  0  0  0  0  0  0  0
  -21.9611  -25.6608   22.0310 C   0  0  0  0  0  0  0  0  0  0  0  0
  -23.2027  -22.5268   21.4987 C   0  0  0  0  0  0  0  0  0  0  0  0
  -29.9627  -18.6724   18.9586 C   0  0  0  0  0  0  0  0  0  0  0  0
  -18.2175  -30.1742   24.6236 C   0  0  0  0  0  0  0  0  0  0  0  0
  -23.5648  -28.2885   19.9972 C   0  0  0  0  0  0  0  0  0  0  0  0
  -24.3790  -26.3779   22.1023 C   0  0  0  0  0  0  0  0  0  0  0  0
  -19.2605  -29.0708   24.7819 C   0  0  0  0  0  0  0  0  0  0  0  0
  -29.5667  -15.1408   18.7393 C   0  0  0  0  0  0  0  0  0  0  0  0
  -20.6673  -29.6603   24.7690 C   0  0  0  0  0  0  0  0  0  0  0  0
  -28.0973  -14.9174   19.1042 C   0  0  0  0  0  0  0  0  0  0  0  0
  -30.1886  -16.2712   19.5572 C   0  0  0  0  0  0  0  0  0  0  0  0
  -27.9828  -17.3179   19.8864 C   0  0  0  0  0  0  0  0  0  0  0  0
  -20.9606  -30.3590   23.4358 C   0  0  1  0  0  0  0  0  0  0  0  0
  -22.6063  -27.8538   21.1015 C   0  0  1  0  0  0  0  0  0  0  0  0
  -27.2952  -16.2321   19.0426 C   0  0  2  0  0  0  0  0  0  0  0  0
  -22.5085  -20.1158   21.4447 C   0  0  0  0  0  0  0  0  0  0  0  0
  -21.8853  -25.6167   25.0810 C   0  0  0  0  0  0  0  0  0  0  0  0
  -22.1454  -23.1286   24.9821 C   0  0  0  0  0  0  0  0  0  0  0  0
  -20.1375  -24.2120   23.9736 C   0  0  0  0  0  0  0  0  0  0  0  0
  -23.9756  -22.2477   18.6556 C   0  0  0  0  0  0  0  0  0  0  0  0
  -31.2263  -27.0652   20.5521 C   0  0  0  0  0  0  0  0  0  0  0  0
  -29.9844  -27.9077   20.3065 C   0  0  0  0  0  0  0  0  0  1  0  0
  -30.9048  -25.5799   20.6049 C   0  0  0  0  0  0  0  0  0  0  0  0
  -22.3801  -24.4510   22.8310 C   0  0  1  0  0  0  0  0  0  0  0  0
  -22.7121  -21.3832   20.6292 C   0  0  2  0  0  0  0  0  0  0  0  0
  -21.6562  -24.3691   24.2046 C   0  0  0  0  0  0  0  0  0  0  0  0
  -25.5571  -15.0925   20.3698 N   0  0  0  0  0  0  0  0  0  0  0  0
  -25.8478  -16.0273   19.4491 N   0  0  0  0  0  0  0  0  0  0  0  0
  -22.9764  -26.5685   21.6976 N   0  0  0  0  0  0  0  0  0  0  0  0
  -29.3772  -17.4856   19.4479 N   0  0  0  0  0  0  0  0  0  0  0  0
  -24.8695  -17.6707   18.0517 N   0  0  0  0  0  0  0  0  0  0  0  0
  -21.3257  -15.9102   20.2283 N   0  0  0  0  0  0  0  0  0  0  0  0
  -29.0861  -19.7531   18.8684 N   0  0  0  0  0  0  0  0  0  0  0  0
  -21.2630  -29.3839   22.4100 N   0  0  0  0  0  0  0  0  0  0  0  0
  -22.1587  -23.2950   21.9691 N   0  0  0  0  0  0  0  0  0  0  0  0
  -23.6976  -21.0940   19.5493 N   0  3  0  0  0  0  0  0  0  0  0  0
  -21.9678  -17.4552   18.6600 O   0  0  0  0  0  0  0  0  0  0  0  0
  -23.5289  -29.1126   22.8733 O   0  0  0  0  0  0  0  0  0  0  0  0
  -20.7780  -25.7917   21.7075 O   0  0  0  0  0  0  0  0  0  0  0  0
  -24.3927  -22.7171   21.7399 O   0  0  0  0  0  0  0  0  0  0  0  0
  -31.1473  -18.7188   18.6172 O   0  0  0  0  0  0  0  0  0  0  0  0
  -21.4849  -11.8402   24.0290 O   0  0  0  0  0  0  0  0  0  0  0  0
  -29.0334  -27.6831   21.3464 O   0  0  0  0  0  0  0  0  0  1  0  0
  -30.3344  -25.1657   19.3709 O   0  0  0  0  0  0  0  0  0  0  0  0
  -16.8665   -9.4274   22.2256 F   0  0  0  0  0  0  0  0  0  0  0  0
  -27.7413  -24.3614   18.8881 F   0  0  0  0  0  0  0  0  0  0  0  0
  -21.2587   -9.0859   23.9571 F   0  0  0  0  0  0  0  0  0  0  0  0
  1  2  1  0  0  0  0
  1  5  2  0  0  0  0
  2  6  2  0  0  0  0
  3  9  2  0  0  0  0
  3 18  1  0  0  0  0
  4 10  1  0  0  0  0
  4 18  2  0  0  0  0
  5 20  1  0  0  0  0
  6 22  1  0  0  0  0
  7 11  2  0  0  0  0
  7 21  1  0  0  0  0
  8 12  2  0  0  0  0
  8 24  1  0  0  0  0
  9 25  1  0  0  0  0
 10 25  2  0  0  0  0
 11 26  1  0  0  0  0
 12 28  1  0  0  0  0
 13 14  2  0  0  0  0
 13 27  1  0  0  0  0
 14 29  1  0  0  0  0
 15 23  1  0  0  0  0
 15 26  2  0  0  0  0
 16 24  2  0  0  0  0
 16 30  1  0  0  0  0
 17 29  2  0  0  0  0
 17 31  1  0  0  0  0
 18 32  1  0  0  0  0
 19 32  1  0  0  0  0
 19 33  2  0  0  0  0
 19 34  1  0  0  0  0
 20 22  2  0  0  0  0
 20 39  1  0  0  0  0
 21 23  2  0  0  0  0
 21 40  1  0  0  0  0
 22 48  1  0  0  0  0
 23 41  1  0  0  0  0
 24 68  1  0  0  0  0
 25 77  1  0  0  0  0
 26 78  1  0  0  0  0
 27 31  2  0  0  0  0
 27 77  1  0  0  0  0
 28 30  2  0  0  0  0
 28 79  1  0  0  0  0
 29 80  1  0  0  0  0
 30 81  1  0  0  0  0
 31 82  1  0  0  0  0
 32 62  2  0  0  0  0
 33 63  1  0  0  0  0
 33 66  1  0  0  0  0
 34 67  1  0  0  0  0
 34 72  2  0  0  0  0
 35 49  1  0  0  0  0
 35 69  1  0  0  0  0
 35 73  2  0  0  0  0
 36 59  1  0  0  0  0
 36 64  1  0  0  0  0
 36 74  2  0  0  0  0
 37 60  1  0  0  0  0
 37 70  1  0  0  0  0
 37 75  2  0  0  0  0
 38 65  1  0  0  0  0
 38 68  1  0  0  0  0
 38 76  2  0  0  0  0
 39 42  1  0  0  0  0
 40 49  1  0  0  0  0
 41 64  1  0  0  0  0
 42 44  1  0  0  0  0
 43 45  1  0  0  0  0
 43 46  1  0  0  0  0
 44 48  1  0  0  0  0
 45 50  1  0  0  0  0
 46 65  1  0  0  0  0
 47 50  1  0  0  0  0
 47 65  1  0  0  0  0
 48 69  1  0  0  0  0
 49 64  1  0  0  0  0
 50 63  1  0  0  0  0
 51 60  1  0  0  0  0
 52 61  1  0  0  0  0
 53 61  1  0  0  0  0
 54 61  1  0  0  0  0
 55 71  1  0  0  0  0
 56 57  1  0  0  0  0
 56 58  1  0  0  0  0
 57 78  1  0  0  0  0
 58 79  1  0  0  0  0
 59 61  1  0  0  0  0
 59 70  1  0  0  0  0
 60 71  1  0  0  0  0
 62 63  1  0  0  0  0
M  CHG  1  71   1
M  ISO  4  38 100  57 101  68 100  78 101
M  END
> <Batch ID>
0014

> <Smiles>
CNC(C)C(=O)NC(C(=O)N1Cc2cc([101O:1][101CH2:1]CCOc3ccc([100NH:0][100C:0](=O)N4CCCC(n5nc(-c6ccc(Oc7ccc(F)cc7F)cc6)c(C(N)=O)c5N)C4)cc3F)ccc2CC1C(=O)NC1CCCc2ccccc21)C(C)(C)C

> <Shape>
0.201

> <Color>
0.083

> <Negative vol penalty>
0.000

$$$$

  -OEChem-04042320513D

 86 96  0     1  0  0  0  0  0999 V2000
  -32.9011  -30.9552   20.9644 C   0  0  0  0  0  0  0  0  0  0  0  0
  -32.1974  -29.7804   21.2100 C   0  0  0  0  0  0  0  0  0  0  0  0
  -22.9557  -10.0624   19.9469 C   0  0  0  0  0  0  0  0  0  0  0  0
  -23.7200   -9.8875   22.2322 C   0  0  0  0  0  0  0  0  0  0  0  0
  -32.2630  -32.1882   21.0920 C   0  0  0  0  0  0  0  0  0  0  0  0
  -30.8555  -29.8382   21.5845 C   0  0  0  0  0  0  0  0  0  0  0  0
  -29.3961  -17.3598   21.6243 C   0  0  0  0  0  0  0  0  0  0  0  0
  -27.9996  -26.4711   19.1043 C   0  0  0  0  0  0  0  0  0  0  0  0
  -28.7461  -18.4572   21.0596 C   0  0  0  0  0  0  0  0  0  0  0  0
  -22.1349   -8.9507   20.1364 C   0  0  0  0  0  0  0  0  0  0  0  0
  -22.8991   -8.7758   22.4217 C   0  0  0  0  0  0  0  0  0  0  0  0
  -28.0559  -25.1470   19.5370 C   0  0  0  0  0  0  0  0  0  0  0  0
  -22.9593   -5.4786   21.6766 C   0  0  0  0  0  0  0  0  0  0  0  0
  -23.5045   -4.3745   22.3318 C   0  0  0  0  0  0  0  0  0  0  0  0
  -25.9890  -25.4590   20.7411 C   0  0  0  0  0  0  0  0  0  0  0  0
  -30.8540  -19.6284   20.9096 C   0  0  0  0  0  0  0  0  0  0  0  0
  -21.8234   -4.5677   24.0562 C   0  0  0  0  0  0  0  0  0  0  0  0
  -23.7483  -10.5308   20.9948 C   0  0  0  0  0  0  0  0  0  0  0  0
  -24.2629  -13.0293   21.0148 C   0  0  0  0  0  0  0  0  0  0  0  0
  -30.9099  -32.2608   21.4589 C   0  0  0  0  0  0  0  0  0  0  0  0
  -26.9415  -27.3037   19.4963 C   0  0  0  0  0  0  0  0  0  0  0  0
  -30.1991  -31.0735   21.7185 C   0  0  0  0  0  0  0  0  0  0  0  0
  -30.7750  -17.3967   21.8317 C   0  0  0  0  0  0  0  0  0  0  0  0
  -25.9203  -26.7925   20.3099 C   0  0  0  0  0  0  0  0  0  0  0  0
  -29.4751  -19.5915   20.7022 C   0  0  0  0  0  0  0  0  0  0  0  0
  -22.1065   -8.3074   21.3738 C   0  0  0  0  0  0  0  0  0  0  0  0
  -27.0521  -24.6415   20.3579 C   0  0  0  0  0  0  0  0  0  0  0  0
  -21.8461   -6.1272   22.2112 C   0  0  0  0  0  0  0  0  0  0  0  0
  -22.9366   -3.9190   23.5216 C   0  0  0  0  0  0  0  0  0  0  0  0
  -31.5039  -18.5310   21.4743 C   0  0  0  0  0  0  0  0  0  0  0  0
  -21.2781   -5.6718   23.4010 C   0  0  0  0  0  0  0  0  0  0  0  0
  -24.5969  -11.6788   20.7996 C   0  0  0  0  0  0  0  0  0  0  0  0
  -25.4031  -13.7214   20.6873 C   0  0  0  0  0  0  0  0  0  0  0  0
  -23.0319  -13.6065   21.4702 C   0  0  0  0  0  0  0  0  0  0  0  0
  -26.7074  -29.9980   21.1665 C   0  0  0  0  0  0  0  0  0  0  0  0
  -23.5967  -29.8301   20.2624 C   0  0  0  0  0  0  0  0  0  0  0  0
  -20.9782  -27.8971   19.2357 C   0  0  0  0  0  0  0  0  0  0  0  0
  -30.8831  -14.3869   20.8344 C   0  0  0  0  0  0  0  0  0  0  0  0
  -30.2760  -33.6185   21.6300 C   0  0  0  0  0  0  0  0  0  0  0  0
  -26.8814  -28.7220   18.9991 C   0  0  0  0  0  0  0  0  0  0  0  0
  -24.7522  -27.6393   20.7423 C   0  0  0  0  0  0  0  0  0  0  0  0
  -28.7504  -33.5782   21.6666 C   0  0  0  0  0  0  0  0  0  0  0  0
  -31.4979  -14.7962   24.3846 C   0  0  0  0  0  0  0  0  0  0  0  0
  -29.6356  -12.2290   18.3815 C   0  0  0  0  0  0  0  0  0  0  0  0
  -31.5018  -16.2642   23.9771 C   0  0  0  0  0  0  0  0  0  0  0  0
  -28.2678  -32.4687   22.5956 C   0  0  0  0  0  0  0  0  0  0  0  0
  -28.1901  -11.9801   18.8075 C   0  0  0  0  0  0  0  0  0  0  0  0
  -30.5585  -12.2725   19.5929 C   0  0  0  0  0  0  0  0  0  0  0  0
  -30.5782  -14.1621   23.3527 C   0  0  0  0  0  0  0  0  0  0  0  0
  -28.7196  -13.0766   21.0436 C   0  0  0  0  0  0  0  0  0  0  0  0
  -29.2027  -22.0515   20.2499 C   0  0  0  0  0  0  0  0  0  0  0  0
  -27.4266  -20.9308   20.1185 C   0  0  0  0  0  0  0  0  0  0  0  0
  -31.4763  -16.2055   22.4441 C   0  0  1  0  0  0  0  0  0  0  0  0
  -28.7355  -31.0940   22.1027 C   0  0  1  0  0  0  0  0  0  0  0  0
  -26.0261  -29.6280   19.8794 C   0  0  1  0  0  0  0  0  0  0  0  0
  -27.7425  -13.0165   19.8516 C   0  0  2  0  0  0  0  0  0  0  0  0
  -27.7527  -22.4153   19.9007 C   0  0  0  0  0  0  0  0  0  1  0  0
  -18.5516  -28.0376   18.6119 C   0  0  0  0  0  0  0  0  0  0  0  0
  -22.8559  -30.0843   23.2114 C   0  0  0  0  0  0  0  0  0  0  0  0
  -20.5582  -29.2762   22.6321 C   0  0  0  0  0  0  0  0  0  0  0  0
  -21.4121  -31.4068   21.6553 C   0  0  0  0  0  0  0  0  0  0  0  0
  -21.5052  -26.9060   16.4972 C   0  0  0  0  0  0  0  0  0  0  0  0
  -22.3485  -29.2053   20.8374 C   0  0  1  0  0  0  0  0  0  0  0  0
  -19.9838  -28.0682   18.1015 C   0  0  2  0  0  0  0  0  0  0  0  0
  -21.8165  -29.9775   22.0776 C   0  0  0  0  0  0  0  0  0  0  0  0
  -25.8511  -11.5202   20.3685 N   0  0  0  0  0  0  0  0  0  0  0  0
  -26.3152  -12.7801   20.3101 N   0  0  0  0  0  0  0  0  0  0  0  0
  -28.8174  -20.7007   20.1308 N   0  0  0  0  0  0  0  0  0  0  0  0
  -24.7417  -29.0214   20.2353 N   0  0  0  0  0  0  0  0  0  0  0  0
  -30.1022  -13.2525   20.5791 N   0  0  0  0  0  0  0  0  0  0  0  0
  -30.8379  -14.9188   22.1264 N   0  0  0  0  0  0  0  0  0  0  0  0
  -25.7045  -15.0373   20.6879 N   0  0  0  0  0  0  0  0  0  0  0  0
  -21.9607  -12.7513   21.7622 N   0  0  0  0  0  0  0  0  0  0  0  0
  -27.9152  -30.6477   20.9971 N   0  0  0  0  0  0  0  0  0  0  0  0
  -21.3947  -29.1121   19.7373 N   0  0  0  0  0  0  0  0  0  0  0  0
  -20.1488  -26.9778   17.0991 N   0  3  0  0  0  0  0  0  0  0  0  0
  -22.8811  -14.8452   21.5981 O   0  0  0  0  0  0  0  0  0  0  0  0
  -26.1760  -29.7163   22.2341 O   0  0  0  0  0  0  0  0  0  0  0  0
  -23.5554  -30.9905   19.8459 O   0  0  0  0  0  0  0  0  0  0  0  0
  -21.3457  -26.7958   19.6389 O   0  0  0  0  0  0  0  0  0  0  0  0
  -31.6015  -14.8874   19.9597 O   0  0  0  0  0  0  0  0  0  0  0  0
  -21.3055   -7.2227   21.5591 O   0  0  0  0  0  0  0  0  0  0  0  0
  -27.1050  -23.3472   20.7831 O   0  0  0  0  0  0  0  0  0  1  0  0
  -23.4593   -2.8578   24.1499 F   0  0  0  0  0  0  0  0  0  0  0  0
  -32.8290  -18.5761   21.6709 F   0  0  0  0  0  0  0  0  0  0  0  0
  -20.2079   -6.2901   23.9188 F   0  0  0  0  0  0  0  0  0  0  0  0
  1  2  1  0  0  0  0
  1  5  2  0  0  0  0
  2  6  2  0  0  0  0
  3 10  2  0  0  0  0
  3 18  1  0  0  0  0
  4 11  1  0  0  0  0
  4 18  2  0  0  0  0
  5 20  1  0  0  0  0
  6 22  1  0  0  0  0
  7  9  2  0  0  0  0
  7 23  1  0  0  0  0
  8 12  2  0  0  0  0
  8 21  1  0  0  0  0
  9 25  1  0  0  0  0
 10 26  1  0  0  0  0
 11 26  2  0  0  0  0
 12 27  1  0  0  0  0
 13 14  2  0  0  0  0
 13 28  1  0  0  0  0
 14 29  1  0  0  0  0
 15 24  1  0  0  0  0
 15 27  2  0  0  0  0
 16 25  2  0  0  0  0
 16 30  1  0  0  0  0
 17 29  2  0  0  0  0
 17 31  1  0  0  0  0
 18 32  1  0  0  0  0
 19 32  1  0  0  0  0
 19 33  2  0  0  0  0
 19 34  1  0  0  0  0
 20 22  2  0  0  0  0
 20 39  1  0  0  0  0
 21 24  2  0  0  0  0
 21 40  1  0  0  0  0
 22 54  1  0  0  0  0
 23 30  2  0  0  0  0
 23 53  1  0  0  0  0
 24 41  1  0  0  0  0
 25 68  1  0  0  0  0
 26 82  1  0  0  0  0
 27 83  1  0  0  0  0
 28 31  2  0  0  0  0
 28 82  1  0  0  0  0
 29 84  1  0  0  0  0
 30 85  1  0  0  0  0
 31 86  1  0  0  0  0
 32 66  2  0  0  0  0
 33 67  1  0  0  0  0
 33 72  1  0  0  0  0
 34 73  1  0  0  0  0
 34 77  2  0  0  0  0
 35 55  1  0  0  0  0
 35 74  1  0  0  0  0
 35 78  2  0  0  0  0
 36 63  1  0  0  0  0
 36 69  1  0  0  0  0
 36 79  2  0  0  0  0
 37 64  1  0  0  0  0
 37 75  1  0  0  0  0
 37 80  2  0  0  0  0
 38 70  1  0  0  0  0
 38 71  1  0  0  0  0
 38 81  2  0  0  0  0
 39 42  1  0  0  0  0
 40 55  1  0  0  0  0
 41 69  1  0  0  0  0
 42 46  1  0  0  0  0
 43 45  1  0  0  0  0
 43 49  1  0  0  0  0
 44 47  1  0  0  0  0
 44 48  1  0  0  0  0
 45 53  1  0  0  0  0
 46 54  1  0  0  0  0
 47 56  1  0  0  0  0
 48 70  1  0  0  0  0
 49 71  1  0  0  0  0
 50 56  1  0  0  0  0
 50 70  1  0  0  0  0
 51 57  1  0  0  0  0
 51 68  1  0  0  0  0
 52 57  1  0  0  0  0
 52 68  1  0  0  0  0
 53 71  1  0  0  0  0
 54 74  1  0  0  0  0
 55 69  1  0  0  0  0
 56 67  1  0  0  0  0
 57 83  1  0  0  0  0
 58 64  1  0  0  0  0
 59 65  1  0  0  0  0
 60 65  1  0  0  0  0
 61 65  1  0  0  0  0
 62 76  1  0  0  0  0
 63 65  1  0  0  0  0
 63 75  1  0  0  0  0
 64 76  1  0  0  0  0
 66 67  1  0  0  0  0
M  CHG  1  76   1
M  ISO  4  38 100  57 101  71 100  83 101
M  END
> <Batch ID>
0014

> <Smiles>
CNC(C)C(=O)NC(C(=O)N1Cc2cc([101O:1][101CH:1]3CN(c4ccc(C5CCC[100N:0]5[100C:0](=O)N5CCCC(n6nc(-c7ccc(Oc8ccc(F)cc8F)cc7)c(C(N)=O)c6N)C5)c(F)c4)C3)ccc2CC1C(=O)NC1CCCc2ccccc21)C(C)(C)C

> <Shape>
0.340

> <Color>
0.212

> <Negative vol penalty>
0.000

$$$$

  -OEChem-04042320513D

 85 94  0     1  0  0  0  0  0999 V2000
  -15.4652  -31.5304   21.2141 C   0  0  0  0  0  0  0  0  0  0  0  0
  -16.3960  -30.8212   20.4618 C   0  0  0  0  0  0  0  0  0  0  0  0
  -23.8476  -11.3998   23.6976 C   0  0  0  0  0  0  0  0  0  0  0  0
  -24.3201   -9.5644   22.1992 C   0  0  0  0  0  0  0  0  0  0  0  0
  -15.8561  -32.6778   21.9030 C   0  0  0  0  0  0  0  0  0  0  0  0
  -17.7182  -31.2597   20.3970 C   0  0  0  0  0  0  0  0  0  0  0  0
  -23.1393  -27.0206   22.5261 C   0  0  0  0  0  0  0  0  0  0  0  0
  -23.3307  -10.5032   24.6328 C   0  0  0  0  0  0  0  0  0  0  0  0
  -23.8033   -8.6678   23.1345 C   0  0  0  0  0  0  0  0  0  0  0  0
  -24.2460  -26.1928   22.7163 C   0  0  0  0  0  0  0  0  0  0  0  0
  -20.7575   -7.6273   24.1694 C   0  0  0  0  0  0  0  0  0  0  0  0
  -19.8938   -6.6345   23.7069 C   0  0  0  0  0  0  0  0  0  0  0  0
  -25.7265  -28.0454   22.2430 C   0  0  0  0  0  0  0  0  0  0  0  0
  -21.4120   -4.9375   24.5144 C   0  0  0  0  0  0  0  0  0  0  0  0
  -24.3422  -10.9304   22.4808 C   0  0  0  0  0  0  0  0  0  0  0  0
  -24.1983  -12.9241   20.8959 C   0  0  0  0  0  0  0  0  0  0  0  0
  -17.1858  -33.1251   21.8545 C   0  0  0  0  0  0  0  0  0  0  0  0
  -23.3224  -28.3693   22.2084 C   0  0  0  0  0  0  0  0  0  0  0  0
  -18.1269  -32.4149   21.0849 C   0  0  0  0  0  0  0  0  0  0  0  0
  -24.6219  -28.8823   22.0636 C   0  0  0  0  0  0  0  0  0  0  0  0
  -23.3086   -9.1373   24.3513 C   0  0  0  0  0  0  0  0  0  0  0  0
  -25.5363  -26.7039   22.5748 C   0  0  0  0  0  0  0  0  0  0  0  0
  -21.9485   -7.2752   24.8044 C   0  0  0  0  0  0  0  0  0  0  0  0
  -20.2210   -5.2896   23.8794 C   0  0  0  0  0  0  0  0  0  0  0  0
  -22.2758   -5.9303   24.9769 C   0  0  0  0  0  0  0  0  0  0  0  0
  -24.8758  -11.8561   21.5140 C   0  0  0  0  0  0  0  0  0  0  0  0
  -25.1357  -13.4922   20.0682 C   0  0  0  0  0  0  0  0  0  0  0  0
  -22.8429  -13.3635   21.0556 C   0  0  0  0  0  0  0  0  0  0  0  0
  -21.7287  -31.6836   21.4659 C   0  0  0  0  0  0  0  0  0  0  0  0
  -24.1632  -32.2444   23.2461 C   0  0  0  0  0  0  0  0  0  0  0  0
  -26.4026  -33.5205   25.4807 C   0  0  0  0  0  0  0  0  0  0  0  0
  -30.2170  -15.2865   18.9867 C   0  0  0  0  0  0  0  0  0  0  0  0
  -17.5506  -34.3974   22.5776 C   0  0  0  0  0  0  0  0  0  0  0  0
  -22.1590  -29.2831   21.9342 C   0  0  0  0  0  0  0  0  0  0  0  0
  -24.7705  -30.3311   21.6869 C   0  0  0  0  0  0  0  0  0  0  0  0
  -19.0546  -34.5844   22.7604 C   0  0  0  0  0  0  0  0  0  0  0  0
  -29.7031  -11.8737   18.6485 C   0  0  0  0  0  0  0  0  0  0  0  0
  -19.7908  -34.2963   21.4558 C   0  0  0  0  0  0  0  0  0  0  0  0
  -30.2376  -19.9898   17.9986 C   0  0  0  0  0  0  0  0  0  0  0  0
  -30.7850  -19.8224   20.4604 C   0  0  0  0  0  0  0  0  0  0  0  0
  -28.3476  -11.6385   19.3134 C   0  0  0  0  0  0  0  0  0  0  0  0
  -29.5689  -18.6158   18.0516 C   0  0  0  0  0  0  0  0  0  0  0  0
  -30.1181  -18.4476   20.5175 C   0  0  0  0  0  0  0  0  0  0  0  0
  -28.3139  -24.6219   20.7503 C   0  0  0  0  0  0  0  0  0  0  0  0
  -30.5331  -12.8745   19.4436 C   0  0  0  0  0  0  0  0  0  0  0  0
  -28.4944  -13.9746   20.3122 C   0  0  0  0  0  0  0  0  0  0  0  0
  -29.3646  -23.6540   20.2311 C   0  0  0  0  0  0  0  0  0  0  0  0
  -27.6710  -22.4905   21.5546 C   0  0  0  0  0  0  0  0  0  0  0  0
  -19.5759  -32.8449   21.0101 C   0  0  1  0  0  0  0  0  0  0  0  0
  -22.4021  -30.7278   22.4063 C   0  0  1  0  0  0  0  0  0  0  0  0
  -30.2221  -20.7201   19.3492 C   0  0  0  0  0  0  0  0  0  0  0  0
  -27.7686  -23.9402   21.9974 C   0  0  2  0  0  0  0  0  0  0  0  0
  -27.6101  -12.9686   19.5471 C   0  0  2  0  0  0  0  0  0  0  0  0
  -30.1661  -17.7453   19.1594 C   0  0  0  0  0  0  0  0  0  0  0  0
  -27.6271  -35.6349   26.0532 C   0  0  0  0  0  0  0  0  0  0  0  0
  -26.0591  -31.7765   20.9029 C   0  0  0  0  0  0  0  0  0  0  0  0
  -27.7230  -33.2579   22.0454 C   0  0  0  0  0  0  0  0  0  0  0  0
  -25.5139  -34.1777   21.3408 C   0  0  0  0  0  0  0  0  0  0  0  0
  -28.1494  -16.4860   19.8181 C   0  0  0  0  0  0  0  0  0  0  0  0
  -25.1481  -33.6595   28.1576 C   0  0  0  0  0  0  0  0  0  0  0  0
  -28.8239  -21.2394   19.6955 C   0  0  0  0  0  0  0  0  0  0  0  0
  -26.4434  -24.5082   22.4585 C   0  0  0  0  0  0  0  0  0  1  0  0
  -25.6273  -32.5986   23.3120 C   0  0  1  0  0  0  0  0  0  0  0  0
  -26.3865  -34.7931   26.3082 C   0  0  2  0  0  0  0  0  0  0  0  0
  -26.2205  -32.9297   21.9134 C   0  0  0  0  0  0  0  0  0  0  0  0
  -26.1454  -11.7498   21.1132 N   0  0  0  0  0  0  0  0  0  0  0  0
  -26.2733  -12.7583   20.2342 N   0  0  0  0  0  0  0  0  0  0  0  0
  -23.8128  -31.1488   22.4477 N   0  0  0  0  0  0  0  0  0  0  0  0
  -29.8001  -14.1237   19.6513 N   0  0  0  0  0  0  0  0  0  0  0  0
  -25.0897  -14.5429   19.2218 N   0  0  0  0  0  0  0  0  0  0  0  0
  -22.0154  -12.6669   21.9468 N   0  0  0  0  0  0  0  0  0  0  0  0
  -20.4104  -31.9500   21.7829 N   0  0  0  0  0  0  0  0  0  0  0  0
  -25.7417  -33.6828   24.2815 N   0  0  0  0  0  0  0  0  0  0  0  0
  -29.4858  -16.4597   19.2266 N   0  0  0  0  0  0  0  0  0  0  0  0
  -28.9373  -22.2931   20.7496 N   0  3  1  0  0  0  0  0  0  0  0  0
  -26.3313  -34.4655   27.7610 N   0  3  0  0  0  0  0  0  0  0  0  0
  -22.3746  -14.3346   20.4143 O   0  0  0  0  0  0  0  0  0  0  0  0
  -22.3583  -32.1472   20.5223 O   0  0  0  0  0  0  0  0  0  0  0  0
  -23.3495  -32.9225   23.8796 O   0  0  0  0  0  0  0  0  0  0  0  0
  -26.9502  -32.4872   25.8585 O   0  0  0  0  0  0  0  0  0  0  0  0
  -31.1936  -15.2801   18.2262 O   0  0  0  0  0  0  0  0  0  0  0  0
  -22.8046   -8.2621   25.2637 O   0  0  0  0  0  0  0  0  0  0  0  0
  -26.6123  -25.8913   22.7663 O   0  0  0  0  0  0  0  0  0  1  0  0
  -19.3908   -4.3363   23.4366 F   0  0  0  0  0  0  0  0  0  0  0  0
  -23.4180   -5.5860   25.5873 F   0  0  0  0  0  0  0  0  0  0  0  0
  1  2  1  0  0  0  0
  1  5  2  0  0  0  0
  2  6  2  0  0  0  0
  3  8  2  0  0  0  0
  3 15  1  0  0  0  0
  4  9  1  0  0  0  0
  4 15  2  0  0  0  0
  5 17  1  0  0  0  0
  6 19  1  0  0  0  0
  7 10  2  0  0  0  0
  7 18  1  0  0  0  0
  8 21  1  0  0  0  0
  9 21  2  0  0  0  0
 10 22  1  0  0  0  0
 11 12  2  0  0  0  0
 11 23  1  0  0  0  0
 12 24  1  0  0  0  0
 13 20  1  0  0  0  0
 13 22  2  0  0  0  0
 14 24  2  0  0  0  0
 14 25  1  0  0  0  0
 15 26  1  0  0  0  0
 16 26  1  0  0  0  0
 16 27  2  0  0  0  0
 16 28  1  0  0  0  0
 17 19  2  0  0  0  0
 17 33  1  0  0  0  0
 18 20  2  0  0  0  0
 18 34  1  0  0  0  0
 19 49  1  0  0  0  0
 20 35  1  0  0  0  0
 21 82  1  0  0  0  0
 22 83  1  0  0  0  0
 23 25  2  0  0  0  0
 23 82  1  0  0  0  0
 24 84  1  0  0  0  0
 25 85  1  0  0  0  0
 26 66  2  0  0  0  0
 27 67  1  0  0  0  0
 27 70  1  0  0  0  0
 28 71  1  0  0  0  0
 28 77  2  0  0  0  0
 29 50  1  0  0  0  0
 29 72  1  0  0  0  0
 29 78  2  0  0  0  0
 30 63  1  0  0  0  0
 30 68  1  0  0  0  0
 30 79  2  0  0  0  0
 31 64  1  0  0  0  0
 31 73  1  0  0  0  0
 31 80  2  0  0  0  0
 32 69  1  0  0  0  0
 32 74  1  0  0  0  0
 32 81  2  0  0  0  0
 33 36  1  0  0  0  0
 34 50  1  0  0  0  0
 35 68  1  0  0  0  0
 36 38  1  0  0  0  0
 37 41  1  0  0  0  0
 37 45  1  0  0  0  0
 38 49  1  0  0  0  0
 39 42  1  0  0  0  0
 39 51  1  0  0  0  0
 40 43  1  0  0  0  0
 40 51  1  0  0  0  0
 41 53  1  0  0  0  0
 42 54  1  0  0  0  0
 43 54  1  0  0  0  0
 44 47  1  0  0  0  0
 44 52  1  0  0  0  0
 45 69  1  0  0  0  0
 46 53  1  0  0  0  0
 46 69  1  0  0  0  0
 47 75  1  0  0  0  0
 48 52  1  0  0  0  0
 48 75  1  0  0  0  0
 49 72  1  0  0  0  0
 50 68  1  0  0  0  0
 51 61  1  0  0  0  0
 52 62  1  0  0  0  0
 53 67  1  0  0  0  0
 54 74  1  0  0  0  0
 55 64  1  0  0  0  0
 56 65  1  0  0  0  0
 57 65  1  0  0  0  0
 58 65  1  0  0  0  0
 59 74  1  0  0  0  0
 60 76  1  0  0  0  0
 61 75  1  0  0  0  0
 62 83  1  0  0  0  0
 63 65  1  0  0  0  0
 63 73  1  0  0  0  0
 64 76  1  0  0  0  0
 66 67  1  0  0  0  0
M  CHG  2  75   1  76   1
M  ISO  4  32 100  62 101  74 100  83 101
M  END
> <Batch ID>
0014

> <Smiles>
CNC(C)C(=O)NC(C(=O)N1Cc2cc([101O:1][101CH2:1]C3CCN(CC4CCC([100N:0](C)[100C:0](=O)N5CCCC(n6nc(-c7ccc(Oc8ccc(F)cc8F)cc7)c(C(N)=O)c6N)C5)CC4)C3)ccc2CC1C(=O)NC1CCCc2ccccc21)C(C)(C)C

> <Shape>
0.267

> <Color>
0.131

> <Negative vol penalty>
0.000

$$$$

  -OEChem-04042320513D

 83 91  0     1  0  0  0  0  0999 V2000
  -26.8598  -19.1699   17.8141 C   0  0  0  0  0  0  0  0  0  0  0  0
  -27.5548  -19.5668   18.9520 C   0  0  0  0  0  0  0  0  0  0  0  0
  -23.0835   -9.9116   19.8944 C   0  0  0  0  0  0  0  0  0  0  0  0
  -23.8455   -9.8531   22.1863 C   0  0  0  0  0  0  0  0  0  0  0  0
  -27.0585  -19.8404   16.6080 C   0  0  0  0  0  0  0  0  0  0  0  0
  -28.4499  -20.6339   18.8841 C   0  0  0  0  0  0  0  0  0  0  0  0
  -27.9549  -23.8356   22.7763 C   0  0  0  0  0  0  0  0  0  0  0  0
  -30.3569  -18.3489   24.2730 C   0  0  0  0  0  0  0  0  0  0  0  0
  -32.5522  -17.5516   23.6549 C   0  0  0  0  0  0  0  0  0  0  0  0
  -29.7810  -17.4873   23.3394 C   0  0  0  0  0  0  0  0  0  0  0  0
  -31.9763  -16.6899   22.7213 C   0  0  0  0  0  0  0  0  0  0  0  0
  -22.3564   -8.7403   20.1062 C   0  0  0  0  0  0  0  0  0  0  0  0
  -23.1184   -8.6818   22.3982 C   0  0  0  0  0  0  0  0  0  0  0  0
  -28.5171  -23.4508   23.9927 C   0  0  0  0  0  0  0  0  0  0  0  0
  -23.4560   -5.3847   21.7304 C   0  0  0  0  0  0  0  0  0  0  0  0
  -24.0868   -4.3450   22.4135 C   0  0  0  0  0  0  0  0  0  0  0  0
  -30.4222  -24.8636   23.5522 C   0  0  0  0  0  0  0  0  0  0  0  0
  -22.3848   -4.4374   24.1257 C   0  0  0  0  0  0  0  0  0  0  0  0
  -23.8281  -10.4680   20.9344 C   0  0  0  0  0  0  0  0  0  0  0  0
  -24.1338  -13.0004   20.8983 C   0  0  0  0  0  0  0  0  0  0  0  0
  -27.9493  -20.9224   16.5275 C   0  0  0  0  0  0  0  0  0  0  0  0
  -28.6284  -24.7304   21.9323 C   0  0  0  0  0  0  0  0  0  0  0  0
  -28.6618  -21.3187   17.6754 C   0  0  0  0  0  0  0  0  0  0  0  0
  -29.8652  -25.2601   22.3268 C   0  0  0  0  0  0  0  0  0  0  0  0
  -31.7424  -18.3811   24.4307 C   0  0  0  0  0  0  0  0  0  0  0  0
  -30.5907  -16.6578   22.5636 C   0  0  0  0  0  0  0  0  0  0  0  0
  -22.3738   -8.1254   21.3581 C   0  0  0  0  0  0  0  0  0  0  0  0
  -29.7523  -23.9626   24.3795 C   0  0  0  0  0  0  0  0  0  0  0  0
  -22.2897   -5.9509   22.2450 C   0  0  0  0  0  0  0  0  0  0  0  0
  -23.5512   -3.8713   23.6111 C   0  0  0  0  0  0  0  0  0  0  0  0
  -21.7541   -5.4772   23.4426 C   0  0  0  0  0  0  0  0  0  0  0  0
  -24.5799  -11.6777   20.7161 C   0  0  0  0  0  0  0  0  0  0  0  0
  -25.2148  -13.7771   20.5596 C   0  0  0  0  0  0  0  0  0  0  0  0
  -22.8566  -13.4838   21.3349 C   0  0  0  0  0  0  0  0  0  0  0  0
  -29.8126  -24.5759   18.9865 C   0  0  0  0  0  0  0  0  0  0  0  0
  -30.3507  -27.7401   19.4559 C   0  0  0  0  0  0  0  0  0  0  0  0
  -30.8365  -30.3008   21.6590 C   0  0  0  0  0  0  0  0  0  0  0  0
  -30.6657  -14.8942   20.7662 C   0  0  0  0  0  0  0  0  0  0  0  0
  -28.1664  -21.5861   15.1907 C   0  0  0  0  0  0  0  0  0  0  0  0
  -27.9961  -25.1561   20.6356 C   0  0  0  0  0  0  0  0  0  0  0  0
  -30.6193  -26.2394   21.4661 C   0  0  0  0  0  0  0  0  0  0  0  0
  -28.8524  -22.9461   15.2901 C   0  0  0  0  0  0  0  0  0  0  0  0
  -29.5835  -12.5449   18.3195 C   0  0  0  0  0  0  0  0  0  0  0  0
  -30.0540  -22.8707   16.2268 C   0  0  0  0  0  0  0  0  0  0  0  0
  -28.1486  -12.2186   18.7398 C   0  0  0  0  0  0  0  0  0  0  0  0
  -30.4964  -12.7466   19.5276 C   0  0  0  0  0  0  0  0  0  0  0  0
  -28.5807  -13.3974   20.9332 C   0  0  0  0  0  0  0  0  0  0  0  0
  -29.6228  -22.4874   17.6475 C   0  0  1  0  0  0  0  0  0  0  0  0
  -29.0084  -25.6759   19.6195 C   0  0  1  0  0  0  0  0  0  0  0  0
  -27.6093  -13.2496   19.7508 C   0  0  2  0  0  0  0  0  0  0  0  0
  -31.2881  -32.7678   21.7435 C   0  0  0  0  0  0  0  0  0  0  0  0
  -33.2598  -27.2315   18.6886 C   0  0  0  0  0  0  0  0  0  0  0  0
  -33.8393  -29.4516   19.6903 C   0  0  0  0  0  0  0  0  0  0  0  0
  -32.2836  -29.3313   17.7440 C   0  0  0  0  0  0  0  0  0  0  0  0
  -28.3174  -30.8295   23.1195 C   0  0  0  0  0  0  0  0  0  0  0  0
  -33.4109  -20.9884   23.9262 C   0  0  0  0  0  0  0  0  0  0  0  0
  -32.3617  -19.3080   25.4349 C   0  0  0  0  0  0  0  0  0  0  0  0
  -31.1551  -21.7727   26.8821 C   0  0  0  0  0  0  0  0  0  0  0  0
  -32.4692  -21.6998   26.1192 C   0  0  0  0  0  0  0  0  0  0  0  0
  -29.9878  -22.2818   26.0454 C   0  0  0  0  0  0  0  0  0  1  0  0
  -31.4879  -28.5596   20.0164 C   0  0  1  0  0  0  0  0  0  0  0  0
  -30.2200  -31.6853   21.7461 C   0  0  2  0  0  0  0  0  0  0  0  0
  -32.7046  -28.6236   19.0504 C   0  0  0  0  0  0  0  0  0  0  0  0
  -25.8456  -11.6139   20.2941 N   0  0  0  0  0  0  0  0  0  0  0  0
  -26.2040  -12.9063   20.2084 N   0  0  0  0  0  0  0  0  0  0  0  0
  -29.9626  -26.6201   20.2046 N   0  0  0  0  0  0  0  0  0  0  0  0
  -29.9237  -13.7396   20.4391 N   0  0  0  0  0  0  0  0  0  0  0  0
  -25.4062  -15.1131   20.5309 N   0  0  0  0  0  0  0  0  0  0  0  0
  -21.8580  -12.5496   21.6422 N   0  0  0  0  0  0  0  0  0  0  0  0
  -30.0061  -15.7821   21.6153 N   0  0  0  0  0  0  0  0  0  0  0  0
  -29.0510  -23.6297   18.3277 N   0  0  0  0  0  0  0  0  0  0  0  0
  -30.9245  -29.8621   20.3548 N   0  0  0  0  0  0  0  0  0  0  0  0
  -29.4194  -31.8180   22.9961 N   0  3  0  0  0  0  0  0  0  0  0  0
  -32.3632  -20.7499   24.9870 N   0  3  1  0  0  0  0  0  0  0  0  0
  -22.6028  -14.7083   21.4333 O   0  0  0  0  0  0  0  0  0  0  0  0
  -31.0339  -24.5856   19.0871 O   0  0  0  0  0  0  0  0  0  0  0  0
  -29.8214  -28.0853   18.3965 O   0  0  0  0  0  0  0  0  0  0  0  0
  -31.2067  -29.6730   22.6486 O   0  0  0  0  0  0  0  0  0  0  0  0
  -31.7919  -15.0945   20.3038 O   0  0  0  0  0  0  0  0  0  0  0  0
  -21.6642   -6.9825   21.5652 O   0  0  0  0  0  0  0  0  0  0  0  0
  -30.3035  -23.5882   25.5660 O   0  0  0  0  0  0  0  0  0  1  0  0
  -24.1562   -2.8717   24.2662 F   0  0  0  0  0  0  0  0  0  0  0  0
  -20.6331   -6.0163   23.9413 F   0  0  0  0  0  0  0  0  0  0  0  0
  1  2  1  0  0  0  0
  1  5  2  0  0  0  0
  2  6  2  0  0  0  0
  3 12  2  0  0  0  0
  3 19  1  0  0  0  0
  4 13  1  0  0  0  0
  4 19  2  0  0  0  0
  5 21  1  0  0  0  0
  6 23  1  0  0  0  0
  7 14  2  0  0  0  0
  7 22  1  0  0  0  0
  8 10  2  0  0  0  0
  8 25  1  0  0  0  0
  9 11  1  0  0  0  0
  9 25  2  0  0  0  0
 10 26  1  0  0  0  0
 11 26  2  0  0  0  0
 12 27  1  0  0  0  0
 13 27  2  0  0  0  0
 14 28  1  0  0  0  0
 15 16  2  0  0  0  0
 15 29  1  0  0  0  0
 16 30  1  0  0  0  0
 17 24  1  0  0  0  0
 17 28  2  0  0  0  0
 18 30  2  0  0  0  0
 18 31  1  0  0  0  0
 19 32  1  0  0  0  0
 20 32  1  0  0  0  0
 20 33  2  0  0  0  0
 20 34  1  0  0  0  0
 21 23  2  0  0  0  0
 21 39  1  0  0  0  0
 22 24  2  0  0  0  0
 22 40  1  0  0  0  0
 23 48  1  0  0  0  0
 24 41  1  0  0  0  0
 25 57  1  0  0  0  0
 26 70  1  0  0  0  0
 27 80  1  0  0  0  0
 28 81  1  0  0  0  0
 29 31  2  0  0  0  0
 29 80  1  0  0  0  0
 30 82  1  0  0  0  0
 31 83  1  0  0  0  0
 32 64  2  0  0  0  0
 33 65  1  0  0  0  0
 33 68  1  0  0  0  0
 34 69  1  0  0  0  0
 34 75  2  0  0  0  0
 35 49  1  0  0  0  0
 35 71  1  0  0  0  0
 35 76  2  0  0  0  0
 36 61  1  0  0  0  0
 36 66  1  0  0  0  0
 36 77  2  0  0  0  0
 37 62  1  0  0  0  0
 37 72  1  0  0  0  0
 37 78  2  0  0  0  0
 38 67  1  0  0  0  0
 38 70  1  0  0  0  0
 38 79  2  0  0  0  0
 39 42  1  0  0  0  0
 40 49  1  0  0  0  0
 41 66  1  0  0  0  0
 42 44  1  0  0  0  0
 43 45  1  0  0  0  0
 43 46  1  0  0  0  0
 44 48  1  0  0  0  0
 45 50  1  0  0  0  0
 46 67  1  0  0  0  0
 47 50  1  0  0  0  0
 47 67  1  0  0  0  0
 48 71  1  0  0  0  0
 49 66  1  0  0  0  0
 50 65  1  0  0  0  0
 51 62  1  0  0  0  0
 52 63  1  0  0  0  0
 53 63  1  0  0  0  0
 54 63  1  0  0  0  0
 55 73  1  0  0  0  0
 56 74  1  0  0  0  0
 57 74  1  0  0  0  0
 58 59  1  0  0  0  0
 58 60  1  0  0  0  0
 59 74  1  0  0  0  0
 60 81  1  0  0  0  0
 61 63  1  0  0  0  0
 61 72  1  0  0  0  0
 62 73  1  0  0  0  0
 64 65  1  0  0  0  0
M  CHG  2  73   1  74   1
M  ISO  4  38 100  60 101  70 100  81 101
M  END
> <Batch ID>
0014

> <Smiles>
CNC(C)C(=O)NC(C(=O)N1Cc2cc([101O:1][101CH2:1]CCN(C)Cc3ccc([100NH:0][100C:0](=O)N4CCCC(n5nc(-c6ccc(Oc7ccc(F)cc7F)cc6)c(C(N)=O)c5N)C4)cc3)ccc2CC1C(=O)NC1CCCc2ccccc21)C(C)(C)C

> <Shape>
0.252

> <Color>
0.203

> <Negative vol penalty>
0.000

$$$$

  -OEChem-04042320513D

 90 99  0     1  0  0  0  0  0999 V2000
  -27.9238  -32.9040   26.6778 C   0  0  0  0  0  0  0  0  0  0  0  0
  -28.1471  -31.9367   25.7032 C   0  0  0  0  0  0  0  0  0  0  0  0
  -22.3273  -12.2622   23.5658 C   0  0  0  0  0  0  0  0  0  0  0  0
  -23.9694  -12.9355   25.2051 C   0  0  0  0  0  0  0  0  0  0  0  0
  -26.6763  -32.9968   27.2934 C   0  0  0  0  0  0  0  0  0  0  0  0
  -27.1231  -31.0608   25.3444 C   0  0  0  0  0  0  0  0  0  0  0  0
  -26.7265  -30.4861   20.3287 C   0  0  0  0  0  0  0  0  0  0  0  0
  -33.3581  -22.1337   20.5770 C   0  0  0  0  0  0  0  0  0  0  0  0
  -33.5202  -20.7769   20.2969 C   0  0  0  0  0  0  0  0  0  0  0  0
  -21.5110  -11.7717   24.5850 C   0  0  0  0  0  0  0  0  0  0  0  0
  -23.1531  -12.4451   26.2243 C   0  0  0  0  0  0  0  0  0  0  0  0
  -27.6515  -29.6472   19.7089 C   0  0  0  0  0  0  0  0  0  0  0  0
  -19.3662  -13.0243   26.8792 C   0  0  0  0  0  0  0  0  0  0  0  0
  -18.0074  -13.3352   26.8277 C   0  0  0  0  0  0  0  0  0  0  0  0
  -26.0117  -27.8784   19.6692 C   0  0  0  0  0  0  0  0  0  0  0  0
  -31.3380  -22.1658   19.2520 C   0  0  0  0  0  0  0  0  0  0  0  0
  -17.4725  -10.9811   26.7319 C   0  0  0  0  0  0  0  0  0  0  0  0
  -23.5566  -12.8441   23.8759 C   0  0  0  0  0  0  0  0  0  0  0  0
  -24.0876  -14.3614   21.8952 C   0  0  0  0  0  0  0  0  0  0  0  0
  -25.6336  -32.1279   26.9351 C   0  0  0  0  0  0  0  0  0  0  0  0
  -25.4385  -30.0232   20.6339 C   0  0  0  0  0  0  0  0  0  0  0  0
  -25.8608  -31.1412   25.9568 C   0  0  0  0  0  0  0  0  0  0  0  0
  -25.0714  -28.7142   20.2906 C   0  0  0  0  0  0  0  0  0  0  0  0
  -32.2669  -22.8281   20.0546 C   0  0  0  0  0  0  0  0  0  0  0  0
  -32.5913  -20.1146   19.4944 C   0  0  0  0  0  0  0  0  0  0  0  0
  -21.9239  -11.8631   25.9142 C   0  0  0  0  0  0  0  0  0  0  0  0
  -27.2952  -28.3422   19.3816 C   0  0  0  0  0  0  0  0  0  0  0  0
  -19.7782  -11.6918   26.8569 C   0  0  0  0  0  0  0  0  0  0  0  0
  -17.0606  -12.3136   26.7541 C   0  0  0  0  0  0  0  0  0  0  0  0
  -31.5002  -20.8090   18.9720 C   0  0  0  0  0  0  0  0  0  0  0  0
  -18.8313  -10.6702   26.7833 C   0  0  0  0  0  0  0  0  0  0  0  0
  -24.4005  -13.3505   22.8236 C   0  0  0  0  0  0  0  0  0  0  0  0
  -25.2125  -14.4709   21.1147 C   0  0  0  0  0  0  0  0  0  0  0  0
  -30.9427  -16.9380   19.4053 C   0  0  0  0  0  0  0  0  0  0  0  0
  -22.8875  -15.1326   21.7512 C   0  0  0  0  0  0  0  0  0  0  0  0
  -30.7821  -14.7847   20.7012 C   0  0  0  0  0  0  0  0  0  0  0  0
  -23.7767  -29.6181   23.3130 C   0  0  0  0  0  0  0  0  0  0  0  0
  -21.3747  -28.9011   21.2542 C   0  0  0  0  0  0  0  0  0  0  0  0
  -20.4417  -27.8157   18.1561 C   0  0  0  0  0  0  0  0  0  0  0  0
  -24.3165  -32.2358   27.6620 C   0  0  0  0  0  0  0  0  0  0  0  0
  -24.4436  -30.9491   21.2785 C   0  0  0  0  0  0  0  0  0  0  0  0
  -23.6947  -28.1754   20.5784 C   0  0  0  0  0  0  0  0  0  0  0  0
  -23.1711  -31.5131   26.9578 C   0  0  0  0  0  0  0  0  0  0  0  0
  -29.3002  -11.5232   20.7833 C   0  0  0  0  0  0  0  0  0  0  0  0
  -23.6075  -30.1176   26.5230 C   0  0  0  0  0  0  0  0  0  0  0  0
  -27.8774  -11.7876   21.2740 C   0  0  0  0  0  0  0  0  0  0  0  0
  -30.6510  -17.0388   21.7812 C   0  0  0  0  0  0  0  0  0  0  0  0
  -30.3009  -12.4727   21.4345 C   0  0  0  0  0  0  0  0  0  0  0  0
  -31.9305  -17.7559   21.3913 C   0  0  0  0  0  0  0  0  0  0  0  0
  -28.5443  -14.1858   21.7524 C   0  0  0  0  0  0  0  0  0  0  0  0
  -24.7676  -30.1889   25.5228 C   0  0  1  0  0  0  0  0  0  0  0  0
  -30.2889  -16.2020   20.5530 C   0  0  1  0  0  0  0  0  0  0  0  0
  -23.3257  -30.2107   22.0080 C   0  0  1  0  0  0  0  0  0  0  0  0
  -27.4975  -13.2683   21.0961 C   0  0  2  0  0  0  0  0  0  0  0  0
  -18.4081  -27.2961   16.7806 C   0  0  0  0  0  0  0  0  0  0  0  0
  -21.0063  -26.2902   22.7896 C   0  0  0  0  0  0  0  0  0  0  0  0
  -19.6712  -25.4233   20.8572 C   0  0  0  0  0  0  0  0  0  0  0  0
  -18.8760  -27.4191   22.1249 C   0  0  0  0  0  0  0  0  0  0  0  0
  -21.1323  -29.8753   16.1460 C   0  0  0  0  0  0  0  0  0  0  0  0
  -33.9375  -25.2624   18.9966 C   0  0  0  0  0  0  0  0  0  0  0  0
  -32.7680  -18.6640   19.1956 C   0  0  0  0  0  0  0  0  0  0  0  0
  -32.0926  -24.2876   20.3555 C   0  0  0  0  0  0  0  0  0  0  0  0
  -30.3158  -26.4126   18.9581 C   0  0  0  0  0  0  0  0  0  0  0  0
  -31.8007  -26.5113   19.2735 C   0  0  0  0  0  0  0  0  0  0  0  0
  -29.5750  -27.7392   19.0739 C   0  0  0  0  0  0  0  0  0  1  0  0
  -20.8747  -27.6397   20.5924 C   0  0  1  0  0  0  0  0  0  0  0  0
  -19.4297  -28.3562   17.1619 C   0  0  2  0  0  0  0  0  0  0  0  0
  -20.1337  -26.7023   21.5872 C   0  0  0  0  0  0  0  0  0  0  0  0
  -25.6279  -12.8531   22.6502 N   0  0  0  0  0  0  0  0  0  0  0  0
  -26.0962  -13.5544   21.6038 N   0  0  0  0  0  0  0  0  0  0  0  0
  -31.8579  -17.8317   19.9527 N   0  0  0  0  0  0  0  0  0  0  0  0
  -29.8929  -13.8682   21.2627 N   0  0  0  0  0  0  0  0  0  0  0  0
  -22.7595  -29.1172   21.2155 N   0  0  0  0  0  0  0  0  0  0  0  0
  -25.5220  -15.2608   20.0646 N   0  0  0  0  0  0  0  0  0  0  0  0
  -22.7807  -16.3399   22.4550 N   0  0  0  0  0  0  0  0  0  0  0  0
  -24.2797  -30.5437   24.2073 N   0  0  0  0  0  0  0  0  0  0  0  0
  -20.0636  -28.0679   19.4579 N   0  0  0  0  0  0  0  0  0  0  0  0
  -20.1163  -28.8149   15.9214 N   0  3  0  0  0  0  0  0  0  0  0  0
  -32.4421  -25.1783   19.1876 N   0  3  1  0  0  0  0  0  0  0  0  0
  -30.7172  -16.7208   18.2235 O   0  0  0  0  0  0  0  0  0  0  0  0
  -21.9313  -14.7539   21.0329 O   0  0  0  0  0  0  0  0  0  0  0  0
  -31.9228  -14.5018   20.3258 O   0  0  0  0  0  0  0  0  0  0  0  0
  -23.6744  -28.4106   23.4957 O   0  0  0  0  0  0  0  0  0  0  0  0
  -20.5658  -29.6699   21.7795 O   0  0  0  0  0  0  0  0  0  0  0  0
  -21.4634  -27.2254   17.8123 O   0  0  0  0  0  0  0  0  0  0  0  0
  -21.1275  -11.3848   26.9089 O   0  0  0  0  0  0  0  0  0  0  0  0
  -28.1964  -27.5210   18.7771 O   0  0  0  0  0  0  0  0  0  1  0  0
  -15.7557  -12.6122   26.7062 F   0  0  0  0  0  0  0  0  0  0  0  0
  -30.6030  -20.1811   18.1990 F   0  0  0  0  0  0  0  0  0  0  0  0
  -19.2209   -9.3882   26.7628 F   0  0  0  0  0  0  0  0  0  0  0  0
  1  2  1  0  0  0  0
  1  5  2  0  0  0  0
  2  6  2  0  0  0  0
  3 10  2  0  0  0  0
  3 18  1  0  0  0  0
  4 11  1  0  0  0  0
  4 18  2  0  0  0  0
  5 20  1  0  0  0  0
  6 22  1  0  0  0  0
  7 12  2  0  0  0  0
  7 21  1  0  0  0  0
  8  9  2  0  0  0  0
  8 24  1  0  0  0  0
  9 25  1  0  0  0  0
 10 26  1  0  0  0  0
 11 26  2  0  0  0  0
 12 27  1  0  0  0  0
 13 14  2  0  0  0  0
 13 28  1  0  0  0  0
 14 29  1  0  0  0  0
 15 23  1  0  0  0  0
 15 27  2  0  0  0  0
 16 24  2  0  0  0  0
 16 30  1  0  0  0  0
 17 29  2  0  0  0  0
 17 31  1  0  0  0  0
 18 32  1  0  0  0  0
 19 32  1  0  0  0  0
 19 33  2  0  0  0  0
 19 35  1  0  0  0  0
 20 22  2  0  0  0  0
 20 40  1  0  0  0  0
 21 23  2  0  0  0  0
 21 41  1  0  0  0  0
 22 51  1  0  0  0  0
 23 42  1  0  0  0  0
 24 62  1  0  0  0  0
 25 30  2  0  0  0  0
 25 61  1  0  0  0  0
 26 86  1  0  0  0  0
 27 87  1  0  0  0  0
 28 31  2  0  0  0  0
 28 86  1  0  0  0  0
 29 88  1  0  0  0  0
 30 89  1  0  0  0  0
 31 90  1  0  0  0  0
 32 69  2  0  0  0  0
 33 70  1  0  0  0  0
 33 74  1  0  0  0  0
 34 52  1  0  0  0  0
 34 71  1  0  0  0  0
 34 80  2  0  0  0  0
 35 75  1  0  0  0  0
 35 81  2  0  0  0  0
 36 52  1  0  0  0  0
 36 72  1  0  0  0  0
 36 82  2  0  0  0  0
 37 53  1  0  0  0  0
 37 76  1  0  0  0  0
 37 83  2  0  0  0  0
 38 66  1  0  0  0  0
 38 73  1  0  0  0  0
 38 84  2  0  0  0  0
 39 67  1  0  0  0  0
 39 77  1  0  0  0  0
 39 85  2  0  0  0  0
 40 43  1  0  0  0  0
 41 53  1  0  0  0  0
 42 73  1  0  0  0  0
 43 45  1  0  0  0  0
 44 46  1  0  0  0  0
 44 48  1  0  0  0  0
 45 51  1  0  0  0  0
 46 54  1  0  0  0  0
 47 49  1  0  0  0  0
 47 52  1  0  0  0  0
 48 72  1  0  0  0  0
 49 71  1  0  0  0  0
 50 54  1  0  0  0  0
 50 72  1  0  0  0  0
 51 76  1  0  0  0  0
 53 73  1  0  0  0  0
 54 70  1  0  0  0  0
 55 67  1  0  0  0  0
 56 68  1  0  0  0  0
 57 68  1  0  0  0  0
 58 68  1  0  0  0  0
 59 78  1  0  0  0  0
 60 79  1  0  0  0  0
 61 71  1  0  0  0  0
 62 79  1  0  0  0  0
 63 64  1  0  0  0  0
 63 65  1  0  0  0  0
 64 79  1  0  0  0  0
 65 87  1  0  0  0  0
 66 68  1  0  0  0  0
 66 77  1  0  0  0  0
 67 78  1  0  0  0  0
 69 70  1  0  0  0  0
M  CHG  2  78   1  79   1
M  ISO  4  36 100  52 100  65 101  87 101
M  END
> <Batch ID>
0014

> <Smiles>
CNC(C)C(=O)NC(C(=O)N1Cc2cc([101O:1][101CH2:1]CCN(C)Cc3ccc(CN4CC[100CH:0]([100C:0](=O)N5CCCC(n6nc(-c7ccc(Oc8ccc(F)cc8F)cc7)c(C(N)=O)c6N)C5)C4=O)c(F)c3)ccc2CC1C(=O)NC1CCCc2ccccc21)C(C)(C)C

> <Shape>
0.245

> <Color>
0.098

> <Negative vol penalty>
0.000

$$$$

  -OEChem-04042320513D

 82 90  0     1  0  0  0  0  0999 V2000
  -29.2322  -25.4256   16.5978 C   0  0  0  0  0  0  0  0  0  0  0  0
  -28.0862  -25.3619   17.3840 C   0  0  0  0  0  0  0  0  0  0  0  0
  -26.3729  -12.7801   19.5749 C   0  0  0  0  0  0  0  0  0  0  0  0
  -24.3097  -13.4002   20.6683 C   0  0  0  0  0  0  0  0  0  0  0  0
  -30.3171  -26.1980   17.0104 C   0  0  0  0  0  0  0  0  0  0  0  0
  -28.0249  -26.0698   18.5839 C   0  0  0  0  0  0  0  0  0  0  0  0
  -23.6253  -28.5054   19.1801 C   0  0  0  0  0  0  0  0  0  0  0  0
  -24.2752  -23.0558   22.0068 C   0  0  0  0  0  0  0  0  0  0  0  0
  -23.2319  -23.9746   22.1208 C   0  0  0  0  0  0  0  0  0  0  0  0
  -26.3119  -11.5217   20.1735 C   0  0  0  0  0  0  0  0  0  0  0  0
  -24.2486  -12.1418   21.2669 C   0  0  0  0  0  0  0  0  0  0  0  0
  -22.5264  -27.7463   19.5802 C   0  0  0  0  0  0  0  0  0  0  0  0
  -23.3580   -9.0046   20.3809 C   0  0  0  0  0  0  0  0  0  0  0  0
  -22.1305   -8.3422   20.3699 C   0  0  0  0  0  0  0  0  0  0  0  0
  -22.8323  -28.5099   21.8479 C   0  0  0  0  0  0  0  0  0  0  0  0
  -22.7749  -21.2729   22.6450 C   0  0  0  0  0  0  0  0  0  0  0  0
  -22.1298   -8.3034   22.7856 C   0  0  0  0  0  0  0  0  0  0  0  0
  -25.3718  -13.7194   19.8224 C   0  0  0  0  0  0  0  0  0  0  0  0
  -24.8900  -15.3982   17.9630 C   0  0  0  0  0  0  0  0  0  0  0  0
  -30.2655  -26.9234   18.2111 C   0  0  0  0  0  0  0  0  0  0  0  0
  -24.3438  -29.2651   20.1145 C   0  0  0  0  0  0  0  0  0  0  0  0
  -29.1107  -26.8515   19.0135 C   0  0  0  0  0  0  0  0  0  0  0  0
  -23.9384  -29.2797   21.4567 C   0  0  0  0  0  0  0  0  0  0  0  0
  -21.7316  -22.1917   22.7590 C   0  0  0  0  0  0  0  0  0  0  0  0
  -24.0467  -21.7050   22.2689 C   0  0  0  0  0  0  0  0  0  0  0  0
  -21.9601  -23.5425   22.4969 C   0  0  0  0  0  0  0  0  0  0  0  0
  -25.2497  -11.2025   21.0194 C   0  0  0  0  0  0  0  0  0  0  0  0
  -22.1315  -27.7462   20.9148 C   0  0  0  0  0  0  0  0  0  0  0  0
  -23.9715   -9.3163   21.5942 C   0  0  0  0  0  0  0  0  0  0  0  0
  -21.5164   -7.9917   21.5723 C   0  0  0  0  0  0  0  0  0  0  0  0
  -23.3574   -8.9657   22.7966 C   0  0  0  0  0  0  0  0  0  0  0  0
  -25.4346  -15.0197   19.2048 C   0  0  0  0  0  0  0  0  0  0  0  0
  -25.2195  -16.7253   17.8338 C   0  0  0  0  0  0  0  0  0  0  0  0
  -24.1522  -14.6198   17.0115 C   0  0  0  0  0  0  0  0  0  0  0  0
  -27.3373  -29.2600   21.1832 C   0  0  0  0  0  0  0  0  0  0  0  0
  -26.3720  -31.9340   22.7452 C   0  0  0  0  0  0  0  0  0  0  0  0
  -23.7999  -33.7552   24.0545 C   0  0  0  0  0  0  0  0  0  0  0  0
  -26.4280  -21.0354   21.7920 C   0  0  0  0  0  0  0  0  0  0  0  0
  -31.4812  -27.7068   18.6388 C   0  0  0  0  0  0  0  0  0  0  0  0
  -25.5105  -30.0996   19.6620 C   0  0  0  0  0  0  0  0  0  0  0  0
  -24.6637  -30.0943   22.4953 C   0  0  0  0  0  0  0  0  0  0  0  0
  -31.1935  -28.7251   19.7391 C   0  0  0  0  0  0  0  0  0  0  0  0
  -28.5453  -19.9046   19.1623 C   0  0  0  0  0  0  0  0  0  0  0  0
  -30.3550  -28.0930   20.8455 C   0  0  0  0  0  0  0  0  0  0  0  0
  -27.9348  -18.5609   18.7577 C   0  0  0  0  0  0  0  0  0  0  0  0
  -28.4550  -20.1377   20.6694 C   0  0  0  0  0  0  0  0  0  0  0  0
  -26.4995  -18.6487   20.8360 C   0  0  0  0  0  0  0  0  0  0  0  0
  -28.9968  -27.6249   20.3093 C   0  0  1  0  0  0  0  0  0  0  0  0
  -26.4815  -30.4311   20.7911 C   0  0  1  0  0  0  0  0  0  0  0  0
  -26.5086  -18.3980   19.3191 C   0  0  2  0  0  0  0  0  0  0  0  0
  -20.3795  -21.7019   23.1647 C   0  0  0  0  0  0  0  0  0  0  0  0
  -23.3261  -35.8799   25.3029 C   0  0  0  0  0  0  0  0  0  0  0  0
  -27.3830  -30.6443   25.3190 C   0  0  0  0  0  0  0  0  0  0  0  0
  -26.0560  -32.3338   26.6046 C   0  0  0  0  0  0  0  0  0  0  0  0
  -27.9002  -33.0813   25.1003 C   0  0  0  0  0  0  0  0  0  0  0  0
  -20.6779  -25.1562   23.8797 C   0  0  0  0  0  0  0  0  0  0  0  0
  -22.1262  -34.8115   21.8540 C   0  0  0  0  0  0  0  0  0  0  0  0
  -20.0872  -24.8110   21.4755 C   0  0  0  0  0  0  0  0  0  0  0  0
  -20.7905  -25.8119   20.5741 C   0  0  0  0  0  0  0  0  0  1  0  0
  -25.7486  -32.2203   24.0899 C   0  0  1  0  0  0  0  0  0  0  0  0
  -23.4440  -35.2261   23.9349 C   0  0  2  0  0  0  0  0  0  0  0  0
  -26.7593  -32.0530   25.2595 C   0  0  0  0  0  0  0  0  0  0  0  0
  -26.0624  -16.0250   19.8205 N   0  0  0  0  0  0  0  0  0  0  0  0
  -25.9145  -17.0484   18.9620 N   0  0  0  0  0  0  0  0  0  0  0  0
  -25.8020  -30.8887   22.0048 N   0  0  0  0  0  0  0  0  0  0  0  0
  -27.0746  -19.9709   21.1292 N   0  0  0  0  0  0  0  0  0  0  0  0
  -24.9796  -17.6358   16.8664 N   0  0  0  0  0  0  0  0  0  0  0  0
  -23.9017  -13.2717   17.3017 N   0  0  0  0  0  0  0  0  0  0  0  0
  -25.1072  -20.7723   22.1535 N   0  0  0  0  0  0  0  0  0  0  0  0
  -28.1010  -28.7504   20.1504 N   0  0  0  0  0  0  0  0  0  0  0  0
  -25.1624  -33.5528   23.9928 N   0  0  0  0  0  0  0  0  0  0  0  0
  -20.9239  -24.4794   22.6060 N   0  0  3  0  0  0  0  0  0  0  0  0
  -22.1450  -35.3885   23.2228 N   0  3  0  0  0  0  0  0  0  0  0  0
  -23.7419  -15.1011   15.9282 O   0  0  0  0  0  0  0  0  0  0  0  0
  -27.3082  -28.8500   22.3376 O   0  0  0  0  0  0  0  0  0  0  0  0
  -27.3250  -32.6175   22.3627 O   0  0  0  0  0  0  0  0  0  0  0  0
  -22.9541  -32.8744   24.1928 O   0  0  0  0  0  0  0  0  0  0  0  0
  -26.9949  -22.1117   21.9979 O   0  0  0  0  0  0  0  0  0  0  0  0
  -25.1898   -9.9746   21.6035 O   0  0  0  0  0  0  0  0  0  0  0  0
  -21.0597  -27.0057   21.3081 O   0  0  0  0  0  0  0  0  0  1  0  0
  -20.3369   -7.3570   21.5616 F   0  0  0  0  0  0  0  0  0  0  0  0
  -23.9413   -9.2636   23.9654 F   0  0  0  0  0  0  0  0  0  0  0  0
  1  2  1  0  0  0  0
  1  5  2  0  0  0  0
  2  6  2  0  0  0  0
  3 10  2  0  0  0  0
  3 18  1  0  0  0  0
  4 11  1  0  0  0  0
  4 18  2  0  0  0  0
  5 20  1  0  0  0  0
  6 22  1  0  0  0  0
  7 12  2  0  0  0  0
  7 21  1  0  0  0  0
  8  9  2  0  0  0  0
  8 25  1  0  0  0  0
  9 26  1  0  0  0  0
 10 27  1  0  0  0  0
 11 27  2  0  0  0  0
 12 28  1  0  0  0  0
 13 14  2  0  0  0  0
 13 29  1  0  0  0  0
 14 30  1  0  0  0  0
 15 23  1  0  0  0  0
 15 28  2  0  0  0  0
 16 24  1  0  0  0  0
 16 25  2  0  0  0  0
 17 30  2  0  0  0  0
 17 31  1  0  0  0  0
 18 32  1  0  0  0  0
 19 32  1  0  0  0  0
 19 33  2  0  0  0  0
 19 34  1  0  0  0  0
 20 22  2  0  0  0  0
 20 39  1  0  0  0  0
 21 23  2  0  0  0  0
 21 40  1  0  0  0  0
 22 48  1  0  0  0  0
 23 41  1  0  0  0  0
 24 26  2  0  0  0  0
 24 51  1  0  0  0  0
 25 69  1  0  0  0  0
 26 72  1  0  0  0  0
 27 79  1  0  0  0  0
 28 80  1  0  0  0  0
 29 31  2  0  0  0  0
 29 79  1  0  0  0  0
 30 81  1  0  0  0  0
 31 82  1  0  0  0  0
 32 63  2  0  0  0  0
 33 64  1  0  0  0  0
 33 67  1  0  0  0  0
 34 68  1  0  0  0  0
 34 74  2  0  0  0  0
 35 49  1  0  0  0  0
 35 70  1  0  0  0  0
 35 75  2  0  0  0  0
 36 60  1  0  0  0  0
 36 65  1  0  0  0  0
 36 76  2  0  0  0  0
 37 61  1  0  0  0  0
 37 71  1  0  0  0  0
 37 77  2  0  0  0  0
 38 66  1  0  0  0  0
 38 69  1  0  0  0  0
 38 78  2  0  0  0  0
 39 42  1  0  0  0  0
 40 49  1  0  0  0  0
 41 65  1  0  0  0  0
 42 44  1  0  0  0  0
 43 45  1  0  0  0  0
 43 46  1  0  0  0  0
 44 48  1  0  0  0  0
 45 50  1  0  0  0  0
 46 66  1  0  0  0  0
 47 50  1  0  0  0  0
 47 66  1  0  0  0  0
 48 70  1  0  0  0  0
 49 65  1  0  0  0  0
 50 64  1  0  0  0  0
 52 61  1  0  0  0  0
 53 62  1  0  0  0  0
 54 62  1  0  0  0  0
 55 62  1  0  0  0  0
 56 72  1  0  0  0  0
 57 73  1  0  0  0  0
 58 59  1  0  0  0  0
 58 72  1  0  0  0  0
 59 80  1  0  0  0  0
 60 62  1  0  0  0  0
 60 71  1  0  0  0  0
 61 73  1  0  0  0  0
 63 64  1  0  0  0  0
M  CHG  1  73   1
M  ISO  4  38 100  59 101  69 100  80 101
M  END
> <Batch ID>
0014

> <Smiles>
CNC(C)C(=O)NC(C(=O)N1Cc2cc([101O:1][101CH2:1]CN(C)c3ccc([100NH:0][100C:0](=O)N4CCCC(n5nc(-c6ccc(Oc7ccc(F)cc7F)cc6)c(C(N)=O)c5N)C4)cc3C)ccc2CC1C(=O)NC1CCCc2ccccc21)C(C)(C)C

> <Shape>
0.269

> <Color>
0.084

> <Negative vol penalty>
0.000

$$$$

  -OEChem-04042320513D

 87 96  0     1  0  0  0  0  0999 V2000
  -32.2702  -26.9817   24.7773 C   0  0  0  0  0  0  0  0  0  0  0  0
  -31.7535  -27.4760   23.5850 C   0  0  0  0  0  0  0  0  0  0  0  0
  -27.4130  -17.0786   21.0484 C   0  0  0  0  0  0  0  0  0  0  0  0
  -28.4853  -17.1933   18.8865 C   0  0  0  0  0  0  0  0  0  0  0  0
  -31.4600  -26.2288   25.6246 C   0  0  0  0  0  0  0  0  0  0  0  0
  -30.4231  -27.2279   23.2453 C   0  0  0  0  0  0  0  0  0  0  0  0
  -27.2977  -28.6148   18.2020 C   0  0  0  0  0  0  0  0  0  0  0  0
  -29.0953  -22.0070   15.1971 C   0  0  0  0  0  0  0  0  0  0  0  0
  -30.4287  -21.9430   15.6015 C   0  0  0  0  0  0  0  0  0  0  0  0
  -27.4102  -15.6858   20.9731 C   0  0  0  0  0  0  0  0  0  0  0  0
  -28.4825  -15.8005   18.8112 C   0  0  0  0  0  0  0  0  0  0  0  0
  -26.9991  -28.0157   16.9789 C   0  0  0  0  0  0  0  0  0  0  0  0
  -25.5951  -13.2780   19.4461 C   0  0  0  0  0  0  0  0  0  0  0  0
  -24.4228  -12.6127   19.8048 C   0  0  0  0  0  0  0  0  0  0  0  0
  -24.8840  -27.2700   17.8673 C   0  0  0  0  0  0  0  0  0  0  0  0
  -28.7904  -24.0063   16.5188 C   0  0  0  0  0  0  0  0  0  0  0  0
  -25.6199  -11.4430   21.5472 C   0  0  0  0  0  0  0  0  0  0  0  0
  -27.9505  -17.8324   20.0050 C   0  0  0  0  0  0  0  0  0  0  0  0
  -26.8349  -20.1184   20.1985 C   0  0  0  0  0  0  0  0  0  0  0  0
  -30.1227  -25.9613   25.2885 C   0  0  0  0  0  0  0  0  0  0  0  0
  -26.3948  -28.5365   19.2721 C   0  0  0  0  0  0  0  0  0  0  0  0
  -29.5825  -26.4905   24.0987 C   0  0  0  0  0  0  0  0  0  0  0  0
  -25.1723  -27.8711   19.1021 C   0  0  0  0  0  0  0  0  0  0  0  0
  -28.2762  -23.0387   15.6557 C   0  0  0  0  0  0  0  0  0  0  0  0
  -30.9429  -22.9106   16.4647 C   0  0  0  0  0  0  0  0  0  0  0  0
  -27.9450  -15.0467   19.8546 C   0  0  0  0  0  0  0  0  0  0  0  0
  -25.7934  -27.3407   16.8124 C   0  0  0  0  0  0  0  0  0  0  0  0
  -26.7798  -13.0257   20.1378 C   0  0  0  0  0  0  0  0  0  0  0  0
  -24.4352  -11.6952   20.8554 C   0  0  0  0  0  0  0  0  0  0  0  0
  -30.1238  -23.9423   16.9233 C   0  0  0  0  0  0  0  0  0  0  0  0
  -26.7922  -12.1083   21.1884 C   0  0  0  0  0  0  0  0  0  0  0  0
  -27.9531  -19.2712   20.0819 C   0  0  0  0  0  0  0  0  0  0  0  0
  -27.3655  -21.3847   20.2327 C   0  0  0  0  0  0  0  0  0  0  0  0
  -25.4410  -19.7899   20.2697 C   0  0  0  0  0  0  0  0  0  0  0  0
  -26.4843  -27.2931   22.1961 C   0  0  0  0  0  0  0  0  0  0  0  0
  -23.5928  -28.7364   22.4762 C   0  0  0  0  0  0  0  0  0  0  0  0
  -20.3548  -29.7198   21.2250 C   0  0  0  0  0  0  0  0  0  0  0  0
  -32.7777  -23.3190   18.1254 C   0  0  0  0  0  0  0  0  0  0  0  0
  -29.2882  -25.1476   26.2460 C   0  0  0  0  0  0  0  0  0  0  0  0
  -26.7200  -29.2109   20.5766 C   0  0  0  0  0  0  0  0  0  0  0  0
  -24.1601  -27.7758   20.2133 C   0  0  0  0  0  0  0  0  0  0  0  0
  -28.0362  -24.5661   25.5973 C   0  0  0  0  0  0  0  0  0  0  0  0
  -31.3025  -23.7881   21.4864 C   0  0  0  0  0  0  0  0  0  0  0  0
  -25.7332  -24.5646   12.2192 C   0  0  0  0  0  0  0  0  0  0  0  0
  -27.2902  -25.6543   24.8396 C   0  0  0  0  0  0  0  0  0  0  0  0
  -30.2365  -22.6956   21.5445 C   0  0  0  0  0  0  0  0  0  0  0  0
  -24.8170  -25.3634   13.1248 C   0  0  0  0  0  0  0  0  0  0  0  0
  -32.4645  -23.3978   20.5781 C   0  0  0  0  0  0  0  0  0  0  0  0
  -30.9717  -21.9299   19.2522 C   0  0  0  0  0  0  0  0  0  0  0  0
  -26.9899  -24.3854   13.0490 C   0  0  0  0  0  0  0  0  0  0  0  0
  -28.1471  -26.2075   23.6939 C   0  0  1  0  0  0  0  0  0  0  0  0
  -25.9513  -28.6281   21.7585 C   0  0  1  0  0  0  0  0  0  0  0  0
  -29.7711  -22.3160   20.1291 C   0  0  1  0  0  0  0  0  0  0  0  0
  -25.0224  -24.7003   14.4787 C   0  0  2  0  0  0  0  0  0  0  0  0
  -33.7544  -21.0518   15.9794 C   0  0  0  0  0  0  0  0  0  0  0  0
  -18.5393  -31.0849   22.2917 C   0  0  0  0  0  0  0  0  0  0  0  0
  -22.4679  -26.0348   23.3400 C   0  0  0  0  0  0  0  0  0  0  0  0
  -20.1712  -26.9284   22.8986 C   0  0  0  0  0  0  0  0  0  0  0  0
  -21.6061  -27.9882   24.6423 C   0  0  0  0  0  0  0  0  0  0  0  0
  -20.2947  -31.6228   18.9592 C   0  0  0  0  0  0  0  0  0  0  0  0
  -26.8416  -23.1071   15.2216 C   0  0  0  0  0  0  0  0  0  0  0  0
  -24.6699  -25.5942   15.6533 C   0  0  0  0  0  0  0  0  0  1  0  0
  -33.3253  -22.5014   15.8752 C   0  0  0  0  0  0  0  0  0  0  0  0
  -22.1648  -28.3317   22.2006 C   0  0  1  0  0  0  0  0  0  0  0  0
  -19.7185  -31.0939   21.3313 C   0  0  2  0  0  0  0  0  0  0  0  0
  -21.6222  -27.3208   23.2498 C   0  0  0  0  0  0  0  0  0  0  0  0
  -29.1071  -19.9428   20.0443 N   0  0  0  0  0  0  0  0  0  0  0  0
  -28.7167  -21.2254   20.1378 N   0  0  0  0  0  0  0  0  0  0  0  0
  -24.5269  -28.4460   21.4718 N   0  0  0  0  0  0  0  0  0  0  0  0
  -32.0018  -22.9814   19.2533 N   0  0  0  0  0  0  0  0  0  0  0  0
  -26.8035  -22.6079   20.3342 N   0  0  0  0  0  0  0  0  0  0  0  0
  -24.8697  -19.5711   21.5306 N   0  0  0  0  0  0  0  0  0  0  0  0
  -27.4945  -27.3713   23.1357 N   0  0  0  0  0  0  0  0  0  0  0  0
  -21.3992  -29.5705   22.1128 N   0  0  0  0  0  0  0  0  0  0  0  0
  -32.3221  -22.8416   16.8817 N   0  0  0  0  0  0  0  0  0  0  0  0
  -26.5092  -24.3720   14.4904 N   0  3  1  0  0  0  0  0  0  0  0  0
  -19.2337  -31.5450   19.9962 N   0  3  0  0  0  0  0  0  0  0  0  0
  -24.7272  -19.6772   19.2444 O   0  0  0  0  0  0  0  0  0  0  0  0
  -26.0129  -26.2681   21.7178 O   0  0  0  0  0  0  0  0  0  0  0  0
  -23.8681  -29.2962   23.5405 O   0  0  0  0  0  0  0  0  0  0  0  0
  -19.9621  -28.8631   20.4361 O   0  0  0  0  0  0  0  0  0  0  0  0
  -33.8344  -23.9548   18.2245 O   0  0  0  0  0  0  0  0  0  0  0  0
  -27.9426  -13.6877   19.7809 O   0  0  0  0  0  0  0  0  0  0  0  0
  -25.4999  -26.7546   15.6198 O   0  0  0  0  0  0  0  0  0  1  0  0
  -23.3090  -11.0575   21.2008 F   0  0  0  0  0  0  0  0  0  0  0  0
  -30.6070  -24.8768   17.7543 F   0  0  0  0  0  0  0  0  0  0  0  0
  -27.9270  -11.8627   21.8574 F   0  0  0  0  0  0  0  0  0  0  0  0
  1  2  1  0  0  0  0
  1  5  2  0  0  0  0
  2  6  2  0  0  0  0
  3 10  2  0  0  0  0
  3 18  1  0  0  0  0
  4 11  1  0  0  0  0
  4 18  2  0  0  0  0
  5 20  1  0  0  0  0
  6 22  1  0  0  0  0
  7 12  2  0  0  0  0
  7 21  1  0  0  0  0
  8  9  2  0  0  0  0
  8 24  1  0  0  0  0
  9 25  1  0  0  0  0
 10 26  1  0  0  0  0
 11 26  2  0  0  0  0
 12 27  1  0  0  0  0
 13 14  2  0  0  0  0
 13 28  1  0  0  0  0
 14 29  1  0  0  0  0
 15 23  1  0  0  0  0
 15 27  2  0  0  0  0
 16 24  2  0  0  0  0
 16 30  1  0  0  0  0
 17 29  2  0  0  0  0
 17 31  1  0  0  0  0
 18 32  1  0  0  0  0
 19 32  1  0  0  0  0
 19 33  2  0  0  0  0
 19 34  1  0  0  0  0
 20 22  2  0  0  0  0
 20 39  1  0  0  0  0
 21 23  2  0  0  0  0
 21 40  1  0  0  0  0
 22 51  1  0  0  0  0
 23 41  1  0  0  0  0
 24 61  1  0  0  0  0
 25 30  2  0  0  0  0
 25 75  1  0  0  0  0
 26 83  1  0  0  0  0
 27 84  1  0  0  0  0
 28 31  2  0  0  0  0
 28 83  1  0  0  0  0
 29 85  1  0  0  0  0
 30 86  1  0  0  0  0
 31 87  1  0  0  0  0
 32 67  2  0  0  0  0
 33 68  1  0  0  0  0
 33 71  1  0  0  0  0
 34 72  1  0  0  0  0
 34 78  2  0  0  0  0
 35 52  1  0  0  0  0
 35 73  1  0  0  0  0
 35 79  2  0  0  0  0
 36 64  1  0  0  0  0
 36 69  1  0  0  0  0
 36 80  2  0  0  0  0
 37 65  1  0  0  0  0
 37 74  1  0  0  0  0
 37 81  2  0  0  0  0
 38 70  1  0  0  0  0
 38 75  1  0  0  0  0
 38 82  2  0  0  0  0
 39 42  1  0  0  0  0
 40 52  1  0  0  0  0
 41 69  1  0  0  0  0
 42 45  1  0  0  0  0
 43 46  1  0  0  0  0
 43 48  1  0  0  0  0
 44 47  1  0  0  0  0
 44 50  1  0  0  0  0
 45 51  1  0  0  0  0
 46 53  1  0  0  0  0
 47 54  1  0  0  0  0
 48 70  1  0  0  0  0
 49 53  1  0  0  0  0
 49 70  1  0  0  0  0
 50 76  1  0  0  0  0
 51 73  1  0  0  0  0
 52 69  1  0  0  0  0
 53 68  1  0  0  0  0
 54 62  1  0  0  0  0
 54 76  1  0  0  0  0
 55 63  1  0  0  0  0
 56 65  1  0  0  0  0
 57 66  1  0  0  0  0
 58 66  1  0  0  0  0
 59 66  1  0  0  0  0
 60 77  1  0  0  0  0
 61 76  1  0  0  0  0
 62 84  1  0  0  0  0
 63 75  1  0  0  0  0
 64 66  1  0  0  0  0
 64 74  1  0  0  0  0
 65 77  1  0  0  0  0
 67 68  1  0  0  0  0
M  CHG  2  76   1  77   1
M  ISO  4  38 100  62 101  75 100  84 101
M  END
> <Batch ID>
0014

> <Smiles>
CC[100N:0](c1ccc(CN2CCCC2[101CH2:1][101O:1]c2ccc3c(c2)CN(C(=O)C(NC(=O)C(C)NC)C(C)(C)C)C(C(=O)NC2CCCc4ccccc42)C3)cc1F)[100C:0](=O)N1CCCC(n2nc(-c3ccc(Oc4ccc(F)cc4F)cc3)c(C(N)=O)c2N)C1

> <Shape>
0.187

> <Color>
0.071

> <Negative vol penalty>
0.000

$$$$

  -OEChem-04042320513D

 84 93  0     1  0  0  0  0  0999 V2000
  -26.9463  -18.8710   16.4558 C   0  0  0  0  0  0  0  0  0  0  0  0
  -27.0454  -18.4832   17.7882 C   0  0  0  0  0  0  0  0  0  0  0  0
  -26.2857  -29.2177   19.5075 C   0  0  0  0  0  0  0  0  0  0  0  0
  -26.3205  -28.5414   21.8266 C   0  0  0  0  0  0  0  0  0  0  0  0
  -25.8167  -18.5288   15.7136 C   0  0  0  0  0  0  0  0  0  0  0  0
  -26.0144  -17.7539   18.3795 C   0  0  0  0  0  0  0  0  0  0  0  0
  -27.7202  -13.8667   21.1408 C   0  0  0  0  0  0  0  0  0  0  0  0
  -28.2375  -20.2019   25.0808 C   0  0  0  0  0  0  0  0  0  0  0  0
  -27.9023  -18.4311   23.4718 C   0  0  0  0  0  0  0  0  0  0  0  0
  -28.6207  -21.0634   24.0529 C   0  0  0  0  0  0  0  0  0  0  0  0
  -28.2854  -19.2926   22.4438 C   0  0  0  0  0  0  0  0  0  0  0  0
  -25.1316  -29.9649   19.7427 C   0  0  0  0  0  0  0  0  0  0  0  0
  -25.1664  -29.2887   22.0618 C   0  0  0  0  0  0  0  0  0  0  0  0
  -28.2291  -14.1589   22.4055 C   0  0  0  0  0  0  0  0  0  0  0  0
  -24.3591  -32.5329   22.5557 C   0  0  0  0  0  0  0  0  0  0  0  0
  -24.3278  -33.3315   23.6988 C   0  0  0  0  0  0  0  0  0  0  0  0
  -26.1418  -13.4683   23.3983 C   0  0  0  0  0  0  0  0  0  0  0  0
  -22.4043  -32.1088   24.5003 C   0  0  0  0  0  0  0  0  0  0  0  0
  -26.8801  -28.5059   20.5494 C   0  0  0  0  0  0  0  0  0  0  0  0
  -29.4055  -28.1714   20.4149 C   0  0  0  0  0  0  0  0  0  0  0  0
  -24.7757  -17.7866   16.2934 C   0  0  0  0  0  0  0  0  0  0  0  0
  -26.4123  -13.3826   20.9943 C   0  0  0  0  0  0  0  0  0  0  0  0
  -24.8692  -17.4026   17.6447 C   0  0  0  0  0  0  0  0  0  0  0  0
  -25.6196  -13.1683   22.1309 C   0  0  0  0  0  0  0  0  0  0  0  0
  -27.8784  -18.8857   24.7903 C   0  0  0  0  0  0  0  0  0  0  0  0
  -28.6446  -20.6088   22.7344 C   0  0  0  0  0  0  0  0  0  0  0  0
  -24.5720  -30.0004   21.0198 C   0  0  0  0  0  0  0  0  0  0  0  0
  -27.4389  -13.9624   23.5343 C   0  0  0  0  0  0  0  0  0  0  0  0
  -23.4130  -31.5222   22.3848 C   0  0  0  0  0  0  0  0  0  0  0  0
  -23.3504  -33.1195   24.6711 C   0  0  0  0  0  0  0  0  0  0  0  0
  -22.4356  -31.3102   23.3571 C   0  0  0  0  0  0  0  0  0  0  0  0
  -28.0720  -27.7334   20.3070 C   0  0  0  0  0  0  0  0  0  0  0  0
  -30.1565  -27.0702   20.0834 C   0  0  0  0  0  0  0  0  0  0  0  0
  -29.9195  -29.4585   20.7821 C   0  0  0  0  0  0  0  0  0  0  0  0
  -23.7812  -14.4303   19.5510 C   0  0  0  0  0  0  0  0  0  0  0  0
  -22.6196  -11.5280   20.4169 C   0  0  0  0  0  0  0  0  0  0  0  0
  -22.7959   -8.8471   22.5214 C   0  0  0  0  0  0  0  0  0  0  0  0
  -29.1114  -21.1920   20.3285 C   0  0  0  0  0  0  0  0  0  0  0  0
  -23.5532  -17.4810   15.4647 C   0  0  0  0  0  0  0  0  0  0  0  0
  -25.8875  -13.0469   19.6252 C   0  0  0  0  0  0  0  0  0  0  0  0
  -24.2161  -12.6313   22.0291 C   0  0  0  0  0  0  0  0  0  0  0  0
  -22.6729  -16.3846   16.0590 C   0  0  0  0  0  0  0  0  0  0  0  0
  -29.9881  -23.0803   17.4401 C   0  0  0  0  0  0  0  0  0  0  0  0
  -29.7010  -16.1223   27.8961 C   0  0  0  0  0  0  0  0  0  0  0  0
  -22.4544  -16.6247   17.5494 C   0  0  0  0  0  0  0  0  0  0  0  0
  -29.7234  -24.5282   17.8594 C   0  0  0  0  0  0  0  0  0  0  0  0
  -28.8633  -14.9330   27.4700 C   0  0  0  0  0  0  0  0  0  0  0  0
  -28.9551  -22.1214   18.0292 C   0  0  0  0  0  0  0  0  0  0  0  0
  -28.5192  -23.6588   19.9042 C   0  0  0  0  0  0  0  0  0  0  0  0
  -29.6791  -17.0297   26.6811 C   0  0  0  0  0  0  0  0  0  0  0  0
  -23.7829  -16.5894   18.3145 C   0  0  1  0  0  0  0  0  0  0  0  0
  -24.3636  -13.0452   19.5534 C   0  0  1  0  0  0  0  0  0  0  0  0
  -29.5718  -24.6534   19.3881 C   0  0  2  0  0  0  0  0  0  0  0  0
  -27.6968  -15.5871   26.7446 C   0  0  2  0  0  0  0  0  0  0  0  0
  -21.6903   -6.6471   23.0060 C   0  0  0  0  0  0  0  0  0  0  0  0
  -20.2856  -12.9925   21.7276 C   0  0  0  0  0  0  0  0  0  0  0  0
  -19.7547  -10.8867   22.9734 C   0  0  0  0  0  0  0  0  0  0  0  0
  -19.6490  -10.9198   20.4814 C   0  0  0  0  0  0  0  0  0  0  0  0
  -25.2897   -7.3447   21.9893 C   0  0  0  0  0  0  0  0  0  0  0  0
  -27.4664  -17.9592   25.8960 C   0  0  0  0  0  0  0  0  0  0  0  0
  -26.9972  -14.6652   25.7630 C   0  0  0  0  0  0  0  0  0  1  0  0
  -21.9018  -10.9815   21.6274 C   0  0  1  0  0  0  0  0  0  0  0  0
  -22.8057   -7.3534   22.2511 C   0  0  2  0  0  0  0  0  0  0  0  0
  -20.4235  -11.4571   21.7045 C   0  0  0  0  0  0  0  0  0  0  0  0
  -27.9780  -26.4538   19.9358 N   0  0  0  0  0  0  0  0  0  0  0  0
  -29.2620  -26.0783   19.8075 N   0  0  0  0  0  0  0  0  0  0  0  0
  -23.7460  -12.3241   20.6682 N   0  0  0  0  0  0  0  0  0  0  0  0
  -28.8691  -22.2938   19.4810 N   0  0  0  0  0  0  0  0  0  0  0  0
  -31.4882  -26.8633   20.0038 N   0  0  0  0  0  0  0  0  0  0  0  0
  -29.0089  -30.4779   21.0922 N   0  0  0  0  0  0  0  0  0  0  0  0
  -29.0334  -21.4838   21.6899 N   0  0  0  0  0  0  0  0  0  0  0  0
  -24.2190  -15.2230   18.5073 N   0  0  0  0  0  0  0  0  0  0  0  0
  -22.0614   -9.5322   21.5768 N   0  0  0  0  0  0  0  0  0  0  0  0
  -28.3457  -16.7511   26.0079 N   0  3  1  0  0  0  0  0  0  0  0  0
  -24.1065   -6.7595   22.6709 N   0  3  0  0  0  0  0  0  0  0  0  0
  -31.1494  -29.7023   20.8177 O   0  0  0  0  0  0  0  0  0  0  0  0
  -22.9917  -14.7552   20.4302 O   0  0  0  0  0  0  0  0  0  0  0  0
  -22.2006  -11.2526   19.2899 O   0  0  0  0  0  0  0  0  0  0  0  0
  -23.3784   -9.3550   23.4771 O   0  0  0  0  0  0  0  0  0  0  0  0
  -29.3957  -20.0785   19.8800 O   0  0  0  0  0  0  0  0  0  0  0  0
  -23.4459  -30.7296   21.2497 O   0  0  0  0  0  0  0  0  0  0  0  0
  -27.9329  -14.2475   24.7698 O   0  0  0  0  0  0  0  0  0  1  0  0
  -23.3213  -33.8855   25.7696 F   0  0  0  0  0  0  0  0  0  0  0  0
  -21.5248  -30.3400   23.1991 F   0  0  0  0  0  0  0  0  0  0  0  0
  1  2  1  0  0  0  0
  1  5  2  0  0  0  0
  2  6  2  0  0  0  0
  3 12  2  0  0  0  0
  3 19  1  0  0  0  0
  4 13  1  0  0  0  0
  4 19  2  0  0  0  0
  5 21  1  0  0  0  0
  6 23  1  0  0  0  0
  7 14  2  0  0  0  0
  7 22  1  0  0  0  0
  8 10  2  0  0  0  0
  8 25  1  0  0  0  0
  9 11  1  0  0  0  0
  9 25  2  0  0  0  0
 10 26  1  0  0  0  0
 11 26  2  0  0  0  0
 12 27  1  0  0  0  0
 13 27  2  0  0  0  0
 14 28  1  0  0  0  0
 15 16  2  0  0  0  0
 15 29  1  0  0  0  0
 16 30  1  0  0  0  0
 17 24  1  0  0  0  0
 17 28  2  0  0  0  0
 18 30  2  0  0  0  0
 18 31  1  0  0  0  0
 19 32  1  0  0  0  0
 20 32  1  0  0  0  0
 20 33  2  0  0  0  0
 20 34  1  0  0  0  0
 21 23  2  0  0  0  0
 21 39  1  0  0  0  0
 22 24  2  0  0  0  0
 22 40  1  0  0  0  0
 23 51  1  0  0  0  0
 24 41  1  0  0  0  0
 25 60  1  0  0  0  0
 26 71  1  0  0  0  0
 27 81  1  0  0  0  0
 28 82  1  0  0  0  0
 29 31  2  0  0  0  0
 29 81  1  0  0  0  0
 30 83  1  0  0  0  0
 31 84  1  0  0  0  0
 32 65  2  0  0  0  0
 33 66  1  0  0  0  0
 33 69  1  0  0  0  0
 34 70  1  0  0  0  0
 34 76  2  0  0  0  0
 35 52  1  0  0  0  0
 35 72  1  0  0  0  0
 35 77  2  0  0  0  0
 36 62  1  0  0  0  0
 36 67  1  0  0  0  0
 36 78  2  0  0  0  0
 37 63  1  0  0  0  0
 37 73  1  0  0  0  0
 37 79  2  0  0  0  0
 38 68  1  0  0  0  0
 38 71  1  0  0  0  0
 38 80  2  0  0  0  0
 39 42  1  0  0  0  0
 40 52  1  0  0  0  0
 41 67  1  0  0  0  0
 42 45  1  0  0  0  0
 43 46  1  0  0  0  0
 43 48  1  0  0  0  0
 44 47  1  0  0  0  0
 44 50  1  0  0  0  0
 45 51  1  0  0  0  0
 46 53  1  0  0  0  0
 47 54  1  0  0  0  0
 48 68  1  0  0  0  0
 49 53  1  0  0  0  0
 49 68  1  0  0  0  0
 50 74  1  0  0  0  0
 51 72  1  0  0  0  0
 52 67  1  0  0  0  0
 53 66  1  0  0  0  0
 54 61  1  0  0  0  0
 54 74  1  0  0  0  0
 55 63  1  0  0  0  0
 56 64  1  0  0  0  0
 57 64  1  0  0  0  0
 58 64  1  0  0  0  0
 59 75  1  0  0  0  0
 60 74  1  0  0  0  0
 61 82  1  0  0  0  0
 62 64  1  0  0  0  0
 62 73  1  0  0  0  0
 63 75  1  0  0  0  0
 65 66  1  0  0  0  0
M  CHG  2  74   1  75   1
M  ISO  4  38 100  61 101  71 100  82 101
M  END
> <Batch ID>
0014

> <Smiles>
CNC(C)C(=O)NC(C(=O)N1Cc2cc([101O:1][101CH2:1]C3CCCN3Cc3ccc([100NH:0][100C:0](=O)N4CCCC(n5nc(-c6ccc(Oc7ccc(F)cc7F)cc6)c(C(N)=O)c5N)C4)cc3)ccc2CC1C(=O)NC1CCCc2ccccc21)C(C)(C)C

> <Shape>
0.228

> <Color>
0.067

> <Negative vol penalty>
0.000

$$$$

  -OEChem-04042320512D

  0  0  0     0  0  0  0  0  0999 V2000
M  END
$$$$

  -OEChem-04042320513D

 83 92  0     1  0  0  0  0  0999 V2000
  -29.4182  -30.8752   26.6202 C   0  0  0  0  0  0  0  0  0  0  0  0
  -29.2134  -30.0151   25.5461 C   0  0  0  0  0  0  0  0  0  0  0  0
  -24.2442   -8.8600   21.3894 C   0  0  0  0  0  0  0  0  0  0  0  0
  -23.9113  -10.7012   22.9179 C   0  0  0  0  0  0  0  0  0  0  0  0
  -28.3304  -31.3320   27.3632 C   0  0  0  0  0  0  0  0  0  0  0  0
  -27.9207  -29.6104   25.2151 C   0  0  0  0  0  0  0  0  0  0  0  0
  -27.0368  -29.8158   20.2330 C   0  0  0  0  0  0  0  0  0  0  0  0
  -29.6059  -20.1627   19.0084 C   0  0  0  0  0  0  0  0  0  0  0  0
  -27.2632  -20.0568   18.4274 C   0  0  0  0  0  0  0  0  0  0  0  0
  -29.6598  -18.7694   19.0449 C   0  0  0  0  0  0  0  0  0  0  0  0
  -27.3171  -18.6635   18.4639 C   0  0  0  0  0  0  0  0  0  0  0  0
  -23.7113   -7.9810   22.3322 C   0  0  0  0  0  0  0  0  0  0  0  0
  -23.3784   -9.8222   23.8607 C   0  0  0  0  0  0  0  0  0  0  0  0
  -27.5526  -28.7827   19.4516 C   0  0  0  0  0  0  0  0  0  0  0  0
  -20.6489   -7.0858   23.4518 C   0  0  0  0  0  0  0  0  0  0  0  0
  -19.7219   -6.1429   23.0077 C   0  0  0  0  0  0  0  0  0  0  0  0
  -25.3816  -27.7316   19.4190 C   0  0  0  0  0  0  0  0  0  0  0  0
  -21.1751   -4.3628   23.7539 C   0  0  0  0  0  0  0  0  0  0  0  0
  -24.3442  -10.2201   21.6822 C   0  0  0  0  0  0  0  0  0  0  0  0
  -24.1950  -11.8315   19.7102 C   0  0  0  0  0  0  0  0  0  0  0  0
  -27.0229  -30.9403   27.0351 C   0  0  0  0  0  0  0  0  0  0  0  0
  -25.6898  -29.8089   20.6229 C   0  0  0  0  0  0  0  0  0  0  0  0
  -26.8146  -30.0613   25.9552 C   0  0  0  0  0  0  0  0  0  0  0  0
  -24.8505  -28.7671   20.2031 C   0  0  0  0  0  0  0  0  0  0  0  0
  -28.4075  -20.8065   18.6997 C   0  0  0  0  0  0  0  0  0  0  0  0
  -28.5155  -18.0198   18.7726 C   0  0  0  0  0  0  0  0  0  0  0  0
  -23.2783   -8.4620   23.5678 C   0  0  0  0  0  0  0  0  0  0  0  0
  -26.7257  -27.7389   19.0470 C   0  0  0  0  0  0  0  0  0  0  0  0
  -21.8391   -6.6672   24.0469 C   0  0  0  0  0  0  0  0  0  0  0  0
  -19.9850   -4.7814   23.1588 C   0  0  0  0  0  0  0  0  0  0  0  0
  -22.1021   -5.3057   24.1979 C   0  0  0  0  0  0  0  0  0  0  0  0
  -24.8952  -11.1286   20.7090 C   0  0  0  0  0  0  0  0  0  0  0  0
  -25.1633  -12.5519   19.0545 C   0  0  0  0  0  0  0  0  0  0  0  0
  -22.7946  -11.8330   19.4026 C   0  0  0  0  0  0  0  0  0  0  0  0
  -24.1614  -29.7059   23.4081 C   0  0  0  0  0  0  0  0  0  0  0  0
  -21.5426  -30.1413   21.5440 C   0  0  0  0  0  0  0  0  0  0  0  0
  -20.0910  -29.8361   18.4706 C   0  0  0  0  0  0  0  0  0  0  0  0
  -29.6789  -15.8092   19.0985 C   0  0  0  0  0  0  0  0  0  0  0  0
  -25.8828  -31.4226   27.8967 C   0  0  0  0  0  0  0  0  0  0  0  0
  -25.1424  -30.9445   21.4435 C   0  0  0  0  0  0  0  0  0  0  0  0
  -23.3924  -28.7233   20.5780 C   0  0  0  0  0  0  0  0  0  0  0  0
  -24.5121  -31.2442   27.2490 C   0  0  0  0  0  0  0  0  0  0  0  0
  -30.2112  -12.2962   19.3277 C   0  0  0  0  0  0  0  0  0  0  0  0
  -24.3822  -29.8471   26.6506 C   0  0  0  0  0  0  0  0  0  0  0  0
  -28.8180  -11.7371   19.6253 C   0  0  0  0  0  0  0  0  0  0  0  0
  -28.8768  -24.4444   19.0664 C   0  0  0  0  0  0  0  0  0  0  0  0
  -30.4460  -13.6349   20.0253 C   0  0  0  0  0  0  0  0  0  0  0  0
  -29.4949  -23.0539   18.9369 C   0  0  0  0  0  0  0  0  0  0  0  0
  -27.1465  -22.9493   18.3613 C   0  0  0  0  0  0  0  0  0  0  0  0
  -28.0262  -14.0953   20.0715 C   0  0  0  0  0  0  0  0  0  0  0  0
  -25.4252  -29.6194   25.5497 C   0  0  1  0  0  0  0  0  0  0  0  0
  -23.8789  -30.5711   22.2125 C   0  0  1  0  0  0  0  0  0  0  0  0
  -27.6651  -24.3749   18.1415 C   0  0  1  0  0  0  0  0  0  0  0  0
  -27.7194  -12.7793   19.3382 C   0  0  2  0  0  0  0  0  0  0  0  0
  -17.9281  -30.2419   17.2645 C   0  0  0  0  0  0  0  0  0  0  0  0
  -20.3420  -27.6696   22.8704 C   0  0  0  0  0  0  0  0  0  0  0  0
  -18.6675  -27.5712   21.0118 C   0  0  0  0  0  0  0  0  0  0  0  0
  -18.7337  -29.5533   22.5250 C   0  0  0  0  0  0  0  0  0  0  0  0
  -21.3610  -31.7385   16.5926 C   0  0  0  0  0  0  0  0  0  0  0  0
  -26.6261  -25.4431   18.4342 C   0  0  0  0  0  0  0  0  0  1  0  0
  -20.5777  -29.2288   20.8261 C   0  0  1  0  0  0  0  0  0  0  0  0
  -19.2871  -30.8155   17.6345 C   0  0  2  0  0  0  0  0  0  0  0  0
  -19.6081  -28.5053   21.8027 C   0  0  0  0  0  0  0  0  0  0  0  0
  -26.2069  -11.3797   20.6929 N   0  0  0  0  0  0  0  0  0  0  0  0
  -26.3388  -12.2484   19.6760 N   0  0  0  0  0  0  0  0  0  0  0  0
  -28.3536  -22.1837   18.6654 N   0  0  3  0  0  0  0  0  0  0  0  0
  -22.9058  -29.8533   21.3866 N   0  0  0  0  0  0  0  0  0  0  0  0
  -29.3684  -14.5731   19.7037 N   0  0  0  0  0  0  0  0  0  0  0  0
  -25.1153  -13.4091   18.0127 N   0  0  0  0  0  0  0  0  0  0  0  0
  -21.9399  -11.0356   20.1759 N   0  0  0  0  0  0  0  0  0  0  0  0
  -28.5704  -16.6044   18.8097 N   0  0  0  0  0  0  0  0  0  0  0  0
  -25.0208  -30.2785   24.3263 N   0  0  0  0  0  0  0  0  0  0  0  0
  -19.9110  -30.0494   19.8209 N   0  0  0  0  0  0  0  0  0  0  0  0
  -20.0167  -31.1440   16.3773 N   0  3  0  0  0  0  0  0  0  0  0  0
  -22.3178  -12.5085   18.4593 O   0  0  0  0  0  0  0  0  0  0  0  0
  -23.6373  -28.6014   23.4921 O   0  0  0  0  0  0  0  0  0  0  0  0
  -21.1033  -31.0793   22.2139 O   0  0  0  0  0  0  0  0  0  0  0  0
  -20.8041  -28.9662   17.9753 O   0  0  0  0  0  0  0  0  0  0  0  0
  -30.8404  -16.1266   18.8297 O   0  0  0  0  0  0  0  0  0  0  0  0
  -22.7580   -7.6046   24.4879 O   0  0  0  0  0  0  0  0  0  0  0  0
  -27.2267  -26.7290   18.2849 O   0  0  0  0  0  0  0  0  0  1  0  0
  -19.0940   -3.8761   22.7337 F   0  0  0  0  0  0  0  0  0  0  0  0
  -23.2432   -4.8976   24.7699 F   0  0  0  0  0  0  0  0  0  0  0  0
  1  2  1  0  0  0  0
  1  5  2  0  0  0  0
  2  6  2  0  0  0  0
  3 12  2  0  0  0  0
  3 19  1  0  0  0  0
  4 13  1  0  0  0  0
  4 19  2  0  0  0  0
  5 21  1  0  0  0  0
  6 23  1  0  0  0  0
  7 14  2  0  0  0  0
  7 22  1  0  0  0  0
  8 10  2  0  0  0  0
  8 25  1  0  0  0  0
  9 11  1  0  0  0  0
  9 25  2  0  0  0  0
 10 26  1  0  0  0  0
 11 26  2  0  0  0  0
 12 27  1  0  0  0  0
 13 27  2  0  0  0  0
 14 28  1  0  0  0  0
 15 16  2  0  0  0  0
 15 29  1  0  0  0  0
 16 30  1  0  0  0  0
 17 24  1  0  0  0  0
 17 28  2  0  0  0  0
 18 30  2  0  0  0  0
 18 31  1  0  0  0  0
 19 32  1  0  0  0  0
 20 32  1  0  0  0  0
 20 33  2  0  0  0  0
 20 34  1  0  0  0  0
 21 23  2  0  0  0  0
 21 39  1  0  0  0  0
 22 24  2  0  0  0  0
 22 40  1  0  0  0  0
 23 51  1  0  0  0  0
 24 41  1  0  0  0  0
 25 66  1  0  0  0  0
 26 71  1  0  0  0  0
 27 80  1  0  0  0  0
 28 81  1  0  0  0  0
 29 31  2  0  0  0  0
 29 80  1  0  0  0  0
 30 82  1  0  0  0  0
 31 83  1  0  0  0  0
 32 64  2  0  0  0  0
 33 65  1  0  0  0  0
 33 69  1  0  0  0  0
 34 70  1  0  0  0  0
 34 75  2  0  0  0  0
 35 52  1  0  0  0  0
 35 72  1  0  0  0  0
 35 76  2  0  0  0  0
 36 61  1  0  0  0  0
 36 67  1  0  0  0  0
 36 77  2  0  0  0  0
 37 62  1  0  0  0  0
 37 73  1  0  0  0  0
 37 78  2  0  0  0  0
 38 68  1  0  0  0  0
 38 71  1  0  0  0  0
 38 79  2  0  0  0  0
 39 42  1  0  0  0  0
 40 52  1  0  0  0  0
 41 67  1  0  0  0  0
 42 44  1  0  0  0  0
 43 45  1  0  0  0  0
 43 47  1  0  0  0  0
 44 51  1  0  0  0  0
 45 54  1  0  0  0  0
 46 48  1  0  0  0  0
 46 53  1  0  0  0  0
 47 68  1  0  0  0  0
 48 66  1  0  0  0  0
 49 53  1  0  0  0  0
 49 66  1  0  0  0  0
 50 54  1  0  0  0  0
 50 68  1  0  0  0  0
 51 72  1  0  0  0  0
 52 67  1  0  0  0  0
 53 60  1  0  0  0  0
 54 65  1  0  0  0  0
 55 62  1  0  0  0  0
 56 63  1  0  0  0  0
 57 63  1  0  0  0  0
 58 63  1  0  0  0  0
 59 74  1  0  0  0  0
 60 81  1  0  0  0  0
 61 63  1  0  0  0  0
 61 73  1  0  0  0  0
 62 74  1  0  0  0  0
 64 65  1  0  0  0  0
M  CHG  1  74   1
M  ISO  4  38 100  60 101  71 100  81 101
M  END
> <Batch ID>
0014

> <Smiles>
CNC(C)C(=O)NC(C(=O)N1Cc2cc([101O:1][101CH2:1]C3CCN(c4ccc([100NH:0][100C:0](=O)N5CCCC(n6nc(-c7ccc(Oc8ccc(F)cc8F)cc7)c(C(N)=O)c6N)C5)cc4)C3)ccc2CC1C(=O)NC1CCCc2ccccc21)C(C)(C)C

> <Shape>
0.305

> <Color>
0.097

> <Negative vol penalty>
0.000

$$$$

  -OEChem-04042320513D

 84 92  0     1  0  0  0  0  0999 V2000
  -29.3013  -24.5428   24.2041 C   0  0  0  0  0  0  0  0  0  0  0  0
  -27.9200  -24.4946   24.0462 C   0  0  0  0  0  0  0  0  0  0  0  0
  -28.9863  -26.9971   17.0711 C   0  0  0  0  0  0  0  0  0  0  0  0
  -28.9751  -25.6895   19.1027 C   0  0  0  0  0  0  0  0  0  0  0  0
  -30.1209  -23.7421   23.4097 C   0  0  0  0  0  0  0  0  0  0  0  0
  -27.3574  -23.6465   23.0930 C   0  0  0  0  0  0  0  0  0  0  0  0
  -22.0426  -20.6344   23.5240 C   0  0  0  0  0  0  0  0  0  0  0  0
  -19.6530  -27.5924   23.8747 C   0  0  0  0  0  0  0  0  0  0  0  0
  -19.8341  -28.8712   21.8329 C   0  0  0  0  0  0  0  0  0  0  0  0
  -18.7359  -26.7402   23.2597 C   0  0  0  0  0  0  0  0  0  0  0  0
  -18.9170  -28.0190   21.2179 C   0  0  0  0  0  0  0  0  0  0  0  0
  -30.2270  -26.4581   16.7309 C   0  0  0  0  0  0  0  0  0  0  0  0
  -30.2158  -25.1504   18.7625 C   0  0  0  0  0  0  0  0  0  0  0  0
  -20.7677  -20.9062   23.0296 C   0  0  0  0  0  0  0  0  0  0  0  0
  -33.2137  -23.1576   18.2533 C   0  0  0  0  0  0  0  0  0  0  0  0
  -33.3887  -21.7825   18.4083 C   0  0  0  0  0  0  0  0  0  0  0  0
  -21.2088  -19.4876   21.1290 C   0  0  0  0  0  0  0  0  0  0  0  0
  -31.5846  -21.3777   16.8531 C   0  0  0  0  0  0  0  0  0  0  0  0
  -28.3604  -26.6129   18.2570 C   0  0  0  0  0  0  0  0  0  0  0  0
  -25.8099  -26.6607   18.2748 C   0  0  0  0  0  0  0  0  0  0  0  0
  -29.5676  -22.8766   22.4529 C   0  0  0  0  0  0  0  0  0  0  0  0
  -22.9157  -19.7944   22.8179 C   0  0  0  0  0  0  0  0  0  0  0  0
  -28.1705  -22.8345   22.2841 C   0  0  0  0  0  0  0  0  0  0  0  0
  -22.4934  -19.2047   21.6179 C   0  0  0  0  0  0  0  0  0  0  0  0
  -20.2021  -28.6579   23.1614 C   0  0  0  0  0  0  0  0  0  0  0  0
  -18.3678  -26.9535   21.9313 C   0  0  0  0  0  0  0  0  0  0  0  0
  -30.8417  -25.5347   17.5766 C   0  0  0  0  0  0  0  0  0  0  0  0
  -20.3516  -20.3351   21.8305 C   0  0  0  0  0  0  0  0  0  0  0  0
  -32.2242  -23.6428   17.3983 C   0  0  0  0  0  0  0  0  0  0  0  0
  -32.5741  -20.8925   17.7082 C   0  0  0  0  0  0  0  0  0  0  0  0
  -31.4096  -22.7528   16.6982 C   0  0  0  0  0  0  0  0  0  0  0  0
  -27.0790  -27.1698   18.6092 C   0  0  0  0  0  0  0  0  0  0  0  0
  -24.9249  -27.5457   18.8406 C   0  0  0  0  0  0  0  0  0  0  0  0
  -25.4620  -25.4922   17.5203 C   0  0  0  0  0  0  0  0  0  0  0  0
  -25.7637  -20.1568   21.4535 C   0  0  0  0  0  0  0  0  0  0  0  0
  -25.5238  -16.9528   21.0066 C   0  0  0  0  0  0  0  0  0  0  0  0
  -23.5128  -14.2121   20.7057 C   0  0  0  0  0  0  0  0  0  0  0  0
  -23.2792  -30.7081   23.1343 C   0  0  0  0  0  0  0  0  0  0  0  0
  -30.4964  -22.0651   21.5849 C   0  0  0  0  0  0  0  0  0  0  0  0
  -24.2780  -19.4900   23.3781 C   0  0  0  0  0  0  0  0  0  0  0  0
  -23.3852  -18.2799   20.8319 C   0  0  0  0  0  0  0  0  0  0  0  0
  -29.8018  -20.9175   20.8562 C   0  0  0  0  0  0  0  0  0  0  0  0
  -25.6906  -32.0961   20.9128 C   0  0  0  0  0  0  0  0  0  0  0  0
  -28.5036  -21.3995   20.2164 C   0  0  0  0  0  0  0  0  0  0  0  0
  -26.1662  -30.8956   20.0927 C   0  0  0  0  0  0  0  0  0  0  0  0
  -25.4085  -31.7124   22.3637 C   0  0  0  0  0  0  0  0  0  0  0  0
  -24.9566  -29.3781   21.7152 C   0  0  0  0  0  0  0  0  0  0  0  0
  -27.5213  -21.9091   21.2780 C   0  0  1  0  0  0  0  0  0  0  0  0
  -25.2715  -19.0292   22.3161 C   0  0  1  0  0  0  0  0  0  0  0  0
  -25.2003  -29.7035   20.2317 C   0  0  2  0  0  0  0  0  0  0  0  0
  -23.6039  -11.7360   20.3082 C   0  0  0  0  0  0  0  0  0  0  0  0
  -26.0734  -17.4508   18.0469 C   0  0  0  0  0  0  0  0  0  0  0  0
  -25.2243  -15.1438   17.5726 C   0  0  0  0  0  0  0  0  0  0  0  0
  -27.2428  -15.4581   19.0042 C   0  0  0  0  0  0  0  0  0  0  0  0
  -22.2520  -13.6289   23.3190 C   0  0  0  0  0  0  0  0  0  0  0  0
  -18.8772  -24.8065   19.7027 C   0  0  0  0  0  0  0  0  0  0  0  0
  -21.1828  -29.5694   23.8182 C   0  0  0  0  0  0  0  0  0  0  0  0
  -17.3826  -26.0355   21.2699 C   0  0  0  0  0  0  0  0  0  0  0  0
  -17.5996  -22.2816   20.5405 C   0  0  0  0  0  0  0  0  0  0  0  0
  -16.9462  -23.6384   20.7557 C   0  0  0  0  0  0  0  0  0  0  0  0
  -18.5428  -21.8701   21.6644 C   0  0  0  0  0  0  0  0  0  1  0  0
  -24.9660  -16.0635   19.9217 C   0  0  1  0  0  0  0  0  0  0  0  0
  -23.5759  -12.8405   21.3532 C   0  0  2  0  0  0  0  0  0  0  0  0
  -25.8603  -16.0480   18.6500 C   0  0  0  0  0  0  0  0  0  0  0  0
  -27.0108  -28.2914   19.3313 N   0  0  0  0  0  0  0  0  0  0  0  0
  -25.6881  -28.4944   19.4552 N   0  0  0  0  0  0  0  0  0  0  0  0
  -24.7102  -18.0181   21.4178 N   0  0  0  0  0  0  0  0  0  0  0  0
  -24.4849  -30.5771   22.4257 N   0  0  0  0  0  0  0  0  0  0  0  0
  -23.5762  -27.5972   18.8672 N   0  0  0  0  0  0  0  0  0  0  0  0
  -26.4951  -24.6936   17.0111 N   0  0  0  0  0  0  0  0  0  0  0  0
  -26.8824  -20.7981   21.9502 N   0  0  0  0  0  0  0  0  0  0  0  0
  -24.7692  -14.7521   20.5299 N   0  0  0  0  0  0  0  0  0  0  0  0
  -22.4585  -29.5869   23.1377 N   0  0  0  0  0  0  0  0  0  0  0  0
  -22.3906  -12.6270   22.2309 N   0  3  0  0  0  0  0  0  0  0  0  0
  -17.9744  -24.6945   20.9076 N   0  3  1  0  0  0  0  0  0  0  0  0
  -24.2705  -25.1749   17.2901 O   0  0  0  0  0  0  0  0  0  0  0  0
  -25.1731  -20.4242   20.4136 O   0  0  0  0  0  0  0  0  0  0  0  0
  -26.6374  -16.7071   21.4770 O   0  0  0  0  0  0  0  0  0  0  0  0
  -22.4549  -14.7490   20.3844 O   0  0  0  0  0  0  0  0  0  0  0  0
  -22.9554  -31.7492   23.7160 O   0  0  0  0  0  0  0  0  0  0  0  0
  -32.0523  -25.0083   17.2448 O   0  0  0  0  0  0  0  0  0  0  0  0
  -19.1079  -20.5992   21.3454 O   0  0  0  0  0  0  0  0  0  1  0  0
  -32.7433  -19.5720   17.8560 F   0  0  0  0  0  0  0  0  0  0  0  0
  -30.4581  -23.2130   15.8744 F   0  0  0  0  0  0  0  0  0  0  0  0
  1  2  1  0  0  0  0
  1  5  2  0  0  0  0
  2  6  2  0  0  0  0
  3 12  2  0  0  0  0
  3 19  1  0  0  0  0
  4 13  1  0  0  0  0
  4 19  2  0  0  0  0
  5 21  1  0  0  0  0
  6 23  1  0  0  0  0
  7 14  2  0  0  0  0
  7 22  1  0  0  0  0
  8 10  2  0  0  0  0
  8 25  1  0  0  0  0
  9 11  1  0  0  0  0
  9 25  2  0  0  0  0
 10 26  1  0  0  0  0
 11 26  2  0  0  0  0
 12 27  1  0  0  0  0
 13 27  2  0  0  0  0
 14 28  1  0  0  0  0
 15 16  2  0  0  0  0
 15 29  1  0  0  0  0
 16 30  1  0  0  0  0
 17 24  1  0  0  0  0
 17 28  2  0  0  0  0
 18 30  2  0  0  0  0
 18 31  1  0  0  0  0
 19 32  1  0  0  0  0
 20 32  1  0  0  0  0
 20 33  2  0  0  0  0
 20 34  1  0  0  0  0
 21 23  2  0  0  0  0
 21 39  1  0  0  0  0
 22 24  2  0  0  0  0
 22 40  1  0  0  0  0
 23 48  1  0  0  0  0
 24 41  1  0  0  0  0
 25 57  1  0  0  0  0
 26 58  1  0  0  0  0
 27 81  1  0  0  0  0
 28 82  1  0  0  0  0
 29 31  2  0  0  0  0
 29 81  1  0  0  0  0
 30 83  1  0  0  0  0
 31 84  1  0  0  0  0
 32 65  2  0  0  0  0
 33 66  1  0  0  0  0
 33 69  1  0  0  0  0
 34 70  1  0  0  0  0
 34 76  2  0  0  0  0
 35 49  1  0  0  0  0
 35 71  1  0  0  0  0
 35 77  2  0  0  0  0
 36 62  1  0  0  0  0
 36 67  1  0  0  0  0
 36 78  2  0  0  0  0
 37 63  1  0  0  0  0
 37 72  1  0  0  0  0
 37 79  2  0  0  0  0
 38 68  1  0  0  0  0
 38 73  1  0  0  0  0
 38 80  2  0  0  0  0
 39 42  1  0  0  0  0
 40 49  1  0  0  0  0
 41 67  1  0  0  0  0
 42 44  1  0  0  0  0
 43 45  1  0  0  0  0
 43 46  1  0  0  0  0
 44 48  1  0  0  0  0
 45 50  1  0  0  0  0
 46 68  1  0  0  0  0
 47 50  1  0  0  0  0
 47 68  1  0  0  0  0
 48 71  1  0  0  0  0
 49 67  1  0  0  0  0
 50 66  1  0  0  0  0
 51 63  1  0  0  0  0
 52 64  1  0  0  0  0
 53 64  1  0  0  0  0
 54 64  1  0  0  0  0
 55 74  1  0  0  0  0
 56 75  1  0  0  0  0
 57 73  1  0  0  0  0
 58 75  1  0  0  0  0
 59 60  1  0  0  0  0
 59 61  1  0  0  0  0
 60 75  1  0  0  0  0
 61 82  1  0  0  0  0
 62 64  1  0  0  0  0
 62 72  1  0  0  0  0
 63 74  1  0  0  0  0
 65 66  1  0  0  0  0
M  CHG  2  74   1  75   1
M  ISO  4  38 100  61 101  73 100  82 101
M  END
> <Batch ID>
0014

> <Smiles>
CNC(C)C(=O)NC(C(=O)N1Cc2cc([101O:1][101CH2:1]CCN(C)Cc3ccc(C[100NH:0][100C:0](=O)N4CCCC(n5nc(-c6ccc(Oc7ccc(F)cc7F)cc6)c(C(N)=O)c5N)C4)cc3)ccc2CC1C(=O)NC1CCCc2ccccc21)C(C)(C)C

> <Shape>
0.198

> <Color>
0.091

> <Negative vol penalty>
0.000

$$$$

  -OEChem-04042320513D

 84 92  0     1  0  0  0  0  0999 V2000
  -29.8678   -2.0832   36.8256 C   0  0  0  0  0  0  0  0  0  0  0  0
  -29.8000   -2.9386   35.7306 C   0  0  0  0  0  0  0  0  0  0  0  0
  -23.2846   -9.7975   19.9080 C   0  0  0  0  0  0  0  0  0  0  0  0
  -23.7225   -9.9368   22.2799 C   0  0  0  0  0  0  0  0  0  0  0  0
  -28.6956   -1.5915   37.3984 C   0  0  0  0  0  0  0  0  0  0  0  0
  -28.5597   -3.3021   35.2070 C   0  0  0  0  0  0  0  0  0  0  0  0
  -27.0427   -8.6994   32.7426 C   0  0  0  0  0  0  0  0  0  0  0  0
  -28.4291  -11.5084   25.2454 C   0  0  0  0  0  0  0  0  0  0  0  0
  -28.4860  -10.3588   23.1212 C   0  0  0  0  0  0  0  0  0  0  0  0
  -27.7612  -10.4241   25.8143 C   0  0  0  0  0  0  0  0  0  0  0  0
  -27.8181   -9.2744   23.6902 C   0  0  0  0  0  0  0  0  0  0  0  0
  -22.5525   -8.6278   20.1119 C   0  0  0  0  0  0  0  0  0  0  0  0
  -22.9904   -8.7671   22.4838 C   0  0  0  0  0  0  0  0  0  0  0  0
  -26.9560   -9.1361   31.4214 C   0  0  0  0  0  0  0  0  0  0  0  0
  -19.7387   -7.8687   22.6830 C   0  0  0  0  0  0  0  0  0  0  0  0
  -18.8303   -7.8507   23.7413 C   0  0  0  0  0  0  0  0  0  0  0  0
  -24.5870   -8.6809   31.4327 C   0  0  0  0  0  0  0  0  0  0  0  0
  -20.0233   -5.9990   24.7339 C   0  0  0  0  0  0  0  0  0  0  0  0
  -23.8696  -10.4519   20.9921 C   0  0  0  0  0  0  0  0  0  0  0  0
  -24.1400  -12.9809   20.7945 C   0  0  0  0  0  0  0  0  0  0  0  0
  -27.4401   -1.9568   36.8876 C   0  0  0  0  0  0  0  0  0  0  0  0
  -25.9022   -8.2391   33.4164 C   0  0  0  0  0  0  0  0  0  0  0  0
  -27.3696   -2.8138   35.7726 C   0  0  0  0  0  0  0  0  0  0  0  0
  -24.6614   -8.2413   32.7633 C   0  0  0  0  0  0  0  0  0  0  0  0
  -28.7915  -11.4758   23.8987 C   0  0  0  0  0  0  0  0  0  0  0  0
  -27.4557   -9.3071   25.0368 C   0  0  0  0  0  0  0  0  0  0  0  0
  -22.4054   -8.1126   21.3998 C   0  0  0  0  0  0  0  0  0  0  0  0
  -25.7286   -9.1242   30.7653 C   0  0  0  0  0  0  0  0  0  0  0  0
  -20.7894   -6.9518   22.6500 C   0  0  0  0  0  0  0  0  0  0  0  0
  -18.9726   -6.9159   24.7667 C   0  0  0  0  0  0  0  0  0  0  0  0
  -20.9317   -6.0170   23.6755 C   0  0  0  0  0  0  0  0  0  0  0  0
  -24.6265  -11.6599   20.7821 C   0  0  0  0  0  0  0  0  0  0  0  0
  -25.2459  -13.7565   20.5456 C   0  0  0  0  0  0  0  0  0  0  0  0
  -22.8075  -13.4637   21.0117 C   0  0  0  0  0  0  0  0  0  0  0  0
  -25.0315   -5.4755   34.7233 C   0  0  0  0  0  0  0  0  0  0  0  0
  -22.4723   -7.2006   35.7218 C   0  0  0  0  0  0  0  0  0  0  0  0
  -20.4424   -9.9047   35.2594 C   0  0  0  0  0  0  0  0  0  0  0  0
  -31.1496  -12.3509   21.3872 C   0  0  0  0  0  0  0  0  0  0  0  0
  -26.2020   -1.3624   37.5107 C   0  0  0  0  0  0  0  0  0  0  0  0
  -26.0076   -7.7965   34.8501 C   0  0  0  0  0  0  0  0  0  0  0  0
  -23.4036   -7.7759   33.4487 C   0  0  0  0  0  0  0  0  0  0  0  0
  -24.9172   -2.0935   37.1297 C   0  0  0  0  0  0  0  0  0  0  0  0
  -29.4877  -13.6547   18.3475 C   0  0  0  0  0  0  0  0  0  0  0  0
  -24.8769   -2.3545   35.6274 C   0  0  0  0  0  0  0  0  0  0  0  0
  -28.0171  -13.3328   18.6079 C   0  0  0  0  0  0  0  0  0  0  0  0
  -30.4170  -12.6711   19.0522 C   0  0  0  0  0  0  0  0  0  0  0  0
  -28.6994  -12.2294   20.7753 C   0  0  0  0  0  0  0  0  0  0  0  0
  -26.0424   -3.2508   35.1916 C   0  0  1  0  0  0  0  0  0  0  0  0
  -24.8755   -6.8653   35.2727 C   0  0  1  0  0  0  0  0  0  0  0  0
  -27.7370  -13.2295   20.1172 C   0  0  2  0  0  0  0  0  0  0  0  0
  -18.4121  -11.0298   36.2130 C   0  0  0  0  0  0  0  0  0  0  0  0
  -20.6974   -5.0672   34.4536 C   0  0  0  0  0  0  0  0  0  0  0  0
  -18.7849   -6.6772   34.5889 C   0  0  0  0  0  0  0  0  0  0  0  0
  -19.9058   -5.8966   36.6762 C   0  0  0  0  0  0  0  0  0  0  0  0
  -26.4659   -7.0444   24.7913 C   0  0  0  0  0  0  0  0  0  0  0  0
  -31.8627  -12.0559   23.7290 C   0  0  0  0  0  0  0  0  0  0  0  0
  -21.9521  -12.3786   35.8592 C   0  0  0  0  0  0  0  0  0  0  0  0
  -29.5053  -12.6348   23.2894 C   0  0  0  0  0  0  0  0  0  0  0  0
  -25.1026   -8.9645   27.2113 C   0  0  0  0  0  0  0  0  0  0  0  0
  -26.4098   -8.2097   27.0020 C   0  0  0  0  0  0  0  0  0  0  0  0
  -24.6335   -8.9512   28.6614 C   0  0  0  0  0  0  0  0  0  1  0  0
  -21.1096   -7.5176   35.1547 C   0  0  1  0  0  0  0  0  0  0  0  0
  -19.9311  -10.9575   36.2262 C   0  0  2  0  0  0  0  0  0  0  0  0
  -20.1483   -6.2967   35.2045 C   0  0  0  0  0  0  0  0  0  0  0  0
  -25.9392  -11.5961   20.5439 N   0  0  0  0  0  0  0  0  0  0  0  0
  -26.2869  -12.8867   20.4044 N   0  0  0  0  0  0  0  0  0  0  0  0
  -23.5593   -7.3469   34.8484 N   0  0  0  0  0  0  0  0  0  0  0  0
  -30.1009  -12.5599   20.4766 N   0  0  0  0  0  0  0  0  0  0  0  0
  -25.4196  -15.0907   20.4359 N   0  0  0  0  0  0  0  0  0  0  0  0
  -21.7900  -12.5308   21.2536 N   0  0  0  0  0  0  0  0  0  0  0  0
  -25.7716   -4.6317   35.5293 N   0  0  0  0  0  0  0  0  0  0  0  0
  -20.6276   -8.6877   35.8806 N   0  0  0  0  0  0  0  0  0  0  0  0
  -26.7858   -8.2161   25.6089 N   0  0  3  0  0  0  0  0  0  0  0  0
  -30.8090  -12.2608   22.7454 N   0  0  0  0  0  0  0  0  0  0  0  0
  -20.4686  -12.2991   35.8629 N   0  3  0  0  0  0  0  0  0  0  0  0
  -22.5246  -14.6852   20.9756 O   0  0  0  0  0  0  0  0  0  0  0  0
  -24.5171   -5.1895   33.6485 O   0  0  0  0  0  0  0  0  0  0  0  0
  -22.5694   -6.8434   36.8985 O   0  0  0  0  0  0  0  0  0  0  0  0
  -20.6527  -10.1376   34.0711 O   0  0  0  0  0  0  0  0  0  0  0  0
  -32.3246  -12.2600   21.0088 O   0  0  0  0  0  0  0  0  0  0  0  0
  -21.6909   -6.9715   21.5991 O   0  0  0  0  0  0  0  0  0  0  0  0
  -25.6413   -9.5493   29.4756 O   0  0  0  0  0  0  0  0  0  1  0  0
  -18.1010   -6.8998   25.7838 F   0  0  0  0  0  0  0  0  0  0  0  0
  -21.9398   -5.1344   23.6500 F   0  0  0  0  0  0  0  0  0  0  0  0
  1  2  1  0  0  0  0
  1  5  2  0  0  0  0
  2  6  2  0  0  0  0
  3 12  2  0  0  0  0
  3 19  1  0  0  0  0
  4 13  1  0  0  0  0
  4 19  2  0  0  0  0
  5 21  1  0  0  0  0
  6 23  1  0  0  0  0
  7 14  2  0  0  0  0
  7 22  1  0  0  0  0
  8 10  2  0  0  0  0
  8 25  1  0  0  0  0
  9 11  1  0  0  0  0
  9 25  2  0  0  0  0
 10 26  1  0  0  0  0
 11 26  2  0  0  0  0
 12 27  1  0  0  0  0
 13 27  2  0  0  0  0
 14 28  1  0  0  0  0
 15 16  2  0  0  0  0
 15 29  1  0  0  0  0
 16 30  1  0  0  0  0
 17 24  1  0  0  0  0
 17 28  2  0  0  0  0
 18 30  2  0  0  0  0
 18 31  1  0  0  0  0
 19 32  1  0  0  0  0
 20 32  1  0  0  0  0
 20 33  2  0  0  0  0
 20 34  1  0  0  0  0
 21 23  2  0  0  0  0
 21 39  1  0  0  0  0
 22 24  2  0  0  0  0
 22 40  1  0  0  0  0
 23 48  1  0  0  0  0
 24 41  1  0  0  0  0
 25 58  1  0  0  0  0
 26 73  1  0  0  0  0
 27 81  1  0  0  0  0
 28 82  1  0  0  0  0
 29 31  2  0  0  0  0
 29 81  1  0  0  0  0
 30 83  1  0  0  0  0
 31 84  1  0  0  0  0
 32 65  2  0  0  0  0
 33 66  1  0  0  0  0
 33 69  1  0  0  0  0
 34 70  1  0  0  0  0
 34 76  2  0  0  0  0
 35 49  1  0  0  0  0
 35 71  1  0  0  0  0
 35 77  2  0  0  0  0
 36 62  1  0  0  0  0
 36 67  1  0  0  0  0
 36 78  2  0  0  0  0
 37 63  1  0  0  0  0
 37 72  1  0  0  0  0
 37 79  2  0  0  0  0
 38 68  1  0  0  0  0
 38 74  1  0  0  0  0
 38 80  2  0  0  0  0
 39 42  1  0  0  0  0
 40 49  1  0  0  0  0
 41 67  1  0  0  0  0
 42 44  1  0  0  0  0
 43 45  1  0  0  0  0
 43 46  1  0  0  0  0
 44 48  1  0  0  0  0
 45 50  1  0  0  0  0
 46 68  1  0  0  0  0
 47 50  1  0  0  0  0
 47 68  1  0  0  0  0
 48 71  1  0  0  0  0
 49 67  1  0  0  0  0
 50 66  1  0  0  0  0
 51 63  1  0  0  0  0
 52 64  1  0  0  0  0
 53 64  1  0  0  0  0
 54 64  1  0  0  0  0
 55 73  1  0  0  0  0
 56 74  1  0  0  0  0
 57 75  1  0  0  0  0
 58 74  1  0  0  0  0
 59 60  1  0  0  0  0
 59 61  1  0  0  0  0
 60 73  1  0  0  0  0
 61 82  1  0  0  0  0
 62 64  1  0  0  0  0
 62 72  1  0  0  0  0
 63 75  1  0  0  0  0
 65 66  1  0  0  0  0
M  CHG  1  75   1
M  ISO  4  38 100  61 101  74 100  82 101
M  END
> <Batch ID>
0014

> <Smiles>
CNC(C)C(=O)NC(C(=O)N1Cc2cc([101O:1][101CH2:1]CCN(C)c3ccc(C[100N:0](C)[100C:0](=O)N4CCCC(n5nc(-c6ccc(Oc7ccc(F)cc7F)cc6)c(C(N)=O)c5N)C4)cc3)ccc2CC1C(=O)NC1CCCc2ccccc21)C(C)(C)C

> <Shape>
0.132

> <Color>
0.185

> <Negative vol penalty>
0.000

$$$$

  -OEChem-04042320513D

 86 96  0     1  0  0  0  0  0999 V2000
  -24.9308  -35.7993   20.6465 C   0  0  0  0  0  0  0  0  0  0  0  0
  -25.6727  -34.6270   20.7495 C   0  0  0  0  0  0  0  0  0  0  0  0
  -26.5505  -12.8648   19.9580 C   0  0  0  0  0  0  0  0  0  0  0  0
  -24.7562  -13.0717   21.5626 C   0  0  0  0  0  0  0  0  0  0  0  0
  -23.7024  -35.9050   21.2974 C   0  0  0  0  0  0  0  0  0  0  0  0
  -25.1871  -33.5599   21.5044 C   0  0  0  0  0  0  0  0  0  0  0  0
  -27.3392  -23.7047   16.1114 C   0  0  0  0  0  0  0  0  0  0  0  0
  -25.7057  -29.1121   19.1395 C   0  0  0  0  0  0  0  0  0  0  0  0
  -28.3259  -24.2444   16.9430 C   0  0  0  0  0  0  0  0  0  0  0  0
  -26.4945  -11.4760   20.0744 C   0  0  0  0  0  0  0  0  0  0  0  0
  -24.7002  -11.6828   21.6790 C   0  0  0  0  0  0  0  0  0  0  0  0
  -26.9730  -28.5310   19.1468 C   0  0  0  0  0  0  0  0  0  0  0  0
  -23.4326   -9.0871   19.9251 C   0  0  0  0  0  0  0  0  0  0  0  0
  -22.1734   -8.4873   19.9093 C   0  0  0  0  0  0  0  0  0  0  0  0
  -27.5015  -22.9665   18.8449 C   0  0  0  0  0  0  0  0  0  0  0  0
  -26.2889  -27.0758   20.9450 C   0  0  0  0  0  0  0  0  0  0  0  0
  -22.5783   -7.5791   22.1112 C   0  0  0  0  0  0  0  0  0  0  0  0
  -25.6814  -13.6627   20.7022 C   0  0  0  0  0  0  0  0  0  0  0  0
  -26.5402  -22.4463   17.9995 C   0  0  0  0  0  0  0  0  0  0  0  0
  -26.8395  -15.9301   20.8620 C   0  0  0  0  0  0  0  0  0  0  0  0
  -26.4484  -22.7998   16.6575 C   0  0  0  0  0  0  0  0  0  0  0  0
  -23.1969  -34.8351   22.0528 C   0  0  0  0  0  0  0  0  0  0  0  0
  -24.7222  -28.6861   20.0438 C   0  0  0  0  0  0  0  0  0  0  0  0
  -23.9513  -33.6518   22.1671 C   0  0  0  0  0  0  0  0  0  0  0  0
  -25.0091  -27.6512   20.9454 C   0  0  0  0  0  0  0  0  0  0  0  0
  -28.4059  -23.8783   18.2988 C   0  0  0  0  0  0  0  0  0  0  0  0
  -25.5693  -10.8850   20.9348 C   0  0  0  0  0  0  0  0  0  0  0  0
  -27.2657  -27.5147   20.0516 C   0  0  0  0  0  0  0  0  0  0  0  0
  -24.2647   -8.9329   21.0339 C   0  0  0  0  0  0  0  0  0  0  0  0
  -21.7463   -7.7333   21.0023 C   0  0  0  0  0  0  0  0  0  0  0  0
  -23.8376   -8.1790   22.1270 C   0  0  0  0  0  0  0  0  0  0  0  0
  -25.7392  -15.0974   20.5828 C   0  0  0  0  0  0  0  0  0  0  0  0
  -26.3873  -17.1986   20.5919 C   0  0  0  0  0  0  0  0  0  0  0  0
  -25.4740  -21.4870   18.2972 C   0  0  0  0  0  0  0  0  0  0  0  0
  -28.1528  -15.5875   21.3239 C   0  0  0  0  0  0  0  0  0  0  0  0
  -23.0864  -30.0667   22.3937 C   0  0  0  0  0  0  0  0  0  0  0  0
  -21.5140  -27.2298   22.4406 C   0  0  0  0  0  0  0  0  0  0  0  0
  -21.5401  -23.8909   21.7351 C   0  0  0  0  0  0  0  0  0  0  0  0
  -23.6131  -20.4996   16.8918 C   0  0  0  0  0  0  0  0  0  0  0  0
  -21.8862  -35.0134   22.7772 C   0  0  0  0  0  0  0  0  0  0  0  0
  -23.3517  -29.3046   20.0052 C   0  0  0  0  0  0  0  0  0  0  0  0
  -25.3094  -22.0951   16.0138 C   0  0  0  0  0  0  0  0  0  0  0  0
  -23.9819  -27.1438   21.9231 C   0  0  0  0  0  0  0  0  0  0  0  0
  -21.2682  -33.7001   23.2503 C   0  0  0  0  0  0  0  0  0  0  0  0
  -21.7414  -18.9414   19.6778 C   0  0  0  0  0  0  0  0  0  0  0  0
  -31.3433  -24.3213   20.3956 C   0  0  0  0  0  0  0  0  0  0  0  0
  -22.3201  -32.8296   23.9303 C   0  0  0  0  0  0  0  0  0  0  0  0
  -22.6781  -17.8213   20.1259 C   0  0  0  0  0  0  0  0  0  0  0  0
  -31.1305  -25.7666   19.9817 C   0  0  0  0  0  0  0  0  0  0  0  0
  -29.9587  -23.7061   20.2329 C   0  0  0  0  0  0  0  0  0  0  0  0
  -21.9166  -19.2681   18.1981 C   0  0  0  0  0  0  0  0  0  0  0  0
  -24.2609  -18.4735   18.2676 C   0  0  0  0  0  0  0  0  0  0  0  0
  -23.4466  -32.4634   22.9564 C   0  0  1  0  0  0  0  0  0  0  0  0
  -22.5875  -29.1462   21.3160 C   0  0  1  0  0  0  0  0  0  0  0  0
  -24.1356  -18.1535   19.7648 C   0  0  2  0  0  0  0  0  0  0  0  0
  -30.1194  -25.6754   18.8255 C   0  0  2  0  0  0  0  0  0  0  0  0
  -20.1251  -21.8269   21.9223 C   0  0  0  0  0  0  0  0  0  0  0  0
  -22.1354  -27.0773   25.4240 C   0  0  0  0  0  0  0  0  0  0  0  0
  -21.5634  -24.6411   25.3476 C   0  0  0  0  0  0  0  0  0  0  0  0
  -19.8265  -26.3460   24.8006 C   0  0  0  0  0  0  0  0  0  0  0  0
  -21.5053  -23.5081   18.8006 C   0  0  0  0  0  0  0  0  0  0  0  0
  -29.2119  -26.9012   18.8301 C   0  0  0  0  0  0  0  0  0  1  0  0
  -21.7011  -25.9156   23.1595 C   0  0  1  0  0  0  0  0  0  0  0  0
  -20.5254  -23.0000   21.0413 C   0  0  2  0  0  0  0  0  0  0  0  0
  -21.3268  -26.0056   24.6660 C   0  0  0  0  0  0  0  0  0  0  0  0
  -24.6686  -15.7796   20.1675 N   0  0  0  0  0  0  0  0  0  0  0  0
  -25.0940  -17.0543   20.1837 N   0  0  0  0  0  0  0  0  0  0  0  0
  -29.3900  -24.4283   19.0958 N   0  0  3  0  0  0  0  0  0  0  0  0
  -24.8103  -21.2156   17.0745 N   0  0  0  0  0  0  0  0  0  0  0  0
  -22.6585  -27.7848   21.8506 N   0  0  0  0  0  0  0  0  0  0  0  0
  -23.3174  -19.5262   17.8618 N   0  0  0  0  0  0  0  0  0  0  0  0
  -26.9739  -18.4122   20.6663 N   0  0  0  0  0  0  0  0  0  0  0  0
  -28.3839  -15.5402   22.7055 N   0  0  0  0  0  0  0  0  0  0  0  0
  -23.0198  -31.4070   22.0641 N   0  0  0  0  0  0  0  0  0  0  0  0
  -20.9319  -24.9276   22.4108 N   0  0  0  0  0  0  0  0  0  0  0  0
  -21.0907  -22.4627   19.7713 N   0  3  0  0  0  0  0  0  0  0  0  0
  -25.2558  -21.0629   19.4179 O   0  0  0  0  0  0  0  0  0  0  0  0
  -29.0978  -15.3469   20.5348 O   0  0  0  0  0  0  0  0  0  0  0  0
  -23.4998  -29.5958   23.4468 O   0  0  0  0  0  0  0  0  0  0  0  0
  -20.3924  -27.7414   22.3978 O   0  0  0  0  0  0  0  0  0  0  0  0
  -22.7508  -23.6853   21.6859 O   0  0  0  0  0  0  0  0  0  0  0  0
  -22.8493  -20.7582   15.9547 O   0  0  0  0  0  0  0  0  0  0  0  0
  -25.5142   -9.5297   21.0485 O   0  0  0  0  0  0  0  0  0  0  0  0
  -28.5131  -26.9413   20.0613 O   0  0  0  0  0  0  0  0  0  1  0  0
  -20.5364   -7.1586   20.9876 F   0  0  0  0  0  0  0  0  0  0  0  0
  -24.6320   -8.0283   23.1956 F   0  0  0  0  0  0  0  0  0  0  0  0
  1  2  1  0  0  0  0
  1  5  2  0  0  0  0
  2  6  2  0  0  0  0
  3 10  2  0  0  0  0
  3 18  1  0  0  0  0
  4 11  1  0  0  0  0
  4 18  2  0  0  0  0
  5 22  1  0  0  0  0
  6 24  1  0  0  0  0
  7  9  2  0  0  0  0
  7 21  1  0  0  0  0
  8 12  2  0  0  0  0
  8 23  1  0  0  0  0
  9 26  1  0  0  0  0
 10 27  1  0  0  0  0
 11 27  2  0  0  0  0
 12 28  1  0  0  0  0
 13 14  2  0  0  0  0
 13 29  1  0  0  0  0
 14 30  1  0  0  0  0
 15 19  1  0  0  0  0
 15 26  2  0  0  0  0
 16 25  1  0  0  0  0
 16 28  2  0  0  0  0
 17 30  2  0  0  0  0
 17 31  1  0  0  0  0
 18 32  1  0  0  0  0
 19 21  2  0  0  0  0
 19 34  1  0  0  0  0
 20 32  1  0  0  0  0
 20 33  2  0  0  0  0
 20 35  1  0  0  0  0
 21 42  1  0  0  0  0
 22 24  2  0  0  0  0
 22 40  1  0  0  0  0
 23 25  2  0  0  0  0
 23 41  1  0  0  0  0
 24 53  1  0  0  0  0
 25 43  1  0  0  0  0
 26 68  1  0  0  0  0
 27 83  1  0  0  0  0
 28 84  1  0  0  0  0
 29 31  2  0  0  0  0
 29 83  1  0  0  0  0
 30 85  1  0  0  0  0
 31 86  1  0  0  0  0
 32 66  2  0  0  0  0
 33 67  1  0  0  0  0
 33 72  1  0  0  0  0
 34 69  1  0  0  0  0
 34 77  2  0  0  0  0
 35 73  1  0  0  0  0
 35 78  2  0  0  0  0
 36 54  1  0  0  0  0
 36 74  1  0  0  0  0
 36 79  2  0  0  0  0
 37 63  1  0  0  0  0
 37 70  1  0  0  0  0
 37 80  2  0  0  0  0
 38 64  1  0  0  0  0
 38 75  1  0  0  0  0
 38 81  2  0  0  0  0
 39 69  1  0  0  0  0
 39 71  1  0  0  0  0
 39 82  2  0  0  0  0
 40 44  1  0  0  0  0
 41 54  1  0  0  0  0
 42 69  1  0  0  0  0
 43 70  1  0  0  0  0
 44 47  1  0  0  0  0
 45 48  1  0  0  0  0
 45 51  1  0  0  0  0
 46 49  1  0  0  0  0
 46 50  1  0  0  0  0
 47 53  1  0  0  0  0
 48 55  1  0  0  0  0
 49 56  1  0  0  0  0
 50 68  1  0  0  0  0
 51 71  1  0  0  0  0
 52 55  1  0  0  0  0
 52 71  1  0  0  0  0
 53 74  1  0  0  0  0
 54 70  1  0  0  0  0
 55 67  1  0  0  0  0
 56 62  1  0  0  0  0
 56 68  1  0  0  0  0
 57 64  1  0  0  0  0
 58 65  1  0  0  0  0
 59 65  1  0  0  0  0
 60 65  1  0  0  0  0
 61 76  1  0  0  0  0
 62 84  1  0  0  0  0
 63 65  1  0  0  0  0
 63 75  1  0  0  0  0
 64 76  1  0  0  0  0
 66 67  1  0  0  0  0
M  CHG  1  76   1
M  ISO  4  39 100  62 101  69 100  84 101
M  END
> <Batch ID>
0014

> <Smiles>
CNC(C)C(=O)NC(C(=O)N1Cc2cc([101O:1][101CH2:1]C3CCCN3c3ccc4c(c3)C(=O)[100N:0]([100C:0](=O)N3CCCC(n5nc(-c6ccc(Oc7ccc(F)cc7F)cc6)c(C(N)=O)c5N)C3)C4)ccc2CC1C(=O)NC1CCCc2ccccc21)C(C)(C)C

> <Shape>
0.216

> <Color>
0.077

> <Negative vol penalty>
0.000

$$$$

  -OEChem-04042320513D

 83 91  0     1  0  0  0  0  0999 V2000
  -28.3285  -38.0351   24.2571 C   0  0  0  0  0  0  0  0  0  0  0  0
  -28.7517  -36.9823   23.4522 C   0  0  0  0  0  0  0  0  0  0  0  0
  -26.4991  -12.5879   21.6264 C   0  0  0  0  0  0  0  0  0  0  0  0
  -26.1070  -13.6197   19.4773 C   0  0  0  0  0  0  0  0  0  0  0  0
  -27.4171  -37.8016   25.2860 C   0  0  0  0  0  0  0  0  0  0  0  0
  -28.2645  -35.6951   23.6764 C   0  0  0  0  0  0  0  0  0  0  0  0
  -27.1077  -31.4095   19.4573 C   0  0  0  0  0  0  0  0  0  0  0  0
  -29.0467  -22.6258   19.6565 C   0  0  0  0  0  0  0  0  0  0  0  0
  -28.5588  -23.6722   18.8738 C   0  0  0  0  0  0  0  0  0  0  0  0
  -25.2362  -11.9981   21.5737 C   0  0  0  0  0  0  0  0  0  0  0  0
  -24.8441  -13.0299   19.4245 C   0  0  0  0  0  0  0  0  0  0  0  0
  -27.8403  -30.3103   19.0115 C   0  0  0  0  0  0  0  0  0  0  0  0
  -23.7877   -9.3441   20.0601 C   0  0  0  0  0  0  0  0  0  0  0  0
  -23.6854   -7.9985   20.4128 C   0  0  0  0  0  0  0  0  0  0  0  0
  -26.6178  -28.8879   20.5285 C   0  0  0  0  0  0  0  0  0  0  0  0
  -28.7901  -21.1113   17.7917 C   0  0  0  0  0  0  0  0  0  0  0  0
  -22.1565   -8.5806   22.1906 C   0  0  0  0  0  0  0  0  0  0  0  0
  -26.9345  -13.3987   20.5782 C   0  0  0  0  0  0  0  0  0  0  0  0
  -29.4489  -13.4719   20.1537 C   0  0  0  0  0  0  0  0  0  0  0  0
  -26.9111  -36.5127   25.5169 C   0  0  0  0  0  0  0  0  0  0  0  0
  -26.1306  -31.2578   20.4515 C   0  0  0  0  0  0  0  0  0  0  0  0
  -27.3465  -35.4440   24.7103 C   0  0  0  0  0  0  0  0  0  0  0  0
  -25.8724  -29.9863   20.9834 C   0  0  0  0  0  0  0  0  0  0  0  0
  -29.1624  -21.3453   19.1154 C   0  0  0  0  0  0  0  0  0  0  0  0
  -28.1865  -23.4382   17.5501 C   0  0  0  0  0  0  0  0  0  0  0  0
  -24.4087  -12.2191   20.4727 C   0  0  0  0  0  0  0  0  0  0  0  0
  -27.5974  -29.0497   19.5492 C   0  0  0  0  0  0  0  0  0  0  0  0
  -23.0744  -10.3080   20.7727 C   0  0  0  0  0  0  0  0  0  0  0  0
  -22.8698   -7.6167   21.4780 C   0  0  0  0  0  0  0  0  0  0  0  0
  -28.3022  -22.1577   17.0090 C   0  0  0  0  0  0  0  0  0  0  0  0
  -22.2588   -9.9263   21.8379 C   0  0  0  0  0  0  0  0  0  0  0  0
  -28.2388  -14.0087   20.6324 C   0  0  0  0  0  0  0  0  0  0  0  0
  -30.3882  -14.4315   20.4421 C   0  0  0  0  0  0  0  0  0  0  0  0
  -29.7013  -12.2178   19.5061 C   0  0  0  0  0  0  0  0  0  0  0  0
  -25.7265  -32.3961   23.3917 C   0  0  0  0  0  0  0  0  0  0  0  0
  -22.8610  -30.8934   23.1599 C   0  0  0  0  0  0  0  0  0  0  0  0
  -20.9842  -28.4426   21.7046 C   0  0  0  0  0  0  0  0  0  0  0  0
  -30.0704  -20.3446   21.2416 C   0  0  0  0  0  0  0  0  0  0  0  0
  -25.9638  -36.3008   26.6712 C   0  0  0  0  0  0  0  0  0  0  0  0
  -25.3304  -32.4489   20.9025 C   0  0  0  0  0  0  0  0  0  0  0  0
  -24.8201  -29.7667   22.0384 C   0  0  0  0  0  0  0  0  0  0  0  0
  -25.2094  -34.9754   26.6045 C   0  0  0  0  0  0  0  0  0  0  0  0
  -31.3155  -17.9463   23.5599 C   0  0  0  0  0  0  0  0  0  0  0  0
  -26.1655  -33.8328   26.2771 C   0  0  0  0  0  0  0  0  0  0  0  0
  -30.7830  -16.6148   23.0253 C   0  0  0  0  0  0  0  0  0  0  0  0
  -30.3084  -19.0786   23.3665 C   0  0  0  0  0  0  0  0  0  0  0  0
  -29.2779  -17.9075   21.4598 C   0  0  0  0  0  0  0  0  0  0  0  0
  -26.8218  -34.0382   24.9065 C   0  0  1  0  0  0  0  0  0  0  0  0
  -24.7162  -32.2667   22.2870 C   0  0  1  0  0  0  0  0  0  0  0  0
  -30.2833  -16.7499   21.5735 C   0  0  2  0  0  0  0  0  0  0  0  0
  -18.6870  -27.4335   21.7472 C   0  0  0  0  0  0  0  0  0  0  0  0
  -23.5380  -29.4686   25.7717 C   0  0  0  0  0  0  0  0  0  0  0  0
  -21.7139  -27.8290   25.2690 C   0  0  0  0  0  0  0  0  0  0  0  0
  -21.1666  -30.2416   25.5893 C   0  0  0  0  0  0  0  0  0  0  0  0
  -27.3043  -24.2478   15.3761 C   0  0  0  0  0  0  0  0  0  0  0  0
  -20.5032  -29.1303   18.8665 C   0  0  0  0  0  0  0  0  0  0  0  0
  -28.8778  -26.5714   17.2541 C   0  0  0  0  0  0  0  0  0  0  0  0
  -27.5504  -25.8242   17.3004 C   0  0  0  0  0  0  0  0  0  0  0  0
  -28.7728  -28.0031   17.7662 C   0  0  0  0  0  0  0  0  0  1  0  0
  -22.3510  -29.5089   23.4792 C   0  0  1  0  0  0  0  0  0  0  0  0
  -19.5937  -28.4663   21.0960 C   0  0  2  0  0  0  0  0  0  0  0  0
  -22.2136  -29.2662   25.0088 C   0  0  0  0  0  0  0  0  0  0  0  0
  -28.3924  -15.2158   21.1833 N   0  0  0  0  0  0  0  0  0  0  0  0
  -29.7101  -15.4452   21.0526 N   0  0  0  0  0  0  0  0  0  0  0  0
  -24.0687  -30.9636   22.4510 N   0  0  0  0  0  0  0  0  0  0  0  0
  -29.8832  -19.1490   21.9669 N   0  0  0  0  0  0  0  0  0  0  0  0
  -31.7198  -14.4987   20.2306 N   0  0  0  0  0  0  0  0  0  0  0  0
  -28.6228  -11.3500   19.2870 N   0  0  0  0  0  0  0  0  0  0  0  0
  -29.6577  -20.2825   19.9110 N   0  0  0  0  0  0  0  0  0  0  0  0
  -25.8997  -33.6892   23.8471 N   0  0  0  0  0  0  0  0  0  0  0  0
  -21.1062  -29.3508   22.7350 N   0  0  0  0  0  0  0  0  0  0  0  0
  -27.6955  -24.4918   16.7658 N   0  0  3  0  0  0  0  0  0  0  0  0
  -19.6625  -28.1771   19.6356 N   0  3  0  0  0  0  0  0  0  0  0  0
  -30.8519  -11.8699   19.1475 O   0  0  0  0  0  0  0  0  0  0  0  0
  -26.3048  -31.3965   23.8017 O   0  0  0  0  0  0  0  0  0  0  0  0
  -22.2082  -31.8763   23.5197 O   0  0  0  0  0  0  0  0  0  0  0  0
  -21.8721  -27.6910   21.3082 O   0  0  0  0  0  0  0  0  0  0  0  0
  -30.5858  -21.3411   21.7549 O   0  0  0  0  0  0  0  0  0  0  0  0
  -23.1764  -11.6435   20.4208 O   0  0  0  0  0  0  0  0  0  0  0  0
  -28.3115  -27.9752   19.1163 O   0  0  0  0  0  0  0  0  0  1  0  0
  -22.7705   -6.3243   21.8156 F   0  0  0  0  0  0  0  0  0  0  0  0
  -27.9456  -21.9214   15.7384 F   0  0  0  0  0  0  0  0  0  0  0  0
  -21.5702  -10.8477   22.5254 F   0  0  0  0  0  0  0  0  0  0  0  0
  1  2  1  0  0  0  0
  1  5  2  0  0  0  0
  2  6  2  0  0  0  0
  3 10  2  0  0  0  0
  3 18  1  0  0  0  0
  4 11  1  0  0  0  0
  4 18  2  0  0  0  0
  5 20  1  0  0  0  0
  6 22  1  0  0  0  0
  7 12  2  0  0  0  0
  7 21  1  0  0  0  0
  8  9  2  0  0  0  0
  8 24  1  0  0  0  0
  9 25  1  0  0  0  0
 10 26  1  0  0  0  0
 11 26  2  0  0  0  0
 12 27  1  0  0  0  0
 13 14  2  0  0  0  0
 13 28  1  0  0  0  0
 14 29  1  0  0  0  0
 15 23  1  0  0  0  0
 15 27  2  0  0  0  0
 16 24  2  0  0  0  0
 16 30  1  0  0  0  0
 17 29  2  0  0  0  0
 17 31  1  0  0  0  0
 18 32  1  0  0  0  0
 19 32  1  0  0  0  0
 19 33  2  0  0  0  0
 19 34  1  0  0  0  0
 20 22  2  0  0  0  0
 20 39  1  0  0  0  0
 21 23  2  0  0  0  0
 21 40  1  0  0  0  0
 22 48  1  0  0  0  0
 23 41  1  0  0  0  0
 24 69  1  0  0  0  0
 25 30  2  0  0  0  0
 25 72  1  0  0  0  0
 26 79  1  0  0  0  0
 27 80  1  0  0  0  0
 28 31  2  0  0  0  0
 28 79  1  0  0  0  0
 29 81  1  0  0  0  0
 30 82  1  0  0  0  0
 31 83  1  0  0  0  0
 32 63  2  0  0  0  0
 33 64  1  0  0  0  0
 33 67  1  0  0  0  0
 34 68  1  0  0  0  0
 34 74  2  0  0  0  0
 35 49  1  0  0  0  0
 35 70  1  0  0  0  0
 35 75  2  0  0  0  0
 36 60  1  0  0  0  0
 36 65  1  0  0  0  0
 36 76  2  0  0  0  0
 37 61  1  0  0  0  0
 37 71  1  0  0  0  0
 37 77  2  0  0  0  0
 38 66  1  0  0  0  0
 38 69  1  0  0  0  0
 38 78  2  0  0  0  0
 39 42  1  0  0  0  0
 40 49  1  0  0  0  0
 41 65  1  0  0  0  0
 42 44  1  0  0  0  0
 43 45  1  0  0  0  0
 43 46  1  0  0  0  0
 44 48  1  0  0  0  0
 45 50  1  0  0  0  0
 46 66  1  0  0  0  0
 47 50  1  0  0  0  0
 47 66  1  0  0  0  0
 48 70  1  0  0  0  0
 49 65  1  0  0  0  0
 50 64  1  0  0  0  0
 51 61  1  0  0  0  0
 52 62  1  0  0  0  0
 53 62  1  0  0  0  0
 54 62  1  0  0  0  0
 55 72  1  0  0  0  0
 56 73  1  0  0  0  0
 57 58  1  0  0  0  0
 57 59  1  0  0  0  0
 58 72  1  0  0  0  0
 59 80  1  0  0  0  0
 60 62  1  0  0  0  0
 60 71  1  0  0  0  0
 61 73  1  0  0  0  0
 63 64  1  0  0  0  0
M  CHG  1  73   1
M  ISO  4  38 100  59 101  69 100  80 101
M  END
> <Batch ID>
0014

> <Smiles>
CNC(C)C(=O)NC(C(=O)N1Cc2cc([101O:1][101CH2:1]CCN(C)c3ccc([100NH:0][100C:0](=O)N4CCCC(n5nc(-c6ccc(Oc7ccc(F)cc7F)cc6)c(C(N)=O)c5N)C4)cc3F)ccc2CC1C(=O)NC1CCCc2ccccc21)C(C)(C)C

> <Shape>
0.328

> <Color>
0.095

> <Negative vol penalty>
0.000

$$$$

  -OEChem-04042320513D

 85 94  0     1  0  0  0  0  0999 V2000
  -34.3967  -32.6652   14.1301 C   0  0  0  0  0  0  0  0  0  0  0  0
  -34.8020  -31.5865   14.9095 C   0  0  0  0  0  0  0  0  0  0  0  0
  -23.0739   -9.8705   19.9413 C   0  0  0  0  0  0  0  0  0  0  0  0
  -23.8319   -9.8784   22.2353 C   0  0  0  0  0  0  0  0  0  0  0  0
  -33.2526  -33.3829   14.4762 C   0  0  0  0  0  0  0  0  0  0  0  0
  -34.0639  -31.2254   16.0361 C   0  0  0  0  0  0  0  0  0  0  0  0
  -30.4671  -18.3418   24.0450 C   0  0  0  0  0  0  0  0  0  0  0  0
  -32.6510  -17.4912   23.4583 C   0  0  0  0  0  0  0  0  0  0  0  0
  -33.1608  -25.5627   18.1863 C   0  0  0  0  0  0  0  0  0  0  0  0
  -29.8797  -17.4577   23.1400 C   0  0  0  0  0  0  0  0  0  0  0  0
  -32.0636  -16.6071   22.5534 C   0  0  0  0  0  0  0  0  0  0  0  0
  -22.3291   -8.7180   20.1914 C   0  0  0  0  0  0  0  0  0  0  0  0
  -23.0869   -8.7259   22.4854 C   0  0  0  0  0  0  0  0  0  0  0  0
  -33.7750  -24.8377   19.2067 C   0  0  0  0  0  0  0  0  0  0  0  0
  -19.3790   -7.9244   21.6406 C   0  0  0  0  0  0  0  0  0  0  0  0
  -18.0725   -7.8787   21.1543 C   0  0  0  0  0  0  0  0  0  0  0  0
  -32.0197  -25.4979   20.7240 C   0  0  0  0  0  0  0  0  0  0  0  0
  -18.6320   -5.9345   19.8337 C   0  0  0  0  0  0  0  0  0  0  0  0
  -23.8254  -10.4506   20.9633 C   0  0  0  0  0  0  0  0  0  0  0  0
  -24.1691  -12.9755   20.8420 C   0  0  0  0  0  0  0  0  0  0  0  0
  -31.8528  -18.3586   24.2041 C   0  0  0  0  0  0  0  0  0  0  0  0
  -32.4947  -33.0245   15.6022 C   0  0  0  0  0  0  0  0  0  0  0  0
  -31.9753  -26.2708   18.4304 C   0  0  0  0  0  0  0  0  0  0  0  0
  -32.9093  -31.9398   16.3984 C   0  0  0  0  0  0  0  0  0  0  0  0
  -31.3911  -26.2290   19.7044 C   0  0  0  0  0  0  0  0  0  0  0  0
  -30.6779  -16.5903   22.3943 C   0  0  0  0  0  0  0  0  0  0  0  0
  -22.3355   -8.1457   21.4634 C   0  0  0  0  0  0  0  0  0  0  0  0
  -33.2060  -24.8076   20.4765 C   0  0  0  0  0  0  0  0  0  0  0  0
  -20.3121   -6.9751   21.2235 C   0  0  0  0  0  0  0  0  0  0  0  0
  -17.6990   -6.8838   20.2509 C   0  0  0  0  0  0  0  0  0  0  0  0
  -19.9385   -5.9801   20.3201 C   0  0  0  0  0  0  0  0  0  0  0  0
  -24.5955  -11.6408   20.7055 C   0  0  0  0  0  0  0  0  0  0  0  0
  -25.2621  -13.7240   20.4792 C   0  0  0  0  0  0  0  0  0  0  0  0
  -22.8986  -13.4924   21.2595 C   0  0  0  0  0  0  0  0  0  0  0  0
  -31.1267  -29.3319   18.3150 C   0  0  0  0  0  0  0  0  0  0  0  0
  -28.1712  -28.1315   18.9039 C   0  0  0  0  0  0  0  0  0  0  0  0
  -26.2749  -25.5921   20.1697 C   0  0  0  0  0  0  0  0  0  0  0  0
  -30.7289  -14.7658   20.6579 C   0  0  0  0  0  0  0  0  0  0  0  0
  -31.2918  -33.8596   15.9634 C   0  0  0  0  0  0  0  0  0  0  0  0
  -31.3110  -27.0261   17.3122 C   0  0  0  0  0  0  0  0  0  0  0  0
  -30.1084  -26.9555   20.0129 C   0  0  0  0  0  0  0  0  0  0  0  0
  -30.3556  -33.1802   16.9596 C   0  0  0  0  0  0  0  0  0  0  0  0
  -29.6148  -12.3513   18.2902 C   0  0  0  0  0  0  0  0  0  0  0  0
  -34.1721  -19.8011   26.7879 C   0  0  0  0  0  0  0  0  0  0  0  0
  -31.1504  -32.5786   18.1142 C   0  0  0  0  0  0  0  0  0  0  0  0
  -33.3496  -18.6455   26.2528 C   0  0  0  0  0  0  0  0  0  0  0  0
  -28.1746  -12.0610   18.7187 C   0  0  0  0  0  0  0  0  0  0  0  0
  -30.5290  -12.5802   19.4925 C   0  0  0  0  0  0  0  0  0  0  0  0
  -28.6214  -13.3069   20.8716 C   0  0  0  0  0  0  0  0  0  0  0  0
  -34.5782  -20.5630   25.5410 C   0  0  0  0  0  0  0  0  0  0  0  0
  -32.1212  -31.5021   17.6139 C   0  0  1  0  0  0  0  0  0  0  0  0
  -32.4877  -19.3145   25.1824 C   0  0  1  0  0  0  0  0  0  0  0  0
  -30.3815  -28.1303   17.8065 C   0  0  1  0  0  0  0  0  0  0  0  0
  -27.6495  -13.1336   19.6931 C   0  0  2  0  0  0  0  0  0  0  0  0
  -23.8881  -24.9133   20.5433 C   0  0  0  0  0  0  0  0  0  0  0  0
  -27.9941  -30.0607   21.2611 C   0  0  0  0  0  0  0  0  0  0  0  0
  -26.0749  -28.7097   22.1328 C   0  0  0  0  0  0  0  0  0  0  0  0
  -25.8915  -29.8527   19.9231 C   0  0  0  0  0  0  0  0  0  0  0  0
  -26.5643  -23.2006   18.4503 C   0  0  0  0  0  0  0  0  0  0  0  0
  -33.5992  -22.2857   23.0283 C   0  0  0  0  0  0  0  0  0  0  0  0
  -32.7731  -21.5925   24.1014 C   0  0  0  0  0  0  0  0  0  0  0  0
  -32.9539  -23.5530   22.4810 C   0  0  0  0  0  0  0  0  0  1  0  0
  -27.3733  -27.8163   20.1461 C   0  0  1  0  0  0  0  0  0  0  0  0
  -25.0804  -24.8472   19.6016 C   0  0  2  0  0  0  0  0  0  0  0  0
  -26.8587  -29.0977   20.8608 C   0  0  0  0  0  0  0  0  0  0  0  0
  -25.8607  -11.5438   20.2883 N   0  0  0  0  0  0  0  0  0  0  0  0
  -26.2386  -12.8271   20.1595 N   0  0  0  0  0  0  0  0  0  0  0  0
  -29.5003  -27.6852   18.8880 N   0  0  0  0  0  0  0  0  0  0  0  0
  -29.9700  -13.6120   20.3687 N   0  0  0  0  0  0  0  0  0  0  0  0
  -25.4735  -15.0552   20.4055 N   0  0  0  0  0  0  0  0  0  0  0  0
  -21.8858  -12.5842   21.5964 N   0  0  0  0  0  0  0  0  0  0  0  0
  -30.0814  -15.6919   21.4751 N   0  0  0  0  0  0  0  0  0  0  0  0
  -31.4128  -30.2699   17.3415 N   0  0  0  0  0  0  0  0  0  0  0  0
  -26.3177  -26.8987   19.7313 N   0  0  0  0  0  0  0  0  0  0  0  0
  -33.4464  -20.3329   24.5541 N   0  3  1  0  0  0  0  0  0  0  0  0
  -25.4226  -23.4143   19.3765 N   0  3  0  0  0  0  0  0  0  0  0  0
  -22.6632  -14.7233   21.3158 O   0  0  0  0  0  0  0  0  0  0  0  0
  -31.4190  -29.4034   19.5029 O   0  0  0  0  0  0  0  0  0  0  0  0
  -27.6329  -28.7446   17.9787 O   0  0  0  0  0  0  0  0  0  0  0  0
  -27.0866  -25.0683   20.9295 O   0  0  0  0  0  0  0  0  0  0  0  0
  -31.8585  -14.9335   20.1911 O   0  0  0  0  0  0  0  0  0  0  0  0
  -21.6086   -7.0213   21.7078 O   0  0  0  0  0  0  0  0  0  0  0  0
  -33.8038  -24.1014   21.4743 O   0  0  0  0  0  0  0  0  0  1  0  0
  -16.4439   -6.8392   19.7851 F   0  0  0  0  0  0  0  0  0  0  0  0
  -20.8302   -5.0647   19.9166 F   0  0  0  0  0  0  0  0  0  0  0  0
  1  2  1  0  0  0  0
  1  5  2  0  0  0  0
  2  6  2  0  0  0  0
  3 12  2  0  0  0  0
  3 19  1  0  0  0  0
  4 13  1  0  0  0  0
  4 19  2  0  0  0  0
  5 22  1  0  0  0  0
  6 24  1  0  0  0  0
  7 10  2  0  0  0  0
  7 21  1  0  0  0  0
  8 11  1  0  0  0  0
  8 21  2  0  0  0  0
  9 14  2  0  0  0  0
  9 23  1  0  0  0  0
 10 26  1  0  0  0  0
 11 26  2  0  0  0  0
 12 27  1  0  0  0  0
 13 27  2  0  0  0  0
 14 28  1  0  0  0  0
 15 16  2  0  0  0  0
 15 29  1  0  0  0  0
 16 30  1  0  0  0  0
 17 25  1  0  0  0  0
 17 28  2  0  0  0  0
 18 30  2  0  0  0  0
 18 31  1  0  0  0  0
 19 32  1  0  0  0  0
 20 32  1  0  0  0  0
 20 33  2  0  0  0  0
 20 34  1  0  0  0  0
 21 52  1  0  0  0  0
 22 24  2  0  0  0  0
 22 39  1  0  0  0  0
 23 25  2  0  0  0  0
 23 40  1  0  0  0  0
 24 51  1  0  0  0  0
 25 41  1  0  0  0  0
 26 72  1  0  0  0  0
 27 82  1  0  0  0  0
 28 83  1  0  0  0  0
 29 31  2  0  0  0  0
 29 82  1  0  0  0  0
 30 84  1  0  0  0  0
 31 85  1  0  0  0  0
 32 66  2  0  0  0  0
 33 67  1  0  0  0  0
 33 70  1  0  0  0  0
 34 71  1  0  0  0  0
 34 77  2  0  0  0  0
 35 53  1  0  0  0  0
 35 73  1  0  0  0  0
 35 78  2  0  0  0  0
 36 63  1  0  0  0  0
 36 68  1  0  0  0  0
 36 79  2  0  0  0  0
 37 64  1  0  0  0  0
 37 74  1  0  0  0  0
 37 80  2  0  0  0  0
 38 69  1  0  0  0  0
 38 72  1  0  0  0  0
 38 81  2  0  0  0  0
 39 42  1  0  0  0  0
 40 53  1  0  0  0  0
 41 68  1  0  0  0  0
 42 45  1  0  0  0  0
 43 47  1  0  0  0  0
 43 48  1  0  0  0  0
 44 46  1  0  0  0  0
 44 50  1  0  0  0  0
 45 51  1  0  0  0  0
 46 52  1  0  0  0  0
 47 54  1  0  0  0  0
 48 69  1  0  0  0  0
 49 54  1  0  0  0  0
 49 69  1  0  0  0  0
 50 75  1  0  0  0  0
 51 73  1  0  0  0  0
 52 75  1  0  0  0  0
 53 68  1  0  0  0  0
 54 67  1  0  0  0  0
 55 64  1  0  0  0  0
 56 65  1  0  0  0  0
 57 65  1  0  0  0  0
 58 65  1  0  0  0  0
 59 76  1  0  0  0  0
 60 61  1  0  0  0  0
 60 62  1  0  0  0  0
 61 75  1  0  0  0  0
 62 83  1  0  0  0  0
 63 65  1  0  0  0  0
 63 74  1  0  0  0  0
 64 76  1  0  0  0  0
 66 67  1  0  0  0  0
M  CHG  2  75   1  76   1
M  ISO  4  38 100  62 101  72 100  83 101
M  END
> <Batch ID>
0014

> <Smiles>
CNC(C)C(=O)NC(C(=O)N1Cc2cc([101O:1][101CH2:1]CCN3CCCC3c3ccc([100NH:0][100C:0](=O)N4CCCC(n5nc(-c6ccc(Oc7ccc(F)cc7F)cc6)c(C(N)=O)c5N)C4)cc3)ccc2CC1C(=O)NC1CCCc2ccccc21)C(C)(C)C

> <Shape>
0.215

> <Color>
0.188

> <Negative vol penalty>
0.000

$$$$

  -OEChem-04042320513D

 87 95  0     1  0  0  0  0  0999 V2000
  -24.6465  -26.5041   28.9890 C   0  0  0  0  0  0  0  0  0  0  0  0
  -25.5914  -25.9762   28.1149 C   0  0  0  0  0  0  0  0  0  0  0  0
  -23.2465   -9.7616   20.6039 C   0  0  0  0  0  0  0  0  0  0  0  0
  -24.1779  -10.2097   22.7875 C   0  0  0  0  0  0  0  0  0  0  0  0
  -23.5749  -27.2442   28.4913 C   0  0  0  0  0  0  0  0  0  0  0  0
  -25.4645  -26.1873   26.7424 C   0  0  0  0  0  0  0  0  0  0  0  0
  -30.0013  -26.9484   22.6997 C   0  0  0  0  0  0  0  0  0  0  0  0
  -30.2594  -17.8150   17.7219 C   0  0  0  0  0  0  0  0  0  0  0  0
  -30.5556  -18.9726   17.0024 C   0  0  0  0  0  0  0  0  0  0  0  0
  -22.6139   -8.6248   21.1070 C   0  0  0  0  0  0  0  0  0  0  0  0
  -23.5453   -9.0729   23.2907 C   0  0  0  0  0  0  0  0  0  0  0  0
  -30.6214  -26.0725   21.8097 C   0  0  0  0  0  0  0  0  0  0  0  0
  -19.8553   -7.9087   22.9264 C   0  0  0  0  0  0  0  0  0  0  0  0
  -18.5222   -7.6989   22.5735 C   0  0  0  0  0  0  0  0  0  0  0  0
  -29.1659  -26.8429   20.0470 C   0  0  0  0  0  0  0  0  0  0  0  0
  -29.1525  -20.2572   18.4918 C   0  0  0  0  0  0  0  0  0  0  0  0
  -19.1246   -5.5958   21.5481 C   0  0  0  0  0  0  0  0  0  0  0  0
  -24.0286  -10.5540   21.4441 C   0  0  0  0  0  0  0  0  0  0  0  0
  -24.1671  -13.0372   20.8763 C   0  0  0  0  0  0  0  0  0  0  0  0
  -23.4401  -27.4727   27.1128 C   0  0  0  0  0  0  0  0  0  0  0  0
  -28.9499  -27.7717   22.2719 C   0  0  0  0  0  0  0  0  0  0  0  0
  -24.3893  -26.9301   26.2257 C   0  0  0  0  0  0  0  0  0  0  0  0
  -28.5359  -27.7303   20.9329 C   0  0  0  0  0  0  0  0  0  0  0  0
  -29.4098  -17.8784   18.8264 C   0  0  0  0  0  0  0  0  0  0  0  0
  -30.0022  -20.1938   17.3874 C   0  0  0  0  0  0  0  0  0  0  0  0
  -22.7633   -8.2805   22.4504 C   0  0  0  0  0  0  0  0  0  0  0  0
  -30.2018  -26.0176   20.4838 C   0  0  0  0  0  0  0  0  0  0  0  0
  -20.8231   -6.9620   22.5900 C   0  0  0  0  0  0  0  0  0  0  0  0
  -18.1569   -6.5425   21.8844 C   0  0  0  0  0  0  0  0  0  0  0  0
  -28.8563  -19.0996   19.2113 C   0  0  0  0  0  0  0  0  0  0  0  0
  -20.4577   -5.8056   21.9009 C   0  0  0  0  0  0  0  0  0  0  0  0
  -24.6827  -11.7281   20.9249 C   0  0  0  0  0  0  0  0  0  0  0  0
  -25.1679  -13.7792   20.2981 C   0  0  0  0  0  0  0  0  0  0  0  0
  -22.8971  -13.5377   21.3148 C   0  0  0  0  0  0  0  0  0  0  0  0
  -25.8820  -28.0764   23.0460 C   0  0  0  0  0  0  0  0  0  0  0  0
  -26.0292  -30.6172   21.0347 C   0  0  0  0  0  0  0  0  0  0  0  0
  -27.5724  -32.1406   18.3995 C   0  0  0  0  0  0  0  0  0  0  0  0
  -30.7343  -14.9331   20.2889 C   0  0  0  0  0  0  0  0  0  0  0  0
  -22.2390  -28.2389   26.6180 C   0  0  0  0  0  0  0  0  0  0  0  0
  -28.3093  -28.7303   23.2379 C   0  0  0  0  0  0  0  0  0  0  0  0
  -27.4251  -28.6079   20.4187 C   0  0  0  0  0  0  0  0  0  0  0  0
  -22.3819  -28.7339   25.1811 C   0  0  0  0  0  0  0  0  0  0  0  0
  -29.4204  -12.3602   17.9748 C   0  0  0  0  0  0  0  0  0  0  0  0
  -22.9080  -27.6193   24.2824 C   0  0  0  0  0  0  0  0  0  0  0  0
  -28.0581  -12.0301   18.5825 C   0  0  0  0  0  0  0  0  0  0  0  0
  -30.4134  -12.8334   19.0320 C   0  0  0  0  0  0  0  0  0  0  0  0
  -28.5628  -13.6487   20.4550 C   0  0  0  0  0  0  0  0  0  0  0  0
  -24.2996  -27.1584   24.7324 C   0  0  1  0  0  0  0  0  0  0  0  0
  -26.9050  -29.1530   22.8176 C   0  0  1  0  0  0  0  0  0  0  0  0
  -27.5252  -13.2131   19.4095 C   0  0  2  0  0  0  0  0  0  0  0  0
  -27.4433  -34.1906   16.9579 C   0  0  0  0  0  0  0  0  0  0  0  0
  -29.9806  -16.4428   22.8798 C   0  0  0  0  0  0  0  0  0  0  0  0
  -31.9597  -17.4091   21.6662 C   0  0  0  0  0  0  0  0  0  0  0  0
  -23.6496  -29.4187   19.5477 C   0  0  0  0  0  0  0  0  0  0  0  0
  -24.1675  -30.9445   17.6315 C   0  0  0  0  0  0  0  0  0  0  0  0
  -23.5482  -31.8989   19.8514 C   0  0  0  0  0  0  0  0  0  0  0  0
  -31.1929  -21.2889   15.5050 C   0  0  0  0  0  0  0  0  0  0  0  0
  -30.2708  -33.0327   19.2251 C   0  0  0  0  0  0  0  0  0  0  0  0
  -29.0951  -16.6387   19.5935 C   0  0  0  0  0  0  0  0  0  0  0  0
  -30.5340  -23.2783   18.1526 C   0  0  0  0  0  0  0  0  0  0  0  0
  -29.7352  -22.6347   17.0257 C   0  0  0  0  0  0  0  0  0  0  0  0
  -30.0069  -24.6533   18.5456 C   0  0  0  0  0  0  0  0  0  1  0  0
  -25.8165  -30.8225   19.5543 C   0  0  1  0  0  0  0  0  0  0  0  0
  -28.0555  -33.5661   18.2020 C   0  0  2  0  0  0  0  0  0  0  0  0
  -30.4727  -17.0875   21.5901 C   0  0  0  0  0  0  0  0  0  0  0  0
  -24.3151  -30.7531   19.1560 C   0  0  0  0  0  0  0  0  0  0  0  0
  -25.9152  -11.6403   20.4177 N   0  0  0  0  0  0  0  0  0  0  0  0
  -26.1824  -12.9035   20.0449 N   0  0  0  0  0  0  0  0  0  0  0  0
  -26.8260  -29.5240   21.4032 N   0  0  0  0  0  0  0  0  0  0  0  0
  -29.8649  -13.9293   19.8316 N   0  0  0  0  0  0  0  0  0  0  0  0
  -25.2702  -15.0887   19.9865 N   0  0  0  0  0  0  0  0  0  0  0  0
  -21.9863  -12.6392   21.8870 N   0  0  0  0  0  0  0  0  0  0  0  0
  -25.3084  -28.1030   24.3029 N   0  0  0  0  0  0  0  0  0  0  0  0
  -26.4656  -32.0855   19.2199 N   0  0  0  0  0  0  0  0  0  0  0  0
  -30.3006  -21.3573   16.6638 N   0  0  3  0  0  0  0  0  0  0  0  0
  -30.1986  -16.2204   20.4463 N   0  0  0  0  0  0  0  0  0  0  0  0
  -29.5389  -33.5955   18.0613 N   0  3  0  0  0  0  0  0  0  0  0  0
  -22.5731  -14.7429   21.1877 O   0  0  0  0  0  0  0  0  0  0  0  0
  -25.6306  -27.2815   22.1479 O   0  0  0  0  0  0  0  0  0  0  0  0
  -25.5134  -31.4021   21.8343 O   0  0  0  0  0  0  0  0  0  0  0  0
  -28.1197  -31.1731   17.8751 O   0  0  0  0  0  0  0  0  0  0  0  0
  -31.9241  -14.6946   20.5330 O   0  0  0  0  0  0  0  0  0  0  0  0
  -22.1460   -7.1714   22.9417 O   0  0  0  0  0  0  0  0  0  0  0  0
  -30.8048  -25.1631   19.6132 O   0  0  0  0  0  0  0  0  0  1  0  0
  -16.8764   -6.3404   21.5470 F   0  0  0  0  0  0  0  0  0  0  0  0
  -28.0379  -19.1702   20.2705 F   0  0  0  0  0  0  0  0  0  0  0  0
  -21.3827   -4.8921   21.5761 F   0  0  0  0  0  0  0  0  0  0  0  0
  1  2  1  0  0  0  0
  1  5  2  0  0  0  0
  2  6  2  0  0  0  0
  3 10  2  0  0  0  0
  3 18  1  0  0  0  0
  4 11  1  0  0  0  0
  4 18  2  0  0  0  0
  5 20  1  0  0  0  0
  6 22  1  0  0  0  0
  7 12  2  0  0  0  0
  7 21  1  0  0  0  0
  8  9  2  0  0  0  0
  8 24  1  0  0  0  0
  9 25  1  0  0  0  0
 10 26  1  0  0  0  0
 11 26  2  0  0  0  0
 12 27  1  0  0  0  0
 13 14  2  0  0  0  0
 13 28  1  0  0  0  0
 14 29  1  0  0  0  0
 15 23  1  0  0  0  0
 15 27  2  0  0  0  0
 16 25  2  0  0  0  0
 16 30  1  0  0  0  0
 17 29  2  0  0  0  0
 17 31  1  0  0  0  0
 18 32  1  0  0  0  0
 19 32  1  0  0  0  0
 19 33  2  0  0  0  0
 19 34  1  0  0  0  0
 20 22  2  0  0  0  0
 20 39  1  0  0  0  0
 21 23  2  0  0  0  0
 21 40  1  0  0  0  0
 22 48  1  0  0  0  0
 23 41  1  0  0  0  0
 24 30  2  0  0  0  0
 24 59  1  0  0  0  0
 25 75  1  0  0  0  0
 26 83  1  0  0  0  0
 27 84  1  0  0  0  0
 28 31  2  0  0  0  0
 28 83  1  0  0  0  0
 29 85  1  0  0  0  0
 30 86  1  0  0  0  0
 31 87  1  0  0  0  0
 32 67  2  0  0  0  0
 33 68  1  0  0  0  0
 33 71  1  0  0  0  0
 34 72  1  0  0  0  0
 34 78  2  0  0  0  0
 35 49  1  0  0  0  0
 35 73  1  0  0  0  0
 35 79  2  0  0  0  0
 36 63  1  0  0  0  0
 36 69  1  0  0  0  0
 36 80  2  0  0  0  0
 37 64  1  0  0  0  0
 37 74  1  0  0  0  0
 37 81  2  0  0  0  0
 38 70  1  0  0  0  0
 38 76  1  0  0  0  0
 38 82  2  0  0  0  0
 39 42  1  0  0  0  0
 40 49  1  0  0  0  0
 41 69  1  0  0  0  0
 42 44  1  0  0  0  0
 43 45  1  0  0  0  0
 43 46  1  0  0  0  0
 44 48  1  0  0  0  0
 45 50  1  0  0  0  0
 46 70  1  0  0  0  0
 47 50  1  0  0  0  0
 47 70  1  0  0  0  0
 48 73  1  0  0  0  0
 49 69  1  0  0  0  0
 50 68  1  0  0  0  0
 51 64  1  0  0  0  0
 52 65  1  0  0  0  0
 53 65  1  0  0  0  0
 54 66  1  0  0  0  0
 55 66  1  0  0  0  0
 56 66  1  0  0  0  0
 57 75  1  0  0  0  0
 58 77  1  0  0  0  0
 59 76  1  0  0  0  0
 60 61  1  0  0  0  0
 60 62  1  0  0  0  0
 61 75  1  0  0  0  0
 62 84  1  0  0  0  0
 63 66  1  0  0  0  0
 63 74  1  0  0  0  0
 64 77  1  0  0  0  0
 65 76  1  0  0  0  0
 67 68  1  0  0  0  0
M  CHG  1  77   1
M  ISO  4  38 100  62 101  76 100  84 101
M  END
> <Batch ID>
0014

> <Smiles>
CNC(C)C(=O)NC(C(=O)N1Cc2cc([101O:1][101CH2:1]CCN(C)c3ccc(C[100N:0](C(C)C)[100C:0](=O)N4CCCC(n5nc(-c6ccc(Oc7ccc(F)cc7F)cc6)c(C(N)=O)c5N)C4)c(F)c3)ccc2CC1C(=O)NC1CCCc2ccccc21)C(C)(C)C

> <Shape>
0.299

> <Color>
0.184

> <Negative vol penalty>
0.000

$$$$

  -OEChem-04042320513D

 84 93  0     1  0  0  0  0  0999 V2000
  -32.3835  -12.9353   21.2063 C   0  0  0  0  0  0  0  0  0  0  0  0
  -31.7789  -14.1289   21.5875 C   0  0  0  0  0  0  0  0  0  0  0  0
  -27.7108  -25.2566   20.2709 C   0  0  0  0  0  0  0  0  0  0  0  0
  -28.1080  -26.4816   18.2267 C   0  0  0  0  0  0  0  0  0  0  0  0
  -31.6896  -12.0279   20.4070 C   0  0  0  0  0  0  0  0  0  0  0  0
  -30.4802  -14.4161   21.1687 C   0  0  0  0  0  0  0  0  0  0  0  0
  -26.1875  -17.4550   24.3062 C   0  0  0  0  0  0  0  0  0  0  0  0
  -23.4909  -25.7267   24.3109 C   0  0  0  0  0  0  0  0  0  0  0  0
  -22.7084  -26.8544   24.0623 C   0  0  0  0  0  0  0  0  0  0  0  0
  -28.5987  -24.2666   19.8503 C   0  0  0  0  0  0  0  0  0  0  0  0
  -28.9960  -25.4916   17.8060 C   0  0  0  0  0  0  0  0  0  0  0  0
  -25.7567  -18.7802   24.2640 C   0  0  0  0  0  0  0  0  0  0  0  0
  -31.9475  -23.8222   19.7052 C   0  0  0  0  0  0  0  0  0  0  0  0
  -32.8760  -23.3480   20.6317 C   0  0  0  0  0  0  0  0  0  0  0  0
  -23.9637  -18.1437   22.7810 C   0  0  0  0  0  0  0  0  0  0  0  0
  -21.3517  -25.5744   22.5267 C   0  0  0  0  0  0  0  0  0  0  0  0
  -31.9670  -21.1212   20.4028 C   0  0  0  0  0  0  0  0  0  0  0  0
  -27.4654  -26.3641   19.4592 C   0  0  0  0  0  0  0  0  0  0  0  0
  -26.8517  -28.5393   20.6423 C   0  0  0  0  0  0  0  0  0  0  0  0
  -30.3783  -12.2998   19.9861 C   0  0  0  0  0  0  0  0  0  0  0  0
  -25.5151  -16.4643   23.5762 C   0  0  0  0  0  0  0  0  0  0  0  0
  -29.7686  -13.5121   20.3619 C   0  0  0  0  0  0  0  0  0  0  0  0
  -24.3865  -16.8062   22.8177 C   0  0  0  0  0  0  0  0  0  0  0  0
  -22.1342  -24.4467   22.7753 C   0  0  0  0  0  0  0  0  0  0  0  0
  -23.2038  -24.5229   23.6674 C   0  0  0  0  0  0  0  0  0  0  0  0
  -21.6389  -26.7782   23.1702 C   0  0  0  0  0  0  0  0  0  0  0  0
  -29.2414  -24.3841   18.6178 C   0  0  0  0  0  0  0  0  0  0  0  0
  -24.6463  -19.1253   23.4990 C   0  0  0  0  0  0  0  0  0  0  0  0
  -31.0287  -22.9460   19.1274 C   0  0  0  0  0  0  0  0  0  0  0  0
  -32.8858  -21.9975   20.9805 C   0  0  0  0  0  0  0  0  0  0  0  0
  -31.0385  -21.5955   19.4762 C   0  0  0  0  0  0  0  0  0  0  0  0
  -26.5478  -27.3869   19.8929 C   0  0  0  0  0  0  0  0  0  0  0  0
  -25.6459  -29.1800   20.7909 C   0  0  0  0  0  0  0  0  0  0  0  0
  -28.1112  -28.9903   21.1578 C   0  0  0  0  0  0  0  0  0  0  0  0
  -26.3090  -14.4905   21.2145 C   0  0  0  0  0  0  0  0  0  0  0  0
  -23.3456  -13.2844   21.7489 C   0  0  0  0  0  0  0  0  0  0  0  0
  -20.1879  -13.7807   22.9444 C   0  0  0  0  0  0  0  0  0  0  0  0
  -20.1980  -28.1386   21.6654 C   0  0  0  0  0  0  0  0  0  0  0  0
  -29.6854  -11.3097   19.0838 C   0  0  0  0  0  0  0  0  0  0  0  0
  -25.9765  -15.0348   23.6536 C   0  0  0  0  0  0  0  0  0  0  0  0
  -23.6176  -15.7767   22.0319 C   0  0  0  0  0  0  0  0  0  0  0  0
  -28.1763  -11.5209   18.9928 C   0  0  0  0  0  0  0  0  0  0  0  0
  -21.3173  -29.0734   18.4225 C   0  0  0  0  0  0  0  0  0  0  0  0
  -27.8559  -12.9961   18.7740 C   0  0  0  0  0  0  0  0  0  0  0  0
  -22.8223  -28.8358   18.5408 C   0  0  0  0  0  0  0  0  0  0  0  0
  -25.3129  -21.8443   25.0732 C   0  0  0  0  0  0  0  0  0  0  0  0
  -20.5089  -27.9931   19.1418 C   0  0  0  0  0  0  0  0  0  0  0  0
  -24.1510  -22.8222   25.2471 C   0  0  0  0  0  0  0  0  0  0  0  0
  -22.4009  -27.5584   20.6766 C   0  0  0  0  0  0  0  0  0  0  0  0
  -24.7518  -22.7004   22.9029 C   0  0  0  0  0  0  0  0  0  0  0  0
  -28.3523  -13.8484   19.9482 C   0  0  1  0  0  0  0  0  0  0  0  0
  -25.5251  -14.1959   22.4620 C   0  0  1  0  0  0  0  0  0  0  0  0
  -23.2399  -28.6608   20.0115 C   0  0  1  0  0  0  0  0  0  0  0  0
  -25.2138  -21.4285   23.6128 C   0  0  2  0  0  0  0  0  0  1  0  0
  -21.8055  -23.1704   22.0715 C   0  0  0  0  0  0  0  0  0  0  0  0
  -17.9771  -12.6232   23.2090 C   0  0  0  0  0  0  0  0  0  0  0  0
  -22.7833  -13.6843   18.7767 C   0  0  0  0  0  0  0  0  0  0  0  0
  -20.3432  -13.4276   19.2750 C   0  0  0  0  0  0  0  0  0  0  0  0
  -21.9115  -11.5403   19.7241 C   0  0  0  0  0  0  0  0  0  0  0  0
  -20.4684  -28.8096   24.0428 C   0  0  0  0  0  0  0  0  0  0  0  0
  -20.2821  -14.0238   25.8925 C   0  0  0  0  0  0  0  0  0  0  0  0
  -21.9614  -13.5766   21.2219 C   0  0  1  0  0  0  0  0  0  0  0  0
  -19.3140  -12.9423   23.8598 C   0  0  2  0  0  0  0  0  0  0  0  0
  -21.7653  -13.0772   19.7626 C   0  0  0  0  0  0  0  0  0  0  0  0
  -25.2507  -27.2979   19.5870 N   0  0  0  0  0  0  0  0  0  0  0  0
  -24.7288  -28.4025   20.1469 N   0  0  0  0  0  0  0  0  0  0  0  0
  -23.9882  -23.4181   23.9244 N   0  0  3  0  0  0  0  0  0  0  0  0
  -24.1116  -14.3936   22.1347 N   0  0  0  0  0  0  0  0  0  0  0  0
  -20.9697  -27.8339   20.5283 N   0  0  0  0  0  0  0  0  0  0  0  0
  -25.2912  -30.3268   21.4084 N   0  0  0  0  0  0  0  0  0  0  0  0
  -29.2506  -28.2116   20.9135 N   0  0  0  0  0  0  0  0  0  0  0  0
  -27.4531  -13.7281   21.0758 N   0  0  0  0  0  0  0  0  0  0  0  0
  -21.0283  -12.9973   22.1822 N   0  0  0  0  0  0  0  0  0  0  0  0
  -20.8285  -27.9456   22.9134 N   0  0  0  0  0  0  0  0  0  0  0  0
  -19.0545  -13.6677   25.1355 N   0  3  0  0  0  0  0  0  0  0  0  0
  -28.2203  -30.0440   21.8297 O   0  0  0  0  0  0  0  0  0  0  0  0
  -25.9051  -15.3453   20.4348 O   0  0  0  0  0  0  0  0  0  0  0  0
  -23.7303  -12.1147   21.8224 O   0  0  0  0  0  0  0  0  0  0  0  0
  -20.1281  -15.0077   22.9065 O   0  0  0  0  0  0  0  0  0  0  0  0
  -19.0441  -28.5745   21.5728 O   0  0  0  0  0  0  0  0  0  0  0  0
  -30.1081  -23.4183   18.2071 O   0  0  0  0  0  0  0  0  0  0  0  0
  -24.2240  -20.4182   23.4555 O   0  0  0  0  0  0  0  0  0  1  0  0
  -33.7785  -21.5418   21.8692 F   0  0  0  0  0  0  0  0  0  0  0  0
  -30.1591  -20.7487   18.9236 F   0  0  0  0  0  0  0  0  0  0  0  0
  1  2  1  0  0  0  0
  1  5  2  0  0  0  0
  2  6  2  0  0  0  0
  3 10  2  0  0  0  0
  3 18  1  0  0  0  0
  4 11  1  0  0  0  0
  4 18  2  0  0  0  0
  5 20  1  0  0  0  0
  6 22  1  0  0  0  0
  7 12  2  0  0  0  0
  7 21  1  0  0  0  0
  8  9  2  0  0  0  0
  8 25  1  0  0  0  0
  9 26  1  0  0  0  0
 10 27  1  0  0  0  0
 11 27  2  0  0  0  0
 12 28  1  0  0  0  0
 13 14  2  0  0  0  0
 13 29  1  0  0  0  0
 14 30  1  0  0  0  0
 15 23  1  0  0  0  0
 15 28  2  0  0  0  0
 16 24  1  0  0  0  0
 16 26  2  0  0  0  0
 17 30  2  0  0  0  0
 17 31  1  0  0  0  0
 18 32  1  0  0  0  0
 19 32  1  0  0  0  0
 19 33  2  0  0  0  0
 19 34  1  0  0  0  0
 20 22  2  0  0  0  0
 20 39  1  0  0  0  0
 21 23  2  0  0  0  0
 21 40  1  0  0  0  0
 22 51  1  0  0  0  0
 23 41  1  0  0  0  0
 24 25  2  0  0  0  0
 24 55  1  0  0  0  0
 25 67  1  0  0  0  0
 26 74  1  0  0  0  0
 27 81  1  0  0  0  0
 28 82  1  0  0  0  0
 29 31  2  0  0  0  0
 29 81  1  0  0  0  0
 30 83  1  0  0  0  0
 31 84  1  0  0  0  0
 32 65  2  0  0  0  0
 33 66  1  0  0  0  0
 33 70  1  0  0  0  0
 34 71  1  0  0  0  0
 34 76  2  0  0  0  0
 35 52  1  0  0  0  0
 35 72  1  0  0  0  0
 35 77  2  0  0  0  0
 36 62  1  0  0  0  0
 36 68  1  0  0  0  0
 36 78  2  0  0  0  0
 37 63  1  0  0  0  0
 37 73  1  0  0  0  0
 37 79  2  0  0  0  0
 38 69  1  0  0  0  0
 38 74  1  0  0  0  0
 38 80  2  0  0  0  0
 39 42  1  0  0  0  0
 40 52  1  0  0  0  0
 41 68  1  0  0  0  0
 42 44  1  0  0  0  0
 43 45  1  0  0  0  0
 43 47  1  0  0  0  0
 44 51  1  0  0  0  0
 45 53  1  0  0  0  0
 46 48  1  0  0  0  0
 46 54  1  0  0  0  0
 47 69  1  0  0  0  0
 48 67  1  0  0  0  0
 49 53  1  0  0  0  0
 49 69  1  0  0  0  0
 50 54  1  0  0  0  0
 50 67  1  0  0  0  0
 51 72  1  0  0  0  0
 52 68  1  0  0  0  0
 53 66  1  0  0  0  0
 54 82  1  0  0  0  0
 56 63  1  0  0  0  0
 57 64  1  0  0  0  0
 58 64  1  0  0  0  0
 59 64  1  0  0  0  0
 60 74  1  0  0  0  0
 61 75  1  0  0  0  0
 62 64  1  0  0  0  0
 62 73  1  0  0  0  0
 63 75  1  0  0  0  0
 65 66  1  0  0  0  0
M  CHG  1  75   1
M  ISO  4  38 100  54 101  74 100  82 101
M  END
> <Batch ID>
0014

> <Smiles>
CNC(C)C(=O)NC(C(=O)N1Cc2cc([101O:1][101CH:1]3CCN(c4ccc([100N:0](C)[100C:0](=O)N5CCCC(n6nc(-c7ccc(Oc8ccc(F)cc8F)cc7)c(C(N)=O)c6N)C5)cc4C)C3)ccc2CC1C(=O)NC1CCCc2ccccc21)C(C)(C)C

> <Shape>
0.223

> <Color>
0.062

> <Negative vol penalty>
0.000

$$$$

  -OEChem-04042320513D

 85 93  0     1  0  0  0  0  0999 V2000
  -19.3874  -24.1356   22.0210 C   0  0  0  0  0  0  0  0  0  0  0  0
  -20.5909  -24.4819   21.4152 C   0  0  0  0  0  0  0  0  0  0  0  0
  -26.9840  -10.3804   21.0154 C   0  0  0  0  0  0  0  0  0  0  0  0
  -25.6478  -12.2773   20.3420 C   0  0  0  0  0  0  0  0  0  0  0  0
  -18.5341  -25.1320   22.4934 C   0  0  0  0  0  0  0  0  0  0  0  0
  -20.9413  -25.8248   21.2804 C   0  0  0  0  0  0  0  0  0  0  0  0
  -25.7677  -26.7086   22.5334 C   0  0  0  0  0  0  0  0  0  0  0  0
  -32.1289  -19.3001   19.3658 C   0  0  0  0  0  0  0  0  0  0  0  0
  -25.8349   -9.7311   21.4666 C   0  0  0  0  0  0  0  0  0  0  0  0
  -24.4987  -11.6279   20.7931 C   0  0  0  0  0  0  0  0  0  0  0  0
  -26.7416  -26.3678   21.5958 C   0  0  0  0  0  0  0  0  0  0  0  0
  -23.2565   -8.0073   20.1200 C   0  0  0  0  0  0  0  0  0  0  0  0
  -32.6840  -20.2923   18.5577 C   0  0  0  0  0  0  0  0  0  0  0  0
  -23.0960   -6.6637   19.7816 C   0  0  0  0  0  0  0  0  0  0  0  0
  -26.8828  -28.6769   20.9122 C   0  0  0  0  0  0  0  0  0  0  0  0
  -29.9139  -20.1002   18.8267 C   0  0  0  0  0  0  0  0  0  0  0  0
  -23.0465   -6.0794   22.1254 C   0  0  0  0  0  0  0  0  0  0  0  0
  -26.8905  -11.6535   20.4532 C   0  0  0  0  0  0  0  0  0  0  0  0
  -28.6385  -12.2628   18.6979 C   0  0  0  0  0  0  0  0  0  0  0  0
  -18.8786  -26.4875   22.3730 C   0  0  0  0  0  0  0  0  0  0  0  0
  -25.3355  -28.0366   22.6602 C   0  0  0  0  0  0  0  0  0  0  0  0
  -20.0912  -26.8403   21.7503 C   0  0  0  0  0  0  0  0  0  0  0  0
  -25.9052  -29.0323   21.8540 C   0  0  0  0  0  0  0  0  0  0  0  0
  -30.7438  -19.2040   19.5002 C   0  0  0  0  0  0  0  0  0  0  0  0
  -30.4690  -21.0925   18.0186 C   0  0  0  0  0  0  0  0  0  0  0  0
  -24.5922  -10.3548   21.3554 C   0  0  0  0  0  0  0  0  0  0  0  0
  -27.2973  -27.3515   20.7830 C   0  0  0  0  0  0  0  0  0  0  0  0
  -23.3121   -8.3870   21.4611 C   0  0  0  0  0  0  0  0  0  0  0  0
  -22.9910   -5.6997   20.7843 C   0  0  0  0  0  0  0  0  0  0  0  0
  -31.8541  -21.1885   17.8842 C   0  0  0  0  0  0  0  0  0  0  0  0
  -23.2071   -7.4230   22.4637 C   0  0  0  0  0  0  0  0  0  0  0  0
  -28.0772  -12.3250   19.9874 C   0  0  0  0  0  0  0  0  0  0  0  0
  -29.7477  -13.0698   18.7669 C   0  0  0  0  0  0  0  0  0  0  0  0
  -28.1966  -11.5402   17.5410 C   0  0  0  0  0  0  0  0  0  0  0  0
  -22.5599  -29.5381   22.2796 C   0  0  0  0  0  0  0  0  0  0  0  0
  -24.2156  -32.0723   23.4453 C   0  0  0  0  0  0  0  0  0  0  0  0
  -27.2373  -33.5803   23.9371 C   0  0  0  0  0  0  0  0  0  0  0  0
  -30.9157  -17.6067   22.7155 C   0  0  0  0  0  0  0  0  0  0  0  0
  -17.9022  -27.5304   22.8562 C   0  0  0  0  0  0  0  0  0  0  0  0
  -24.3033  -28.3922   23.6949 C   0  0  0  0  0  0  0  0  0  0  0  0
  -25.4903  -30.4760   21.9647 C   0  0  0  0  0  0  0  0  0  0  0  0
  -18.5199  -28.9177   23.0113 C   0  0  0  0  0  0  0  0  0  0  0  0
  -33.0259  -14.6939   21.8412 C   0  0  0  0  0  0  0  0  0  0  0  0
  -19.3558  -29.2700   21.7850 C   0  0  0  0  0  0  0  0  0  0  0  0
  -32.0185  -13.7267   21.2218 C   0  0  0  0  0  0  0  0  0  0  0  0
  -32.3704  -15.6183   22.8627 C   0  0  0  0  0  0  0  0  0  0  0  0
  -30.1921  -15.4011   21.7129 C   0  0  0  0  0  0  0  0  0  0  0  0
  -20.5178  -28.2852   21.6079 C   0  0  1  0  0  0  0  0  0  0  0  0
  -23.5679  -29.6919   23.3831 C   0  0  1  0  0  0  0  0  0  0  0  0
  -30.8113  -14.4867   20.6453 C   0  0  2  0  0  0  0  0  0  0  0  0
  -28.2687  -35.6631   24.8834 C   0  0  0  0  0  0  0  0  0  0  0  0
  -23.3142  -33.6340   20.9839 C   0  0  0  0  0  0  0  0  0  0  0  0
  -25.0962  -35.3191   21.4865 C   0  0  0  0  0  0  0  0  0  0  0  0
  -23.2531  -34.9301   23.1218 C   0  0  0  0  0  0  0  0  0  0  0  0
  -29.9765  -19.8192   22.1655 C   0  0  0  0  0  0  0  0  0  0  0  0
  -28.7864  -32.0440   25.9370 C   0  0  0  0  0  0  0  0  0  0  0  0
  -30.1505  -18.1429   20.3640 C   0  0  0  0  0  0  0  0  0  0  0  0
  -29.5741  -22.0559   17.2962 C   0  0  0  0  0  0  0  0  0  0  0  0
  -28.7610  -25.7486   17.8995 C   0  0  0  0  0  0  0  0  0  0  0  0
  -28.7304  -24.4043   17.1880 C   0  0  0  0  0  0  0  0  0  0  0  0
  -28.1848  -25.7092   19.3095 C   0  0  0  0  0  0  0  0  0  1  0  0
  -25.0502  -33.1744   22.8389 C   0  0  1  0  0  0  0  0  0  0  0  0
  -27.8519  -34.2279   25.1649 C   0  0  2  0  0  0  0  0  0  0  0  0
  -24.1851  -34.2370   22.1041 C   0  0  0  0  0  0  0  0  0  0  0  0
  -28.7726  -13.1094   20.8152 N   0  0  0  0  0  0  0  0  0  0  0  0
  -29.7823  -13.5474   20.0440 N   0  0  0  0  0  0  0  0  0  0  0  0
  -24.4732  -30.7725   22.9870 N   0  0  0  0  0  0  0  0  0  0  0  0
  -31.2006  -16.2950   22.3017 N   0  0  0  0  0  0  0  0  0  0  0  0
  -30.6872  -13.4102   17.8593 N   0  0  0  0  0  0  0  0  0  0  0  0
  -27.0374  -10.7591   17.6436 N   0  0  0  0  0  0  0  0  0  0  0  0
  -21.5859  -28.5917   22.5351 N   0  0  0  0  0  0  0  0  0  0  0  0
  -25.8649  -33.7129   23.9227 N   0  0  0  0  0  0  0  0  0  0  0  0
  -30.2822  -18.4468   21.7872 N   0  0  0  0  0  0  0  0  0  0  0  0
  -29.0554  -33.4667   25.6044 N   0  3  0  0  0  0  0  0  0  0  0  0
  -29.5555  -23.4106   17.9141 N   0  3  0  0  0  0  0  0  0  0  0  0
  -28.8206  -11.5728   16.4534 O   0  0  0  0  0  0  0  0  0  0  0  0
  -22.6575  -30.2281   21.2716 O   0  0  0  0  0  0  0  0  0  0  0  0
  -23.3713  -32.3534   24.2996 O   0  0  0  0  0  0  0  0  0  0  0  0
  -27.9080  -33.0166   23.0751 O   0  0  0  0  0  0  0  0  0  0  0  0
  -31.2193  -18.0070   23.8466 O   0  0  0  0  0  0  0  0  0  0  0  0
  -23.4707   -9.7214   21.7954 O   0  0  0  0  0  0  0  0  0  0  0  0
  -28.2475  -27.0215   19.8665 O   0  0  0  0  0  0  0  0  0  1  0  0
  -22.8353   -4.4097   20.4592 F   0  0  0  0  0  0  0  0  0  0  0  0
  -32.3969  -22.1396   17.1112 F   0  0  0  0  0  0  0  0  0  0  0  0
  -23.2585   -7.7818   23.7538 F   0  0  0  0  0  0  0  0  0  0  0  0
  1  2  1  0  0  0  0
  1  5  2  0  0  0  0
  2  6  2  0  0  0  0
  3  9  2  0  0  0  0
  3 18  1  0  0  0  0
  4 10  1  0  0  0  0
  4 18  2  0  0  0  0
  5 20  1  0  0  0  0
  6 22  1  0  0  0  0
  7 11  2  0  0  0  0
  7 21  1  0  0  0  0
  8 13  2  0  0  0  0
  8 24  1  0  0  0  0
  9 26  1  0  0  0  0
 10 26  2  0  0  0  0
 11 27  1  0  0  0  0
 12 14  2  0  0  0  0
 12 28  1  0  0  0  0
 13 30  1  0  0  0  0
 14 29  1  0  0  0  0
 15 23  1  0  0  0  0
 15 27  2  0  0  0  0
 16 24  2  0  0  0  0
 16 25  1  0  0  0  0
 17 29  2  0  0  0  0
 17 31  1  0  0  0  0
 18 32  1  0  0  0  0
 19 32  1  0  0  0  0
 19 33  2  0  0  0  0
 19 34  1  0  0  0  0
 20 22  2  0  0  0  0
 20 39  1  0  0  0  0
 21 23  2  0  0  0  0
 21 40  1  0  0  0  0
 22 48  1  0  0  0  0
 23 41  1  0  0  0  0
 24 57  1  0  0  0  0
 25 30  2  0  0  0  0
 25 58  1  0  0  0  0
 26 81  1  0  0  0  0
 27 82  1  0  0  0  0
 28 31  2  0  0  0  0
 28 81  1  0  0  0  0
 29 83  1  0  0  0  0
 30 84  1  0  0  0  0
 31 85  1  0  0  0  0
 32 65  2  0  0  0  0
 33 66  1  0  0  0  0
 33 69  1  0  0  0  0
 34 70  1  0  0  0  0
 34 76  2  0  0  0  0
 35 49  1  0  0  0  0
 35 71  1  0  0  0  0
 35 77  2  0  0  0  0
 36 62  1  0  0  0  0
 36 67  1  0  0  0  0
 36 78  2  0  0  0  0
 37 63  1  0  0  0  0
 37 72  1  0  0  0  0
 37 79  2  0  0  0  0
 38 68  1  0  0  0  0
 38 73  1  0  0  0  0
 38 80  2  0  0  0  0
 39 42  1  0  0  0  0
 40 49  1  0  0  0  0
 41 67  1  0  0  0  0
 42 44  1  0  0  0  0
 43 45  1  0  0  0  0
 43 46  1  0  0  0  0
 44 48  1  0  0  0  0
 45 50  1  0  0  0  0
 46 68  1  0  0  0  0
 47 50  1  0  0  0  0
 47 68  1  0  0  0  0
 48 71  1  0  0  0  0
 49 67  1  0  0  0  0
 50 66  1  0  0  0  0
 51 63  1  0  0  0  0
 52 64  1  0  0  0  0
 53 64  1  0  0  0  0
 54 64  1  0  0  0  0
 55 73  1  0  0  0  0
 56 74  1  0  0  0  0
 57 73  1  0  0  0  0
 58 75  1  0  0  0  0
 59 60  1  0  0  0  0
 59 61  1  0  0  0  0
 60 75  1  0  0  0  0
 61 82  1  0  0  0  0
 62 64  1  0  0  0  0
 62 72  1  0  0  0  0
 63 74  1  0  0  0  0
 65 66  1  0  0  0  0
M  CHG  2  74   1  75   1
M  ISO  4  38 100  61 101  73 100  82 101
M  END
> <Batch ID>
0014

> <Smiles>
CNC(C)C(=O)NC(C(=O)N1Cc2cc([101O:1][101CH2:1]CCNCc3cc(C[100N:0](C)[100C:0](=O)N4CCCC(n5nc(-c6ccc(Oc7ccc(F)cc7F)cc6)c(C(N)=O)c5N)C4)ccc3F)ccc2CC1C(=O)NC1CCCc2ccccc21)C(C)(C)C

> <Shape>
0.336

> <Color>
0.098

> <Negative vol penalty>
0.000

$$$$

  -OEChem-04042320513D

 80 89  0     1  0  0  0  0  0999 V2000
  -29.3609  -34.1324   24.3101 C   0  0  0  0  0  0  0  0  0  0  0  0
  -29.9250  -33.1343   23.5220 C   0  0  0  0  0  0  0  0  0  0  0  0
  -23.1488  -10.3592   20.7158 C   0  0  0  0  0  0  0  0  0  0  0  0
  -24.5672   -9.0690   22.1857 C   0  0  0  0  0  0  0  0  0  0  0  0
  -28.1701  -33.8898   24.9935 C   0  0  0  0  0  0  0  0  0  0  0  0
  -29.2992  -31.8926   23.4178 C   0  0  0  0  0  0  0  0  0  0  0  0
  -28.2584  -26.5374   18.7751 C   0  0  0  0  0  0  0  0  0  0  0  0
  -29.6838  -20.2369   19.0360 C   0  0  0  0  0  0  0  0  0  0  0  0
  -29.6655  -18.8393   19.0065 C   0  0  0  0  0  0  0  0  0  0  0  0
  -22.2699   -9.2806   20.6172 C   0  0  0  0  0  0  0  0  0  0  0  0
  -23.6882   -7.9904   22.0872 C   0  0  0  0  0  0  0  0  0  0  0  0
  -28.3940  -25.1531   18.6796 C   0  0  0  0  0  0  0  0  0  0  0  0
  -20.7187   -7.0702   23.4123 C   0  0  0  0  0  0  0  0  0  0  0  0
  -20.3795   -6.4029   24.5893 C   0  0  0  0  0  0  0  0  0  0  0  0
  -27.6103  -20.3366   17.7755 C   0  0  0  0  0  0  0  0  0  0  0  0
  -26.2988  -24.8738   19.8420 C   0  0  0  0  0  0  0  0  0  0  0  0
  -21.2932   -4.3545   23.6912 C   0  0  0  0  0  0  0  0  0  0  0  0
  -24.2976  -10.2533   21.5000 C   0  0  0  0  0  0  0  0  0  0  0  0
  -25.1722  -12.4080   22.5487 C   0  0  0  0  0  0  0  0  0  0  0  0
  -27.5243  -32.6477   24.8899 C   0  0  0  0  0  0  0  0  0  0  0  0
  -27.1455  -27.1011   19.4155 C   0  0  0  0  0  0  0  0  0  0  0  0
  -28.0994  -31.6327   24.1016 C   0  0  0  0  0  0  0  0  0  0  0  0
  -27.5955  -18.9507   17.7577 C   0  0  0  0  0  0  0  0  0  0  0  0
  -26.1502  -26.2656   19.9421 C   0  0  0  0  0  0  0  0  0  0  0  0
  -28.6638  -20.9805   18.4250 C   0  0  0  0  0  0  0  0  0  0  0  0
  -28.6116  -18.2082   18.3620 C   0  0  0  0  0  0  0  0  0  0  0  0
  -22.5395   -8.0963   21.3029 C   0  0  0  0  0  0  0  0  0  0  0  0
  -27.4155  -24.3210   19.2156 C   0  0  0  0  0  0  0  0  0  0  0  0
  -21.3451   -6.3796   22.3747 C   0  0  0  0  0  0  0  0  0  0  0  0
  -20.6668   -5.0451   24.7288 C   0  0  0  0  0  0  0  0  0  0  0  0
  -21.6323   -5.0218   22.5142 C   0  0  0  0  0  0  0  0  0  0  0  0
  -25.2062  -11.3669   21.6018 C   0  0  0  0  0  0  0  0  0  0  0  0
  -26.2405  -13.2063   22.2199 C   0  0  0  0  0  0  0  0  0  0  0  0
  -24.2569  -12.6334   23.6291 C   0  0  0  0  0  0  0  0  0  0  0  0
  -26.7234  -28.9483   21.9676 C   0  0  0  0  0  0  0  0  0  0  0  0
  -23.6393  -28.9643   20.9623 C   0  0  0  0  0  0  0  0  0  0  0  0
  -21.1598  -27.4219   19.1961 C   0  0  0  0  0  0  0  0  0  0  0  0
  -29.3216  -15.8264   18.3947 C   0  0  0  0  0  0  0  0  0  0  0  0
  -26.2637  -32.4164   25.6850 C   0  0  0  0  0  0  0  0  0  0  0  0
  -27.0009  -28.5966   19.4866 C   0  0  0  0  0  0  0  0  0  0  0  0
  -26.6083  -18.0640   17.0699 C   0  0  0  0  0  0  0  0  0  0  0  0
  -24.9262  -26.8211   20.6216 C   0  0  0  0  0  0  0  0  0  0  0  0
  -25.4672  -31.1987   25.2233 C   0  0  0  0  0  0  0  0  0  0  0  0
  -30.0924  -12.4445   19.0599 C   0  0  0  0  0  0  0  0  0  0  0  0
  -26.3900  -30.0000   25.0278 C   0  0  0  0  0  0  0  0  0  0  0  0
  -28.8785  -11.9294   19.8284 C   0  0  0  0  0  0  0  0  0  0  0  0
  -27.0261  -16.6796   17.5821 C   0  0  0  0  0  0  0  0  0  0  0  0
  -29.6669  -13.4132   17.9648 C   0  0  0  0  0  0  0  0  0  0  0  0
  -27.6757  -14.1069   19.2741 C   0  0  0  0  0  0  0  0  0  0  0  0
  -27.4374  -30.2810   23.9437 C   0  0  1  0  0  0  0  0  0  0  0  0
  -26.0806  -29.0549   20.6137 C   0  0  1  0  0  0  0  0  0  0  0  0
  -28.0507  -13.1000   20.3810 C   0  0  1  0  0  0  0  0  0  0  0  0
  -18.7359  -27.6545   18.5895 C   0  0  0  0  0  0  0  0  0  0  0  0
  -22.8526  -28.0454   23.7635 C   0  0  0  0  0  0  0  0  0  0  0  0
  -20.6171  -27.3914   22.8455 C   0  0  0  0  0  0  0  0  0  0  0  0
  -21.3446  -29.7763   22.7715 C   0  0  0  0  0  0  0  0  0  0  0  0
  -21.7776  -27.5684   16.3055 C   0  0  0  0  0  0  0  0  0  0  0  0
  -28.7091  -22.4714   18.4666 C   0  0  0  0  0  0  0  0  0  1  0  0
  -22.4272  -28.1014   21.2176 C   0  0  1  0  0  0  0  0  0  0  0  0
  -20.1687  -27.9538   18.1767 C   0  0  2  0  0  0  0  0  0  0  0  0
  -21.8343  -28.3178   22.6385 C   0  0  0  0  0  0  0  0  0  0  0  0
  -26.2160  -11.4900   20.7362 N   0  0  0  0  0  0  0  0  0  0  0  0
  -26.8264  -12.6178   21.1379 N   0  0  0  0  0  0  0  0  0  0  0  0
  -28.3636  -16.8253   18.2082 N   0  0  0  0  0  0  0  0  0  0  0  0
  -24.8335  -28.2896   20.6717 N   0  0  0  0  0  0  0  0  0  0  0  0
  -28.8524  -14.5082   18.4936 N   0  0  0  0  0  0  0  0  0  0  0  0
  -26.7264  -14.3471   22.7536 N   0  0  0  0  0  0  0  0  0  0  0  0
  -23.2165  -11.7152   23.8258 N   0  0  0  0  0  0  0  0  0  0  0  0
  -26.8487  -30.1559   22.6276 N   0  0  0  0  0  0  0  0  0  0  0  0
  -21.4930  -28.3783   20.1317 N   0  0  0  0  0  0  0  0  0  0  0  0
  -20.4131  -27.3334   16.8440 N   0  3  0  0  0  0  0  0  0  0  0  0
  -24.3489  -13.6287   24.3870 O   0  0  0  0  0  0  0  0  0  0  0  0
  -27.0780  -27.8515   22.3834 O   0  0  0  0  0  0  0  0  0  0  0  0
  -23.5290  -30.1919   21.0118 O   0  0  0  0  0  0  0  0  0  0  0  0
  -21.5921  -26.2717   19.1676 O   0  0  0  0  0  0  0  0  0  0  0  0
  -30.5352  -16.0668   18.4037 O   0  0  0  0  0  0  0  0  0  0  0  0
  -21.6819   -7.0437   21.2071 O   0  0  0  0  0  0  0  0  0  0  0  0
  -27.5465  -22.9601   19.1237 O   0  0  0  0  0  0  0  0  0  1  0  0
  -20.3424   -4.4048   25.8597 F   0  0  0  0  0  0  0  0  0  0  0  0
  -22.2350   -4.3533   21.5214 F   0  0  0  0  0  0  0  0  0  0  0  0
  1  2  1  0  0  0  0
  1  5  2  0  0  0  0
  2  6  2  0  0  0  0
  3 10  2  0  0  0  0
  3 18  1  0  0  0  0
  4 11  1  0  0  0  0
  4 18  2  0  0  0  0
  5 20  1  0  0  0  0
  6 22  1  0  0  0  0
  7 12  2  0  0  0  0
  7 21  1  0  0  0  0
  8  9  2  0  0  0  0
  8 25  1  0  0  0  0
  9 26  1  0  0  0  0
 10 27  1  0  0  0  0
 11 27  2  0  0  0  0
 12 28  1  0  0  0  0
 13 14  2  0  0  0  0
 13 29  1  0  0  0  0
 14 30  1  0  0  0  0
 15 23  1  0  0  0  0
 15 25  2  0  0  0  0
 16 24  1  0  0  0  0
 16 28  2  0  0  0  0
 17 30  2  0  0  0  0
 17 31  1  0  0  0  0
 18 32  1  0  0  0  0
 19 32  1  0  0  0  0
 19 33  2  0  0  0  0
 19 34  1  0  0  0  0
 20 22  2  0  0  0  0
 20 39  1  0  0  0  0
 21 24  2  0  0  0  0
 21 40  1  0  0  0  0
 22 50  1  0  0  0  0
 23 26  2  0  0  0  0
 23 41  1  0  0  0  0
 24 42  1  0  0  0  0
 25 58  1  0  0  0  0
 26 64  1  0  0  0  0
 27 77  1  0  0  0  0
 28 78  1  0  0  0  0
 29 31  2  0  0  0  0
 29 77  1  0  0  0  0
 30 79  1  0  0  0  0
 31 80  1  0  0  0  0
 32 62  2  0  0  0  0
 33 63  1  0  0  0  0
 33 67  1  0  0  0  0
 34 68  1  0  0  0  0
 34 72  2  0  0  0  0
 35 51  1  0  0  0  0
 35 69  1  0  0  0  0
 35 73  2  0  0  0  0
 36 59  1  0  0  0  0
 36 65  1  0  0  0  0
 36 74  2  0  0  0  0
 37 60  1  0  0  0  0
 37 70  1  0  0  0  0
 37 75  2  0  0  0  0
 38 64  1  0  0  0  0
 38 66  1  0  0  0  0
 38 76  2  0  0  0  0
 39 43  1  0  0  0  0
 40 51  1  0  0  0  0
 41 47  1  0  0  0  0
 42 65  1  0  0  0  0
 43 45  1  0  0  0  0
 44 46  1  0  0  0  0
 44 48  1  0  0  0  0
 45 50  1  0  0  0  0
 46 52  1  0  0  0  0
 47 64  1  0  0  0  0
 48 66  1  0  0  0  0
 49 52  1  0  0  0  0
 49 66  1  0  0  0  0
 50 69  1  0  0  0  0
 51 65  1  0  0  0  0
 52 63  1  0  0  0  0
 53 60  1  0  0  0  0
 54 61  1  0  0  0  0
 55 61  1  0  0  0  0
 56 61  1  0  0  0  0
 57 71  1  0  0  0  0
 58 78  1  0  0  0  0
 59 61  1  0  0  0  0
 59 70  1  0  0  0  0
 60 71  1  0  0  0  0
 62 63  1  0  0  0  0
M  CHG  1  71   1
M  ISO  4  38 100  58 101  64 100  78 101
M  END
> <Batch ID>
0014

> <Smiles>
CNC(C)C(=O)NC(C(=O)N1Cc2cc([101O:1][101CH2:1]c3ccc4c(c3)CC[100N:0]4[100C:0](=O)N3CCCC(n4nc(-c5ccc(Oc6ccc(F)cc6F)cc5)c(C(N)=O)c4N)C3)ccc2CC1C(=O)NC1CCCc2ccccc21)C(C)(C)C

> <Shape>
0.307

> <Color>
0.100

> <Negative vol penalty>
0.000

$$$$

  -OEChem-04042320513D

 85 94  0     1  0  0  0  0  0999 V2000
  -30.1664  -35.1128   22.6423 C   0  0  0  0  0  0  0  0  0  0  0  0
  -30.4356  -33.7703   22.3960 C   0  0  0  0  0  0  0  0  0  0  0  0
  -22.5250  -10.3087   20.5768 C   0  0  0  0  0  0  0  0  0  0  0  0
  -24.4490   -9.2108   21.5410 C   0  0  0  0  0  0  0  0  0  0  0  0
  -28.8769  -35.5112   22.9923 C   0  0  0  0  0  0  0  0  0  0  0  0
  -29.4156  -32.8252   22.5007 C   0  0  0  0  0  0  0  0  0  0  0  0
  -28.7073  -27.7810   19.1007 C   0  0  0  0  0  0  0  0  0  0  0  0
  -29.3231  -18.5131   22.0986 C   0  0  0  0  0  0  0  0  0  0  0  0
  -29.4678  -19.8708   21.8140 C   0  0  0  0  0  0  0  0  0  0  0  0
  -21.8080   -9.1143   20.6474 C   0  0  0  0  0  0  0  0  0  0  0  0
  -23.7320   -8.0164   21.6117 C   0  0  0  0  0  0  0  0  0  0  0  0
  -29.0303  -26.4439   19.3277 C   0  0  0  0  0  0  0  0  0  0  0  0
  -22.2924   -4.7674   22.3796 C   0  0  0  0  0  0  0  0  0  0  0  0
  -22.3765   -4.0284   23.5596 C   0  0  0  0  0  0  0  0  0  0  0  0
  -26.7755  -26.0332   20.0804 C   0  0  0  0  0  0  0  0  0  0  0  0
  -29.8798  -19.3403   19.4932 C   0  0  0  0  0  0  0  0  0  0  0  0
  -21.4671   -5.8958   24.7938 C   0  0  0  0  0  0  0  0  0  0  0  0
  -23.8455  -10.3569   21.0235 C   0  0  0  0  0  0  0  0  0  0  0  0
  -24.2679  -12.8120   21.5726 C   0  0  0  0  0  0  0  0  0  0  0  0
  -27.8385  -34.5719   23.0920 C   0  0  0  0  0  0  0  0  0  0  0  0
  -27.4168  -28.2576   19.3727 C   0  0  0  0  0  0  0  0  0  0  0  0
  -28.1114  -33.2113   22.8537 C   0  0  0  0  0  0  0  0  0  0  0  0
  -26.4380  -27.3762   19.8536 C   0  0  0  0  0  0  0  0  0  0  0  0
  -29.4568  -17.5689   21.0806 C   0  0  0  0  0  0  0  0  0  0  0  0
  -29.7461  -20.2845   20.5112 C   0  0  0  0  0  0  0  0  0  0  0  0
  -22.4115   -7.9682   21.1649 C   0  0  0  0  0  0  0  0  0  0  0  0
  -28.0652  -25.5704   19.8203 C   0  0  0  0  0  0  0  0  0  0  0  0
  -21.7957   -6.0706   22.4067 C   0  0  0  0  0  0  0  0  0  0  0  0
  -21.9638   -4.5926   24.7667 C   0  0  0  0  0  0  0  0  0  0  0  0
  -29.7351  -17.9825   19.7779 C   0  0  0  0  0  0  0  0  0  0  0  0
  -21.3830   -6.6347   23.6137 C   0  0  0  0  0  0  0  0  0  0  0  0
  -24.5869  -11.5903   20.9503 C   0  0  0  0  0  0  0  0  0  0  0  0
  -25.2769  -13.6637   21.1944 C   0  0  0  0  0  0  0  0  0  0  0  0
  -23.1588  -13.1471   22.4172 C   0  0  0  0  0  0  0  0  0  0  0  0
  -26.1984  -30.4349   21.3420 C   0  0  0  0  0  0  0  0  0  0  0  0
  -23.4479  -29.7594   19.7606 C   0  0  0  0  0  0  0  0  0  0  0  0
  -21.6469  -27.5368   17.8996 C   0  0  0  0  0  0  0  0  0  0  0  0
  -30.8968  -14.3069   20.6280 C   0  0  0  0  0  0  0  0  0  0  0  0
  -26.4713  -35.0438   23.5196 C   0  0  0  0  0  0  0  0  0  0  0  0
  -27.0769  -29.6967   19.0972 C   0  0  0  0  0  0  0  0  0  0  0  0
  -25.0323  -27.8334   20.1425 C   0  0  0  0  0  0  0  0  0  0  0  0
  -25.3633  -34.0307   23.2432 C   0  0  0  0  0  0  0  0  0  0  0  0
  -28.9098  -13.1569   17.7244 C   0  0  0  0  0  0  0  0  0  0  0  0
  -25.7872  -32.6383   23.6996 C   0  0  0  0  0  0  0  0  0  0  0  0
  -27.6115  -12.6833   18.3758 C   0  0  0  0  0  0  0  0  0  0  0  0
  -30.5309  -23.6227   19.1548 C   0  0  0  0  0  0  0  0  0  0  0  0
  -30.0987  -13.0306   18.6721 C   0  0  0  0  0  0  0  0  0  0  0  0
  -30.1797  -22.1568   18.9014 C   0  0  0  0  0  0  0  0  0  0  0  0
  -28.6041  -13.2407   20.6307 C   0  0  0  0  0  0  0  0  0  0  0  0
  -29.7606  -22.6906   21.2274 C   0  0  0  0  0  0  0  0  0  0  0  0
  -27.0260  -32.1597   22.9329 C   0  0  1  0  0  0  0  0  0  0  0  0
  -25.8740  -30.1899   19.8955 C   0  0  1  0  0  0  0  0  0  0  0  0
  -27.3786  -13.3983   19.7181 C   0  0  2  0  0  0  0  0  0  0  0  0
  -29.7250  -23.9730   20.3972 C   0  0  2  0  0  0  0  0  0  1  0  0
  -19.4162  -27.2521   16.7859 C   0  0  0  0  0  0  0  0  0  0  0  0
  -22.1608  -29.2381   22.4775 C   0  0  0  0  0  0  0  0  0  0  0  0
  -20.2922  -28.0691   21.2900 C   0  0  0  0  0  0  0  0  0  0  0  0
  -20.7183  -30.4895   20.8627 C   0  0  0  0  0  0  0  0  0  0  0  0
  -31.6530  -16.1068   22.1341 C   0  0  0  0  0  0  0  0  0  0  0  0
  -22.8864  -27.2650   15.2259 C   0  0  0  0  0  0  0  0  0  0  0  0
  -29.3015  -16.1178   21.3884 C   0  0  0  0  0  0  0  0  0  0  0  0
  -22.3252  -28.7671   19.9443 C   0  0  1  0  0  0  0  0  0  0  0  0
  -20.8574  -27.7062   16.6141 C   0  0  2  0  0  0  0  0  0  0  0  0
  -21.4011  -29.1325   21.1401 C   0  0  0  0  0  0  0  0  0  0  0  0
  -25.7105  -11.6558   20.2311 N   0  0  0  0  0  0  0  0  0  0  0  0
  -26.1064  -12.9290   20.3991 N   0  0  0  0  0  0  0  0  0  0  0  0
  -29.8887  -21.6271   20.2303 N   0  0  3  0  0  0  0  0  0  0  0  0
  -24.7506  -29.2512   19.8629 N   0  0  0  0  0  0  0  0  0  0  0  0
  -29.8340  -13.6815   19.9556 N   0  0  0  0  0  0  0  0  0  0  0  0
  -25.5266  -14.9619   21.4676 N   0  0  0  0  0  0  0  0  0  0  0  0
  -23.2950  -12.9695   23.8008 N   0  0  0  0  0  0  0  0  0  0  0  0
  -26.6578  -31.7109   21.6073 N   0  0  0  0  0  0  0  0  0  0  0  0
  -21.6372  -28.6868   18.6603 N   0  0  0  0  0  0  0  0  0  0  0  0
  -30.5835  -15.4176   21.4261 N   0  0  0  0  0  0  0  0  0  0  0  0
  -21.4745  -26.9070   15.5181 N   0  3  0  0  0  0  0  0  0  0  0  0
  -22.0733  -13.5754   21.9572 O   0  0  0  0  0  0  0  0  0  0  0  0
  -26.0420  -29.5336   22.1574 O   0  0  0  0  0  0  0  0  0  0  0  0
  -23.1790  -30.9405   19.5276 O   0  0  0  0  0  0  0  0  0  0  0  0
  -22.2124  -26.4879   18.2007 O   0  0  0  0  0  0  0  0  0  0  0  0
  -32.0607  -13.9017   20.5136 O   0  0  0  0  0  0  0  0  0  0  0  0
  -21.7120   -6.8026   21.2342 O   0  0  0  0  0  0  0  0  0  0  0  0
  -28.3780  -24.2649   20.0433 O   0  0  0  0  0  0  0  0  0  1  0  0
  -22.0432   -3.8823   25.8996 F   0  0  0  0  0  0  0  0  0  0  0  0
  -29.8665  -17.0826   18.7933 F   0  0  0  0  0  0  0  0  0  0  0  0
  -20.9038   -7.8858   23.6458 F   0  0  0  0  0  0  0  0  0  0  0  0
  1  2  1  0  0  0  0
  1  5  2  0  0  0  0
  2  6  2  0  0  0  0
  3 10  2  0  0  0  0
  3 18  1  0  0  0  0
  4 11  1  0  0  0  0
  4 18  2  0  0  0  0
  5 20  1  0  0  0  0
  6 22  1  0  0  0  0
  7 12  2  0  0  0  0
  7 21  1  0  0  0  0
  8  9  2  0  0  0  0
  8 24  1  0  0  0  0
  9 25  1  0  0  0  0
 10 26  1  0  0  0  0
 11 26  2  0  0  0  0
 12 27  1  0  0  0  0
 13 14  2  0  0  0  0
 13 28  1  0  0  0  0
 14 29  1  0  0  0  0
 15 23  1  0  0  0  0
 15 27  2  0  0  0  0
 16 25  2  0  0  0  0
 16 30  1  0  0  0  0
 17 29  2  0  0  0  0
 17 31  1  0  0  0  0
 18 32  1  0  0  0  0
 19 32  1  0  0  0  0
 19 33  2  0  0  0  0
 19 34  1  0  0  0  0
 20 22  2  0  0  0  0
 20 39  1  0  0  0  0
 21 23  2  0  0  0  0
 21 40  1  0  0  0  0
 22 51  1  0  0  0  0
 23 41  1  0  0  0  0
 24 30  2  0  0  0  0
 24 61  1  0  0  0  0
 25 67  1  0  0  0  0
 26 81  1  0  0  0  0
 27 82  1  0  0  0  0
 28 31  2  0  0  0  0
 28 81  1  0  0  0  0
 29 83  1  0  0  0  0
 30 84  1  0  0  0  0
 31 85  1  0  0  0  0
 32 65  2  0  0  0  0
 33 66  1  0  0  0  0
 33 70  1  0  0  0  0
 34 71  1  0  0  0  0
 34 76  2  0  0  0  0
 35 52  1  0  0  0  0
 35 72  1  0  0  0  0
 35 77  2  0  0  0  0
 36 62  1  0  0  0  0
 36 68  1  0  0  0  0
 36 78  2  0  0  0  0
 37 63  1  0  0  0  0
 37 73  1  0  0  0  0
 37 79  2  0  0  0  0
 38 69  1  0  0  0  0
 38 74  1  0  0  0  0
 38 80  2  0  0  0  0
 39 42  1  0  0  0  0
 40 52  1  0  0  0  0
 41 68  1  0  0  0  0
 42 44  1  0  0  0  0
 43 45  1  0  0  0  0
 43 47  1  0  0  0  0
 44 51  1  0  0  0  0
 45 53  1  0  0  0  0
 46 48  1  0  0  0  0
 46 54  1  0  0  0  0
 47 69  1  0  0  0  0
 48 67  1  0  0  0  0
 49 53  1  0  0  0  0
 49 69  1  0  0  0  0
 50 54  1  0  0  0  0
 50 67  1  0  0  0  0
 51 72  1  0  0  0  0
 52 68  1  0  0  0  0
 53 66  1  0  0  0  0
 54 82  1  0  0  0  0
 55 63  1  0  0  0  0
 56 64  1  0  0  0  0
 57 64  1  0  0  0  0
 58 64  1  0  0  0  0
 59 74  1  0  0  0  0
 60 75  1  0  0  0  0
 61 74  1  0  0  0  0
 62 64  1  0  0  0  0
 62 73  1  0  0  0  0
 63 75  1  0  0  0  0
 65 66  1  0  0  0  0
M  CHG  1  75   1
M  ISO  4  38 100  54 101  74 100  82 101
M  END
> <Batch ID>
0014

> <Smiles>
CNC(C)C(=O)NC(C(=O)N1Cc2cc([101O:1][101CH:1]3CCN(c4ccc(C[100N:0](C)[100C:0](=O)N5CCCC(n6nc(-c7ccc(Oc8ccc(F)cc8F)cc7)c(C(N)=O)c6N)C5)c(F)c4)C3)ccc2CC1C(=O)NC1CCCc2ccccc21)C(C)(C)C

> <Shape>
0.402

> <Color>
0.150

> <Negative vol penalty>
0.000

$$$$

  -OEChem-04042320513D

 88 97  0     1  0  0  0  0  0999 V2000
  -28.2387  -24.3133   17.6727 C   0  0  0  0  0  0  0  0  0  0  0  0
  -27.0257  -24.6008   18.2903 C   0  0  0  0  0  0  0  0  0  0  0  0
  -27.6901  -12.0283   18.7506 C   0  0  0  0  0  0  0  0  0  0  0  0
  -28.4271  -13.5900   20.4403 C   0  0  0  0  0  0  0  0  0  0  0  0
  -29.4233  -24.8382   18.1875 C   0  0  0  0  0  0  0  0  0  0  0  0
  -26.9967  -25.4126   19.4237 C   0  0  0  0  0  0  0  0  0  0  0  0
  -23.3084  -28.8776   19.2378 C   0  0  0  0  0  0  0  0  0  0  0  0
  -21.5215  -20.2677   20.4285 C   0  0  0  0  0  0  0  0  0  0  0  0
  -20.5848  -21.0009   21.1569 C   0  0  0  0  0  0  0  0  0  0  0  0
  -28.9772  -11.4951   18.6820 C   0  0  0  0  0  0  0  0  0  0  0  0
  -29.7142  -13.0568   20.3717 C   0  0  0  0  0  0  0  0  0  0  0  0
  -22.0139  -28.4456   19.5231 C   0  0  0  0  0  0  0  0  0  0  0  0
  -32.1559   -9.9628   17.8038 C   0  0  0  0  0  0  0  0  0  0  0  0
  -32.6947   -9.7254   16.5393 C   0  0  0  0  0  0  0  0  0  0  0  0
  -22.2203  -29.3238   21.7604 C   0  0  0  0  0  0  0  0  0  0  0  0
  -23.2098  -20.7867   22.0769 C   0  0  0  0  0  0  0  0  0  0  0  0
  -32.4803  -12.0724   16.0074 C   0  0  0  0  0  0  0  0  0  0  0  0
  -27.4150  -13.0758   19.6297 C   0  0  0  0  0  0  0  0  0  0  0  0
  -25.0368  -13.2119   20.5424 C   0  0  0  0  0  0  0  0  0  0  0  0
  -29.4079  -25.6648   19.3221 C   0  0  0  0  0  0  0  0  0  0  0  0
  -24.0738  -29.5274   20.2168 C   0  0  0  0  0  0  0  0  0  0  0  0
  -28.1824  -25.9480   19.9548 C   0  0  0  0  0  0  0  0  0  0  0  0
  -23.5233  -29.7654   21.4842 C   0  0  0  0  0  0  0  0  0  0  0  0
  -22.8340  -20.1605   20.8885 C   0  0  0  0  0  0  0  0  0  0  0  0
  -20.9606  -21.6271   22.3453 C   0  0  0  0  0  0  0  0  0  0  0  0
  -29.9892  -12.0093   19.4926 C   0  0  0  0  0  0  0  0  0  0  0  0
  -21.4707  -28.6660   20.7855 C   0  0  0  0  0  0  0  0  0  0  0  0
  -31.7792  -11.2549   18.1701 C   0  0  0  0  0  0  0  0  0  0  0  0
  -32.8569  -10.7802   15.6411 C   0  0  0  0  0  0  0  0  0  0  0  0
  -22.2731  -21.5199   22.8054 C   0  0  0  0  0  0  0  0  0  0  0  0
  -31.9414  -12.3097   17.2719 C   0  0  0  0  0  0  0  0  0  0  0  0
  -26.0858  -13.6274   19.7006 C   0  0  0  0  0  0  0  0  0  0  0  0
  -23.9926  -14.0468   20.2274 C   0  0  0  0  0  0  0  0  0  0  0  0
  -18.5411  -24.2604   22.0666 C   0  0  0  0  0  0  0  0  0  0  0  0
  -25.0087  -12.1650   21.5216 C   0  0  0  0  0  0  0  0  0  0  0  0
  -26.8160  -28.9051   21.6988 C   0  0  0  0  0  0  0  0  0  0  0  0
  -26.3668  -31.8677   22.9413 C   0  0  0  0  0  0  0  0  0  0  0  0
  -24.1920  -34.3679   23.7575 C   0  0  0  0  0  0  0  0  0  0  0  0
  -24.2002  -19.5845   17.6143 C   0  0  0  0  0  0  0  0  0  0  0  0
  -30.7190  -26.1704   19.8697 C   0  0  0  0  0  0  0  0  0  0  0  0
  -25.4588  -30.0111   19.8848 C   0  0  0  0  0  0  0  0  0  0  0  0
  -24.2963  -30.4764   22.5638 C   0  0  0  0  0  0  0  0  0  0  0  0
  -30.5626  -27.3271   20.8535 C   0  0  0  0  0  0  0  0  0  0  0  0
  -22.2022  -16.6290   16.6272 C   0  0  0  0  0  0  0  0  0  0  0  0
  -29.4632  -27.0219   21.8659 C   0  0  0  0  0  0  0  0  0  0  0  0
  -22.9351  -15.4837   17.3238 C   0  0  0  0  0  0  0  0  0  0  0  0
  -23.1408  -17.7857   16.2976 C   0  0  0  0  0  0  0  0  0  0  0  0
  -20.5493  -24.8263   22.3174 C   0  0  0  0  0  0  0  0  0  0  0  0
  -24.6305  -17.1552   18.1678 C   0  0  0  0  0  0  0  0  0  0  0  0
  -28.1075  -26.8448   21.1715 C   0  0  1  0  0  0  0  0  0  0  0  0
  -19.3145  -25.5553   21.7218 C   0  0  2  0  0  0  0  0  0  0  0  0
  -26.3356  -30.2050   21.1181 C   0  0  1  0  0  0  0  0  0  0  0  0
  -23.7039  -15.9930   18.5554 C   0  0  2  0  0  0  0  0  0  0  0  0
  -24.1157  -36.6522   24.7936 C   0  0  0  0  0  0  0  0  0  0  0  0
  -26.6986  -30.6218   25.7067 C   0  0  0  0  0  0  0  0  0  0  0  0
  -25.6895  -32.6938   26.6847 C   0  0  0  0  0  0  0  0  0  0  0  0
  -27.8324  -32.8318   25.4153 C   0  0  0  0  0  0  0  0  0  0  0  0
  -24.6030  -21.4996   19.1142 C   0  0  0  0  0  0  0  0  0  0  0  0
  -23.1195  -35.5824   21.2809 C   0  0  0  0  0  0  0  0  0  0  0  0
  -19.9506  -22.4166   23.1267 C   0  0  0  0  0  0  0  0  0  0  0  0
  -23.8355  -19.3769   20.1096 C   0  0  0  0  0  0  0  0  0  0  0  0
  -18.8478  -26.8133   22.4474 C   0  0  0  0  0  0  0  0  0  0  0  0
  -19.9296  -27.8834   22.4190 C   0  0  0  0  0  0  0  0  0  1  0  0
  -25.6746  -32.4207   24.1636 C   0  0  1  0  0  0  0  0  0  0  0  0
  -24.2333  -35.8632   23.4988 C   0  0  2  0  0  0  0  0  0  0  0  0
  -26.4597  -32.1269   25.4731 C   0  0  0  0  0  0  0  0  0  0  0  0
  -25.7396  -14.6469   18.9101 N   0  0  0  0  0  0  0  0  0  0  0  0
  -24.4613  -14.8789   19.2538 N   0  0  0  0  0  0  0  0  0  0  0  0
  -19.6756  -23.6828   22.5204 N   0  0  0  0  0  0  0  0  0  0  0  0
  -25.6486  -30.9246   22.1925 N   0  0  0  0  0  0  0  0  0  0  0  0
  -23.8905  -18.2215   17.4763 N   0  0  0  0  0  0  0  0  0  0  0  0
  -22.7284  -14.1428   20.6911 N   0  0  0  0  0  0  0  0  0  0  0  0
  -26.1686  -11.4033   21.7187 N   0  0  0  0  0  0  0  0  0  0  0  0
  -27.5486  -28.1322   20.8183 N   0  0  0  0  0  0  0  0  0  0  0  0
  -25.4574  -33.8396   23.9027 N   0  0  0  0  0  0  0  0  0  0  0  0
  -24.2954  -20.0898   18.9198 N   0  0  0  0  0  0  0  0  0  0  0  0
  -23.1139  -36.2646   22.6006 N   0  3  0  0  0  0  0  0  0  0  0  0
  -17.3957  -23.8798   21.9894 O   0  0  0  0  0  0  0  0  0  0  0  0
  -23.9804  -11.9018   22.1901 O   0  0  0  0  0  0  0  0  0  0  0  0
  -26.5436  -28.6249   22.8603 O   0  0  0  0  0  0  0  0  0  0  0  0
  -27.5001  -32.2634   22.6572 O   0  0  0  0  0  0  0  0  0  0  0  0
  -23.1422  -33.7327   23.8276 O   0  0  0  0  0  0  0  0  0  0  0  0
  -24.3719  -20.3107   16.6268 O   0  0  0  0  0  0  0  0  0  0  0  0
  -31.2452  -11.4891   19.4261 O   0  0  0  0  0  0  0  0  0  0  0  0
  -20.2077  -28.2447   21.0668 O   0  0  0  0  0  0  0  0  0  1  0  0
  -33.3757  -10.5524   14.4274 F   0  0  0  0  0  0  0  0  0  0  0  0
  -22.6436  -22.1190   23.9457 F   0  0  0  0  0  0  0  0  0  0  0  0
  -31.5825  -13.5535   17.6186 F   0  0  0  0  0  0  0  0  0  0  0  0
  1  2  1  0  0  0  0
  1  5  2  0  0  0  0
  2  6  2  0  0  0  0
  3 10  2  0  0  0  0
  3 18  1  0  0  0  0
  4 11  1  0  0  0  0
  4 18  2  0  0  0  0
  5 20  1  0  0  0  0
  6 22  1  0  0  0  0
  7 12  2  0  0  0  0
  7 21  1  0  0  0  0
  8  9  2  0  0  0  0
  8 24  1  0  0  0  0
  9 25  1  0  0  0  0
 10 26  1  0  0  0  0
 11 26  2  0  0  0  0
 12 27  1  0  0  0  0
 13 14  2  0  0  0  0
 13 28  1  0  0  0  0
 14 29  1  0  0  0  0
 15 23  1  0  0  0  0
 15 27  2  0  0  0  0
 16 24  2  0  0  0  0
 16 30  1  0  0  0  0
 17 29  2  0  0  0  0
 17 31  1  0  0  0  0
 18 32  1  0  0  0  0
 19 32  1  0  0  0  0
 19 33  2  0  0  0  0
 19 35  1  0  0  0  0
 20 22  2  0  0  0  0
 20 40  1  0  0  0  0
 21 23  2  0  0  0  0
 21 41  1  0  0  0  0
 22 50  1  0  0  0  0
 23 42  1  0  0  0  0
 24 61  1  0  0  0  0
 25 30  2  0  0  0  0
 25 60  1  0  0  0  0
 26 84  1  0  0  0  0
 27 85  1  0  0  0  0
 28 31  2  0  0  0  0
 28 84  1  0  0  0  0
 29 86  1  0  0  0  0
 30 87  1  0  0  0  0
 31 88  1  0  0  0  0
 32 67  2  0  0  0  0
 33 68  1  0  0  0  0
 33 72  1  0  0  0  0
 34 51  1  0  0  0  0
 34 69  1  0  0  0  0
 34 78  2  0  0  0  0
 35 73  1  0  0  0  0
 35 79  2  0  0  0  0
 36 52  1  0  0  0  0
 36 74  1  0  0  0  0
 36 80  2  0  0  0  0
 37 64  1  0  0  0  0
 37 70  1  0  0  0  0
 37 81  2  0  0  0  0
 38 65  1  0  0  0  0
 38 75  1  0  0  0  0
 38 82  2  0  0  0  0
 39 71  1  0  0  0  0
 39 76  1  0  0  0  0
 39 83  2  0  0  0  0
 40 43  1  0  0  0  0
 41 52  1  0  0  0  0
 42 70  1  0  0  0  0
 43 45  1  0  0  0  0
 44 46  1  0  0  0  0
 44 47  1  0  0  0  0
 45 50  1  0  0  0  0
 46 53  1  0  0  0  0
 47 71  1  0  0  0  0
 48 51  1  0  0  0  0
 48 69  1  0  0  0  0
 49 53  1  0  0  0  0
 49 71  1  0  0  0  0
 50 74  1  0  0  0  0
 51 62  1  0  0  0  0
 52 70  1  0  0  0  0
 53 68  1  0  0  0  0
 54 65  1  0  0  0  0
 55 66  1  0  0  0  0
 56 66  1  0  0  0  0
 57 66  1  0  0  0  0
 58 76  1  0  0  0  0
 59 77  1  0  0  0  0
 60 69  1  0  0  0  0
 61 76  1  0  0  0  0
 62 63  1  0  0  0  0
 63 85  1  0  0  0  0
 64 66  1  0  0  0  0
 64 75  1  0  0  0  0
 65 77  1  0  0  0  0
 67 68  1  0  0  0  0
M  CHG  1  77   1
M  ISO  4  39 100  63 101  76 100  85 101
M  END
> <Batch ID>
0014

> <Smiles>
CNC(C)C(=O)NC(C(=O)N1Cc2cc([101O:1][101CH2:1]CC3CN(Cc4ccc(C[100N:0](C)[100C:0](=O)N5CCCC(n6nc(-c7ccc(Oc8ccc(F)cc8F)cc7)c(C(N)=O)c6N)C5)cc4F)C3=O)ccc2CC1C(=O)NC1CCCc2ccccc21)C(C)(C)C

> <Shape>
0.293

> <Color>
0.082

> <Negative vol penalty>
0.000

$$$$

  -OEChem-04042320513D

 86 94  0     1  0  0  0  0  0999 V2000
  -29.3835  -24.9388   17.3959 C   0  0  0  0  0  0  0  0  0  0  0  0
  -28.0148  -25.1836   17.4429 C   0  0  0  0  0  0  0  0  0  0  0  0
  -25.7850  -14.3959   19.3729 C   0  0  0  0  0  0  0  0  0  0  0  0
  -23.9421  -14.3555   20.9347 C   0  0  0  0  0  0  0  0  0  0  0  0
  -30.1851  -25.2552   18.4919 C   0  0  0  0  0  0  0  0  0  0  0  0
  -27.4468  -25.7440   18.5865 C   0  0  0  0  0  0  0  0  0  0  0  0
  -22.7326  -29.6463   18.8216 C   0  0  0  0  0  0  0  0  0  0  0  0
  -20.7477  -22.2630   23.8098 C   0  0  0  0  0  0  0  0  0  0  0  0
  -19.7172  -23.0418   23.2833 C   0  0  0  0  0  0  0  0  0  0  0  0
  -26.0852  -13.0719   19.6928 C   0  0  0  0  0  0  0  0  0  0  0  0
  -24.2422  -13.0314   21.2545 C   0  0  0  0  0  0  0  0  0  0  0  0
  -21.3741  -29.4619   19.0749 C   0  0  0  0  0  0  0  0  0  0  0  0
  -24.3006   -9.5261   22.2176 C   0  0  0  0  0  0  0  0  0  0  0  0
  -23.2420   -8.6213   22.2966 C   0  0  0  0  0  0  0  0  0  0  0  0
  -21.7332  -30.0405   21.3891 C   0  0  0  0  0  0  0  0  0  0  0  0
  -22.0297  -24.2614   24.2569 C   0  0  0  0  0  0  0  0  0  0  0  0
  -22.6908   -9.0643   19.9864 C   0  0  0  0  0  0  0  0  0  0  0  0
  -24.7135  -15.0378   19.9939 C   0  0  0  0  0  0  0  0  0  0  0  0
  -23.5362  -16.8609   18.6530 C   0  0  0  0  0  0  0  0  0  0  0  0
  -29.6282  -25.8287   19.6458 C   0  0  0  0  0  0  0  0  0  0  0  0
  -23.6050  -30.0192   19.8543 C   0  0  0  0  0  0  0  0  0  0  0  0
  -28.2416  -26.0672   19.6994 C   0  0  0  0  0  0  0  0  0  0  0  0
  -23.1019  -30.2314   21.1458 C   0  0  0  0  0  0  0  0  0  0  0  0
  -21.9039  -22.8728   24.2967 C   0  0  0  0  0  0  0  0  0  0  0  0
  -19.8430  -24.4304   23.2436 C   0  0  0  0  0  0  0  0  0  0  0  0
  -25.3138  -12.3896   20.6336 C   0  0  0  0  0  0  0  0  0  0  0  0
  -20.8747  -29.6562   20.3594 C   0  0  0  0  0  0  0  0  0  0  0  0
  -24.5543  -10.2001   21.0229 C   0  0  0  0  0  0  0  0  0  0  0  0
  -22.4371   -8.3904   21.1811 C   0  0  0  0  0  0  0  0  0  0  0  0
  -20.9992  -25.0403   23.7304 C   0  0  0  0  0  0  0  0  0  0  0  0
  -23.7495   -9.9691   19.9074 C   0  0  0  0  0  0  0  0  0  0  0  0
  -24.4033  -16.4057   19.6643 C   0  0  0  0  0  0  0  0  0  0  0  0
  -23.5860  -18.2301   18.7486 C   0  0  0  0  0  0  0  0  0  0  0  0
  -22.7553  -16.1128   17.7115 C   0  0  0  0  0  0  0  0  0  0  0  0
  -26.1453  -28.6957   21.2323 C   0  0  0  0  0  0  0  0  0  0  0  0
  -26.3013  -31.5411   22.7820 C   0  0  0  0  0  0  0  0  0  0  0  0
  -24.6780  -34.3355   23.8790 C   0  0  0  0  0  0  0  0  0  0  0  0
  -24.8916  -21.9587   23.2479 C   0  0  0  0  0  0  0  0  0  0  0  0
  -30.5276  -26.1100   20.8233 C   0  0  0  0  0  0  0  0  0  0  0  0
  -25.0632  -30.2401   19.5590 C   0  0  0  0  0  0  0  0  0  0  0  0
  -23.9931  -30.6519   22.2848 C   0  0  0  0  0  0  0  0  0  0  0  0
  -29.9052  -27.0473   21.8550 C   0  0  0  0  0  0  0  0  0  0  0  0
  -26.4974  -21.7876   20.0748 C   0  0  0  0  0  0  0  0  0  0  0  0
  -28.4731  -26.6239   22.1657 C   0  0  0  0  0  0  0  0  0  0  0  0
  -26.0645  -20.4300   19.5185 C   0  0  0  0  0  0  0  0  0  0  0  0
  -26.7144  -21.7353   21.5855 C   0  0  0  0  0  0  0  0  0  0  0  0
  -25.1403  -19.8513   21.8010 C   0  0  0  0  0  0  0  0  0  0  0  0
  -27.5921  -26.6968   20.9127 C   0  0  1  0  0  0  0  0  0  0  0  0
  -25.9482  -30.1199   20.7958 C   0  0  1  0  0  0  0  0  0  0  0  0
  -24.8550  -19.8679   20.2895 C   0  0  2  0  0  0  0  0  0  0  0  0
  -18.7364  -24.2907   19.8635 C   0  0  0  0  0  0  0  0  0  0  0  0
  -25.0618  -36.4658   25.1485 C   0  0  0  0  0  0  0  0  0  0  0  0
  -26.3412  -29.9719   25.3984 C   0  0  0  0  0  0  0  0  0  0  0  0
  -25.7690  -32.0933   26.5986 C   0  0  0  0  0  0  0  0  0  0  0  0
  -27.9078  -31.9200   25.3264 C   0  0  0  0  0  0  0  0  0  0  0  0
  -23.9038  -35.9962   21.5549 C   0  0  0  0  0  0  0  0  0  0  0  0
  -23.0058  -22.0402   24.8593 C   0  0  0  0  0  0  0  0  0  0  0  0
  -18.7335  -25.2655   22.6756 C   0  0  0  0  0  0  0  0  0  0  0  0
  -17.9211  -28.2004   21.8240 C   0  0  0  0  0  0  0  0  0  0  0  0
  -19.7863  -25.2278   20.4193 C   0  0  0  0  0  0  0  0  0  0  0  0
  -18.0766  -26.9535   20.9665 C   0  0  0  0  0  0  0  0  0  0  0  0
  -19.1887  -29.0406   21.9197 C   0  0  0  0  0  0  0  0  0  1  0  0
  -25.7247  -32.0938   24.0630 C   0  0  1  0  0  0  0  0  0  0  0  0
  -25.0283  -35.8091   23.7773 C   0  0  2  0  0  0  0  0  0  0  0  0
  -26.4189  -31.5099   25.3258 C   0  0  0  0  0  0  0  0  0  0  0  0
  -24.9632  -17.4048   20.3516 N   0  0  0  0  0  0  0  0  0  0  0  0
  -24.4467  -18.5013   19.7712 N   0  0  0  0  0  0  0  0  0  0  0  0
  -25.4125  -30.8491   21.9471 N   0  0  0  0  0  0  0  0  0  0  0  0
  -25.5302  -21.1947   22.2573 N   0  0  0  0  0  0  0  0  0  0  0  0
  -22.9771  -19.2165   18.0567 N   0  0  0  0  0  0  0  0  0  0  0  0
  -22.8209  -14.7133   17.7516 N   0  0  0  0  0  0  0  0  0  0  0  0
  -27.2214  -28.0679   20.6346 N   0  0  0  0  0  0  0  0  0  0  0  0
  -25.8063  -33.5464   23.9541 N   0  0  0  0  0  0  0  0  0  0  0  0
  -23.7729  -21.3750   23.8298 N   0  0  0  0  0  0  0  0  0  0  0  0
  -24.0247  -36.5233   22.9385 N   0  3  0  0  0  0  0  0  0  0  0  0
  -19.1642  -26.0933   21.4887 N   0  3  1  0  0  0  0  0  0  0  0  0
  -22.0339  -16.6691   16.8493 O   0  0  0  0  0  0  0  0  0  0  0  0
  -25.3788  -28.2034   22.0519 O   0  0  0  0  0  0  0  0  0  0  0  0
  -27.4946  -31.7231   22.5279 O   0  0  0  0  0  0  0  0  0  0  0  0
  -23.5194  -33.9257   23.8944 O   0  0  0  0  0  0  0  0  0  0  0  0
  -25.2857  -23.0804   23.5848 O   0  0  0  0  0  0  0  0  0  0  0  0
  -25.6062  -11.0975   20.9458 O   0  0  0  0  0  0  0  0  0  0  0  0
  -19.5492  -29.4762   20.6095 O   0  0  0  0  0  0  0  0  0  1  0  0
  -21.4215   -7.5203   21.2567 F   0  0  0  0  0  0  0  0  0  0  0  0
  -21.1294  -26.3739   23.6954 F   0  0  0  0  0  0  0  0  0  0  0  0
  -23.9890  -10.6128   18.7566 F   0  0  0  0  0  0  0  0  0  0  0  0
  1  2  1  0  0  0  0
  1  5  2  0  0  0  0
  2  6  2  0  0  0  0
  3 10  2  0  0  0  0
  3 18  1  0  0  0  0
  4 11  1  0  0  0  0
  4 18  2  0  0  0  0
  5 20  1  0  0  0  0
  6 22  1  0  0  0  0
  7 12  2  0  0  0  0
  7 21  1  0  0  0  0
  8  9  2  0  0  0  0
  8 24  1  0  0  0  0
  9 25  1  0  0  0  0
 10 26  1  0  0  0  0
 11 26  2  0  0  0  0
 12 27  1  0  0  0  0
 13 14  2  0  0  0  0
 13 28  1  0  0  0  0
 14 29  1  0  0  0  0
 15 23  1  0  0  0  0
 15 27  2  0  0  0  0
 16 24  2  0  0  0  0
 16 30  1  0  0  0  0
 17 29  2  0  0  0  0
 17 31  1  0  0  0  0
 18 32  1  0  0  0  0
 19 32  1  0  0  0  0
 19 33  2  0  0  0  0
 19 34  1  0  0  0  0
 20 22  2  0  0  0  0
 20 39  1  0  0  0  0
 21 23  2  0  0  0  0
 21 40  1  0  0  0  0
 22 48  1  0  0  0  0
 23 41  1  0  0  0  0
 24 57  1  0  0  0  0
 25 30  2  0  0  0  0
 25 58  1  0  0  0  0
 26 82  1  0  0  0  0
 27 83  1  0  0  0  0
 28 31  2  0  0  0  0
 28 82  1  0  0  0  0
 29 84  1  0  0  0  0
 30 85  1  0  0  0  0
 31 86  1  0  0  0  0
 32 66  2  0  0  0  0
 33 67  1  0  0  0  0
 33 70  1  0  0  0  0
 34 71  1  0  0  0  0
 34 77  2  0  0  0  0
 35 49  1  0  0  0  0
 35 72  1  0  0  0  0
 35 78  2  0  0  0  0
 36 63  1  0  0  0  0
 36 68  1  0  0  0  0
 36 79  2  0  0  0  0
 37 64  1  0  0  0  0
 37 73  1  0  0  0  0
 37 80  2  0  0  0  0
 38 69  1  0  0  0  0
 38 74  1  0  0  0  0
 38 81  2  0  0  0  0
 39 42  1  0  0  0  0
 40 49  1  0  0  0  0
 41 68  1  0  0  0  0
 42 44  1  0  0  0  0
 43 45  1  0  0  0  0
 43 46  1  0  0  0  0
 44 48  1  0  0  0  0
 45 50  1  0  0  0  0
 46 69  1  0  0  0  0
 47 50  1  0  0  0  0
 47 69  1  0  0  0  0
 48 72  1  0  0  0  0
 49 68  1  0  0  0  0
 50 67  1  0  0  0  0
 51 60  1  0  0  0  0
 52 64  1  0  0  0  0
 53 65  1  0  0  0  0
 54 65  1  0  0  0  0
 55 65  1  0  0  0  0
 56 75  1  0  0  0  0
 57 74  1  0  0  0  0
 58 76  1  0  0  0  0
 59 61  1  0  0  0  0
 59 62  1  0  0  0  0
 60 76  1  0  0  0  0
 61 76  1  0  0  0  0
 62 83  1  0  0  0  0
 63 65  1  0  0  0  0
 63 73  1  0  0  0  0
 64 75  1  0  0  0  0
 66 67  1  0  0  0  0
M  CHG  2  75   1  76   1
M  ISO  4  38 100  62 101  74 100  83 101
M  END
> <Batch ID>
0014

> <Smiles>
CCN(CC[101CH2:1][101O:1]c1ccc2c(c1)CN(C(=O)C(NC(=O)C(C)NC)C(C)(C)C)C(C(=O)NC1CCCc3ccccc31)C2)Cc1ccc(C[100NH:0][100C:0](=O)N2CCCC(n3nc(-c4ccc(Oc5ccc(F)cc5F)cc4)c(C(N)=O)c3N)C2)cc1F

> <Shape>
0.301

> <Color>
0.085

> <Negative vol penalty>
0.000

$$$$

  -OEChem-04042320513D

 77 84  0     1  0  0  0  0  0999 V2000
  -29.1058  -35.9944   21.4792 C   0  0  0  0  0  0  0  0  0  0  0  0
  -29.6213  -34.7083   21.3544 C   0  0  0  0  0  0  0  0  0  0  0  0
  -26.2522  -13.8977   21.4434 C   0  0  0  0  0  0  0  0  0  0  0  0
  -26.5011  -12.3694   19.5888 C   0  0  0  0  0  0  0  0  0  0  0  0
  -27.8398  -36.1862   22.0311 C   0  0  0  0  0  0  0  0  0  0  0  0
  -28.8716  -33.6132   21.7824 C   0  0  0  0  0  0  0  0  0  0  0  0
  -28.7331  -28.0343   19.2601 C   0  0  0  0  0  0  0  0  0  0  0  0
  -24.9898  -13.3681   21.7104 C   0  0  0  0  0  0  0  0  0  0  0  0
  -25.2387  -11.8398   19.8559 C   0  0  0  0  0  0  0  0  0  0  0  0
  -29.3805  -26.8425   19.5832 C   0  0  0  0  0  0  0  0  0  0  0  0
  -23.8648   -9.6632   22.0457 C   0  0  0  0  0  0  0  0  0  0  0  0
  -23.7304   -8.2749   22.0341 C   0  0  0  0  0  0  0  0  0  0  0  0
  -27.4381  -26.1308   20.8241 C   0  0  0  0  0  0  0  0  0  0  0  0
  -22.0987   -8.4477   20.2607 C   0  0  0  0  0  0  0  0  0  0  0  0
  -27.0079  -13.3984   20.3825 C   0  0  0  0  0  0  0  0  0  0  0  0
  -29.5445  -13.5110   20.6290 C   0  0  0  0  0  0  0  0  0  0  0  0
  -27.0702  -35.0922   22.4572 C   0  0  0  0  0  0  0  0  0  0  0  0
  -27.4353  -28.2884   19.7265 C   0  0  0  0  0  0  0  0  0  0  0  0
  -27.5947  -33.7907   22.3417 C   0  0  0  0  0  0  0  0  0  0  0  0
  -26.7755  -27.3255   20.5035 C   0  0  0  0  0  0  0  0  0  0  0  0
  -24.4830  -12.3391   20.9167 C   0  0  0  0  0  0  0  0  0  0  0  0
  -28.7341  -25.8918   20.3677 C   0  0  0  0  0  0  0  0  0  0  0  0
  -23.1161  -10.4438   21.1649 C   0  0  0  0  0  0  0  0  0  0  0  0
  -22.8474   -7.6672   21.1416 C   0  0  0  0  0  0  0  0  0  0  0  0
  -22.2331   -9.8361   20.2724 C   0  0  0  0  0  0  0  0  0  0  0  0
  -28.3119  -13.9454   20.1058 C   0  0  0  0  0  0  0  0  0  0  0  0
  -30.4729  -14.3493   20.0616 C   0  0  0  0  0  0  0  0  0  0  0  0
  -29.8252  -12.4450   21.5457 C   0  0  0  0  0  0  0  0  0  0  0  0
  -26.1189  -30.4826   21.6123 C   0  0  0  0  0  0  0  0  0  0  0  0
  -23.3587  -29.0304   20.7209 C   0  0  0  0  0  0  0  0  0  0  0  0
  -21.8068  -26.2215   19.5598 C   0  0  0  0  0  0  0  0  0  0  0  0
  -29.7729  -19.9400   17.7836 C   0  0  0  0  0  0  0  0  0  0  0  0
  -25.7267  -35.3527   23.0909 C   0  0  0  0  0  0  0  0  0  0  0  0
  -26.7406  -29.5674   19.3470 C   0  0  0  0  0  0  0  0  0  0  0  0
  -25.3744  -27.5412   21.0122 C   0  0  0  0  0  0  0  0  0  0  0  0
  -24.8421  -34.1115   23.1754 C   0  0  0  0  0  0  0  0  0  0  0  0
  -31.2483  -16.9995   16.1553 C   0  0  0  0  0  0  0  0  0  0  0  0
  -25.6380  -32.9240   23.7077 C   0  0  0  0  0  0  0  0  0  0  0  0
  -30.7248  -15.8423   17.0063 C   0  0  0  0  0  0  0  0  0  0  0  0
  -30.2675  -18.1689   16.1192 C   0  0  0  0  0  0  0  0  0  0  0  0
  -29.3313  -17.4989   18.3051 C   0  0  0  0  0  0  0  0  0  0  0  0
  -26.8016  -32.5756   22.7717 C   0  0  1  0  0  0  0  0  0  0  0  0
  -25.6137  -29.9421   20.3045 C   0  0  1  0  0  0  0  0  0  0  0  0
  -30.3189  -16.3276   18.4099 C   0  0  1  0  0  0  0  0  0  0  0  0
  -19.5385  -25.3261   18.9678 C   0  0  0  0  0  0  0  0  0  0  0  0
  -22.7072  -28.7270   23.6863 C   0  0  0  0  0  0  0  0  0  0  0  0
  -20.9711  -27.0352   23.0603 C   0  0  0  0  0  0  0  0  0  0  0  0
  -20.7662  -29.3869   22.2539 C   0  0  0  0  0  0  0  0  0  0  0  0
  -29.7278  -19.4954   20.3387 C   0  0  0  0  0  0  0  0  0  0  0  0
  -22.5970  -25.7562   16.7459 C   0  0  0  0  0  0  0  0  0  0  0  0
  -30.3122  -24.2245   19.7466 C   0  0  0  0  0  0  0  0  0  1  0  0
  -30.3954  -22.7159   19.8624 C   0  0  0  0  0  0  0  0  0  0  0  0
  -22.5345  -27.8828   21.2524 C   0  0  1  0  0  0  0  0  0  0  0  0
  -20.7904  -26.0176   18.4508 C   0  0  2  0  0  0  0  0  0  0  0  0
  -21.7719  -28.2544   22.5554 C   0  0  0  0  0  0  0  0  0  0  0  0
  -28.4419  -14.9795   19.2705 N   0  0  0  0  0  0  0  0  0  0  0  0
  -29.7673  -15.2019   19.2645 N   0  0  0  0  0  0  0  0  0  0  0  0
  -24.7397  -28.8102   20.6194 N   0  0  0  0  0  0  0  0  0  0  0  0
  -29.8783  -18.5739   17.4704 N   0  0  0  0  0  0  0  0  0  0  0  0
  -31.8157  -14.4330   20.1719 N   0  0  0  0  0  0  0  0  0  0  0  0
  -28.7545  -11.6822   22.0316 N   0  0  0  0  0  0  0  0  0  0  0  0
  -26.3206  -31.8497   21.6158 N   0  0  0  0  0  0  0  0  0  0  0  0
  -21.6716  -27.4576   20.1556 N   0  0  0  0  0  0  0  0  0  0  0  0
  -29.4036  -20.3277   19.1386 N   0  0  0  0  0  0  0  0  0  0  0  0
  -21.3724  -25.1833   17.3617 N   0  3  0  0  0  0  0  0  0  0  0  0
  -30.9893  -12.1873   21.9356 O   0  0  0  0  0  0  0  0  0  0  0  0
  -26.3102  -29.7164   22.5493 O   0  0  0  0  0  0  0  0  0  0  0  0
  -22.7971  -30.0809   20.4006 O   0  0  0  0  0  0  0  0  0  0  0  0
  -22.6352  -25.3679   19.8693 O   0  0  0  0  0  0  0  0  0  0  0  0
  -30.0029  -20.8076   16.9386 O   0  0  0  0  0  0  0  0  0  0  0  0
  -28.2960  -22.5571   18.3043 O   0  0  0  0  0  0  0  0  0  0  0  0
  -28.0800  -21.9394   20.7378 O   0  0  0  0  0  0  0  0  0  0  0  0
  -23.2512  -11.8219   21.1771 O   0  0  0  0  0  0  0  0  0  0  0  0
  -29.3685  -24.7197   20.6873 O   0  0  0  0  0  0  0  0  0  1  0  0
  -22.7196   -6.3339   21.1295 F   0  0  0  0  0  0  0  0  0  0  0  0
  -21.5121  -10.5806   19.4229 F   0  0  0  0  0  0  0  0  0  0  0  0
  -28.8368  -21.9410   19.5001 S   0  0  0  0  0  0  0  0  0  0  0  0
  1  2  1  0  0  0  0
  1  5  2  0  0  0  0
  2  6  2  0  0  0  0
  3  8  2  0  0  0  0
  3 15  1  0  0  0  0
  4  9  1  0  0  0  0
  4 15  2  0  0  0  0
  5 17  1  0  0  0  0
  6 19  1  0  0  0  0
  7 10  2  0  0  0  0
  7 18  1  0  0  0  0
  8 21  1  0  0  0  0
  9 21  2  0  0  0  0
 10 22  1  0  0  0  0
 11 12  2  0  0  0  0
 11 23  1  0  0  0  0
 12 24  1  0  0  0  0
 13 20  1  0  0  0  0
 13 22  2  0  0  0  0
 14 24  2  0  0  0  0
 14 25  1  0  0  0  0
 15 26  1  0  0  0  0
 16 26  1  0  0  0  0
 16 27  2  0  0  0  0
 16 28  1  0  0  0  0
 17 19  2  0  0  0  0
 17 33  1  0  0  0  0
 18 20  2  0  0  0  0
 18 34  1  0  0  0  0
 19 42  1  0  0  0  0
 20 35  1  0  0  0  0
 21 73  1  0  0  0  0
 22 74  1  0  0  0  0
 23 25  2  0  0  0  0
 23 73  1  0  0  0  0
 24 75  1  0  0  0  0
 25 76  1  0  0  0  0
 26 56  2  0  0  0  0
 27 57  1  0  0  0  0
 27 60  1  0  0  0  0
 28 61  1  0  0  0  0
 28 66  2  0  0  0  0
 29 43  1  0  0  0  0
 29 62  1  0  0  0  0
 29 67  2  0  0  0  0
 30 53  1  0  0  0  0
 30 58  1  0  0  0  0
 30 68  2  0  0  0  0
 31 54  1  0  0  0  0
 31 63  1  0  0  0  0
 31 69  2  0  0  0  0
 32 59  1  0  0  0  0
 32 64  1  0  0  0  0
 32 70  2  0  0  0  0
 33 36  1  0  0  0  0
 34 43  1  0  0  0  0
 35 58  1  0  0  0  0
 36 38  1  0  0  0  0
 37 39  1  0  0  0  0
 37 40  1  0  0  0  0
 38 42  1  0  0  0  0
 39 44  1  0  0  0  0
 40 59  1  0  0  0  0
 41 44  1  0  0  0  0
 41 59  1  0  0  0  0
 42 62  1  0  0  0  0
 43 58  1  0  0  0  0
 44 57  1  0  0  0  0
 45 54  1  0  0  0  0
 46 55  1  0  0  0  0
 47 55  1  0  0  0  0
 48 55  1  0  0  0  0
 49 64  1  0  0  0  0
 50 65  1  0  0  0  0
 51 52  1  0  0  0  0
 51 74  1  0  0  0  0
 52 77  1  0  0  0  0
 53 55  1  0  0  0  0
 53 63  1  0  0  0  0
 54 65  1  0  0  0  0
 56 57  1  0  0  0  0
 64 77  1  0  0  0  0
 71 77  2  0  0  0  0
 72 77  2  0  0  0  0
M  CHG  1  65   1
M  ISO  4  32 100  51 101  64 100  74 101
M  END
> <Batch ID>
0014

> <Smiles>
CNC(C)C(=O)NC(C(=O)N1Cc2cc([101O:1][101CH2:1]CS(=O)(=O)[100N:0](C)[100C:0](=O)N3CCCC(n4nc(-c5ccc(Oc6ccc(F)cc6F)cc5)c(C(N)=O)c4N)C3)ccc2CC1C(=O)NC1CCCc2ccccc21)C(C)(C)C

> <Shape>
0.308

> <Color>
0.079

> <Negative vol penalty>
0.000

$$$$

  -OEChem-04042320512D

  0  0  0     0  0  0  0  0  0999 V2000
M  END
$$$$

  -OEChem-04042320513D

 81 89  0     1  0  0  0  0  0999 V2000
  -19.1917  -30.2117   18.1528 C   0  0  0  0  0  0  0  0  0  0  0  0
  -20.5773  -30.1230   18.2401 C   0  0  0  0  0  0  0  0  0  0  0  0
  -25.9946  -14.1320   21.6324 C   0  0  0  0  0  0  0  0  0  0  0  0
  -25.8606  -15.5778   19.7014 C   0  0  0  0  0  0  0  0  0  0  0  0
  -18.4249  -30.2919   19.3145 C   0  0  0  0  0  0  0  0  0  0  0  0
  -21.1971  -30.1157   19.4892 C   0  0  0  0  0  0  0  0  0  0  0  0
  -24.8143  -26.5892   19.8424 C   0  0  0  0  0  0  0  0  0  0  0  0
  -30.5195  -22.2091   19.0092 C   0  0  0  0  0  0  0  0  0  0  0  0
  -31.2376  -23.2594   21.0630 C   0  0  0  0  0  0  0  0  0  0  0  0
  -30.3289  -23.4651   18.4334 C   0  0  0  0  0  0  0  0  0  0  0  0
  -31.0471  -24.5155   20.4872 C   0  0  0  0  0  0  0  0  0  0  0  0
  -24.6154  -13.9314   21.5779 C   0  0  0  0  0  0  0  0  0  0  0  0
  -24.4813  -15.3771   19.6468 C   0  0  0  0  0  0  0  0  0  0  0  0
  -26.0409  -26.8731   19.2435 C   0  0  0  0  0  0  0  0  0  0  0  0
  -22.4375  -12.0740   19.7779 C   0  0  0  0  0  0  0  0  0  0  0  0
  -21.9659  -10.7696   19.9247 C   0  0  0  0  0  0  0  0  0  0  0  0
  -26.9432  -27.4850   21.3954 C   0  0  0  0  0  0  0  0  0  0  0  0
  -20.7078  -11.4439   21.8740 C   0  0  0  0  0  0  0  0  0  0  0  0
  -26.6173  -14.9553   20.6941 C   0  0  0  0  0  0  0  0  0  0  0  0
  -29.0381  -14.4017   20.1106 C   0  0  0  0  0  0  0  0  0  0  0  0
  -19.0350  -30.2758   20.5787 C   0  0  0  0  0  0  0  0  0  0  0  0
  -24.6394  -26.7618   21.2230 C   0  0  0  0  0  0  0  0  0  0  0  0
  -20.4378  -30.1971   20.6689 C   0  0  0  0  0  0  0  0  0  0  0  0
  -25.7141  -27.2002   22.0098 C   0  0  0  0  0  0  0  0  0  0  0  0
  -30.9738  -22.1061   20.3240 C   0  0  0  0  0  0  0  0  0  0  0  0
  -30.5927  -24.6184   19.1724 C   0  0  0  0  0  0  0  0  0  0  0  0
  -23.8587  -14.5539   20.5852 C   0  0  0  0  0  0  0  0  0  0  0  0
  -27.1047  -27.3238   20.0196 C   0  0  0  0  0  0  0  0  0  0  0  0
  -22.0444  -13.0634   20.6791 C   0  0  0  0  0  0  0  0  0  0  0  0
  -21.1010  -10.4545   20.9728 C   0  0  0  0  0  0  0  0  0  0  0  0
  -21.1795  -12.7484   21.7272 C   0  0  0  0  0  0  0  0  0  0  0  0
  -28.0419  -15.1634   20.7502 C   0  0  0  0  0  0  0  0  0  0  0  0
  -30.2178  -15.0021   20.4772 C   0  0  0  0  0  0  0  0  0  0  0  0
  -28.9087  -13.2540   19.2609 C   0  0  0  0  0  0  0  0  0  0  0  0
  -22.7727  -28.5864   23.0368 C   0  0  0  0  0  0  0  0  0  0  0  0
  -24.0713  -26.8443   25.4453 C   0  0  0  0  0  0  0  0  0  0  0  0
  -26.6648  -24.9282   26.5631 C   0  0  0  0  0  0  0  0  0  0  0  0
  -31.6107  -20.5512   22.2010 C   0  0  0  0  0  0  0  0  0  0  0  0
  -18.1677  -30.4123   21.8051 C   0  0  0  0  0  0  0  0  0  0  0  0
  -23.3179  -26.4257   21.8578 C   0  0  0  0  0  0  0  0  0  0  0  0
  -25.5840  -27.3825   23.4992 C   0  0  0  0  0  0  0  0  0  0  0  0
  -18.8765  -30.0208   23.0991 C   0  0  0  0  0  0  0  0  0  0  0  0
  -32.1785  -17.5483   24.0278 C   0  0  0  0  0  0  0  0  0  0  0  0
  -20.2634  -30.6529   23.1604 C   0  0  0  0  0  0  0  0  0  0  0  0
  -31.2774  -16.5252   23.3326 C   0  0  0  0  0  0  0  0  0  0  0  0
  -31.5299  -18.9304   24.0828 C   0  0  0  0  0  0  0  0  0  0  0  0
  -30.1644  -18.4270   22.0951 C   0  0  0  0  0  0  0  0  0  0  0  0
  -21.1453  -30.1612   22.0062 C   0  0  1  0  0  0  0  0  0  0  0  0
  -23.1010  -27.1287   23.1943 C   0  0  1  0  0  0  0  0  0  0  0  0
  -30.8022  -17.0349   21.9578 C   0  0  2  0  0  0  0  0  0  0  0  0
  -27.4598  -23.6768   28.5877 C   0  0  0  0  0  0  0  0  0  0  0  0
  -24.8401  -29.4827   26.7712 C   0  0  0  0  0  0  0  0  0  0  0  0
  -26.4152  -28.2055   28.2396 C   0  0  0  0  0  0  0  0  0  0  0  0
  -23.9661  -27.7424   28.3403 C   0  0  0  0  0  0  0  0  0  0  0  0
  -29.9262  -25.9896   17.2140 C   0  0  0  0  0  0  0  0  0  0  0  0
  -26.6787  -22.3511   25.1079 C   0  0  0  0  0  0  0  0  0  0  0  0
  -30.6527  -27.0943   19.3354 C   0  0  0  0  0  0  0  0  0  0  0  0
  -29.4713  -27.4163   20.2352 C   0  0  0  0  0  0  0  0  0  1  0  0
  -25.2900  -26.9796   26.3259 C   0  0  1  0  0  0  0  0  0  0  0  0
  -26.6930  -23.5890   27.2773 C   0  0  2  0  0  0  0  0  0  0  0  0
  -25.1301  -28.1011   27.3909 C   0  0  0  0  0  0  0  0  0  0  0  0
  -28.5449  -16.1707   21.4689 N   0  0  0  0  0  0  0  0  0  0  0  0
  -29.8700  -16.0460   21.2831 N   0  0  0  0  0  0  0  0  0  0  0  0
  -24.2701  -27.0467   24.0722 N   0  0  0  0  0  0  0  0  0  0  0  0
  -31.1090  -19.3496   22.7442 N   0  0  0  0  0  0  0  0  0  0  0  0
  -31.5083  -14.7335   20.1857 N   0  0  0  0  0  0  0  0  0  0  0  0
  -27.6234  -12.7673   18.9866 N   0  0  0  0  0  0  0  0  0  0  0  0
  -31.1658  -20.8300   20.9091 N   0  0  0  0  0  0  0  0  0  0  0  0
  -21.6417  -28.8299   22.2811 N   0  0  0  0  0  0  0  0  0  0  0  0
  -25.5384  -25.6553   26.8854 N   0  0  0  0  0  0  0  0  0  0  0  0
  -30.4019  -25.8800   18.5933 N   0  0  3  0  0  0  0  0  0  0  0  0
  -27.3439  -22.5583   26.4200 N   0  3  0  0  0  0  0  0  0  0  0  0
  -29.9044  -12.6674   18.7730 O   0  0  0  0  0  0  0  0  0  0  0  0
  -23.4914  -29.4279   23.5632 O   0  0  0  0  0  0  0  0  0  0  0  0
  -22.9845  -26.5622   25.9560 O   0  0  0  0  0  0  0  0  0  0  0  0
  -27.5549  -25.2944   25.7987 O   0  0  0  0  0  0  0  0  0  0  0  0
  -32.3998  -21.2657   22.8246 O   0  0  0  0  0  0  0  0  0  0  0  0
  -22.5128  -14.3582   20.5315 O   0  0  0  0  0  0  0  0  0  0  0  0
  -28.3028  -27.6022   19.4375 O   0  0  0  0  0  0  0  0  0  1  0  0
  -20.6470   -9.2021   21.1127 F   0  0  0  0  0  0  0  0  0  0  0  0
  -20.7973  -13.6949   22.5954 F   0  0  0  0  0  0  0  0  0  0  0  0
  1  2  1  0  0  0  0
  1  5  2  0  0  0  0
  2  6  2  0  0  0  0
  3 12  2  0  0  0  0
  3 19  1  0  0  0  0
  4 13  1  0  0  0  0
  4 19  2  0  0  0  0
  5 21  1  0  0  0  0
  6 23  1  0  0  0  0
  7 14  2  0  0  0  0
  7 22  1  0  0  0  0
  8 10  2  0  0  0  0
  8 25  1  0  0  0  0
  9 11  1  0  0  0  0
  9 25  2  0  0  0  0
 10 26  1  0  0  0  0
 11 26  2  0  0  0  0
 12 27  1  0  0  0  0
 13 27  2  0  0  0  0
 14 28  1  0  0  0  0
 15 16  2  0  0  0  0
 15 29  1  0  0  0  0
 16 30  1  0  0  0  0
 17 24  1  0  0  0  0
 17 28  2  0  0  0  0
 18 30  2  0  0  0  0
 18 31  1  0  0  0  0
 19 32  1  0  0  0  0
 20 32  1  0  0  0  0
 20 33  2  0  0  0  0
 20 34  1  0  0  0  0
 21 23  2  0  0  0  0
 21 39  1  0  0  0  0
 22 24  2  0  0  0  0
 22 40  1  0  0  0  0
 23 48  1  0  0  0  0
 24 41  1  0  0  0  0
 25 68  1  0  0  0  0
 26 71  1  0  0  0  0
 27 78  1  0  0  0  0
 28 79  1  0  0  0  0
 29 31  2  0  0  0  0
 29 78  1  0  0  0  0
 30 80  1  0  0  0  0
 31 81  1  0  0  0  0
 32 62  2  0  0  0  0
 33 63  1  0  0  0  0
 33 66  1  0  0  0  0
 34 67  1  0  0  0  0
 34 73  2  0  0  0  0
 35 49  1  0  0  0  0
 35 69  1  0  0  0  0
 35 74  2  0  0  0  0
 36 59  1  0  0  0  0
 36 64  1  0  0  0  0
 36 75  2  0  0  0  0
 37 60  1  0  0  0  0
 37 70  1  0  0  0  0
 37 76  2  0  0  0  0
 38 65  1  0  0  0  0
 38 68  1  0  0  0  0
 38 77  2  0  0  0  0
 39 42  1  0  0  0  0
 40 49  1  0  0  0  0
 41 64  1  0  0  0  0
 42 44  1  0  0  0  0
 43 45  1  0  0  0  0
 43 46  1  0  0  0  0
 44 48  1  0  0  0  0
 45 50  1  0  0  0  0
 46 65  1  0  0  0  0
 47 50  1  0  0  0  0
 47 65  1  0  0  0  0
 48 69  1  0  0  0  0
 49 64  1  0  0  0  0
 50 63  1  0  0  0  0
 51 60  1  0  0  0  0
 52 61  1  0  0  0  0
 53 61  1  0  0  0  0
 54 61  1  0  0  0  0
 55 71  1  0  0  0  0
 56 72  1  0  0  0  0
 57 58  1  0  0  0  0
 57 71  1  0  0  0  0
 58 79  1  0  0  0  0
 59 61  1  0  0  0  0
 59 70  1  0  0  0  0
 60 72  1  0  0  0  0
 62 63  1  0  0  0  0
M  CHG  1  72   1
M  ISO  4  38 100  58 101  68 100  79 101
M  END
> <Batch ID>
0014

> <Smiles>
CNC(C)C(=O)NC(C(=O)N1Cc2cc([101O:1][101CH2:1]CN(C)c3ccc([100NH:0][100C:0](=O)N4CCCC(n5nc(-c6ccc(Oc7ccc(F)cc7F)cc6)c(C(N)=O)c5N)C4)cc3)ccc2CC1C(=O)NC1CCCc2ccccc21)C(C)(C)C

> <Shape>
0.226

> <Color>
0.074

> <Negative vol penalty>
0.000

$$$$

  -OEChem-04042320513D

 82 90  0     1  0  0  0  0  0999 V2000
  -24.4783  -30.8699   22.2828 C   0  0  0  0  0  0  0  0  0  0  0  0
  -23.4946  -29.8904   22.1917 C   0  0  0  0  0  0  0  0  0  0  0  0
  -28.8130  -12.6848   20.9297 C   0  0  0  0  0  0  0  0  0  0  0  0
  -28.2392  -11.9450   18.7025 C   0  0  0  0  0  0  0  0  0  0  0  0
  -25.6375  -30.7655   21.5153 C   0  0  0  0  0  0  0  0  0  0  0  0
  -23.6691  -28.8064   21.3321 C   0  0  0  0  0  0  0  0  0  0  0  0
  -23.6094  -22.0487   23.8263 C   0  0  0  0  0  0  0  0  0  0  0  0
  -21.8577  -12.2396   24.5711 C   0  0  0  0  0  0  0  0  0  0  0  0
  -30.1622  -12.4595   20.6570 C   0  0  0  0  0  0  0  0  0  0  0  0
  -29.5885  -11.7197   18.4297 C   0  0  0  0  0  0  0  0  0  0  0  0
  -23.4003  -20.7195   24.1945 C   0  0  0  0  0  0  0  0  0  0  0  0
  -21.8846  -13.6058   24.2913 C   0  0  0  0  0  0  0  0  0  0  0  0
  -33.7263  -11.7379   20.6675 C   0  0  0  0  0  0  0  0  0  0  0  0
  -34.4849  -11.0825   21.6373 C   0  0  0  0  0  0  0  0  0  0  0  0
  -23.8929  -20.0055   21.9372 C   0  0  0  0  0  0  0  0  0  0  0  0
  -24.1901  -13.7068   25.0069 C   0  0  0  0  0  0  0  0  0  0  0  0
  -33.0274   -9.1621   21.4794 C   0  0  0  0  0  0  0  0  0  0  0  0
  -27.8514  -12.4274   19.9524 C   0  0  0  0  0  0  0  0  0  0  0  0
  -25.7345  -13.8491   20.0246 C   0  0  0  0  0  0  0  0  0  0  0  0
  -25.8307  -29.6747   20.6530 C   0  0  0  0  0  0  0  0  0  0  0  0
  -23.9765  -22.3604   22.5143 C   0  0  0  0  0  0  0  0  0  0  0  0
  -24.8314  -28.6880   20.5513 C   0  0  0  0  0  0  0  0  0  0  0  0
  -24.1159  -21.3340   21.5656 C   0  0  0  0  0  0  0  0  0  0  0  0
  -22.9969  -11.6069   25.0688 C   0  0  0  0  0  0  0  0  0  0  0  0
  -30.5500  -11.9770   19.4070 C   0  0  0  0  0  0  0  0  0  0  0  0
  -23.5415  -19.7005   23.2522 C   0  0  0  0  0  0  0  0  0  0  0  0
  -23.0508  -14.3394   24.5092 C   0  0  0  0  0  0  0  0  0  0  0  0
  -32.6182  -11.1055   20.1037 C   0  0  0  0  0  0  0  0  0  0  0  0
  -34.1355   -9.7945   22.0432 C   0  0  0  0  0  0  0  0  0  0  0  0
  -32.2687   -9.8176   20.5097 C   0  0  0  0  0  0  0  0  0  0  0  0
  -24.1631  -12.3406   25.2867 C   0  0  0  0  0  0  0  0  0  0  0  0
  -26.4575  -12.6594   20.2337 C   0  0  0  0  0  0  0  0  0  0  0  0
  -24.4614  -13.5564   20.4488 C   0  0  0  0  0  0  0  0  0  0  0  0
  -26.1744  -15.1064   19.4941 C   0  0  0  0  0  0  0  0  0  0  0  0
  -24.8780  -25.0294   20.0364 C   0  0  0  0  0  0  0  0  0  0  0  0
  -26.7509  -22.6571   19.5117 C   0  0  0  0  0  0  0  0  0  0  0  0
  -28.8919  -20.0014   19.5341 C   0  0  0  0  0  0  0  0  0  0  0  0
  -22.6416   -9.2238   24.3720 C   0  0  0  0  0  0  0  0  0  0  0  0
  -27.0791  -29.6295   19.8080 C   0  0  0  0  0  0  0  0  0  0  0  0
  -24.1519  -23.7834   22.0580 C   0  0  0  0  0  0  0  0  0  0  0  0
  -24.4784  -21.7193   20.1574 C   0  0  0  0  0  0  0  0  0  0  0  0
  -27.3542  -28.2562   19.2009 C   0  0  0  0  0  0  0  0  0  0  0  0
  -21.4013   -9.9195   20.9558 C   0  0  0  0  0  0  0  0  0  0  0  0
  -26.0828  -27.6800   18.5857 C   0  0  0  0  0  0  0  0  0  0  0  0
  -22.5389  -10.7325   20.3408 C   0  0  0  0  0  0  0  0  0  0  0  0
  -21.9074   -8.9558   22.0248 C   0  0  0  0  0  0  0  0  0  0  0  0
  -23.8384  -10.4386   22.4871 C   0  0  0  0  0  0  0  0  0  0  0  0
  -24.9952  -27.4843   19.6488 C   0  0  1  0  0  0  0  0  0  0  0  0
  -25.2599  -23.9464   21.0022 C   0  0  1  0  0  0  0  0  0  0  0  0
  -23.3493  -11.4459   21.4356 C   0  0  1  0  0  0  0  0  0  0  0  0
  -30.9133  -19.0909   18.3584 C   0  0  0  0  0  0  0  0  0  0  0  0
  -25.0011  -21.8243   17.1562 C   0  0  0  0  0  0  0  0  0  0  0  0
  -26.7665  -20.1660   16.5226 C   0  0  0  0  0  0  0  0  0  0  0  0
  -27.2930  -22.6043   16.5292 C   0  0  0  0  0  0  0  0  0  0  0  0
  -22.9156   -9.7743   26.7497 C   0  0  0  0  0  0  0  0  0  0  0  0
  -30.5053  -20.0617   22.0145 C   0  0  0  0  0  0  0  0  0  0  0  0
  -24.0817  -17.4086   22.9162 C   0  0  0  0  0  0  0  0  0  1  0  0
  -24.3276  -16.2305   23.8389 C   0  0  0  0  0  0  0  0  0  0  0  0
  -27.0024  -21.3930   18.7293 C   0  0  1  0  0  0  0  0  0  0  0  0
  -30.4082  -19.9296   19.5221 C   0  0  2  0  0  0  0  0  0  0  0  0
  -26.5039  -21.4963   17.2602 C   0  0  0  0  0  0  0  0  0  0  0  0
  -25.7061  -11.6836   20.7508 N   0  0  0  0  0  0  0  0  0  0  0  0
  -24.4979  -12.2597   20.8702 N   0  0  0  0  0  0  0  0  0  0  0  0
  -25.5209  -22.7575   20.1731 N   0  0  0  0  0  0  0  0  0  0  0  0
  -22.7270   -9.6387   23.0271 N   0  0  0  0  0  0  0  0  0  0  0  0
  -23.3256  -14.2842   20.4989 N   0  0  0  0  0  0  0  0  0  0  0  0
  -27.5151  -15.2357   19.1066 N   0  0  0  0  0  0  0  0  0  0  0  0
  -25.2616  -26.2967   20.4317 N   0  0  0  0  0  0  0  0  0  0  0  0
  -28.4278  -21.1100   18.8582 N   0  0  0  0  0  0  0  0  0  0  0  0
  -22.9336  -10.1935   25.3500 N   0  0  0  0  0  0  0  0  0  0  0  0
  -30.9081  -19.3247   20.7891 N   0  3  0  0  0  0  0  0  0  0  0  0
  -25.4055  -16.0912   19.3828 O   0  0  0  0  0  0  0  0  0  0  0  0
  -24.2806  -24.7378   19.0070 O   0  0  0  0  0  0  0  0  0  0  0  0
  -27.6173  -23.5358   19.5330 O   0  0  0  0  0  0  0  0  0  0  0  0
  -28.1893  -19.1565   20.0846 O   0  0  0  0  0  0  0  0  0  0  0  0
  -22.3780   -8.0551   24.6808 O   0  0  0  0  0  0  0  0  0  0  0  0
  -31.8665  -11.7573   19.1405 O   0  0  0  0  0  0  0  0  0  0  0  0
  -23.3403  -18.4046   23.6195 O   0  0  0  0  0  0  0  0  0  1  0  0
  -23.0766  -15.6815   24.2349 O   0  0  0  0  0  0  0  0  0  0  0  0
  -34.8649   -9.1646   22.9734 F   0  0  0  0  0  0  0  0  0  0  0  0
  -31.2060   -9.2045   19.9708 F   0  0  0  0  0  0  0  0  0  0  0  0
  -25.5965  -11.5965   25.9002 Cl  0  0  0  0  0  0  0  0  0  0  0  0
  1  2  1  0  0  0  0
  1  5  2  0  0  0  0
  2  6  2  0  0  0  0
  3  9  2  0  0  0  0
  3 18  1  0  0  0  0
  4 10  1  0  0  0  0
  4 18  2  0  0  0  0
  5 20  1  0  0  0  0
  6 22  1  0  0  0  0
  7 11  2  0  0  0  0
  7 21  1  0  0  0  0
  8 12  2  0  0  0  0
  8 24  1  0  0  0  0
  9 25  1  0  0  0  0
 10 25  2  0  0  0  0
 11 26  1  0  0  0  0
 12 27  1  0  0  0  0
 13 14  2  0  0  0  0
 13 28  1  0  0  0  0
 14 29  1  0  0  0  0
 15 23  1  0  0  0  0
 15 26  2  0  0  0  0
 16 27  2  0  0  0  0
 16 31  1  0  0  0  0
 17 29  2  0  0  0  0
 17 30  1  0  0  0  0
 18 32  1  0  0  0  0
 19 32  1  0  0  0  0
 19 33  2  0  0  0  0
 19 34  1  0  0  0  0
 20 22  2  0  0  0  0
 20 39  1  0  0  0  0
 21 23  2  0  0  0  0
 21 40  1  0  0  0  0
 22 48  1  0  0  0  0
 23 41  1  0  0  0  0
 24 31  2  0  0  0  0
 24 70  1  0  0  0  0
 25 77  1  0  0  0  0
 26 78  1  0  0  0  0
 27 79  1  0  0  0  0
 28 30  2  0  0  0  0
 28 77  1  0  0  0  0
 29 80  1  0  0  0  0
 30 81  1  0  0  0  0
 31 82  1  0  0  0  0
 32 62  2  0  0  0  0
 33 63  1  0  0  0  0
 33 66  1  0  0  0  0
 34 67  1  0  0  0  0
 34 72  2  0  0  0  0
 35 49  1  0  0  0  0
 35 68  1  0  0  0  0
 35 73  2  0  0  0  0
 36 59  1  0  0  0  0
 36 64  1  0  0  0  0
 36 74  2  0  0  0  0
 37 60  1  0  0  0  0
 37 69  1  0  0  0  0
 37 75  2  0  0  0  0
 38 65  1  0  0  0  0
 38 70  1  0  0  0  0
 38 76  2  0  0  0  0
 39 42  1  0  0  0  0
 40 49  1  0  0  0  0
 41 64  1  0  0  0  0
 42 44  1  0  0  0  0
 43 45  1  0  0  0  0
 43 46  1  0  0  0  0
 44 48  1  0  0  0  0
 45 50  1  0  0  0  0
 46 65  1  0  0  0  0
 47 50  1  0  0  0  0
 47 65  1  0  0  0  0
 48 68  1  0  0  0  0
 49 64  1  0  0  0  0
 50 63  1  0  0  0  0
 51 60  1  0  0  0  0
 52 61  1  0  0  0  0
 53 61  1  0  0  0  0
 54 61  1  0  0  0  0
 55 70  1  0  0  0  0
 56 71  1  0  0  0  0
 57 58  1  0  0  0  0
 57 78  1  0  0  0  0
 58 79  1  0  0  0  0
 59 61  1  0  0  0  0
 59 69  1  0  0  0  0
 60 71  1  0  0  0  0
 62 63  1  0  0  0  0
M  CHG  1  71   1
M  ISO  4  38 100  57 101  70 100  78 101
M  END
> <Batch ID>
0014

> <Smiles>
CNC(C)C(=O)NC(C(=O)N1Cc2cc([101O:1][101CH2:1]COc3ccc([100N:0](C)[100C:0](=O)N4CCCC(n5nc(-c6ccc(Oc7ccc(F)cc7F)cc6)c(C(N)=O)c5N)C4)c(Cl)c3)ccc2CC1C(=O)NC1CCCc2ccccc21)C(C)(C)C

> <Shape>
0.191

> <Color>
0.102

> <Negative vol penalty>
0.000

$$$$

  -OEChem-04042320513D

 86 95  0     1  0  0  0  0  0999 V2000
  -28.9127  -35.2744   24.2088 C   0  0  0  0  0  0  0  0  0  0  0  0
  -28.9185  -33.8957   24.0228 C   0  0  0  0  0  0  0  0  0  0  0  0
  -24.5562   -9.8727   21.8233 C   0  0  0  0  0  0  0  0  0  0  0  0
  -24.7644  -11.1895   23.8382 C   0  0  0  0  0  0  0  0  0  0  0  0
  -27.7061  -35.9454   24.4028 C   0  0  0  0  0  0  0  0  0  0  0  0
  -27.7176  -33.1870   24.0319 C   0  0  0  0  0  0  0  0  0  0  0  0
  -27.4270  -29.8086   20.2706 C   0  0  0  0  0  0  0  0  0  0  0  0
  -29.8685  -21.4321   21.3435 C   0  0  0  0  0  0  0  0  0  0  0  0
  -29.8162  -20.0894   20.9695 C   0  0  0  0  0  0  0  0  0  0  0  0
  -24.2348   -8.7519   22.5889 C   0  0  0  0  0  0  0  0  0  0  0  0
  -24.4429  -10.0687   24.6039 C   0  0  0  0  0  0  0  0  0  0  0  0
  -28.1254  -28.6130   20.4333 C   0  0  0  0  0  0  0  0  0  0  0  0
  -23.0063   -5.6316   23.9922 C   0  0  0  0  0  0  0  0  0  0  0  0
  -21.9362   -4.8428   23.5698 C   0  0  0  0  0  0  0  0  0  0  0  0
  -26.0792  -27.5131   21.0833 C   0  0  0  0  0  0  0  0  0  0  0  0
  -27.4550  -21.5019   21.4302 C   0  0  0  0  0  0  0  0  0  0  0  0
  -20.4551   -6.7401   23.7792 C   0  0  0  0  0  0  0  0  0  0  0  0
  -24.8211  -11.0915   22.4479 C   0  0  0  0  0  0  0  0  0  0  0  0
  -24.2624  -13.2016   21.1277 C   0  0  0  0  0  0  0  0  0  0  0  0
  -26.4890  -35.2459   24.4046 C   0  0  0  0  0  0  0  0  0  0  0  0
  -26.0491  -29.8682   20.5240 C   0  0  0  0  0  0  0  0  0  0  0  0
  -26.4936  -33.8491   24.2275 C   0  0  0  0  0  0  0  0  0  0  0  0
  -25.3651  -28.7101   20.9206 C   0  0  0  0  0  0  0  0  0  0  0  0
  -27.4027  -20.1592   21.0562 C   0  0  0  0  0  0  0  0  0  0  0  0
  -28.6879  -22.1384   21.5739 C   0  0  0  0  0  0  0  0  0  0  0  0
  -28.5834  -19.4529   20.8258 C   0  0  0  0  0  0  0  0  0  0  0  0
  -24.1781   -8.8499   23.9792 C   0  0  0  0  0  0  0  0  0  0  0  0
  -27.4521  -27.4657   20.8425 C   0  0  0  0  0  0  0  0  0  0  0  0
  -22.8008   -6.9746   24.3082 C   0  0  0  0  0  0  0  0  0  0  0  0
  -20.6607   -5.3970   23.4633 C   0  0  0  0  0  0  0  0  0  0  0  0
  -21.5252   -7.5288   24.2016 C   0  0  0  0  0  0  0  0  0  0  0  0
  -25.1537  -12.2494   21.6576 C   0  0  0  0  0  0  0  0  0  0  0  0
  -25.0681  -14.0933   20.4627 C   0  0  0  0  0  0  0  0  0  0  0  0
  -22.8340  -13.2736   21.2276 C   0  0  0  0  0  0  0  0  0  0  0  0
  -24.2112  -31.4632   22.5689 C   0  0  0  0  0  0  0  0  0  0  0  0
  -21.8081  -30.1144   20.8577 C   0  0  0  0  0  0  0  0  0  0  0  0
  -20.7723  -27.5853   18.8137 C   0  0  0  0  0  0  0  0  0  0  0  0
  -29.6411  -17.2578   20.1862 C   0  0  0  0  0  0  0  0  0  0  0  0
  -25.2140  -36.0082   24.6654 C   0  0  0  0  0  0  0  0  0  0  0  0
  -25.3053  -31.1592   20.3180 C   0  0  0  0  0  0  0  0  0  0  0  0
  -23.8825  -28.7164   21.1858 C   0  0  0  0  0  0  0  0  0  0  0  0
  -23.9535  -35.2344   24.2875 C   0  0  0  0  0  0  0  0  0  0  0  0
  -29.9791  -13.8356   19.2636 C   0  0  0  0  0  0  0  0  0  0  0  0
  -24.0248  -33.8060   24.8180 C   0  0  0  0  0  0  0  0  0  0  0  0
  -28.6805  -13.1962   19.7606 C   0  0  0  0  0  0  0  0  0  0  0  0
  -29.5363  -25.5100   22.8036 C   0  0  0  0  0  0  0  0  0  0  0  0
  -30.4793  -14.9187   20.2177 C   0  0  0  0  0  0  0  0  0  0  0  0
  -29.9794  -24.2165   22.1202 C   0  0  0  0  0  0  0  0  0  0  0  0
  -28.1948  -15.3144   21.0505 C   0  0  0  0  0  0  0  0  0  0  0  0
  -27.5590  -24.2910   22.2019 C   0  0  0  0  0  0  0  0  0  0  0  0
  -25.2095  -33.0487   24.2061 C   0  0  1  0  0  0  0  0  0  0  0  0
  -23.9975  -31.2267   21.1005 C   0  0  1  0  0  0  0  0  0  0  0  0
  -27.6173  -14.2624   20.0896 C   0  0  2  0  0  0  0  0  0  0  0  0
  -28.1147  -25.7111   22.2991 C   0  0  2  0  0  0  0  0  0  1  0  0
  -18.7431  -26.7317   17.6092 C   0  0  0  0  0  0  0  0  0  0  0  0
  -20.6864  -29.0671   23.4949 C   0  0  0  0  0  0  0  0  0  0  0  0
  -19.2647  -27.4804   22.1797 C   0  0  0  0  0  0  0  0  0  0  0  0
  -18.9666  -29.9417   21.9037 C   0  0  0  0  0  0  0  0  0  0  0  0
  -22.0812  -27.8594   16.1735 C   0  0  0  0  0  0  0  0  0  0  0  0
  -21.0242  -28.8273   20.9465 C   0  0  1  0  0  0  0  0  0  0  0  0
  -19.9894  -27.5978   17.5132 C   0  0  2  0  0  0  0  0  0  0  0  0
  -26.0683  -19.5024   20.9113 C   0  0  0  0  0  0  0  0  0  0  0  0
  -20.0138  -28.8291   22.1281 C   0  0  0  0  0  0  0  0  0  0  0  0
  -26.4280  -12.5116   21.3553 N   0  0  0  0  0  0  0  0  0  0  0  0
  -26.3433  -13.6386   20.6280 N   0  0  0  0  0  0  0  0  0  0  0  0
  -28.7398  -23.4658   21.9442 N   0  0  3  0  0  0  0  0  0  0  0  0
  -23.2008  -30.0044   20.9765 N   0  0  0  0  0  0  0  0  0  0  0  0
  -29.4202  -15.8956   20.4801 N   0  0  0  0  0  0  0  0  0  0  0  0
  -24.8031  -15.2141   19.7584 N   0  0  0  0  0  0  0  0  0  0  0  0
  -22.1635  -12.2757   21.9481 N   0  0  0  0  0  0  0  0  0  0  0  0
  -28.5514  -18.0880   20.4468 N   0  0  0  0  0  0  0  0  0  0  0  0
  -24.8976  -32.6274   22.8572 N   0  0  0  0  0  0  0  0  0  0  0  0
  -20.4119  -28.6312   19.6369 N   0  0  0  0  0  0  0  0  0  0  0  0
  -20.8326  -27.0858   16.3961 N   0  3  0  0  0  0  0  0  0  0  0  0
  -22.1703  -14.1864   20.6800 O   0  0  0  0  0  0  0  0  0  0  0  0
  -23.7837  -30.6505   23.3803 O   0  0  0  0  0  0  0  0  0  0  0  0
  -21.2075  -31.1774   20.6821 O   0  0  0  0  0  0  0  0  0  0  0  0
  -21.6163  -26.7310   19.0750 O   0  0  0  0  0  0  0  0  0  0  0  0
  -30.7083  -17.6544   19.7109 O   0  0  0  0  0  0  0  0  0  0  0  0
  -23.8643   -7.7566   24.7266 O   0  0  0  0  0  0  0  0  0  0  0  0
  -28.1315  -26.2976   21.0027 O   0  0  0  0  0  0  0  0  0  1  0  0
  -19.6335   -4.6399   23.0562 F   0  0  0  0  0  0  0  0  0  0  0  0
  -21.3218   -8.8187   24.5026 F   0  0  0  0  0  0  0  0  0  0  0  0
  -25.0199  -20.3355   21.1748 F   0  0  0  0  0  0  0  0  0  0  0  0
  -25.8344  -19.0171   19.6574 F   0  0  0  0  0  0  0  0  0  0  0  0
  -25.9152  -18.4399   21.7524 F   0  0  0  0  0  0  0  0  0  0  0  0
  1  2  1  0  0  0  0
  1  5  2  0  0  0  0
  2  6  2  0  0  0  0
  3 10  2  0  0  0  0
  3 18  1  0  0  0  0
  4 11  1  0  0  0  0
  4 18  2  0  0  0  0
  5 20  1  0  0  0  0
  6 22  1  0  0  0  0
  7 12  2  0  0  0  0
  7 21  1  0  0  0  0
  8  9  2  0  0  0  0
  8 25  1  0  0  0  0
  9 26  1  0  0  0  0
 10 27  1  0  0  0  0
 11 27  2  0  0  0  0
 12 28  1  0  0  0  0
 13 14  2  0  0  0  0
 13 29  1  0  0  0  0
 14 30  1  0  0  0  0
 15 23  1  0  0  0  0
 15 28  2  0  0  0  0
 16 24  1  0  0  0  0
 16 25  2  0  0  0  0
 17 30  2  0  0  0  0
 17 31  1  0  0  0  0
 18 32  1  0  0  0  0
 19 32  1  0  0  0  0
 19 33  2  0  0  0  0
 19 34  1  0  0  0  0
 20 22  2  0  0  0  0
 20 39  1  0  0  0  0
 21 23  2  0  0  0  0
 21 40  1  0  0  0  0
 22 51  1  0  0  0  0
 23 41  1  0  0  0  0
 24 26  2  0  0  0  0
 24 62  1  0  0  0  0
 25 66  1  0  0  0  0
 26 71  1  0  0  0  0
 27 80  1  0  0  0  0
 28 81  1  0  0  0  0
 29 31  2  0  0  0  0
 29 80  1  0  0  0  0
 30 82  1  0  0  0  0
 31 83  1  0  0  0  0
 32 64  2  0  0  0  0
 33 65  1  0  0  0  0
 33 69  1  0  0  0  0
 34 70  1  0  0  0  0
 34 75  2  0  0  0  0
 35 52  1  0  0  0  0
 35 72  1  0  0  0  0
 35 76  2  0  0  0  0
 36 60  1  0  0  0  0
 36 67  1  0  0  0  0
 36 77  2  0  0  0  0
 37 61  1  0  0  0  0
 37 73  1  0  0  0  0
 37 78  2  0  0  0  0
 38 68  1  0  0  0  0
 38 71  1  0  0  0  0
 38 79  2  0  0  0  0
 39 42  1  0  0  0  0
 40 52  1  0  0  0  0
 41 67  1  0  0  0  0
 42 44  1  0  0  0  0
 43 45  1  0  0  0  0
 43 47  1  0  0  0  0
 44 51  1  0  0  0  0
 45 53  1  0  0  0  0
 46 48  1  0  0  0  0
 46 54  1  0  0  0  0
 47 68  1  0  0  0  0
 48 66  1  0  0  0  0
 49 53  1  0  0  0  0
 49 68  1  0  0  0  0
 50 54  1  0  0  0  0
 50 66  1  0  0  0  0
 51 72  1  0  0  0  0
 52 67  1  0  0  0  0
 53 65  1  0  0  0  0
 54 81  1  0  0  0  0
 55 61  1  0  0  0  0
 56 63  1  0  0  0  0
 57 63  1  0  0  0  0
 58 63  1  0  0  0  0
 59 74  1  0  0  0  0
 60 63  1  0  0  0  0
 60 73  1  0  0  0  0
 61 74  1  0  0  0  0
 62 84  1  0  0  0  0
 62 85  1  0  0  0  0
 62 86  1  0  0  0  0
 64 65  1  0  0  0  0
M  CHG  1  74   1
M  ISO  4  38 100  54 101  71 100  81 101
M  END
> <Batch ID>
0014

> <Smiles>
CNC(C)C(=O)NC(C(=O)N1Cc2cc([101O:1][101CH:1]3CCN(c4ccc([100NH:0][100C:0](=O)N5CCCC(n6nc(-c7ccc(Oc8ccc(F)cc8F)cc7)c(C(N)=O)c6N)C5)c(C(F)(F)F)c4)C3)ccc2CC1C(=O)NC1CCCc2ccccc21)C(C)(C)C

> <Shape>
0.324

> <Color>
0.129

> <Negative vol penalty>
0.000

$$$$

  -OEChem-04042320513D

 83 92  0     1  0  0  0  0  0999 V2000
  -27.4998  -34.2986   25.5374 C   0  0  0  0  0  0  0  0  0  0  0  0
  -28.0279  -33.0329   25.3038 C   0  0  0  0  0  0  0  0  0  0  0  0
  -23.1615   -9.7574   19.9114 C   0  0  0  0  0  0  0  0  0  0  0  0
  -23.9101   -9.7793   22.2084 C   0  0  0  0  0  0  0  0  0  0  0  0
  -26.1832  -34.5810   25.1756 C   0  0  0  0  0  0  0  0  0  0  0  0
  -27.2394  -32.0485   24.7093 C   0  0  0  0  0  0  0  0  0  0  0  0
  -29.1005  -27.6768   20.8453 C   0  0  0  0  0  0  0  0  0  0  0  0
  -29.3054  -19.4421   22.4652 C   0  0  0  0  0  0  0  0  0  0  0  0
  -29.2040  -18.0512   22.4442 C   0  0  0  0  0  0  0  0  0  0  0  0
  -22.4725   -8.5678   20.1473 C   0  0  0  0  0  0  0  0  0  0  0  0
  -23.2211   -8.5897   22.4443 C   0  0  0  0  0  0  0  0  0  0  0  0
  -29.4213  -26.3331   21.0334 C   0  0  0  0  0  0  0  0  0  0  0  0
  -20.0321   -7.6332   23.0240 C   0  0  0  0  0  0  0  0  0  0  0  0
  -19.2728   -7.5462   24.1908 C   0  0  0  0  0  0  0  0  0  0  0  0
  -27.1860  -25.7130   20.3713 C   0  0  0  0  0  0  0  0  0  0  0  0
  -30.8500  -17.9578   20.6781 C   0  0  0  0  0  0  0  0  0  0  0  0
  -20.6021   -5.6635   24.9156 C   0  0  0  0  0  0  0  0  0  0  0  0
  -23.8804  -10.3632   20.9419 C   0  0  0  0  0  0  0  0  0  0  0  0
  -24.1017  -12.9028   20.8465 C   0  0  0  0  0  0  0  0  0  0  0  0
  -25.3812  -33.6024   24.5675 C   0  0  0  0  0  0  0  0  0  0  0  0
  -27.8146  -28.0500   20.4286 C   0  0  0  0  0  0  0  0  0  0  0  0
  -25.9104  -32.3177   24.3402 C   0  0  0  0  0  0  0  0  0  0  0  0
  -26.8522  -27.0619   20.1761 C   0  0  0  0  0  0  0  0  0  0  0  0
  -30.1791  -20.0910   21.5927 C   0  0  0  0  0  0  0  0  0  0  0  0
  -29.9763  -17.3090   21.5507 C   0  0  0  0  0  0  0  0  0  0  0  0
  -22.5022   -7.9840   21.4137 C   0  0  0  0  0  0  0  0  0  0  0  0
  -28.4631  -25.3512   20.7992 C   0  0  0  0  0  0  0  0  0  0  0  0
  -21.0764   -6.7352   22.8029 C   0  0  0  0  0  0  0  0  0  0  0  0
  -19.5578   -6.5614   25.1366 C   0  0  0  0  0  0  0  0  0  0  0  0
  -30.9514  -19.3489   20.6992 C   0  0  0  0  0  0  0  0  0  0  0  0
  -21.3614   -5.7504   23.7487 C   0  0  0  0  0  0  0  0  0  0  0  0
  -24.5928  -11.5918   20.6987 C   0  0  0  0  0  0  0  0  0  0  0  0
  -25.1584  -13.7069   20.4953 C   0  0  0  0  0  0  0  0  0  0  0  0
  -22.8062  -13.3534   21.2640 C   0  0  0  0  0  0  0  0  0  0  0  0
  -25.4685  -29.7920   21.6796 C   0  0  0  0  0  0  0  0  0  0  0  0
  -24.0938  -29.3141   18.7806 C   0  0  0  0  0  0  0  0  0  0  0  0
  -23.8606  -27.3997   15.9650 C   0  0  0  0  0  0  0  0  0  0  0  0
  -30.5675  -15.0105   20.7058 C   0  0  0  0  0  0  0  0  0  0  0  0
  -23.9489  -33.9403   24.2370 C   0  0  0  0  0  0  0  0  0  0  0  0
  -27.4924  -29.5020   20.2045 C   0  0  0  0  0  0  0  0  0  0  0  0
  -25.4633  -27.4089   19.7080 C   0  0  0  0  0  0  0  0  0  0  0  0
  -23.2981  -32.9544   23.2702 C   0  0  0  0  0  0  0  0  0  0  0  0
  -29.5801  -12.5684   18.3104 C   0  0  0  0  0  0  0  0  0  0  0  0
  -23.5883  -31.5187   23.6959 C   0  0  0  0  0  0  0  0  0  0  0  0
  -28.1542  -12.2044   18.7304 C   0  0  0  0  0  0  0  0  0  0  0  0
  -31.1304  -23.6449   21.3382 C   0  0  0  0  0  0  0  0  0  0  0  0
  -30.4780  -12.8294   19.5185 C   0  0  0  0  0  0  0  0  0  0  0  0
  -31.1588  -22.2369   20.7438 C   0  0  0  0  0  0  0  0  0  0  0  0
  -28.5326  -13.4492   20.8970 C   0  0  0  0  0  0  0  0  0  0  0  0
  -29.5024  -22.3278   22.5099 C   0  0  0  0  0  0  0  0  0  0  0  0
  -25.0943  -31.2307   23.6748 C   0  0  1  0  0  0  0  0  0  0  0  0
  -25.9978  -29.8000   20.2733 C   0  0  1  0  0  0  0  0  0  0  0  0
  -27.5743  -13.2406   19.7130 C   0  0  2  0  0  0  0  0  0  0  0  0
  -29.7501  -23.7366   21.9724 C   0  0  2  0  0  0  0  0  0  1  0  0
  -22.6221  -27.2404   13.7883 C   0  0  0  0  0  0  0  0  0  0  0  0
  -21.6380  -28.2663   20.2574 C   0  0  0  0  0  0  0  0  0  0  0  0
  -20.8550  -27.2639   18.1009 C   0  0  0  0  0  0  0  0  0  0  0  0
  -21.1293  -29.7355   18.2985 C   0  0  0  0  0  0  0  0  0  0  0  0
  -26.3550  -27.6584   14.3935 C   0  0  0  0  0  0  0  0  0  0  0  0
  -23.1832  -28.2653   18.1890 C   0  0  1  0  0  0  0  0  0  0  0  0
  -23.8617  -27.7694   14.4926 C   0  0  2  0  0  0  0  0  0  0  0  0
  -21.7269  -28.3760   18.7221 C   0  0  0  0  0  0  0  0  0  0  0  0
  -25.8626  -11.5603   20.2857 N   0  0  0  0  0  0  0  0  0  0  0  0
  -26.1783  -12.8615   20.1708 N   0  0  0  0  0  0  0  0  0  0  0  0
  -30.2761  -21.4665   21.6148 N   0  0  3  0  0  0  0  0  0  0  0  0
  -25.1949  -28.8428   19.5095 N   0  0  0  0  0  0  0  0  0  0  0  0
  -29.8665  -13.8242   20.4025 N   0  0  0  0  0  0  0  0  0  0  0  0
  -25.3052  -15.0475   20.4354 N   0  0  0  0  0  0  0  0  0  0  0  0
  -21.8374  -12.3939   21.5881 N   0  0  0  0  0  0  0  0  0  0  0  0
  -29.8731  -15.8960   21.5295 N   0  0  0  0  0  0  0  0  0  0  0  0
  -25.5487  -31.0150   22.3178 N   0  0  0  0  0  0  0  0  0  0  0  0
  -23.3006  -28.3929   16.7405 N   0  0  0  0  0  0  0  0  0  0  0  0
  -25.0636  -27.2032   13.8174 N   0  3  0  0  0  0  0  0  0  0  0  0
  -22.5112  -14.5708   21.3313 O   0  0  0  0  0  0  0  0  0  0  0  0
  -25.0192  -28.7536   22.1502 O   0  0  0  0  0  0  0  0  0  0  0  0
  -23.8415  -30.5074   18.5965 O   0  0  0  0  0  0  0  0  0  0  0  0
  -24.3080  -26.3348   16.3847 O   0  0  0  0  0  0  0  0  0  0  0  0
  -31.6893  -15.2373   20.2452 O   0  0  0  0  0  0  0  0  0  0  0  0
  -21.8298   -6.8233   21.6443 O   0  0  0  0  0  0  0  0  0  0  0  0
  -28.7734  -24.0389   20.9826 O   0  0  0  0  0  0  0  0  0  1  0  0
  -18.8296   -6.4791   26.2578 F   0  0  0  0  0  0  0  0  0  0  0  0
  -31.7932  -19.9627   19.8554 F   0  0  0  0  0  0  0  0  0  0  0  0
  -22.3641   -4.8857   23.5424 F   0  0  0  0  0  0  0  0  0  0  0  0
  1  2  1  0  0  0  0
  1  5  2  0  0  0  0
  2  6  2  0  0  0  0
  3 10  2  0  0  0  0
  3 18  1  0  0  0  0
  4 11  1  0  0  0  0
  4 18  2  0  0  0  0
  5 20  1  0  0  0  0
  6 22  1  0  0  0  0
  7 12  2  0  0  0  0
  7 21  1  0  0  0  0
  8  9  2  0  0  0  0
  8 24  1  0  0  0  0
  9 25  1  0  0  0  0
 10 26  1  0  0  0  0
 11 26  2  0  0  0  0
 12 27  1  0  0  0  0
 13 14  2  0  0  0  0
 13 28  1  0  0  0  0
 14 29  1  0  0  0  0
 15 23  1  0  0  0  0
 15 27  2  0  0  0  0
 16 25  2  0  0  0  0
 16 30  1  0  0  0  0
 17 29  2  0  0  0  0
 17 31  1  0  0  0  0
 18 32  1  0  0  0  0
 19 32  1  0  0  0  0
 19 33  2  0  0  0  0
 19 34  1  0  0  0  0
 20 22  2  0  0  0  0
 20 39  1  0  0  0  0
 21 23  2  0  0  0  0
 21 40  1  0  0  0  0
 22 51  1  0  0  0  0
 23 41  1  0  0  0  0
 24 30  2  0  0  0  0
 24 65  1  0  0  0  0
 25 70  1  0  0  0  0
 26 79  1  0  0  0  0
 27 80  1  0  0  0  0
 28 31  2  0  0  0  0
 28 79  1  0  0  0  0
 29 81  1  0  0  0  0
 30 82  1  0  0  0  0
 31 83  1  0  0  0  0
 32 63  2  0  0  0  0
 33 64  1  0  0  0  0
 33 68  1  0  0  0  0
 34 69  1  0  0  0  0
 34 74  2  0  0  0  0
 35 52  1  0  0  0  0
 35 71  1  0  0  0  0
 35 75  2  0  0  0  0
 36 60  1  0  0  0  0
 36 66  1  0  0  0  0
 36 76  2  0  0  0  0
 37 61  1  0  0  0  0
 37 72  1  0  0  0  0
 37 77  2  0  0  0  0
 38 67  1  0  0  0  0
 38 70  1  0  0  0  0
 38 78  2  0  0  0  0
 39 42  1  0  0  0  0
 40 52  1  0  0  0  0
 41 66  1  0  0  0  0
 42 44  1  0  0  0  0
 43 45  1  0  0  0  0
 43 47  1  0  0  0  0
 44 51  1  0  0  0  0
 45 53  1  0  0  0  0
 46 48  1  0  0  0  0
 46 54  1  0  0  0  0
 47 67  1  0  0  0  0
 48 65  1  0  0  0  0
 49 53  1  0  0  0  0
 49 67  1  0  0  0  0
 50 54  1  0  0  0  0
 50 65  1  0  0  0  0
 51 71  1  0  0  0  0
 52 66  1  0  0  0  0
 53 64  1  0  0  0  0
 54 80  1  0  0  0  0
 55 61  1  0  0  0  0
 56 62  1  0  0  0  0
 57 62  1  0  0  0  0
 58 62  1  0  0  0  0
 59 73  1  0  0  0  0
 60 62  1  0  0  0  0
 60 72  1  0  0  0  0
 61 73  1  0  0  0  0
 63 64  1  0  0  0  0
M  CHG  1  73   1
M  ISO  4  38 100  54 101  70 100  80 101
M  END
> <Batch ID>
0014

> <Smiles>
CNC(C)C(=O)NC(C(=O)N1Cc2cc([101O:1][101CH:1]3CCN(c4ccc([100NH:0][100C:0](=O)N5CCCC(n6nc(-c7ccc(Oc8ccc(F)cc8F)cc7)c(C(N)=O)c6N)C5)cc4F)C3)ccc2CC1C(=O)NC1CCCc2ccccc21)C(C)(C)C

> <Shape>
0.352

> <Color>
0.209

> <Negative vol penalty>
0.000

$$$$

  -OEChem-04042320513D

 82 90  0     1  0  0  0  0  0999 V2000
  -21.2086   -9.9433   18.3580 C   0  0  0  0  0  0  0  0  0  0  0  0
  -21.2574  -11.2733   17.9529 C   0  0  0  0  0  0  0  0  0  0  0  0
  -27.6144  -28.0786   22.2323 C   0  0  0  0  0  0  0  0  0  0  0  0
  -26.6948  -26.8194   20.3868 C   0  0  0  0  0  0  0  0  0  0  0  0
  -21.9316   -9.5293   19.4760 C   0  0  0  0  0  0  0  0  0  0  0  0
  -22.0285  -12.1904   18.6663 C   0  0  0  0  0  0  0  0  0  0  0  0
  -25.1202  -16.9608   16.3881 C   0  0  0  0  0  0  0  0  0  0  0  0
  -21.2448  -25.6771   18.8350 C   0  0  0  0  0  0  0  0  0  0  0  0
  -21.9868  -25.8884   21.1245 C   0  0  0  0  0  0  0  0  0  0  0  0
  -22.1028  -24.5920   18.6570 C   0  0  0  0  0  0  0  0  0  0  0  0
  -22.8449  -24.8031   20.9465 C   0  0  0  0  0  0  0  0  0  0  0  0
  -28.6317  -27.1343   22.3697 C   0  0  0  0  0  0  0  0  0  0  0  0
  -27.7122  -25.8751   20.5242 C   0  0  0  0  0  0  0  0  0  0  0  0
  -24.8210  -18.3201   16.3069 C   0  0  0  0  0  0  0  0  0  0  0  0
  -28.4254  -23.2568   22.5408 C   0  0  0  0  0  0  0  0  0  0  0  0
  -28.0689  -21.9090   22.4962 C   0  0  0  0  0  0  0  0  0  0  0  0
  -26.0710  -18.7101   18.3329 C   0  0  0  0  0  0  0  0  0  0  0  0
  -29.5018  -21.5935   20.5768 C   0  0  0  0  0  0  0  0  0  0  0  0
  -26.6459  -27.9211   21.2409 C   0  0  0  0  0  0  0  0  0  0  0  0
  -25.6116  -30.0546   20.2994 C   0  0  0  0  0  0  0  0  0  0  0  0
  -22.7195  -10.4397   20.1977 C   0  0  0  0  0  0  0  0  0  0  0  0
  -25.8892  -16.4635   17.4501 C   0  0  0  0  0  0  0  0  0  0  0  0
  -22.7616  -11.7885   19.7957 C   0  0  0  0  0  0  0  0  0  0  0  0
  -26.3807  -17.3445   18.4239 C   0  0  0  0  0  0  0  0  0  0  0  0
  -21.1868  -26.3254   20.0687 C   0  0  0  0  0  0  0  0  0  0  0  0
  -22.9029  -24.1549   19.7127 C   0  0  0  0  0  0  0  0  0  0  0  0
  -28.6807  -26.0326   21.5156 C   0  0  0  0  0  0  0  0  0  0  0  0
  -25.2940  -19.1945   17.2810 C   0  0  0  0  0  0  0  0  0  0  0  0
  -29.3200  -23.7730   21.6033 C   0  0  0  0  0  0  0  0  0  0  0  0
  -28.6072  -21.0773   21.5143 C   0  0  0  0  0  0  0  0  0  0  0  0
  -29.8582  -22.9413   20.6213 C   0  0  0  0  0  0  0  0  0  0  0  0
  -25.5944  -28.8959   21.0988 C   0  0  0  0  0  0  0  0  0  0  0  0
  -24.3858  -30.6366   20.5119 C   0  0  0  0  0  0  0  0  0  0  0  0
  -26.6434  -30.5595   19.4414 C   0  0  0  0  0  0  0  0  0  0  0  0
  -25.3849  -14.3906   19.8065 C   0  0  0  0  0  0  0  0  0  0  0  0
  -28.5424  -14.8666   20.3772 C   0  0  0  0  0  0  0  0  0  0  0  0
  -31.2688  -16.8958   20.0679 C   0  0  0  0  0  0  0  0  0  0  0  0
  -19.2185  -28.0129   22.5002 C   0  0  0  0  0  0  0  0  0  0  0  0
  -23.4461   -9.9554   21.4274 C   0  0  0  0  0  0  0  0  0  0  0  0
  -26.2255  -14.9986   17.5088 C   0  0  0  0  0  0  0  0  0  0  0  0
  -27.2274  -16.8639   19.5731 C   0  0  0  0  0  0  0  0  0  0  0  0
  -24.5356  -10.9110   21.9071 C   0  0  0  0  0  0  0  0  0  0  0  0
  -20.9320  -31.0296   23.7908 C   0  0  0  0  0  0  0  0  0  0  0  0
  -24.0151  -12.3446   21.9324 C   0  0  0  0  0  0  0  0  0  0  0  0
  -22.3449  -30.8753   23.2307 C   0  0  0  0  0  0  0  0  0  0  0  0
  -20.2536  -29.6789   23.9985 C   0  0  0  0  0  0  0  0  0  0  0  0
  -21.6446  -28.6682   22.2214 C   0  0  0  0  0  0  0  0  0  0  0  0
  -23.6062  -12.8079   20.5290 C   0  0  1  0  0  0  0  0  0  0  0  0
  -26.5857  -14.5240   18.9132 C   0  0  1  0  0  0  0  0  0  0  0  0
  -22.3389  -30.0126   21.9568 C   0  0  2  0  0  0  0  0  0  0  0  0
  -33.7019  -17.0312   20.6673 C   0  0  0  0  0  0  0  0  0  0  0  0
  -27.7930  -15.5342   23.2586 C   0  0  0  0  0  0  0  0  0  0  0  0
  -30.0607  -16.5577   23.5378 C   0  0  0  0  0  0  0  0  0  0  0  0
  -29.8467  -14.1282   23.0139 C   0  0  0  0  0  0  0  0  0  0  0  0
  -18.1919  -26.3673   20.9779 C   0  0  0  0  0  0  0  0  0  0  0  0
  -32.0815  -17.0204   17.2249 C   0  0  0  0  0  0  0  0  0  0  0  0
  -20.2700  -27.4860   20.2598 C   0  0  0  0  0  0  0  0  0  0  0  0
  -23.8760  -22.3463   18.2958 C   0  0  0  0  0  0  0  0  0  0  0  0
  -24.9053  -21.2372   18.4353 C   0  0  0  0  0  0  0  0  0  1  0  0
  -29.3435  -15.8329   21.2159 C   0  0  1  0  0  0  0  0  0  0  0  0
  -32.6891  -16.6124   19.6130 C   0  0  2  0  0  0  0  0  0  0  0  0
  -29.2434  -15.5224   22.7361 C   0  0  0  0  0  0  0  0  0  0  0  0
  -24.4485  -28.7491   21.7693 N   0  0  0  0  0  0  0  0  0  0  0  0
  -23.7344  -29.8231   21.3917 N   0  0  0  0  0  0  0  0  0  0  0  0
  -27.5237  -15.4219   19.5900 N   0  0  0  0  0  0  0  0  0  0  0  0
  -20.3003  -28.8623   22.7851 N   0  0  0  0  0  0  0  0  0  0  0  0
  -23.8125  -31.7599   20.0302 N   0  0  0  0  0  0  0  0  0  0  0  0
  -27.8401  -29.8372   19.3389 N   0  0  0  0  0  0  0  0  0  0  0  0
  -23.7537  -23.0762   19.5369 N   0  0  0  0  0  0  0  0  0  0  0  0
  -24.7760  -13.1515   19.7493 N   0  0  0  0  0  0  0  0  0  0  0  0
  -30.7031  -15.8018   20.6879 N   0  0  0  0  0  0  0  0  0  0  0  0
  -19.2941  -27.2541   21.3224 N   0  0  0  0  0  0  0  0  0  0  0  0
  -32.9874  -17.3527   18.3545 N   0  3  0  0  0  0  0  0  0  0  0  0
  -26.5144  -31.6284   18.7977 O   0  0  0  0  0  0  0  0  0  0  0  0
  -25.0374  -15.3410   20.4976 O   0  0  0  0  0  0  0  0  0  0  0  0
  -28.8153  -13.6641   20.4135 O   0  0  0  0  0  0  0  0  0  0  0  0
  -30.7177  -17.9806   19.8943 O   0  0  0  0  0  0  0  0  0  0  0  0
  -18.2366  -27.9443   23.2506 O   0  0  0  0  0  0  0  0  0  0  0  0
  -29.6735  -25.1111   21.6493 O   0  0  0  0  0  0  0  0  0  0  0  0
  -25.0029  -20.5217   17.2045 O   0  0  0  0  0  0  0  0  0  1  0  0
  -28.2660  -19.7827   21.4726 F   0  0  0  0  0  0  0  0  0  0  0  0
  -30.7191  -23.4312   19.7187 F   0  0  0  0  0  0  0  0  0  0  0  0
  1  2  1  0  0  0  0
  1  5  2  0  0  0  0
  2  6  2  0  0  0  0
  3 12  2  0  0  0  0
  3 19  1  0  0  0  0
  4 13  1  0  0  0  0
  4 19  2  0  0  0  0
  5 21  1  0  0  0  0
  6 23  1  0  0  0  0
  7 14  2  0  0  0  0
  7 22  1  0  0  0  0
  8 10  2  0  0  0  0
  8 25  1  0  0  0  0
  9 11  1  0  0  0  0
  9 25  2  0  0  0  0
 10 26  1  0  0  0  0
 11 26  2  0  0  0  0
 12 27  1  0  0  0  0
 13 27  2  0  0  0  0
 14 28  1  0  0  0  0
 15 16  2  0  0  0  0
 15 29  1  0  0  0  0
 16 30  1  0  0  0  0
 17 24  1  0  0  0  0
 17 28  2  0  0  0  0
 18 30  2  0  0  0  0
 18 31  1  0  0  0  0
 19 32  1  0  0  0  0
 20 32  1  0  0  0  0
 20 33  2  0  0  0  0
 20 34  1  0  0  0  0
 21 23  2  0  0  0  0
 21 39  1  0  0  0  0
 22 24  2  0  0  0  0
 22 40  1  0  0  0  0
 23 48  1  0  0  0  0
 24 41  1  0  0  0  0
 25 57  1  0  0  0  0
 26 69  1  0  0  0  0
 27 79  1  0  0  0  0
 28 80  1  0  0  0  0
 29 31  2  0  0  0  0
 29 79  1  0  0  0  0
 30 81  1  0  0  0  0
 31 82  1  0  0  0  0
 32 63  2  0  0  0  0
 33 64  1  0  0  0  0
 33 67  1  0  0  0  0
 34 68  1  0  0  0  0
 34 74  2  0  0  0  0
 35 49  1  0  0  0  0
 35 70  1  0  0  0  0
 35 75  2  0  0  0  0
 36 60  1  0  0  0  0
 36 65  1  0  0  0  0
 36 76  2  0  0  0  0
 37 61  1  0  0  0  0
 37 71  1  0  0  0  0
 37 77  2  0  0  0  0
 38 66  1  0  0  0  0
 38 72  1  0  0  0  0
 38 78  2  0  0  0  0
 39 42  1  0  0  0  0
 40 49  1  0  0  0  0
 41 65  1  0  0  0  0
 42 44  1  0  0  0  0
 43 45  1  0  0  0  0
 43 46  1  0  0  0  0
 44 48  1  0  0  0  0
 45 50  1  0  0  0  0
 46 66  1  0  0  0  0
 47 50  1  0  0  0  0
 47 66  1  0  0  0  0
 48 70  1  0  0  0  0
 49 65  1  0  0  0  0
 50 64  1  0  0  0  0
 51 61  1  0  0  0  0
 52 62  1  0  0  0  0
 53 62  1  0  0  0  0
 54 62  1  0  0  0  0
 55 72  1  0  0  0  0
 56 73  1  0  0  0  0
 57 72  1  0  0  0  0
 58 59  1  0  0  0  0
 58 69  1  0  0  0  0
 59 80  1  0  0  0  0
 60 62  1  0  0  0  0
 60 71  1  0  0  0  0
 61 73  1  0  0  0  0
 63 64  1  0  0  0  0
M  CHG  1  73   1
M  ISO  4  38 100  59 101  72 100  80 101
M  END
> <Batch ID>
0014

> <Smiles>
CNC(C)C(=O)NC(C(=O)N1Cc2cc([101O:1][101CH2:1]CNc3ccc(C[100N:0](C)[100C:0](=O)N4CCCC(n5nc(-c6ccc(Oc7ccc(F)cc7F)cc6)c(C(N)=O)c5N)C4)cc3)ccc2CC1C(=O)NC1CCCc2ccccc21)C(C)(C)C

> <Shape>
0.242

> <Color>
0.049

> <Negative vol penalty>
0.000

$$$$

  -OEChem-04042320513D

 85 93  0     1  0  0  0  0  0999 V2000
  -25.9538  -18.1386   25.2978 C   0  0  0  0  0  0  0  0  0  0  0  0
  -26.7551  -19.1169   24.7201 C   0  0  0  0  0  0  0  0  0  0  0  0
  -23.8456   -9.6331   20.4597 C   0  0  0  0  0  0  0  0  0  0  0  0
  -24.1705  -10.2198   22.7808 C   0  0  0  0  0  0  0  0  0  0  0  0
  -24.5809  -18.3460   25.4129 C   0  0  0  0  0  0  0  0  0  0  0  0
  -26.1856  -20.3078   24.2682 C   0  0  0  0  0  0  0  0  0  0  0  0
  -29.2713  -23.8248   22.7474 C   0  0  0  0  0  0  0  0  0  0  0  0
  -23.2902   -8.4133   20.8457 C   0  0  0  0  0  0  0  0  0  0  0  0
  -23.6150   -8.9999   23.1668 C   0  0  0  0  0  0  0  0  0  0  0  0
  -29.9848  -23.7365   21.5528 C   0  0  0  0  0  0  0  0  0  0  0  0
  -21.9521   -6.1932   24.7716 C   0  0  0  0  0  0  0  0  0  0  0  0
  -21.0197   -6.2037   25.8090 C   0  0  0  0  0  0  0  0  0  0  0  0
  -28.4508  -25.2914   20.5288 C   0  0  0  0  0  0  0  0  0  0  0  0
  -27.8917  -19.6617   20.2421 C   0  0  0  0  0  0  0  0  0  0  0  0
  -29.4819  -19.5036   17.9554 C   0  0  0  0  0  0  0  0  0  0  0  0
  -19.5959   -7.6646   24.5146 C   0  0  0  0  0  0  0  0  0  0  0  0
  -24.2858  -10.5364   21.4272 C   0  0  0  0  0  0  0  0  0  0  0  0
  -24.1810  -13.0112   20.8172 C   0  0  0  0  0  0  0  0  0  0  0  0
  -23.9933  -19.5352   24.9507 C   0  0  0  0  0  0  0  0  0  0  0  0
  -28.1339  -24.6399   22.8386 C   0  0  0  0  0  0  0  0  0  0  0  0
  -24.8053  -20.5460   24.3973 C   0  0  0  0  0  0  0  0  0  0  0  0
  -27.7261  -25.3901   21.7264 C   0  0  0  0  0  0  0  0  0  0  0  0
  -28.5585  -18.4752   19.9371 C   0  0  0  0  0  0  0  0  0  0  0  0
  -23.1748   -8.0967   22.1993 C   0  0  0  0  0  0  0  0  0  0  0  0
  -29.5729  -24.4677   20.4425 C   0  0  0  0  0  0  0  0  0  0  0  0
  -21.7064   -6.9185   23.6057 C   0  0  0  0  0  0  0  0  0  0  0  0
  -28.8150  -20.6901   18.2605 C   0  0  0  0  0  0  0  0  0  0  0  0
  -19.8416   -6.9393   25.6805 C   0  0  0  0  0  0  0  0  0  0  0  0
  -28.0199  -20.7692   19.4038 C   0  0  0  0  0  0  0  0  0  0  0  0
  -29.3536  -18.3961   18.7938 C   0  0  0  0  0  0  0  0  0  0  0  0
  -20.5283   -7.6542   23.4772 C   0  0  0  0  0  0  0  0  0  0  0  0
  -24.8601  -11.7964   21.0290 C   0  0  0  0  0  0  0  0  0  0  0  0
  -25.1665  -13.8971   20.4562 C   0  0  0  0  0  0  0  0  0  0  0  0
  -22.7841  -13.3119   20.9363 C   0  0  0  0  0  0  0  0  0  0  0  0
  -25.0519  -24.1324   23.4278 C   0  0  0  0  0  0  0  0  0  0  0  0
  -24.9121  -27.3730   23.3930 C   0  0  0  0  0  0  0  0  0  0  0  0
  -26.2729  -30.3205   22.3408 C   0  0  0  0  0  0  0  0  0  0  0  0
  -30.3495  -15.8888   21.6754 C   0  0  0  0  0  0  0  0  0  0  0  0
  -22.5034  -19.7108   25.1074 C   0  0  0  0  0  0  0  0  0  0  0  0
  -27.3909  -24.7448   24.1421 C   0  0  0  0  0  0  0  0  0  0  0  0
  -26.5237  -26.2956   21.7783 C   0  0  0  0  0  0  0  0  0  0  0  0
  -21.9352  -20.8015   24.2053 C   0  0  0  0  0  0  0  0  0  0  0  0
  -30.0028  -13.1438   19.2165 C   0  0  0  0  0  0  0  0  0  0  0  0
  -22.7624  -22.0711   24.3406 C   0  0  0  0  0  0  0  0  0  0  0  0
  -28.6017  -12.6096   19.5089 C   0  0  0  0  0  0  0  0  0  0  0  0
  -30.6432  -13.7640   20.4546 C   0  0  0  0  0  0  0  0  0  0  0  0
  -28.4140  -14.2875   21.3878 C   0  0  0  0  0  0  0  0  0  0  0  0
  -24.2037  -21.8365   23.8709 C   0  0  1  0  0  0  0  0  0  0  0  0
  -25.9477  -25.2092   23.9716 C   0  0  1  0  0  0  0  0  0  0  0  0
  -27.7224  -13.6977   20.1495 C   0  0  2  0  0  0  0  0  0  0  0  0
  -25.9140  -32.8022   22.4393 C   0  0  0  0  0  0  0  0  0  0  0  0
  -22.6804  -27.1298   21.3265 C   0  0  0  0  0  0  0  0  0  0  0  0
  -23.0227  -29.5477   20.7747 C   0  0  0  0  0  0  0  0  0  0  0  0
  -22.3022  -28.8836   23.0687 C   0  0  0  0  0  0  0  0  0  0  0  0
  -30.1718  -18.2759   22.2669 C   0  0  0  0  0  0  0  0  0  0  0  0
  -28.8552  -30.7562   23.7195 C   0  0  0  0  0  0  0  0  0  0  0  0
  -28.4193  -17.2931   20.8357 C   0  0  0  0  0  0  0  0  0  0  0  0
  -30.1840  -23.7795   16.9404 C   0  0  0  0  0  0  0  0  0  0  0  0
  -29.5304  -24.5648   18.0666 C   0  0  0  0  0  0  0  0  0  1  0  0
  -30.2526  -22.2922   17.2492 C   0  0  0  0  0  0  0  0  0  0  0  0
  -24.6765  -28.4216   22.3329 C   0  0  1  0  0  0  0  0  0  0  0  0
  -26.5933  -31.6044   23.0847 C   0  0  2  0  0  0  0  0  0  0  0  0
  -23.1920  -28.4772   21.8738 C   0  0  0  0  0  0  0  0  0  0  0  0
  -26.1754  -11.8978   20.8198 N   0  0  0  0  0  0  0  0  0  0  0  0
  -26.3306  -13.1868   20.4727 N   0  0  0  0  0  0  0  0  0  0  0  0
  -25.8265  -26.3594   23.0735 N   0  0  0  0  0  0  0  0  0  0  0  0
  -29.7682  -14.7635   21.0682 N   0  0  0  0  0  0  0  0  0  0  0  0
  -25.1421  -15.2067   20.1294 N   0  0  0  0  0  0  0  0  0  0  0  0
  -21.9098  -12.2850   21.3175 N   0  0  0  0  0  0  0  0  0  0  0  0
  -25.0042  -22.9930   24.2081 N   0  0  0  0  0  0  0  0  0  0  0  0
  -25.1799  -29.6765   22.8809 N   0  0  0  0  0  0  0  0  0  0  0  0
  -29.6067  -17.0791   21.6602 N   0  0  0  0  0  0  0  0  0  0  0  0
  -28.0639  -31.8457   23.0920 N   0  3  0  0  0  0  0  0  0  0  0  0
  -22.3228  -14.4532   20.6954 O   0  0  0  0  0  0  0  0  0  0  0  0
  -24.4475  -24.3219   22.3788 O   0  0  0  0  0  0  0  0  0  0  0  0
  -24.3123  -27.4544   24.4679 O   0  0  0  0  0  0  0  0  0  0  0  0
  -26.9247  -29.9300   21.3747 O   0  0  0  0  0  0  0  0  0  0  0  0
  -31.4726  -15.8352   22.1928 O   0  0  0  0  0  0  0  0  0  0  0  0
  -22.6327   -6.9065   22.5764 O   0  0  0  0  0  0  0  0  0  0  0  0
  -30.2671  -24.3829   19.2751 O   0  0  0  0  0  0  0  0  0  1  0  0
  -28.9411  -21.7772   17.4353 O   0  0  0  0  0  0  0  0  0  0  0  0
  -18.9456   -6.9480   26.6761 F   0  0  0  0  0  0  0  0  0  0  0  0
  -27.3762  -21.9063   19.7018 F   0  0  0  0  0  0  0  0  0  0  0  0
  -29.9989  -17.2605   18.4929 F   0  0  0  0  0  0  0  0  0  0  0  0
  -20.2862   -8.3520   22.3590 F   0  0  0  0  0  0  0  0  0  0  0  0
  1  2  1  0  0  0  0
  1  5  2  0  0  0  0
  2  6  2  0  0  0  0
  3  8  2  0  0  0  0
  3 17  1  0  0  0  0
  4  9  1  0  0  0  0
  4 17  2  0  0  0  0
  5 19  1  0  0  0  0
  6 21  1  0  0  0  0
  7 10  2  0  0  0  0
  7 20  1  0  0  0  0
  8 24  1  0  0  0  0
  9 24  2  0  0  0  0
 10 25  1  0  0  0  0
 11 12  2  0  0  0  0
 11 26  1  0  0  0  0
 12 28  1  0  0  0  0
 13 22  1  0  0  0  0
 13 25  2  0  0  0  0
 14 23  2  0  0  0  0
 14 29  1  0  0  0  0
 15 27  1  0  0  0  0
 15 30  2  0  0  0  0
 16 28  2  0  0  0  0
 16 31  1  0  0  0  0
 17 32  1  0  0  0  0
 18 32  1  0  0  0  0
 18 33  2  0  0  0  0
 18 34  1  0  0  0  0
 19 21  2  0  0  0  0
 19 39  1  0  0  0  0
 20 22  2  0  0  0  0
 20 40  1  0  0  0  0
 21 48  1  0  0  0  0
 22 41  1  0  0  0  0
 23 30  1  0  0  0  0
 23 57  1  0  0  0  0
 24 79  1  0  0  0  0
 25 80  1  0  0  0  0
 26 31  2  0  0  0  0
 26 79  1  0  0  0  0
 27 29  2  0  0  0  0
 27 81  1  0  0  0  0
 28 82  1  0  0  0  0
 29 83  1  0  0  0  0
 30 84  1  0  0  0  0
 31 85  1  0  0  0  0
 32 64  2  0  0  0  0
 33 65  1  0  0  0  0
 33 68  1  0  0  0  0
 34 69  1  0  0  0  0
 34 74  2  0  0  0  0
 35 49  1  0  0  0  0
 35 70  1  0  0  0  0
 35 75  2  0  0  0  0
 36 61  1  0  0  0  0
 36 66  1  0  0  0  0
 36 76  2  0  0  0  0
 37 62  1  0  0  0  0
 37 71  1  0  0  0  0
 37 77  2  0  0  0  0
 38 67  1  0  0  0  0
 38 72  1  0  0  0  0
 38 78  2  0  0  0  0
 39 42  1  0  0  0  0
 40 49  1  0  0  0  0
 41 66  1  0  0  0  0
 42 44  1  0  0  0  0
 43 45  1  0  0  0  0
 43 46  1  0  0  0  0
 44 48  1  0  0  0  0
 45 50  1  0  0  0  0
 46 67  1  0  0  0  0
 47 50  1  0  0  0  0
 47 67  1  0  0  0  0
 48 70  1  0  0  0  0
 49 66  1  0  0  0  0
 50 65  1  0  0  0  0
 51 62  1  0  0  0  0
 52 63  1  0  0  0  0
 53 63  1  0  0  0  0
 54 63  1  0  0  0  0
 55 72  1  0  0  0  0
 56 73  1  0  0  0  0
 57 72  1  0  0  0  0
 58 59  1  0  0  0  0
 58 60  1  0  0  0  0
 59 80  1  0  0  0  0
 60 81  1  0  0  0  0
 61 63  1  0  0  0  0
 61 71  1  0  0  0  0
 62 73  1  0  0  0  0
 64 65  1  0  0  0  0
M  CHG  1  73   1
M  ISO  4  38 100  59 101  72 100  80 101
M  END
> <Batch ID>
0014

> <Smiles>
CNC(C)C(=O)NC(C(=O)N1Cc2cc([101O:1][101CH2:1]CCOc3cc(F)c(C[100N:0](C)[100C:0](=O)N4CCCC(n5nc(-c6ccc(Oc7ccc(F)cc7F)cc6)c(C(N)=O)c5N)C4)cc3F)ccc2CC1C(=O)NC1CCCc2ccccc21)C(C)(C)C

> <Shape>
0.295

> <Color>
0.131

> <Negative vol penalty>
0.000

$$$$

  -OEChem-04042320513D

 88 97  0     1  0  0  0  0  0999 V2000
  -18.0813  -32.2367   17.1893 C   0  0  0  0  0  0  0  0  0  0  0  0
  -18.5294  -30.9345   17.3867 C   0  0  0  0  0  0  0  0  0  0  0  0
  -22.5525  -10.4535   20.3859 C   0  0  0  0  0  0  0  0  0  0  0  0
  -24.4551   -9.4400   21.4767 C   0  0  0  0  0  0  0  0  0  0  0  0
  -18.9714  -33.3038   17.3033 C   0  0  0  0  0  0  0  0  0  0  0  0
  -19.8682  -30.6986   17.6971 C   0  0  0  0  0  0  0  0  0  0  0  0
  -24.0255  -26.2353   21.4537 C   0  0  0  0  0  0  0  0  0  0  0  0
  -29.2480  -18.8008   21.5414 C   0  0  0  0  0  0  0  0  0  0  0  0
  -29.3917  -20.1375   21.1697 C   0  0  0  0  0  0  0  0  0  0  0  0
  -21.8418   -9.2605   20.5168 C   0  0  0  0  0  0  0  0  0  0  0  0
  -23.7444   -8.2469   21.6077 C   0  0  0  0  0  0  0  0  0  0  0  0
  -25.1457  -25.4198   21.2990 C   0  0  0  0  0  0  0  0  0  0  0  0
  -21.3478   -6.9863   23.6294 C   0  0  0  0  0  0  0  0  0  0  0  0
  -21.4028   -6.3327   24.8604 C   0  0  0  0  0  0  0  0  0  0  0  0
  -26.5754  -27.3467   21.5482 C   0  0  0  0  0  0  0  0  0  0  0  0
  -29.8744  -19.4551   18.9028 C   0  0  0  0  0  0  0  0  0  0  0  0
  -22.3605   -4.3916   23.7871 C   0  0  0  0  0  0  0  0  0  0  0  0
  -23.8591  -10.5433   20.8658 C   0  0  0  0  0  0  0  0  0  0  0  0
  -24.2489  -13.0335   21.2591 C   0  0  0  0  0  0  0  0  0  0  0  0
  -20.3197  -33.0816   17.6248 C   0  0  0  0  0  0  0  0  0  0  0  0
  -24.1717  -27.6166   21.6462 C   0  0  0  0  0  0  0  0  0  0  0  0
  -20.7775  -31.7637   17.8142 C   0  0  0  0  0  0  0  0  0  0  0  0
  -25.4555  -28.1772   21.7076 C   0  0  0  0  0  0  0  0  0  0  0  0
  -29.4175  -17.7912   20.5939 C   0  0  0  0  0  0  0  0  0  0  0  0
  -29.7049  -20.4646   19.8504 C   0  0  0  0  0  0  0  0  0  0  0  0
  -22.4378   -8.1572   21.1277 C   0  0  0  0  0  0  0  0  0  0  0  0
  -26.4208  -25.9759   21.3433 C   0  0  0  0  0  0  0  0  0  0  0  0
  -21.7991   -6.3424   22.4772 C   0  0  0  0  0  0  0  0  0  0  0  0
  -21.9091   -5.0354   24.9393 C   0  0  0  0  0  0  0  0  0  0  0  0
  -29.7307  -18.1184   19.2746 C   0  0  0  0  0  0  0  0  0  0  0  0
  -22.3054   -5.0451   22.5560 C   0  0  0  0  0  0  0  0  0  0  0  0
  -24.5940  -11.7753   20.7303 C   0  0  0  0  0  0  0  0  0  0  0  0
  -25.2626  -13.8664   20.8529 C   0  0  0  0  0  0  0  0  0  0  0  0
  -23.1135  -13.4152   22.0471 C   0  0  0  0  0  0  0  0  0  0  0  0
  -23.2874  -30.2116   20.0377 C   0  0  0  0  0  0  0  0  0  0  0  0
  -27.9394  -25.0364   19.8608 C   0  0  0  0  0  0  0  0  0  1  0  0
  -24.4596  -31.7497   22.6420 C   0  0  0  0  0  0  0  0  0  0  0  0
  -26.0896  -32.7571   25.4661 C   0  0  0  0  0  0  0  0  0  0  0  0
  -30.8920  -14.5188   20.4045 C   0  0  0  0  0  0  0  0  0  0  0  0
  -21.2545  -34.2633   17.6906 C   0  0  0  0  0  0  0  0  0  0  0  0
  -22.9542  -28.4786   21.8381 C   0  0  0  0  0  0  0  0  0  0  0  0
  -25.6672  -29.6513   21.9322 C   0  0  0  0  0  0  0  0  0  0  0  0
  -22.5756  -33.9565   18.3911 C   0  0  0  0  0  0  0  0  0  0  0  0
  -31.2148  -23.6115   18.5017 C   0  0  0  0  0  0  0  0  0  0  0  0
  -28.9979  -13.1581   17.5301 C   0  0  0  0  0  0  0  0  0  0  0  0
  -23.1584  -32.6427   17.8801 C   0  0  0  0  0  0  0  0  0  0  0  0
  -30.0303  -24.5600   18.6271 C   0  0  0  0  0  0  0  0  0  0  0  0
  -27.6845  -12.7183   18.1748 C   0  0  0  0  0  0  0  0  0  0  0  0
  -30.7670  -22.1556   18.3882 C   0  0  0  0  0  0  0  0  0  0  0  0
  -30.1597  -13.1064   18.5176 C   0  0  0  0  0  0  0  0  0  0  0  0
  -28.6929  -22.6926   19.6778 C   0  0  0  0  0  0  0  0  0  0  0  0
  -28.6075  -13.4353   20.4141 C   0  0  0  0  0  0  0  0  0  0  0  0
  -22.2169  -31.4692   18.1767 C   0  0  1  0  0  0  0  0  0  0  0  0
  -23.2055  -29.9481   21.5147 C   0  0  1  0  0  0  0  0  0  0  0  0
  -29.1451  -24.1492   19.8001 C   0  0  2  0  0  0  0  0  0  0  0  0
  -27.4080  -13.5202   19.4585 C   0  0  2  0  0  0  0  0  0  0  0  0
  -26.8027  -34.8239   26.6978 C   0  0  0  0  0  0  0  0  0  0  0  0
  -26.7166  -32.1664   20.6314 C   0  0  0  0  0  0  0  0  0  0  0  0
  -27.8975  -33.5526   22.3496 C   0  0  0  0  0  0  0  0  0  0  0  0
  -25.6735  -34.2748   21.4806 C   0  0  0  0  0  0  0  0  0  0  0  0
  -31.5921  -16.4228   21.8061 C   0  0  0  0  0  0  0  0  0  0  0  0
  -24.4739  -32.0403   27.8398 C   0  0  0  0  0  0  0  0  0  0  0  0
  -29.2632  -16.3630   20.9948 C   0  0  0  0  0  0  0  0  0  0  0  0
  -25.8090  -32.2934   23.0452 C   0  0  1  0  0  0  0  0  0  0  0  0
  -25.7198  -33.7685   26.5360 C   0  0  2  0  0  0  0  0  0  0  0  0
  -26.5166  -33.0450   21.8824 C   0  0  0  0  0  0  0  0  0  0  0  0
  -25.7375  -11.8019   20.0406 N   0  0  0  0  0  0  0  0  0  0  0  0
  -26.1197  -13.0870   20.1332 N   0  0  0  0  0  0  0  0  0  0  0  0
  -29.8487  -21.8070   19.4776 N   0  0  1  0  0  0  0  0  0  0  0  0
  -24.4452  -30.4534   22.1080 N   0  0  0  0  0  0  0  0  0  0  0  0
  -29.8534  -13.8402   19.7460 N   0  0  0  0  0  0  0  0  0  0  0  0
  -25.4955  -15.1823   21.0446 N   0  0  0  0  0  0  0  0  0  0  0  0
  -23.2107  -13.3326   23.4429 N   0  0  0  0  0  0  0  0  0  0  0  0
  -22.3194  -31.0777   19.5662 N   0  0  0  0  0  0  0  0  0  0  0  0
  -25.5821  -33.1091   24.2333 N   0  0  0  0  0  0  0  0  0  0  0  0
  -30.5483  -15.6781   21.1163 N   0  0  0  0  0  0  0  0  0  0  0  0
  -25.5273  -33.0879   27.8477 N   0  3  0  0  0  0  0  0  0  0  0  0
  -22.0389  -13.8020   21.5284 O   0  0  0  0  0  0  0  0  0  0  0  0
  -24.1648  -29.6705   19.3752 O   0  0  0  0  0  0  0  0  0  0  0  0
  -27.4119  -25.5487   18.8825 O   0  0  0  0  0  0  0  0  0  0  0  0
  -23.4545  -32.4467   22.8019 O   0  0  0  0  0  0  0  0  0  0  0  0
  -26.7646  -31.7569   25.6997 O   0  0  0  0  0  0  0  0  0  0  0  0
  -32.0615  -14.1169   20.3510 O   0  0  0  0  0  0  0  0  0  0  0  0
  -21.7445   -6.9929   21.2559 O   0  0  0  0  0  0  0  0  0  0  0  0
  -27.5158  -25.1823   21.1920 O   0  0  0  0  0  0  0  0  0  1  0  0
  -21.9633   -4.4085   26.1218 F   0  0  0  0  0  0  0  0  0  0  0  0
  -29.8966  -17.1552   18.3574 F   0  0  0  0  0  0  0  0  0  0  0  0
  -22.7415   -4.4219   21.4528 F   0  0  0  0  0  0  0  0  0  0  0  0
  1  2  1  0  0  0  0
  1  5  2  0  0  0  0
  2  6  2  0  0  0  0
  3 10  2  0  0  0  0
  3 18  1  0  0  0  0
  4 11  1  0  0  0  0
  4 18  2  0  0  0  0
  5 20  1  0  0  0  0
  6 22  1  0  0  0  0
  7 12  2  0  0  0  0
  7 21  1  0  0  0  0
  8  9  2  0  0  0  0
  8 24  1  0  0  0  0
  9 25  1  0  0  0  0
 10 26  1  0  0  0  0
 11 26  2  0  0  0  0
 12 27  1  0  0  0  0
 13 14  2  0  0  0  0
 13 28  1  0  0  0  0
 14 29  1  0  0  0  0
 15 23  1  0  0  0  0
 15 27  2  0  0  0  0
 16 25  2  0  0  0  0
 16 30  1  0  0  0  0
 17 29  2  0  0  0  0
 17 31  1  0  0  0  0
 18 32  1  0  0  0  0
 19 32  1  0  0  0  0
 19 33  2  0  0  0  0
 19 34  1  0  0  0  0
 20 22  2  0  0  0  0
 20 40  1  0  0  0  0
 21 23  2  0  0  0  0
 21 41  1  0  0  0  0
 22 53  1  0  0  0  0
 23 42  1  0  0  0  0
 24 30  2  0  0  0  0
 24 63  1  0  0  0  0
 25 69  1  0  0  0  0
 26 84  1  0  0  0  0
 27 85  1  0  0  0  0
 28 31  2  0  0  0  0
 28 84  1  0  0  0  0
 29 86  1  0  0  0  0
 30 87  1  0  0  0  0
 31 88  1  0  0  0  0
 32 67  2  0  0  0  0
 33 68  1  0  0  0  0
 33 72  1  0  0  0  0
 34 73  1  0  0  0  0
 34 78  2  0  0  0  0
 35 54  1  0  0  0  0
 35 74  1  0  0  0  0
 35 79  2  0  0  0  0
 36 55  1  0  0  0  0
 36 80  2  0  0  0  0
 36 85  1  0  0  0  0
 37 64  1  0  0  0  0
 37 70  1  0  0  0  0
 37 81  2  0  0  0  0
 38 65  1  0  0  0  0
 38 75  1  0  0  0  0
 38 82  2  0  0  0  0
 39 71  1  0  0  0  0
 39 76  1  0  0  0  0
 39 83  2  0  0  0  0
 40 43  1  0  0  0  0
 41 54  1  0  0  0  0
 42 70  1  0  0  0  0
 43 46  1  0  0  0  0
 44 47  1  0  0  0  0
 44 49  1  0  0  0  0
 45 48  1  0  0  0  0
 45 50  1  0  0  0  0
 46 53  1  0  0  0  0
 47 55  1  0  0  0  0
 48 56  1  0  0  0  0
 49 69  1  0  0  0  0
 50 71  1  0  0  0  0
 51 55  1  0  0  0  0
 51 69  1  0  0  0  0
 52 56  1  0  0  0  0
 52 71  1  0  0  0  0
 53 74  1  0  0  0  0
 54 70  1  0  0  0  0
 56 68  1  0  0  0  0
 57 65  1  0  0  0  0
 58 66  1  0  0  0  0
 59 66  1  0  0  0  0
 60 66  1  0  0  0  0
 61 76  1  0  0  0  0
 62 77  1  0  0  0  0
 63 76  1  0  0  0  0
 64 66  1  0  0  0  0
 64 75  1  0  0  0  0
 65 77  1  0  0  0  0
 67 68  1  0  0  0  0
M  CHG  1  77   1
M  ISO  4  36 101  39 100  76 100  85 101
M  END
> <Batch ID>
0014

> <Smiles>
CNC(C)C(=O)NC(C(=O)N1Cc2cc([101O:1][101C:1](=O)C3CCCN(c4ccc(C[100N:0](C)[100C:0](=O)N5CCCC(n6nc(-c7ccc(Oc8ccc(F)cc8F)cc7)c(C(N)=O)c6N)C5)c(F)c4)C3)ccc2CC1C(=O)NC1CCCc2ccccc21)C(C)(C)C

> <Shape>
0.380

> <Color>
0.176

> <Negative vol penalty>
0.000

$$$$

  -OEChem-04042320513D

 89 98  0     1  0  0  0  0  0999 V2000
  -26.9293  -34.2223   25.7687 C   0  0  0  0  0  0  0  0  0  0  0  0
  -27.3213  -33.0414   25.1464 C   0  0  0  0  0  0  0  0  0  0  0  0
  -24.0398  -12.6074   20.7057 C   0  0  0  0  0  0  0  0  0  0  0  0
  -26.4412  -12.8253   20.8566 C   0  0  0  0  0  0  0  0  0  0  0  0
  -25.5989  -34.4024   26.1448 C   0  0  0  0  0  0  0  0  0  0  0  0
  -26.3831  -32.0394   24.9008 C   0  0  0  0  0  0  0  0  0  0  0  0
  -26.7921  -30.0945   20.2429 C   0  0  0  0  0  0  0  0  0  0  0  0
  -31.2582  -26.0429   18.0606 C   0  0  0  0  0  0  0  0  0  0  0  0
  -32.1411  -24.9873   17.8333 C   0  0  0  0  0  0  0  0  0  0  0  0
  -30.1471  -19.9881   19.7967 C   0  0  0  0  0  0  0  0  0  0  0  0
  -29.0303  -21.5984   18.3836 C   0  0  0  0  0  0  0  0  0  0  0  0
  -24.1911  -11.3615   20.0971 C   0  0  0  0  0  0  0  0  0  0  0  0
  -26.5925  -11.5794   20.2480 C   0  0  0  0  0  0  0  0  0  0  0  0
  -27.8187  -29.1770   20.0239 C   0  0  0  0  0  0  0  0  0  0  0  0
  -24.8697   -8.1893   21.0507 C   0  0  0  0  0  0  0  0  0  0  0  0
  -24.0591   -7.1463   21.4987 C   0  0  0  0  0  0  0  0  0  0  0  0
  -31.3764  -20.3682   19.2584 C   0  0  0  0  0  0  0  0  0  0  0  0
  -30.2596  -21.9785   17.8452 C   0  0  0  0  0  0  0  0  0  0  0  0
  -26.2390  -27.3668   20.2405 C   0  0  0  0  0  0  0  0  0  0  0  0
  -32.1103  -24.4542   20.1896 C   0  0  0  0  0  0  0  0  0  0  0  0
  -23.1279   -6.9176   19.2811 C   0  0  0  0  0  0  0  0  0  0  0  0
  -25.1649  -13.3393   21.0854 C   0  0  0  0  0  0  0  0  0  0  0  0
  -24.8988  -14.8923   23.0917 C   0  0  0  0  0  0  0  0  0  0  0  0
  -24.6421  -33.4060   25.8949 C   0  0  0  0  0  0  0  0  0  0  0  0
  -25.4810  -29.6540   20.4736 C   0  0  0  0  0  0  0  0  0  0  0  0
  -25.0389  -32.2058   25.2751 C   0  0  0  0  0  0  0  0  0  0  0  0
  -25.1970  -28.2809   20.4596 C   0  0  0  0  0  0  0  0  0  0  0  0
  -30.8013  -26.3042   19.3524 C   0  0  0  0  0  0  0  0  0  0  0  0
  -28.9740  -20.6032   19.3593 C   0  0  0  0  0  0  0  0  0  0  0  0
  -32.5672  -24.1929   18.8978 C   0  0  0  0  0  0  0  0  0  0  0  0
  -25.4674  -10.8475   19.8682 C   0  0  0  0  0  0  0  0  0  0  0  0
  -27.5428  -27.8128   20.0256 C   0  0  0  0  0  0  0  0  0  0  0  0
  -24.8094   -8.5965   19.7180 C   0  0  0  0  0  0  0  0  0  0  0  0
  -23.1882   -6.5105   20.6139 C   0  0  0  0  0  0  0  0  0  0  0  0
  -31.2274  -25.5098   20.4169 C   0  0  0  0  0  0  0  0  0  0  0  0
  -23.9385   -7.9607   18.8332 C   0  0  0  0  0  0  0  0  0  0  0  0
  -31.4327  -21.3634   18.2826 C   0  0  0  0  0  0  0  0  0  0  0  0
  -25.0093  -14.6267   21.7136 C   0  0  0  0  0  0  0  0  0  0  0  0
  -24.7709  -16.2576   23.1690 C   0  0  0  0  0  0  0  0  0  0  0  0
  -24.9108  -13.9859   24.2026 C   0  0  0  0  0  0  0  0  0  0  0  0
  -23.4259  -29.8935   22.8866 C   0  0  0  0  0  0  0  0  0  0  0  0
  -21.3920  -28.4952   20.7819 C   0  0  0  0  0  0  0  0  0  0  0  0
  -20.9788  -26.5502   18.0082 C   0  0  0  0  0  0  0  0  0  0  0  0
  -26.4678  -20.7262   19.5833 C   0  0  0  0  0  0  0  0  0  0  0  0
  -23.2252  -33.6268   26.3623 C   0  0  0  0  0  0  0  0  0  0  0  0
  -24.3799  -30.6574   20.6816 C   0  0  0  0  0  0  0  0  0  0  0  0
  -23.8025  -27.7572   20.6820 C   0  0  0  0  0  0  0  0  0  0  0  0
  -22.2187  -32.6701   25.7284 C   0  0  0  0  0  0  0  0  0  0  0  0
  -23.1551  -20.0145   20.6772 C   0  0  0  0  0  0  0  0  0  0  0  0
  -22.7441  -31.2386   25.7690 C   0  0  0  0  0  0  0  0  0  0  0  0
  -23.2460  -18.5784   21.1981 C   0  0  0  0  0  0  0  0  0  0  0  0
  -24.0368  -20.2289   19.4483 C   0  0  0  0  0  0  0  0  0  0  0  0
  -25.5315  -18.3951   20.1353 C   0  0  0  0  0  0  0  0  0  0  0  0
  -24.0457  -31.1057   24.9693 C   0  0  1  0  0  0  0  0  0  0  0  0
  -23.1750  -30.0785   21.4168 C   0  0  1  0  0  0  0  0  0  0  0  0
  -24.7105  -18.1479   21.4114 C   0  0  2  0  0  0  0  0  0  0  0  0
  -19.1973  -25.5506   16.5507 C   0  0  0  0  0  0  0  0  0  0  0  0
  -20.8352  -26.3848   22.9141 C   0  0  0  0  0  0  0  0  0  0  0  0
  -19.8375  -24.9428   21.1270 C   0  0  0  0  0  0  0  0  0  0  0  0
  -18.8154  -27.1558   21.6570 C   0  0  0  0  0  0  0  0  0  0  0  0
  -21.9388  -28.0216   15.6265 C   0  0  0  0  0  0  0  0  0  0  0  0
  -29.8518  -27.4405   19.5945 C   0  0  0  0  0  0  0  0  0  1  0  0
  -21.0260  -27.0728   20.4329 C   0  0  1  0  0  0  0  0  0  0  0  0
  -20.1261  -26.7354   16.7660 C   0  0  2  0  0  0  0  0  0  0  0  0
  -20.1552  -26.3985   21.5304 C   0  0  0  0  0  0  0  0  0  0  0  0
  -24.9561  -15.7343   20.9691 N   0  0  0  0  0  0  0  0  0  0  0  0
  -24.8107  -16.7092   21.8827 N   0  0  0  0  0  0  0  0  0  0  0  0
  -22.7613  -28.7776   20.8872 N   0  0  0  0  0  0  0  0  0  0  0  0
  -25.4103  -19.8031   19.7259 N   0  0  0  0  0  0  0  0  0  0  0  0
  -24.6294  -17.1040   24.2112 N   0  0  0  0  0  0  0  0  0  0  0  0
  -25.0506  -12.6153   23.9451 N   0  0  0  0  0  0  0  0  0  0  0  0
  -27.7252  -20.2170   19.9062 N   0  0  0  0  0  0  0  0  0  0  0  0
  -33.4702  -23.1118   18.6652 N   0  0  0  0  0  0  0  0  0  0  0  0
  -23.7644  -31.0572   23.5505 N   0  0  0  0  0  0  0  0  0  0  0  0
  -20.3958  -27.1242   19.1181 N   0  0  0  0  0  0  0  0  0  0  0  0
  -20.9908  -26.8797   15.5609 N   0  3  0  0  0  0  0  0  0  0  0  0
  -24.7843  -14.3783   25.3873 O   0  0  0  0  0  0  0  0  0  0  0  0
  -23.3187  -28.7779   23.3821 O   0  0  0  0  0  0  0  0  0  0  0  0
  -20.4961  -29.3268   20.9477 O   0  0  0  0  0  0  0  0  0  0  0  0
  -22.0528  -25.9527   17.9959 O   0  0  0  0  0  0  0  0  0  0  0  0
  -26.2690  -21.8911   19.2289 O   0  0  0  0  0  0  0  0  0  0  0  0
  -32.7218  -22.4076   16.2892 O   0  0  0  0  0  0  0  0  0  0  0  0
  -33.8987  -20.7203   17.7271 O   0  0  0  0  0  0  0  0  0  0  0  0
  -25.6154   -9.6316   19.2746 O   0  0  0  0  0  0  0  0  0  0  0  0
  -28.5431  -26.9151   19.8127 O   0  0  0  0  0  0  0  0  0  1  0  0
  -22.4110   -5.5079   21.0438 F   0  0  0  0  0  0  0  0  0  0  0  0
  -30.7926  -25.7528   21.6612 F   0  0  0  0  0  0  0  0  0  0  0  0
  -23.8770   -8.3466   17.5513 F   0  0  0  0  0  0  0  0  0  0  0  0
  -32.9926  -21.8455   17.5993 S   0  0  0  0  0  0  0  0  0  0  0  0
  1  2  1  0  0  0  0
  1  5  2  0  0  0  0
  2  6  2  0  0  0  0
  3 12  2  0  0  0  0
  3 22  1  0  0  0  0
  4 13  1  0  0  0  0
  4 22  2  0  0  0  0
  5 24  1  0  0  0  0
  6 26  1  0  0  0  0
  7 14  2  0  0  0  0
  7 25  1  0  0  0  0
  8  9  2  0  0  0  0
  8 28  1  0  0  0  0
  9 30  1  0  0  0  0
 10 17  2  0  0  0  0
 10 29  1  0  0  0  0
 11 18  1  0  0  0  0
 11 29  2  0  0  0  0
 12 31  1  0  0  0  0
 13 31  2  0  0  0  0
 14 32  1  0  0  0  0
 15 16  2  0  0  0  0
 15 33  1  0  0  0  0
 16 34  1  0  0  0  0
 17 37  1  0  0  0  0
 18 37  2  0  0  0  0
 19 27  1  0  0  0  0
 19 32  2  0  0  0  0
 20 30  2  0  0  0  0
 20 35  1  0  0  0  0
 21 34  2  0  0  0  0
 21 36  1  0  0  0  0
 22 38  1  0  0  0  0
 23 38  1  0  0  0  0
 23 39  2  0  0  0  0
 23 40  1  0  0  0  0
 24 26  2  0  0  0  0
 24 45  1  0  0  0  0
 25 27  2  0  0  0  0
 25 46  1  0  0  0  0
 26 54  1  0  0  0  0
 27 47  1  0  0  0  0
 28 35  2  0  0  0  0
 28 62  1  0  0  0  0
 29 72  1  0  0  0  0
 30 73  1  0  0  0  0
 31 84  1  0  0  0  0
 32 85  1  0  0  0  0
 33 36  2  0  0  0  0
 33 84  1  0  0  0  0
 34 86  1  0  0  0  0
 35 87  1  0  0  0  0
 36 88  1  0  0  0  0
 37 89  1  0  0  0  0
 38 66  2  0  0  0  0
 39 67  1  0  0  0  0
 39 70  1  0  0  0  0
 40 71  1  0  0  0  0
 40 77  2  0  0  0  0
 41 55  1  0  0  0  0
 41 74  1  0  0  0  0
 41 78  2  0  0  0  0
 42 63  1  0  0  0  0
 42 68  1  0  0  0  0
 42 79  2  0  0  0  0
 43 64  1  0  0  0  0
 43 75  1  0  0  0  0
 43 80  2  0  0  0  0
 44 69  1  0  0  0  0
 44 72  1  0  0  0  0
 44 81  2  0  0  0  0
 45 48  1  0  0  0  0
 46 55  1  0  0  0  0
 47 68  1  0  0  0  0
 48 50  1  0  0  0  0
 49 51  1  0  0  0  0
 49 52  1  0  0  0  0
 50 54  1  0  0  0  0
 51 56  1  0  0  0  0
 52 69  1  0  0  0  0
 53 56  1  0  0  0  0
 53 69  1  0  0  0  0
 54 74  1  0  0  0  0
 55 68  1  0  0  0  0
 56 67  1  0  0  0  0
 57 64  1  0  0  0  0
 58 65  1  0  0  0  0
 59 65  1  0  0  0  0
 60 65  1  0  0  0  0
 61 76  1  0  0  0  0
 62 85  1  0  0  0  0
 63 65  1  0  0  0  0
 63 75  1  0  0  0  0
 64 76  1  0  0  0  0
 66 67  1  0  0  0  0
 73 89  1  0  0  0  0
 82 89  2  0  0  0  0
 83 89  2  0  0  0  0
M  CHG  1  76   1
M  ISO  4  44 100  62 101  72 100  85 101
M  END
> <Batch ID>
0014

> <Smiles>
CNC(C)C(=O)NC(C(=O)N1Cc2cc([101O:1][101CH2:1]c3ccc(NS(=O)(=O)c4ccc([100NH:0][100C:0](=O)N5CCCC(n6nc(-c7ccc(Oc8ccc(F)cc8F)cc7)c(C(N)=O)c6N)C5)cc4)cc3F)ccc2CC1C(=O)NC1CCCc2ccccc21)C(C)(C)C

> <Shape>
0.236

> <Color>
0.074

> <Negative vol penalty>
0.000

$$$$

  -OEChem-04042320513D

 81 89  0     1  0  0  0  0  0999 V2000
  -23.6839  -34.3835   26.4762 C   0  0  0  0  0  0  0  0  0  0  0  0
  -24.6489  -33.7016   25.7419 C   0  0  0  0  0  0  0  0  0  0  0  0
  -30.3968  -24.8480   15.5572 C   0  0  0  0  0  0  0  0  0  0  0  0
  -25.6580  -14.4662   21.0522 C   0  0  0  0  0  0  0  0  0  0  0  0
  -25.7729  -14.6773   18.6482 C   0  0  0  0  0  0  0  0  0  0  0  0
  -22.4962  -33.7436   26.8281 C   0  0  0  0  0  0  0  0  0  0  0  0
  -24.4271  -32.3789   25.3600 C   0  0  0  0  0  0  0  0  0  0  0  0
  -26.2675  -29.6857   20.1768 C   0  0  0  0  0  0  0  0  0  0  0  0
  -30.6916  -25.6895   16.6298 C   0  0  0  0  0  0  0  0  0  0  0  0
  -29.6753  -23.6733   15.7701 C   0  0  0  0  0  0  0  0  0  0  0  0
  -24.6851  -13.4756   20.9187 C   0  0  0  0  0  0  0  0  0  0  0  0
  -24.8001  -13.6867   18.5147 C   0  0  0  0  0  0  0  0  0  0  0  0
  -27.3547  -28.8645   19.8812 C   0  0  0  0  0  0  0  0  0  0  0  0
  -24.5722  -10.1794   20.1736 C   0  0  0  0  0  0  0  0  0  0  0  0
  -24.7041   -9.0318   20.9553 C   0  0  0  0  0  0  0  0  0  0  0  0
  -25.9599  -26.9196   20.1826 C   0  0  0  0  0  0  0  0  0  0  0  0
  -29.5436  -24.1817   18.1283 C   0  0  0  0  0  0  0  0  0  0  0  0
  -22.5653   -9.4859   21.9831 C   0  0  0  0  0  0  0  0  0  0  0  0
  -26.2019  -15.0671   19.9169 C   0  0  0  0  0  0  0  0  0  0  0  0
  -28.6018  -15.9113   20.1049 C   0  0  0  0  0  0  0  0  0  0  0  0
  -22.2557  -32.4155   26.4421 C   0  0  0  0  0  0  0  0  0  0  0  0
  -25.0189  -29.1288   20.4886 C   0  0  0  0  0  0  0  0  0  0  0  0
  -23.2357  -31.7202   25.7082 C   0  0  0  0  0  0  0  0  0  0  0  0
  -24.8578  -27.7359   20.4792 C   0  0  0  0  0  0  0  0  0  0  0  0
  -30.2650  -25.3564   17.9154 C   0  0  0  0  0  0  0  0  0  0  0  0
  -29.2487  -23.3402   17.0557 C   0  0  0  0  0  0  0  0  0  0  0  0
  -24.2562  -13.0858   19.6500 C   0  0  0  0  0  0  0  0  0  0  0  0
  -27.2018  -27.4812   19.8869 C   0  0  0  0  0  0  0  0  0  0  0  0
  -23.4369  -10.9804   20.2967 C   0  0  0  0  0  0  0  0  0  0  0  0
  -23.7007   -8.6850   21.8600 C   0  0  0  0  0  0  0  0  0  0  0  0
  -22.4334  -10.6336   21.2014 C   0  0  0  0  0  0  0  0  0  0  0  0
  -27.2065  -16.0908   20.0542 C   0  0  0  0  0  0  0  0  0  0  0  0
  -29.1068  -17.1814   20.2398 C   0  0  0  0  0  0  0  0  0  0  0  0
  -29.3726  -14.7042   20.0362 C   0  0  0  0  0  0  0  0  0  0  0  0
  -23.1156  -29.1732   23.0341 C   0  0  0  0  0  0  0  0  0  0  0  0
  -21.0786  -27.6080   21.0534 C   0  0  0  0  0  0  0  0  0  0  0  0
  -20.6564  -25.6462   18.2930 C   0  0  0  0  0  0  0  0  0  0  0  0
  -26.4645  -22.5065   18.7566 C   0  0  0  0  0  0  0  0  0  0  0  0
  -20.9770  -31.7506   26.8864 C   0  0  0  0  0  0  0  0  0  0  0  0
  -23.8494  -30.0289   20.7790 C   0  0  0  0  0  0  0  0  0  0  0  0
  -23.5332  -27.0887   20.7875 C   0  0  0  0  0  0  0  0  0  0  0  0
  -20.6595  -30.4683   26.1215 C   0  0  0  0  0  0  0  0  0  0  0  0
  -28.0046  -21.4981   21.9680 C   0  0  0  0  0  0  0  0  0  0  0  0
  -21.8991  -29.5847   26.0228 C   0  0  0  0  0  0  0  0  0  0  0  0
  -28.0225  -19.9739   21.8647 C   0  0  0  0  0  0  0  0  0  0  0  0
  -26.8636  -22.1080   21.1594 C   0  0  0  0  0  0  0  0  0  0  0  0
  -26.8656  -20.1669   19.6275 C   0  0  0  0  0  0  0  0  0  0  0  0
  -23.0214  -30.2926   25.2542 C   0  0  1  0  0  0  0  0  0  0  0  0
  -22.7522  -29.3415   21.5859 C   0  0  1  0  0  0  0  0  0  0  0  0
  -28.0315  -19.5238   20.3934 C   0  0  2  0  0  0  0  0  0  0  0  0
  -18.8778  -24.4979   16.9457 C   0  0  0  0  0  0  0  0  0  0  0  0
  -20.8545  -25.4470   23.1957 C   0  0  0  0  0  0  0  0  0  0  0  0
  -19.8722  -23.9295   21.4635 C   0  0  0  0  0  0  0  0  0  0  0  0
  -18.6951  -26.0400   22.0823 C   0  0  0  0  0  0  0  0  0  0  0  0
  -26.2985  -22.6980   16.3040 C   0  0  0  0  0  0  0  0  0  0  0  0
  -21.3214  -27.2080   15.8686 C   0  0  0  0  0  0  0  0  0  0  0  0
  -30.5832  -26.2683   19.0753 C   0  0  0  0  0  0  0  0  0  0  0  0
  -28.4778  -22.0837   17.2833 C   0  0  0  0  0  0  0  0  0  0  0  0
  -29.5009  -27.3185   19.3010 C   0  0  0  0  0  0  0  0  0  1  0  0
  -20.8181  -26.1602   20.7146 C   0  0  1  0  0  0  0  0  0  0  0  0
  -19.7099  -25.7599   17.1116 C   0  0  2  0  0  0  0  0  0  0  0  0
  -20.0855  -25.4060   21.8601 C   0  0  0  0  0  0  0  0  0  0  0  0
  -26.8480  -17.3740   20.1492 N   0  0  0  0  0  0  0  0  0  0  0  0
  -28.0254  -18.0122   20.2611 N   0  0  0  0  0  0  0  0  0  0  0  0
  -22.4214  -28.0111   21.0713 N   0  0  0  0  0  0  0  0  0  0  0  0
  -26.8701  -21.6300   19.7764 N   0  0  0  0  0  0  0  0  0  0  0  0
  -30.3660  -17.6575   20.3410 N   0  0  0  0  0  0  0  0  0  0  0  0
  -28.6945  -13.4855   19.8975 N   0  0  0  0  0  0  0  0  0  0  0  0
  -22.7657  -30.2469   23.8305 N   0  0  0  0  0  0  0  0  0  0  0  0
  -20.0998  -26.1609   19.4447 N   0  0  0  0  0  0  0  0  0  0  0  0
  -27.0541  -22.3362   17.4948 N   0  0  0  0  0  0  0  0  0  0  0  0
  -20.4764  -25.9862   15.8537 N   0  3  0  0  0  0  0  0  0  0  0  0
  -30.6247  -14.7049   20.1126 O   0  0  0  0  0  0  0  0  0  0  0  0
  -23.6710  -28.1447   23.4020 O   0  0  0  0  0  0  0  0  0  0  0  0
  -20.1254  -28.3555   21.2864 O   0  0  0  0  0  0  0  0  0  0  0  0
  -21.7760  -25.1470   18.2039 O   0  0  0  0  0  0  0  0  0  0  0  0
  -25.6305  -23.3970   18.9647 O   0  0  0  0  0  0  0  0  0  0  0  0
  -23.3070  -12.1191   19.5194 O   0  0  0  0  0  0  0  0  0  0  0  0
  -28.2615  -26.6773   19.5994 O   0  0  0  0  0  0  0  0  0  1  0  0
  -23.8268   -7.5820   22.6095 F   0  0  0  0  0  0  0  0  0  0  0  0
  -21.3399  -11.3985   21.3232 F   0  0  0  0  0  0  0  0  0  0  0  0
  1  2  1  0  0  0  0
  1  6  2  0  0  0  0
  2  7  2  0  0  0  0
  3  9  2  0  0  0  0
  3 10  1  0  0  0  0
  4 11  2  0  0  0  0
  4 19  1  0  0  0  0
  5 12  1  0  0  0  0
  5 19  2  0  0  0  0
  6 21  1  0  0  0  0
  7 23  1  0  0  0  0
  8 13  2  0  0  0  0
  8 22  1  0  0  0  0
  9 25  1  0  0  0  0
 10 26  2  0  0  0  0
 11 27  1  0  0  0  0
 12 27  2  0  0  0  0
 13 28  1  0  0  0  0
 14 15  2  0  0  0  0
 14 29  1  0  0  0  0
 15 30  1  0  0  0  0
 16 24  1  0  0  0  0
 16 28  2  0  0  0  0
 17 25  2  0  0  0  0
 17 26  1  0  0  0  0
 18 30  2  0  0  0  0
 18 31  1  0  0  0  0
 19 32  1  0  0  0  0
 20 32  1  0  0  0  0
 20 33  2  0  0  0  0
 20 34  1  0  0  0  0
 21 23  2  0  0  0  0
 21 39  1  0  0  0  0
 22 24  2  0  0  0  0
 22 40  1  0  0  0  0
 23 48  1  0  0  0  0
 24 41  1  0  0  0  0
 25 57  1  0  0  0  0
 26 58  1  0  0  0  0
 27 78  1  0  0  0  0
 28 79  1  0  0  0  0
 29 31  2  0  0  0  0
 29 78  1  0  0  0  0
 30 80  1  0  0  0  0
 31 81  1  0  0  0  0
 32 63  2  0  0  0  0
 33 64  1  0  0  0  0
 33 67  1  0  0  0  0
 34 68  1  0  0  0  0
 34 73  2  0  0  0  0
 35 49  1  0  0  0  0
 35 69  1  0  0  0  0
 35 74  2  0  0  0  0
 36 60  1  0  0  0  0
 36 65  1  0  0  0  0
 36 75  2  0  0  0  0
 37 61  1  0  0  0  0
 37 70  1  0  0  0  0
 37 76  2  0  0  0  0
 38 66  1  0  0  0  0
 38 71  1  0  0  0  0
 38 77  2  0  0  0  0
 39 42  1  0  0  0  0
 40 49  1  0  0  0  0
 41 65  1  0  0  0  0
 42 44  1  0  0  0  0
 43 45  1  0  0  0  0
 43 46  1  0  0  0  0
 44 48  1  0  0  0  0
 45 50  1  0  0  0  0
 46 66  1  0  0  0  0
 47 50  1  0  0  0  0
 47 66  1  0  0  0  0
 48 69  1  0  0  0  0
 49 65  1  0  0  0  0
 50 64  1  0  0  0  0
 51 61  1  0  0  0  0
 52 62  1  0  0  0  0
 53 62  1  0  0  0  0
 54 62  1  0  0  0  0
 55 71  1  0  0  0  0
 56 72  1  0  0  0  0
 57 59  1  0  0  0  0
 58 71  1  0  0  0  0
 59 79  1  0  0  0  0
 60 62  1  0  0  0  0
 60 70  1  0  0  0  0
 61 72  1  0  0  0  0
 63 64  1  0  0  0  0
M  CHG  1  72   1
M  ISO  4  38 100  59 101  71 100  79 101
M  END
> <Batch ID>
0014

> <Smiles>
CNC(C)C(=O)NC(C(=O)N1Cc2cc([101O:1][101CH2:1]Cc3cccc(C[100N:0](C)[100C:0](=O)N4CCCC(n5nc(-c6ccc(Oc7ccc(F)cc7F)cc6)c(C(N)=O)c5N)C4)c3)ccc2CC1C(=O)NC1CCCc2ccccc21)C(C)(C)C

> <Shape>
0.262

> <Color>
0.086

> <Negative vol penalty>
0.000

$$$$

  -OEChem-04042320513D

 83 92  0     1  0  0  0  0  0999 V2000
  -27.5490  -34.3165   25.5178 C   0  0  0  0  0  0  0  0  0  0  0  0
  -28.0726  -33.0487   25.2858 C   0  0  0  0  0  0  0  0  0  0  0  0
  -23.1626   -9.7560   19.9100 C   0  0  0  0  0  0  0  0  0  0  0  0
  -23.9124   -9.7760   22.2066 C   0  0  0  0  0  0  0  0  0  0  0  0
  -26.2331  -34.6028   25.1569 C   0  0  0  0  0  0  0  0  0  0  0  0
  -27.2802  -32.0660   24.6937 C   0  0  0  0  0  0  0  0  0  0  0  0
  -29.1225  -27.6817   20.8350 C   0  0  0  0  0  0  0  0  0  0  0  0
  -30.9477  -19.3500   20.7005 C   0  0  0  0  0  0  0  0  0  0  0  0
  -30.8454  -17.9591   20.6808 C   0  0  0  0  0  0  0  0  0  0  0  0
  -22.4747   -8.5656   20.1449 C   0  0  0  0  0  0  0  0  0  0  0  0
  -23.2244   -8.5855   22.4416 C   0  0  0  0  0  0  0  0  0  0  0  0
  -29.4390  -26.3372   21.0250 C   0  0  0  0  0  0  0  0  0  0  0  0
  -20.0366   -7.6256   23.0218 C   0  0  0  0  0  0  0  0  0  0  0  0
  -19.2780   -7.5367   24.1889 C   0  0  0  0  0  0  0  0  0  0  0  0
  -27.2010  -25.7236   20.3661 C   0  0  0  0  0  0  0  0  0  0  0  0
  -29.3027  -19.4461   22.4673 C   0  0  0  0  0  0  0  0  0  0  0  0
  -20.6093   -5.6543   24.9109 C   0  0  0  0  0  0  0  0  0  0  0  0
  -23.8815  -10.3613   20.9409 C   0  0  0  0  0  0  0  0  0  0  0  0
  -24.1006  -12.9011   20.8482 C   0  0  0  0  0  0  0  0  0  0  0  0
  -25.4271  -33.6259   24.5512 C   0  0  0  0  0  0  0  0  0  0  0  0
  -27.8375  -28.0585   20.4190 C   0  0  0  0  0  0  0  0  0  0  0  0
  -25.9518  -32.3390   24.3255 C   0  0  0  0  0  0  0  0  0  0  0  0
  -26.8715  -27.0733   20.1692 C   0  0  0  0  0  0  0  0  0  0  0  0
  -30.1764  -20.0935   21.5938 C   0  0  0  0  0  0  0  0  0  0  0  0
  -29.9717  -17.3116   21.5544 C   0  0  0  0  0  0  0  0  0  0  0  0
  -22.5056   -7.9803   21.4107 C   0  0  0  0  0  0  0  0  0  0  0  0
  -28.4773  -25.3581   20.7933 C   0  0  0  0  0  0  0  0  0  0  0  0
  -21.0815   -6.7288   22.7992 C   0  0  0  0  0  0  0  0  0  0  0  0
  -19.5643   -6.5511   25.1335 C   0  0  0  0  0  0  0  0  0  0  0  0
  -29.2004  -18.0551   22.4476 C   0  0  0  0  0  0  0  0  0  0  0  0
  -21.3679   -5.7432   23.7437 C   0  0  0  0  0  0  0  0  0  0  0  0
  -24.5927  -11.5907   20.6987 C   0  0  0  0  0  0  0  0  0  0  0  0
  -25.1564  -13.7065   20.4974 C   0  0  0  0  0  0  0  0  0  0  0  0
  -22.8049  -13.3502   21.2668 C   0  0  0  0  0  0  0  0  0  0  0  0
  -25.4986  -29.8105   21.6695 C   0  0  0  0  0  0  0  0  0  0  0  0
  -24.1193  -29.3325   18.7727 C   0  0  0  0  0  0  0  0  0  0  0  0
  -23.8767  -27.4143   15.9605 C   0  0  0  0  0  0  0  0  0  0  0  0
  -30.5646  -15.0146   20.7066 C   0  0  0  0  0  0  0  0  0  0  0  0
  -23.9957  -33.9680   24.2217 C   0  0  0  0  0  0  0  0  0  0  0  0
  -27.5200  -29.5113   20.1929 C   0  0  0  0  0  0  0  0  0  0  0  0
  -25.4834  -27.4242   19.7019 C   0  0  0  0  0  0  0  0  0  0  0  0
  -23.3405  -32.9828   23.2571 C   0  0  0  0  0  0  0  0  0  0  0  0
  -29.5780  -12.5743   18.3089 C   0  0  0  0  0  0  0  0  0  0  0  0
  -23.6263  -31.5468   23.6849 C   0  0  0  0  0  0  0  0  0  0  0  0
  -28.1526  -12.2087   18.7292 C   0  0  0  0  0  0  0  0  0  0  0  0
  -31.1393  -23.6438   21.3325 C   0  0  0  0  0  0  0  0  0  0  0  0
  -30.4762  -12.8348   19.5168 C   0  0  0  0  0  0  0  0  0  0  0  0
  -31.1624  -22.2347   20.7404 C   0  0  0  0  0  0  0  0  0  0  0  0
  -28.5310  -13.4513   20.8971 C   0  0  0  0  0  0  0  0  0  0  0  0
  -29.5082  -22.3341   22.5080 C   0  0  0  0  0  0  0  0  0  0  0  0
  -25.1313  -31.2538   23.6627 C   0  0  1  0  0  0  0  0  0  0  0  0
  -26.0265  -29.8144   20.2627 C   0  0  1  0  0  0  0  0  0  0  0  0
  -27.5723  -13.2433   19.7133 C   0  0  2  0  0  0  0  0  0  0  0  0
  -29.7600  -23.7412   21.9679 C   0  0  2  0  0  0  0  0  0  1  0  0
  -22.6355  -27.2556   13.7853 C   0  0  0  0  0  0  0  0  0  0  0  0
  -21.6615  -28.2954   20.2537 C   0  0  0  0  0  0  0  0  0  0  0  0
  -20.8730  -27.2921   18.0997 C   0  0  0  0  0  0  0  0  0  0  0  0
  -21.1558  -29.7630   18.2929 C   0  0  0  0  0  0  0  0  0  0  0  0
  -26.3705  -27.6620   14.3860 C   0  0  0  0  0  0  0  0  0  0  0  0
  -23.2046  -28.2858   18.1838 C   0  0  1  0  0  0  0  0  0  0  0  0
  -23.8776  -27.7815   14.4875 C   0  0  2  0  0  0  0  0  0  0  0  0
  -21.7492  -28.4023   18.7182 C   0  0  0  0  0  0  0  0  0  0  0  0
  -25.8624  -11.5608   20.2850 N   0  0  0  0  0  0  0  0  0  0  0  0
  -26.1769  -12.8624   20.1714 N   0  0  0  0  0  0  0  0  0  0  0  0
  -30.2780  -21.4687   21.6135 N   0  0  3  0  0  0  0  0  0  0  0  0
  -25.2196  -28.8587   19.5013 N   0  0  0  0  0  0  0  0  0  0  0  0
  -29.8644  -13.8280   20.4023 N   0  0  0  0  0  0  0  0  0  0  0  0
  -25.3021  -15.0473   20.4389 N   0  0  0  0  0  0  0  0  0  0  0  0
  -21.8371  -12.3895   21.5904 N   0  0  0  0  0  0  0  0  0  0  0  0
  -29.8698  -15.8985   21.5316 N   0  0  0  0  0  0  0  0  0  0  0  0
  -25.5836  -31.0343   22.3056 N   0  0  0  0  0  0  0  0  0  0  0  0
  -23.3210  -28.4106   16.7349 N   0  0  0  0  0  0  0  0  0  0  0  0
  -25.0769  -27.2102   13.8120 N   0  3  0  0  0  0  0  0  0  0  0  0
  -22.5089  -14.5673   21.3357 O   0  0  0  0  0  0  0  0  0  0  0  0
  -25.0463  -28.7744   22.1423 O   0  0  0  0  0  0  0  0  0  0  0  0
  -23.8709  -30.5263   18.5869 O   0  0  0  0  0  0  0  0  0  0  0  0
  -24.3210  -26.3485   16.3815 O   0  0  0  0  0  0  0  0  0  0  0  0
  -31.6859  -15.2428   20.2457 O   0  0  0  0  0  0  0  0  0  0  0  0
  -21.8343   -6.8188   21.6403 O   0  0  0  0  0  0  0  0  0  0  0  0
  -28.7834  -24.0452   20.9786 O   0  0  0  0  0  0  0  0  0  1  0  0
  -18.8367   -6.4668   26.2549 F   0  0  0  0  0  0  0  0  0  0  0  0
  -28.3571  -17.4432   23.2914 F   0  0  0  0  0  0  0  0  0  0  0  0
  -22.3713   -4.8795   23.5360 F   0  0  0  0  0  0  0  0  0  0  0  0
  1  2  1  0  0  0  0
  1  5  2  0  0  0  0
  2  6  2  0  0  0  0
  3 10  2  0  0  0  0
  3 18  1  0  0  0  0
  4 11  1  0  0  0  0
  4 18  2  0  0  0  0
  5 20  1  0  0  0  0
  6 22  1  0  0  0  0
  7 12  2  0  0  0  0
  7 21  1  0  0  0  0
  8  9  2  0  0  0  0
  8 24  1  0  0  0  0
  9 25  1  0  0  0  0
 10 26  1  0  0  0  0
 11 26  2  0  0  0  0
 12 27  1  0  0  0  0
 13 14  2  0  0  0  0
 13 28  1  0  0  0  0
 14 29  1  0  0  0  0
 15 23  1  0  0  0  0
 15 27  2  0  0  0  0
 16 24  2  0  0  0  0
 16 30  1  0  0  0  0
 17 29  2  0  0  0  0
 17 31  1  0  0  0  0
 18 32  1  0  0  0  0
 19 32  1  0  0  0  0
 19 33  2  0  0  0  0
 19 34  1  0  0  0  0
 20 22  2  0  0  0  0
 20 39  1  0  0  0  0
 21 23  2  0  0  0  0
 21 40  1  0  0  0  0
 22 51  1  0  0  0  0
 23 41  1  0  0  0  0
 24 65  1  0  0  0  0
 25 30  2  0  0  0  0
 25 70  1  0  0  0  0
 26 79  1  0  0  0  0
 27 80  1  0  0  0  0
 28 31  2  0  0  0  0
 28 79  1  0  0  0  0
 29 81  1  0  0  0  0
 30 82  1  0  0  0  0
 31 83  1  0  0  0  0
 32 63  2  0  0  0  0
 33 64  1  0  0  0  0
 33 68  1  0  0  0  0
 34 69  1  0  0  0  0
 34 74  2  0  0  0  0
 35 52  1  0  0  0  0
 35 71  1  0  0  0  0
 35 75  2  0  0  0  0
 36 60  1  0  0  0  0
 36 66  1  0  0  0  0
 36 76  2  0  0  0  0
 37 61  1  0  0  0  0
 37 72  1  0  0  0  0
 37 77  2  0  0  0  0
 38 67  1  0  0  0  0
 38 70  1  0  0  0  0
 38 78  2  0  0  0  0
 39 42  1  0  0  0  0
 40 52  1  0  0  0  0
 41 66  1  0  0  0  0
 42 44  1  0  0  0  0
 43 45  1  0  0  0  0
 43 47  1  0  0  0  0
 44 51  1  0  0  0  0
 45 53  1  0  0  0  0
 46 48  1  0  0  0  0
 46 54  1  0  0  0  0
 47 67  1  0  0  0  0
 48 65  1  0  0  0  0
 49 53  1  0  0  0  0
 49 67  1  0  0  0  0
 50 54  1  0  0  0  0
 50 65  1  0  0  0  0
 51 71  1  0  0  0  0
 52 66  1  0  0  0  0
 53 64  1  0  0  0  0
 54 80  1  0  0  0  0
 55 61  1  0  0  0  0
 56 62  1  0  0  0  0
 57 62  1  0  0  0  0
 58 62  1  0  0  0  0
 59 73  1  0  0  0  0
 60 62  1  0  0  0  0
 60 72  1  0  0  0  0
 61 73  1  0  0  0  0
 63 64  1  0  0  0  0
M  CHG  1  73   1
M  ISO  4  38 100  54 101  70 100  80 101
M  END
> <Batch ID>
0014

> <Smiles>
CNC(C)C(=O)NC(C(=O)N1Cc2cc([101O:1][101CH:1]3CCN(c4ccc([100NH:0][100C:0](=O)N5CCCC(n6nc(-c7ccc(Oc8ccc(F)cc8F)cc7)c(C(N)=O)c6N)C5)c(F)c4)C3)ccc2CC1C(=O)NC1CCCc2ccccc21)C(C)(C)C

> <Shape>
0.353

> <Color>
0.208

> <Negative vol penalty>
0.000

$$$$

  -OEChem-04042320513D

 84 93  0     1  0  0  0  0  0999 V2000
  -21.8027  -16.8227   25.0150 C   0  0  0  0  0  0  0  0  0  0  0  0
  -23.0456  -17.4314   25.1564 C   0  0  0  0  0  0  0  0  0  0  0  0
  -23.1075   -9.8817   19.9568 C   0  0  0  0  0  0  0  0  0  0  0  0
  -23.9352   -9.8928   22.2266 C   0  0  0  0  0  0  0  0  0  0  0  0
  -20.6389  -17.5535   25.2508 C   0  0  0  0  0  0  0  0  0  0  0  0
  -23.1255  -18.7718   25.5325 C   0  0  0  0  0  0  0  0  0  0  0  0
  -26.6313  -19.5840   29.0955 C   0  0  0  0  0  0  0  0  0  0  0  0
  -32.3383  -17.7673   23.7009 C   0  0  0  0  0  0  0  0  0  0  0  0
  -31.9503  -16.6904   22.8976 C   0  0  0  0  0  0  0  0  0  0  0  0
  -22.3958   -8.7118   20.2220 C   0  0  0  0  0  0  0  0  0  0  0  0
  -23.2234   -8.7229   22.4918 C   0  0  0  0  0  0  0  0  0  0  0  0
  -27.9618  -19.6284   28.6812 C   0  0  0  0  0  0  0  0  0  0  0  0
  -21.3372   -5.9374   23.8708 C   0  0  0  0  0  0  0  0  0  0  0  0
  -20.6173   -5.8717   25.0637 C   0  0  0  0  0  0  0  0  0  0  0  0
  -30.5262  -19.1263   22.8315 C   0  0  0  0  0  0  0  0  0  0  0  0
  -27.8891  -22.0392   28.7268 C   0  0  0  0  0  0  0  0  0  0  0  0
  -19.3111   -7.7860   24.3808 C   0  0  0  0  0  0  0  0  0  0  0  0
  -23.8772  -10.4722   20.9591 C   0  0  0  0  0  0  0  0  0  0  0  0
  -24.1622  -13.0046   20.8437 C   0  0  0  0  0  0  0  0  0  0  0  0
  -20.7049  -18.9008   25.6394 C   0  0  0  0  0  0  0  0  0  0  0  0
  -25.9153  -20.7689   29.3184 C   0  0  0  0  0  0  0  0  0  0  0  0
  -21.9615  -19.5217   25.7724 C   0  0  0  0  0  0  0  0  0  0  0  0
  -30.1527  -18.0554   22.0334 C   0  0  0  0  0  0  0  0  0  0  0  0
  -26.5505  -22.0070   29.1463 C   0  0  0  0  0  0  0  0  0  0  0  0
  -31.6337  -18.9784   23.6658 C   0  0  0  0  0  0  0  0  0  0  0  0
  -30.8591  -16.8523   22.0557 C   0  0  0  0  0  0  0  0  0  0  0  0
  -22.4537   -8.1324   21.4895 C   0  0  0  0  0  0  0  0  0  0  0  0
  -28.5900  -20.8561   28.4940 C   0  0  0  0  0  0  0  0  0  0  0  0
  -21.0441   -6.9275   22.9329 C   0  0  0  0  0  0  0  0  0  0  0  0
  -19.6042   -6.7960   25.3187 C   0  0  0  0  0  0  0  0  0  0  0  0
  -20.0310   -7.8517   23.1879 C   0  0  0  0  0  0  0  0  0  0  0  0
  -24.6131  -11.6805   20.6856 C   0  0  0  0  0  0  0  0  0  0  0  0
  -25.2270  -13.7790   20.4526 C   0  0  0  0  0  0  0  0  0  0  0  0
  -22.8942  -13.4912   21.3033 C   0  0  0  0  0  0  0  0  0  0  0  0
  -23.3254  -22.0985   28.0424 C   0  0  0  0  0  0  0  0  0  0  0  0
  -23.7369  -24.2596   30.4262 C   0  0  0  0  0  0  0  0  0  0  0  0
  -25.8549  -25.7635   32.6396 C   0  0  0  0  0  0  0  0  0  0  0  0
  -30.7927  -14.6556   20.8857 C   0  0  0  0  0  0  0  0  0  0  0  0
  -19.4186  -19.6631   25.8372 C   0  0  0  0  0  0  0  0  0  0  0  0
  -24.4887  -20.7037   29.7908 C   0  0  0  0  0  0  0  0  0  0  0  0
  -28.9724  -17.9845   21.1185 C   0  0  0  0  0  0  0  0  0  0  0  0
  -25.8320  -23.3078   29.3918 C   0  0  0  0  0  0  0  0  0  0  0  0
  -19.5986  -20.9751   26.5964 C   0  0  0  0  0  0  0  0  0  0  0  0
  -29.5390  -12.5460   18.1208 C   0  0  0  0  0  0  0  0  0  0  0  0
  -20.7851  -21.7556   26.0395 C   0  0  0  0  0  0  0  0  0  0  0  0
  -28.1276  -12.1955   18.5943 C   0  0  0  0  0  0  0  0  0  0  0  0
  -30.4889  -12.7906   19.2903 C   0  0  0  0  0  0  0  0  0  0  0  0
  -28.5984  -13.4316   20.7420 C   0  0  0  0  0  0  0  0  0  0  0  0
  -22.0899  -20.9668   26.2029 C   0  0  1  0  0  0  0  0  0  0  0  0
  -23.7016  -21.9759   29.4919 C   0  0  1  0  0  0  0  0  0  0  0  0
  -27.6009  -13.2455   19.5902 C   0  0  2  0  0  0  0  0  0  0  0  0
  -29.1966  -16.6336   20.4053 C   0  0  1  0  0  0  0  0  0  0  0  0
  -29.6152  -16.8474   18.9472 C   0  0  0  0  0  0  0  0  0  0  0  0
  -25.9092  -27.5184   34.4326 C   0  0  0  0  0  0  0  0  0  0  0  0
  -23.6742  -26.4390   28.2917 C   0  0  0  0  0  0  0  0  0  0  0  0
  -24.6626  -28.0131   29.9690 C   0  0  0  0  0  0  0  0  0  0  0  0
  -22.4245  -26.9935   30.3857 C   0  0  0  0  0  0  0  0  0  0  0  0
  -26.6790  -23.8017   34.6965 C   0  0  0  0  0  0  0  0  0  0  0  0
  -32.0649  -20.1116   24.5351 C   0  0  0  0  0  0  0  0  0  0  0  0
  -31.4442  -21.6443   26.4070 C   0  0  0  0  0  0  0  0  0  0  0  0
  -30.2868  -22.0270   27.3082 C   0  0  0  0  0  0  0  0  0  1  0  0
  -24.4958  -25.5562   30.5746 C   0  0  1  0  0  0  0  0  0  0  0  0
  -25.7276  -26.0398   34.1268 C   0  0  2  0  0  0  0  0  0  0  0  0
  -23.8275  -26.7261   29.7987 C   0  0  0  0  0  0  0  0  0  0  0  0
  -25.8666  -11.6136   20.2293 N   0  0  0  0  0  0  0  0  0  0  0  0
  -26.2125  -12.9055   20.0974 N   0  0  0  0  0  0  0  0  0  0  0  0
  -30.2727  -15.9230   21.1652 N   0  0  0  0  0  0  0  0  0  0  0  0
  -24.4366  -23.1918   29.8466 N   0  0  0  0  0  0  0  0  0  0  0  0
  -29.9311  -13.7645   20.2271 N   0  0  0  0  0  0  0  0  0  0  0  0
  -25.4071  -15.1150   20.3811 N   0  0  0  0  0  0  0  0  0  0  0  0
  -21.9121  -12.5591   21.6651 N   0  0  0  0  0  0  0  0  0  0  0  0
  -22.5623  -21.0485   27.5684 N   0  0  0  0  0  0  0  0  0  0  0  0
  -24.6292  -25.7893   32.0085 N   0  0  0  0  0  0  0  0  0  0  0  0
  -26.7557  -25.2732   34.8859 N   0  3  0  0  0  0  0  0  0  0  0  0
  -31.0146  -20.5538   25.4932 N   0  3  0  0  0  0  0  0  0  0  0  0
  -22.6340  -14.7163   21.3748 O   0  0  0  0  0  0  0  0  0  0  0  0
  -23.6985  -23.0743   27.4018 O   0  0  0  0  0  0  0  0  0  0  0  0
  -22.5687  -24.1946   30.8170 O   0  0  0  0  0  0  0  0  0  0  0  0
  -26.9342  -25.5502   32.0917 O   0  0  0  0  0  0  0  0  0  0  0  0
  -31.9580  -14.3358   21.1463 O   0  0  0  0  0  0  0  0  0  0  0  0
  -21.7592   -6.9909   21.7487 O   0  0  0  0  0  0  0  0  0  0  0  0
  -29.8977  -20.9027   28.0861 O   0  0  0  0  0  0  0  0  0  1  0  0
  -18.9120   -6.7318   26.4636 F   0  0  0  0  0  0  0  0  0  0  0  0
  -19.7441   -8.8044   22.2902 F   0  0  0  0  0  0  0  0  0  0  0  0
  1  2  1  0  0  0  0
  1  5  2  0  0  0  0
  2  6  2  0  0  0  0
  3 10  2  0  0  0  0
  3 18  1  0  0  0  0
  4 11  1  0  0  0  0
  4 18  2  0  0  0  0
  5 20  1  0  0  0  0
  6 22  1  0  0  0  0
  7 12  2  0  0  0  0
  7 21  1  0  0  0  0
  8  9  2  0  0  0  0
  8 25  1  0  0  0  0
  9 26  1  0  0  0  0
 10 27  1  0  0  0  0
 11 27  2  0  0  0  0
 12 28  1  0  0  0  0
 13 14  2  0  0  0  0
 13 29  1  0  0  0  0
 14 30  1  0  0  0  0
 15 23  1  0  0  0  0
 15 25  2  0  0  0  0
 16 24  1  0  0  0  0
 16 28  2  0  0  0  0
 17 30  2  0  0  0  0
 17 31  1  0  0  0  0
 18 32  1  0  0  0  0
 19 32  1  0  0  0  0
 19 33  2  0  0  0  0
 19 34  1  0  0  0  0
 20 22  2  0  0  0  0
 20 39  1  0  0  0  0
 21 24  2  0  0  0  0
 21 40  1  0  0  0  0
 22 49  1  0  0  0  0
 23 26  2  0  0  0  0
 23 41  1  0  0  0  0
 24 42  1  0  0  0  0
 25 59  1  0  0  0  0
 26 67  1  0  0  0  0
 27 81  1  0  0  0  0
 28 82  1  0  0  0  0
 29 31  2  0  0  0  0
 29 81  1  0  0  0  0
 30 83  1  0  0  0  0
 31 84  1  0  0  0  0
 32 65  2  0  0  0  0
 33 66  1  0  0  0  0
 33 70  1  0  0  0  0
 34 71  1  0  0  0  0
 34 76  2  0  0  0  0
 35 50  1  0  0  0  0
 35 72  1  0  0  0  0
 35 77  2  0  0  0  0
 36 62  1  0  0  0  0
 36 68  1  0  0  0  0
 36 78  2  0  0  0  0
 37 63  1  0  0  0  0
 37 73  1  0  0  0  0
 37 79  2  0  0  0  0
 38 67  1  0  0  0  0
 38 69  1  0  0  0  0
 38 80  2  0  0  0  0
 39 43  1  0  0  0  0
 40 50  1  0  0  0  0
 41 52  1  0  0  0  0
 42 68  1  0  0  0  0
 43 45  1  0  0  0  0
 44 46  1  0  0  0  0
 44 47  1  0  0  0  0
 45 49  1  0  0  0  0
 46 51  1  0  0  0  0
 47 69  1  0  0  0  0
 48 51  1  0  0  0  0
 48 69  1  0  0  0  0
 49 72  1  0  0  0  0
 50 68  1  0  0  0  0
 51 66  1  0  0  0  0
 52 53  1  0  0  0  0
 52 67  1  0  0  0  0
 54 63  1  0  0  0  0
 55 64  1  0  0  0  0
 56 64  1  0  0  0  0
 57 64  1  0  0  0  0
 58 74  1  0  0  0  0
 59 75  1  0  0  0  0
 60 61  1  0  0  0  0
 60 75  1  0  0  0  0
 61 82  1  0  0  0  0
 62 64  1  0  0  0  0
 62 73  1  0  0  0  0
 63 74  1  0  0  0  0
 65 66  1  0  0  0  0
M  CHG  2  74   1  75   1
M  ISO  4  38 100  61 101  67 100  82 101
M  END
> <Batch ID>
0014

> <Smiles>
CNC(C)C(=O)NC(C(=O)N1Cc2cc([101O:1][101CH2:1]CNCc3ccc4c(c3)CC(C)[100N:0]4[100C:0](=O)N3CCCC(n4nc(-c5ccc(Oc6ccc(F)cc6F)cc5)c(C(N)=O)c4N)C3)ccc2CC1C(=O)NC1CCCc2ccccc21)C(C)(C)C

> <Shape>
0.181

> <Color>
0.173

> <Negative vol penalty>
0.000

$$$$

  -OEChem-04042320513D

 83 91  0     1  0  0  0  0  0999 V2000
  -27.9720  -37.8156   21.6730 C   0  0  0  0  0  0  0  0  0  0  0  0
  -28.4533  -36.5714   21.2784 C   0  0  0  0  0  0  0  0  0  0  0  0
  -23.2379  -25.2259   17.8207 C   0  0  0  0  0  0  0  0  0  0  0  0
  -25.6684  -13.9644   19.1833 C   0  0  0  0  0  0  0  0  0  0  0  0
  -24.1616  -14.0531   21.0697 C   0  0  0  0  0  0  0  0  0  0  0  0
  -26.9856  -37.9008   22.6548 C   0  0  0  0  0  0  0  0  0  0  0  0
  -27.9493  -35.4116   21.8661 C   0  0  0  0  0  0  0  0  0  0  0  0
  -27.1081  -29.9810   19.1631 C   0  0  0  0  0  0  0  0  0  0  0  0
  -22.7503  -24.3044   18.7473 C   0  0  0  0  0  0  0  0  0  0  0  0
  -24.6006  -25.2630   17.5247 C   0  0  0  0  0  0  0  0  0  0  0  0
  -25.9172  -12.6172   19.4453 C   0  0  0  0  0  0  0  0  0  0  0  0
  -24.4104  -12.7059   21.3318 C   0  0  0  0  0  0  0  0  0  0  0  0
  -27.8709  -28.8141   19.1449 C   0  0  0  0  0  0  0  0  0  0  0  0
  -24.3713   -9.1964   22.2807 C   0  0  0  0  0  0  0  0  0  0  0  0
  -23.2784   -8.3778   22.5654 C   0  0  0  0  0  0  0  0  0  0  0  0
  -26.5365  -27.9207   20.9449 C   0  0  0  0  0  0  0  0  0  0  0  0
  -24.9879  -23.4570   19.0821 C   0  0  0  0  0  0  0  0  0  0  0  0
  -22.3321   -8.8890   20.4020 C   0  0  0  0  0  0  0  0  0  0  0  0
  -24.7907  -14.6824   19.9955 C   0  0  0  0  0  0  0  0  0  0  0  0
  -23.5281  -16.6081   18.8977 C   0  0  0  0  0  0  0  0  0  0  0  0
  -26.4624  -36.7410   23.2479 C   0  0  0  0  0  0  0  0  0  0  0  0
  -26.0589  -30.1311   20.0813 C   0  0  0  0  0  0  0  0  0  0  0  0
  -26.9560  -35.4815   22.8577 C   0  0  0  0  0  0  0  0  0  0  0  0
  -25.7602  -29.0893   20.9711 C   0  0  0  0  0  0  0  0  0  0  0  0
  -23.6253  -23.4200   19.3780 C   0  0  0  0  0  0  0  0  0  0  0  0
  -25.2882  -11.9879   20.5195 C   0  0  0  0  0  0  0  0  0  0  0  0
  -27.5870  -27.7849   20.0377 C   0  0  0  0  0  0  0  0  0  0  0  0
  -25.4756  -24.3785   18.1554 C   0  0  0  0  0  0  0  0  0  0  0  0
  -24.4445   -9.8615   21.0567 C   0  0  0  0  0  0  0  0  0  0  0  0
  -22.2588   -8.2240   21.6260 C   0  0  0  0  0  0  0  0  0  0  0  0
  -23.4250   -9.7077   20.1174 C   0  0  0  0  0  0  0  0  0  0  0  0
  -24.5337  -16.0743   19.7257 C   0  0  0  0  0  0  0  0  0  0  0  0
  -23.7048  -17.9679   18.9760 C   0  0  0  0  0  0  0  0  0  0  0  0
  -22.5240  -15.9350   18.1267 C   0  0  0  0  0  0  0  0  0  0  0  0
  -25.4363  -32.1361   22.4680 C   0  0  0  0  0  0  0  0  0  0  0  0
  -22.5948  -30.5724   22.5234 C   0  0  0  0  0  0  0  0  0  0  0  0
  -20.8300  -27.7435   21.7956 C   0  0  0  0  0  0  0  0  0  0  0  0
  -24.5431  -22.3892   22.4497 C   0  0  0  0  0  0  0  0  0  0  0  0
  -25.4309  -36.8856   24.3387 C   0  0  0  0  0  0  0  0  0  0  0  0
  -25.2284  -31.3851   20.0703 C   0  0  0  0  0  0  0  0  0  0  0  0
  -24.6314  -29.1927   21.9629 C   0  0  0  0  0  0  0  0  0  0  0  0
  -24.6822  -35.5909   24.6445 C   0  0  0  0  0  0  0  0  0  0  0  0
  -27.4693  -20.7097   20.9271 C   0  0  0  0  0  0  0  0  0  0  0  0
  -25.6590  -34.4258   24.7679 C   0  0  0  0  0  0  0  0  0  0  0  0
  -26.8881  -19.3699   20.4783 C   0  0  0  0  0  0  0  0  0  0  0  0
  -26.7231  -21.2768   22.1310 C   0  0  0  0  0  0  0  0  0  0  0  0
  -24.6729  -20.0587   21.4777 C   0  0  0  0  0  0  0  0  0  0  0  0
  -26.4166  -34.1995   23.4540 C   0  0  1  0  0  0  0  0  0  0  0  0
  -24.5118  -31.6388   21.3930 C   0  0  1  0  0  0  0  0  0  0  0  0
  -25.3726  -19.4824   20.2377 C   0  0  2  0  0  0  0  0  0  0  0  0
  -18.5350  -26.7479   21.9935 C   0  0  0  0  0  0  0  0  0  0  0  0
  -23.0723  -30.0685   25.4946 C   0  0  0  0  0  0  0  0  0  0  0  0
  -21.2894  -28.3128   25.4121 C   0  0  0  0  0  0  0  0  0  0  0  0
  -20.7221  -30.6887   24.9061 C   0  0  0  0  0  0  0  0  0  0  0  0
  -22.6168  -23.9189   22.2788 C   0  0  0  0  0  0  0  0  0  0  0  0
  -20.5642  -27.4812   18.8597 C   0  0  0  0  0  0  0  0  0  0  0  0
  -23.1039  -22.4351   20.3691 C   0  0  0  0  0  0  0  0  0  0  0  0
  -29.0404  -24.7401   18.7231 C   0  0  0  0  0  0  0  0  0  0  0  0
  -28.8919  -26.2527   18.7706 C   0  0  0  0  0  0  0  0  0  1  0  0
  -27.7068  -24.0317   18.9017 C   0  0  0  0  0  0  0  0  0  0  0  0
  -22.0608  -29.3501   23.2303 C   0  0  1  0  0  0  0  0  0  0  0  0
  -19.4891  -27.5403   21.1135 C   0  0  2  0  0  0  0  0  0  0  0  0
  -21.8087  -29.6035   24.7435 C   0  0  0  0  0  0  0  0  0  0  0  0
  -25.2931  -17.0180   20.2885 N   0  0  0  0  0  0  0  0  0  0  0  0
  -24.7645  -18.1585   19.8132 N   0  0  0  0  0  0  0  0  0  0  0  0
  -23.8524  -30.4411   21.9174 N   0  0  0  0  0  0  0  0  0  0  0  0
  -25.2807  -21.3323   21.8914 N   0  0  0  0  0  0  0  0  0  0  0  0
  -23.0557  -19.0073   18.4096 N   0  0  0  0  0  0  0  0  0  0  0  0
  -22.4837  -14.5344   18.1595 N   0  0  0  0  0  0  0  0  0  0  0  0
  -25.5762  -33.5105   22.4983 N   0  0  0  0  0  0  0  0  0  0  0  0
  -20.8752  -28.9348   22.4884 N   0  0  0  0  0  0  0  0  0  0  0  0
  -23.4077  -22.8185   21.7460 N   0  0  0  0  0  0  0  0  0  0  0  0
  -19.6671  -26.8032   19.8306 N   0  3  0  0  0  0  0  0  0  0  0  0
  -21.6976  -16.5565   17.4166 O   0  0  0  0  0  0  0  0  0  0  0  0
  -25.9813  -31.3324   23.2156 O   0  0  0  0  0  0  0  0  0  0  0  0
  -21.9179  -31.6034   22.5032 O   0  0  0  0  0  0  0  0  0  0  0  0
  -21.7444  -26.9254   21.7243 O   0  0  0  0  0  0  0  0  0  0  0  0
  -24.8857  -22.9252   23.5114 O   0  0  0  0  0  0  0  0  0  0  0  0
  -25.5306  -10.6732   20.7754 O   0  0  0  0  0  0  0  0  0  0  0  0
  -28.3305  -26.6452   20.0224 O   0  0  0  0  0  0  0  0  0  1  0  0
  -26.8144  -24.4146   17.8641 O   0  0  0  0  0  0  0  0  0  0  0  0
  -21.2102   -7.4366   21.8988 F   0  0  0  0  0  0  0  0  0  0  0  0
  -23.4904  -10.3430   18.9393 F   0  0  0  0  0  0  0  0  0  0  0  0
  1  2  1  0  0  0  0
  1  6  2  0  0  0  0
  2  7  2  0  0  0  0
  3  9  1  0  0  0  0
  3 10  2  0  0  0  0
  4 11  2  0  0  0  0
  4 19  1  0  0  0  0
  5 12  1  0  0  0  0
  5 19  2  0  0  0  0
  6 21  1  0  0  0  0
  7 23  1  0  0  0  0
  8 13  2  0  0  0  0
  8 22  1  0  0  0  0
  9 25  2  0  0  0  0
 10 28  1  0  0  0  0
 11 26  1  0  0  0  0
 12 26  2  0  0  0  0
 13 27  1  0  0  0  0
 14 15  2  0  0  0  0
 14 29  1  0  0  0  0
 15 30  1  0  0  0  0
 16 24  1  0  0  0  0
 16 27  2  0  0  0  0
 17 25  1  0  0  0  0
 17 28  2  0  0  0  0
 18 30  2  0  0  0  0
 18 31  1  0  0  0  0
 19 32  1  0  0  0  0
 20 32  1  0  0  0  0
 20 33  2  0  0  0  0
 20 34  1  0  0  0  0
 21 23  2  0  0  0  0
 21 39  1  0  0  0  0
 22 24  2  0  0  0  0
 22 40  1  0  0  0  0
 23 48  1  0  0  0  0
 24 41  1  0  0  0  0
 25 57  1  0  0  0  0
 26 79  1  0  0  0  0
 27 80  1  0  0  0  0
 28 81  1  0  0  0  0
 29 31  2  0  0  0  0
 29 79  1  0  0  0  0
 30 82  1  0  0  0  0
 31 83  1  0  0  0  0
 32 64  2  0  0  0  0
 33 65  1  0  0  0  0
 33 68  1  0  0  0  0
 34 69  1  0  0  0  0
 34 74  2  0  0  0  0
 35 49  1  0  0  0  0
 35 70  1  0  0  0  0
 35 75  2  0  0  0  0
 36 61  1  0  0  0  0
 36 66  1  0  0  0  0
 36 76  2  0  0  0  0
 37 62  1  0  0  0  0
 37 71  1  0  0  0  0
 37 77  2  0  0  0  0
 38 67  1  0  0  0  0
 38 72  1  0  0  0  0
 38 78  2  0  0  0  0
 39 42  1  0  0  0  0
 40 49  1  0  0  0  0
 41 66  1  0  0  0  0
 42 44  1  0  0  0  0
 43 45  1  0  0  0  0
 43 46  1  0  0  0  0
 44 48  1  0  0  0  0
 45 50  1  0  0  0  0
 46 67  1  0  0  0  0
 47 50  1  0  0  0  0
 47 67  1  0  0  0  0
 48 70  1  0  0  0  0
 49 66  1  0  0  0  0
 50 65  1  0  0  0  0
 51 62  1  0  0  0  0
 52 63  1  0  0  0  0
 53 63  1  0  0  0  0
 54 63  1  0  0  0  0
 55 72  1  0  0  0  0
 56 73  1  0  0  0  0
 57 72  1  0  0  0  0
 58 59  1  0  0  0  0
 58 60  1  0  0  0  0
 59 80  1  0  0  0  0
 60 81  1  0  0  0  0
 61 63  1  0  0  0  0
 61 71  1  0  0  0  0
 62 73  1  0  0  0  0
 64 65  1  0  0  0  0
M  CHG  1  73   1
M  ISO  4  38 100  59 101  72 100  80 101
M  END
> <Batch ID>
0014

> <Smiles>
CNC(C)C(=O)NC(C(=O)N1Cc2cc([101O:1][101CH2:1]CCOc3cccc(C[100N:0](C)[100C:0](=O)N4CCCC(n5nc(-c6ccc(Oc7ccc(F)cc7F)cc6)c(C(N)=O)c5N)C4)c3)ccc2CC1C(=O)NC1CCCc2ccccc21)C(C)(C)C

> <Shape>
0.255

> <Color>
0.094

> <Negative vol penalty>
0.000

$$$$

  -OEChem-04042320513D

 87 95  0     1  0  0  0  0  0999 V2000
  -26.3151  -17.7752   22.4978 C   0  0  0  0  0  0  0  0  0  0  0  0
  -26.8127  -18.4417   21.3826 C   0  0  0  0  0  0  0  0  0  0  0  0
  -23.1606   -9.8553   19.9124 C   0  0  0  0  0  0  0  0  0  0  0  0
  -23.8362   -9.8984   22.2316 C   0  0  0  0  0  0  0  0  0  0  0  0
  -24.9486  -17.8032   22.7730 C   0  0  0  0  0  0  0  0  0  0  0  0
  -25.9437  -19.1358   20.5414 C   0  0  0  0  0  0  0  0  0  0  0  0
  -27.7157  -23.7032   19.2593 C   0  0  0  0  0  0  0  0  0  0  0  0
  -31.8986  -18.6475   20.2908 C   0  0  0  0  0  0  0  0  0  0  0  0
  -32.7468  -17.2239   18.5327 C   0  0  0  0  0  0  0  0  0  0  0  0
  -31.7108  -19.6760   19.3674 C   0  0  0  0  0  0  0  0  0  0  0  0
  -32.5590  -18.2523   17.6093 C   0  0  0  0  0  0  0  0  0  0  0  0
  -22.4327   -8.6886   20.1461 C   0  0  0  0  0  0  0  0  0  0  0  0
  -23.1083   -8.7317   22.4654 C   0  0  0  0  0  0  0  0  0  0  0  0
  -28.6984  -23.7506   18.2714 C   0  0  0  0  0  0  0  0  0  0  0  0
  -19.8780   -7.8699   22.9582 C   0  0  0  0  0  0  0  0  0  0  0  0
  -19.0800   -7.8238   24.1012 C   0  0  0  0  0  0  0  0  0  0  0  0
  -27.0235  -24.3517   16.6427 C   0  0  0  0  0  0  0  0  0  0  0  0
  -20.3346   -5.9199   24.9003 C   0  0  0  0  0  0  0  0  0  0  0  0
  -23.8624  -10.4602   20.9552 C   0  0  0  0  0  0  0  0  0  0  0  0
  -24.1548  -12.9910   20.8239 C   0  0  0  0  0  0  0  0  0  0  0  0
  -24.0637  -18.5060   21.9402 C   0  0  0  0  0  0  0  0  0  0  0  0
  -26.3756  -23.9694   18.9435 C   0  0  0  0  0  0  0  0  0  0  0  0
  -24.5639  -19.1721   20.8050 C   0  0  0  0  0  0  0  0  0  0  0  0
  -26.0261  -24.3095   17.6289 C   0  0  0  0  0  0  0  0  0  0  0  0
  -32.4166  -17.4215   19.8734 C   0  0  0  0  0  0  0  0  0  0  0  0
  -32.0410  -19.4784   18.0267 C   0  0  0  0  0  0  0  0  0  0  0  0
  -22.4066   -8.1268   21.4226 C   0  0  0  0  0  0  0  0  0  0  0  0
  -28.3519  -24.0721   16.9623 C   0  0  0  0  0  0  0  0  0  0  0  0
  -20.9043   -6.9409   22.7861 C   0  0  0  0  0  0  0  0  0  0  0  0
  -19.3083   -6.8488   25.0723 C   0  0  0  0  0  0  0  0  0  0  0  0
  -21.1326   -5.9660   23.7572 C   0  0  0  0  0  0  0  0  0  0  0  0
  -24.6150  -11.6651   20.7143 C   0  0  0  0  0  0  0  0  0  0  0  0
  -25.2433  -13.7606   20.4934 C   0  0  0  0  0  0  0  0  0  0  0  0
  -22.8593  -13.4829   21.1917 C   0  0  0  0  0  0  0  0  0  0  0  0
  -32.1261  -20.4813   15.7398 C   0  0  0  0  0  0  0  0  0  0  0  0
  -31.7935  -21.7775   15.0696 C   0  0  0  0  0  0  0  0  0  0  0  0
  -23.6694  -22.3065   19.0648 C   0  0  0  0  0  0  0  0  0  0  0  0
  -22.3428  -25.1465   18.2299 C   0  0  0  0  0  0  0  0  0  0  0  0
  -22.7288  -28.2064   16.7687 C   0  0  0  0  0  0  0  0  0  0  0  0
  -30.5670  -14.9296   20.9817 C   0  0  0  0  0  0  0  0  0  0  0  0
  -22.5886  -18.4684   22.2520 C   0  0  0  0  0  0  0  0  0  0  0  0
  -25.3316  -23.9403   20.0259 C   0  0  0  0  0  0  0  0  0  0  0  0
  -24.6048  -24.6237   17.2421 C   0  0  0  0  0  0  0  0  0  0  0  0
  -21.7837  -19.5388   21.5195 C   0  0  0  0  0  0  0  0  0  0  0  0
  -29.6978  -12.4718   18.4715 C   0  0  0  0  0  0  0  0  0  0  0  0
  -22.1770  -19.5879   20.0465 C   0  0  0  0  0  0  0  0  0  0  0  0
  -28.2493  -12.1532   18.8465 C   0  0  0  0  0  0  0  0  0  0  0  0
  -30.5540  -12.6966   19.7143 C   0  0  0  0  0  0  0  0  0  0  0  0
  -28.5918  -13.4328   21.0110 C   0  0  0  0  0  0  0  0  0  0  0  0
  -23.6564  -19.9566   19.8825 C   0  0  1  0  0  0  0  0  0  0  0  0
  -23.9198  -23.7261   19.4888 C   0  0  1  0  0  0  0  0  0  0  0  0
  -27.6696  -13.2172   19.7973 C   0  0  2  0  0  0  0  0  0  0  0  0
  -21.4560  -30.2937   16.2026 C   0  0  0  0  0  0  0  0  0  0  0  0
  -20.9950  -23.6927   15.9104 C   0  0  0  0  0  0  0  0  0  0  0  0
  -20.5412  -25.9230   14.8675 C   0  0  0  0  0  0  0  0  0  0  0  0
  -19.5433  -25.3578   17.0827 C   0  0  0  0  0  0  0  0  0  0  0  0
  -29.4859  -20.8686   14.7209 C   0  0  0  0  0  0  0  0  0  0  0  0
  -24.4980  -29.8802   18.4501 C   0  0  0  0  0  0  0  0  0  0  0  0
  -32.6174  -16.3219   20.8608 C   0  0  0  0  0  0  0  0  0  0  0  0
  -30.0600  -23.1385   13.9330 C   0  0  0  0  0  0  0  0  0  0  0  0
  -28.9050  -23.7972   14.6657 C   0  0  0  0  0  0  0  0  0  1  0  0
  -22.0213  -25.8337   16.9248 C   0  0  1  0  0  0  0  0  0  0  0  0
  -22.3374  -29.5990   17.2289 C   0  0  2  0  0  0  0  0  0  0  0  0
  -20.8018  -25.1940   16.2029 C   0  0  0  0  0  0  0  0  0  0  0  0
  -25.8959  -11.5929   20.3430 N   0  0  0  0  0  0  0  0  0  0  0  0
  -26.2500  -12.8831   20.2163 N   0  0  0  0  0  0  0  0  0  0  0  0
  -23.6192  -24.5758   18.3348 N   0  0  0  0  0  0  0  0  0  0  0  0
  -29.9570  -13.7339   20.5674 N   0  0  0  0  0  0  0  0  0  0  0  0
  -25.4280  -15.0957   20.4155 N   0  0  0  0  0  0  0  0  0  0  0  0
  -21.8552  -12.5551   21.5007 N   0  0  0  0  0  0  0  0  0  0  0  0
  -31.8505  -20.5205   17.0904 N   0  0  0  0  0  0  0  0  0  0  0  0
  -23.8470  -21.3785   20.0731 N   0  0  0  0  0  0  0  0  0  0  0  0
  -21.8551  -27.2487   17.2386 N   0  0  0  0  0  0  0  0  0  0  0  0
  -31.8626  -15.1355   20.5236 N   0  0  0  0  0  0  0  0  0  0  0  0
  -30.4891  -21.9307   14.5870 N   0  0  0  0  0  0  0  0  0  0  0  0
  -23.5528  -30.4334   17.4463 N   0  3  0  0  0  0  0  0  0  0  0  0
  -22.5950  -14.7086   21.2289 O   0  0  0  0  0  0  0  0  0  0  0  0
  -32.5593  -19.5898   15.0290 O   0  0  0  0  0  0  0  0  0  0  0  0
  -32.7051  -22.5942   15.0114 O   0  0  0  0  0  0  0  0  0  0  0  0
  -23.3380  -22.0707   17.9088 O   0  0  0  0  0  0  0  0  0  0  0  0
  -21.4954  -25.1233   19.1260 O   0  0  0  0  0  0  0  0  0  0  0  0
  -23.7093  -27.9901   16.0598 O   0  0  0  0  0  0  0  0  0  0  0  0
  -29.9971  -15.7558   21.7026 O   0  0  0  0  0  0  0  0  0  0  0  0
  -21.6962   -6.9885   21.6511 O   0  0  0  0  0  0  0  0  0  0  0  0
  -29.3090  -24.1184   15.9961 O   0  0  0  0  0  0  0  0  0  1  0  0
  -18.5428   -6.8056   26.1707 F   0  0  0  0  0  0  0  0  0  0  0  0
  -22.1178   -5.0717   23.5980 F   0  0  0  0  0  0  0  0  0  0  0  0
  1  2  1  0  0  0  0
  1  5  2  0  0  0  0
  2  6  2  0  0  0  0
  3 12  2  0  0  0  0
  3 19  1  0  0  0  0
  4 13  1  0  0  0  0
  4 19  2  0  0  0  0
  5 21  1  0  0  0  0
  6 23  1  0  0  0  0
  7 14  2  0  0  0  0
  7 22  1  0  0  0  0
  8 10  2  0  0  0  0
  8 25  1  0  0  0  0
  9 11  1  0  0  0  0
  9 25  2  0  0  0  0
 10 26  1  0  0  0  0
 11 26  2  0  0  0  0
 12 27  1  0  0  0  0
 13 27  2  0  0  0  0
 14 28  1  0  0  0  0
 15 16  2  0  0  0  0
 15 29  1  0  0  0  0
 16 30  1  0  0  0  0
 17 24  1  0  0  0  0
 17 28  2  0  0  0  0
 18 30  2  0  0  0  0
 18 31  1  0  0  0  0
 19 32  1  0  0  0  0
 20 32  1  0  0  0  0
 20 33  2  0  0  0  0
 20 34  1  0  0  0  0
 21 23  2  0  0  0  0
 21 41  1  0  0  0  0
 22 24  2  0  0  0  0
 22 42  1  0  0  0  0
 23 50  1  0  0  0  0
 24 43  1  0  0  0  0
 25 59  1  0  0  0  0
 26 71  1  0  0  0  0
 27 84  1  0  0  0  0
 28 85  1  0  0  0  0
 29 31  2  0  0  0  0
 29 84  1  0  0  0  0
 30 86  1  0  0  0  0
 31 87  1  0  0  0  0
 32 65  2  0  0  0  0
 33 66  1  0  0  0  0
 33 69  1  0  0  0  0
 34 70  1  0  0  0  0
 34 77  2  0  0  0  0
 35 36  1  0  0  0  0
 35 71  1  0  0  0  0
 35 78  2  0  0  0  0
 36 75  1  0  0  0  0
 36 79  2  0  0  0  0
 37 51  1  0  0  0  0
 37 72  1  0  0  0  0
 37 80  2  0  0  0  0
 38 62  1  0  0  0  0
 38 67  1  0  0  0  0
 38 81  2  0  0  0  0
 39 63  1  0  0  0  0
 39 73  1  0  0  0  0
 39 82  2  0  0  0  0
 40 68  1  0  0  0  0
 40 74  1  0  0  0  0
 40 83  2  0  0  0  0
 41 44  1  0  0  0  0
 42 51  1  0  0  0  0
 43 67  1  0  0  0  0
 44 46  1  0  0  0  0
 45 47  1  0  0  0  0
 45 48  1  0  0  0  0
 46 50  1  0  0  0  0
 47 52  1  0  0  0  0
 48 68  1  0  0  0  0
 49 52  1  0  0  0  0
 49 68  1  0  0  0  0
 50 72  1  0  0  0  0
 51 67  1  0  0  0  0
 52 66  1  0  0  0  0
 53 63  1  0  0  0  0
 54 64  1  0  0  0  0
 55 64  1  0  0  0  0
 56 64  1  0  0  0  0
 57 75  1  0  0  0  0
 58 76  1  0  0  0  0
 59 74  1  0  0  0  0
 60 61  1  0  0  0  0
 60 75  1  0  0  0  0
 61 85  1  0  0  0  0
 62 64  1  0  0  0  0
 62 73  1  0  0  0  0
 63 76  1  0  0  0  0
 65 66  1  0  0  0  0
M  CHG  1  76   1
M  ISO  4  40 100  61 101  74 100  85 101
M  END
> <Batch ID>
0014

> <Smiles>
CNC(C)C(=O)NC(C(=O)N1Cc2cc([101O:1][101CH2:1]CN(C)C(=O)C(=O)Nc3ccc(C[100NH:0][100C:0](=O)N4CCCC(n5nc(-c6ccc(Oc7ccc(F)cc7F)cc6)c(C(N)=O)c5N)C4)cc3)ccc2CC1C(=O)NC1CCCc2ccccc21)C(C)(C)C

> <Shape>
0.173

> <Color>
0.167

> <Negative vol penalty>
0.000

$$$$

  -OEChem-04042320513D

 82 90  0     1  0  0  0  0  0999 V2000
  -24.5775  -25.9682   36.9384 C   0  0  0  0  0  0  0  0  0  0  0  0
  -25.5147  -25.5869   35.9837 C   0  0  0  0  0  0  0  0  0  0  0  0
  -23.0742   -9.8686   19.9404 C   0  0  0  0  0  0  0  0  0  0  0  0
  -23.8338   -9.8748   22.2338 C   0  0  0  0  0  0  0  0  0  0  0  0
  -23.8030  -25.0014   37.5783 C   0  0  0  0  0  0  0  0  0  0  0  0
  -25.6788  -24.2384   35.6690 C   0  0  0  0  0  0  0  0  0  0  0  0
  -27.0489  -21.8777   30.1866 C   0  0  0  0  0  0  0  0  0  0  0  0
  -29.8813  -17.4535   23.1395 C   0  0  0  0  0  0  0  0  0  0  0  0
  -32.0652  -16.6033   22.5523 C   0  0  0  0  0  0  0  0  0  0  0  0
  -30.4686  -18.3363   24.0458 C   0  0  0  0  0  0  0  0  0  0  0  0
  -32.6526  -17.4861   23.4585 C   0  0  0  0  0  0  0  0  0  0  0  0
  -22.3295   -8.7159   20.1901 C   0  0  0  0  0  0  0  0  0  0  0  0
  -23.0891   -8.7221   22.4836 C   0  0  0  0  0  0  0  0  0  0  0  0
  -28.2493  -21.4443   29.6254 C   0  0  0  0  0  0  0  0  0  0  0  0
  -19.8603   -7.9263   23.0857 C   0  0  0  0  0  0  0  0  0  0  0  0
  -19.1032   -7.8867   24.2564 C   0  0  0  0  0  0  0  0  0  0  0  0
  -27.7247  -19.1790   30.2674 C   0  0  0  0  0  0  0  0  0  0  0  0
  -20.3433   -5.9484   24.9928 C   0  0  0  0  0  0  0  0  0  0  0  0
  -23.8264  -10.4480   20.9622 C   0  0  0  0  0  0  0  0  0  0  0  0
  -24.1698  -12.9730   20.8425 C   0  0  0  0  0  0  0  0  0  0  0  0
  -23.9509  -23.6411   37.2643 C   0  0  0  0  0  0  0  0  0  0  0  0
  -26.1810  -20.9650   30.8032 C   0  0  0  0  0  0  0  0  0  0  0  0
  -24.9066  -23.2524   36.3062 C   0  0  0  0  0  0  0  0  0  0  0  0
  -26.5127  -19.6029   30.8335 C   0  0  0  0  0  0  0  0  0  0  0  0
  -30.6796  -16.5869   22.3928 C   0  0  0  0  0  0  0  0  0  0  0  0
  -31.8542  -18.3526   24.2053 C   0  0  0  0  0  0  0  0  0  0  0  0
  -22.3369   -8.1426   21.4617 C   0  0  0  0  0  0  0  0  0  0  0  0
  -28.5887  -20.0952   29.6683 C   0  0  0  0  0  0  0  0  0  0  0  0
  -20.8589   -6.9769   22.8684 C   0  0  0  0  0  0  0  0  0  0  0  0
  -19.3447   -6.8978   25.2101 C   0  0  0  0  0  0  0  0  0  0  0  0
  -21.1004   -5.9880   23.8220 C   0  0  0  0  0  0  0  0  0  0  0  0
  -24.5962  -11.6384   20.7047 C   0  0  0  0  0  0  0  0  0  0  0  0
  -25.2625  -13.7218   20.4795 C   0  0  0  0  0  0  0  0  0  0  0  0
  -22.8997  -13.4896   21.2614 C   0  0  0  0  0  0  0  0  0  0  0  0
  -25.0412  -20.5908   33.7467 C   0  0  0  0  0  0  0  0  0  0  0  0
  -23.2609  -18.2707   32.3432 C   0  0  0  0  0  0  0  0  0  0  0  0
  -22.8988  -16.0502   29.7771 C   0  0  0  0  0  0  0  0  0  0  0  0
  -30.7294  -14.7638   20.6550 C   0  0  0  0  0  0  0  0  0  0  0  0
  -23.1244  -22.6284   38.0165 C   0  0  0  0  0  0  0  0  0  0  0  0
  -24.8774  -21.4445   31.3802 C   0  0  0  0  0  0  0  0  0  0  0  0
  -25.6060  -18.5798   31.4657 C   0  0  0  0  0  0  0  0  0  0  0  0
  -23.0967  -21.2528   37.3554 C   0  0  0  0  0  0  0  0  0  0  0  0
  -29.6137  -12.3509   18.2863 C   0  0  0  0  0  0  0  0  0  0  0  0
  -24.5037  -20.8288   36.9462 C   0  0  0  0  0  0  0  0  0  0  0  0
  -28.1738  -12.0603   18.7157 C   0  0  0  0  0  0  0  0  0  0  0  0
  -30.5288  -12.5790   19.4881 C   0  0  0  0  0  0  0  0  0  0  0  0
  -28.6222  -13.3046   20.8692 C   0  0  0  0  0  0  0  0  0  0  0  0
  -25.0964  -21.8016   35.9197 C   0  0  1  0  0  0  0  0  0  0  0  0
  -24.3094  -20.5026   32.4374 C   0  0  1  0  0  0  0  0  0  0  0  0
  -27.6494  -13.1321   19.6912 C   0  0  2  0  0  0  0  0  0  0  0  0
  -21.3598  -14.2622   28.9215 C   0  0  0  0  0  0  0  0  0  0  0  0
  -24.3109  -16.3522   34.4708 C   0  0  0  0  0  0  0  0  0  0  0  0
  -23.5309  -14.4504   33.0413 C   0  0  0  0  0  0  0  0  0  0  0  0
  -21.8810  -16.0919   33.9392 C   0  0  0  0  0  0  0  0  0  0  0  0
  -33.8988  -19.2575   25.2828 C   0  0  0  0  0  0  0  0  0  0  0  0
  -22.3889  -17.5290   27.2647 C   0  0  0  0  0  0  0  0  0  0  0  0
  -31.0777  -19.4702   27.1260 C   0  0  0  0  0  0  0  0  0  0  0  0
  -31.6493  -20.1604   25.8935 C   0  0  0  0  0  0  0  0  0  0  0  0
  -30.2643  -20.4084   28.0099 C   0  0  0  0  0  0  0  0  0  1  0  0
  -23.4431  -16.7954   32.0799 C   0  0  1  0  0  0  0  0  0  0  0  0
  -21.7197  -15.7390   28.8731 C   0  0  2  0  0  0  0  0  0  0  0  0
  -23.3097  -15.9418   33.3725 C   0  0  0  0  0  0  0  0  0  0  0  0
  -25.8611  -11.5418   20.2866 N   0  0  0  0  0  0  0  0  0  0  0  0
  -26.2389  -12.8251   20.1585 N   0  0  0  0  0  0  0  0  0  0  0  0
  -24.3456  -19.0989   32.0218 N   0  0  0  0  0  0  0  0  0  0  0  0
  -29.9704  -13.6101   20.3655 N   0  0  0  0  0  0  0  0  0  0  0  0
  -25.4738  -15.0531   20.4067 N   0  0  0  0  0  0  0  0  0  0  0  0
  -21.8871  -12.5810   21.5984 N   0  0  0  0  0  0  0  0  0  0  0  0
  -30.0825  -15.6891   21.4734 N   0  0  0  0  0  0  0  0  0  0  0  0
  -24.5421  -21.5505   34.6066 N   0  0  0  0  0  0  0  0  0  0  0  0
  -22.4892  -16.4469   31.0325 N   0  0  0  0  0  0  0  0  0  0  0  0
  -32.4443  -19.2409   25.1159 N   0  0  3  0  0  0  0  0  0  0  0  0
  -22.0393  -16.0988   27.4626 N   0  3  0  0  0  0  0  0  0  0  0  0
  -22.6642  -14.7203   21.3188 O   0  0  0  0  0  0  0  0  0  0  0  0
  -25.9876  -19.8425   33.9616 O   0  0  0  0  0  0  0  0  0  0  0  0
  -22.1927  -18.6743   32.8100 O   0  0  0  0  0  0  0  0  0  0  0  0
  -24.0666  -15.9477   29.4078 O   0  0  0  0  0  0  0  0  0  0  0  0
  -31.8586  -14.9318   20.1875 O   0  0  0  0  0  0  0  0  0  0  0  0
  -21.6102   -7.0180   21.7058 O   0  0  0  0  0  0  0  0  0  0  0  0
  -29.7601  -19.6697   29.1219 O   0  0  0  0  0  0  0  0  0  1  0  0
  -18.6186   -6.8609   26.3350 F   0  0  0  0  0  0  0  0  0  0  0  0
  -22.0591   -5.0739   23.6194 F   0  0  0  0  0  0  0  0  0  0  0  0
  1  2  1  0  0  0  0
  1  5  2  0  0  0  0
  2  6  2  0  0  0  0
  3 12  2  0  0  0  0
  3 19  1  0  0  0  0
  4 13  1  0  0  0  0
  4 19  2  0  0  0  0
  5 21  1  0  0  0  0
  6 23  1  0  0  0  0
  7 14  2  0  0  0  0
  7 22  1  0  0  0  0
  8 10  2  0  0  0  0
  8 25  1  0  0  0  0
  9 11  1  0  0  0  0
  9 25  2  0  0  0  0
 10 26  1  0  0  0  0
 11 26  2  0  0  0  0
 12 27  1  0  0  0  0
 13 27  2  0  0  0  0
 14 28  1  0  0  0  0
 15 16  2  0  0  0  0
 15 29  1  0  0  0  0
 16 30  1  0  0  0  0
 17 24  1  0  0  0  0
 17 28  2  0  0  0  0
 18 30  2  0  0  0  0
 18 31  1  0  0  0  0
 19 32  1  0  0  0  0
 20 32  1  0  0  0  0
 20 33  2  0  0  0  0
 20 34  1  0  0  0  0
 21 23  2  0  0  0  0
 21 39  1  0  0  0  0
 22 24  2  0  0  0  0
 22 40  1  0  0  0  0
 23 48  1  0  0  0  0
 24 41  1  0  0  0  0
 25 69  1  0  0  0  0
 26 72  1  0  0  0  0
 27 79  1  0  0  0  0
 28 80  1  0  0  0  0
 29 31  2  0  0  0  0
 29 79  1  0  0  0  0
 30 81  1  0  0  0  0
 31 82  1  0  0  0  0
 32 63  2  0  0  0  0
 33 64  1  0  0  0  0
 33 67  1  0  0  0  0
 34 68  1  0  0  0  0
 34 74  2  0  0  0  0
 35 49  1  0  0  0  0
 35 70  1  0  0  0  0
 35 75  2  0  0  0  0
 36 60  1  0  0  0  0
 36 65  1  0  0  0  0
 36 76  2  0  0  0  0
 37 61  1  0  0  0  0
 37 71  1  0  0  0  0
 37 77  2  0  0  0  0
 38 66  1  0  0  0  0
 38 69  1  0  0  0  0
 38 78  2  0  0  0  0
 39 42  1  0  0  0  0
 40 49  1  0  0  0  0
 41 65  1  0  0  0  0
 42 44  1  0  0  0  0
 43 45  1  0  0  0  0
 43 46  1  0  0  0  0
 44 48  1  0  0  0  0
 45 50  1  0  0  0  0
 46 66  1  0  0  0  0
 47 50  1  0  0  0  0
 47 66  1  0  0  0  0
 48 70  1  0  0  0  0
 49 65  1  0  0  0  0
 50 64  1  0  0  0  0
 51 61  1  0  0  0  0
 52 62  1  0  0  0  0
 53 62  1  0  0  0  0
 54 62  1  0  0  0  0
 55 72  1  0  0  0  0
 56 73  1  0  0  0  0
 57 58  1  0  0  0  0
 57 59  1  0  0  0  0
 58 72  1  0  0  0  0
 59 80  1  0  0  0  0
 60 62  1  0  0  0  0
 60 71  1  0  0  0  0
 61 73  1  0  0  0  0
 63 64  1  0  0  0  0
M  CHG  1  73   1
M  ISO  4  38 100  59 101  69 100  80 101
M  END
> <Batch ID>
0014

> <Smiles>
CNC(C)C(=O)NC(C(=O)N1Cc2cc([101O:1][101CH2:1]CCN(C)c3ccc([100NH:0][100C:0](=O)N4CCCC(n5nc(-c6ccc(Oc7ccc(F)cc7F)cc6)c(C(N)=O)c5N)C4)cc3)ccc2CC1C(=O)NC1CCCc2ccccc21)C(C)(C)C

> <Shape>
0.167

> <Color>
0.200

> <Negative vol penalty>
0.000

$$$$

  -OEChem-04042320513D

 85 93  0     1  0  0  0  0  0999 V2000
  -25.4692  -28.4521   30.3853 C   0  0  0  0  0  0  0  0  0  0  0  0
  -26.5377  -27.7755   29.8056 C   0  0  0  0  0  0  0  0  0  0  0  0
  -23.2007   -9.7857   20.3137 C   0  0  0  0  0  0  0  0  0  0  0  0
  -24.1170  -10.0843   22.5292 C   0  0  0  0  0  0  0  0  0  0  0  0
  -24.3969  -28.8659   29.5960 C   0  0  0  0  0  0  0  0  0  0  0  0
  -26.5339  -27.5113   28.4364 C   0  0  0  0  0  0  0  0  0  0  0  0
  -30.9863  -26.8804   22.8602 C   0  0  0  0  0  0  0  0  0  0  0  0
  -28.6585  -19.1128   19.8182 C   0  0  0  0  0  0  0  0  0  0  0  0
  -28.7770  -20.2677   19.0451 C   0  0  0  0  0  0  0  0  0  0  0  0
  -22.5550   -8.6242   20.7373 C   0  0  0  0  0  0  0  0  0  0  0  0
  -23.4712   -8.9228   22.9528 C   0  0  0  0  0  0  0  0  0  0  0  0
  -31.3026  -25.9970   21.8290 C   0  0  0  0  0  0  0  0  0  0  0  0
  -20.3537   -8.0049   23.8798 C   0  0  0  0  0  0  0  0  0  0  0  0
  -19.6849   -8.0465   25.1031 C   0  0  0  0  0  0  0  0  0  0  0  0
  -29.4334  -26.8291   20.5511 C   0  0  0  0  0  0  0  0  0  0  0  0
  -29.5436  -17.8002   17.9932 C   0  0  0  0  0  0  0  0  0  0  0  0
  -21.1016   -6.2763   25.9378 C   0  0  0  0  0  0  0  0  0  0  0  0
  -23.9818  -10.5157   21.2096 C   0  0  0  0  0  0  0  0  0  0  0  0
  -24.1447  -13.0291   20.8045 C   0  0  0  0  0  0  0  0  0  0  0  0
  -24.3845  -28.6151   28.2149 C   0  0  0  0  0  0  0  0  0  0  0  0
  -29.8829  -27.7386   22.7489 C   0  0  0  0  0  0  0  0  0  0  0  0
  -25.4598  -27.9209   27.6282 C   0  0  0  0  0  0  0  0  0  0  0  0
  -29.1068  -27.7243   21.5812 C   0  0  0  0  0  0  0  0  0  0  0  0
  -29.0419  -17.8790   19.2923 C   0  0  0  0  0  0  0  0  0  0  0  0
  -29.2787  -20.1889   17.7460 C   0  0  0  0  0  0  0  0  0  0  0  0
  -22.6902   -8.1927   22.0568 C   0  0  0  0  0  0  0  0  0  0  0  0
  -30.5244  -25.9692   20.6754 C   0  0  0  0  0  0  0  0  0  0  0  0
  -21.3964   -7.0990   23.6854 C   0  0  0  0  0  0  0  0  0  0  0  0
  -20.0588   -7.1822   26.1321 C   0  0  0  0  0  0  0  0  0  0  0  0
  -29.6620  -18.9552   17.2200 C   0  0  0  0  0  0  0  0  0  0  0  0
  -21.7704   -6.2347   24.7144 C   0  0  0  0  0  0  0  0  0  0  0  0
  -24.6496  -11.7154   20.7725 C   0  0  0  0  0  0  0  0  0  0  0  0
  -25.1562  -13.7984   20.2834 C   0  0  0  0  0  0  0  0  0  0  0  0
  -22.8750  -13.5109   21.2642 C   0  0  0  0  0  0  0  0  0  0  0  0
  -27.1691  -28.1234   24.3586 C   0  0  0  0  0  0  0  0  0  0  0  0
  -26.8214  -30.6813   22.3944 C   0  0  0  0  0  0  0  0  0  0  0  0
  -27.6048  -32.1890   19.4346 C   0  0  0  0  0  0  0  0  0  0  0  0
  -30.7314  -14.9038   20.3934 C   0  0  0  0  0  0  0  0  0  0  0  0
  -23.1814  -29.0400   27.4107 C   0  0  0  0  0  0  0  0  0  0  0  0
  -29.5710  -28.7044   23.8590 C   0  0  0  0  0  0  0  0  0  0  0  0
  -27.9238  -28.6395   21.4039 C   0  0  0  0  0  0  0  0  0  0  0  0
  -23.4286  -29.0511   25.9044 C   0  0  0  0  0  0  0  0  0  0  0  0
  -29.4171  -12.4966   17.9075 C   0  0  0  0  0  0  0  0  0  0  0  0
  -24.1322  -27.7695   25.4695 C   0  0  0  0  0  0  0  0  0  0  0  0
  -28.0472  -12.1394   18.4817 C   0  0  0  0  0  0  0  0  0  0  0  0
  -30.4047  -12.8923   19.0010 C   0  0  0  0  0  0  0  0  0  0  0  0
  -28.5485  -13.6296   20.4587 C   0  0  0  0  0  0  0  0  0  0  0  0
  -25.5038  -27.6376   26.1423 C   0  0  1  0  0  0  0  0  0  0  0  0
  -28.1189  -29.1724   23.8535 C   0  0  1  0  0  0  0  0  0  0  0  0
  -27.5165  -13.2710   19.3790 C   0  0  2  0  0  0  0  0  0  0  0  0
  -27.1377  -34.2580   18.0936 C   0  0  0  0  0  0  0  0  0  0  0  0
  -24.0830  -29.5691   21.6367 C   0  0  0  0  0  0  0  0  0  0  0  0
  -24.0862  -31.1008   19.6562 C   0  0  0  0  0  0  0  0  0  0  0  0
  -24.1483  -32.0477   21.9632 C   0  0  0  0  0  0  0  0  0  0  0  0
  -29.9232  -21.2702   15.6069 C   0  0  0  0  0  0  0  0  0  0  0  0
  -31.0738  -17.2204   21.1653 C   0  0  0  0  0  0  0  0  0  0  0  0
  -30.4528  -32.9931   19.4670 C   0  0  0  0  0  0  0  0  0  0  0  0
  -28.9154  -16.6443   20.1189 C   0  0  0  0  0  0  0  0  0  0  0  0
  -30.1002  -23.2479   18.3381 C   0  0  0  0  0  0  0  0  0  0  0  0
  -28.9963  -22.6405   17.4809 C   0  0  0  0  0  0  0  0  0  0  0  0
  -29.7483  -24.6331   18.8676 C   0  0  0  0  0  0  0  0  0  1  0  0
  -26.2061  -30.9094   21.0348 C   0  0  1  0  0  0  0  0  0  0  0  0
  -28.0565  -33.6021   19.1126 C   0  0  2  0  0  0  0  0  0  0  0  0
  -24.6520  -30.8880   21.0766 C   0  0  0  0  0  0  0  0  0  0  0  0
  -25.8856  -11.6501   20.2706 N   0  0  0  0  0  0  0  0  0  0  0  0
  -26.1659  -12.9324   19.9824 N   0  0  0  0  0  0  0  0  0  0  0  0
  -27.6555  -29.5614   22.5200 N   0  0  0  0  0  0  0  0  0  0  0  0
  -29.8580  -13.9389   19.8653 N   0  0  0  0  0  0  0  0  0  0  0  0
  -25.2714  -15.1244   20.0578 N   0  0  0  0  0  0  0  0  0  0  0  0
  -21.9522  -12.5851   21.7698 N   0  0  0  0  0  0  0  0  0  0  0  0
  -26.4707  -28.4954   25.4914 N   0  0  0  0  0  0  0  0  0  0  0  0
  -26.7733  -32.1568   20.5341 N   0  0  0  0  0  0  0  0  0  0  0  0
  -29.3967  -21.3514   16.9708 N   0  0  3  0  0  0  0  0  0  0  0  0
  -30.2045  -16.1827   20.6292 N   0  0  0  0  0  0  0  0  0  0  0  0
  -29.4400  -33.5900   18.5587 N   0  3  0  0  0  0  0  0  0  0  0  0
  -22.5615  -14.7245   21.2124 O   0  0  0  0  0  0  0  0  0  0  0  0
  -27.0757  -27.0561   23.7638 O   0  0  0  0  0  0  0  0  0  0  0  0
  -26.5768  -31.4718   23.3092 O   0  0  0  0  0  0  0  0  0  0  0  0
  -27.9516  -31.2121   18.7745 O   0  0  0  0  0  0  0  0  0  0  0  0
  -31.9171  -14.6401   20.6311 O   0  0  0  0  0  0  0  0  0  0  0  0
  -22.0600   -7.0595   22.4706 O   0  0  0  0  0  0  0  0  0  0  0  0
  -30.8305  -25.1075   19.6677 O   0  0  0  0  0  0  0  0  0  1  0  0
  -19.4175   -7.2233   27.3074 F   0  0  0  0  0  0  0  0  0  0  0  0
  -30.1456  -18.8679   15.9727 F   0  0  0  0  0  0  0  0  0  0  0  0
  -22.7721   -5.3631   24.5340 F   0  0  0  0  0  0  0  0  0  0  0  0
  1  2  1  0  0  0  0
  1  5  2  0  0  0  0
  2  6  2  0  0  0  0
  3 10  2  0  0  0  0
  3 18  1  0  0  0  0
  4 11  1  0  0  0  0
  4 18  2  0  0  0  0
  5 20  1  0  0  0  0
  6 22  1  0  0  0  0
  7 12  2  0  0  0  0
  7 21  1  0  0  0  0
  8  9  2  0  0  0  0
  8 24  1  0  0  0  0
  9 25  1  0  0  0  0
 10 26  1  0  0  0  0
 11 26  2  0  0  0  0
 12 27  1  0  0  0  0
 13 14  2  0  0  0  0
 13 28  1  0  0  0  0
 14 29  1  0  0  0  0
 15 23  1  0  0  0  0
 15 27  2  0  0  0  0
 16 24  2  0  0  0  0
 16 30  1  0  0  0  0
 17 29  2  0  0  0  0
 17 31  1  0  0  0  0
 18 32  1  0  0  0  0
 19 32  1  0  0  0  0
 19 33  2  0  0  0  0
 19 34  1  0  0  0  0
 20 22  2  0  0  0  0
 20 39  1  0  0  0  0
 21 23  2  0  0  0  0
 21 40  1  0  0  0  0
 22 48  1  0  0  0  0
 23 41  1  0  0  0  0
 24 58  1  0  0  0  0
 25 30  2  0  0  0  0
 25 73  1  0  0  0  0
 26 81  1  0  0  0  0
 27 82  1  0  0  0  0
 28 31  2  0  0  0  0
 28 81  1  0  0  0  0
 29 83  1  0  0  0  0
 30 84  1  0  0  0  0
 31 85  1  0  0  0  0
 32 65  2  0  0  0  0
 33 66  1  0  0  0  0
 33 69  1  0  0  0  0
 34 70  1  0  0  0  0
 34 76  2  0  0  0  0
 35 49  1  0  0  0  0
 35 71  1  0  0  0  0
 35 77  2  0  0  0  0
 36 62  1  0  0  0  0
 36 67  1  0  0  0  0
 36 78  2  0  0  0  0
 37 63  1  0  0  0  0
 37 72  1  0  0  0  0
 37 79  2  0  0  0  0
 38 68  1  0  0  0  0
 38 74  1  0  0  0  0
 38 80  2  0  0  0  0
 39 42  1  0  0  0  0
 40 49  1  0  0  0  0
 41 67  1  0  0  0  0
 42 44  1  0  0  0  0
 43 45  1  0  0  0  0
 43 46  1  0  0  0  0
 44 48  1  0  0  0  0
 45 50  1  0  0  0  0
 46 68  1  0  0  0  0
 47 50  1  0  0  0  0
 47 68  1  0  0  0  0
 48 71  1  0  0  0  0
 49 67  1  0  0  0  0
 50 66  1  0  0  0  0
 51 63  1  0  0  0  0
 52 64  1  0  0  0  0
 53 64  1  0  0  0  0
 54 64  1  0  0  0  0
 55 73  1  0  0  0  0
 56 74  1  0  0  0  0
 57 75  1  0  0  0  0
 58 74  1  0  0  0  0
 59 60  1  0  0  0  0
 59 61  1  0  0  0  0
 60 73  1  0  0  0  0
 61 82  1  0  0  0  0
 62 64  1  0  0  0  0
 62 72  1  0  0  0  0
 63 75  1  0  0  0  0
 65 66  1  0  0  0  0
M  CHG  1  75   1
M  ISO  4  38 100  61 101  74 100  82 101
M  END
> <Batch ID>
0014

> <Smiles>
CNC(C)C(=O)NC(C(=O)N1Cc2cc([101O:1][101CH2:1]CCN(C)c3ccc(C[100N:0](C)[100C:0](=O)N4CCCC(n5nc(-c6ccc(Oc7ccc(F)cc7F)cc6)c(C(N)=O)c5N)C4)cc3F)ccc2CC1C(=O)NC1CCCc2ccccc21)C(C)(C)C

> <Shape>
0.309

> <Color>
0.194

> <Negative vol penalty>
0.000

$$$$

  -OEChem-04042320513D

 84 92  0     1  0  0  0  0  0999 V2000
  -29.8678   -2.0832   36.8256 C   0  0  0  0  0  0  0  0  0  0  0  0
  -29.8000   -2.9386   35.7306 C   0  0  0  0  0  0  0  0  0  0  0  0
  -23.2846   -9.7975   19.9080 C   0  0  0  0  0  0  0  0  0  0  0  0
  -23.7225   -9.9368   22.2799 C   0  0  0  0  0  0  0  0  0  0  0  0
  -28.6956   -1.5915   37.3984 C   0  0  0  0  0  0  0  0  0  0  0  0
  -28.5597   -3.3021   35.2070 C   0  0  0  0  0  0  0  0  0  0  0  0
  -27.0427   -8.6994   32.7426 C   0  0  0  0  0  0  0  0  0  0  0  0
  -28.4291  -11.5084   25.2454 C   0  0  0  0  0  0  0  0  0  0  0  0
  -28.4860  -10.3588   23.1212 C   0  0  0  0  0  0  0  0  0  0  0  0
  -27.7612  -10.4241   25.8143 C   0  0  0  0  0  0  0  0  0  0  0  0
  -27.8181   -9.2744   23.6902 C   0  0  0  0  0  0  0  0  0  0  0  0
  -22.5525   -8.6278   20.1119 C   0  0  0  0  0  0  0  0  0  0  0  0
  -22.9904   -8.7671   22.4838 C   0  0  0  0  0  0  0  0  0  0  0  0
  -26.9560   -9.1361   31.4214 C   0  0  0  0  0  0  0  0  0  0  0  0
  -19.7387   -7.8687   22.6830 C   0  0  0  0  0  0  0  0  0  0  0  0
  -18.8303   -7.8507   23.7413 C   0  0  0  0  0  0  0  0  0  0  0  0
  -24.5870   -8.6809   31.4327 C   0  0  0  0  0  0  0  0  0  0  0  0
  -20.0233   -5.9990   24.7339 C   0  0  0  0  0  0  0  0  0  0  0  0
  -23.8696  -10.4519   20.9921 C   0  0  0  0  0  0  0  0  0  0  0  0
  -24.1400  -12.9809   20.7945 C   0  0  0  0  0  0  0  0  0  0  0  0
  -27.4401   -1.9568   36.8876 C   0  0  0  0  0  0  0  0  0  0  0  0
  -25.9022   -8.2391   33.4164 C   0  0  0  0  0  0  0  0  0  0  0  0
  -27.3696   -2.8138   35.7726 C   0  0  0  0  0  0  0  0  0  0  0  0
  -24.6614   -8.2413   32.7633 C   0  0  0  0  0  0  0  0  0  0  0  0
  -28.7915  -11.4758   23.8987 C   0  0  0  0  0  0  0  0  0  0  0  0
  -27.4557   -9.3071   25.0368 C   0  0  0  0  0  0  0  0  0  0  0  0
  -22.4054   -8.1126   21.3998 C   0  0  0  0  0  0  0  0  0  0  0  0
  -25.7286   -9.1242   30.7653 C   0  0  0  0  0  0  0  0  0  0  0  0
  -20.7894   -6.9518   22.6500 C   0  0  0  0  0  0  0  0  0  0  0  0
  -18.9726   -6.9159   24.7667 C   0  0  0  0  0  0  0  0  0  0  0  0
  -20.9317   -6.0170   23.6755 C   0  0  0  0  0  0  0  0  0  0  0  0
  -24.6265  -11.6599   20.7821 C   0  0  0  0  0  0  0  0  0  0  0  0
  -25.2459  -13.7565   20.5456 C   0  0  0  0  0  0  0  0  0  0  0  0
  -22.8075  -13.4637   21.0117 C   0  0  0  0  0  0  0  0  0  0  0  0
  -25.0315   -5.4755   34.7233 C   0  0  0  0  0  0  0  0  0  0  0  0
  -22.4723   -7.2006   35.7218 C   0  0  0  0  0  0  0  0  0  0  0  0
  -20.4424   -9.9047   35.2594 C   0  0  0  0  0  0  0  0  0  0  0  0
  -31.1496  -12.3509   21.3872 C   0  0  0  0  0  0  0  0  0  0  0  0
  -26.2020   -1.3624   37.5107 C   0  0  0  0  0  0  0  0  0  0  0  0
  -26.0076   -7.7965   34.8501 C   0  0  0  0  0  0  0  0  0  0  0  0
  -23.4036   -7.7759   33.4487 C   0  0  0  0  0  0  0  0  0  0  0  0
  -24.9172   -2.0935   37.1297 C   0  0  0  0  0  0  0  0  0  0  0  0
  -29.4877  -13.6547   18.3475 C   0  0  0  0  0  0  0  0  0  0  0  0
  -24.8769   -2.3545   35.6274 C   0  0  0  0  0  0  0  0  0  0  0  0
  -28.0171  -13.3328   18.6079 C   0  0  0  0  0  0  0  0  0  0  0  0
  -30.4170  -12.6711   19.0522 C   0  0  0  0  0  0  0  0  0  0  0  0
  -28.6994  -12.2294   20.7753 C   0  0  0  0  0  0  0  0  0  0  0  0
  -26.0424   -3.2508   35.1916 C   0  0  1  0  0  0  0  0  0  0  0  0
  -24.8755   -6.8653   35.2727 C   0  0  1  0  0  0  0  0  0  0  0  0
  -27.7370  -13.2295   20.1172 C   0  0  2  0  0  0  0  0  0  0  0  0
  -18.4121  -11.0298   36.2130 C   0  0  0  0  0  0  0  0  0  0  0  0
  -20.6974   -5.0672   34.4536 C   0  0  0  0  0  0  0  0  0  0  0  0
  -18.7849   -6.6772   34.5889 C   0  0  0  0  0  0  0  0  0  0  0  0
  -19.9058   -5.8966   36.6762 C   0  0  0  0  0  0  0  0  0  0  0  0
  -26.4659   -7.0444   24.7913 C   0  0  0  0  0  0  0  0  0  0  0  0
  -31.8627  -12.0559   23.7290 C   0  0  0  0  0  0  0  0  0  0  0  0
  -21.9521  -12.3786   35.8592 C   0  0  0  0  0  0  0  0  0  0  0  0
  -29.5053  -12.6348   23.2894 C   0  0  0  0  0  0  0  0  0  0  0  0
  -25.1026   -8.9645   27.2113 C   0  0  0  0  0  0  0  0  0  0  0  0
  -26.4098   -8.2097   27.0020 C   0  0  0  0  0  0  0  0  0  0  0  0
  -24.6335   -8.9512   28.6614 C   0  0  0  0  0  0  0  0  0  1  0  0
  -21.1096   -7.5176   35.1547 C   0  0  1  0  0  0  0  0  0  0  0  0
  -19.9311  -10.9575   36.2262 C   0  0  2  0  0  0  0  0  0  0  0  0
  -20.1483   -6.2967   35.2045 C   0  0  0  0  0  0  0  0  0  0  0  0
  -25.9392  -11.5961   20.5439 N   0  0  0  0  0  0  0  0  0  0  0  0
  -26.2869  -12.8867   20.4044 N   0  0  0  0  0  0  0  0  0  0  0  0
  -23.5593   -7.3469   34.8484 N   0  0  0  0  0  0  0  0  0  0  0  0
  -30.1009  -12.5599   20.4766 N   0  0  0  0  0  0  0  0  0  0  0  0
  -25.4196  -15.0907   20.4359 N   0  0  0  0  0  0  0  0  0  0  0  0
  -21.7900  -12.5308   21.2536 N   0  0  0  0  0  0  0  0  0  0  0  0
  -25.7716   -4.6317   35.5293 N   0  0  0  0  0  0  0  0  0  0  0  0
  -20.6276   -8.6877   35.8806 N   0  0  0  0  0  0  0  0  0  0  0  0
  -26.7858   -8.2161   25.6089 N   0  0  3  0  0  0  0  0  0  0  0  0
  -30.8090  -12.2608   22.7454 N   0  0  0  0  0  0  0  0  0  0  0  0
  -20.4686  -12.2991   35.8629 N   0  3  0  0  0  0  0  0  0  0  0  0
  -22.5246  -14.6852   20.9756 O   0  0  0  0  0  0  0  0  0  0  0  0
  -24.5171   -5.1895   33.6485 O   0  0  0  0  0  0  0  0  0  0  0  0
  -22.5694   -6.8434   36.8985 O   0  0  0  0  0  0  0  0  0  0  0  0
  -20.6527  -10.1376   34.0711 O   0  0  0  0  0  0  0  0  0  0  0  0
  -32.3246  -12.2600   21.0088 O   0  0  0  0  0  0  0  0  0  0  0  0
  -21.6909   -6.9715   21.5991 O   0  0  0  0  0  0  0  0  0  0  0  0
  -25.6413   -9.5493   29.4756 O   0  0  0  0  0  0  0  0  0  1  0  0
  -18.1010   -6.8998   25.7838 F   0  0  0  0  0  0  0  0  0  0  0  0
  -21.9398   -5.1344   23.6500 F   0  0  0  0  0  0  0  0  0  0  0  0
  1  2  1  0  0  0  0
  1  5  2  0  0  0  0
  2  6  2  0  0  0  0
  3 12  2  0  0  0  0
  3 19  1  0  0  0  0
  4 13  1  0  0  0  0
  4 19  2  0  0  0  0
  5 21  1  0  0  0  0
  6 23  1  0  0  0  0
  7 14  2  0  0  0  0
  7 22  1  0  0  0  0
  8 10  2  0  0  0  0
  8 25  1  0  0  0  0
  9 11  1  0  0  0  0
  9 25  2  0  0  0  0
 10 26  1  0  0  0  0
 11 26  2  0  0  0  0
 12 27  1  0  0  0  0
 13 27  2  0  0  0  0
 14 28  1  0  0  0  0
 15 16  2  0  0  0  0
 15 29  1  0  0  0  0
 16 30  1  0  0  0  0
 17 24  1  0  0  0  0
 17 28  2  0  0  0  0
 18 30  2  0  0  0  0
 18 31  1  0  0  0  0
 19 32  1  0  0  0  0
 20 32  1  0  0  0  0
 20 33  2  0  0  0  0
 20 34  1  0  0  0  0
 21 23  2  0  0  0  0
 21 39  1  0  0  0  0
 22 24  2  0  0  0  0
 22 40  1  0  0  0  0
 23 48  1  0  0  0  0
 24 41  1  0  0  0  0
 25 58  1  0  0  0  0
 26 73  1  0  0  0  0
 27 81  1  0  0  0  0
 28 82  1  0  0  0  0
 29 31  2  0  0  0  0
 29 81  1  0  0  0  0
 30 83  1  0  0  0  0
 31 84  1  0  0  0  0
 32 65  2  0  0  0  0
 33 66  1  0  0  0  0
 33 69  1  0  0  0  0
 34 70  1  0  0  0  0
 34 76  2  0  0  0  0
 35 49  1  0  0  0  0
 35 71  1  0  0  0  0
 35 77  2  0  0  0  0
 36 62  1  0  0  0  0
 36 67  1  0  0  0  0
 36 78  2  0  0  0  0
 37 63  1  0  0  0  0
 37 72  1  0  0  0  0
 37 79  2  0  0  0  0
 38 68  1  0  0  0  0
 38 74  1  0  0  0  0
 38 80  2  0  0  0  0
 39 42  1  0  0  0  0
 40 49  1  0  0  0  0
 41 67  1  0  0  0  0
 42 44  1  0  0  0  0
 43 45  1  0  0  0  0
 43 46  1  0  0  0  0
 44 48  1  0  0  0  0
 45 50  1  0  0  0  0
 46 68  1  0  0  0  0
 47 50  1  0  0  0  0
 47 68  1  0  0  0  0
 48 71  1  0  0  0  0
 49 67  1  0  0  0  0
 50 66  1  0  0  0  0
 51 63  1  0  0  0  0
 52 64  1  0  0  0  0
 53 64  1  0  0  0  0
 54 64  1  0  0  0  0
 55 73  1  0  0  0  0
 56 74  1  0  0  0  0
 57 75  1  0  0  0  0
 58 74  1  0  0  0  0
 59 60  1  0  0  0  0
 59 61  1  0  0  0  0
 60 73  1  0  0  0  0
 61 82  1  0  0  0  0
 62 64  1  0  0  0  0
 62 72  1  0  0  0  0
 63 75  1  0  0  0  0
 65 66  1  0  0  0  0
M  CHG  1  75   1
M  ISO  4  38 100  61 101  74 100  82 101
M  END
> <Batch ID>
0014

> <Smiles>
CNC(C)C(=O)NC(C(=O)N1Cc2cc([101O:1][101CH2:1]CCN(C)c3ccc(C[100N:0](C)[100C:0](=O)N4CCCC(n5nc(-c6ccc(Oc7ccc(F)cc7F)cc6)c(C(N)=O)c5N)C4)cc3)ccc2CC1C(=O)NC1CCCc2ccccc21)C(C)(C)C

> <Shape>
0.132

> <Color>
0.185

> <Negative vol penalty>
0.000

$$$$

  -OEChem-04042320513D

 83 91  0     1  0  0  0  0  0999 V2000
  -32.0418  -23.5754   18.0447 C   0  0  0  0  0  0  0  0  0  0  0  0
  -30.8106  -23.3853   18.6640 C   0  0  0  0  0  0  0  0  0  0  0  0
  -27.0748  -17.6544   19.0888 C   0  0  0  0  0  0  0  0  0  0  0  0
  -28.0122  -17.2376   21.2762 C   0  0  0  0  0  0  0  0  0  0  0  0
  -32.8279  -24.6764   18.3821 C   0  0  0  0  0  0  0  0  0  0  0  0
  -30.3654  -24.2956   19.6220 C   0  0  0  0  0  0  0  0  0  0  0  0
  -25.5022  -25.5584   18.9895 C   0  0  0  0  0  0  0  0  0  0  0  0
  -19.8813  -16.3134   20.9249 C   0  0  0  0  0  0  0  0  0  0  0  0
  -27.6447  -18.9275   19.0871 C   0  0  0  0  0  0  0  0  0  0  0  0
  -28.5822  -18.5107   21.2745 C   0  0  0  0  0  0  0  0  0  0  0  0
  -24.5449  -24.6430   19.4248 C   0  0  0  0  0  0  0  0  0  0  0  0
  -19.8901  -17.6703   21.2477 C   0  0  0  0  0  0  0  0  0  0  0  0
  -29.9840  -21.7842   22.0018 C   0  0  0  0  0  0  0  0  0  0  0  0
  -29.8681  -22.5480   23.1631 C   0  0  0  0  0  0  0  0  0  0  0  0
  -24.2346  -25.9343   21.4386 C   0  0  0  0  0  0  0  0  0  0  0  0
  -20.7248  -18.1899   19.0408 C   0  0  0  0  0  0  0  0  0  0  0  0
  -27.4605  -22.4566   22.9828 C   0  0  0  0  0  0  0  0  0  0  0  0
  -27.2585  -16.8095   20.1834 C   0  0  0  0  0  0  0  0  0  0  0  0
  -27.2487  -14.3026   19.7108 C   0  0  0  0  0  0  0  0  0  0  0  0
  -32.3877  -25.6058   19.3376 C   0  0  0  0  0  0  0  0  0  0  0  0
  -25.8414  -26.6645   19.7818 C   0  0  0  0  0  0  0  0  0  0  0  0
  -31.1469  -25.4093   19.9734 C   0  0  0  0  0  0  0  0  0  0  0  0
  -25.1947  -26.8636   21.0100 C   0  0  0  0  0  0  0  0  0  0  0  0
  -20.2944  -15.8947   19.6601 C   0  0  0  0  0  0  0  0  0  0  0  0
  -28.3985  -19.3556   20.1799 C   0  0  0  0  0  0  0  0  0  0  0  0
  -23.9130  -24.8293   20.6508 C   0  0  0  0  0  0  0  0  0  0  0  0
  -20.3118  -18.6086   20.3057 C   0  0  0  0  0  0  0  0  0  0  0  0
  -28.8382  -21.3566   21.3309 C   0  0  0  0  0  0  0  0  0  0  0  0
  -28.6064  -22.8842   23.6537 C   0  0  0  0  0  0  0  0  0  0  0  0
  -20.7161  -16.8330   18.7181 C   0  0  0  0  0  0  0  0  0  0  0  0
  -27.5765  -21.6928   21.8214 C   0  0  0  0  0  0  0  0  0  0  0  0
  -26.6695  -15.4945   20.1860 C   0  0  0  0  0  0  0  0  0  0  0  0
  -26.2935  -13.3422   19.9381 C   0  0  0  0  0  0  0  0  0  0  0  0
  -28.5352  -14.0832   19.1172 C   0  0  0  0  0  0  0  0  0  0  0  0
  -28.5005  -27.6790   21.1973 C   0  0  0  0  0  0  0  0  0  0  0  0
  -26.6831  -30.2786   21.8765 C   0  0  0  0  0  0  0  0  0  0  0  0
  -23.5682  -31.5992   22.3239 C   0  0  0  0  0  0  0  0  0  0  0  0
  -20.4843  -13.5027   20.3187 C   0  0  0  0  0  0  0  0  0  0  0  0
  -33.2935  -26.7548   19.7038 C   0  0  0  0  0  0  0  0  0  0  0  0
  -26.8567  -27.6572   19.2859 C   0  0  0  0  0  0  0  0  0  0  0  0
  -25.5083  -28.0459   21.8888 C   0  0  0  0  0  0  0  0  0  0  0  0
  -32.5815  -27.8757   20.4567 C   0  0  0  0  0  0  0  0  0  0  0  0
  -22.6599  -12.2792   22.8510 C   0  0  0  0  0  0  0  0  0  0  0  0
  -31.7101  -27.3018   21.5694 C   0  0  0  0  0  0  0  0  0  0  0  0
  -24.0004  -12.8644   22.4081 C   0  0  0  0  0  0  0  0  0  0  0  0
  -21.5080  -13.2620   22.6383 C   0  0  0  0  0  0  0  0  0  0  0  0
  -22.7561  -14.3749   20.8140 C   0  0  0  0  0  0  0  0  0  0  0  0
  -30.6184  -26.3881   20.9994 C   0  0  1  0  0  0  0  0  0  0  0  0
  -27.4957  -28.4696   20.4080 C   0  0  1  0  0  0  0  0  0  0  0  0
  -23.9241  -13.3875   20.9629 C   0  0  1  0  0  0  0  0  0  0  0  0
  -22.4031  -33.7434   22.9089 C   0  0  0  0  0  0  0  0  0  0  0  0
  -27.4468  -29.8917   24.8052 C   0  0  0  0  0  0  0  0  0  0  0  0
  -25.5561  -31.4107   25.4266 C   0  0  0  0  0  0  0  0  0  0  0  0
  -27.4390  -32.2710   24.0346 C   0  0  0  0  0  0  0  0  0  0  0  0
  -19.8224  -14.0875   17.9959 C   0  0  0  0  0  0  0  0  0  0  0  0
  -22.1520  -31.6736   19.7263 C   0  0  0  0  0  0  0  0  0  0  0  0
  -21.6520  -21.9331   20.8650 C   0  0  0  0  0  0  0  0  0  0  0  0
  -22.6946  -22.8328   20.2203 C   0  0  0  0  0  0  0  0  0  1  0  0
  -21.2977  -20.7482   19.9803 C   0  0  0  0  0  0  0  0  0  0  0  0
  -25.7669  -30.6763   23.0085 C   0  0  1  0  0  0  0  0  0  0  0  0
  -22.9225  -32.8623   21.7835 C   0  0  2  0  0  0  0  0  0  0  0  0
  -26.5475  -31.0390   24.3033 C   0  0  0  0  0  0  0  0  0  0  0  0
  -25.4413  -15.3106   20.6778 N   0  0  0  0  0  0  0  0  0  0  0  0
  -25.2410  -13.9920   20.5129 N   0  0  0  0  0  0  0  0  0  0  0  0
  -26.5127  -28.9851   21.3630 N   0  0  0  0  0  0  0  0  0  0  0  0
  -21.5002  -13.7646   21.2572 N   0  0  0  0  0  0  0  0  0  0  0  0
  -26.2595  -12.0138   19.7003 N   0  0  0  0  0  0  0  0  0  0  0  0
  -29.3932  -15.1799   18.9576 N   0  0  0  0  0  0  0  0  0  0  0  0
  -29.5411  -27.1761   20.4399 N   0  0  0  0  0  0  0  0  0  0  0  0
  -24.9277  -31.7536   22.4951 N   0  0  0  0  0  0  0  0  0  0  0  0
  -20.2843  -14.4891   19.3291 N   0  0  0  0  0  0  0  0  0  0  0  0
  -21.7802  -32.5187   20.8902 N   0  3  0  0  0  0  0  0  0  0  0  0
  -28.9063  -12.9512   18.7244 O   0  0  0  0  0  0  0  0  0  0  0  0
  -28.3441  -27.5370   22.4044 O   0  0  0  0  0  0  0  0  0  0  0  0
  -27.5145  -31.0884   21.4585 O   0  0  0  0  0  0  0  0  0  0  0  0
  -22.9299  -30.5790   22.5731 O   0  0  0  0  0  0  0  0  0  0  0  0
  -19.8245  -12.4568   20.3466 O   0  0  0  0  0  0  0  0  0  0  0  0
  -28.9550  -20.5977   20.1785 O   0  0  0  0  0  0  0  0  0  0  0  0
  -22.9787  -23.9371   21.0784 O   0  0  0  0  0  0  0  0  0  1  0  0
  -20.3192  -19.9421   20.6226 O   0  0  0  0  0  0  0  0  0  0  0  0
  -28.4952  -23.6164   24.7698 F   0  0  0  0  0  0  0  0  0  0  0  0
  -21.1157  -16.4418   17.4995 F   0  0  0  0  0  0  0  0  0  0  0  0
  -26.4721  -21.2840   21.1819 F   0  0  0  0  0  0  0  0  0  0  0  0
  1  2  1  0  0  0  0
  1  5  2  0  0  0  0
  2  6  2  0  0  0  0
  3  9  2  0  0  0  0
  3 18  1  0  0  0  0
  4 10  1  0  0  0  0
  4 18  2  0  0  0  0
  5 20  1  0  0  0  0
  6 22  1  0  0  0  0
  7 11  2  0  0  0  0
  7 21  1  0  0  0  0
  8 12  2  0  0  0  0
  8 24  1  0  0  0  0
  9 25  1  0  0  0  0
 10 25  2  0  0  0  0
 11 26  1  0  0  0  0
 12 27  1  0  0  0  0
 13 14  2  0  0  0  0
 13 28  1  0  0  0  0
 14 29  1  0  0  0  0
 15 23  1  0  0  0  0
 15 26  2  0  0  0  0
 16 27  2  0  0  0  0
 16 30  1  0  0  0  0
 17 29  2  0  0  0  0
 17 31  1  0  0  0  0
 18 32  1  0  0  0  0
 19 32  1  0  0  0  0
 19 33  2  0  0  0  0
 19 34  1  0  0  0  0
 20 22  2  0  0  0  0
 20 39  1  0  0  0  0
 21 23  2  0  0  0  0
 21 40  1  0  0  0  0
 22 48  1  0  0  0  0
 23 41  1  0  0  0  0
 24 30  2  0  0  0  0
 24 71  1  0  0  0  0
 25 78  1  0  0  0  0
 26 79  1  0  0  0  0
 27 80  1  0  0  0  0
 28 31  2  0  0  0  0
 28 78  1  0  0  0  0
 29 81  1  0  0  0  0
 30 82  1  0  0  0  0
 31 83  1  0  0  0  0
 32 63  2  0  0  0  0
 33 64  1  0  0  0  0
 33 67  1  0  0  0  0
 34 68  1  0  0  0  0
 34 73  2  0  0  0  0
 35 49  1  0  0  0  0
 35 69  1  0  0  0  0
 35 74  2  0  0  0  0
 36 60  1  0  0  0  0
 36 65  1  0  0  0  0
 36 75  2  0  0  0  0
 37 61  1  0  0  0  0
 37 70  1  0  0  0  0
 37 76  2  0  0  0  0
 38 66  1  0  0  0  0
 38 71  1  0  0  0  0
 38 77  2  0  0  0  0
 39 42  1  0  0  0  0
 40 49  1  0  0  0  0
 41 65  1  0  0  0  0
 42 44  1  0  0  0  0
 43 45  1  0  0  0  0
 43 46  1  0  0  0  0
 44 48  1  0  0  0  0
 45 50  1  0  0  0  0
 46 66  1  0  0  0  0
 47 50  1  0  0  0  0
 47 66  1  0  0  0  0
 48 69  1  0  0  0  0
 49 65  1  0  0  0  0
 50 64  1  0  0  0  0
 51 61  1  0  0  0  0
 52 62  1  0  0  0  0
 53 62  1  0  0  0  0
 54 62  1  0  0  0  0
 55 71  1  0  0  0  0
 56 72  1  0  0  0  0
 57 58  1  0  0  0  0
 57 59  1  0  0  0  0
 58 79  1  0  0  0  0
 59 80  1  0  0  0  0
 60 62  1  0  0  0  0
 60 70  1  0  0  0  0
 61 72  1  0  0  0  0
 63 64  1  0  0  0  0
M  CHG  1  72   1
M  ISO  4  38 100  58 101  71 100  79 101
M  END
> <Batch ID>
0014

> <Smiles>
CNC(C)C(=O)NC(C(=O)N1Cc2cc([101O:1][101CH2:1]CCOc3ccc([100N:0](C)[100C:0](=O)N4CCCC(n5nc(-c6ccc(Oc7ccc(F)cc7F)cc6)c(C(N)=O)c5N)C4)c(F)c3)ccc2CC1C(=O)NC1CCCc2ccccc21)C(C)(C)C

> <Shape>
0.251

> <Color>
0.064

> <Negative vol penalty>
0.000

$$$$

  -OEChem-04042320513D

 89 97  0     1  0  0  0  0  0999 V2000
  -26.5861  -37.7141   22.4906 C   0  0  0  0  0  0  0  0  0  0  0  0
  -27.7060  -37.2650   21.7981 C   0  0  0  0  0  0  0  0  0  0  0  0
  -23.1327   -9.8640   19.9603 C   0  0  0  0  0  0  0  0  0  0  0  0
  -23.9044   -9.9183   22.2491 C   0  0  0  0  0  0  0  0  0  0  0  0
  -26.0684  -36.9584   23.5416 C   0  0  0  0  0  0  0  0  0  0  0  0
  -28.3095  -36.0602   22.1570 C   0  0  0  0  0  0  0  0  0  0  0  0
  -28.9766  -30.6870   17.4057 C   0  0  0  0  0  0  0  0  0  0  0  0
  -29.5966  -16.6582   18.3533 C   0  0  0  0  0  0  0  0  0  0  0  0
  -29.8232  -17.4209   17.2077 C   0  0  0  0  0  0  0  0  0  0  0  0
  -22.4191   -8.6959   20.2285 C   0  0  0  0  0  0  0  0  0  0  0  0
  -23.1907   -8.7502   22.5174 C   0  0  0  0  0  0  0  0  0  0  0  0
  -29.3307  -29.6904   16.4960 C   0  0  0  0  0  0  0  0  0  0  0  0
  -19.4993   -7.8445   21.7061 C   0  0  0  0  0  0  0  0  0  0  0  0
  -18.1915   -7.7598   21.2288 C   0  0  0  0  0  0  0  0  0  0  0  0
  -30.2888  -28.3798   18.2884 C   0  0  0  0  0  0  0  0  0  0  0  0
  -29.5079  -19.4431   18.4916 C   0  0  0  0  0  0  0  0  0  0  0  0
  -18.7923   -5.8150   19.9273 C   0  0  0  0  0  0  0  0  0  0  0  0
  -23.8754  -10.4752   20.9705 C   0  0  0  0  0  0  0  0  0  0  0  0
  -24.1536  -13.0064   20.8176 C   0  0  0  0  0  0  0  0  0  0  0  0
  -26.6600  -35.7390   23.9073 C   0  0  0  0  0  0  0  0  0  0  0  0
  -29.2639  -30.5267   18.7641 C   0  0  0  0  0  0  0  0  0  0  0  0
  -27.7999  -35.2881   23.2147 C   0  0  0  0  0  0  0  0  0  0  0  0
  -29.9253  -29.3691   19.2060 C   0  0  0  0  0  0  0  0  0  0  0  0
  -29.3255  -17.2879   19.5681 C   0  0  0  0  0  0  0  0  0  0  0  0
  -29.7789  -18.8134   17.2768 C   0  0  0  0  0  0  0  0  0  0  0  0
  -22.4481   -8.1391   21.5071 C   0  0  0  0  0  0  0  0  0  0  0  0
  -29.9854  -28.5398   16.9362 C   0  0  0  0  0  0  0  0  0  0  0  0
  -20.4538   -6.9144   21.2939 C   0  0  0  0  0  0  0  0  0  0  0  0
  -17.8379   -6.7450   20.3394 C   0  0  0  0  0  0  0  0  0  0  0  0
  -29.2812  -18.6804   19.6372 C   0  0  0  0  0  0  0  0  0  0  0  0
  -20.1002   -5.8997   20.4046 C   0  0  0  0  0  0  0  0  0  0  0  0
  -24.6132  -11.6815   20.6939 C   0  0  0  0  0  0  0  0  0  0  0  0
  -25.2248  -13.7782   20.4390 C   0  0  0  0  0  0  0  0  0  0  0  0
  -22.8729  -13.4956   21.2373 C   0  0  0  0  0  0  0  0  0  0  0  0
  -29.0534  -31.9556   22.2267 C   0  0  0  0  0  0  0  0  0  0  0  0
  -28.4688  -28.9536   22.4645 C   0  0  0  0  0  0  0  0  0  0  0  0
  -27.4659  -25.7007   22.2403 C   0  0  0  0  0  0  0  0  0  0  0  0
  -30.8145  -14.6375   21.0167 C   0  0  0  0  0  0  0  0  0  0  0  0
  -26.0930  -34.9801   25.0808 C   0  0  0  0  0  0  0  0  0  0  0  0
  -28.9560  -31.6017   19.7707 C   0  0  0  0  0  0  0  0  0  0  0  0
  -30.2450  -29.2552   20.6715 C   0  0  0  0  0  0  0  0  0  0  0  0
  -26.5666  -33.5308   25.1553 C   0  0  0  0  0  0  0  0  0  0  0  0
  -29.5908  -12.5269   18.2329 C   0  0  0  0  0  0  0  0  0  0  0  0
  -28.0753  -33.4508   24.9451 C   0  0  0  0  0  0  0  0  0  0  0  0
  -28.1730  -12.1750   18.6800 C   0  0  0  0  0  0  0  0  0  0  0  0
  -30.5142  -12.7786   19.4211 C   0  0  0  0  0  0  0  0  0  0  0  0
  -28.5890  -13.4539   20.8182 C   0  0  0  0  0  0  0  0  0  0  0  0
  -28.4677  -33.9742   23.5582 C   0  0  1  0  0  0  0  0  0  0  0  0
  -28.5524  -31.0423   21.1467 C   0  0  1  0  0  0  0  0  0  0  0  0
  -27.6218  -13.2397   19.6443 C   0  0  2  0  0  0  0  0  0  0  0  0
  -26.6842  -23.7787   23.6518 C   0  0  0  0  0  0  0  0  0  0  0  0
  -31.6801  -21.6275   14.3129 C   0  0  0  0  0  0  0  0  0  0  0  0
  -31.3300  -28.4937   23.4163 C   0  0  0  0  0  0  0  0  0  0  0  0
  -30.6881  -26.1410   23.9830 C   0  0  0  0  0  0  0  0  0  0  0  0
  -29.5729  -28.0493   25.1395 C   0  0  0  0  0  0  0  0  0  0  0  0
  -31.1838  -16.8566   22.0260 C   0  0  0  0  0  0  0  0  0  0  0  0
  -24.8682  -25.5692   20.8282 C   0  0  0  0  0  0  0  0  0  0  0  0
  -28.1447  -22.9227   14.3996 C   0  0  0  0  0  0  0  0  0  0  0  0
  -29.0836  -16.4694   20.7912 C   0  0  0  0  0  0  0  0  0  0  0  0
  -30.0280  -25.2829   15.3799 C   0  0  0  0  0  0  0  0  0  0  0  0
  -29.9779  -21.0146   16.1190 C   0  0  0  0  0  0  0  0  0  0  0  0
  -30.0166  -23.8148   15.7783 C   0  0  0  0  0  0  0  0  0  0  0  0
  -30.3628  -26.2272   16.5280 C   0  0  0  0  0  0  0  0  0  1  0  0
  -29.0208  -27.5736   22.7185 C   0  0  1  0  0  0  0  0  0  0  0  0
  -26.2619  -24.9758   22.8142 C   0  0  2  0  0  0  0  0  0  0  0  0
  -30.2126  -21.5714   14.7156 C   0  0  1  0  0  0  0  0  0  0  0  0
  -30.1494  -27.5744   23.7879 C   0  0  0  0  0  0  0  0  0  0  0  0
  -25.8778  -11.6119   20.2697 N   0  0  0  0  0  0  0  0  0  0  0  0
  -26.2219  -12.9028   20.1235 N   0  0  0  0  0  0  0  0  0  0  0  0
  -29.0996  -29.7144   21.4727 N   0  0  0  0  0  0  0  0  0  0  0  0
  -29.9463  -13.7625   20.3434 N   0  0  0  0  0  0  0  0  0  0  0  0
  -25.4016  -15.1134   20.3485 N   0  0  0  0  0  0  0  0  0  0  0  0
  -21.8857  -12.5659   21.5914 N   0  0  0  0  0  0  0  0  0  0  0  0
  -30.0044  -19.5704   16.1388 N   0  0  0  0  0  0  0  0  0  0  0  0
  -28.1837  -32.9813   22.5443 N   0  0  0  0  0  0  0  0  0  0  0  0
  -27.8777  -26.7327   23.0568 N   0  0  0  0  0  0  0  0  0  0  0  0
  -30.3177  -15.9097   21.3381 N   0  0  0  0  0  0  0  0  0  0  0  0
  -25.3765  -24.4928   21.7170 N   0  3  0  0  0  0  0  0  0  0  0  0
  -29.6369  -22.9643   14.6259 N   0  3  1  0  0  0  0  0  0  0  0  0
  -22.6064  -14.7206   21.2809 O   0  0  0  0  0  0  0  0  0  0  0  0
  -30.1478  -31.7452   22.7363 O   0  0  0  0  0  0  0  0  0  0  0  0
  -27.5082  -29.3508   23.1299 O   0  0  0  0  0  0  0  0  0  0  0  0
  -27.9909  -25.3810   21.1761 O   0  0  0  0  0  0  0  0  0  0  0  0
  -31.9711  -14.3042   21.3050 O   0  0  0  0  0  0  0  0  0  0  0  0
  -21.7517   -6.9994   21.7693 O   0  0  0  0  0  0  0  0  0  0  0  0
  -30.3242  -27.5688   16.0434 O   0  0  0  0  0  0  0  0  0  1  0  0
  -16.5815   -6.6629   19.8824 F   0  0  0  0  0  0  0  0  0  0  0  0
  -29.0204  -19.2944   20.7998 F   0  0  0  0  0  0  0  0  0  0  0  0
  -21.0125   -5.0026   20.0060 F   0  0  0  0  0  0  0  0  0  0  0  0
  1  2  1  0  0  0  0
  1  5  2  0  0  0  0
  2  6  2  0  0  0  0
  3 10  2  0  0  0  0
  3 18  1  0  0  0  0
  4 11  1  0  0  0  0
  4 18  2  0  0  0  0
  5 20  1  0  0  0  0
  6 22  1  0  0  0  0
  7 12  2  0  0  0  0
  7 21  1  0  0  0  0
  8  9  2  0  0  0  0
  8 24  1  0  0  0  0
  9 25  1  0  0  0  0
 10 26  1  0  0  0  0
 11 26  2  0  0  0  0
 12 27  1  0  0  0  0
 13 14  2  0  0  0  0
 13 28  1  0  0  0  0
 14 29  1  0  0  0  0
 15 23  1  0  0  0  0
 15 27  2  0  0  0  0
 16 25  2  0  0  0  0
 16 30  1  0  0  0  0
 17 29  2  0  0  0  0
 17 31  1  0  0  0  0
 18 32  1  0  0  0  0
 19 32  1  0  0  0  0
 19 33  2  0  0  0  0
 19 34  1  0  0  0  0
 20 22  2  0  0  0  0
 20 39  1  0  0  0  0
 21 23  2  0  0  0  0
 21 40  1  0  0  0  0
 22 48  1  0  0  0  0
 23 41  1  0  0  0  0
 24 30  2  0  0  0  0
 24 59  1  0  0  0  0
 25 74  1  0  0  0  0
 26 85  1  0  0  0  0
 27 86  1  0  0  0  0
 28 31  2  0  0  0  0
 28 85  1  0  0  0  0
 29 87  1  0  0  0  0
 30 88  1  0  0  0  0
 31 89  1  0  0  0  0
 32 68  2  0  0  0  0
 33 69  1  0  0  0  0
 33 72  1  0  0  0  0
 34 73  1  0  0  0  0
 34 80  2  0  0  0  0
 35 49  1  0  0  0  0
 35 75  1  0  0  0  0
 35 81  2  0  0  0  0
 36 64  1  0  0  0  0
 36 70  1  0  0  0  0
 36 82  2  0  0  0  0
 37 65  1  0  0  0  0
 37 76  1  0  0  0  0
 37 83  2  0  0  0  0
 38 71  1  0  0  0  0
 38 77  1  0  0  0  0
 38 84  2  0  0  0  0
 39 42  1  0  0  0  0
 40 49  1  0  0  0  0
 41 70  1  0  0  0  0
 42 44  1  0  0  0  0
 43 45  1  0  0  0  0
 43 46  1  0  0  0  0
 44 48  1  0  0  0  0
 45 50  1  0  0  0  0
 46 71  1  0  0  0  0
 47 50  1  0  0  0  0
 47 71  1  0  0  0  0
 48 75  1  0  0  0  0
 49 70  1  0  0  0  0
 50 69  1  0  0  0  0
 51 65  1  0  0  0  0
 52 66  1  0  0  0  0
 53 67  1  0  0  0  0
 54 67  1  0  0  0  0
 55 67  1  0  0  0  0
 56 77  1  0  0  0  0
 57 78  1  0  0  0  0
 58 79  1  0  0  0  0
 59 77  1  0  0  0  0
 60 62  1  0  0  0  0
 60 63  1  0  0  0  0
 61 66  1  0  0  0  0
 61 74  1  0  0  0  0
 62 79  1  0  0  0  0
 63 86  1  0  0  0  0
 64 67  1  0  0  0  0
 64 76  1  0  0  0  0
 65 78  1  0  0  0  0
 66 79  1  0  0  0  0
 68 69  1  0  0  0  0
M  CHG  2  78   1  79   1
M  ISO  4  38 100  63 101  77 100  86 101
M  END
> <Batch ID>
0014

> <Smiles>
CNC(C)C(=O)NC(C(=O)N1Cc2cc([101O:1][101CH2:1]CCN(C)C(C)CNc3ccc(C[100N:0](C)[100C:0](=O)N4CCCC(n5nc(-c6ccc(Oc7ccc(F)cc7F)cc6)c(C(N)=O)c5N)C4)c(F)c3)ccc2CC1C(=O)NC1CCCc2ccccc21)C(C)(C)C

> <Shape>
0.242

> <Color>
0.173

> <Negative vol penalty>
0.000

$$$$

  -OEChem-04042320513D

 86 95  0     1  0  0  0  0  0999 V2000
  -37.6801  -28.4047   22.5347 C   0  0  0  0  0  0  0  0  0  0  0  0
  -36.6920  -27.6912   23.2056 C   0  0  0  0  0  0  0  0  0  0  0  0
  -23.1235  -10.2316   22.0444 C   0  0  0  0  0  0  0  0  0  0  0  0
  -23.8620   -9.4647   19.8757 C   0  0  0  0  0  0  0  0  0  0  0  0
  -37.4776  -28.7990   21.2128 C   0  0  0  0  0  0  0  0  0  0  0  0
  -35.5004  -27.3726   22.5552 C   0  0  0  0  0  0  0  0  0  0  0  0
  -34.0789  -22.5765   23.3440 C   0  0  0  0  0  0  0  0  0  0  0  0
  -30.0944  -16.6562   25.0404 C   0  0  0  0  0  0  0  0  0  0  0  0
  -32.2415  -16.0961   25.9962 C   0  0  0  0  0  0  0  0  0  0  0  0
  -30.1081  -17.8728   25.7225 C   0  0  0  0  0  0  0  0  0  0  0  0
  -32.2552  -17.3128   26.6783 C   0  0  0  0  0  0  0  0  0  0  0  0
  -22.3946   -9.0543   22.2125 C   0  0  0  0  0  0  0  0  0  0  0  0
  -23.1331   -8.2874   20.0438 C   0  0  0  0  0  0  0  0  0  0  0  0
  -33.4807  -22.2829   24.5686 C   0  0  0  0  0  0  0  0  0  0  0  0
  -23.0144   -5.8404   23.0609 C   0  0  0  0  0  0  0  0  0  0  0  0
  -23.1055   -5.1919   24.2924 C   0  0  0  0  0  0  0  0  0  0  0  0
  -31.3094  -22.3651   23.5207 C   0  0  0  0  0  0  0  0  0  0  0  0
  -20.7224   -5.4425   24.6007 C   0  0  0  0  0  0  0  0  0  0  0  0
  -23.8572  -10.4368   20.8760 C   0  0  0  0  0  0  0  0  0  0  0  0
  -24.1090  -12.9686   20.6901 C   0  0  0  0  0  0  0  0  0  0  0  0
  -36.2868  -28.4767   20.5428 C   0  0  0  0  0  0  0  0  0  0  0  0
  -33.2949  -22.7777   22.1988 C   0  0  0  0  0  0  0  0  0  0  0  0
  -35.2813  -27.7642   21.2236 C   0  0  0  0  0  0  0  0  0  0  0  0
  -31.9003  -22.6586   22.2822 C   0  0  0  0  0  0  0  0  0  0  0  0
  -31.1611  -15.7678   25.1773 C   0  0  0  0  0  0  0  0  0  0  0  0
  -31.1885  -18.2011   26.5415 C   0  0  0  0  0  0  0  0  0  0  0  0
  -22.3994   -8.0822   21.2122 C   0  0  0  0  0  0  0  0  0  0  0  0
  -32.0955  -22.1800   24.6577 C   0  0  0  0  0  0  0  0  0  0  0  0
  -21.7773   -6.2901   22.5993 C   0  0  0  0  0  0  0  0  0  0  0  0
  -21.9595   -4.9929   25.0623 C   0  0  0  0  0  0  0  0  0  0  0  0
  -20.6313   -6.0911   23.3691 C   0  0  0  0  0  0  0  0  0  0  0  0
  -24.6099  -11.6530   20.7015 C   0  0  0  0  0  0  0  0  0  0  0  0
  -25.2169  -13.7562   20.4936 C   0  0  0  0  0  0  0  0  0  0  0  0
  -30.1322  -14.0536   23.6250 C   0  0  0  0  0  0  0  0  0  0  0  0
  -22.7625  -13.4368   20.8435 C   0  0  0  0  0  0  0  0  0  0  0  0
  -31.0464  -12.8354   21.6253 C   0  0  0  0  0  0  0  0  0  0  0  0
  -32.8100  -25.2105   20.2114 C   0  0  0  0  0  0  0  0  0  0  0  0
  -31.0872  -23.0121   18.5617 C   0  0  0  0  0  0  0  0  0  0  0  0
  -29.3117  -20.0979   18.6026 C   0  0  0  0  0  0  0  0  0  0  0  0
  -36.0941  -28.9656   19.1291 C   0  0  0  0  0  0  0  0  0  0  0  0
  -33.9572  -23.0673   20.8798 C   0  0  0  0  0  0  0  0  0  0  0  0
  -31.0150  -22.8455   21.0781 C   0  0  0  0  0  0  0  0  0  0  0  0
  -34.9568  -28.2636   18.3916 C   0  0  0  0  0  0  0  0  0  0  0  0
  -29.5512  -13.7017   18.4862 C   0  0  0  0  0  0  0  0  0  0  0  0
  -33.7137  -28.1912   19.2726 C   0  0  0  0  0  0  0  0  0  0  0  0
  -28.0738  -13.3673   18.6879 C   0  0  0  0  0  0  0  0  0  0  0  0
  -31.7190  -12.3004   23.9798 C   0  0  0  0  0  0  0  0  0  0  0  0
  -30.4523  -12.7193   19.2278 C   0  0  0  0  0  0  0  0  0  0  0  0
  -32.2681  -13.6059   24.5210 C   0  0  0  0  0  0  0  0  0  0  0  0
  -28.6771  -12.2700   20.8918 C   0  0  0  0  0  0  0  0  0  0  0  0
  -33.9853  -27.3782   20.5442 C   0  0  1  0  0  0  0  0  0  0  0  0
  -30.5873  -12.7261   23.0575 C   0  0  1  0  0  0  0  0  0  0  0  0
  -33.0307  -23.7604   19.8855 C   0  0  1  0  0  0  0  0  0  0  0  0
  -27.7314  -13.2565   20.1842 C   0  0  2  0  0  0  0  0  0  0  0  0
  -27.9910  -18.5747   17.1082 C   0  0  0  0  0  0  0  0  0  0  0  0
  -28.7535  -24.9768   18.6258 C   0  0  0  0  0  0  0  0  0  0  0  0
  -27.2365  -23.0875   17.9952 C   0  0  0  0  0  0  0  0  0  0  0  0
  -29.0597  -23.7914   16.4450 C   0  0  0  0  0  0  0  0  0  0  0  0
  -32.3342  -19.7706   28.0855 C   0  0  0  0  0  0  0  0  0  0  0  0
  -31.1544  -17.8334   19.0880 C   0  0  0  0  0  0  0  0  0  0  0  0
  -30.1197  -20.3720   27.0941 C   0  0  0  0  0  0  0  0  0  0  0  0
  -30.2760  -21.1768   25.8147 C   0  0  0  0  0  0  0  0  0  1  0  0
  -29.6483  -22.5555   18.5706 C   0  0  1  0  0  0  0  0  0  0  0  0
  -29.3583  -18.8773   17.7012 C   0  0  2  0  0  0  0  0  0  0  0  0
  -28.6908  -23.6012   17.9325 C   0  0  0  0  0  0  0  0  0  0  0  0
  -25.9331  -11.6035   20.5260 N   0  0  0  0  0  0  0  0  0  0  0  0
  -26.2729  -12.8979   20.4024 N   0  0  0  0  0  0  0  0  0  0  0  0
  -31.1460  -14.5222   24.4804 N   0  0  0  0  0  0  0  0  0  0  0  0
  -30.0806  -12.6258   20.6408 N   0  0  0  0  0  0  0  0  0  0  0  0
  -31.7095  -23.1334   19.8123 N   0  0  0  0  0  0  0  0  0  0  0  0
  -25.3811  -15.0922   20.3915 N   0  0  0  0  0  0  0  0  0  0  0  0
  -21.9707  -13.5819   19.6962 N   0  0  0  0  0  0  0  0  0  0  0  0
  -33.9696  -25.9611   20.2510 N   0  0  0  0  0  0  0  0  0  0  0  0
  -29.6298  -21.2513   17.9172 N   0  0  0  0  0  0  0  0  0  0  0  0
  -31.2021  -19.4238   27.2258 N   0  0  3  0  0  0  0  0  0  0  0  0
  -29.8122  -17.6834   18.4691 N   0  3  0  0  0  0  0  0  0  0  0  0
  -29.0803  -14.5824   23.2933 O   0  0  0  0  0  0  0  0  0  0  0  0
  -22.2812  -13.7338   21.9632 O   0  0  0  0  0  0  0  0  0  0  0  0
  -32.2279  -13.1022   21.3906 O   0  0  0  0  0  0  0  0  0  0  0  0
  -31.6718  -25.6186   20.4106 O   0  0  0  0  0  0  0  0  0  0  0  0
  -31.6409  -23.2455   17.4844 O   0  0  0  0  0  0  0  0  0  0  0  0
  -29.0186  -20.0350   19.7945 O   0  0  0  0  0  0  0  0  0  0  0  0
  -21.6885   -6.9331   21.3760 O   0  0  0  0  0  0  0  0  0  0  0  0
  -31.5090  -21.8942   25.8519 O   0  0  0  0  0  0  0  0  0  1  0  0
  -22.0469   -4.3687   26.2442 F   0  0  0  0  0  0  0  0  0  0  0  0
  -19.4399   -6.5199   22.9304 F   0  0  0  0  0  0  0  0  0  0  0  0
  1  2  1  0  0  0  0
  1  5  2  0  0  0  0
  2  6  2  0  0  0  0
  3 12  2  0  0  0  0
  3 19  1  0  0  0  0
  4 13  1  0  0  0  0
  4 19  2  0  0  0  0
  5 21  1  0  0  0  0
  6 23  1  0  0  0  0
  7 14  2  0  0  0  0
  7 22  1  0  0  0  0
  8 10  2  0  0  0  0
  8 25  1  0  0  0  0
  9 11  1  0  0  0  0
  9 25  2  0  0  0  0
 10 26  1  0  0  0  0
 11 26  2  0  0  0  0
 12 27  1  0  0  0  0
 13 27  2  0  0  0  0
 14 28  1  0  0  0  0
 15 16  2  0  0  0  0
 15 29  1  0  0  0  0
 16 30  1  0  0  0  0
 17 24  1  0  0  0  0
 17 28  2  0  0  0  0
 18 30  2  0  0  0  0
 18 31  1  0  0  0  0
 19 32  1  0  0  0  0
 20 32  1  0  0  0  0
 20 33  2  0  0  0  0
 20 35  1  0  0  0  0
 21 23  2  0  0  0  0
 21 40  1  0  0  0  0
 22 24  2  0  0  0  0
 22 41  1  0  0  0  0
 23 51  1  0  0  0  0
 24 42  1  0  0  0  0
 25 68  1  0  0  0  0
 26 75  1  0  0  0  0
 27 83  1  0  0  0  0
 28 84  1  0  0  0  0
 29 31  2  0  0  0  0
 29 83  1  0  0  0  0
 30 85  1  0  0  0  0
 31 86  1  0  0  0  0
 32 66  2  0  0  0  0
 33 67  1  0  0  0  0
 33 71  1  0  0  0  0
 34 52  1  0  0  0  0
 34 68  1  0  0  0  0
 34 77  2  0  0  0  0
 35 72  1  0  0  0  0
 35 78  2  0  0  0  0
 36 52  1  0  0  0  0
 36 69  1  0  0  0  0
 36 79  2  0  0  0  0
 37 53  1  0  0  0  0
 37 73  1  0  0  0  0
 37 80  2  0  0  0  0
 38 63  1  0  0  0  0
 38 70  1  0  0  0  0
 38 81  2  0  0  0  0
 39 64  1  0  0  0  0
 39 74  1  0  0  0  0
 39 82  2  0  0  0  0
 40 43  1  0  0  0  0
 41 53  1  0  0  0  0
 42 70  1  0  0  0  0
 43 45  1  0  0  0  0
 44 46  1  0  0  0  0
 44 48  1  0  0  0  0
 45 51  1  0  0  0  0
 46 54  1  0  0  0  0
 47 49  1  0  0  0  0
 47 52  1  0  0  0  0
 48 69  1  0  0  0  0
 49 68  1  0  0  0  0
 50 54  1  0  0  0  0
 50 69  1  0  0  0  0
 51 73  1  0  0  0  0
 53 70  1  0  0  0  0
 54 67  1  0  0  0  0
 55 64  1  0  0  0  0
 56 65  1  0  0  0  0
 57 65  1  0  0  0  0
 58 65  1  0  0  0  0
 59 75  1  0  0  0  0
 60 76  1  0  0  0  0
 61 62  1  0  0  0  0
 61 75  1  0  0  0  0
 62 84  1  0  0  0  0
 63 65  1  0  0  0  0
 63 74  1  0  0  0  0
 64 76  1  0  0  0  0
 66 67  1  0  0  0  0
M  CHG  1  76   1
M  ISO  4  36 100  52 100  62 101  84 101
M  END
> <Batch ID>
0014

> <Smiles>
CNC(C)C(=O)NC(C(=O)N1Cc2cc([101O:1][101CH2:1]CN(C)c3ccc(N4CC[100CH:0]([100C:0](=O)N5CCCC(n6nc(-c7ccc(Oc8ccc(F)cc8F)cc7)c(C(N)=O)c6N)C5)C4=O)cc3)ccc2CC1C(=O)NC1CCCc2ccccc21)C(C)(C)C

> <Shape>
0.198

> <Color>
0.182

> <Negative vol penalty>
0.000

$$$$

  -OEChem-04042320513D

 84 92  0     1  0  0  0  0  0999 V2000
  -27.9965   -9.4010   21.9202 C   0  0  0  0  0  0  0  0  0  0  0  0
  -28.6236  -10.6012   21.6012 C   0  0  0  0  0  0  0  0  0  0  0  0
  -18.9748  -27.0083   19.4315 C   0  0  0  0  0  0  0  0  0  0  0  0
  -19.7291  -25.4148   21.0835 C   0  0  0  0  0  0  0  0  0  0  0  0
  -26.6135   -9.2820   21.7888 C   0  0  0  0  0  0  0  0  0  0  0  0
  -27.8682  -11.6828   21.1497 C   0  0  0  0  0  0  0  0  0  0  0  0
  -28.9060  -17.6160   22.2570 C   0  0  0  0  0  0  0  0  0  0  0  0
  -29.8987  -26.3489   22.3617 C   0  0  0  0  0  0  0  0  0  0  0  0
  -30.5741  -25.2913   21.7528 C   0  0  0  0  0  0  0  0  0  0  0  0
  -18.2553  -26.0011   18.7885 C   0  0  0  0  0  0  0  0  0  0  0  0
  -19.0095  -24.4076   20.4405 C   0  0  0  0  0  0  0  0  0  0  0  0
  -29.5202  -18.6170   21.5056 C   0  0  0  0  0  0  0  0  0  0  0  0
  -17.0808  -21.4926   19.4403 C   0  0  0  0  0  0  0  0  0  0  0  0
  -16.3229  -20.6296   20.2318 C   0  0  0  0  0  0  0  0  0  0  0  0
  -27.3604  -19.3315   20.7031 C   0  0  0  0  0  0  0  0  0  0  0  0
  -31.4978  -26.8187   20.1246 C   0  0  0  0  0  0  0  0  0  0  0  0
  -15.0387  -22.5061   21.0483 C   0  0  0  0  0  0  0  0  0  0  0  0
  -19.7118  -26.7152   20.5790 C   0  0  0  0  0  0  0  0  0  0  0  0
  -19.9996  -28.6033   22.2701 C   0  0  0  0  0  0  0  0  0  0  0  0
  -25.8397  -10.3658   21.3447 C   0  0  0  0  0  0  0  0  0  0  0  0
  -27.5129  -17.4581   22.2285 C   0  0  0  0  0  0  0  0  0  0  0  0
  -26.4738  -11.5778   21.0110 C   0  0  0  0  0  0  0  0  0  0  0  0
  -26.7308  -18.3294   21.4570 C   0  0  0  0  0  0  0  0  0  0  0  0
  -30.0227  -27.6414   21.8521 C   0  0  0  0  0  0  0  0  0  0  0  0
  -30.8223  -27.8763   20.7336 C   0  0  0  0  0  0  0  0  0  0  0  0
  -31.3737  -25.5262   20.6342 C   0  0  0  0  0  0  0  0  0  0  0  0
  -18.2726  -24.7008   19.2930 C   0  0  0  0  0  0  0  0  0  0  0  0
  -28.7477  -19.4731   20.7262 C   0  0  0  0  0  0  0  0  0  0  0  0
  -16.8177  -22.8624   19.4529 C   0  0  0  0  0  0  0  0  0  0  0  0
  -15.3019  -21.1363   21.0358 C   0  0  0  0  0  0  0  0  0  0  0  0
  -15.7966  -23.3691   20.2568 C   0  0  0  0  0  0  0  0  0  0  0  0
  -20.4557  -27.7550   21.2434 C   0  0  0  0  0  0  0  0  0  0  0  0
  -21.0762  -29.4071   22.5551 C   0  0  0  0  0  0  0  0  0  0  0  0
  -18.7174  -28.6596   22.9092 C   0  0  0  0  0  0  0  0  0  0  0  0
  -25.5365  -15.1380   21.3259 C   0  0  0  0  0  0  0  0  0  0  0  0
  -23.2794  -17.1103   22.5662 C   0  0  0  0  0  0  0  0  0  0  0  0
  -22.3575  -20.2831   23.4204 C   0  0  0  0  0  0  0  0  0  0  0  0
  -26.8865  -28.5675   21.9294 C   0  0  0  0  0  0  0  0  0  0  0  0
  -24.3534  -10.1747   21.1735 C   0  0  0  0  0  0  0  0  0  0  0  0
  -26.8635  -16.3904   23.0656 C   0  0  0  0  0  0  0  0  0  0  0  0
  -25.2298  -18.2147   21.4079 C   0  0  0  0  0  0  0  0  0  0  0  0
  -23.5815  -11.4854   21.0457 C   0  0  0  0  0  0  0  0  0  0  0  0
  -24.9754  -31.3023   20.5272 C   0  0  0  0  0  0  0  0  0  0  0  0
  -24.2756  -12.4197   20.0597 C   0  0  0  0  0  0  0  0  0  0  0  0
  -23.5463  -30.7713   20.6544 C   0  0  0  0  0  0  0  0  0  0  0  0
  -25.9504  -30.1847   20.1684 C   0  0  0  0  0  0  0  0  0  0  0  0
  -24.5078  -28.4963   21.2369 C   0  0  0  0  0  0  0  0  0  0  0  0
  -25.6857  -12.7815   20.5416 C   0  0  1  0  0  0  0  0  0  0  0  0
  -25.4800  -15.9936   22.5598 C   0  0  1  0  0  0  0  0  0  0  0  0
  -23.4774  -29.5738   21.6205 C   0  0  2  0  0  0  0  0  0  0  0  0
  -30.9690  -29.2514   20.1694 C   0  0  0  0  0  0  0  0  0  0  0  0
  -20.4385  -21.5868   24.3772 C   0  0  0  0  0  0  0  0  0  0  0  0
  -21.8128  -16.9046   19.8985 C   0  0  0  0  0  0  0  0  0  0  0  0
  -20.4724  -18.9130   20.5599 C   0  0  0  0  0  0  0  0  0  0  0  0
  -20.3320  -16.8215   21.9121 C   0  0  0  0  0  0  0  0  0  0  0  0
  -32.8926  -24.7102   18.8489 C   0  0  0  0  0  0  0  0  0  0  0  0
  -23.9712  -21.1848   25.7317 C   0  0  0  0  0  0  0  0  0  0  0  0
  -29.2889  -28.7573   22.5204 C   0  0  0  0  0  0  0  0  0  0  0  0
  -30.6923  -22.4359   20.0272 C   0  0  0  0  0  0  0  0  0  0  0  0
  -31.9587  -23.1163   20.5329 C   0  0  0  0  0  0  0  0  0  0  0  0
  -30.5631  -20.9926   20.4994 C   0  0  0  0  0  0  0  0  0  1  0  0
  -22.4267  -18.2327   22.0257 C   0  0  1  0  0  0  0  0  0  0  0  0
  -21.7297  -20.8441   24.6837 C   0  0  2  0  0  0  0  0  0  0  0  0
  -21.2894  -17.7191   21.0982 C   0  0  0  0  0  0  0  0  0  0  0  0
  -21.7233  -27.9975   20.8992 N   0  0  0  0  0  0  0  0  0  0  0  0
  -22.0728  -29.0072   21.7142 N   0  0  0  0  0  0  0  0  0  0  0  0
  -24.6422  -17.1509   22.2389 N   0  0  0  0  0  0  0  0  0  0  0  0
  -25.8478  -29.0843   21.1372 N   0  0  0  0  0  0  0  0  0  0  0  0
  -21.2582  -30.4099   23.4403 N   0  0  0  0  0  0  0  0  0  0  0  0
  -17.7244  -27.7613   22.4950 N   0  0  0  0  0  0  0  0  0  0  0  0
  -25.6221  -13.7833   21.5841 N   0  0  0  0  0  0  0  0  0  0  0  0
  -21.9586  -18.9844   23.1852 N   0  0  0  0  0  0  0  0  0  0  0  0
  -28.1257  -29.1754   21.7699 N   0  0  0  0  0  0  0  0  0  0  0  0
  -32.0534  -24.4628   20.0230 N   0  0  3  0  0  0  0  0  0  0  0  0
  -22.6679  -21.7890   25.3528 N   0  3  0  0  0  0  0  0  0  0  0  0
  -18.4546  -29.4929   23.8091 O   0  0  0  0  0  0  0  0  0  0  0  0
  -25.5032  -15.6677   20.2213 O   0  0  0  0  0  0  0  0  0  0  0  0
  -22.7570  -16.2338   23.2593 O   0  0  0  0  0  0  0  0  0  0  0  0
  -23.1221  -20.9334   22.7112 O   0  0  0  0  0  0  0  0  0  0  0  0
  -26.7206  -27.6363   22.7246 O   0  0  0  0  0  0  0  0  0  0  0  0
  -17.5705  -23.7178   18.6660 O   0  0  0  0  0  0  0  0  0  0  0  0
  -29.3447  -20.4505   19.9914 O   0  0  0  0  0  0  0  0  0  1  0  0
  -14.5732  -20.3072   21.7946 F   0  0  0  0  0  0  0  0  0  0  0  0
  -15.5384  -24.6840   20.2722 F   0  0  0  0  0  0  0  0  0  0  0  0
  1  2  1  0  0  0  0
  1  5  2  0  0  0  0
  2  6  2  0  0  0  0
  3 10  2  0  0  0  0
  3 18  1  0  0  0  0
  4 11  1  0  0  0  0
  4 18  2  0  0  0  0
  5 20  1  0  0  0  0
  6 22  1  0  0  0  0
  7 12  2  0  0  0  0
  7 21  1  0  0  0  0
  8  9  2  0  0  0  0
  8 24  1  0  0  0  0
  9 26  1  0  0  0  0
 10 27  1  0  0  0  0
 11 27  2  0  0  0  0
 12 28  1  0  0  0  0
 13 14  2  0  0  0  0
 13 29  1  0  0  0  0
 14 30  1  0  0  0  0
 15 23  1  0  0  0  0
 15 28  2  0  0  0  0
 16 25  1  0  0  0  0
 16 26  2  0  0  0  0
 17 30  2  0  0  0  0
 17 31  1  0  0  0  0
 18 32  1  0  0  0  0
 19 32  1  0  0  0  0
 19 33  2  0  0  0  0
 19 34  1  0  0  0  0
 20 22  2  0  0  0  0
 20 39  1  0  0  0  0
 21 23  2  0  0  0  0
 21 40  1  0  0  0  0
 22 48  1  0  0  0  0
 23 41  1  0  0  0  0
 24 25  2  0  0  0  0
 24 58  1  0  0  0  0
 25 51  1  0  0  0  0
 26 74  1  0  0  0  0
 27 81  1  0  0  0  0
 28 82  1  0  0  0  0
 29 31  2  0  0  0  0
 29 81  1  0  0  0  0
 30 83  1  0  0  0  0
 31 84  1  0  0  0  0
 32 65  2  0  0  0  0
 33 66  1  0  0  0  0
 33 69  1  0  0  0  0
 34 70  1  0  0  0  0
 34 76  2  0  0  0  0
 35 49  1  0  0  0  0
 35 71  1  0  0  0  0
 35 77  2  0  0  0  0
 36 62  1  0  0  0  0
 36 67  1  0  0  0  0
 36 78  2  0  0  0  0
 37 63  1  0  0  0  0
 37 72  1  0  0  0  0
 37 79  2  0  0  0  0
 38 68  1  0  0  0  0
 38 73  1  0  0  0  0
 38 80  2  0  0  0  0
 39 42  1  0  0  0  0
 40 49  1  0  0  0  0
 41 67  1  0  0  0  0
 42 44  1  0  0  0  0
 43 45  1  0  0  0  0
 43 46  1  0  0  0  0
 44 48  1  0  0  0  0
 45 50  1  0  0  0  0
 46 68  1  0  0  0  0
 47 50  1  0  0  0  0
 47 68  1  0  0  0  0
 48 71  1  0  0  0  0
 49 67  1  0  0  0  0
 50 66  1  0  0  0  0
 52 63  1  0  0  0  0
 53 64  1  0  0  0  0
 54 64  1  0  0  0  0
 55 64  1  0  0  0  0
 56 74  1  0  0  0  0
 57 75  1  0  0  0  0
 58 73  1  0  0  0  0
 59 60  1  0  0  0  0
 59 61  1  0  0  0  0
 60 74  1  0  0  0  0
 61 82  1  0  0  0  0
 62 64  1  0  0  0  0
 62 72  1  0  0  0  0
 63 75  1  0  0  0  0
 65 66  1  0  0  0  0
M  CHG  1  75   1
M  ISO  4  38 100  61 101  73 100  82 101
M  END
> <Batch ID>
0014

> <Smiles>
CNC(C)C(=O)NC(C(=O)N1Cc2cc([101O:1][101CH2:1]CCN(C)c3ccc(C[100NH:0][100C:0](=O)N4CCCC(n5nc(-c6ccc(Oc7ccc(F)cc7F)cc6)c(C(N)=O)c5N)C4)c(C)c3)ccc2CC1C(=O)NC1CCCc2ccccc21)C(C)(C)C

> <Shape>
0.203

> <Color>
0.060

> <Negative vol penalty>
0.000

$$$$

  -OEChem-04042320513D

 85 94  0     1  0  0  0  0  0999 V2000
  -16.6367  -30.3162   23.1380 C   0  0  0  0  0  0  0  0  0  0  0  0
  -17.6575  -30.6485   22.2531 C   0  0  0  0  0  0  0  0  0  0  0  0
  -26.8477  -12.8161   20.0542 C   0  0  0  0  0  0  0  0  0  0  0  0
  -26.8828  -13.7834   22.2678 C   0  0  0  0  0  0  0  0  0  0  0  0
  -16.9337  -29.6418   24.3215 C   0  0  0  0  0  0  0  0  0  0  0  0
  -18.9761  -30.3074   22.5518 C   0  0  0  0  0  0  0  0  0  0  0  0
  -25.0984  -28.3714   19.3759 C   0  0  0  0  0  0  0  0  0  0  0  0
  -32.2245  -23.8827   18.6767 C   0  0  0  0  0  0  0  0  0  0  0  0
  -32.3828  -22.5885   19.1721 C   0  0  0  0  0  0  0  0  0  0  0  0
  -26.3454  -11.6267   20.5819 C   0  0  0  0  0  0  0  0  0  0  0  0
  -26.3804  -12.5940   22.7955 C   0  0  0  0  0  0  0  0  0  0  0  0
  -26.4465  -28.7237   19.3306 C   0  0  0  0  0  0  0  0  0  0  0  0
  -23.3633  -10.4341   21.6393 C   0  0  0  0  0  0  0  0  0  0  0  0
  -22.3012   -9.8258   20.9705 C   0  0  0  0  0  0  0  0  0  0  0  0
  -26.8314  -27.4892   21.3670 C   0  0  0  0  0  0  0  0  0  0  0  0
  -30.1482  -24.0947   19.8937 C   0  0  0  0  0  0  0  0  0  0  0  0
  -23.6482   -7.8495   20.6289 C   0  0  0  0  0  0  0  0  0  0  0  0
  -27.1165  -13.8945   20.8971 C   0  0  0  0  0  0  0  0  0  0  0  0
  -26.8960  -16.2249   19.8832 C   0  0  0  0  0  0  0  0  0  0  0  0
  -18.2555  -29.2838   24.6304 C   0  0  0  0  0  0  0  0  0  0  0  0
  -24.6036  -27.5830   20.4248 C   0  0  0  0  0  0  0  0  0  0  0  0
  -19.2913  -29.6288   23.7413 C   0  0  0  0  0  0  0  0  0  0  0  0
  -25.4771  -27.1261   21.4220 C   0  0  0  0  0  0  0  0  0  0  0  0
  -31.1073  -24.6359   19.0375 C   0  0  0  0  0  0  0  0  0  0  0  0
  -31.4237  -22.0473   20.0282 C   0  0  0  0  0  0  0  0  0  0  0  0
  -26.1117  -11.5156   21.9525 C   0  0  0  0  0  0  0  0  0  0  0  0
  -27.3127  -28.2851   20.3278 C   0  0  0  0  0  0  0  0  0  0  0  0
  -24.5680   -9.7502   21.8029 C   0  0  0  0  0  0  0  0  0  0  0  0
  -22.4436   -8.5335   20.4653 C   0  0  0  0  0  0  0  0  0  0  0  0
  -30.3064  -22.8004   20.3890 C   0  0  0  0  0  0  0  0  0  0  0  0
  -24.7104   -8.4578   21.2977 C   0  0  0  0  0  0  0  0  0  0  0  0
  -27.6360  -15.1232   20.3527 C   0  0  0  0  0  0  0  0  0  0  0  0
  -27.8466  -17.1280   19.4744 C   0  0  0  0  0  0  0  0  0  0  0  0
  -25.4761  -16.4150   19.8222 C   0  0  0  0  0  0  0  0  0  0  0  0
  -22.4508  -28.0046   22.7251 C   0  0  0  0  0  0  0  0  0  0  0  0
  -23.0350  -24.8679   23.3102 C   0  0  0  0  0  0  0  0  0  0  0  0
  -25.1773  -22.2235   23.0566 C   0  0  0  0  0  0  0  0  0  0  0  0
  -32.6371  -19.8527   20.2685 C   0  0  0  0  0  0  0  0  0  0  0  0
  -18.5336  -28.5972   25.9441 C   0  0  0  0  0  0  0  0  0  0  0  0
  -23.1520  -27.1894   20.4448 C   0  0  0  0  0  0  0  0  0  0  0  0
  -24.9999  -26.2608   22.5586 C   0  0  0  0  0  0  0  0  0  0  0  0
  -19.9102  -27.9407   26.0089 C   0  0  0  0  0  0  0  0  0  0  0  0
  -32.8408  -16.5955   18.8449 C   0  0  0  0  0  0  0  0  0  0  0  0
  -32.6768  -28.4673   20.3441 C   0  0  0  0  0  0  0  0  0  0  0  0
  -20.9811  -28.8937   25.4877 C   0  0  0  0  0  0  0  0  0  0  0  0
  -31.4440  -16.0128   19.0716 C   0  0  0  0  0  0  0  0  0  0  0  0
  -31.4697  -29.3337   20.0441 C   0  0  0  0  0  0  0  0  0  0  0  0
  -33.2884  -17.4679   20.0164 C   0  0  0  0  0  0  0  0  0  0  0  0
  -30.9490  -17.9448   20.6237 C   0  0  0  0  0  0  0  0  0  0  0  0
  -32.0919  -27.0757   20.4895 C   0  0  0  0  0  0  0  0  0  0  0  0
  -20.7311  -29.2541   24.0183 C   0  0  1  0  0  0  0  0  0  0  0  0
  -22.6549  -26.8103   21.8364 C   0  0  1  0  0  0  0  0  0  0  0  0
  -30.4282  -17.1114   19.4414 C   0  0  2  0  0  0  0  0  0  0  0  0
  -30.6832  -28.4831   19.0578 C   0  0  2  0  0  0  0  0  0  0  0  0
  -25.3921  -19.7974   23.6610 C   0  0  0  0  0  0  0  0  0  0  0  0
  -23.5961  -25.6419   26.2078 C   0  0  0  0  0  0  0  0  0  0  0  0
  -24.7001  -23.4160   26.5155 C   0  0  0  0  0  0  0  0  0  0  0  0
  -22.2788  -23.5346   25.9273 C   0  0  0  0  0  0  0  0  0  0  0  0
  -25.4090  -21.4174   20.2184 C   0  0  0  0  0  0  0  0  0  0  0  0
  -30.9363  -26.0277   18.5040 C   0  0  0  0  0  0  0  0  0  0  0  0
  -29.2071  -28.8303   18.9975 C   0  0  0  0  0  0  0  0  0  1  0  0
  -24.0096  -24.1051   24.1748 C   0  0  1  0  0  0  0  0  0  0  0  0
  -24.9620  -20.7934   22.5953 C   0  0  2  0  0  0  0  0  0  0  0  0
  -23.6551  -24.1923   25.6861 C   0  0  0  0  0  0  0  0  0  0  0  0
  -28.9550  -15.3074   20.2518 N   0  0  0  0  0  0  0  0  0  0  0  0
  -29.0513  -16.5353   19.7142 N   0  0  0  0  0  0  0  0  0  0  0  0
  -23.5706  -25.9080   22.5374 N   0  0  0  0  0  0  0  0  0  0  0  0
  -32.2790  -18.4884   20.3067 N   0  0  0  0  0  0  0  0  0  0  0  0
  -27.7612  -18.3633   18.9367 N   0  0  0  0  0  0  0  0  0  0  0  0
  -24.6439  -15.3862   20.2841 N   0  0  0  0  0  0  0  0  0  0  0  0
  -31.5868  -20.7320   20.5295 N   0  0  0  0  0  0  0  0  0  0  0  0
  -21.1478  -28.1705   23.1542 N   0  0  0  0  0  0  0  0  0  0  0  0
  -24.0458  -22.7455   23.6470 N   0  0  0  0  0  0  0  0  0  0  0  0
  -30.8730  -27.0662   19.5822 N   0  3  1  0  0  0  0  0  0  0  0  0
  -25.7466  -20.5249   21.3570 N   0  3  0  0  0  0  0  0  0  0  0  0
  -24.9606  -17.4593   19.3562 O   0  0  0  0  0  0  0  0  0  0  0  0
  -23.4052  -28.7216   23.0023 O   0  0  0  0  0  0  0  0  0  0  0  0
  -21.8437  -24.5480   23.3149 O   0  0  0  0  0  0  0  0  0  0  0  0
  -26.2438  -22.8168   22.9115 O   0  0  0  0  0  0  0  0  0  0  0  0
  -33.7844  -20.2150   19.9956 O   0  0  0  0  0  0  0  0  0  0  0  0
  -25.6213  -10.3552   22.4678 O   0  0  0  0  0  0  0  0  0  0  0  0
  -28.6290  -28.6281   20.2863 O   0  0  0  0  0  0  0  0  0  1  0  0
  -21.4230   -7.9488   19.8244 F   0  0  0  0  0  0  0  0  0  0  0  0
  -29.3776  -22.2898   21.2100 F   0  0  0  0  0  0  0  0  0  0  0  0
  -25.8648   -7.7953   21.4528 F   0  0  0  0  0  0  0  0  0  0  0  0
  1  2  1  0  0  0  0
  1  5  2  0  0  0  0
  2  6  2  0  0  0  0
  3 10  2  0  0  0  0
  3 18  1  0  0  0  0
  4 11  1  0  0  0  0
  4 18  2  0  0  0  0
  5 20  1  0  0  0  0
  6 22  1  0  0  0  0
  7 12  2  0  0  0  0
  7 21  1  0  0  0  0
  8  9  2  0  0  0  0
  8 24  1  0  0  0  0
  9 25  1  0  0  0  0
 10 26  1  0  0  0  0
 11 26  2  0  0  0  0
 12 27  1  0  0  0  0
 13 14  2  0  0  0  0
 13 28  1  0  0  0  0
 14 29  1  0  0  0  0
 15 23  1  0  0  0  0
 15 27  2  0  0  0  0
 16 24  2  0  0  0  0
 16 30  1  0  0  0  0
 17 29  2  0  0  0  0
 17 31  1  0  0  0  0
 18 32  1  0  0  0  0
 19 32  1  0  0  0  0
 19 33  2  0  0  0  0
 19 34  1  0  0  0  0
 20 22  2  0  0  0  0
 20 39  1  0  0  0  0
 21 23  2  0  0  0  0
 21 40  1  0  0  0  0
 22 51  1  0  0  0  0
 23 41  1  0  0  0  0
 24 60  1  0  0  0  0
 25 30  2  0  0  0  0
 25 71  1  0  0  0  0
 26 81  1  0  0  0  0
 27 82  1  0  0  0  0
 28 31  2  0  0  0  0
 28 81  1  0  0  0  0
 29 83  1  0  0  0  0
 30 84  1  0  0  0  0
 31 85  1  0  0  0  0
 32 65  2  0  0  0  0
 33 66  1  0  0  0  0
 33 69  1  0  0  0  0
 34 70  1  0  0  0  0
 34 76  2  0  0  0  0
 35 52  1  0  0  0  0
 35 72  1  0  0  0  0
 35 77  2  0  0  0  0
 36 62  1  0  0  0  0
 36 67  1  0  0  0  0
 36 78  2  0  0  0  0
 37 63  1  0  0  0  0
 37 73  1  0  0  0  0
 37 79  2  0  0  0  0
 38 68  1  0  0  0  0
 38 71  1  0  0  0  0
 38 80  2  0  0  0  0
 39 42  1  0  0  0  0
 40 52  1  0  0  0  0
 41 67  1  0  0  0  0
 42 45  1  0  0  0  0
 43 46  1  0  0  0  0
 43 48  1  0  0  0  0
 44 47  1  0  0  0  0
 44 50  1  0  0  0  0
 45 51  1  0  0  0  0
 46 53  1  0  0  0  0
 47 54  1  0  0  0  0
 48 68  1  0  0  0  0
 49 53  1  0  0  0  0
 49 68  1  0  0  0  0
 50 74  1  0  0  0  0
 51 72  1  0  0  0  0
 52 67  1  0  0  0  0
 53 66  1  0  0  0  0
 54 61  1  0  0  0  0
 54 74  1  0  0  0  0
 55 63  1  0  0  0  0
 56 64  1  0  0  0  0
 57 64  1  0  0  0  0
 58 64  1  0  0  0  0
 59 75  1  0  0  0  0
 60 74  1  0  0  0  0
 61 82  1  0  0  0  0
 62 64  1  0  0  0  0
 62 73  1  0  0  0  0
 63 75  1  0  0  0  0
 65 66  1  0  0  0  0
M  CHG  2  74   1  75   1
M  ISO  4  38 100  61 101  71 100  82 101
M  END
> <Batch ID>
0014

> <Smiles>
CNC(C)C(=O)NC(C(=O)N1Cc2cc([101O:1][101CH2:1]C3CCCN3Cc3ccc([100NH:0][100C:0](=O)N4CCCC(n5nc(-c6ccc(Oc7ccc(F)cc7F)cc6)c(C(N)=O)c5N)C4)c(F)c3)ccc2CC1C(=O)NC1CCCc2ccccc21)C(C)(C)C

> <Shape>
0.219

> <Color>
0.078

> <Negative vol penalty>
0.000

$$$$

  -OEChem-04042320513D

 96106  0     1  0  0  0  0  0999 V2000
  -20.8930  -23.0478   18.1803 C   0  0  0  0  0  0  0  0  0  0  0  0
  -21.6866  -23.8014   19.0392 C   0  0  0  0  0  0  0  0  0  0  0  0
  -23.2618   -9.8389   19.8318 C   0  0  0  0  0  0  0  0  0  0  0  0
  -23.8158   -9.7752   22.1826 C   0  0  0  0  0  0  0  0  0  0  0  0
  -21.4833  -22.3103   17.1548 C   0  0  0  0  0  0  0  0  0  0  0  0
  -23.0711  -23.8170   18.8738 C   0  0  0  0  0  0  0  0  0  0  0  0
  -27.6395  -24.2721   22.5738 C   0  0  0  0  0  0  0  0  0  0  0  0
  -25.0167  -28.4795   19.2208 C   0  0  0  0  0  0  0  0  0  0  0  0
  -26.9377  -25.4050   22.9855 C   0  0  0  0  0  0  0  0  0  0  0  0
  -27.1096  -18.3130   19.6978 C   0  0  0  0  0  0  0  0  0  0  0  0
  -27.4088  -17.5845   18.5466 C   0  0  0  0  0  0  0  0  0  0  0  0
  -22.5532   -8.6451   19.9664 C   0  0  0  0  0  0  0  0  0  0  0  0
  -23.1071   -8.5813   22.3172 C   0  0  0  0  0  0  0  0  0  0  0  0
  -25.1708  -29.0116   20.5002 C   0  0  0  0  0  0  0  0  0  0  0  0
  -19.8790   -7.6204   22.5938 C   0  0  0  0  0  0  0  0  0  0  0  0
  -19.0246   -7.4957   23.6893 C   0  0  0  0  0  0  0  0  0  0  0  0
  -27.6784  -23.4683   24.8518 C   0  0  0  0  0  0  0  0  0  0  0  0
  -27.5133  -28.4380   20.4500 C   0  0  0  0  0  0  0  0  0  0  0  0
  -29.4402  -16.7842   19.5811 C   0  0  0  0  0  0  0  0  0  0  0  0
  -20.2851   -5.5817   24.4543 C   0  0  0  0  0  0  0  0  0  0  0  0
  -23.8932  -10.4040   20.9399 C   0  0  0  0  0  0  0  0  0  0  0  0
  -24.1266  -12.9442   20.9547 C   0  0  0  0  0  0  0  0  0  0  0  0
  -28.0098  -23.3036   23.5069 C   0  0  0  0  0  0  0  0  0  0  0  0
  -22.8749  -22.3245   16.9708 C   0  0  0  0  0  0  0  0  0  0  0  0
  -26.1093  -27.9119   18.5496 C   0  0  0  0  0  0  0  0  0  0  0  0
  -23.6806  -23.0779   17.8457 C   0  0  0  0  0  0  0  0  0  0  0  0
  -27.3710  -27.9017   19.1611 C   0  0  0  0  0  0  0  0  0  0  0  0
  -27.9757  -18.2772   20.7907 C   0  0  0  0  0  0  0  0  0  0  0  0
  -26.6062  -25.5696   24.3303 C   0  0  0  0  0  0  0  0  0  0  0  0
  -26.9766  -24.6013   25.2635 C   0  0  0  0  0  0  0  0  0  0  0  0
  -29.1410  -17.5128   20.7324 C   0  0  0  0  0  0  0  0  0  0  0  0
  -28.5741  -16.8200   18.4883 C   0  0  0  0  0  0  0  0  0  0  0  0
  -22.4758   -8.0163   21.2091 C   0  0  0  0  0  0  0  0  0  0  0  0
  -26.4186  -28.9883   21.1162 C   0  0  0  0  0  0  0  0  0  0  0  0
  -20.9364   -6.7257   22.4285 C   0  0  0  0  0  0  0  0  0  0  0  0
  -19.2277   -6.4763   24.6196 C   0  0  0  0  0  0  0  0  0  0  0  0
  -21.1394   -5.7064   23.3588 C   0  0  0  0  0  0  0  0  0  0  0  0
  -24.6258  -11.6369   20.8014 C   0  0  0  0  0  0  0  0  0  0  0  0
  -25.2105  -13.7551   20.7222 C   0  0  0  0  0  0  0  0  0  0  0  0
  -22.8016  -13.3861   21.2785 C   0  0  0  0  0  0  0  0  0  0  0  0
  -26.8001  -25.0156   17.4370 C   0  0  0  0  0  0  0  0  0  0  0  0
  -29.4020  -26.5276   16.2259 C   0  0  0  0  0  0  0  0  0  0  0  0
  -31.5740  -29.1534   16.4104 C   0  0  0  0  0  0  0  0  0  0  0  0
  -29.6135  -14.8614   17.3159 C   0  0  0  0  0  0  0  0  0  0  0  0
  -23.4713  -21.4737   15.8775 C   0  0  0  0  0  0  0  0  0  0  0  0
  -25.9323  -27.3663   17.1591 C   0  0  0  0  0  0  0  0  0  0  0  0
  -28.5801  -27.3222   18.4750 C   0  0  0  0  0  0  0  0  0  0  0  0
  -24.9135  -21.8413   15.5380 C   0  0  0  0  0  0  0  0  0  0  0  0
  -30.1243  -12.6969   20.2734 C   0  0  0  0  0  0  0  0  0  0  0  0
  -25.7366  -22.0056   16.8117 C   0  0  0  0  0  0  0  0  0  0  0  0
  -28.7019  -12.2700   20.6311 C   0  0  0  0  0  0  0  0  0  0  0  0
  -30.2723  -12.9805   18.7816 C   0  0  0  0  0  0  0  0  0  0  0  0
  -27.8673  -13.5576   18.6244 C   0  0  0  0  0  0  0  0  0  0  0  0
  -28.3793  -21.3818   21.7181 C   0  0  0  0  0  0  0  0  0  0  0  0
  -28.4122  -20.6886   23.6802 C   0  0  0  0  0  0  0  0  0  0  0  0
  -28.7906  -22.0442   23.0489 C   0  0  0  0  0  0  0  0  0  0  0  0
  -25.1839  -23.1399   17.6831 C   0  0  1  0  0  0  0  0  0  0  0  0
  -27.0029  -26.3494   16.7755 C   0  0  1  0  0  0  0  0  0  0  0  0
  -27.6822  -13.3051   20.1281 C   0  0  1  0  0  0  0  0  0  0  0  0
  -26.6328  -24.7557   26.7089 C   0  0  0  0  0  0  0  0  0  0  0  0
  -30.0819  -17.4576   21.8909 C   0  0  0  0  0  0  0  0  0  0  0  0
  -33.6209  -30.0980   15.3079 C   0  0  0  0  0  0  0  0  0  0  0  0
  -31.1165  -24.4112   17.6012 C   0  0  0  0  0  0  0  0  0  0  0  0
  -33.0979  -25.9075   17.2797 C   0  0  0  0  0  0  0  0  0  0  0  0
  -31.8678  -25.0262   15.2965 C   0  0  0  0  0  0  0  0  0  0  0  0
  -28.6548  -16.7032   16.0042 C   0  0  0  0  0  0  0  0  0  0  0  0
  -30.1641  -31.6468   15.6661 C   0  0  0  0  0  0  0  0  0  0  0  0
  -27.6216  -28.0400   25.9809 C   0  0  0  0  0  0  0  0  0  0  0  0
  -27.6329  -19.0698   22.0176 C   0  0  0  0  0  0  0  0  0  0  0  0
  -25.8507  -26.7963   24.7491 C   0  0  0  0  0  0  0  0  0  0  0  0
  -25.9110  -29.2843   24.6667 C   0  0  0  0  0  0  0  0  0  0  0  0
  -25.4416  -29.4497   23.2348 C   0  0  0  0  0  0  0  0  0  1  0  0
  -30.7974  -26.8181   16.7232 C   0  0  1  0  0  0  0  0  0  0  0  0
  -32.1006  -30.1016   15.3483 C   0  0  2  0  0  0  0  0  0  0  0  0
  -31.6969  -25.5500   16.7392 C   0  0  0  0  0  0  0  0  0  0  0  0
  -25.9257  -11.6139   20.4950 N   0  0  0  0  0  0  0  0  0  0  0  0
  -26.2524  -12.9169   20.4538 N   0  0  0  0  0  0  0  0  0  0  0  0
  -28.3547  -26.7952   17.1189 N   0  0  0  0  0  0  0  0  0  0  0  0
  -29.2574  -13.9214   18.3047 N   0  0  0  0  0  0  0  0  0  0  0  0
  -25.3645  -15.0963   20.7230 N   0  0  0  0  0  0  0  0  0  0  0  0
  -21.8073  -12.4204   21.4859 N   0  0  0  0  0  0  0  0  0  0  0  0
  -25.5834  -24.4257   17.1523 N   0  0  0  0  0  0  0  0  0  0  0  0
  -31.3090  -27.9032   15.8929 N   0  0  0  0  0  0  0  0  0  0  0  0
  -28.8830  -16.0649   17.2987 N   0  0  0  0  0  0  0  0  0  0  0  0
  -28.6559  -20.0821   22.3581 N   0  3  0  0  0  0  0  0  0  0  0  0
  -31.6410  -31.4926   15.6219 N   0  3  0  0  0  0  0  0  0  0  0  0
  -26.7084  -28.0371   24.7801 N   0  3  1  0  0  0  0  0  0  0  0  0
  -22.5044  -14.6017   21.3648 O   0  0  0  0  0  0  0  0  0  0  0  0
  -27.6828  -24.5551   18.1514 O   0  0  0  0  0  0  0  0  0  0  0  0
  -29.2464  -26.0863   15.0846 O   0  0  0  0  0  0  0  0  0  0  0  0
  -31.4172  -29.4873   17.5828 O   0  0  0  0  0  0  0  0  0  0  0  0
  -30.4846  -14.6234   16.4702 O   0  0  0  0  0  0  0  0  0  0  0  0
  -21.7842   -6.8514   21.3408 O   0  0  0  0  0  0  0  0  0  0  0  0
  -26.5716  -29.5063   22.3652 O   0  0  0  0  0  0  0  0  0  1  0  0
  -18.4081   -6.3576   25.6723 F   0  0  0  0  0  0  0  0  0  0  0  0
  -22.1542   -4.8447   23.2060 F   0  0  0  0  0  0  0  0  0  0  0  0
  1  2  1  0  0  0  0
  1  5  2  0  0  0  0
  2  6  2  0  0  0  0
  3 12  2  0  0  0  0
  3 21  1  0  0  0  0
  4 13  1  0  0  0  0
  4 21  2  0  0  0  0
  5 24  1  0  0  0  0
  6 26  1  0  0  0  0
  7  9  2  0  0  0  0
  7 23  1  0  0  0  0
  8 14  2  0  0  0  0
  8 25  1  0  0  0  0
  9 29  1  0  0  0  0
 10 11  2  0  0  0  0
 10 28  1  0  0  0  0
 11 32  1  0  0  0  0
 12 33  1  0  0  0  0
 13 33  2  0  0  0  0
 14 34  1  0  0  0  0
 15 16  2  0  0  0  0
 15 35  1  0  0  0  0
 16 36  1  0  0  0  0
 17 23  2  0  0  0  0
 17 30  1  0  0  0  0
 18 27  1  0  0  0  0
 18 34  2  0  0  0  0
 19 31  1  0  0  0  0
 19 32  2  0  0  0  0
 20 36  2  0  0  0  0
 20 37  1  0  0  0  0
 21 38  1  0  0  0  0
 22 38  1  0  0  0  0
 22 39  2  0  0  0  0
 22 40  1  0  0  0  0
 23 56  1  0  0  0  0
 24 26  2  0  0  0  0
 24 45  1  0  0  0  0
 25 27  2  0  0  0  0
 25 46  1  0  0  0  0
 26 57  1  0  0  0  0
 27 47  1  0  0  0  0
 28 31  2  0  0  0  0
 28 69  1  0  0  0  0
 29 30  2  0  0  0  0
 29 70  1  0  0  0  0
 30 60  1  0  0  0  0
 31 61  1  0  0  0  0
 32 84  1  0  0  0  0
 33 93  1  0  0  0  0
 34 94  1  0  0  0  0
 35 37  2  0  0  0  0
 35 93  1  0  0  0  0
 36 95  1  0  0  0  0
 37 96  1  0  0  0  0
 38 76  2  0  0  0  0
 39 77  1  0  0  0  0
 39 80  1  0  0  0  0
 40 81  1  0  0  0  0
 40 88  2  0  0  0  0
 41 58  1  0  0  0  0
 41 82  1  0  0  0  0
 41 89  2  0  0  0  0
 42 73  1  0  0  0  0
 42 78  1  0  0  0  0
 42 90  2  0  0  0  0
 43 74  1  0  0  0  0
 43 83  1  0  0  0  0
 43 91  2  0  0  0  0
 44 79  1  0  0  0  0
 44 84  1  0  0  0  0
 44 92  2  0  0  0  0
 45 48  1  0  0  0  0
 46 58  1  0  0  0  0
 47 78  1  0  0  0  0
 48 50  1  0  0  0  0
 49 51  1  0  0  0  0
 49 52  1  0  0  0  0
 50 57  1  0  0  0  0
 51 59  1  0  0  0  0
 52 79  1  0  0  0  0
 53 59  1  0  0  0  0
 53 79  1  0  0  0  0
 54 56  1  0  0  0  0
 54 85  1  0  0  0  0
 55 56  1  0  0  0  0
 55 85  1  0  0  0  0
 57 82  1  0  0  0  0
 58 78  1  0  0  0  0
 59 77  1  0  0  0  0
 62 74  1  0  0  0  0
 63 75  1  0  0  0  0
 64 75  1  0  0  0  0
 65 75  1  0  0  0  0
 66 84  1  0  0  0  0
 67 86  1  0  0  0  0
 68 87  1  0  0  0  0
 69 85  1  0  0  0  0
 70 87  1  0  0  0  0
 71 72  1  0  0  0  0
 71 87  1  0  0  0  0
 72 94  1  0  0  0  0
 73 75  1  0  0  0  0
 73 83  1  0  0  0  0
 74 86  1  0  0  0  0
 76 77  1  0  0  0  0
M  CHG  3  85   1  86   1  87   1
M  ISO  4  44 100  72 101  84 100  94 101
M  END
> <Batch ID>
0014

> <Smiles>
CNC(C)C(=O)NC(C(=O)N1Cc2cc([101O:1][101CH2:1]CN(C)Cc3ccc(C4CN(Cc5ccc([100N:0](C)[100C:0](=O)N6CCCC(n7nc(-c8ccc(Oc9ccc(F)cc9F)cc8)c(C(N)=O)c7N)C6)cc5C)C4)cc3C)ccc2CC1C(=O)NC1CCCc2ccccc21)C(C)(C)C

> <Shape>
0.230

> <Color>
0.172

> <Negative vol penalty>
0.000

$$$$

  -OEChem-04042320513D

 84 92  0     1  0  0  0  0  0999 V2000
  -34.8160  -25.4581   17.4221 C   0  0  0  0  0  0  0  0  0  0  0  0
  -33.7317  -24.6459   17.7384 C   0  0  0  0  0  0  0  0  0  0  0  0
  -24.1994   -9.5219   21.5108 C   0  0  0  0  0  0  0  0  0  0  0  0
  -24.7740  -10.6993   23.5408 C   0  0  0  0  0  0  0  0  0  0  0  0
  -34.8143  -26.7999   17.8010 C   0  0  0  0  0  0  0  0  0  0  0  0
  -32.6455  -25.1747   18.4346 C   0  0  0  0  0  0  0  0  0  0  0  0
  -28.1999  -23.7512   16.4711 C   0  0  0  0  0  0  0  0  0  0  0  0
  -30.5316  -19.0915   20.4842 C   0  0  0  0  0  0  0  0  0  0  0  0
  -23.8276   -8.4073   22.2625 C   0  0  0  0  0  0  0  0  0  0  0  0
  -24.4022   -9.5847   24.2925 C   0  0  0  0  0  0  0  0  0  0  0  0
  -27.7551  -22.4639   16.7693 C   0  0  0  0  0  0  0  0  0  0  0  0
  -30.7876  -20.3979   20.9004 C   0  0  0  0  0  0  0  0  0  0  0  0
  -21.1760   -7.4247   24.1162 C   0  0  0  0  0  0  0  0  0  0  0  0
  -19.9788   -6.7899   23.7856 C   0  0  0  0  0  0  0  0  0  0  0  0
  -26.2970  -23.3672   18.4654 C   0  0  0  0  0  0  0  0  0  0  0  0
  -28.4237  -20.7481   21.2556 C   0  0  0  0  0  0  0  0  0  0  0  0
  -21.1861   -4.7455   23.3386 C   0  0  0  0  0  0  0  0  0  0  0  0
  -24.6727  -10.6679   22.1499 C   0  0  0  0  0  0  0  0  0  0  0  0
  -24.2364  -12.8942   20.9833 C   0  0  0  0  0  0  0  0  0  0  0  0
  -33.7232  -27.3479   18.4938 C   0  0  0  0  0  0  0  0  0  0  0  0
  -27.7038  -24.8569   17.1765 C   0  0  0  0  0  0  0  0  0  0  0  0
  -32.6297  -26.5248   18.8243 C   0  0  0  0  0  0  0  0  0  0  0  0
  -26.7352  -24.6677   18.1725 C   0  0  0  0  0  0  0  0  0  0  0  0
  -29.2215  -18.6133   20.4536 C   0  0  0  0  0  0  0  0  0  0  0  0
  -28.1676  -19.4416   20.8394 C   0  0  0  0  0  0  0  0  0  0  0  0
  -23.9290   -8.4387   23.6533 C   0  0  0  0  0  0  0  0  0  0  0  0
  -26.8056  -22.2715   17.7685 C   0  0  0  0  0  0  0  0  0  0  0  0
  -29.7337  -21.2262   21.2861 C   0  0  0  0  0  0  0  0  0  0  0  0
  -22.3784   -6.7199   24.0579 C   0  0  0  0  0  0  0  0  0  0  0  0
  -19.9838   -5.4504   23.3969 C   0  0  0  0  0  0  0  0  0  0  0  0
  -22.3834   -5.3804   23.6691 C   0  0  0  0  0  0  0  0  0  0  0  0
  -25.0574  -11.8194   21.3740 C   0  0  0  0  0  0  0  0  0  0  0  0
  -25.0693  -13.7206   20.2692 C   0  0  0  0  0  0  0  0  0  0  0  0
  -22.8453  -13.1249   21.2427 C   0  0  0  0  0  0  0  0  0  0  0  0
  -28.9833  -27.0721   19.0631 C   0  0  0  0  0  0  0  0  0  0  0  0
  -26.0008  -28.3417   18.9410 C   0  0  0  0  0  0  0  0  0  0  0  0
  -22.6613  -27.8505   18.4380 C   0  0  0  0  0  0  0  0  0  0  0  0
  -29.9351  -16.3473   19.6156 C   0  0  0  0  0  0  0  0  0  0  0  0
  -33.7875  -28.7921   18.9237 C   0  0  0  0  0  0  0  0  0  0  0  0
  -28.1741  -26.2416   16.8245 C   0  0  0  0  0  0  0  0  0  0  0  0
  -26.1560  -25.8235   18.9452 C   0  0  0  0  0  0  0  0  0  0  0  0
  -32.4333  -29.3672   19.3307 C   0  0  0  0  0  0  0  0  0  0  0  0
  -29.7610  -12.9617   18.5275 C   0  0  0  0  0  0  0  0  0  0  0  0
  -31.7006  -28.4028   20.2580 C   0  0  0  0  0  0  0  0  0  0  0  0
  -28.4543  -12.4511   19.1389 C   0  0  0  0  0  0  0  0  0  0  0  0
  -30.4849  -13.9288   19.4626 C   0  0  0  0  0  0  0  0  0  0  0  0
  -28.3643  -14.5412   20.5568 C   0  0  0  0  0  0  0  0  0  0  0  0
  -31.4220  -27.0678   19.5568 C   0  0  1  0  0  0  0  0  0  0  0  0
  -27.9803  -27.2445   17.9577 C   0  0  1  0  0  0  0  0  0  0  0  0
  -27.5672  -13.6141   19.6247 C   0  0  2  0  0  0  0  0  0  0  0  0
  -20.4680  -29.0700   18.4432 C   0  0  0  0  0  0  0  0  0  0  0  0
  -26.0135  -28.3467   21.9922 C   0  0  0  0  0  0  0  0  0  0  0  0
  -23.5296  -28.6551   21.9326 C   0  0  0  0  0  0  0  0  0  0  0  0
  -25.0245  -30.3935   20.9498 C   0  0  0  0  0  0  0  0  0  0  0  0
  -26.0587  -18.9539   22.0538 C   0  0  0  0  0  0  0  0  0  0  0  0
  -22.1794  -27.2339   15.5838 C   0  0  0  0  0  0  0  0  0  0  0  0
  -31.3467  -22.9235   21.7025 C   0  0  0  0  0  0  0  0  0  0  0  0
  -25.0257  -19.4212   19.2485 C   0  0  0  0  0  0  0  0  0  0  0  0
  -26.2195  -18.5394   19.5940 C   0  0  0  0  0  0  0  0  0  0  0  0
  -25.3962  -20.8919   19.0975 C   0  0  0  0  0  0  0  0  0  1  0  0
  -24.7380  -28.1848   19.7532 C   0  0  1  0  0  0  0  0  0  0  0  0
  -21.6466  -28.6078   17.6006 C   0  0  2  0  0  0  0  0  0  0  0  0
  -24.8386  -28.8728   21.1439 C   0  0  0  0  0  0  0  0  0  0  0  0
  -26.3153  -11.9485   20.9437 N   0  0  0  0  0  0  0  0  0  0  0  0
  -26.2909  -13.1140   20.2751 N   0  0  0  0  0  0  0  0  0  0  0  0
  -26.6524  -27.1574   18.5686 N   0  0  0  0  0  0  0  0  0  0  0  0
  -29.5841  -15.0062   19.8782 N   0  0  0  0  0  0  0  0  0  0  0  0
  -24.8686  -14.8996   19.6431 N   0  0  0  0  0  0  0  0  0  0  0  0
  -22.1390  -12.1748   21.9928 N   0  0  0  0  0  0  0  0  0  0  0  0
  -28.9863  -17.2828   20.0271 N   0  0  0  0  0  0  0  0  0  0  0  0
  -30.2976  -27.1957   18.6547 N   0  0  0  0  0  0  0  0  0  0  0  0
  -23.6507  -28.6826   18.9176 N   0  0  0  0  0  0  0  0  0  0  0  0
  -26.8434  -18.9809   20.8179 N   0  0  3  0  0  0  0  0  0  0  0  0
  -21.1293  -27.7408   16.5043 N   0  3  0  0  0  0  0  0  0  0  0  0
  -22.2425  -14.1354   20.8078 O   0  0  0  0  0  0  0  0  0  0  0  0
  -28.5936  -26.8453   20.2026 O   0  0  0  0  0  0  0  0  0  0  0  0
  -26.3907  -29.4731   18.6417 O   0  0  0  0  0  0  0  0  0  0  0  0
  -22.5819  -26.6423   18.6491 O   0  0  0  0  0  0  0  0  0  0  0  0
  -30.9865  -16.6426   19.0417 O   0  0  0  0  0  0  0  0  0  0  0  0
  -23.5660   -7.3513   24.3871 O   0  0  0  0  0  0  0  0  0  0  0  0
  -29.9841  -22.5005   21.6940 O   0  0  0  0  0  0  0  0  0  0  0  0
  -26.3702  -21.0160   18.0620 O   0  0  0  0  0  0  0  0  0  1  0  0
  -18.8338   -4.8405   23.0810 F   0  0  0  0  0  0  0  0  0  0  0  0
  -23.5352   -4.6978   23.6124 F   0  0  0  0  0  0  0  0  0  0  0  0
  1  2  1  0  0  0  0
  1  5  2  0  0  0  0
  2  6  2  0  0  0  0
  3  9  2  0  0  0  0
  3 18  1  0  0  0  0
  4 10  1  0  0  0  0
  4 18  2  0  0  0  0
  5 20  1  0  0  0  0
  6 22  1  0  0  0  0
  7 11  2  0  0  0  0
  7 21  1  0  0  0  0
  8 12  2  0  0  0  0
  8 24  1  0  0  0  0
  9 26  1  0  0  0  0
 10 26  2  0  0  0  0
 11 27  1  0  0  0  0
 12 28  1  0  0  0  0
 13 14  2  0  0  0  0
 13 29  1  0  0  0  0
 14 30  1  0  0  0  0
 15 23  1  0  0  0  0
 15 27  2  0  0  0  0
 16 25  1  0  0  0  0
 16 28  2  0  0  0  0
 17 30  2  0  0  0  0
 17 31  1  0  0  0  0
 18 32  1  0  0  0  0
 19 32  1  0  0  0  0
 19 33  2  0  0  0  0
 19 34  1  0  0  0  0
 20 22  2  0  0  0  0
 20 39  1  0  0  0  0
 21 23  2  0  0  0  0
 21 40  1  0  0  0  0
 22 48  1  0  0  0  0
 23 41  1  0  0  0  0
 24 25  2  0  0  0  0
 24 70  1  0  0  0  0
 25 73  1  0  0  0  0
 26 80  1  0  0  0  0
 27 82  1  0  0  0  0
 28 81  1  0  0  0  0
 29 31  2  0  0  0  0
 29 80  1  0  0  0  0
 30 83  1  0  0  0  0
 31 84  1  0  0  0  0
 32 64  2  0  0  0  0
 33 65  1  0  0  0  0
 33 68  1  0  0  0  0
 34 69  1  0  0  0  0
 34 75  2  0  0  0  0
 35 49  1  0  0  0  0
 35 71  1  0  0  0  0
 35 76  2  0  0  0  0
 36 61  1  0  0  0  0
 36 66  1  0  0  0  0
 36 77  2  0  0  0  0
 37 62  1  0  0  0  0
 37 72  1  0  0  0  0
 37 78  2  0  0  0  0
 38 67  1  0  0  0  0
 38 70  1  0  0  0  0
 38 79  2  0  0  0  0
 39 42  1  0  0  0  0
 40 49  1  0  0  0  0
 41 66  1  0  0  0  0
 42 44  1  0  0  0  0
 43 45  1  0  0  0  0
 43 46  1  0  0  0  0
 44 48  1  0  0  0  0
 45 50  1  0  0  0  0
 46 67  1  0  0  0  0
 47 50  1  0  0  0  0
 47 67  1  0  0  0  0
 48 71  1  0  0  0  0
 49 66  1  0  0  0  0
 50 65  1  0  0  0  0
 51 62  1  0  0  0  0
 52 63  1  0  0  0  0
 53 63  1  0  0  0  0
 54 63  1  0  0  0  0
 55 73  1  0  0  0  0
 56 74  1  0  0  0  0
 57 81  1  0  0  0  0
 58 59  1  0  0  0  0
 58 60  1  0  0  0  0
 59 73  1  0  0  0  0
 60 82  1  0  0  0  0
 61 63  1  0  0  0  0
 61 72  1  0  0  0  0
 62 74  1  0  0  0  0
 64 65  1  0  0  0  0
M  CHG  1  74   1
M  ISO  4  38 100  60 101  70 100  82 101
M  END
> <Batch ID>
0014

> <Smiles>
CNC(C)C(=O)NC(C(=O)N1Cc2cc([101O:1][101CH2:1]CCN(C)c3cc(OC)ccc3[100NH:0][100C:0](=O)N3CCCC(n4nc(-c5ccc(Oc6ccc(F)cc6F)cc5)c(C(N)=O)c4N)C3)ccc2CC1C(=O)NC1CCCc2ccccc21)C(C)(C)C

> <Shape>
0.246

> <Color>
0.115

> <Negative vol penalty>
0.000

$$$$

  -OEChem-04042320513D

 83 92  0     1  0  0  0  0  0999 V2000
  -26.5894  -37.1224   25.0791 C   0  0  0  0  0  0  0  0  0  0  0  0
  -27.5370  -36.2130   24.6206 C   0  0  0  0  0  0  0  0  0  0  0  0
  -22.7971  -10.2862   20.2388 C   0  0  0  0  0  0  0  0  0  0  0  0
  -24.5634   -9.2301   21.5043 C   0  0  0  0  0  0  0  0  0  0  0  0
  -25.4234  -36.6637   25.6906 C   0  0  0  0  0  0  0  0  0  0  0  0
  -27.3197  -34.8442   24.7742 C   0  0  0  0  0  0  0  0  0  0  0  0
  -27.2062  -29.1650   19.4113 C   0  0  0  0  0  0  0  0  0  0  0  0
  -25.7538  -19.6294   19.0661 C   0  0  0  0  0  0  0  0  0  0  0  0
  -28.0683  -20.2157   19.4351 C   0  0  0  0  0  0  0  0  0  0  0  0
  -26.0604  -18.2854   19.2783 C   0  0  0  0  0  0  0  0  0  0  0  0
  -28.3749  -18.8716   19.6473 C   0  0  0  0  0  0  0  0  0  0  0  0
  -21.8498   -9.7389   21.1040 C   0  0  0  0  0  0  0  0  0  0  0  0
  -23.6162   -8.6828   22.3697 C   0  0  0  0  0  0  0  0  0  0  0  0
  -27.0052  -28.0981   18.5353 C   0  0  0  0  0  0  0  0  0  0  0  0
  -21.4503   -6.0866   22.3724 C   0  0  0  0  0  0  0  0  0  0  0  0
  -21.5905   -4.7433   22.7207 C   0  0  0  0  0  0  0  0  0  0  0  0
  -25.5498  -27.0346   20.1475 C   0  0  0  0  0  0  0  0  0  0  0  0
  -21.7805   -5.3664   25.0473 C   0  0  0  0  0  0  0  0  0  0  0  0
  -24.1539  -10.0318   20.4389 C   0  0  0  0  0  0  0  0  0  0  0  0
  -25.2365  -10.3882   18.1567 C   0  0  0  0  0  0  0  0  0  0  0  0
  -25.1871  -35.2884   25.8431 C   0  0  0  0  0  0  0  0  0  0  0  0
  -26.5668  -29.1782   20.6540 C   0  0  0  0  0  0  0  0  0  0  0  0
  -26.1500  -34.3667   25.3895 C   0  0  0  0  0  0  0  0  0  0  0  0
  -25.7375  -28.1066   21.0240 C   0  0  0  0  0  0  0  0  0  0  0  0
  -26.7578  -20.5946   19.1445 C   0  0  0  0  0  0  0  0  0  0  0  0
  -27.3709  -17.9064   19.5689 C   0  0  0  0  0  0  0  0  0  0  0  0
  -22.2594   -8.9372   22.1695 C   0  0  0  0  0  0  0  0  0  0  0  0
  -26.1793  -27.0354   18.9026 C   0  0  0  0  0  0  0  0  0  0  0  0
  -21.4754   -7.0699   23.3615 C   0  0  0  0  0  0  0  0  0  0  0  0
  -21.7555   -4.3831   24.0582 C   0  0  0  0  0  0  0  0  0  0  0  0
  -21.6404   -6.7097   24.6989 C   0  0  0  0  0  0  0  0  0  0  0  0
  -25.1329  -10.5965   19.5451 C   0  0  0  0  0  0  0  0  0  0  0  0
  -26.3211  -11.1404   17.7767 C   0  0  0  0  0  0  0  0  0  0  0  0
  -24.4249   -9.5866   17.2881 C   0  0  0  0  0  0  0  0  0  0  0  0
  -25.9702  -30.9990   23.8797 C   0  0  0  0  0  0  0  0  0  0  0  0
  -23.2787  -29.8048   23.0196 C   0  0  0  0  0  0  0  0  0  0  0  0
  -20.4324  -28.6839   21.5098 C   0  0  0  0  0  0  0  0  0  0  0  0
  -28.9309  -15.9961   20.0824 C   0  0  0  0  0  0  0  0  0  0  0  0
  -23.9337  -34.8414   26.5529 C   0  0  0  0  0  0  0  0  0  0  0  0
  -26.8028  -30.2771   21.6543 C   0  0  0  0  0  0  0  0  0  0  0  0
  -25.0976  -28.1469   22.3849 C   0  0  0  0  0  0  0  0  0  0  0  0
  -23.6067  -33.3655   26.3404 C   0  0  0  0  0  0  0  0  0  0  0  0
  -30.4687  -12.8465   19.4563 C   0  0  0  0  0  0  0  0  0  0  0  0
  -24.8537  -32.5090   26.5359 C   0  0  0  0  0  0  0  0  0  0  0  0
  -29.2843  -11.8943   19.2756 C   0  0  0  0  0  0  0  0  0  0  0  0
  -25.5203  -23.7138   17.4900 C   0  0  0  0  0  0  0  0  0  0  0  0
  -26.9107  -24.3019   19.4820 C   0  0  0  0  0  0  0  0  0  0  0  0
  -30.1907  -13.9007   20.5264 C   0  0  0  0  0  0  0  0  0  0  0  0
  -25.3497  -22.2946   18.0248 C   0  0  0  0  0  0  0  0  0  0  0  0
  -26.7376  -22.8854   20.0213 C   0  0  0  0  0  0  0  0  0  0  0  0
  -27.7620  -13.7064   20.1621 C   0  0  0  0  0  0  0  0  0  0  0  0
  -25.9389  -32.8735   25.5156 C   0  0  1  0  0  0  0  0  0  0  0  0
  -25.5547  -30.6094   22.4915 C   0  0  1  0  0  0  0  0  0  0  0  0
  -27.9698  -12.6665   19.0489 C   0  0  2  0  0  0  0  0  0  0  0  0
  -25.7309  -24.7215   18.6128 C   0  0  0  0  0  0  0  0  0  1  0  0
  -17.9491  -28.5451   21.8437 C   0  0  0  0  0  0  0  0  0  0  0  0
  -23.6773  -27.5280   25.0099 C   0  0  0  0  0  0  0  0  0  0  0  0
  -21.3128  -26.8289   24.5753 C   0  0  0  0  0  0  0  0  0  0  0  0
  -21.7878  -29.0728   25.5561 C   0  0  0  0  0  0  0  0  0  0  0  0
  -19.8998  -30.3050   19.0917 C   0  0  0  0  0  0  0  0  0  0  0  0
  -22.3184  -28.6469   23.1211 C   0  0  1  0  0  0  0  0  0  0  0  0
  -19.0946  -29.3553   21.2569 C   0  0  2  0  0  0  0  0  0  0  0  0
  -22.2927  -28.0212   24.5442 C   0  0  0  0  0  0  0  0  0  0  0  0
  -26.0764  -11.4166   20.0153 N   0  0  0  0  0  0  0  0  0  0  0  0
  -26.7833  -11.7302   18.9162 N   0  0  0  0  0  0  0  0  0  0  0  0
  -26.4504  -21.9442   18.9296 N   0  0  0  0  0  0  0  0  0  0  0  0
  -24.5992  -29.5023   22.6658 N   0  0  0  0  0  0  0  0  0  0  0  0
  -28.9323  -14.5944   20.2436 N   0  0  0  0  0  0  0  0  0  0  0  0
  -26.9150  -11.3482   16.5823 N   0  0  0  0  0  0  0  0  0  0  0  0
  -23.3503   -8.8784   17.8430 N   0  0  0  0  0  0  0  0  0  0  0  0
  -27.6823  -16.5410   19.7844 N   0  0  0  0  0  0  0  0  0  0  0  0
  -25.6342  -32.2942   24.2249 N   0  0  0  0  0  0  0  0  0  0  0  0
  -21.0260  -29.1471   22.6649 N   0  0  0  0  0  0  0  0  0  0  0  0
  -18.8604  -29.5085   19.7932 N   0  3  0  0  0  0  0  0  0  0  0  0
  -24.6561   -9.4879   16.0591 O   0  0  0  0  0  0  0  0  0  0  0  0
  -26.5518  -30.1849   24.5872 O   0  0  0  0  0  0  0  0  0  0  0  0
  -22.8731  -30.9470   23.2528 O   0  0  0  0  0  0  0  0  0  0  0  0
  -20.9020  -27.8310   20.7598 O   0  0  0  0  0  0  0  0  0  0  0  0
  -29.9663  -16.6608   20.1730 O   0  0  0  0  0  0  0  0  0  0  0  0
  -21.3353   -8.4031   23.0142 O   0  0  0  0  0  0  0  0  0  0  0  0
  -25.9839  -25.9992   18.0408 O   0  0  0  0  0  0  0  0  0  1  0  0
  -21.8885   -3.0929   24.3927 F   0  0  0  0  0  0  0  0  0  0  0  0
  -21.6641   -7.6498   25.6537 F   0  0  0  0  0  0  0  0  0  0  0  0
  1  2  1  0  0  0  0
  1  5  2  0  0  0  0
  2  6  2  0  0  0  0
  3 12  2  0  0  0  0
  3 19  1  0  0  0  0
  4 13  1  0  0  0  0
  4 19  2  0  0  0  0
  5 21  1  0  0  0  0
  6 23  1  0  0  0  0
  7 14  2  0  0  0  0
  7 22  1  0  0  0  0
  8 10  2  0  0  0  0
  8 25  1  0  0  0  0
  9 11  1  0  0  0  0
  9 25  2  0  0  0  0
 10 26  1  0  0  0  0
 11 26  2  0  0  0  0
 12 27  1  0  0  0  0
 13 27  2  0  0  0  0
 14 28  1  0  0  0  0
 15 16  2  0  0  0  0
 15 29  1  0  0  0  0
 16 30  1  0  0  0  0
 17 24  1  0  0  0  0
 17 28  2  0  0  0  0
 18 30  2  0  0  0  0
 18 31  1  0  0  0  0
 19 32  1  0  0  0  0
 20 32  1  0  0  0  0
 20 33  2  0  0  0  0
 20 34  1  0  0  0  0
 21 23  2  0  0  0  0
 21 39  1  0  0  0  0
 22 24  2  0  0  0  0
 22 40  1  0  0  0  0
 23 52  1  0  0  0  0
 24 41  1  0  0  0  0
 25 66  1  0  0  0  0
 26 71  1  0  0  0  0
 27 80  1  0  0  0  0
 28 81  1  0  0  0  0
 29 31  2  0  0  0  0
 29 80  1  0  0  0  0
 30 82  1  0  0  0  0
 31 83  1  0  0  0  0
 32 64  2  0  0  0  0
 33 65  1  0  0  0  0
 33 69  1  0  0  0  0
 34 70  1  0  0  0  0
 34 75  2  0  0  0  0
 35 53  1  0  0  0  0
 35 72  1  0  0  0  0
 35 76  2  0  0  0  0
 36 61  1  0  0  0  0
 36 67  1  0  0  0  0
 36 77  2  0  0  0  0
 37 62  1  0  0  0  0
 37 73  1  0  0  0  0
 37 78  2  0  0  0  0
 38 68  1  0  0  0  0
 38 71  1  0  0  0  0
 38 79  2  0  0  0  0
 39 42  1  0  0  0  0
 40 53  1  0  0  0  0
 41 67  1  0  0  0  0
 42 44  1  0  0  0  0
 43 45  1  0  0  0  0
 43 48  1  0  0  0  0
 44 52  1  0  0  0  0
 45 54  1  0  0  0  0
 46 49  1  0  0  0  0
 46 55  1  0  0  0  0
 47 50  1  0  0  0  0
 47 55  1  0  0  0  0
 48 68  1  0  0  0  0
 49 66  1  0  0  0  0
 50 66  1  0  0  0  0
 51 54  1  0  0  0  0
 51 68  1  0  0  0  0
 52 72  1  0  0  0  0
 53 67  1  0  0  0  0
 54 65  1  0  0  0  0
 55 81  1  0  0  0  0
 56 62  1  0  0  0  0
 57 63  1  0  0  0  0
 58 63  1  0  0  0  0
 59 63  1  0  0  0  0
 60 74  1  0  0  0  0
 61 63  1  0  0  0  0
 61 73  1  0  0  0  0
 62 74  1  0  0  0  0
 64 65  1  0  0  0  0
M  CHG  1  74   1
M  ISO  4  38 100  55 101  71 100  81 101
M  END
> <Batch ID>
0014

> <Smiles>
CNC(C)C(=O)NC(C(=O)N1Cc2cc([101O:1][101CH:1]3CCN(c4ccc([100NH:0][100C:0](=O)N5CCCC(n6nc(-c7ccc(Oc8ccc(F)cc8F)cc7)c(C(N)=O)c6N)C5)cc4)CC3)ccc2CC1C(=O)NC1CCCc2ccccc21)C(C)(C)C

> <Shape>
0.309

> <Color>
0.105

> <Negative vol penalty>
0.000

$$$$

  -OEChem-04042320513D

 85 94  0     1  0  0  0  0  0999 V2000
  -16.6367  -30.3162   23.1380 C   0  0  0  0  0  0  0  0  0  0  0  0
  -17.6575  -30.6485   22.2531 C   0  0  0  0  0  0  0  0  0  0  0  0
  -26.8477  -12.8161   20.0542 C   0  0  0  0  0  0  0  0  0  0  0  0
  -26.8828  -13.7834   22.2678 C   0  0  0  0  0  0  0  0  0  0  0  0
  -16.9337  -29.6418   24.3215 C   0  0  0  0  0  0  0  0  0  0  0  0
  -18.9761  -30.3074   22.5518 C   0  0  0  0  0  0  0  0  0  0  0  0
  -25.0984  -28.3714   19.3759 C   0  0  0  0  0  0  0  0  0  0  0  0
  -32.2245  -23.8827   18.6767 C   0  0  0  0  0  0  0  0  0  0  0  0
  -32.3828  -22.5885   19.1721 C   0  0  0  0  0  0  0  0  0  0  0  0
  -26.3454  -11.6267   20.5819 C   0  0  0  0  0  0  0  0  0  0  0  0
  -26.3804  -12.5940   22.7955 C   0  0  0  0  0  0  0  0  0  0  0  0
  -26.4465  -28.7237   19.3306 C   0  0  0  0  0  0  0  0  0  0  0  0
  -23.3633  -10.4341   21.6393 C   0  0  0  0  0  0  0  0  0  0  0  0
  -22.3012   -9.8258   20.9705 C   0  0  0  0  0  0  0  0  0  0  0  0
  -26.8314  -27.4892   21.3670 C   0  0  0  0  0  0  0  0  0  0  0  0
  -30.1482  -24.0947   19.8937 C   0  0  0  0  0  0  0  0  0  0  0  0
  -23.6482   -7.8495   20.6289 C   0  0  0  0  0  0  0  0  0  0  0  0
  -27.1165  -13.8945   20.8971 C   0  0  0  0  0  0  0  0  0  0  0  0
  -26.8960  -16.2249   19.8832 C   0  0  0  0  0  0  0  0  0  0  0  0
  -18.2555  -29.2838   24.6304 C   0  0  0  0  0  0  0  0  0  0  0  0
  -24.6036  -27.5830   20.4248 C   0  0  0  0  0  0  0  0  0  0  0  0
  -19.2913  -29.6288   23.7413 C   0  0  0  0  0  0  0  0  0  0  0  0
  -25.4771  -27.1261   21.4220 C   0  0  0  0  0  0  0  0  0  0  0  0
  -31.1073  -24.6359   19.0375 C   0  0  0  0  0  0  0  0  0  0  0  0
  -31.4237  -22.0473   20.0282 C   0  0  0  0  0  0  0  0  0  0  0  0
  -26.1117  -11.5156   21.9525 C   0  0  0  0  0  0  0  0  0  0  0  0
  -27.3127  -28.2851   20.3278 C   0  0  0  0  0  0  0  0  0  0  0  0
  -24.5680   -9.7502   21.8029 C   0  0  0  0  0  0  0  0  0  0  0  0
  -22.4436   -8.5335   20.4653 C   0  0  0  0  0  0  0  0  0  0  0  0
  -30.3064  -22.8004   20.3890 C   0  0  0  0  0  0  0  0  0  0  0  0
  -24.7104   -8.4578   21.2977 C   0  0  0  0  0  0  0  0  0  0  0  0
  -27.6360  -15.1232   20.3527 C   0  0  0  0  0  0  0  0  0  0  0  0
  -27.8466  -17.1280   19.4744 C   0  0  0  0  0  0  0  0  0  0  0  0
  -25.4761  -16.4150   19.8222 C   0  0  0  0  0  0  0  0  0  0  0  0
  -22.4508  -28.0046   22.7251 C   0  0  0  0  0  0  0  0  0  0  0  0
  -23.0350  -24.8679   23.3102 C   0  0  0  0  0  0  0  0  0  0  0  0
  -25.1773  -22.2235   23.0566 C   0  0  0  0  0  0  0  0  0  0  0  0
  -32.6371  -19.8527   20.2685 C   0  0  0  0  0  0  0  0  0  0  0  0
  -18.5336  -28.5972   25.9441 C   0  0  0  0  0  0  0  0  0  0  0  0
  -23.1520  -27.1894   20.4448 C   0  0  0  0  0  0  0  0  0  0  0  0
  -24.9999  -26.2608   22.5586 C   0  0  0  0  0  0  0  0  0  0  0  0
  -19.9102  -27.9407   26.0089 C   0  0  0  0  0  0  0  0  0  0  0  0
  -32.8408  -16.5955   18.8449 C   0  0  0  0  0  0  0  0  0  0  0  0
  -32.6768  -28.4673   20.3441 C   0  0  0  0  0  0  0  0  0  0  0  0
  -20.9811  -28.8937   25.4877 C   0  0  0  0  0  0  0  0  0  0  0  0
  -31.4440  -16.0128   19.0716 C   0  0  0  0  0  0  0  0  0  0  0  0
  -31.4697  -29.3337   20.0441 C   0  0  0  0  0  0  0  0  0  0  0  0
  -33.2884  -17.4679   20.0164 C   0  0  0  0  0  0  0  0  0  0  0  0
  -30.9490  -17.9448   20.6237 C   0  0  0  0  0  0  0  0  0  0  0  0
  -32.0919  -27.0757   20.4895 C   0  0  0  0  0  0  0  0  0  0  0  0
  -20.7311  -29.2541   24.0183 C   0  0  1  0  0  0  0  0  0  0  0  0
  -22.6549  -26.8103   21.8364 C   0  0  1  0  0  0  0  0  0  0  0  0
  -30.4282  -17.1114   19.4414 C   0  0  2  0  0  0  0  0  0  0  0  0
  -30.6832  -28.4831   19.0578 C   0  0  2  0  0  0  0  0  0  0  0  0
  -25.3921  -19.7974   23.6610 C   0  0  0  0  0  0  0  0  0  0  0  0
  -23.5961  -25.6419   26.2078 C   0  0  0  0  0  0  0  0  0  0  0  0
  -24.7001  -23.4160   26.5155 C   0  0  0  0  0  0  0  0  0  0  0  0
  -22.2788  -23.5346   25.9273 C   0  0  0  0  0  0  0  0  0  0  0  0
  -25.4090  -21.4174   20.2184 C   0  0  0  0  0  0  0  0  0  0  0  0
  -30.9363  -26.0277   18.5040 C   0  0  0  0  0  0  0  0  0  0  0  0
  -29.2071  -28.8303   18.9975 C   0  0  0  0  0  0  0  0  0  1  0  0
  -24.0096  -24.1051   24.1748 C   0  0  1  0  0  0  0  0  0  0  0  0
  -24.9620  -20.7934   22.5953 C   0  0  2  0  0  0  0  0  0  0  0  0
  -23.6551  -24.1923   25.6861 C   0  0  0  0  0  0  0  0  0  0  0  0
  -28.9550  -15.3074   20.2518 N   0  0  0  0  0  0  0  0  0  0  0  0
  -29.0513  -16.5353   19.7142 N   0  0  0  0  0  0  0  0  0  0  0  0
  -23.5706  -25.9080   22.5374 N   0  0  0  0  0  0  0  0  0  0  0  0
  -32.2790  -18.4884   20.3067 N   0  0  0  0  0  0  0  0  0  0  0  0
  -27.7612  -18.3633   18.9367 N   0  0  0  0  0  0  0  0  0  0  0  0
  -24.6439  -15.3862   20.2841 N   0  0  0  0  0  0  0  0  0  0  0  0
  -31.5868  -20.7320   20.5295 N   0  0  0  0  0  0  0  0  0  0  0  0
  -21.1478  -28.1705   23.1542 N   0  0  0  0  0  0  0  0  0  0  0  0
  -24.0458  -22.7455   23.6470 N   0  0  0  0  0  0  0  0  0  0  0  0
  -30.8730  -27.0662   19.5822 N   0  3  1  0  0  0  0  0  0  0  0  0
  -25.7466  -20.5249   21.3570 N   0  3  0  0  0  0  0  0  0  0  0  0
  -24.9606  -17.4593   19.3562 O   0  0  0  0  0  0  0  0  0  0  0  0
  -23.4052  -28.7216   23.0023 O   0  0  0  0  0  0  0  0  0  0  0  0
  -21.8437  -24.5480   23.3149 O   0  0  0  0  0  0  0  0  0  0  0  0
  -26.2438  -22.8168   22.9115 O   0  0  0  0  0  0  0  0  0  0  0  0
  -33.7844  -20.2150   19.9956 O   0  0  0  0  0  0  0  0  0  0  0  0
  -25.6213  -10.3552   22.4678 O   0  0  0  0  0  0  0  0  0  0  0  0
  -28.6290  -28.6281   20.2863 O   0  0  0  0  0  0  0  0  0  1  0  0
  -21.4230   -7.9488   19.8244 F   0  0  0  0  0  0  0  0  0  0  0  0
  -29.3776  -22.2898   21.2100 F   0  0  0  0  0  0  0  0  0  0  0  0
  -25.8648   -7.7953   21.4528 F   0  0  0  0  0  0  0  0  0  0  0  0
  1  2  1  0  0  0  0
  1  5  2  0  0  0  0
  2  6  2  0  0  0  0
  3 10  2  0  0  0  0
  3 18  1  0  0  0  0
  4 11  1  0  0  0  0
  4 18  2  0  0  0  0
  5 20  1  0  0  0  0
  6 22  1  0  0  0  0
  7 12  2  0  0  0  0
  7 21  1  0  0  0  0
  8  9  2  0  0  0  0
  8 24  1  0  0  0  0
  9 25  1  0  0  0  0
 10 26  1  0  0  0  0
 11 26  2  0  0  0  0
 12 27  1  0  0  0  0
 13 14  2  0  0  0  0
 13 28  1  0  0  0  0
 14 29  1  0  0  0  0
 15 23  1  0  0  0  0
 15 27  2  0  0  0  0
 16 24  2  0  0  0  0
 16 30  1  0  0  0  0
 17 29  2  0  0  0  0
 17 31  1  0  0  0  0
 18 32  1  0  0  0  0
 19 32  1  0  0  0  0
 19 33  2  0  0  0  0
 19 34  1  0  0  0  0
 20 22  2  0  0  0  0
 20 39  1  0  0  0  0
 21 23  2  0  0  0  0
 21 40  1  0  0  0  0
 22 51  1  0  0  0  0
 23 41  1  0  0  0  0
 24 60  1  0  0  0  0
 25 30  2  0  0  0  0
 25 71  1  0  0  0  0
 26 81  1  0  0  0  0
 27 82  1  0  0  0  0
 28 31  2  0  0  0  0
 28 81  1  0  0  0  0
 29 83  1  0  0  0  0
 30 84  1  0  0  0  0
 31 85  1  0  0  0  0
 32 65  2  0  0  0  0
 33 66  1  0  0  0  0
 33 69  1  0  0  0  0
 34 70  1  0  0  0  0
 34 76  2  0  0  0  0
 35 52  1  0  0  0  0
 35 72  1  0  0  0  0
 35 77  2  0  0  0  0
 36 62  1  0  0  0  0
 36 67  1  0  0  0  0
 36 78  2  0  0  0  0
 37 63  1  0  0  0  0
 37 73  1  0  0  0  0
 37 79  2  0  0  0  0
 38 68  1  0  0  0  0
 38 71  1  0  0  0  0
 38 80  2  0  0  0  0
 39 42  1  0  0  0  0
 40 52  1  0  0  0  0
 41 67  1  0  0  0  0
 42 45  1  0  0  0  0
 43 46  1  0  0  0  0
 43 48  1  0  0  0  0
 44 47  1  0  0  0  0
 44 50  1  0  0  0  0
 45 51  1  0  0  0  0
 46 53  1  0  0  0  0
 47 54  1  0  0  0  0
 48 68  1  0  0  0  0
 49 53  1  0  0  0  0
 49 68  1  0  0  0  0
 50 74  1  0  0  0  0
 51 72  1  0  0  0  0
 52 67  1  0  0  0  0
 53 66  1  0  0  0  0
 54 61  1  0  0  0  0
 54 74  1  0  0  0  0
 55 63  1  0  0  0  0
 56 64  1  0  0  0  0
 57 64  1  0  0  0  0
 58 64  1  0  0  0  0
 59 75  1  0  0  0  0
 60 74  1  0  0  0  0
 61 82  1  0  0  0  0
 62 64  1  0  0  0  0
 62 73  1  0  0  0  0
 63 75  1  0  0  0  0
 65 66  1  0  0  0  0
M  CHG  2  74   1  75   1
M  ISO  4  38 100  61 101  71 100  82 101
M  END
> <Batch ID>
0014

> <Smiles>
CNC(C)C(=O)NC(C(=O)N1Cc2cc([101O:1][101CH2:1]C3CCCN3Cc3ccc([100NH:0][100C:0](=O)N4CCCC(n5nc(-c6ccc(Oc7ccc(F)cc7F)cc6)c(C(N)=O)c5N)C4)c(F)c3)ccc2CC1C(=O)NC1CCCc2ccccc21)C(C)(C)C

> <Shape>
0.219

> <Color>
0.078

> <Negative vol penalty>
0.000

$$$$

  -OEChem-04042320513D

 83 91  0     1  0  0  0  0  0999 V2000
  -42.0182  -26.7662   15.3585 C   0  0  0  0  0  0  0  0  0  0  0  0
  -40.7956  -26.8095   16.0209 C   0  0  0  0  0  0  0  0  0  0  0  0
  -23.0785   -9.8621   19.9432 C   0  0  0  0  0  0  0  0  0  0  0  0
  -23.8336   -9.8784   22.2382 C   0  0  0  0  0  0  0  0  0  0  0  0
  -42.2014  -25.8864   14.2925 C   0  0  0  0  0  0  0  0  0  0  0  0
  -39.7550  -25.9739   15.6169 C   0  0  0  0  0  0  0  0  0  0  0  0
  -35.5351  -23.3537   19.1991 C   0  0  0  0  0  0  0  0  0  0  0  0
  -22.3365   -8.7083   20.1956 C   0  0  0  0  0  0  0  0  0  0  0  0
  -23.0915   -8.7246   22.4905 C   0  0  0  0  0  0  0  0  0  0  0  0
  -34.2192  -23.6983   19.5046 C   0  0  0  0  0  0  0  0  0  0  0  0
  -19.3868   -7.9106   21.6434 C   0  0  0  0  0  0  0  0  0  0  0  0
  -18.0811   -7.8601   21.1555 C   0  0  0  0  0  0  0  0  0  0  0  0
  -33.4336  -22.1950   17.7893 C   0  0  0  0  0  0  0  0  0  0  0  0
  -31.1360  -17.7110   20.5902 C   0  0  0  0  0  0  0  0  0  0  0  0
  -29.5015  -17.9016   22.3591 C   0  0  0  0  0  0  0  0  0  0  0  0
  -18.6475   -5.9136   19.8411 C   0  0  0  0  0  0  0  0  0  0  0  0
  -23.8272  -10.4471   20.9645 C   0  0  0  0  0  0  0  0  0  0  0  0
  -24.1641  -12.9725   20.8366 C   0  0  0  0  0  0  0  0  0  0  0  0
  -41.1656  -25.0327   13.8814 C   0  0  0  0  0  0  0  0  0  0  0  0
  -35.8111  -22.4337   18.1774 C   0  0  0  0  0  0  0  0  0  0  0  0
  -39.9240  -25.0829   14.5435 C   0  0  0  0  0  0  0  0  0  0  0  0
  -34.7538  -21.8384   17.4746 C   0  0  0  0  0  0  0  0  0  0  0  0
  -30.2359  -17.1138   21.4727 C   0  0  0  0  0  0  0  0  0  0  0  0
  -22.3429   -8.1395   21.4692 C   0  0  0  0  0  0  0  0  0  0  0  0
  -33.1683  -23.1211   18.7977 C   0  0  0  0  0  0  0  0  0  0  0  0
  -20.3230   -6.9627   21.2300 C   0  0  0  0  0  0  0  0  0  0  0  0
  -30.5675  -19.8838   21.4806 C   0  0  0  0  0  0  0  0  0  0  0  0
  -17.7114   -6.8616   20.2544 C   0  0  0  0  0  0  0  0  0  0  0  0
  -31.3019  -19.0960   20.5942 C   0  0  0  0  0  0  0  0  0  0  0  0
  -29.6673  -19.2866   22.3631 C   0  0  0  0  0  0  0  0  0  0  0  0
  -19.9533   -5.9642   20.3289 C   0  0  0  0  0  0  0  0  0  0  0  0
  -24.5944  -11.6387   20.7043 C   0  0  0  0  0  0  0  0  0  0  0  0
  -25.2555  -13.7230   20.4731 C   0  0  0  0  0  0  0  0  0  0  0  0
  -22.8917  -13.4872   21.2511 C   0  0  0  0  0  0  0  0  0  0  0  0
  -37.3726  -22.5550   15.4114 C   0  0  0  0  0  0  0  0  0  0  0  0
  -36.7934  -19.3634   15.3906 C   0  0  0  0  0  0  0  0  0  0  0  0
  -34.8672  -16.7614   16.4704 C   0  0  0  0  0  0  0  0  0  0  0  0
  -30.7192  -14.7803   20.6557 C   0  0  0  0  0  0  0  0  0  0  0  0
  -41.3954  -24.1323   12.6935 C   0  0  0  0  0  0  0  0  0  0  0  0
  -37.2350  -22.0525   17.8781 C   0  0  0  0  0  0  0  0  0  0  0  0
  -34.9960  -20.8301   16.3822 C   0  0  0  0  0  0  0  0  0  0  0  0
  -40.3637  -23.0142   12.5681 C   0  0  0  0  0  0  0  0  0  0  0  0
  -29.6147  -12.3562   18.2933 C   0  0  0  0  0  0  0  0  0  0  0  0
  -38.9536  -23.5655   12.7541 C   0  0  0  0  0  0  0  0  0  0  0  0
  -28.1747  -12.0631   18.7209 C   0  0  0  0  0  0  0  0  0  0  0  0
  -30.5268  -12.5909   19.4961 C   0  0  0  0  0  0  0  0  0  0  0  0
  -28.6155  -13.3162   20.8709 C   0  0  0  0  0  0  0  0  0  0  0  0
  -38.7792  -24.1745   14.1506 C   0  0  1  0  0  0  0  0  0  0  0  0
  -37.4203  -21.4913   16.4716 C   0  0  1  0  0  0  0  0  0  0  0  0
  -27.6455  -13.1370   19.6916 C   0  0  2  0  0  0  0  0  0  0  0  0
  -34.6158  -14.2739   16.2538 C   0  0  0  0  0  0  0  0  0  0  0  0
  -35.5648  -19.7311   12.6220 C   0  0  0  0  0  0  0  0  0  0  0  0
  -34.5068  -17.4754   12.8685 C   0  0  0  0  0  0  0  0  0  0  0  0
  -36.9919  -17.6921   12.8676 C   0  0  0  0  0  0  0  0  0  0  0  0
  -35.3119  -16.3476   19.3669 C   0  0  0  0  0  0  0  0  0  0  0  0
  -30.1626  -23.4787   20.7851 C   0  0  0  0  0  0  0  0  0  0  0  0
  -31.6025  -23.8276   20.4424 C   0  0  0  0  0  0  0  0  0  1  0  0
  -29.8829  -21.9930   20.6213 C   0  0  0  0  0  0  0  0  0  0  0  0
  -35.6795  -18.4823   14.8789 C   0  0  1  0  0  0  0  0  0  0  0  0
  -35.2360  -15.4091   17.0534 C   0  0  2  0  0  0  0  0  0  0  0  0
  -35.6809  -18.3657   13.3285 C   0  0  0  0  0  0  0  0  0  0  0  0
  -25.8603  -11.5440   20.2890 N   0  0  0  0  0  0  0  0  0  0  0  0
  -26.2349  -12.8279   20.1571 N   0  0  0  0  0  0  0  0  0  0  0  0
  -36.4058  -20.4948   16.1225 N   0  0  0  0  0  0  0  0  0  0  0  0
  -29.9639  -13.6236   20.3688 N   0  0  0  0  0  0  0  0  0  0  0  0
  -25.4634  -15.0546   20.3959 N   0  0  0  0  0  0  0  0  0  0  0  0
  -21.8809  -12.5771   21.5893 N   0  0  0  0  0  0  0  0  0  0  0  0
  -30.0682  -15.7068   21.4696 N   0  0  0  0  0  0  0  0  0  0  0  0
  -38.5982  -23.1318   15.1377 N   0  0  0  0  0  0  0  0  0  0  0  0
  -35.8156  -17.2070   15.5742 N   0  0  0  0  0  0  0  0  0  0  0  0
  -34.7614  -15.3056   18.4623 N   0  3  0  0  0  0  0  0  0  0  0  0
  -22.6528  -14.7175   21.3037 O   0  0  0  0  0  0  0  0  0  0  0  0
  -36.3035  -22.8310   14.8800 O   0  0  0  0  0  0  0  0  0  0  0  0
  -37.9646  -19.0552   15.1560 O   0  0  0  0  0  0  0  0  0  0  0  0
  -33.8386  -17.3605   16.7764 O   0  0  0  0  0  0  0  0  0  0  0  0
  -31.8489  -14.9497   20.1898 O   0  0  0  0  0  0  0  0  0  0  0  0
  -21.6188   -7.0138   21.7159 O   0  0  0  0  0  0  0  0  0  0  0  0
  -31.8829  -23.4563   19.0934 O   0  0  0  0  0  0  0  0  0  1  0  0
  -30.7296  -21.2448   21.4834 O   0  0  0  0  0  0  0  0  0  0  0  0
  -16.4570   -6.8122   19.7872 F   0  0  0  0  0  0  0  0  0  0  0  0
  -32.1688  -19.6642   19.7448 F   0  0  0  0  0  0  0  0  0  0  0  0
  -28.9598  -20.0379   23.2180 F   0  0  0  0  0  0  0  0  0  0  0  0
  -20.8479   -5.0501   19.9291 F   0  0  0  0  0  0  0  0  0  0  0  0
  1  2  1  0  0  0  0
  1  5  2  0  0  0  0
  2  6  2  0  0  0  0
  3  8  2  0  0  0  0
  3 17  1  0  0  0  0
  4  9  1  0  0  0  0
  4 17  2  0  0  0  0
  5 19  1  0  0  0  0
  6 21  1  0  0  0  0
  7 10  2  0  0  0  0
  7 20  1  0  0  0  0
  8 24  1  0  0  0  0
  9 24  2  0  0  0  0
 10 25  1  0  0  0  0
 11 12  2  0  0  0  0
 11 26  1  0  0  0  0
 12 28  1  0  0  0  0
 13 22  1  0  0  0  0
 13 25  2  0  0  0  0
 14 23  1  0  0  0  0
 14 29  2  0  0  0  0
 15 23  2  0  0  0  0
 15 30  1  0  0  0  0
 16 28  2  0  0  0  0
 16 31  1  0  0  0  0
 17 32  1  0  0  0  0
 18 32  1  0  0  0  0
 18 33  2  0  0  0  0
 18 34  1  0  0  0  0
 19 21  2  0  0  0  0
 19 39  1  0  0  0  0
 20 22  2  0  0  0  0
 20 40  1  0  0  0  0
 21 48  1  0  0  0  0
 22 41  1  0  0  0  0
 23 68  1  0  0  0  0
 24 77  1  0  0  0  0
 25 78  1  0  0  0  0
 26 31  2  0  0  0  0
 26 77  1  0  0  0  0
 27 29  1  0  0  0  0
 27 30  2  0  0  0  0
 27 79  1  0  0  0  0
 28 80  1  0  0  0  0
 29 81  1  0  0  0  0
 30 82  1  0  0  0  0
 31 83  1  0  0  0  0
 32 62  2  0  0  0  0
 33 63  1  0  0  0  0
 33 66  1  0  0  0  0
 34 67  1  0  0  0  0
 34 72  2  0  0  0  0
 35 49  1  0  0  0  0
 35 69  1  0  0  0  0
 35 73  2  0  0  0  0
 36 59  1  0  0  0  0
 36 64  1  0  0  0  0
 36 74  2  0  0  0  0
 37 60  1  0  0  0  0
 37 70  1  0  0  0  0
 37 75  2  0  0  0  0
 38 65  1  0  0  0  0
 38 68  1  0  0  0  0
 38 76  2  0  0  0  0
 39 42  1  0  0  0  0
 40 49  1  0  0  0  0
 41 64  1  0  0  0  0
 42 44  1  0  0  0  0
 43 45  1  0  0  0  0
 43 46  1  0  0  0  0
 44 48  1  0  0  0  0
 45 50  1  0  0  0  0
 46 65  1  0  0  0  0
 47 50  1  0  0  0  0
 47 65  1  0  0  0  0
 48 69  1  0  0  0  0
 49 64  1  0  0  0  0
 50 63  1  0  0  0  0
 51 60  1  0  0  0  0
 52 61  1  0  0  0  0
 53 61  1  0  0  0  0
 54 61  1  0  0  0  0
 55 71  1  0  0  0  0
 56 57  1  0  0  0  0
 56 58  1  0  0  0  0
 57 78  1  0  0  0  0
 58 79  1  0  0  0  0
 59 61  1  0  0  0  0
 59 70  1  0  0  0  0
 60 71  1  0  0  0  0
 62 63  1  0  0  0  0
M  CHG  1  71   1
M  ISO  4  38 100  57 101  68 100  78 101
M  END
> <Batch ID>
0014

> <Smiles>
CNC(C)C(=O)NC(C(=O)N1Cc2cc([101O:1][101CH2:1]CCOc3c(F)cc([100NH:0][100C:0](=O)N4CCCC(n5nc(-c6ccc(Oc7ccc(F)cc7F)cc6)c(C(N)=O)c5N)C4)cc3F)ccc2CC1C(=O)NC1CCCc2ccccc21)C(C)(C)C

> <Shape>
0.173

> <Color>
0.196

> <Negative vol penalty>
0.000

$$$$

  -OEChem-04042320513D

 84 92  0     1  0  0  0  0  0999 V2000
  -23.0107  -23.7855   18.5203 C   0  0  0  0  0  0  0  0  0  0  0  0
  -23.9679  -22.7864   18.3845 C   0  0  0  0  0  0  0  0  0  0  0  0
  -26.1994  -26.5322   22.6093 C   0  0  0  0  0  0  0  0  0  0  0  0
  -24.2579  -25.9215   21.3074 C   0  0  0  0  0  0  0  0  0  0  0  0
  -21.9525  -23.6152   19.4105 C   0  0  0  0  0  0  0  0  0  0  0  0
  -23.8607  -21.6117   19.1298 C   0  0  0  0  0  0  0  0  0  0  0  0
  -27.0549  -18.0138   18.1026 C   0  0  0  0  0  0  0  0  0  0  0  0
  -32.4212  -21.3474   18.8117 C   0  0  0  0  0  0  0  0  0  0  0  0
  -32.2458  -22.5201   18.0770 C   0  0  0  0  0  0  0  0  0  0  0  0
  -25.4867  -27.5885   23.1767 C   0  0  0  0  0  0  0  0  0  0  0  0
  -23.5452  -26.9778   21.8748 C   0  0  0  0  0  0  0  0  0  0  0  0
  -28.4046  -18.0837   18.4450 C   0  0  0  0  0  0  0  0  0  0  0  0
  -24.2879  -30.6652   24.7000 C   0  0  0  0  0  0  0  0  0  0  0  0
  -24.9237  -31.9032   24.7919 C   0  0  0  0  0  0  0  0  0  0  0  0
  -28.0104  -16.5719   20.2830 C   0  0  0  0  0  0  0  0  0  0  0  0
  -32.7073  -23.8283   20.0551 C   0  0  0  0  0  0  0  0  0  0  0  0
  -25.1757  -31.9522   22.3895 C   0  0  0  0  0  0  0  0  0  0  0  0
  -25.5850  -25.6987   21.6746 C   0  0  0  0  0  0  0  0  0  0  0  0
  -26.4129  -23.2881   21.5691 C   0  0  0  0  0  0  0  0  0  0  0  0
  -21.8399  -22.4428   20.1759 C   0  0  0  0  0  0  0  0  0  0  0  0
  -26.1693  -17.2297   18.8557 C   0  0  0  0  0  0  0  0  0  0  0  0
  -22.7868  -21.4109   20.0159 C   0  0  0  0  0  0  0  0  0  0  0  0
  -26.6505  -16.4917   19.9466 C   0  0  0  0  0  0  0  0  0  0  0  0
  -32.7395  -21.4151   20.1681 C   0  0  0  0  0  0  0  0  0  0  0  0
  -32.3889  -23.7605   18.6987 C   0  0  0  0  0  0  0  0  0  0  0  0
  -24.1596  -27.8113   22.8095 C   0  0  0  0  0  0  0  0  0  0  0  0
  -28.8820  -17.3650   19.5370 C   0  0  0  0  0  0  0  0  0  0  0  0
  -24.0959  -30.0706   23.4528 C   0  0  0  0  0  0  0  0  0  0  0  0
  -25.3676  -32.5468   23.6367 C   0  0  0  0  0  0  0  0  0  0  0  0
  -32.8826  -22.6556   20.7898 C   0  0  0  0  0  0  0  0  0  0  0  0
  -24.5398  -30.7141   22.2976 C   0  0  0  0  0  0  0  0  0  0  0  0
  -26.3209  -24.6078   21.0877 C   0  0  0  0  0  0  0  0  0  0  0  0
  -27.2214  -22.6474   20.6623 C   0  0  0  0  0  0  0  0  0  0  0  0
  -25.8204  -22.6945   22.7320 C   0  0  0  0  0  0  0  0  0  0  0  0
  -23.5786  -17.8200   20.6003 C   0  0  0  0  0  0  0  0  0  0  0  0
  -23.4437  -14.5844   20.7875 C   0  0  0  0  0  0  0  0  0  0  0  0
  -25.0955  -11.6020   20.6325 C   0  0  0  0  0  0  0  0  0  0  0  0
  -31.3391  -25.0687   16.8339 C   0  0  0  0  0  0  0  0  0  0  0  0
  -20.6700  -22.3076   21.1184 C   0  0  0  0  0  0  0  0  0  0  0  0
  -24.7214  -17.1438   18.4572 C   0  0  0  0  0  0  0  0  0  0  0  0
  -25.7447  -15.6192   20.7752 C   0  0  0  0  0  0  0  0  0  0  0  0
  -20.8831  -21.2334   22.1801 C   0  0  0  0  0  0  0  0  0  0  0  0
  -28.5576  -22.7494   16.0741 C   0  0  0  0  0  0  0  0  0  0  0  0
  -21.3504  -19.9417   21.5261 C   0  0  0  0  0  0  0  0  0  0  0  0
  -27.6360  -22.9181   17.2805 C   0  0  0  0  0  0  0  0  0  0  0  0
  -29.3575  -24.0173   15.7907 C   0  0  0  0  0  0  0  0  0  0  0  0
  -29.2175  -24.6723   18.1767 C   0  0  0  0  0  0  0  0  0  0  0  0
  -22.7076  -20.1376   20.8386 C   0  0  1  0  0  0  0  0  0  0  0  0
  -23.8101  -16.7188   19.6045 C   0  0  1  0  0  0  0  0  0  0  0  0
  -28.4304  -23.3954   18.5074 C   0  0  1  0  0  0  0  0  0  0  0  0
  -24.7255   -9.1309   20.8647 C   0  0  0  0  0  0  0  0  0  0  0  0
  -23.3236  -14.8898   23.8210 C   0  0  0  0  0  0  0  0  0  0  0  0
  -23.9104  -12.4640   24.0187 C   0  0  0  0  0  0  0  0  0  0  0  0
  -21.7944  -13.1453   22.8868 C   0  0  0  0  0  0  0  0  0  0  0  0
  -33.1453  -26.0696   18.1634 C   0  0  0  0  0  0  0  0  0  0  0  0
  -25.9456  -11.0953   17.8433 C   0  0  0  0  0  0  0  0  0  0  0  0
  -30.8832  -20.1706   22.3733 C   0  0  0  0  0  0  0  0  0  0  0  0
  -32.9292  -20.1514   20.9541 C   0  0  0  0  0  0  0  0  0  0  0  0
  -31.8139  -18.0088   21.5594 C   0  0  0  0  0  0  0  0  0  0  0  0
  -30.5253  -17.2711   21.2536 C   0  0  0  0  0  0  0  0  0  1  0  0
  -24.0048  -13.5435   21.7259 C   0  0  1  0  0  0  0  0  0  0  0  0
  -24.7742  -10.3092   19.9046 C   0  0  2  0  0  0  0  0  0  0  0  0
  -23.2753  -13.5285   23.0988 C   0  0  0  0  0  0  0  0  0  0  0  0
  -27.0156  -24.7958   19.9625 N   0  0  0  0  0  0  0  0  0  0  0  0
  -27.5520  -23.5859   19.7294 N   0  0  0  0  0  0  0  0  0  0  0  0
  -24.3361  -15.5731   20.3495 N   0  0  0  0  0  0  0  0  0  0  0  0
  -30.0604  -24.4936   16.9831 N   0  0  0  0  0  0  0  0  0  0  0  0
  -27.6749  -21.3786   20.5800 N   0  0  0  0  0  0  0  0  0  0  0  0
  -25.0173  -23.4953   23.5554 N   0  0  0  0  0  0  0  0  0  0  0  0
  -23.0158  -18.9596   20.0581 N   0  0  0  0  0  0  0  0  0  0  0  0
  -23.9519  -12.2750   21.0073 N   0  0  0  0  0  0  0  0  0  0  0  0
  -32.2056  -24.9732   17.9395 N   0  0  0  0  0  0  0  0  0  0  0  0
  -25.8070  -10.0282   18.8676 N   0  3  0  0  0  0  0  0  0  0  0  0
  -31.6302  -19.4545   21.2755 N   0  3  1  0  0  0  0  0  0  0  0  0
  -26.0112  -21.4937   23.0408 O   0  0  0  0  0  0  0  0  0  0  0  0
  -23.8863  -17.6478   21.7739 O   0  0  0  0  0  0  0  0  0  0  0  0
  -22.2592  -14.5183   20.4496 O   0  0  0  0  0  0  0  0  0  0  0  0
  -26.2460  -11.9755   20.8504 O   0  0  0  0  0  0  0  0  0  0  0  0
  -31.6680  -25.6751   15.8069 O   0  0  0  0  0  0  0  0  0  0  0  0
  -23.4638  -28.8417   23.3631 O   0  0  0  0  0  0  0  0  0  0  0  0
  -30.1988  -17.4320   19.8738 O   0  0  0  0  0  0  0  0  0  1  0  0
  -25.9768  -33.7364   23.7250 F   0  0  0  0  0  0  0  0  0  0  0  0
  -33.1884  -22.7308   22.0925 F   0  0  0  0  0  0  0  0  0  0  0  0
  -24.3572  -30.1484   21.0966 F   0  0  0  0  0  0  0  0  0  0  0  0
  1  2  1  0  0  0  0
  1  5  2  0  0  0  0
  2  6  2  0  0  0  0
  3 10  2  0  0  0  0
  3 18  1  0  0  0  0
  4 11  1  0  0  0  0
  4 18  2  0  0  0  0
  5 20  1  0  0  0  0
  6 22  1  0  0  0  0
  7 12  2  0  0  0  0
  7 21  1  0  0  0  0
  8  9  2  0  0  0  0
  8 24  1  0  0  0  0
  9 25  1  0  0  0  0
 10 26  1  0  0  0  0
 11 26  2  0  0  0  0
 12 27  1  0  0  0  0
 13 14  2  0  0  0  0
 13 28  1  0  0  0  0
 14 29  1  0  0  0  0
 15 23  1  0  0  0  0
 15 27  2  0  0  0  0
 16 25  2  0  0  0  0
 16 30  1  0  0  0  0
 17 29  2  0  0  0  0
 17 31  1  0  0  0  0
 18 32  1  0  0  0  0
 19 32  1  0  0  0  0
 19 33  2  0  0  0  0
 19 34  1  0  0  0  0
 20 22  2  0  0  0  0
 20 39  1  0  0  0  0
 21 23  2  0  0  0  0
 21 40  1  0  0  0  0
 22 48  1  0  0  0  0
 23 41  1  0  0  0  0
 24 30  2  0  0  0  0
 24 58  1  0  0  0  0
 25 72  1  0  0  0  0
 26 80  1  0  0  0  0
 27 81  1  0  0  0  0
 28 31  2  0  0  0  0
 28 80  1  0  0  0  0
 29 82  1  0  0  0  0
 30 83  1  0  0  0  0
 31 84  1  0  0  0  0
 32 64  2  0  0  0  0
 33 65  1  0  0  0  0
 33 68  1  0  0  0  0
 34 69  1  0  0  0  0
 34 75  2  0  0  0  0
 35 49  1  0  0  0  0
 35 70  1  0  0  0  0
 35 76  2  0  0  0  0
 36 61  1  0  0  0  0
 36 66  1  0  0  0  0
 36 77  2  0  0  0  0
 37 62  1  0  0  0  0
 37 71  1  0  0  0  0
 37 78  2  0  0  0  0
 38 67  1  0  0  0  0
 38 72  1  0  0  0  0
 38 79  2  0  0  0  0
 39 42  1  0  0  0  0
 40 49  1  0  0  0  0
 41 66  1  0  0  0  0
 42 44  1  0  0  0  0
 43 45  1  0  0  0  0
 43 46  1  0  0  0  0
 44 48  1  0  0  0  0
 45 50  1  0  0  0  0
 46 67  1  0  0  0  0
 47 50  1  0  0  0  0
 47 67  1  0  0  0  0
 48 70  1  0  0  0  0
 49 66  1  0  0  0  0
 50 65  1  0  0  0  0
 51 62  1  0  0  0  0
 52 63  1  0  0  0  0
 53 63  1  0  0  0  0
 54 63  1  0  0  0  0
 55 72  1  0  0  0  0
 56 73  1  0  0  0  0
 57 74  1  0  0  0  0
 58 74  1  0  0  0  0
 59 60  1  0  0  0  0
 59 74  1  0  0  0  0
 60 81  1  0  0  0  0
 61 63  1  0  0  0  0
 61 71  1  0  0  0  0
 62 73  1  0  0  0  0
 64 65  1  0  0  0  0
M  CHG  2  73   1  74   1
M  ISO  4  38 100  60 101  72 100  81 101
M  END
> <Batch ID>
0014

> <Smiles>
CNC(C)C(=O)NC(C(=O)N1Cc2cc([101O:1][101CH2:1]CN(C)Cc3ccc([100N:0](C)[100C:0](=O)N4CCCC(n5nc(-c6ccc(Oc7ccc(F)cc7F)cc6)c(C(N)=O)c5N)C4)cc3F)ccc2CC1C(=O)NC1CCCc2ccccc21)C(C)(C)C

> <Shape>
0.168

> <Color>
0.071

> <Negative vol penalty>
0.000

$$$$
