
  -OEChem-04042320543D

 89 98  0     1  0  0  0  0  0999 V2000
  -16.5464  -27.0586   22.3088 C   0  0  0  0  0  0  0  0  0  0  0  0
  -17.3469  -27.2293   21.1839 C   0  0  0  0  0  0  0  0  0  0  0  0
  -26.9457  -13.4550   20.1800 C   0  0  0  0  0  0  0  0  0  0  0  0
  -24.9950  -13.9425   21.5194 C   0  0  0  0  0  0  0  0  0  0  0  0
  -16.6778  -27.9238   23.3943 C   0  0  0  0  0  0  0  0  0  0  0  0
  -18.2786  -28.2660   21.1434 C   0  0  0  0  0  0  0  0  0  0  0  0
  -25.2904  -26.9154   20.1939 C   0  0  0  0  0  0  0  0  0  0  0  0
  -29.2214  -22.3630   21.3025 C   0  0  0  0  0  0  0  0  0  0  0  0
  -30.1123  -23.2612   21.8900 C   0  0  0  0  0  0  0  0  0  0  0  0
  -26.3045  -12.3333   19.6544 C   0  0  0  0  0  0  0  0  0  0  0  0
  -24.3538  -12.8208   20.9939 C   0  0  0  0  0  0  0  0  0  0  0  0
  -26.6206  -26.7542   19.8056 C   0  0  0  0  0  0  0  0  0  0  0  0
  -24.3985   -9.4739   21.4706 C   0  0  0  0  0  0  0  0  0  0  0  0
  -23.7198   -8.6398   22.3590 C   0  0  0  0  0  0  0  0  0  0  0  0
  -26.9933  -29.1302   20.0577 C   0  0  0  0  0  0  0  0  0  0  0  0
  -21.6584   -9.0468   21.1664 C   0  0  0  0  0  0  0  0  0  0  0  0
  -26.2910  -14.2596   21.1125 C   0  0  0  0  0  0  0  0  0  0  0  0
  -28.1558  -15.4450   22.3872 C   0  0  0  0  0  0  0  0  0  0  0  0
  -17.6182  -28.9657   23.3709 C   0  0  0  0  0  0  0  0  0  0  0  0
  -24.8101  -28.1839   20.5308 C   0  0  0  0  0  0  0  0  0  0  0  0
  -18.4217  -29.1467   22.2290 C   0  0  0  0  0  0  0  0  0  0  0  0
  -25.6652  -29.2960   20.4594 C   0  0  0  0  0  0  0  0  0  0  0  0
  -29.4354  -21.9218   19.9966 C   0  0  0  0  0  0  0  0  0  0  0  0
  -31.2171  -23.7184   21.1716 C   0  0  0  0  0  0  0  0  0  0  0  0
  -25.0085  -12.0162   20.0613 C   0  0  0  0  0  0  0  0  0  0  0  0
  -27.4698  -27.8589   19.7374 C   0  0  0  0  0  0  0  0  0  0  0  0
  -23.7071  -10.0946   20.4302 C   0  0  0  0  0  0  0  0  0  0  0  0
  -22.3498   -8.4262   22.2069 C   0  0  0  0  0  0  0  0  0  0  0  0
  -22.3371   -9.8810   20.2780 C   0  0  0  0  0  0  0  0  0  0  0  0
  -30.5402  -22.3790   19.2782 C   0  0  0  0  0  0  0  0  0  0  0  0
  -31.4310  -23.2773   19.8657 C   0  0  0  0  0  0  0  0  0  0  0  0
  -26.9530  -15.4181   21.6562 C   0  0  0  0  0  0  0  0  0  0  0  0
  -28.3550  -16.7739   22.6718 C   0  0  0  0  0  0  0  0  0  0  0  0
  -29.0162  -14.3654   22.7743 C   0  0  0  0  0  0  0  0  0  0  0  0
  -21.9048  -30.2558   21.6893 C   0  0  0  0  0  0  0  0  0  0  0  0
  -24.3891  -31.3109   23.1471 C   0  0  0  0  0  0  0  0  0  0  0  0
  -27.2826  -31.8962   24.8567 C   0  0  0  0  0  0  0  0  0  0  0  0
  -26.0848  -21.6705   19.7722 C   0  0  0  0  0  0  0  0  0  0  0  0
  -17.6910  -29.9045   24.5491 C   0  0  0  0  0  0  0  0  0  0  0  0
  -23.3685  -28.4137   20.8952 C   0  0  0  0  0  0  0  0  0  0  0  0
  -25.0958  -30.6466   20.7977 C   0  0  0  0  0  0  0  0  0  0  0  0
  -18.9627  -30.7485   24.5777 C   0  0  0  0  0  0  0  0  0  0  0  0
  -25.9815  -20.8600   23.3825 C   0  0  0  0  0  0  0  0  0  0  0  0
  -33.4578  -28.1469   20.8186 C   0  0  0  0  0  0  0  0  0  0  0  0
  -19.2385  -31.3452   23.2013 C   0  0  0  0  0  0  0  0  0  0  0  0
  -32.1240  -28.8555   20.6069 C   0  0  0  0  0  0  0  0  0  0  0  0
  -26.2520  -19.3564   23.3942 C   0  0  0  0  0  0  0  0  0  0  0  0
  -25.3101  -21.3054   22.0869 C   0  0  0  0  0  0  0  0  0  0  0  0
  -26.3198  -19.4047   20.8696 C   0  0  0  0  0  0  0  0  0  0  0  0
  -33.3057  -26.9017   21.6788 C   0  0  0  0  0  0  0  0  0  0  0  0
  -30.9288  -26.6526   20.9114 C   0  0  0  0  0  0  0  0  0  0  0  0
  -19.4611  -30.2444   22.1572 C   0  0  1  0  0  0  0  0  0  0  0  0
  -23.1819  -29.5143   21.9549 C   0  0  1  0  0  0  0  0  0  0  0  0
  -31.0685  -27.9007   20.0380 C   0  0  1  0  0  0  0  0  0  0  0  0
  -27.0381  -18.9307   22.1419 C   0  0  2  0  0  0  0  0  0  0  0  0
  -28.2499  -33.3641   26.6474 C   0  0  0  0  0  0  0  0  0  0  0  0
  -24.5453  -33.6223   21.1629 C   0  0  0  0  0  0  0  0  0  0  0  0
  -26.2998  -34.6590   22.6173 C   0  0  0  0  0  0  0  0  0  0  0  0
  -23.9984  -34.2957   23.5085 C   0  0  0  0  0  0  0  0  0  0  0  0
  -27.3151  -22.4437   17.7802 C   0  0  0  0  0  0  0  0  0  0  0  0
  -27.8818  -29.5776   26.5955 C   0  0  0  0  0  0  0  0  0  0  0  0
  -28.4806  -20.9619   19.3712 C   0  0  0  0  0  0  0  0  0  0  0  0
  -32.1731  -24.6850   21.8061 C   0  0  0  0  0  0  0  0  0  0  0  0
  -29.7213  -28.6080   19.9029 C   0  0  0  0  0  0  0  0  0  1  0  0
  -25.5206  -32.3074   23.1594 C   0  0  1  0  0  0  0  0  0  0  0  0
  -27.5638  -32.0419   26.3413 C   0  0  2  0  0  0  0  0  0  0  0  0
  -25.0945  -33.6948   22.6017 C   0  0  0  0  0  0  0  0  0  0  0  0
  -26.4251  -16.6333   21.4871 N   0  0  0  0  0  0  0  0  0  0  0  0
  -27.3003  -17.4363   22.1159 N   0  0  0  0  0  0  0  0  0  0  0  0
  -24.2333  -30.5451   21.9853 N   0  0  0  0  0  0  0  0  0  0  0  0
  -26.0547  -20.8506   20.9122 N   0  0  0  0  0  0  0  0  0  0  0  0
  -29.3277  -17.4286   23.3408 N   0  0  0  0  0  0  0  0  0  0  0  0
  -28.7829  -13.7327   24.0030 N   0  0  0  0  0  0  0  0  0  0  0  0
  -20.7922  -29.6905   22.2827 N   0  0  0  0  0  0  0  0  0  0  0  0
  -26.0193  -32.3419   24.5300 N   0  0  0  0  0  0  0  0  0  0  0  0
  -27.2319  -21.6042   18.9668 N   0  0  0  0  0  0  0  0  0  0  0  0
  -32.2770  -25.9869   21.0598 N   0  3  2  0  0  0  0  0  0  0  0  0
  -28.4438  -30.9355   26.8128 N   0  3  0  0  0  0  0  0  0  0  0  0
  -29.9738  -13.9840   22.0595 O   0  0  0  0  0  0  0  0  0  0  0  0
  -21.9260  -31.2676   20.9982 O   0  0  0  0  0  0  0  0  0  0  0  0
  -23.6582  -31.2160   24.1371 O   0  0  0  0  0  0  0  0  0  0  0  0
  -28.1030  -31.4367   24.0653 O   0  0  0  0  0  0  0  0  0  0  0  0
  -25.1444  -22.4261   19.4954 O   0  0  0  0  0  0  0  0  0  0  0  0
  -24.3825  -10.9218   19.5485 O   0  0  0  0  0  0  0  0  0  0  0  0
  -28.7685  -27.6937   19.3619 O   0  0  0  0  0  0  0  0  0  1  0  0
  -21.6985   -7.6239   23.0591 F   0  0  0  0  0  0  0  0  0  0  0  0
  -21.6678  -10.4735   19.2797 F   0  0  0  0  0  0  0  0  0  0  0  0
  -30.7531  -21.9620   18.0223 F   0  0  0  0  0  0  0  0  0  0  0  0
  -32.4891  -23.7121   19.1671 F   0  0  0  0  0  0  0  0  0  0  0  0
  1  2  1  0  0  0  0
  1  5  2  0  0  0  0
  2  6  2  0  0  0  0
  3 10  2  0  0  0  0
  3 17  1  0  0  0  0
  4 11  1  0  0  0  0
  4 17  2  0  0  0  0
  5 19  1  0  0  0  0
  6 21  1  0  0  0  0
  7 12  2  0  0  0  0
  7 20  1  0  0  0  0
  8  9  2  0  0  0  0
  8 23  1  0  0  0  0
  9 24  1  0  0  0  0
 10 25  1  0  0  0  0
 11 25  2  0  0  0  0
 12 26  1  0  0  0  0
 13 14  2  0  0  0  0
 13 27  1  0  0  0  0
 14 28  1  0  0  0  0
 15 22  1  0  0  0  0
 15 26  2  0  0  0  0
 16 28  2  0  0  0  0
 16 29  1  0  0  0  0
 17 32  1  0  0  0  0
 18 32  1  0  0  0  0
 18 33  2  0  0  0  0
 18 34  1  0  0  0  0
 19 21  2  0  0  0  0
 19 39  1  0  0  0  0
 20 22  2  0  0  0  0
 20 40  1  0  0  0  0
 21 52  1  0  0  0  0
 22 41  1  0  0  0  0
 23 30  2  0  0  0  0
 23 62  1  0  0  0  0
 24 31  2  0  0  0  0
 24 63  1  0  0  0  0
 25 84  1  0  0  0  0
 26 85  1  0  0  0  0
 27 29  2  0  0  0  0
 27 84  1  0  0  0  0
 28 86  1  0  0  0  0
 29 87  1  0  0  0  0
 30 31  1  0  0  0  0
 30 88  1  0  0  0  0
 31 89  1  0  0  0  0
 32 68  2  0  0  0  0
 33 69  1  0  0  0  0
 33 72  1  0  0  0  0
 34 73  1  0  0  0  0
 34 79  2  0  0  0  0
 35 53  1  0  0  0  0
 35 74  1  0  0  0  0
 35 80  2  0  0  0  0
 36 65  1  0  0  0  0
 36 70  1  0  0  0  0
 36 81  2  0  0  0  0
 37 66  1  0  0  0  0
 37 75  1  0  0  0  0
 37 82  2  0  0  0  0
 38 71  1  0  0  0  0
 38 76  1  0  0  0  0
 38 83  2  0  0  0  0
 39 42  1  0  0  0  0
 40 53  1  0  0  0  0
 41 70  1  0  0  0  0
 42 45  1  0  0  0  0
 43 47  1  0  0  0  0
 43 48  1  0  0  0  0
 44 46  1  0  0  0  0
 44 50  1  0  0  0  0
 45 52  1  0  0  0  0
 46 54  1  0  0  0  0
 47 55  1  0  0  0  0
 48 71  1  0  0  0  0
 49 55  1  0  0  0  0
 49 71  1  0  0  0  0
 50 77  1  0  0  0  0
 51 54  1  0  0  0  0
 51 77  1  0  0  0  0
 52 74  1  0  0  0  0
 53 70  1  0  0  0  0
 54 64  1  0  0  0  0
 55 69  1  0  0  0  0
 56 66  1  0  0  0  0
 57 67  1  0  0  0  0
 58 67  1  0  0  0  0
 59 67  1  0  0  0  0
 60 76  1  0  0  0  0
 61 78  1  0  0  0  0
 62 76  1  0  0  0  0
 63 77  1  0  0  0  0
 64 85  1  0  0  0  0
 65 67  1  0  0  0  0
 65 75  1  0  0  0  0
 66 78  1  0  0  0  0
 68 69  1  0  0  0  0
M  CHG  2  77   1  78   1
M  ISO  4  38 100  64 101  76 100  85 101
M  END
> <Batch ID>
0015

> <Smiles>
CNC(C)C(=O)NC(C(=O)N1Cc2cc([101O:1][101CH2:1]C3CCCN(Cc4ccc(C[100N:0](C)[100C:0](=O)N5CCCC(n6nc(-c7ccc(Oc8ccc(F)cc8F)cc7)c(C(N)=O)c6N)C5)c(F)c4F)C3)ccc2CC1C(=O)NC1CCCc2ccccc21)C(C)(C)C

> <Shape>
0.333

> <Color>
0.095

> <Negative vol penalty>
0.000

$$$$

  -OEChem-04042320543D

 92100  0     1  0  0  0  0  0999 V2000
  -29.0817  -37.6905   24.3371 C   0  0  0  0  0  0  0  0  0  0  0  0
  -28.8810  -36.7776   25.3675 C   0  0  0  0  0  0  0  0  0  0  0  0
  -26.2882  -11.4531   19.5415 C   0  0  0  0  0  0  0  0  0  0  0  0
  -26.0230  -13.3100   21.0642 C   0  0  0  0  0  0  0  0  0  0  0  0
  -28.0784  -37.9062   23.3932 C   0  0  0  0  0  0  0  0  0  0  0  0
  -27.6764  -36.0808   25.4554 C   0  0  0  0  0  0  0  0  0  0  0  0
  -26.3549  -28.3845   25.6748 C   0  0  0  0  0  0  0  0  0  0  0  0
  -26.8268  -18.5208   20.8804 C   0  0  0  0  0  0  0  0  0  0  0  0
  -28.1117  -18.8386   20.4405 C   0  0  0  0  0  0  0  0  0  0  0  0
  -24.9828  -11.0438   19.8132 C   0  0  0  0  0  0  0  0  0  0  0  0
  -24.7175  -12.9006   21.3359 C   0  0  0  0  0  0  0  0  0  0  0  0
  -25.9852  -27.0441   25.5620 C   0  0  0  0  0  0  0  0  0  0  0  0
  -23.3532   -9.3820   22.2642 C   0  0  0  0  0  0  0  0  0  0  0  0
  -23.1359   -8.0241   22.4973 C   0  0  0  0  0  0  0  0  0  0  0  0
  -23.8604  -27.6990   24.6111 C   0  0  0  0  0  0  0  0  0  0  0  0
  -29.0490  -17.6846   22.3449 C   0  0  0  0  0  0  0  0  0  0  0  0
  -21.6244   -7.9428   20.6142 C   0  0  0  0  0  0  0  0  0  0  0  0
  -26.8084  -12.5862   20.1670 C   0  0  0  0  0  0  0  0  0  0  0  0
  -29.3394  -12.2753   20.0989 C   0  0  0  0  0  0  0  0  0  0  0  0
  -26.8646  -37.2045   23.4640 C   0  0  0  0  0  0  0  0  0  0  0  0
  -25.4839  -29.3880   25.2413 C   0  0  0  0  0  0  0  0  0  0  0  0
  -26.6554  -36.2883   24.5124 C   0  0  0  0  0  0  0  0  0  0  0  0
  -24.2303  -29.0429   24.7100 C   0  0  0  0  0  0  0  0  0  0  0  0
  -26.6529  -17.7850   22.0526 C   0  0  0  0  0  0  0  0  0  0  0  0
  -29.2228  -18.4204   21.1727 C   0  0  0  0  0  0  0  0  0  0  0  0
  -27.7641  -17.3669   22.7848 C   0  0  0  0  0  0  0  0  0  0  0  0
  -24.1974  -11.7675   20.7104 C   0  0  0  0  0  0  0  0  0  0  0  0
  -24.7410  -26.7022   25.0317 C   0  0  0  0  0  0  0  0  0  0  0  0
  -22.7061  -10.0204   21.2062 C   0  0  0  0  0  0  0  0  0  0  0  0
  -22.2716   -7.3044   21.6723 C   0  0  0  0  0  0  0  0  0  0  0  0
  -21.8417   -9.3008   20.3812 C   0  0  0  0  0  0  0  0  0  0  0  0
  -28.1570  -13.0093   19.8871 C   0  0  0  0  0  0  0  0  0  0  0  0
  -30.3432  -13.1114   19.6748 C   0  0  0  0  0  0  0  0  0  0  0  0
  -29.5148  -10.9557   20.6313 C   0  0  0  0  0  0  0  0  0  0  0  0
  -24.8753  -33.0620   24.7864 C   0  0  0  0  0  0  0  0  0  0  0  0
  -23.7713  -31.6602   22.2911 C   0  0  0  0  0  0  0  0  0  0  0  0
  -23.0618  -29.7823   19.5330 C   0  0  0  0  0  0  0  0  0  0  0  0
  -30.8384  -18.9047   19.3433 C   0  0  0  0  0  0  0  0  0  0  0  0
  -25.7915  -37.5061   22.4480 C   0  0  0  0  0  0  0  0  0  0  0  0
  -25.8152  -30.8470   25.4004 C   0  0  0  0  0  0  0  0  0  0  0  0
  -23.3117  -30.1572   24.2886 C   0  0  0  0  0  0  0  0  0  0  0  0
  -24.6886  -36.4520   22.3959 C   0  0  0  0  0  0  0  0  0  0  0  0
  -31.2204  -16.6663   16.6071 C   0  0  0  0  0  0  0  0  0  0  0  0
  -24.2250  -36.0943   23.8044 C   0  0  0  0  0  0  0  0  0  0  0  0
  -30.5772  -15.3960   17.1622 C   0  0  0  0  0  0  0  0  0  0  0  0
  -30.4569  -17.9238   17.0240 C   0  0  0  0  0  0  0  0  0  0  0  0
  -29.6032  -16.7716   19.0410 C   0  0  0  0  0  0  0  0  0  0  0  0
  -25.3719  -35.4949   24.6271 C   0  0  1  0  0  0  0  0  0  0  0  0
  -25.2735  -31.7175   24.2524 C   0  0  1  0  0  0  0  0  0  0  0  0
  -30.3824  -15.4959   18.6854 C   0  0  1  0  0  0  0  0  0  0  0  0
  -22.1361  -29.9685   17.2080 C   0  0  0  0  0  0  0  0  0  0  0  0
  -21.4943  -22.7941   22.7684 C   0  0  0  0  0  0  0  0  0  0  0  0
  -20.9532  -31.8894   23.4355 C   0  0  0  0  0  0  0  0  0  0  0  0
  -20.0685  -31.1246   21.2218 C   0  0  0  0  0  0  0  0  0  0  0  0
  -21.3586  -33.2538   21.3792 C   0  0  0  0  0  0  0  0  0  0  0  0
  -31.5508  -19.1621   21.7100 C   0  0  0  0  0  0  0  0  0  0  0  0
  -27.4879  -17.2968   25.2504 C   0  0  0  0  0  0  0  0  0  0  0  0
  -27.5469  -15.1754   23.9296 C   0  0  0  0  0  0  0  0  0  0  0  0
  -24.5772  -22.2843   20.7651 C   0  0  0  0  0  0  0  0  0  0  0  0
  -25.5860  -28.8178   18.3259 C   0  0  0  0  0  0  0  0  0  0  0  0
  -23.4606  -18.1921   24.0592 C   0  0  0  0  0  0  0  0  0  0  0  0
  -25.2596  -17.4572   22.5023 C   0  0  0  0  0  0  0  0  0  0  0  0
  -23.7807  -23.6043   23.4386 C   0  0  0  0  0  0  0  0  0  0  0  0
  -23.9165  -20.9730   22.6668 C   0  0  0  0  0  0  0  0  0  0  0  0
  -24.0335  -19.5817   22.0736 C   0  0  0  0  0  0  0  0  0  0  0  0
  -23.5053  -25.0459   23.8539 C   0  0  0  0  0  0  0  0  0  1  0  0
  -22.5734  -31.0485   21.6097 C   0  0  1  0  0  0  0  0  0  0  0  0
  -23.3923  -29.9832   18.0651 C   0  0  2  0  0  0  0  0  0  0  0  0
  -22.9045  -23.1167   22.2756 C   0  0  1  0  0  0  0  0  0  0  0  0
  -21.2571  -31.8131   21.9259 C   0  0  0  0  0  0  0  0  0  0  0  0
  -28.3867  -14.2187   19.3689 N   0  0  0  0  0  0  0  0  0  0  0  0
  -29.7251  -14.2511   19.2516 N   0  0  0  0  0  0  0  0  0  0  0  0
  -24.0741  -31.1946   23.5764 N   0  0  0  0  0  0  0  0  0  0  0  0
  -30.2600  -17.9549   18.4802 N   0  0  0  0  0  0  0  0  0  0  0  0
  -31.6854  -12.9756   19.6264 N   0  0  0  0  0  0  0  0  0  0  0  0
  -29.6848  -10.8106   22.0149 N   0  0  0  0  0  0  0  0  0  0  0  0
  -25.5944  -34.1146   24.2532 N   0  0  0  0  0  0  0  0  0  0  0  0
  -22.9005  -30.9841   20.1894 N   0  0  0  0  0  0  0  0  0  0  0  0
  -30.5528  -18.7502   20.7169 N   0  0  0  0  0  0  0  0  0  0  0  0
  -27.6062  -16.6219   23.9743 N   0  0  0  0  0  0  0  0  0  0  0  0
  -23.4693  -21.9219   21.6482 N   0  0  1  0  0  0  0  0  0  0  0  0
  -24.3006  -28.9031   17.5861 N   0  3  0  0  0  0  0  0  0  0  0  0
  -24.5384  -18.6391   23.1023 N   0  3  1  0  0  0  0  0  0  0  0  0
  -29.5370   -9.9368   19.8999 O   0  0  0  0  0  0  0  0  0  0  0  0
  -23.9804  -33.1402   25.6199 O   0  0  0  0  0  0  0  0  0  0  0  0
  -24.4193  -32.5316   21.7044 O   0  0  0  0  0  0  0  0  0  0  0  0
  -22.9536  -28.6703   20.0453 O   0  0  0  0  0  0  0  0  0  0  0  0
  -31.5743  -19.8054   18.9225 O   0  0  0  0  0  0  0  0  0  0  0  0
  -22.9235  -11.3685   20.9757 O   0  0  0  0  0  0  0  0  0  0  0  0
  -24.3883  -25.3915   24.9203 O   0  0  0  0  0  0  0  0  0  1  0  0
  -22.0642   -6.0000   21.8952 F   0  0  0  0  0  0  0  0  0  0  0  0
  -21.2181   -9.9083   19.3625 F   0  0  0  0  0  0  0  0  0  0  0  0
  1  2  1  0  0  0  0
  1  5  2  0  0  0  0
  2  6  2  0  0  0  0
  3 10  2  0  0  0  0
  3 18  1  0  0  0  0
  4 11  1  0  0  0  0
  4 18  2  0  0  0  0
  5 20  1  0  0  0  0
  6 22  1  0  0  0  0
  7 12  2  0  0  0  0
  7 21  1  0  0  0  0
  8  9  2  0  0  0  0
  8 24  1  0  0  0  0
  9 25  1  0  0  0  0
 10 27  1  0  0  0  0
 11 27  2  0  0  0  0
 12 28  1  0  0  0  0
 13 14  2  0  0  0  0
 13 29  1  0  0  0  0
 14 30  1  0  0  0  0
 15 23  1  0  0  0  0
 15 28  2  0  0  0  0
 16 25  2  0  0  0  0
 16 26  1  0  0  0  0
 17 30  2  0  0  0  0
 17 31  1  0  0  0  0
 18 32  1  0  0  0  0
 19 32  1  0  0  0  0
 19 33  2  0  0  0  0
 19 34  1  0  0  0  0
 20 22  2  0  0  0  0
 20 39  1  0  0  0  0
 21 23  2  0  0  0  0
 21 40  1  0  0  0  0
 22 48  1  0  0  0  0
 23 41  1  0  0  0  0
 24 26  2  0  0  0  0
 24 62  1  0  0  0  0
 25 79  1  0  0  0  0
 26 80  1  0  0  0  0
 27 89  1  0  0  0  0
 28 90  1  0  0  0  0
 29 31  2  0  0  0  0
 29 89  1  0  0  0  0
 30 91  1  0  0  0  0
 31 92  1  0  0  0  0
 32 71  2  0  0  0  0
 33 72  1  0  0  0  0
 33 75  1  0  0  0  0
 34 76  1  0  0  0  0
 34 84  2  0  0  0  0
 35 49  1  0  0  0  0
 35 77  1  0  0  0  0
 35 85  2  0  0  0  0
 36 67  1  0  0  0  0
 36 73  1  0  0  0  0
 36 86  2  0  0  0  0
 37 68  1  0  0  0  0
 37 78  1  0  0  0  0
 37 87  2  0  0  0  0
 38 74  1  0  0  0  0
 38 79  1  0  0  0  0
 38 88  2  0  0  0  0
 39 42  1  0  0  0  0
 40 49  1  0  0  0  0
 41 73  1  0  0  0  0
 42 44  1  0  0  0  0
 43 45  1  0  0  0  0
 43 46  1  0  0  0  0
 44 48  1  0  0  0  0
 45 50  1  0  0  0  0
 46 74  1  0  0  0  0
 47 50  1  0  0  0  0
 47 74  1  0  0  0  0
 48 77  1  0  0  0  0
 49 73  1  0  0  0  0
 50 72  1  0  0  0  0
 51 68  1  0  0  0  0
 52 69  1  0  0  0  0
 53 70  1  0  0  0  0
 54 70  1  0  0  0  0
 55 70  1  0  0  0  0
 56 79  1  0  0  0  0
 57 80  1  0  0  0  0
 58 80  1  0  0  0  0
 59 81  1  0  0  0  0
 60 82  1  0  0  0  0
 61 83  1  0  0  0  0
 62 83  1  0  0  0  0
 63 66  1  0  0  0  0
 63 69  1  0  0  0  0
 64 65  1  0  0  0  0
 64 81  1  0  0  0  0
 65 83  1  0  0  0  0
 66 90  1  0  0  0  0
 67 70  1  0  0  0  0
 67 78  1  0  0  0  0
 68 82  1  0  0  0  0
 69 81  1  0  0  0  0
 71 72  1  0  0  0  0
M  CHG  2  82   1  83   1
M  ISO  4  38 100  66 101  79 100  90 101
M  END
> <Batch ID>
0015

> <Smiles>
CNC(C)C(=O)NC(C(=O)N1Cc2cc([101O:1][101CH2:1]CC(C)N(C)CCN(C)Cc3ccc([100N:0](C)[100C:0](=O)N4CCCC(n5nc(-c6ccc(Oc7ccc(F)cc7F)cc6)c(C(N)=O)c5N)C4)cc3N(C)C)ccc2CC1C(=O)NC1CCCc2ccccc21)C(C)(C)C

> <Shape>
0.277

> <Color>
0.053

> <Negative vol penalty>
0.000

$$$$

  -OEChem-04042320543D

 83 91  0     1  0  0  0  0  0999 V2000
  -26.8598  -19.1699   17.8141 C   0  0  0  0  0  0  0  0  0  0  0  0
  -27.5548  -19.5668   18.9520 C   0  0  0  0  0  0  0  0  0  0  0  0
  -23.0835   -9.9116   19.8944 C   0  0  0  0  0  0  0  0  0  0  0  0
  -23.8455   -9.8531   22.1863 C   0  0  0  0  0  0  0  0  0  0  0  0
  -27.0585  -19.8404   16.6080 C   0  0  0  0  0  0  0  0  0  0  0  0
  -28.4499  -20.6339   18.8841 C   0  0  0  0  0  0  0  0  0  0  0  0
  -27.9549  -23.8356   22.7763 C   0  0  0  0  0  0  0  0  0  0  0  0
  -30.3569  -18.3489   24.2730 C   0  0  0  0  0  0  0  0  0  0  0  0
  -32.5522  -17.5516   23.6549 C   0  0  0  0  0  0  0  0  0  0  0  0
  -29.7810  -17.4873   23.3394 C   0  0  0  0  0  0  0  0  0  0  0  0
  -31.9763  -16.6899   22.7213 C   0  0  0  0  0  0  0  0  0  0  0  0
  -22.3564   -8.7403   20.1062 C   0  0  0  0  0  0  0  0  0  0  0  0
  -23.1184   -8.6818   22.3982 C   0  0  0  0  0  0  0  0  0  0  0  0
  -28.5171  -23.4508   23.9927 C   0  0  0  0  0  0  0  0  0  0  0  0
  -23.4560   -5.3847   21.7304 C   0  0  0  0  0  0  0  0  0  0  0  0
  -24.0868   -4.3450   22.4135 C   0  0  0  0  0  0  0  0  0  0  0  0
  -30.4222  -24.8636   23.5522 C   0  0  0  0  0  0  0  0  0  0  0  0
  -22.3848   -4.4374   24.1257 C   0  0  0  0  0  0  0  0  0  0  0  0
  -23.8281  -10.4680   20.9344 C   0  0  0  0  0  0  0  0  0  0  0  0
  -24.1338  -13.0004   20.8983 C   0  0  0  0  0  0  0  0  0  0  0  0
  -27.9493  -20.9224   16.5275 C   0  0  0  0  0  0  0  0  0  0  0  0
  -28.6284  -24.7304   21.9323 C   0  0  0  0  0  0  0  0  0  0  0  0
  -28.6618  -21.3187   17.6754 C   0  0  0  0  0  0  0  0  0  0  0  0
  -29.8652  -25.2601   22.3268 C   0  0  0  0  0  0  0  0  0  0  0  0
  -31.7424  -18.3811   24.4307 C   0  0  0  0  0  0  0  0  0  0  0  0
  -30.5907  -16.6578   22.5636 C   0  0  0  0  0  0  0  0  0  0  0  0
  -22.3738   -8.1254   21.3581 C   0  0  0  0  0  0  0  0  0  0  0  0
  -29.7523  -23.9626   24.3795 C   0  0  0  0  0  0  0  0  0  0  0  0
  -22.2897   -5.9509   22.2450 C   0  0  0  0  0  0  0  0  0  0  0  0
  -23.5512   -3.8713   23.6111 C   0  0  0  0  0  0  0  0  0  0  0  0
  -21.7541   -5.4772   23.4426 C   0  0  0  0  0  0  0  0  0  0  0  0
  -24.5799  -11.6777   20.7161 C   0  0  0  0  0  0  0  0  0  0  0  0
  -25.2148  -13.7771   20.5596 C   0  0  0  0  0  0  0  0  0  0  0  0
  -22.8566  -13.4838   21.3349 C   0  0  0  0  0  0  0  0  0  0  0  0
  -29.8126  -24.5759   18.9865 C   0  0  0  0  0  0  0  0  0  0  0  0
  -30.3507  -27.7401   19.4559 C   0  0  0  0  0  0  0  0  0  0  0  0
  -30.8365  -30.3008   21.6590 C   0  0  0  0  0  0  0  0  0  0  0  0
  -30.6657  -14.8942   20.7662 C   0  0  0  0  0  0  0  0  0  0  0  0
  -28.1664  -21.5861   15.1907 C   0  0  0  0  0  0  0  0  0  0  0  0
  -27.9961  -25.1561   20.6356 C   0  0  0  0  0  0  0  0  0  0  0  0
  -30.6193  -26.2394   21.4661 C   0  0  0  0  0  0  0  0  0  0  0  0
  -28.8524  -22.9461   15.2901 C   0  0  0  0  0  0  0  0  0  0  0  0
  -29.5835  -12.5449   18.3195 C   0  0  0  0  0  0  0  0  0  0  0  0
  -30.0540  -22.8707   16.2268 C   0  0  0  0  0  0  0  0  0  0  0  0
  -28.1486  -12.2186   18.7398 C   0  0  0  0  0  0  0  0  0  0  0  0
  -30.4964  -12.7466   19.5276 C   0  0  0  0  0  0  0  0  0  0  0  0
  -28.5807  -13.3974   20.9332 C   0  0  0  0  0  0  0  0  0  0  0  0
  -29.6228  -22.4874   17.6475 C   0  0  1  0  0  0  0  0  0  0  0  0
  -29.0084  -25.6759   19.6195 C   0  0  1  0  0  0  0  0  0  0  0  0
  -27.6093  -13.2496   19.7508 C   0  0  2  0  0  0  0  0  0  0  0  0
  -31.2881  -32.7678   21.7435 C   0  0  0  0  0  0  0  0  0  0  0  0
  -33.2598  -27.2315   18.6886 C   0  0  0  0  0  0  0  0  0  0  0  0
  -33.8393  -29.4516   19.6903 C   0  0  0  0  0  0  0  0  0  0  0  0
  -32.2836  -29.3313   17.7440 C   0  0  0  0  0  0  0  0  0  0  0  0
  -28.3174  -30.8295   23.1195 C   0  0  0  0  0  0  0  0  0  0  0  0
  -33.4109  -20.9884   23.9262 C   0  0  0  0  0  0  0  0  0  0  0  0
  -32.3617  -19.3080   25.4349 C   0  0  0  0  0  0  0  0  0  0  0  0
  -31.1551  -21.7727   26.8821 C   0  0  0  0  0  0  0  0  0  0  0  0
  -32.4692  -21.6998   26.1192 C   0  0  0  0  0  0  0  0  0  0  0  0
  -29.9878  -22.2818   26.0454 C   0  0  0  0  0  0  0  0  0  1  0  0
  -31.4879  -28.5596   20.0164 C   0  0  1  0  0  0  0  0  0  0  0  0
  -30.2200  -31.6853   21.7461 C   0  0  2  0  0  0  0  0  0  0  0  0
  -32.7046  -28.6236   19.0504 C   0  0  0  0  0  0  0  0  0  0  0  0
  -25.8456  -11.6139   20.2941 N   0  0  0  0  0  0  0  0  0  0  0  0
  -26.2040  -12.9063   20.2084 N   0  0  0  0  0  0  0  0  0  0  0  0
  -29.9626  -26.6201   20.2046 N   0  0  0  0  0  0  0  0  0  0  0  0
  -29.9237  -13.7396   20.4391 N   0  0  0  0  0  0  0  0  0  0  0  0
  -25.4062  -15.1131   20.5309 N   0  0  0  0  0  0  0  0  0  0  0  0
  -21.8580  -12.5496   21.6422 N   0  0  0  0  0  0  0  0  0  0  0  0
  -30.0061  -15.7821   21.6153 N   0  0  0  0  0  0  0  0  0  0  0  0
  -29.0510  -23.6297   18.3277 N   0  0  0  0  0  0  0  0  0  0  0  0
  -30.9245  -29.8621   20.3548 N   0  0  0  0  0  0  0  0  0  0  0  0
  -29.4194  -31.8180   22.9961 N   0  3  0  0  0  0  0  0  0  0  0  0
  -32.3632  -20.7499   24.9870 N   0  3  1  0  0  0  0  0  0  0  0  0
  -22.6028  -14.7083   21.4333 O   0  0  0  0  0  0  0  0  0  0  0  0
  -31.0339  -24.5856   19.0871 O   0  0  0  0  0  0  0  0  0  0  0  0
  -29.8214  -28.0853   18.3965 O   0  0  0  0  0  0  0  0  0  0  0  0
  -31.2067  -29.6730   22.6486 O   0  0  0  0  0  0  0  0  0  0  0  0
  -31.7919  -15.0945   20.3038 O   0  0  0  0  0  0  0  0  0  0  0  0
  -21.6642   -6.9825   21.5652 O   0  0  0  0  0  0  0  0  0  0  0  0
  -30.3035  -23.5882   25.5660 O   0  0  0  0  0  0  0  0  0  1  0  0
  -24.1562   -2.8717   24.2662 F   0  0  0  0  0  0  0  0  0  0  0  0
  -20.6331   -6.0163   23.9413 F   0  0  0  0  0  0  0  0  0  0  0  0
  1  2  1  0  0  0  0
  1  5  2  0  0  0  0
  2  6  2  0  0  0  0
  3 12  2  0  0  0  0
  3 19  1  0  0  0  0
  4 13  1  0  0  0  0
  4 19  2  0  0  0  0
  5 21  1  0  0  0  0
  6 23  1  0  0  0  0
  7 14  2  0  0  0  0
  7 22  1  0  0  0  0
  8 10  2  0  0  0  0
  8 25  1  0  0  0  0
  9 11  1  0  0  0  0
  9 25  2  0  0  0  0
 10 26  1  0  0  0  0
 11 26  2  0  0  0  0
 12 27  1  0  0  0  0
 13 27  2  0  0  0  0
 14 28  1  0  0  0  0
 15 16  2  0  0  0  0
 15 29  1  0  0  0  0
 16 30  1  0  0  0  0
 17 24  1  0  0  0  0
 17 28  2  0  0  0  0
 18 30  2  0  0  0  0
 18 31  1  0  0  0  0
 19 32  1  0  0  0  0
 20 32  1  0  0  0  0
 20 33  2  0  0  0  0
 20 34  1  0  0  0  0
 21 23  2  0  0  0  0
 21 39  1  0  0  0  0
 22 24  2  0  0  0  0
 22 40  1  0  0  0  0
 23 48  1  0  0  0  0
 24 41  1  0  0  0  0
 25 57  1  0  0  0  0
 26 70  1  0  0  0  0
 27 80  1  0  0  0  0
 28 81  1  0  0  0  0
 29 31  2  0  0  0  0
 29 80  1  0  0  0  0
 30 82  1  0  0  0  0
 31 83  1  0  0  0  0
 32 64  2  0  0  0  0
 33 65  1  0  0  0  0
 33 68  1  0  0  0  0
 34 69  1  0  0  0  0
 34 75  2  0  0  0  0
 35 49  1  0  0  0  0
 35 71  1  0  0  0  0
 35 76  2  0  0  0  0
 36 61  1  0  0  0  0
 36 66  1  0  0  0  0
 36 77  2  0  0  0  0
 37 62  1  0  0  0  0
 37 72  1  0  0  0  0
 37 78  2  0  0  0  0
 38 67  1  0  0  0  0
 38 70  1  0  0  0  0
 38 79  2  0  0  0  0
 39 42  1  0  0  0  0
 40 49  1  0  0  0  0
 41 66  1  0  0  0  0
 42 44  1  0  0  0  0
 43 45  1  0  0  0  0
 43 46  1  0  0  0  0
 44 48  1  0  0  0  0
 45 50  1  0  0  0  0
 46 67  1  0  0  0  0
 47 50  1  0  0  0  0
 47 67  1  0  0  0  0
 48 71  1  0  0  0  0
 49 66  1  0  0  0  0
 50 65  1  0  0  0  0
 51 62  1  0  0  0  0
 52 63  1  0  0  0  0
 53 63  1  0  0  0  0
 54 63  1  0  0  0  0
 55 73  1  0  0  0  0
 56 74  1  0  0  0  0
 57 74  1  0  0  0  0
 58 59  1  0  0  0  0
 58 60  1  0  0  0  0
 59 74  1  0  0  0  0
 60 81  1  0  0  0  0
 61 63  1  0  0  0  0
 61 72  1  0  0  0  0
 62 73  1  0  0  0  0
 64 65  1  0  0  0  0
M  CHG  2  73   1  74   1
M  ISO  4  38 100  60 101  70 100  81 101
M  END
> <Batch ID>
0015

> <Smiles>
CNC(C)C(=O)NC(C(=O)N1Cc2cc([101O:1][101CH2:1]CCN(C)Cc3ccc([100NH:0][100C:0](=O)N4CCCC(n5nc(-c6ccc(Oc7ccc(F)cc7F)cc6)c(C(N)=O)c5N)C4)cc3)ccc2CC1C(=O)NC1CCCc2ccccc21)C(C)(C)C

> <Shape>
0.252

> <Color>
0.203

> <Negative vol penalty>
0.000

$$$$

  -OEChem-04042320543D

 87 95  0     1  0  0  0  0  0999 V2000
  -26.0462  -37.4907   18.0120 C   0  0  0  0  0  0  0  0  0  0  0  0
  -26.5271  -36.2081   17.7690 C   0  0  0  0  0  0  0  0  0  0  0  0
  -27.0820  -13.6036   20.8355 C   0  0  0  0  0  0  0  0  0  0  0  0
  -24.8197  -14.1009   21.5224 C   0  0  0  0  0  0  0  0  0  0  0  0
  -25.7484  -37.8870   19.3152 C   0  0  0  0  0  0  0  0  0  0  0  0
  -26.7116  -35.3214   18.8292 C   0  0  0  0  0  0  0  0  0  0  0  0
  -25.9022  -29.2516   18.7355 C   0  0  0  0  0  0  0  0  0  0  0  0
  -30.3896  -19.4160   18.9045 C   0  0  0  0  0  0  0  0  0  0  0  0
  -30.9369  -18.3476   19.6149 C   0  0  0  0  0  0  0  0  0  0  0  0
  -26.8756  -12.2562   21.1313 C   0  0  0  0  0  0  0  0  0  0  0  0
  -24.6133  -12.7535   21.8181 C   0  0  0  0  0  0  0  0  0  0  0  0
  -26.7932  -28.1886   18.5949 C   0  0  0  0  0  0  0  0  0  0  0  0
  -23.9488   -9.9065   20.1230 C   0  0  0  0  0  0  0  0  0  0  0  0
  -22.7570   -9.3248   19.6907 C   0  0  0  0  0  0  0  0  0  0  0  0
  -26.8854  -27.9565   20.9943 C   0  0  0  0  0  0  0  0  0  0  0  0
  -30.3593  -20.7429   20.9233 C   0  0  0  0  0  0  0  0  0  0  0  0
  -22.1801   -8.8060   21.9787 C   0  0  0  0  0  0  0  0  0  0  0  0
  -26.0541  -14.5260   21.0311 C   0  0  0  0  0  0  0  0  0  0  0  0
  -26.0355  -16.5642   19.4972 C   0  0  0  0  0  0  0  0  0  0  0  0
  -25.9202  -37.0015   20.3908 C   0  0  0  0  0  0  0  0  0  0  0  0
  -25.5039  -29.6828   20.0090 C   0  0  0  0  0  0  0  0  0  0  0  0
  -26.4171  -35.7066   20.1482 C   0  0  0  0  0  0  0  0  0  0  0  0
  -25.9873  -29.0235   21.1482 C   0  0  0  0  0  0  0  0  0  0  0  0
  -30.1009  -20.6136   19.5587 C   0  0  0  0  0  0  0  0  0  0  0  0
  -31.1954  -18.4768   20.9795 C   0  0  0  0  0  0  0  0  0  0  0  0
  -30.9066  -19.6745   21.6337 C   0  0  0  0  0  0  0  0  0  0  0  0
  -25.6413  -11.8311   21.6225 C   0  0  0  0  0  0  0  0  0  0  0  0
  -27.2872  -27.5427   19.7245 C   0  0  0  0  0  0  0  0  0  0  0  0
  -24.2563   -9.9378   21.4833 C   0  0  0  0  0  0  0  0  0  0  0  0
  -21.8727   -8.7746   20.6185 C   0  0  0  0  0  0  0  0  0  0  0  0
  -23.3719   -9.3876   22.4111 C   0  0  0  0  0  0  0  0  0  0  0  0
  -26.2668  -15.9181   20.7263 C   0  0  0  0  0  0  0  0  0  0  0  0
  -26.3908  -17.8714   19.7242 C   0  0  0  0  0  0  0  0  0  0  0  0
  -25.5432  -16.0306   18.2608 C   0  0  0  0  0  0  0  0  0  0  0  0
  -25.7855  -32.3904   21.6503 C   0  0  0  0  0  0  0  0  0  0  0  0
  -23.8881  -30.8423   23.7776 C   0  0  0  0  0  0  0  0  0  0  0  0
  -29.9357  -24.1497   19.4220 C   0  0  0  0  0  0  0  0  0  0  0  0
  -22.7527  -27.8748   25.0233 C   0  0  0  0  0  0  0  0  0  0  0  0
  -30.1640  -20.1212   23.9875 C   0  0  0  0  0  0  0  0  0  0  0  0
  -25.6295  -37.4908   21.7875 C   0  0  0  0  0  0  0  0  0  0  0  0
  -24.5213  -30.8138   20.1429 C   0  0  0  0  0  0  0  0  0  0  0  0
  -25.5750  -29.4348   22.5372 C   0  0  0  0  0  0  0  0  0  0  0  0
  -25.4980  -36.3666   22.8117 C   0  0  0  0  0  0  0  0  0  0  0  0
  -26.6977  -21.1449   23.1938 C   0  0  0  0  0  0  0  0  0  0  0  0
  -26.6376  -35.3649   22.6542 C   0  0  0  0  0  0  0  0  0  0  0  0
  -26.1512  -19.9350   22.4382 C   0  0  0  0  0  0  0  0  0  0  0  0
  -27.7794  -20.7471   24.1934 C   0  0  0  0  0  0  0  0  0  0  0  0
  -28.3571  -18.7653   22.8221 C   0  0  0  0  0  0  0  0  0  0  0  0
  -26.6071  -34.7078   21.2690 C   0  0  1  0  0  0  0  0  0  0  0  0
  -24.5832  -31.5012   21.5034 C   0  0  1  0  0  0  0  0  0  0  0  0
  -27.2943  -19.1448   21.7801 C   0  0  1  0  0  0  0  0  0  0  0  0
  -31.7811  -17.3156   21.7153 C   0  0  0  0  0  0  0  0  0  0  0  0
  -31.6807  -23.1398   16.8100 C   0  0  0  0  0  0  0  0  0  0  0  0
  -21.2372  -26.9290   26.7857 C   0  0  0  0  0  0  0  0  0  0  0  0
  -25.9796  -31.4690   25.9090 C   0  0  0  0  0  0  0  0  0  0  0  0
  -24.9139  -29.7339   27.3657 C   0  0  0  0  0  0  0  0  0  0  0  0
  -23.6100  -31.7405   26.6611 C   0  0  0  0  0  0  0  0  0  0  0  0
  -32.5590  -19.9407   23.4747 C   0  0  0  0  0  0  0  0  0  0  0  0
  -21.0368  -26.5559   23.0046 C   0  0  0  0  0  0  0  0  0  0  0  0
  -29.5119  -21.7631   18.7932 C   0  0  0  0  0  0  0  0  0  0  0  0
  -28.5217  -24.1578   19.9937 C   0  0  0  0  0  0  0  0  0  0  0  0
  -31.6886  -22.7863   18.2583 C   0  0  0  0  0  0  0  0  0  0  0  0
  -28.1294  -25.4987   20.6013 C   0  0  0  0  0  0  0  0  0  1  0  0
  -24.1268  -29.9394   24.9637 C   0  0  1  0  0  0  0  0  0  0  0  0
  -21.3509  -27.3855   25.3395 C   0  0  2  0  0  0  0  0  0  0  0  0
  -24.6671  -30.7140   26.1989 C   0  0  0  0  0  0  0  0  0  0  0  0
  -26.7333  -16.7465   21.6645 N   0  0  0  0  0  0  0  0  0  0  0  0
  -26.7980  -17.9265   21.0247 N   0  0  0  0  0  0  0  0  0  0  0  0
  -24.6171  -30.5500   22.6162 N   0  0  0  0  0  0  0  0  0  0  0  0
  -28.8302  -19.9446   23.5654 N   0  0  0  0  0  0  0  0  0  0  0  0
  -26.3918  -18.9675   18.9361 N   0  0  0  0  0  0  0  0  0  0  0  0
  -25.2260  -14.6667   18.2010 N   0  0  0  0  0  0  0  0  0  0  0  0
  -25.5829  -33.6866   21.2165 N   0  0  0  0  0  0  0  0  0  0  0  0
  -22.8704  -29.2370   25.2015 N   0  0  0  0  0  0  0  0  0  0  0  0
  -31.1672  -19.8281   23.0441 N   0  0  0  0  0  0  0  0  0  0  0  0
  -30.3611  -22.9468   18.8474 N   0  0  0  0  0  0  0  0  0  0  0  0
  -20.9901  -26.2411   24.4557 N   0  3  0  0  0  0  0  0  0  0  0  0
  -25.4048  -16.7387   17.2347 O   0  0  0  0  0  0  0  0  0  0  0  0
  -26.8199  -31.9345   22.1235 O   0  0  0  0  0  0  0  0  0  0  0  0
  -23.0791  -31.7684   23.8757 O   0  0  0  0  0  0  0  0  0  0  0  0
  -30.6401  -25.1611   19.4768 O   0  0  0  0  0  0  0  0  0  0  0  0
  -23.6541  -27.1232   24.6585 O   0  0  0  0  0  0  0  0  0  0  0  0
  -30.4449  -20.4629   25.1429 O   0  0  0  0  0  0  0  0  0  0  0  0
  -25.4395  -10.5163   21.9110 O   0  0  0  0  0  0  0  0  0  0  0  0
  -28.1576  -26.5052   19.5901 O   0  0  0  0  0  0  0  0  0  1  0  0
  -20.7275   -8.2175   20.2033 F   0  0  0  0  0  0  0  0  0  0  0  0
  -23.6613   -9.4159   23.7192 F   0  0  0  0  0  0  0  0  0  0  0  0
  1  2  1  0  0  0  0
  1  5  2  0  0  0  0
  2  6  2  0  0  0  0
  3 10  2  0  0  0  0
  3 18  1  0  0  0  0
  4 11  1  0  0  0  0
  4 18  2  0  0  0  0
  5 20  1  0  0  0  0
  6 22  1  0  0  0  0
  7 12  2  0  0  0  0
  7 21  1  0  0  0  0
  8  9  2  0  0  0  0
  8 24  1  0  0  0  0
  9 25  1  0  0  0  0
 10 27  1  0  0  0  0
 11 27  2  0  0  0  0
 12 28  1  0  0  0  0
 13 14  2  0  0  0  0
 13 29  1  0  0  0  0
 14 30  1  0  0  0  0
 15 23  1  0  0  0  0
 15 28  2  0  0  0  0
 16 24  2  0  0  0  0
 16 26  1  0  0  0  0
 17 30  2  0  0  0  0
 17 31  1  0  0  0  0
 18 32  1  0  0  0  0
 19 32  1  0  0  0  0
 19 33  2  0  0  0  0
 19 34  1  0  0  0  0
 20 22  2  0  0  0  0
 20 40  1  0  0  0  0
 21 23  2  0  0  0  0
 21 41  1  0  0  0  0
 22 49  1  0  0  0  0
 23 42  1  0  0  0  0
 24 60  1  0  0  0  0
 25 26  2  0  0  0  0
 25 52  1  0  0  0  0
 26 75  1  0  0  0  0
 27 84  1  0  0  0  0
 28 85  1  0  0  0  0
 29 31  2  0  0  0  0
 29 84  1  0  0  0  0
 30 86  1  0  0  0  0
 31 87  1  0  0  0  0
 32 67  2  0  0  0  0
 33 68  1  0  0  0  0
 33 71  1  0  0  0  0
 34 72  1  0  0  0  0
 34 78  2  0  0  0  0
 35 50  1  0  0  0  0
 35 73  1  0  0  0  0
 35 79  2  0  0  0  0
 36 64  1  0  0  0  0
 36 69  1  0  0  0  0
 36 80  2  0  0  0  0
 37 61  1  0  0  0  0
 37 76  1  0  0  0  0
 37 81  2  0  0  0  0
 38 65  1  0  0  0  0
 38 74  1  0  0  0  0
 38 82  2  0  0  0  0
 39 70  1  0  0  0  0
 39 75  1  0  0  0  0
 39 83  2  0  0  0  0
 40 43  1  0  0  0  0
 41 50  1  0  0  0  0
 42 69  1  0  0  0  0
 43 45  1  0  0  0  0
 44 46  1  0  0  0  0
 44 47  1  0  0  0  0
 45 49  1  0  0  0  0
 46 51  1  0  0  0  0
 47 70  1  0  0  0  0
 48 51  1  0  0  0  0
 48 70  1  0  0  0  0
 49 73  1  0  0  0  0
 50 69  1  0  0  0  0
 51 68  1  0  0  0  0
 53 62  1  0  0  0  0
 54 65  1  0  0  0  0
 55 66  1  0  0  0  0
 56 66  1  0  0  0  0
 57 66  1  0  0  0  0
 58 75  1  0  0  0  0
 59 77  1  0  0  0  0
 60 76  1  0  0  0  0
 61 63  1  0  0  0  0
 62 76  1  0  0  0  0
 63 85  1  0  0  0  0
 64 66  1  0  0  0  0
 64 74  1  0  0  0  0
 65 77  1  0  0  0  0
 67 68  1  0  0  0  0
M  CHG  1  77   1
M  ISO  4  39 100  63 101  75 100  85 101
M  END
> <Batch ID>
0015

> <Smiles>
CCN(Cc1ccc(C)c([100N:0](C)[100C:0](=O)N2CCCC(n3nc(-c4ccc(Oc5ccc(F)cc5F)cc4)c(C(N)=O)c3N)C2)c1)C(=O)C[101CH2:1][101O:1]c1ccc2c(c1)CN(C(=O)C(NC(=O)C(C)NC)C(C)(C)C)C(C(=O)NC1CCCc3ccccc31)C2

> <Shape>
0.244

> <Color>
0.108

> <Negative vol penalty>
0.000

$$$$

  -OEChem-04042320543D

 83 91  0     1  0  0  0  0  0999 V2000
  -30.8897  -12.2424   24.4319 C   0  0  0  0  0  0  0  0  0  0  0  0
  -30.8189  -13.3790   23.6328 C   0  0  0  0  0  0  0  0  0  0  0  0
  -19.8160  -28.9397   22.8890 C   0  0  0  0  0  0  0  0  0  0  0  0
  -21.0235  -26.8552   23.0724 C   0  0  0  0  0  0  0  0  0  0  0  0
  -29.9863  -11.1982   24.2384 C   0  0  0  0  0  0  0  0  0  0  0  0
  -29.8453  -13.4715   22.6388 C   0  0  0  0  0  0  0  0  0  0  0  0
  -27.5642  -17.9922   22.5685 C   0  0  0  0  0  0  0  0  0  0  0  0
  -29.6377  -27.7875   19.2371 C   0  0  0  0  0  0  0  0  0  0  0  0
  -18.6711  -28.2426   22.5033 C   0  0  0  0  0  0  0  0  0  0  0  0
  -19.8785  -26.1580   22.6868 C   0  0  0  0  0  0  0  0  0  0  0  0
  -28.2583  -19.0465   21.9767 C   0  0  0  0  0  0  0  0  0  0  0  0
  -17.3758  -23.8563   21.4030 C   0  0  0  0  0  0  0  0  0  0  0  0
  -17.5218  -22.8437   20.4549 C   0  0  0  0  0  0  0  0  0  0  0  0
  -30.4122  -26.7701   18.6799 C   0  0  0  0  0  0  0  0  0  0  0  0
  -26.9534  -18.7695   19.9668 C   0  0  0  0  0  0  0  0  0  0  0  0
  -28.8503  -26.2587   20.9342 C   0  0  0  0  0  0  0  0  0  0  0  0
  -18.3764  -24.4527   18.8681 C   0  0  0  0  0  0  0  0  0  0  0  0
  -20.9922  -28.2460   23.1735 C   0  0  0  0  0  0  0  0  0  0  0  0
  -22.5636  -29.3055   24.8811 C   0  0  0  0  0  0  0  0  0  0  0  0
  -28.9950  -11.2821   23.2479 C   0  0  0  0  0  0  0  0  0  0  0  0
  -26.5652  -17.3103   21.8589 C   0  0  0  0  0  0  0  0  0  0  0  0
  -28.9287  -12.4269   22.4309 C   0  0  0  0  0  0  0  0  0  0  0  0
  -26.2462  -17.7085   20.5528 C   0  0  0  0  0  0  0  0  0  0  0  0
  -28.8567  -27.5318   20.3643 C   0  0  0  0  0  0  0  0  0  0  0  0
  -29.6248  -25.2412   20.3769 C   0  0  0  0  0  0  0  0  0  0  0  0
  -18.7023  -26.8518   22.4023 C   0  0  0  0  0  0  0  0  0  0  0  0
  -27.9550  -19.4334   20.6746 C   0  0  0  0  0  0  0  0  0  0  0  0
  -17.7300  -25.1671   21.0837 C   0  0  0  0  0  0  0  0  0  0  0  0
  -18.0221  -23.1418   19.1875 C   0  0  0  0  0  0  0  0  0  0  0  0
  -18.2303  -25.4653   19.8162 C   0  0  0  0  0  0  0  0  0  0  0  0
  -30.4058  -25.4969   19.2498 C   0  0  0  0  0  0  0  0  0  0  0  0
  -22.1755  -28.9656   23.5713 C   0  0  0  0  0  0  0  0  0  0  0  0
  -23.7506  -29.9783   24.7239 C   0  0  0  0  0  0  0  0  0  0  0  0
  -21.9096  -29.0370   26.1285 C   0  0  0  0  0  0  0  0  0  0  0  0
  -26.1593  -14.3149   20.8758 C   0  0  0  0  0  0  0  0  0  0  0  0
  -23.2388  -15.4137   19.9892 C   0  0  0  0  0  0  0  0  0  0  0  0
  -29.1591  -22.8256   20.2298 C   0  0  0  0  0  0  0  0  0  0  0  0
  -21.2874  -18.0726   19.1122 C   0  0  0  0  0  0  0  0  0  0  0  0
  -27.9659  -29.8849   20.4897 C   0  0  0  0  0  0  0  0  0  0  0  0
  -28.0707  -10.1078   23.0447 C   0  0  0  0  0  0  0  0  0  0  0  0
  -25.8072  -16.1925   22.5210 C   0  0  0  0  0  0  0  0  0  0  0  0
  -25.1684  -17.0222   19.7555 C   0  0  0  0  0  0  0  0  0  0  0  0
  -26.8320  -10.4436   22.2182 C   0  0  0  0  0  0  0  0  0  0  0  0
  -26.1140  -32.7204   21.5887 C   0  0  0  0  0  0  0  0  0  0  0  0
  -27.2187  -11.2409   20.9766 C   0  0  0  0  0  0  0  0  0  0  0  0
  -24.9324  -32.1104   22.3462 C   0  0  0  0  0  0  0  0  0  0  0  0
  -26.4970  -31.8855   20.3680 C   0  0  0  0  0  0  0  0  0  0  0  0
  -25.5596  -29.8533   21.3978 C   0  0  0  0  0  0  0  0  0  0  0  0
  -27.8711  -12.5750   21.3587 C   0  0  1  0  0  0  0  0  0  0  0  0
  -25.1631  -15.2345   21.5236 C   0  0  1  0  0  0  0  0  0  0  0  0
  -25.1789  -30.6243   22.6723 C   0  0  2  0  0  0  0  0  0  0  0  0
  -18.9503  -18.6528   18.4060 C   0  0  0  0  0  0  0  0  0  0  0  0
  -23.8131  -14.3208   17.1989 C   0  0  0  0  0  0  0  0  0  0  0  0
  -21.9319  -15.7294   16.3359 C   0  0  0  0  0  0  0  0  0  0  0  0
  -21.4788  -13.9363   18.0098 C   0  0  0  0  0  0  0  0  0  0  0  0
  -30.0167  -23.7910   22.3952 C   0  0  0  0  0  0  0  0  0  0  0  0
  -20.8824  -19.8126   21.4716 C   0  0  0  0  0  0  0  0  0  0  0  0
  -29.1159  -21.4897   20.9575 C   0  0  0  0  0  0  0  0  0  1  0  0
  -22.6671  -16.0442   18.7424 C   0  0  1  0  0  0  0  0  0  0  0  0
  -19.9094  -18.5075   19.5773 C   0  0  2  0  0  0  0  0  0  0  0  0
  -22.4944  -15.0195   17.5858 C   0  0  0  0  0  0  0  0  0  0  0  0
  -23.0453  -29.3878   22.6498 N   0  0  0  0  0  0  0  0  0  0  0  0
  -23.9918  -29.9999   23.3817 N   0  0  0  0  0  0  0  0  0  0  0  0
  -24.4600  -15.9309   20.4443 N   0  0  0  0  0  0  0  0  0  0  0  0
  -26.7191  -30.4904   20.7540 N   0  0  0  0  0  0  0  0  0  0  0  0
  -24.6011  -30.5476   25.6041 N   0  0  0  0  0  0  0  0  0  0  0  0
  -20.6972  -28.3339   26.1095 N   0  0  0  0  0  0  0  0  0  0  0  0
  -28.0715  -28.5663   20.9310 N   0  0  0  0  0  0  0  0  0  0  0  0
  -26.8646  -13.5308   21.7686 N   0  0  0  0  0  0  0  0  0  0  0  0
  -21.4294  -16.7015   19.1481 N   0  0  0  0  0  0  0  0  0  0  0  0
  -29.5939  -23.9302   20.9931 N   0  0  0  0  0  0  0  0  0  0  0  0
  -19.9905  -19.8173   20.2835 N   0  3  0  0  0  0  0  0  0  0  0  0
  -22.3778  -29.4237   27.2260 O   0  0  0  0  0  0  0  0  0  0  0  0
  -26.2781  -14.3157   19.6561 O   0  0  0  0  0  0  0  0  0  0  0  0
  -22.6210  -14.5009   20.5431 O   0  0  0  0  0  0  0  0  0  0  0  0
  -28.7922  -22.8726   19.0530 O   0  0  0  0  0  0  0  0  0  0  0  0
  -22.1502  -18.8692   18.7495 O   0  0  0  0  0  0  0  0  0  0  0  0
  -28.8823  -30.5002   19.9387 O   0  0  0  0  0  0  0  0  0  0  0  0
  -17.5851  -26.1712   22.0263 O   0  0  0  0  0  0  0  0  0  0  0  0
  -28.6314  -20.4618   20.0943 O   0  0  0  0  0  0  0  0  0  1  0  0
  -18.1637  -22.1691   18.2777 F   0  0  0  0  0  0  0  0  0  0  0  0
  -18.5734  -26.7225   19.5040 F   0  0  0  0  0  0  0  0  0  0  0  0
  -31.3775  -24.2658   18.5253 Cl  0  0  0  0  0  0  0  0  0  0  0  0
  1  2  1  0  0  0  0
  1  5  2  0  0  0  0
  2  6  2  0  0  0  0
  3  9  2  0  0  0  0
  3 18  1  0  0  0  0
  4 10  1  0  0  0  0
  4 18  2  0  0  0  0
  5 20  1  0  0  0  0
  6 22  1  0  0  0  0
  7 11  2  0  0  0  0
  7 21  1  0  0  0  0
  8 14  2  0  0  0  0
  8 24  1  0  0  0  0
  9 26  1  0  0  0  0
 10 26  2  0  0  0  0
 11 27  1  0  0  0  0
 12 13  2  0  0  0  0
 12 28  1  0  0  0  0
 13 29  1  0  0  0  0
 14 31  1  0  0  0  0
 15 23  1  0  0  0  0
 15 27  2  0  0  0  0
 16 24  2  0  0  0  0
 16 25  1  0  0  0  0
 17 29  2  0  0  0  0
 17 30  1  0  0  0  0
 18 32  1  0  0  0  0
 19 32  1  0  0  0  0
 19 33  2  0  0  0  0
 19 34  1  0  0  0  0
 20 22  2  0  0  0  0
 20 40  1  0  0  0  0
 21 23  2  0  0  0  0
 21 41  1  0  0  0  0
 22 49  1  0  0  0  0
 23 42  1  0  0  0  0
 24 68  1  0  0  0  0
 25 31  2  0  0  0  0
 25 71  1  0  0  0  0
 26 79  1  0  0  0  0
 27 80  1  0  0  0  0
 28 30  2  0  0  0  0
 28 79  1  0  0  0  0
 29 81  1  0  0  0  0
 30 82  1  0  0  0  0
 31 83  1  0  0  0  0
 32 62  2  0  0  0  0
 33 63  1  0  0  0  0
 33 66  1  0  0  0  0
 34 67  1  0  0  0  0
 34 73  2  0  0  0  0
 35 50  1  0  0  0  0
 35 69  1  0  0  0  0
 35 74  2  0  0  0  0
 36 59  1  0  0  0  0
 36 64  1  0  0  0  0
 36 75  2  0  0  0  0
 37 58  1  0  0  0  0
 37 71  1  0  0  0  0
 37 76  2  0  0  0  0
 38 60  1  0  0  0  0
 38 70  1  0  0  0  0
 38 77  2  0  0  0  0
 39 65  1  0  0  0  0
 39 68  1  0  0  0  0
 39 78  2  0  0  0  0
 40 43  1  0  0  0  0
 41 50  1  0  0  0  0
 42 64  1  0  0  0  0
 43 45  1  0  0  0  0
 44 46  1  0  0  0  0
 44 47  1  0  0  0  0
 45 49  1  0  0  0  0
 46 51  1  0  0  0  0
 47 65  1  0  0  0  0
 48 51  1  0  0  0  0
 48 65  1  0  0  0  0
 49 69  1  0  0  0  0
 50 64  1  0  0  0  0
 51 63  1  0  0  0  0
 52 60  1  0  0  0  0
 53 61  1  0  0  0  0
 54 61  1  0  0  0  0
 55 61  1  0  0  0  0
 56 71  1  0  0  0  0
 57 72  1  0  0  0  0
 58 80  1  0  0  0  0
 59 61  1  0  0  0  0
 59 70  1  0  0  0  0
 60 72  1  0  0  0  0
 62 63  1  0  0  0  0
M  CHG  1  72   1
M  ISO  4  39 100  58 101  68 100  80 101
M  END
> <Batch ID>
0015

> <Smiles>
CNC(C)C(=O)NC(C(=O)N1Cc2cc([101O:1][101CH2:1]C(=O)N(C)c3cc([100NH:0][100C:0](=O)N4CCCC(n5nc(-c6ccc(Oc7ccc(F)cc7F)cc6)c(C(N)=O)c5N)C4)ccc3Cl)ccc2CC1C(=O)NC1CCCc2ccccc21)C(C)(C)C

> <Shape>
0.232

> <Color>
0.074

> <Negative vol penalty>
0.000

$$$$

  -OEChem-04042320543D

 85 94  0     1  0  0  0  0  0999 V2000
  -34.3755  -11.5531   18.6278 C   0  0  0  0  0  0  0  0  0  0  0  0
  -33.8050  -12.8085   18.4434 C   0  0  0  0  0  0  0  0  0  0  0  0
  -24.7589  -28.9919   22.4563 C   0  0  0  0  0  0  0  0  0  0  0  0
  -24.6945  -30.5557   20.6159 C   0  0  0  0  0  0  0  0  0  0  0  0
  -33.5973  -10.4061   18.4771 C   0  0  0  0  0  0  0  0  0  0  0  0
  -32.4562  -12.9175   18.1070 C   0  0  0  0  0  0  0  0  0  0  0  0
  -28.5708  -17.3178   19.8525 C   0  0  0  0  0  0  0  0  0  0  0  0
  -26.6190  -22.3435   20.8620 C   0  0  0  0  0  0  0  0  0  0  0  0
  -27.8911  -22.7642   21.2497 C   0  0  0  0  0  0  0  0  0  0  0  0
  -24.2995  -29.9875   23.3184 C   0  0  0  0  0  0  0  0  0  0  0  0
  -24.2350  -31.5514   21.4780 C   0  0  0  0  0  0  0  0  0  0  0  0
  -28.1124  -18.4708   19.2166 C   0  0  0  0  0  0  0  0  0  0  0  0
  -21.3508  -31.4559   24.0814 C   0  0  0  0  0  0  0  0  0  0  0  0
  -20.3349  -31.1204   24.9762 C   0  0  0  0  0  0  0  0  0  0  0  0
  -26.1474  -17.2783   18.4842 C   0  0  0  0  0  0  0  0  0  0  0  0
  -27.2559  -22.5566   18.5412 C   0  0  0  0  0  0  0  0  0  0  0  0
  -21.7802  -31.6839   26.8284 C   0  0  0  0  0  0  0  0  0  0  0  0
  -24.9565  -29.2760   21.1050 C   0  0  0  0  0  0  0  0  0  0  0  0
  -24.6530  -27.3411   19.4705 C   0  0  0  0  0  0  0  0  0  0  0  0
  -32.2359  -10.5015   18.1481 C   0  0  0  0  0  0  0  0  0  0  0  0
  -27.8250  -16.1315   19.7997 C   0  0  0  0  0  0  0  0  0  0  0  0
  -31.6594  -11.7707   17.9504 C   0  0  0  0  0  0  0  0  0  0  0  0
  -26.5973  -16.1124   19.1224 C   0  0  0  0  0  0  0  0  0  0  0  0
  -26.3014  -22.2396   19.5077 C   0  0  0  0  0  0  0  0  0  0  0  0
  -28.8456  -23.0811   20.2833 C   0  0  0  0  0  0  0  0  0  0  0  0
  -24.0375  -31.2672   22.8293 C   0  0  0  0  0  0  0  0  0  0  0  0
  -26.9020  -18.4504   18.5299 C   0  0  0  0  0  0  0  0  0  0  0  0
  -22.5815  -31.9054   24.5600 C   0  0  0  0  0  0  0  0  0  0  0  0
  -20.5496  -31.2344   26.3498 C   0  0  0  0  0  0  0  0  0  0  0  0
  -28.5281  -22.9773   18.9290 C   0  0  0  0  0  0  0  0  0  0  0  0
  -22.7962  -32.0195   25.9335 C   0  0  0  0  0  0  0  0  0  0  0  0
  -25.4316  -28.2481   20.2141 C   0  0  0  0  0  0  0  0  0  0  0  0
  -25.5705  -26.5789   18.7895 C   0  0  0  0  0  0  0  0  0  0  0  0
  -23.2278  -27.2003   19.4013 C   0  0  0  0  0  0  0  0  0  0  0  0
  -28.3292  -13.2145   18.6419 C   0  0  0  0  0  0  0  0  0  0  0  0
  -25.4898  -12.5778   20.0754 C   0  0  0  0  0  0  0  0  0  0  0  0
  -22.5146  -13.7559   21.2616 C   0  0  0  0  0  0  0  0  0  0  0  0
  -30.9498  -24.3986   19.9259 C   0  0  0  0  0  0  0  0  0  0  0  0
  -31.4464   -9.2319   17.9495 C   0  0  0  0  0  0  0  0  0  0  0  0
  -28.3203  -14.9037   20.5135 C   0  0  0  0  0  0  0  0  0  0  0  0
  -25.7491  -14.8698   19.0532 C   0  0  0  0  0  0  0  0  0  0  0  0
  -29.9351   -9.4466   17.9595 C   0  0  0  0  0  0  0  0  0  0  0  0
  -30.3001  -27.1016   17.4837 C   0  0  0  0  0  0  0  0  0  0  0  0
  -22.7079  -21.4212   19.1415 C   0  0  0  0  0  0  0  0  0  0  0  0
  -29.5593  -10.6376   17.0836 C   0  0  0  0  0  0  0  0  0  0  0  0
  -28.9420  -27.6413   17.9282 C   0  0  0  0  0  0  0  0  0  0  0  0
  -23.1972  -21.4713   17.7027 C   0  0  0  0  0  0  0  0  0  0  0  0
  -23.8424  -22.0718   19.9266 C   0  0  0  0  0  0  0  0  0  0  0  0
  -31.0864  -26.5149   18.6521 C   0  0  0  0  0  0  0  0  0  0  0  0
  -28.9783  -26.0012   19.8493 C   0  0  0  0  0  0  0  0  0  0  0  0
  -30.1938  -11.9309   17.6092 C   0  0  1  0  0  0  0  0  0  0  0  0
  -27.7278  -13.6112   19.9605 C   0  0  1  0  0  0  0  0  0  0  0  0
  -28.1499  -26.5612   18.6833 C   0  0  1  0  0  0  0  0  0  0  0  0
  -24.7086  -21.2304   17.8217 C   0  0  2  0  0  0  0  0  0  0  0  0
  -20.3832  -12.9909   22.3429 C   0  0  0  0  0  0  0  0  0  0  0  0
  -24.5216  -11.4922   17.3933 C   0  0  0  0  0  0  0  0  0  0  0  0
  -22.1772  -11.6367   18.2601 C   0  0  0  0  0  0  0  0  0  0  0  0
  -23.8284  -10.1381   19.3783 C   0  0  0  0  0  0  0  0  0  0  0  0
  -30.8018  -22.8154   21.7977 C   0  0  0  0  0  0  0  0  0  0  0  0
  -23.0034  -15.4121   23.6651 C   0  0  0  0  0  0  0  0  0  0  0  0
  -25.0387  -19.7385   17.8053 C   0  0  0  0  0  0  0  0  0  1  0  0
  -24.0415  -12.6422   19.6545 C   0  0  1  0  0  0  0  0  0  0  0  0
  -21.7896  -13.5211   22.5745 C   0  0  2  0  0  0  0  0  0  0  0  0
  -23.6588  -11.5004   18.6710 C   0  0  0  0  0  0  0  0  0  0  0  0
  -26.7428  -28.0789   20.0238 N   0  0  0  0  0  0  0  0  0  0  0  0
  -26.7952  -27.0567   19.1528 N   0  0  0  0  0  0  0  0  0  0  0  0
  -25.0410  -21.8221   19.1235 N   0  0  3  0  0  0  0  0  0  0  0  0
  -26.2793  -13.6932   19.7617 N   0  0  0  0  0  0  0  0  0  0  0  0
  -30.2985  -25.5321   19.3977 N   0  0  0  0  0  0  0  0  0  0  0  0
  -25.4411  -25.5531   17.9215 N   0  0  0  0  0  0  0  0  0  0  0  0
  -22.4331  -28.0657   20.1654 N   0  0  0  0  0  0  0  0  0  0  0  0
  -29.4585  -12.4260   18.7532 N   0  0  0  0  0  0  0  0  0  0  0  0
  -23.2589  -12.6577   20.8856 N   0  0  0  0  0  0  0  0  0  0  0  0
  -30.1601  -23.5163   20.6876 N   0  0  0  0  0  0  0  0  0  0  0  0
  -21.6916  -14.7920   23.3465 N   0  3  0  0  0  0  0  0  0  0  0  0
  -22.6760  -26.3221   18.6958 O   0  0  0  0  0  0  0  0  0  0  0  0
  -27.8065  -13.5944   17.6007 O   0  0  0  0  0  0  0  0  0  0  0  0
  -25.9037  -11.5778   20.6673 O   0  0  0  0  0  0  0  0  0  0  0  0
  -22.4263  -14.8069   20.6306 O   0  0  0  0  0  0  0  0  0  0  0  0
  -32.1639  -24.2128   19.7770 O   0  0  0  0  0  0  0  0  0  0  0  0
  -23.5889  -32.2389   23.6702 O   0  0  0  0  0  0  0  0  0  0  0  0
  -26.4525  -19.5742   17.9078 O   0  0  0  0  0  0  0  0  0  1  0  0
  -19.5733  -30.9136   27.2090 F   0  0  0  0  0  0  0  0  0  0  0  0
  -29.4376  -23.2798   17.9916 F   0  0  0  0  0  0  0  0  0  0  0  0
  -23.9760  -32.4518   26.3992 F   0  0  0  0  0  0  0  0  0  0  0  0
  1  2  1  0  0  0  0
  1  5  2  0  0  0  0
  2  6  2  0  0  0  0
  3 10  2  0  0  0  0
  3 18  1  0  0  0  0
  4 11  1  0  0  0  0
  4 18  2  0  0  0  0
  5 20  1  0  0  0  0
  6 22  1  0  0  0  0
  7 12  2  0  0  0  0
  7 21  1  0  0  0  0
  8  9  2  0  0  0  0
  8 24  1  0  0  0  0
  9 25  1  0  0  0  0
 10 26  1  0  0  0  0
 11 26  2  0  0  0  0
 12 27  1  0  0  0  0
 13 14  2  0  0  0  0
 13 28  1  0  0  0  0
 14 29  1  0  0  0  0
 15 23  1  0  0  0  0
 15 27  2  0  0  0  0
 16 24  2  0  0  0  0
 16 30  1  0  0  0  0
 17 29  2  0  0  0  0
 17 31  1  0  0  0  0
 18 32  1  0  0  0  0
 19 32  1  0  0  0  0
 19 33  2  0  0  0  0
 19 34  1  0  0  0  0
 20 22  2  0  0  0  0
 20 39  1  0  0  0  0
 21 23  2  0  0  0  0
 21 40  1  0  0  0  0
 22 51  1  0  0  0  0
 23 41  1  0  0  0  0
 24 67  1  0  0  0  0
 25 30  2  0  0  0  0
 25 74  1  0  0  0  0
 26 81  1  0  0  0  0
 27 82  1  0  0  0  0
 28 31  2  0  0  0  0
 28 81  1  0  0  0  0
 29 83  1  0  0  0  0
 30 84  1  0  0  0  0
 31 85  1  0  0  0  0
 32 65  2  0  0  0  0
 33 66  1  0  0  0  0
 33 70  1  0  0  0  0
 34 71  1  0  0  0  0
 34 76  2  0  0  0  0
 35 52  1  0  0  0  0
 35 72  1  0  0  0  0
 35 77  2  0  0  0  0
 36 62  1  0  0  0  0
 36 68  1  0  0  0  0
 36 78  2  0  0  0  0
 37 63  1  0  0  0  0
 37 73  1  0  0  0  0
 37 79  2  0  0  0  0
 38 69  1  0  0  0  0
 38 74  1  0  0  0  0
 38 80  2  0  0  0  0
 39 42  1  0  0  0  0
 40 52  1  0  0  0  0
 41 68  1  0  0  0  0
 42 45  1  0  0  0  0
 43 46  1  0  0  0  0
 43 49  1  0  0  0  0
 44 47  1  0  0  0  0
 44 48  1  0  0  0  0
 45 51  1  0  0  0  0
 46 53  1  0  0  0  0
 47 54  1  0  0  0  0
 48 67  1  0  0  0  0
 49 69  1  0  0  0  0
 50 53  1  0  0  0  0
 50 69  1  0  0  0  0
 51 72  1  0  0  0  0
 52 68  1  0  0  0  0
 53 66  1  0  0  0  0
 54 61  1  0  0  0  0
 54 67  1  0  0  0  0
 55 63  1  0  0  0  0
 56 64  1  0  0  0  0
 57 64  1  0  0  0  0
 58 64  1  0  0  0  0
 59 74  1  0  0  0  0
 60 75  1  0  0  0  0
 61 82  1  0  0  0  0
 62 64  1  0  0  0  0
 62 73  1  0  0  0  0
 63 75  1  0  0  0  0
 65 66  1  0  0  0  0
M  CHG  1  75   1
M  ISO  4  38 100  61 101  74 100  82 101
M  END
> <Batch ID>
0015

> <Smiles>
CNC(C)C(=O)NC(C(=O)N1Cc2cc([101O:1][101CH2:1]C3CCCN3c3ccc([100N:0](C)[100C:0](=O)N4CCCC(n5nc(-c6ccc(Oc7ccc(F)cc7F)cc6)c(C(N)=O)c5N)C4)c(F)c3)ccc2CC1C(=O)NC1CCCc2ccccc21)C(C)(C)C

> <Shape>
0.235

> <Color>
0.075

> <Negative vol penalty>
0.000

$$$$

  -OEChem-04042320543D

 83 91  0     1  0  0  0  0  0999 V2000
  -26.8598  -19.1699   17.8141 C   0  0  0  0  0  0  0  0  0  0  0  0
  -27.5548  -19.5668   18.9520 C   0  0  0  0  0  0  0  0  0  0  0  0
  -23.0835   -9.9116   19.8944 C   0  0  0  0  0  0  0  0  0  0  0  0
  -23.8455   -9.8531   22.1863 C   0  0  0  0  0  0  0  0  0  0  0  0
  -27.0585  -19.8404   16.6080 C   0  0  0  0  0  0  0  0  0  0  0  0
  -28.4499  -20.6339   18.8841 C   0  0  0  0  0  0  0  0  0  0  0  0
  -27.9549  -23.8356   22.7763 C   0  0  0  0  0  0  0  0  0  0  0  0
  -30.3569  -18.3489   24.2730 C   0  0  0  0  0  0  0  0  0  0  0  0
  -32.5522  -17.5516   23.6549 C   0  0  0  0  0  0  0  0  0  0  0  0
  -29.7810  -17.4873   23.3394 C   0  0  0  0  0  0  0  0  0  0  0  0
  -31.9763  -16.6899   22.7213 C   0  0  0  0  0  0  0  0  0  0  0  0
  -22.3564   -8.7403   20.1062 C   0  0  0  0  0  0  0  0  0  0  0  0
  -23.1184   -8.6818   22.3982 C   0  0  0  0  0  0  0  0  0  0  0  0
  -28.5171  -23.4508   23.9927 C   0  0  0  0  0  0  0  0  0  0  0  0
  -23.4560   -5.3847   21.7304 C   0  0  0  0  0  0  0  0  0  0  0  0
  -24.0868   -4.3450   22.4135 C   0  0  0  0  0  0  0  0  0  0  0  0
  -30.4222  -24.8636   23.5522 C   0  0  0  0  0  0  0  0  0  0  0  0
  -22.3848   -4.4374   24.1257 C   0  0  0  0  0  0  0  0  0  0  0  0
  -23.8281  -10.4680   20.9344 C   0  0  0  0  0  0  0  0  0  0  0  0
  -24.1338  -13.0004   20.8983 C   0  0  0  0  0  0  0  0  0  0  0  0
  -27.9493  -20.9224   16.5275 C   0  0  0  0  0  0  0  0  0  0  0  0
  -28.6284  -24.7304   21.9323 C   0  0  0  0  0  0  0  0  0  0  0  0
  -28.6618  -21.3187   17.6754 C   0  0  0  0  0  0  0  0  0  0  0  0
  -29.8652  -25.2601   22.3268 C   0  0  0  0  0  0  0  0  0  0  0  0
  -31.7424  -18.3811   24.4307 C   0  0  0  0  0  0  0  0  0  0  0  0
  -30.5907  -16.6578   22.5636 C   0  0  0  0  0  0  0  0  0  0  0  0
  -22.3738   -8.1254   21.3581 C   0  0  0  0  0  0  0  0  0  0  0  0
  -29.7523  -23.9626   24.3795 C   0  0  0  0  0  0  0  0  0  0  0  0
  -22.2897   -5.9509   22.2450 C   0  0  0  0  0  0  0  0  0  0  0  0
  -23.5512   -3.8713   23.6111 C   0  0  0  0  0  0  0  0  0  0  0  0
  -21.7541   -5.4772   23.4426 C   0  0  0  0  0  0  0  0  0  0  0  0
  -24.5799  -11.6777   20.7161 C   0  0  0  0  0  0  0  0  0  0  0  0
  -25.2148  -13.7771   20.5596 C   0  0  0  0  0  0  0  0  0  0  0  0
  -22.8566  -13.4838   21.3349 C   0  0  0  0  0  0  0  0  0  0  0  0
  -29.8126  -24.5759   18.9865 C   0  0  0  0  0  0  0  0  0  0  0  0
  -30.3507  -27.7401   19.4559 C   0  0  0  0  0  0  0  0  0  0  0  0
  -30.8365  -30.3008   21.6590 C   0  0  0  0  0  0  0  0  0  0  0  0
  -30.6657  -14.8942   20.7662 C   0  0  0  0  0  0  0  0  0  0  0  0
  -28.1664  -21.5861   15.1907 C   0  0  0  0  0  0  0  0  0  0  0  0
  -27.9961  -25.1561   20.6356 C   0  0  0  0  0  0  0  0  0  0  0  0
  -30.6193  -26.2394   21.4661 C   0  0  0  0  0  0  0  0  0  0  0  0
  -28.8524  -22.9461   15.2901 C   0  0  0  0  0  0  0  0  0  0  0  0
  -29.5835  -12.5449   18.3195 C   0  0  0  0  0  0  0  0  0  0  0  0
  -30.0540  -22.8707   16.2268 C   0  0  0  0  0  0  0  0  0  0  0  0
  -28.1486  -12.2186   18.7398 C   0  0  0  0  0  0  0  0  0  0  0  0
  -30.4964  -12.7466   19.5276 C   0  0  0  0  0  0  0  0  0  0  0  0
  -28.5807  -13.3974   20.9332 C   0  0  0  0  0  0  0  0  0  0  0  0
  -29.6228  -22.4874   17.6475 C   0  0  1  0  0  0  0  0  0  0  0  0
  -29.0084  -25.6759   19.6195 C   0  0  1  0  0  0  0  0  0  0  0  0
  -27.6093  -13.2496   19.7508 C   0  0  2  0  0  0  0  0  0  0  0  0
  -31.2881  -32.7678   21.7435 C   0  0  0  0  0  0  0  0  0  0  0  0
  -33.2598  -27.2315   18.6886 C   0  0  0  0  0  0  0  0  0  0  0  0
  -33.8393  -29.4516   19.6903 C   0  0  0  0  0  0  0  0  0  0  0  0
  -32.2836  -29.3313   17.7440 C   0  0  0  0  0  0  0  0  0  0  0  0
  -28.3174  -30.8295   23.1195 C   0  0  0  0  0  0  0  0  0  0  0  0
  -33.4109  -20.9884   23.9262 C   0  0  0  0  0  0  0  0  0  0  0  0
  -32.3617  -19.3080   25.4349 C   0  0  0  0  0  0  0  0  0  0  0  0
  -31.1551  -21.7727   26.8821 C   0  0  0  0  0  0  0  0  0  0  0  0
  -32.4692  -21.6998   26.1192 C   0  0  0  0  0  0  0  0  0  0  0  0
  -29.9878  -22.2818   26.0454 C   0  0  0  0  0  0  0  0  0  1  0  0
  -31.4879  -28.5596   20.0164 C   0  0  1  0  0  0  0  0  0  0  0  0
  -30.2200  -31.6853   21.7461 C   0  0  2  0  0  0  0  0  0  0  0  0
  -32.7046  -28.6236   19.0504 C   0  0  0  0  0  0  0  0  0  0  0  0
  -25.8456  -11.6139   20.2941 N   0  0  0  0  0  0  0  0  0  0  0  0
  -26.2040  -12.9063   20.2084 N   0  0  0  0  0  0  0  0  0  0  0  0
  -29.9626  -26.6201   20.2046 N   0  0  0  0  0  0  0  0  0  0  0  0
  -29.9237  -13.7396   20.4391 N   0  0  0  0  0  0  0  0  0  0  0  0
  -25.4062  -15.1131   20.5309 N   0  0  0  0  0  0  0  0  0  0  0  0
  -21.8580  -12.5496   21.6422 N   0  0  0  0  0  0  0  0  0  0  0  0
  -30.0061  -15.7821   21.6153 N   0  0  0  0  0  0  0  0  0  0  0  0
  -29.0510  -23.6297   18.3277 N   0  0  0  0  0  0  0  0  0  0  0  0
  -30.9245  -29.8621   20.3548 N   0  0  0  0  0  0  0  0  0  0  0  0
  -29.4194  -31.8180   22.9961 N   0  3  0  0  0  0  0  0  0  0  0  0
  -32.3632  -20.7499   24.9870 N   0  3  1  0  0  0  0  0  0  0  0  0
  -22.6028  -14.7083   21.4333 O   0  0  0  0  0  0  0  0  0  0  0  0
  -31.0339  -24.5856   19.0871 O   0  0  0  0  0  0  0  0  0  0  0  0
  -29.8214  -28.0853   18.3965 O   0  0  0  0  0  0  0  0  0  0  0  0
  -31.2067  -29.6730   22.6486 O   0  0  0  0  0  0  0  0  0  0  0  0
  -31.7919  -15.0945   20.3038 O   0  0  0  0  0  0  0  0  0  0  0  0
  -21.6642   -6.9825   21.5652 O   0  0  0  0  0  0  0  0  0  0  0  0
  -30.3035  -23.5882   25.5660 O   0  0  0  0  0  0  0  0  0  1  0  0
  -24.1562   -2.8717   24.2662 F   0  0  0  0  0  0  0  0  0  0  0  0
  -20.6331   -6.0163   23.9413 F   0  0  0  0  0  0  0  0  0  0  0  0
  1  2  1  0  0  0  0
  1  5  2  0  0  0  0
  2  6  2  0  0  0  0
  3 12  2  0  0  0  0
  3 19  1  0  0  0  0
  4 13  1  0  0  0  0
  4 19  2  0  0  0  0
  5 21  1  0  0  0  0
  6 23  1  0  0  0  0
  7 14  2  0  0  0  0
  7 22  1  0  0  0  0
  8 10  2  0  0  0  0
  8 25  1  0  0  0  0
  9 11  1  0  0  0  0
  9 25  2  0  0  0  0
 10 26  1  0  0  0  0
 11 26  2  0  0  0  0
 12 27  1  0  0  0  0
 13 27  2  0  0  0  0
 14 28  1  0  0  0  0
 15 16  2  0  0  0  0
 15 29  1  0  0  0  0
 16 30  1  0  0  0  0
 17 24  1  0  0  0  0
 17 28  2  0  0  0  0
 18 30  2  0  0  0  0
 18 31  1  0  0  0  0
 19 32  1  0  0  0  0
 20 32  1  0  0  0  0
 20 33  2  0  0  0  0
 20 34  1  0  0  0  0
 21 23  2  0  0  0  0
 21 39  1  0  0  0  0
 22 24  2  0  0  0  0
 22 40  1  0  0  0  0
 23 48  1  0  0  0  0
 24 41  1  0  0  0  0
 25 57  1  0  0  0  0
 26 70  1  0  0  0  0
 27 80  1  0  0  0  0
 28 81  1  0  0  0  0
 29 31  2  0  0  0  0
 29 80  1  0  0  0  0
 30 82  1  0  0  0  0
 31 83  1  0  0  0  0
 32 64  2  0  0  0  0
 33 65  1  0  0  0  0
 33 68  1  0  0  0  0
 34 69  1  0  0  0  0
 34 75  2  0  0  0  0
 35 49  1  0  0  0  0
 35 71  1  0  0  0  0
 35 76  2  0  0  0  0
 36 61  1  0  0  0  0
 36 66  1  0  0  0  0
 36 77  2  0  0  0  0
 37 62  1  0  0  0  0
 37 72  1  0  0  0  0
 37 78  2  0  0  0  0
 38 67  1  0  0  0  0
 38 70  1  0  0  0  0
 38 79  2  0  0  0  0
 39 42  1  0  0  0  0
 40 49  1  0  0  0  0
 41 66  1  0  0  0  0
 42 44  1  0  0  0  0
 43 45  1  0  0  0  0
 43 46  1  0  0  0  0
 44 48  1  0  0  0  0
 45 50  1  0  0  0  0
 46 67  1  0  0  0  0
 47 50  1  0  0  0  0
 47 67  1  0  0  0  0
 48 71  1  0  0  0  0
 49 66  1  0  0  0  0
 50 65  1  0  0  0  0
 51 62  1  0  0  0  0
 52 63  1  0  0  0  0
 53 63  1  0  0  0  0
 54 63  1  0  0  0  0
 55 73  1  0  0  0  0
 56 74  1  0  0  0  0
 57 74  1  0  0  0  0
 58 59  1  0  0  0  0
 58 60  1  0  0  0  0
 59 74  1  0  0  0  0
 60 81  1  0  0  0  0
 61 63  1  0  0  0  0
 61 72  1  0  0  0  0
 62 73  1  0  0  0  0
 64 65  1  0  0  0  0
M  CHG  2  73   1  74   1
M  ISO  4  38 100  60 101  70 100  81 101
M  END
> <Batch ID>
0015

> <Smiles>
CNC(C)C(=O)NC(C(=O)N1Cc2cc([101O:1][101CH2:1]CCN(C)Cc3ccc([100NH:0][100C:0](=O)N4CCCC(n5nc(-c6ccc(Oc7ccc(F)cc7F)cc6)c(C(N)=O)c5N)C4)cc3)ccc2CC1C(=O)NC1CCCc2ccccc21)C(C)(C)C

> <Shape>
0.252

> <Color>
0.203

> <Negative vol penalty>
0.000

$$$$

  -OEChem-04042320543D

 82 90  0     1  0  0  0  0  0999 V2000
  -32.1104  -27.4947   15.0422 C   0  0  0  0  0  0  0  0  0  0  0  0
  -31.1189  -26.7019   15.6112 C   0  0  0  0  0  0  0  0  0  0  0  0
  -26.0452  -13.9608   20.9913 C   0  0  0  0  0  0  0  0  0  0  0  0
  -26.4851  -12.1100   19.5020 C   0  0  0  0  0  0  0  0  0  0  0  0
  -32.7176  -28.4979   15.7965 C   0  0  0  0  0  0  0  0  0  0  0  0
  -30.7347  -26.9111   16.9352 C   0  0  0  0  0  0  0  0  0  0  0  0
  -25.7056  -26.8712   17.5283 C   0  0  0  0  0  0  0  0  0  0  0  0
  -28.3466  -20.5545   17.6208 C   0  0  0  0  0  0  0  0  0  0  0  0
  -28.6782  -20.3999   20.0090 C   0  0  0  0  0  0  0  0  0  0  0  0
  -27.0014  -20.8600   17.8273 C   0  0  0  0  0  0  0  0  0  0  0  0
  -27.3329  -20.7054   20.2155 C   0  0  0  0  0  0  0  0  0  0  0  0
  -24.7856  -13.4332   21.2750 C   0  0  0  0  0  0  0  0  0  0  0  0
  -25.2254  -11.5823   19.7858 C   0  0  0  0  0  0  0  0  0  0  0  0
  -25.0769  -25.6270   17.5501 C   0  0  0  0  0  0  0  0  0  0  0  0
  -23.7686   -9.8171   22.2722 C   0  0  0  0  0  0  0  0  0  0  0  0
  -23.6839   -8.4491   22.5307 C   0  0  0  0  0  0  0  0  0  0  0  0
  -24.9892  -25.7202   19.9590 C   0  0  0  0  0  0  0  0  0  0  0  0
  -22.1843   -8.1874   20.6546 C   0  0  0  0  0  0  0  0  0  0  0  0
  -26.8950  -13.2993   20.1048 C   0  0  0  0  0  0  0  0  0  0  0  0
  -29.4006  -13.5828   20.4910 C   0  0  0  0  0  0  0  0  0  0  0  0
  -32.3338  -28.7259   17.1274 C   0  0  0  0  0  0  0  0  0  0  0  0
  -25.9911  -27.5454   18.7243 C   0  0  0  0  0  0  0  0  0  0  0  0
  -31.3382  -27.9174   17.7084 C   0  0  0  0  0  0  0  0  0  0  0  0
  -25.6193  -26.9740   19.9495 C   0  0  0  0  0  0  0  0  0  0  0  0
  -29.1850  -20.3244   18.7116 C   0  0  0  0  0  0  0  0  0  0  0  0
  -26.4945  -20.9354   19.1246 C   0  0  0  0  0  0  0  0  0  0  0  0
  -24.3757  -12.2439   20.6723 C   0  0  0  0  0  0  0  0  0  0  0  0
  -24.7212  -25.0500   18.7656 C   0  0  0  0  0  0  0  0  0  0  0  0
  -23.0610  -10.3704   21.2049 C   0  0  0  0  0  0  0  0  0  0  0  0
  -22.8918   -7.6342   21.7219 C   0  0  0  0  0  0  0  0  0  0  0  0
  -22.2689   -9.5555   20.3961 C   0  0  0  0  0  0  0  0  0  0  0  0
  -28.1960  -13.8441   19.8108 C   0  0  0  0  0  0  0  0  0  0  0  0
  -30.3389  -14.3369   19.8297 C   0  0  0  0  0  0  0  0  0  0  0  0
  -29.6490  -12.7342   21.6197 C   0  0  0  0  0  0  0  0  0  0  0  0
  -28.6483  -28.5251   20.1677 C   0  0  0  0  0  0  0  0  0  0  0  0
  -26.5563  -29.8949   22.2340 C   0  0  0  0  0  0  0  0  0  0  0  0
  -23.4301  -29.9169   23.6025 C   0  0  0  0  0  0  0  0  0  0  0  0
  -31.0021  -19.3244   17.3371 C   0  0  0  0  0  0  0  0  0  0  0  0
  -33.0520  -29.7909   17.9177 C   0  0  0  0  0  0  0  0  0  0  0  0
  -26.6457  -28.8990   18.6825 C   0  0  0  0  0  0  0  0  0  0  0  0
  -25.8853  -27.6661   21.2605 C   0  0  0  0  0  0  0  0  0  0  0  0
  -32.3245  -30.1943   19.1976 C   0  0  0  0  0  0  0  0  0  0  0  0
  -30.6455  -16.3946   15.3542 C   0  0  0  0  0  0  0  0  0  0  0  0
  -31.8660  -28.9574   19.9636 C   0  0  0  0  0  0  0  0  0  0  0  0
  -30.0812  -15.4053   16.3733 C   0  0  0  0  0  0  0  0  0  0  0  0
  -30.0594  -17.7957   15.5313 C   0  0  0  0  0  0  0  0  0  0  0  0
  -29.6255  -17.3430   17.9253 C   0  0  0  0  0  0  0  0  0  0  0  0
  -30.8768  -28.1300   19.1339 C   0  0  1  0  0  0  0  0  0  0  0  0
  -27.3515  -29.2619   19.9854 C   0  0  1  0  0  0  0  0  0  0  0  0
  -30.2399  -15.9394   17.8078 C   0  0  1  0  0  0  0  0  0  0  0  0
  -22.0282  -31.1312   25.2930 C   0  0  0  0  0  0  0  0  0  0  0  0
  -28.0372  -28.4644   24.4858 C   0  0  0  0  0  0  0  0  0  0  0  0
  -26.0774  -28.9261   25.9739 C   0  0  0  0  0  0  0  0  0  0  0  0
  -27.3776  -30.8206   25.0029 C   0  0  0  0  0  0  0  0  0  0  0  0
  -31.5777  -20.6137   19.3820 C   0  0  0  0  0  0  0  0  0  0  0  0
  -24.6090  -21.3229   20.6914 C   0  0  0  0  0  0  0  0  0  0  0  0
  -21.4665  -30.7470   21.5496 C   0  0  0  0  0  0  0  0  0  0  0  0
  -24.2520  -21.5010   18.2238 C   0  0  0  0  0  0  0  0  0  0  0  0
  -24.4202  -22.9291   17.7326 C   0  0  0  0  0  0  0  0  0  1  0  0
  -25.8659  -29.4575   23.5033 C   0  0  1  0  0  0  0  0  0  0  0  0
  -22.4386  -31.0434   23.8313 C   0  0  2  0  0  0  0  0  0  0  0  0
  -26.8361  -29.4030   24.7171 C   0  0  0  0  0  0  0  0  0  0  0  0
  -28.3520  -14.6976   18.7954 N   0  0  0  0  0  0  0  0  0  0  0  0
  -29.6656  -14.9793   18.8326 N   0  0  0  0  0  0  0  0  0  0  0  0
  -26.5332  -28.9848   21.1676 N   0  0  0  0  0  0  0  0  0  0  0  0
  -30.1974  -18.2460   16.9235 N   0  0  0  0  0  0  0  0  0  0  0  0
  -31.6660  -14.5066   20.0096 N   0  0  0  0  0  0  0  0  0  0  0  0
  -28.5723  -12.0310   22.1768 N   0  0  0  0  0  0  0  0  0  0  0  0
  -29.5646  -28.7401   19.1559 N   0  0  0  0  0  0  0  0  0  0  0  0
  -24.7335  -30.3594   23.6836 N   0  0  0  0  0  0  0  0  0  0  0  0
  -30.5773  -20.0066   18.4975 N   0  0  0  0  0  0  0  0  0  0  0  0
  -25.1433  -21.2432   19.3316 N   0  0  3  0  0  0  0  0  0  0  0  0
  -21.2129  -30.8292   23.0111 N   0  3  0  0  0  0  0  0  0  0  0  0
  -30.7890  -12.6162   22.1296 O   0  0  0  0  0  0  0  0  0  0  0  0
  -28.8064  -27.8153   21.1541 O   0  0  0  0  0  0  0  0  0  0  0  0
  -27.0901  -31.0060   22.1880 O   0  0  0  0  0  0  0  0  0  0  0  0
  -23.0830  -28.7594   23.3783 O   0  0  0  0  0  0  0  0  0  0  0  0
  -32.0345  -19.6373   16.7319 O   0  0  0  0  0  0  0  0  0  0  0  0
  -23.1467  -11.7286   20.9491 O   0  0  0  0  0  0  0  0  0  0  0  0
  -24.1080  -23.8354   18.7898 O   0  0  0  0  0  0  0  0  0  1  0  0
  -22.8119   -6.3202   21.9693 F   0  0  0  0  0  0  0  0  0  0  0  0
  -21.5878  -10.0810   19.3686 F   0  0  0  0  0  0  0  0  0  0  0  0
  1  2  1  0  0  0  0
  1  5  2  0  0  0  0
  2  6  2  0  0  0  0
  3 12  2  0  0  0  0
  3 19  1  0  0  0  0
  4 13  1  0  0  0  0
  4 19  2  0  0  0  0
  5 21  1  0  0  0  0
  6 23  1  0  0  0  0
  7 14  2  0  0  0  0
  7 22  1  0  0  0  0
  8 10  2  0  0  0  0
  8 25  1  0  0  0  0
  9 11  1  0  0  0  0
  9 25  2  0  0  0  0
 10 26  1  0  0  0  0
 11 26  2  0  0  0  0
 12 27  1  0  0  0  0
 13 27  2  0  0  0  0
 14 28  1  0  0  0  0
 15 16  2  0  0  0  0
 15 29  1  0  0  0  0
 16 30  1  0  0  0  0
 17 24  1  0  0  0  0
 17 28  2  0  0  0  0
 18 30  2  0  0  0  0
 18 31  1  0  0  0  0
 19 32  1  0  0  0  0
 20 32  1  0  0  0  0
 20 33  2  0  0  0  0
 20 34  1  0  0  0  0
 21 23  2  0  0  0  0
 21 39  1  0  0  0  0
 22 24  2  0  0  0  0
 22 40  1  0  0  0  0
 23 48  1  0  0  0  0
 24 41  1  0  0  0  0
 25 71  1  0  0  0  0
 26 72  1  0  0  0  0
 27 79  1  0  0  0  0
 28 80  1  0  0  0  0
 29 31  2  0  0  0  0
 29 79  1  0  0  0  0
 30 81  1  0  0  0  0
 31 82  1  0  0  0  0
 32 63  2  0  0  0  0
 33 64  1  0  0  0  0
 33 67  1  0  0  0  0
 34 68  1  0  0  0  0
 34 74  2  0  0  0  0
 35 49  1  0  0  0  0
 35 69  1  0  0  0  0
 35 75  2  0  0  0  0
 36 60  1  0  0  0  0
 36 65  1  0  0  0  0
 36 76  2  0  0  0  0
 37 61  1  0  0  0  0
 37 70  1  0  0  0  0
 37 77  2  0  0  0  0
 38 66  1  0  0  0  0
 38 71  1  0  0  0  0
 38 78  2  0  0  0  0
 39 42  1  0  0  0  0
 40 49  1  0  0  0  0
 41 65  1  0  0  0  0
 42 44  1  0  0  0  0
 43 45  1  0  0  0  0
 43 46  1  0  0  0  0
 44 48  1  0  0  0  0
 45 50  1  0  0  0  0
 46 66  1  0  0  0  0
 47 50  1  0  0  0  0
 47 66  1  0  0  0  0
 48 69  1  0  0  0  0
 49 65  1  0  0  0  0
 50 64  1  0  0  0  0
 51 61  1  0  0  0  0
 52 62  1  0  0  0  0
 53 62  1  0  0  0  0
 54 62  1  0  0  0  0
 55 71  1  0  0  0  0
 56 72  1  0  0  0  0
 57 73  1  0  0  0  0
 58 59  1  0  0  0  0
 58 72  1  0  0  0  0
 59 80  1  0  0  0  0
 60 62  1  0  0  0  0
 60 70  1  0  0  0  0
 61 73  1  0  0  0  0
 63 64  1  0  0  0  0
M  CHG  1  73   1
M  ISO  4  38 100  59 101  71 100  80 101
M  END
> <Batch ID>
0015

> <Smiles>
CNC(C)C(=O)NC(C(=O)N1Cc2cc([101O:1][101CH2:1]CN(C)c3ccc([100N:0](C)[100C:0](=O)N4CCCC(n5nc(-c6ccc(Oc7ccc(F)cc7F)cc6)c(C(N)=O)c5N)C4)cc3)ccc2CC1C(=O)NC1CCCc2ccccc21)C(C)(C)C

> <Shape>
0.239

> <Color>
0.096

> <Negative vol penalty>
0.000

$$$$

  -OEChem-04042320543D

 84 93  0     1  0  0  0  0  0999 V2000
  -21.8603  -11.4974   19.7484 C   0  0  0  0  0  0  0  0  0  0  0  0
  -21.6382  -12.6980   20.4152 C   0  0  0  0  0  0  0  0  0  0  0  0
  -18.3521  -28.0245   23.8113 C   0  0  0  0  0  0  0  0  0  0  0  0
  -30.3385  -29.4979   19.7706 C   0  0  0  0  0  0  0  0  0  0  0  0
  -29.7602  -27.6216   21.1785 C   0  0  0  0  0  0  0  0  0  0  0  0
  -23.1613  -11.0256   19.5791 C   0  0  0  0  0  0  0  0  0  0  0  0
  -22.7172  -13.4270   20.9142 C   0  0  0  0  0  0  0  0  0  0  0  0
  -22.3477  -18.3769   19.9107 C   0  0  0  0  0  0  0  0  0  0  0  0
  -18.0860  -26.9136   23.0110 C   0  0  0  0  0  0  0  0  0  0  0  0
  -19.4601  -28.8283   23.5429 C   0  0  0  0  0  0  0  0  0  0  0  0
  -31.6928  -29.2287   19.9682 C   0  0  0  0  0  0  0  0  0  0  0  0
  -31.1145  -27.3524   21.3761 C   0  0  0  0  0  0  0  0  0  0  0  0
  -21.4827  -19.1253   20.7077 C   0  0  0  0  0  0  0  0  0  0  0  0
  -34.4187  -25.9524   21.9599 C   0  0  0  0  0  0  0  0  0  0  0  0
  -34.8378  -24.6256   21.8632 C   0  0  0  0  0  0  0  0  0  0  0  0
  -23.3617  -19.9053   22.0040 C   0  0  0  0  0  0  0  0  0  0  0  0
  -20.0361  -27.4099   21.6738 C   0  0  0  0  0  0  0  0  0  0  0  0
  -34.0538  -24.5444   19.5793 C   0  0  0  0  0  0  0  0  0  0  0  0
  -29.3722  -28.6943   20.3758 C   0  0  0  0  0  0  0  0  0  0  0  0
  -27.1444  -28.4634   19.1545 C   0  0  0  0  0  0  0  0  0  0  0  0
  -24.2573  -11.7540   20.0678 C   0  0  0  0  0  0  0  0  0  0  0  0
  -23.7274  -18.3784   20.1615 C   0  0  0  0  0  0  0  0  0  0  0  0
  -24.0340  -12.9638   20.7525 C   0  0  0  0  0  0  0  0  0  0  0  0
  -24.2423  -19.1580   21.2070 C   0  0  0  0  0  0  0  0  0  0  0  0
  -18.9281  -26.6062   21.9422 C   0  0  0  0  0  0  0  0  0  0  0  0
  -20.3021  -28.5209   22.4742 C   0  0  0  0  0  0  0  0  0  0  0  0
  -32.0808  -28.1560   20.7709 C   0  0  0  0  0  0  0  0  0  0  0  0
  -21.9893  -19.8874   21.7564 C   0  0  0  0  0  0  0  0  0  0  0  0
  -33.8171  -26.5753   20.8663 C   0  0  0  0  0  0  0  0  0  0  0  0
  -34.6554  -23.9216   20.6729 C   0  0  0  0  0  0  0  0  0  0  0  0
  -33.6347  -25.8713   19.6760 C   0  0  0  0  0  0  0  0  0  0  0  0
  -27.9730  -28.9722   20.1726 C   0  0  0  0  0  0  0  0  0  0  0  0
  -25.9152  -29.0251   19.3996 C   0  0  0  0  0  0  0  0  0  0  0  0
  -18.2788  -23.0804   22.0557 C   0  0  0  0  0  0  0  0  0  0  0  0
  -27.4578  -27.5635   18.0833 C   0  0  0  0  0  0  0  0  0  0  0  0
  -25.8628  -16.1671   20.9698 C   0  0  0  0  0  0  0  0  0  0  0  0
  -27.9662  -18.5984   20.5378 C   0  0  0  0  0  0  0  0  0  0  0  0
  -28.5274  -21.9637   20.4556 C   0  0  0  0  0  0  0  0  0  0  0  0
  -21.8330  -30.4765   22.8970 C   0  0  0  0  0  0  0  0  0  0  0  0
  -25.6423  -11.1802   19.9022 C   0  0  0  0  0  0  0  0  0  0  0  0
  -24.6500  -17.5868   19.2758 C   0  0  0  0  0  0  0  0  0  0  0  0
  -25.7178  -19.2099   21.5052 C   0  0  0  0  0  0  0  0  0  0  0  0
  -26.7553  -12.1992   20.1324 C   0  0  0  0  0  0  0  0  0  0  0  0
  -24.5618  -32.7388   22.5616 C   0  0  0  0  0  0  0  0  0  0  0  0
  -26.4884  -13.0040   21.4004 C   0  0  0  0  0  0  0  0  0  0  0  0
  -25.6244  -31.9187   21.8264 C   0  0  0  0  0  0  0  0  0  0  0  0
  -23.7720  -31.8855   23.5525 C   0  0  0  0  0  0  0  0  0  0  0  0
  -20.2879  -23.6887   22.1507 C   0  0  0  0  0  0  0  0  0  0  0  0
  -24.2419  -29.8464   22.2524 C   0  0  0  0  0  0  0  0  0  0  0  0
  -25.1800  -13.7955   21.2863 C   0  0  1  0  0  0  0  0  0  0  0  0
  -19.5532  -22.3998   22.6090 C   0  0  2  0  0  0  0  0  0  0  0  0
  -25.9819  -17.2575   19.9429 C   0  0  1  0  0  0  0  0  0  0  0  0
  -25.0199  -30.6485   21.1964 C   0  0  2  0  0  0  0  0  0  0  0  0
  -30.3560  -23.6481   20.1150 C   0  0  0  0  0  0  0  0  0  0  0  0
  -29.0161  -18.0226   23.3442 C   0  0  0  0  0  0  0  0  0  0  0  0
  -30.1292  -20.2649   23.3125 C   0  0  0  0  0  0  0  0  0  0  0  0
  -30.7865  -18.5245   21.6507 C   0  0  0  0  0  0  0  0  0  0  0  0
  -27.1752  -23.1262   18.0936 C   0  0  0  0  0  0  0  0  0  0  0  0
  -18.6413  -25.4103   21.0811 C   0  0  0  0  0  0  0  0  0  0  0  0
  -19.9552  -21.1083   21.9234 C   0  0  0  0  0  0  0  0  0  1  0  0
  -28.5485  -19.6775   21.4184 C   0  0  1  0  0  0  0  0  0  0  0  0
  -29.2528  -22.8397   19.4502 C   0  0  2  0  0  0  0  0  0  0  0  0
  -29.5920  -19.1201   22.4273 C   0  0  0  0  0  0  0  0  0  0  0  0
  -27.3250  -29.7940   21.0024 N   0  0  0  0  0  0  0  0  0  0  0  0
  -26.0761  -29.8060   20.5061 N   0  0  0  0  0  0  0  0  0  0  0  0
  -18.9873  -24.1853   21.7337 N   0  0  0  0  0  0  0  0  0  0  0  0
  -26.5785  -18.4136   20.6150 N   0  0  0  0  0  0  0  0  0  0  0  0
  -23.2256  -30.7025   22.8841 N   0  0  0  0  0  0  0  0  0  0  0  0
  -24.7233  -28.9223   18.7742 N   0  0  0  0  0  0  0  0  0  0  0  0
  -28.7696  -27.0812   17.9780 N   0  0  0  0  0  0  0  0  0  0  0  0
  -21.4272  -29.3380   22.2014 N   0  0  0  0  0  0  0  0  0  0  0  0
  -25.3726  -14.9754   20.4708 N   0  0  0  0  0  0  0  0  0  0  0  0
  -29.0735  -20.6992   20.5191 N   0  0  0  0  0  0  0  0  0  0  0  0
  -28.2996  -23.7866   18.8054 N   0  3  0  0  0  0  0  0  0  0  0  0
  -17.1129  -22.7833   21.9321 O   0  0  0  0  0  0  0  0  0  0  0  0
  -26.6041  -27.2108   17.2346 O   0  0  0  0  0  0  0  0  0  0  0  0
  -26.1928  -16.3899   22.1287 O   0  0  0  0  0  0  0  0  0  0  0  0
  -28.7141  -17.9485   19.8030 O   0  0  0  0  0  0  0  0  0  0  0  0
  -27.5741  -22.3625   21.1210 O   0  0  0  0  0  0  0  0  0  0  0  0
  -21.0549  -31.2516   23.4589 O   0  0  0  0  0  0  0  0  0  0  0  0
  -33.4022  -27.8929   20.9637 O   0  0  0  0  0  0  0  0  0  0  0  0
  -21.1471  -20.6183   22.5363 O   0  0  0  0  0  0  0  0  0  1  0  0
  -35.0593  -22.6479   20.5797 F   0  0  0  0  0  0  0  0  0  0  0  0
  -33.0585  -26.4647   18.6217 F   0  0  0  0  0  0  0  0  0  0  0  0
  1  2  1  0  0  0  0
  1  6  2  0  0  0  0
  2  7  2  0  0  0  0
  3  9  2  0  0  0  0
  3 10  1  0  0  0  0
  4 11  2  0  0  0  0
  4 19  1  0  0  0  0
  5 12  1  0  0  0  0
  5 19  2  0  0  0  0
  6 21  1  0  0  0  0
  7 23  1  0  0  0  0
  8 13  2  0  0  0  0
  8 22  1  0  0  0  0
  9 25  1  0  0  0  0
 10 26  2  0  0  0  0
 11 27  1  0  0  0  0
 12 27  2  0  0  0  0
 13 28  1  0  0  0  0
 14 15  2  0  0  0  0
 14 29  1  0  0  0  0
 15 30  1  0  0  0  0
 16 24  1  0  0  0  0
 16 28  2  0  0  0  0
 17 25  2  0  0  0  0
 17 26  1  0  0  0  0
 18 30  2  0  0  0  0
 18 31  1  0  0  0  0
 19 32  1  0  0  0  0
 20 32  1  0  0  0  0
 20 33  2  0  0  0  0
 20 35  1  0  0  0  0
 21 23  2  0  0  0  0
 21 40  1  0  0  0  0
 22 24  2  0  0  0  0
 22 41  1  0  0  0  0
 23 50  1  0  0  0  0
 24 42  1  0  0  0  0
 25 59  1  0  0  0  0
 26 71  1  0  0  0  0
 27 81  1  0  0  0  0
 28 82  1  0  0  0  0
 29 31  2  0  0  0  0
 29 81  1  0  0  0  0
 30 83  1  0  0  0  0
 31 84  1  0  0  0  0
 32 64  2  0  0  0  0
 33 65  1  0  0  0  0
 33 69  1  0  0  0  0
 34 51  1  0  0  0  0
 34 66  1  0  0  0  0
 34 75  2  0  0  0  0
 35 70  1  0  0  0  0
 35 76  2  0  0  0  0
 36 52  1  0  0  0  0
 36 72  1  0  0  0  0
 36 77  2  0  0  0  0
 37 61  1  0  0  0  0
 37 67  1  0  0  0  0
 37 78  2  0  0  0  0
 38 62  1  0  0  0  0
 38 73  1  0  0  0  0
 38 79  2  0  0  0  0
 39 68  1  0  0  0  0
 39 71  1  0  0  0  0
 39 80  2  0  0  0  0
 40 43  1  0  0  0  0
 41 52  1  0  0  0  0
 42 67  1  0  0  0  0
 43 45  1  0  0  0  0
 44 46  1  0  0  0  0
 44 47  1  0  0  0  0
 45 50  1  0  0  0  0
 46 53  1  0  0  0  0
 47 68  1  0  0  0  0
 48 51  1  0  0  0  0
 48 66  1  0  0  0  0
 49 53  1  0  0  0  0
 49 68  1  0  0  0  0
 50 72  1  0  0  0  0
 51 60  1  0  0  0  0
 52 67  1  0  0  0  0
 53 65  1  0  0  0  0
 54 62  1  0  0  0  0
 55 63  1  0  0  0  0
 56 63  1  0  0  0  0
 57 63  1  0  0  0  0
 58 74  1  0  0  0  0
 59 66  1  0  0  0  0
 60 82  1  0  0  0  0
 61 63  1  0  0  0  0
 61 73  1  0  0  0  0
 62 74  1  0  0  0  0
 64 65  1  0  0  0  0
M  CHG  1  74   1
M  ISO  4  39 100  60 101  71 100  82 101
M  END
> <Batch ID>
0015

> <Smiles>
CNC(C)C(=O)NC(C(=O)N1Cc2cc([101O:1][101CH2:1]C3CN(Cc4cccc([100NH:0][100C:0](=O)N5CCCC(n6nc(-c7ccc(Oc8ccc(F)cc8F)cc7)c(C(N)=O)c6N)C5)c4)C3=O)ccc2CC1C(=O)NC1CCCc2ccccc21)C(C)(C)C

> <Shape>
0.247

> <Color>
0.080

> <Negative vol penalty>
0.000

$$$$

  -OEChem-04042320543D

 85 93  0     1  0  0  0  0  0999 V2000
  -16.8325  -28.9334   24.2448 C   0  0  0  0  0  0  0  0  0  0  0  0
  -17.2348  -28.1415   23.1741 C   0  0  0  0  0  0  0  0  0  0  0  0
  -25.8268  -14.0525   20.6700 C   0  0  0  0  0  0  0  0  0  0  0  0
  -23.4974  -13.9081   21.2946 C   0  0  0  0  0  0  0  0  0  0  0  0
  -17.5580  -30.0772   24.5757 C   0  0  0  0  0  0  0  0  0  0  0  0
  -18.3622  -28.4935   22.4329 C   0  0  0  0  0  0  0  0  0  0  0  0
  -22.3958  -24.6872   19.8350 C   0  0  0  0  0  0  0  0  0  0  0  0
  -28.4576  -21.3435   18.9565 C   0  0  0  0  0  0  0  0  0  0  0  0
  -28.5872  -21.0129   20.3054 C   0  0  0  0  0  0  0  0  0  0  0  0
  -26.0052  -12.7157   21.0260 C   0  0  0  0  0  0  0  0  0  0  0  0
  -23.6758  -12.5712   21.6506 C   0  0  0  0  0  0  0  0  0  0  0  0
  -22.5349  -24.2160   18.5303 C   0  0  0  0  0  0  0  0  0  0  0  0
  -23.9024   -9.5865   20.0819 C   0  0  0  0  0  0  0  0  0  0  0  0
  -22.9397   -8.6706   19.6579 C   0  0  0  0  0  0  0  0  0  0  0  0
  -24.1555  -25.9463   18.0845 C   0  0  0  0  0  0  0  0  0  0  0  0
  -26.6754  -22.8800   19.5045 C   0  0  0  0  0  0  0  0  0  0  0  0
  -22.4675   -8.1019   21.9581 C   0  0  0  0  0  0  0  0  0  0  0  0
  -24.5729  -14.6487   20.8043 C   0  0  0  0  0  0  0  0  0  0  0  0
  -24.0184  -16.5317   19.1751 C   0  0  0  0  0  0  0  0  0  0  0  0
  -18.7005  -30.4381   23.8442 C   0  0  0  0  0  0  0  0  0  0  0  0
  -23.1287  -25.8002   20.2717 C   0  0  0  0  0  0  0  0  0  0  0  0
  -19.1029  -29.6438   22.7535 C   0  0  0  0  0  0  0  0  0  0  0  0
  -24.0258  -26.4281   19.3960 C   0  0  0  0  0  0  0  0  0  0  0  0
  -27.5017  -22.2772   18.5561 C   0  0  0  0  0  0  0  0  0  0  0  0
  -27.7610  -21.6157   21.2538 C   0  0  0  0  0  0  0  0  0  0  0  0
  -24.9297  -11.9750   21.5163 C   0  0  0  0  0  0  0  0  0  0  0  0
  -23.4127  -24.8472   17.6539 C   0  0  0  0  0  0  0  0  0  0  0  0
  -24.1477   -9.7602   21.4441 C   0  0  0  0  0  0  0  0  0  0  0  0
  -22.2223   -7.9283   20.5959 C   0  0  0  0  0  0  0  0  0  0  0  0
  -26.8051  -22.5493   20.8534 C   0  0  0  0  0  0  0  0  0  0  0  0
  -23.4303   -9.0179   22.3821 C   0  0  0  0  0  0  0  0  0  0  0  0
  -24.3882  -16.0297   20.4373 C   0  0  0  0  0  0  0  0  0  0  0  0
  -23.9788  -17.8940   19.3456 C   0  0  0  0  0  0  0  0  0  0  0  0
  -23.7359  -15.8294   17.9575 C   0  0  0  0  0  0  0  0  0  0  0  0
  -22.3819  -28.7012   21.3347 C   0  0  0  0  0  0  0  0  0  0  0  0
  -25.5755  -28.9033   21.8659 C   0  0  0  0  0  0  0  0  0  0  0  0
  -28.7168  -27.8240   21.0824 C   0  0  0  0  0  0  0  0  0  0  0  0
  -26.8244  -21.3029   23.5595 C   0  0  0  0  0  0  0  0  0  0  0  0
  -19.4251  -31.7092   24.2100 C   0  0  0  0  0  0  0  0  0  0  0  0
  -22.9871  -26.2798   21.6903 C   0  0  0  0  0  0  0  0  0  0  0  0
  -24.8508  -27.6141   19.8218 C   0  0  0  0  0  0  0  0  0  0  0  0
  -20.8244  -31.8075   23.6078 C   0  0  0  0  0  0  0  0  0  0  0  0
  -23.2352  -21.2568   22.6603 C   0  0  0  0  0  0  0  0  0  0  0  0
  -20.7976  -31.4287   22.1304 C   0  0  0  0  0  0  0  0  0  0  0  0
  -23.0796  -19.9112   21.9540 C   0  0  0  0  0  0  0  0  0  0  0  0
  -24.3554  -21.2268   23.6956 C   0  0  0  0  0  0  0  0  0  0  0  0
  -25.5153  -19.4396   22.4299 C   0  0  0  0  0  0  0  0  0  0  0  0
  -20.3348  -29.9790   21.9409 C   0  0  1  0  0  0  0  0  0  0  0  0
  -23.4009  -27.7368   21.8725 C   0  0  1  0  0  0  0  0  0  0  0  0
  -24.4198  -19.4557   21.3534 C   0  0  1  0  0  0  0  0  0  0  0  0
  -31.2104  -27.5974   21.2499 C   0  0  0  0  0  0  0  0  0  0  0  0
  -25.5554  -31.4867   20.2424 C   0  0  0  0  0  0  0  0  0  0  0  0
  -28.0444  -31.3007   20.0460 C   0  0  0  0  0  0  0  0  0  0  0  0
  -26.9876  -31.5534   22.2915 C   0  0  0  0  0  0  0  0  0  0  0  0
  -29.2468  -21.1358   23.1910 C   0  0  0  0  0  0  0  0  0  0  0  0
  -28.5008  -25.6025   23.0259 C   0  0  0  0  0  0  0  0  0  0  0  0
  -26.3460  -20.5402   16.2144 C   0  0  0  0  0  0  0  0  0  0  0  0
  -27.3613  -22.6322   17.1051 C   0  0  0  0  0  0  0  0  0  0  0  0
  -24.2211  -22.5440   15.0026 C   0  0  0  0  0  0  0  0  0  0  0  0
  -25.7096  -22.7440   15.2450 C   0  0  0  0  0  0  0  0  0  0  0  0
  -23.3448  -22.9938   16.1652 C   0  0  0  0  0  0  0  0  0  1  0  0
  -26.7670  -29.3576   21.0579 C   0  0  1  0  0  0  0  0  0  0  0  0
  -29.8797  -27.3893   21.9560 C   0  0  2  0  0  0  0  0  0  0  0  0
  -26.8218  -30.9035   20.9005 C   0  0  0  0  0  0  0  0  0  0  0  0
  -24.5707  -16.9946   21.3427 N   0  0  0  0  0  0  0  0  0  0  0  0
  -24.3146  -18.1165   20.6487 N   0  0  0  0  0  0  0  0  0  0  0  0
  -24.6724  -28.0495   21.2168 N   0  0  0  0  0  0  0  0  0  0  0  0
  -25.6097  -20.7343   23.1241 N   0  0  0  0  0  0  0  0  0  0  0  0
  -23.6900  -18.9113   18.5065 N   0  0  0  0  0  0  0  0  0  0  0  0
  -23.8234  -14.4306   17.9573 N   0  0  0  0  0  0  0  0  0  0  0  0
  -21.4102  -29.0608   22.2490 N   0  0  0  0  0  0  0  0  0  0  0  0
  -27.9416  -28.7806   21.7028 N   0  0  0  0  0  0  0  0  0  0  0  0
  -27.8970  -21.2714   22.6480 N   0  0  0  0  0  0  0  0  0  0  0  0
  -29.7538  -25.9461   22.3056 N   0  3  0  0  0  0  0  0  0  0  0  0
  -26.1429  -22.0159   16.4605 N   0  3  1  0  0  0  0  0  0  0  0  0
  -23.4314  -16.4257   16.8967 O   0  0  0  0  0  0  0  0  0  0  0  0
  -22.4714  -29.0914   20.1765 O   0  0  0  0  0  0  0  0  0  0  0  0
  -25.4544  -29.2860   23.0323 O   0  0  0  0  0  0  0  0  0  0  0  0
  -28.5184  -27.3637   19.9602 O   0  0  0  0  0  0  0  0  0  0  0  0
  -26.9617  -21.7576   24.7018 O   0  0  0  0  0  0  0  0  0  0  0  0
  -25.1033  -10.6705   21.8635 O   0  0  0  0  0  0  0  0  0  0  0  0
  -23.5499  -24.3897   16.3797 O   0  0  0  0  0  0  0  0  0  1  0  0
  -21.2968   -7.0498   20.1886 F   0  0  0  0  0  0  0  0  0  0  0  0
  -26.0046  -23.1339   21.7561 F   0  0  0  0  0  0  0  0  0  0  0  0
  -23.6607   -9.1812   23.6921 F   0  0  0  0  0  0  0  0  0  0  0  0
  1  2  1  0  0  0  0
  1  5  2  0  0  0  0
  2  6  2  0  0  0  0
  3 10  2  0  0  0  0
  3 18  1  0  0  0  0
  4 11  1  0  0  0  0
  4 18  2  0  0  0  0
  5 20  1  0  0  0  0
  6 22  1  0  0  0  0
  7 12  2  0  0  0  0
  7 21  1  0  0  0  0
  8  9  2  0  0  0  0
  8 24  1  0  0  0  0
  9 25  1  0  0  0  0
 10 26  1  0  0  0  0
 11 26  2  0  0  0  0
 12 27  1  0  0  0  0
 13 14  2  0  0  0  0
 13 28  1  0  0  0  0
 14 29  1  0  0  0  0
 15 23  1  0  0  0  0
 15 27  2  0  0  0  0
 16 24  2  0  0  0  0
 16 30  1  0  0  0  0
 17 29  2  0  0  0  0
 17 31  1  0  0  0  0
 18 32  1  0  0  0  0
 19 32  1  0  0  0  0
 19 33  2  0  0  0  0
 19 34  1  0  0  0  0
 20 22  2  0  0  0  0
 20 39  1  0  0  0  0
 21 23  2  0  0  0  0
 21 40  1  0  0  0  0
 22 48  1  0  0  0  0
 23 41  1  0  0  0  0
 24 58  1  0  0  0  0
 25 30  2  0  0  0  0
 25 73  1  0  0  0  0
 26 81  1  0  0  0  0
 27 82  1  0  0  0  0
 28 31  2  0  0  0  0
 28 81  1  0  0  0  0
 29 83  1  0  0  0  0
 30 84  1  0  0  0  0
 31 85  1  0  0  0  0
 32 65  2  0  0  0  0
 33 66  1  0  0  0  0
 33 69  1  0  0  0  0
 34 70  1  0  0  0  0
 34 76  2  0  0  0  0
 35 49  1  0  0  0  0
 35 71  1  0  0  0  0
 35 77  2  0  0  0  0
 36 62  1  0  0  0  0
 36 67  1  0  0  0  0
 36 78  2  0  0  0  0
 37 63  1  0  0  0  0
 37 72  1  0  0  0  0
 37 79  2  0  0  0  0
 38 68  1  0  0  0  0
 38 73  1  0  0  0  0
 38 80  2  0  0  0  0
 39 42  1  0  0  0  0
 40 49  1  0  0  0  0
 41 67  1  0  0  0  0
 42 44  1  0  0  0  0
 43 45  1  0  0  0  0
 43 46  1  0  0  0  0
 44 48  1  0  0  0  0
 45 50  1  0  0  0  0
 46 68  1  0  0  0  0
 47 50  1  0  0  0  0
 47 68  1  0  0  0  0
 48 71  1  0  0  0  0
 49 67  1  0  0  0  0
 50 66  1  0  0  0  0
 51 63  1  0  0  0  0
 52 64  1  0  0  0  0
 53 64  1  0  0  0  0
 54 64  1  0  0  0  0
 55 73  1  0  0  0  0
 56 74  1  0  0  0  0
 57 75  1  0  0  0  0
 58 75  1  0  0  0  0
 59 60  1  0  0  0  0
 59 61  1  0  0  0  0
 60 75  1  0  0  0  0
 61 82  1  0  0  0  0
 62 64  1  0  0  0  0
 62 72  1  0  0  0  0
 63 74  1  0  0  0  0
 65 66  1  0  0  0  0
M  CHG  2  74   1  75   1
M  ISO  4  38 100  61 101  73 100  82 101
M  END
> <Batch ID>
0015

> <Smiles>
CNC(C)C(=O)NC(C(=O)N1Cc2cc([101O:1][101CH2:1]CCN(C)Cc3ccc([100N:0](C)[100C:0](=O)N4CCCC(n5nc(-c6ccc(Oc7ccc(F)cc7F)cc6)c(C(N)=O)c5N)C4)c(F)c3)ccc2CC1C(=O)NC1CCCc2ccccc21)C(C)(C)C

> <Shape>
0.216

> <Color>
0.075

> <Negative vol penalty>
0.000

$$$$

  -OEChem-04042320543D

 85 93  0     1  0  0  0  0  0999 V2000
  -26.0143  -13.5513   30.8921 C   0  0  0  0  0  0  0  0  0  0  0  0
  -26.8329  -14.2368   30.0003 C   0  0  0  0  0  0  0  0  0  0  0  0
  -23.1709   -9.8482   19.9137 C   0  0  0  0  0  0  0  0  0  0  0  0
  -23.8271   -9.9032   22.2382 C   0  0  0  0  0  0  0  0  0  0  0  0
  -24.7146  -13.2089   30.5215 C   0  0  0  0  0  0  0  0  0  0  0  0
  -26.3526  -14.5794   28.7368 C   0  0  0  0  0  0  0  0  0  0  0  0
  -26.9192  -19.6855   23.7445 C   0  0  0  0  0  0  0  0  0  0  0  0
  -26.7913  -15.1256   15.2171 C   0  0  0  0  0  0  0  0  0  0  0  0
  -27.4699  -13.9103   15.3074 C   0  0  0  0  0  0  0  0  0  0  0  0
  -22.4431   -8.6813   20.1467 C   0  0  0  0  0  0  0  0  0  0  0  0
  -23.0993   -8.7363   22.4713 C   0  0  0  0  0  0  0  0  0  0  0  0
  -27.1833  -19.8370   22.3839 C   0  0  0  0  0  0  0  0  0  0  0  0
  -19.8665   -7.8710   22.9412 C   0  0  0  0  0  0  0  0  0  0  0  0
  -19.0591   -7.8287   24.0777 C   0  0  0  0  0  0  0  0  0  0  0  0
  -24.8945  -19.2633   21.8821 C   0  0  0  0  0  0  0  0  0  0  0  0
  -28.5103  -16.1841   16.5445 C   0  0  0  0  0  0  0  0  0  0  0  0
  -20.3103   -5.9308   24.8960 C   0  0  0  0  0  0  0  0  0  0  0  0
  -23.8629  -10.4592   20.9594 C   0  0  0  0  0  0  0  0  0  0  0  0
  -24.1519  -12.9899   20.8188 C   0  0  0  0  0  0  0  0  0  0  0  0
  -24.2148  -13.5560   29.2564 C   0  0  0  0  0  0  0  0  0  0  0  0
  -25.6416  -19.3105   24.1842 C   0  0  0  0  0  0  0  0  0  0  0  0
  -25.0454  -14.2402   28.3485 C   0  0  0  0  0  0  0  0  0  0  0  0
  -24.6162  -19.1102   23.2489 C   0  0  0  0  0  0  0  0  0  0  0  0
  -27.3116  -16.2626   15.8356 C   0  0  0  0  0  0  0  0  0  0  0  0
  -28.6686  -13.8318   16.0162 C   0  0  0  0  0  0  0  0  0  0  0  0
  -22.4073   -8.1254   21.4255 C   0  0  0  0  0  0  0  0  0  0  0  0
  -26.1716  -19.6231   21.4523 C   0  0  0  0  0  0  0  0  0  0  0  0
  -20.8958   -6.9431   22.7819 C   0  0  0  0  0  0  0  0  0  0  0  0
  -19.2810   -6.8587   25.0552 C   0  0  0  0  0  0  0  0  0  0  0  0
  -29.1889  -14.9687   16.6348 C   0  0  0  0  0  0  0  0  0  0  0  0
  -21.1177   -5.9731   23.7594 C   0  0  0  0  0  0  0  0  0  0  0  0
  -24.6153  -11.6643   20.7192 C   0  0  0  0  0  0  0  0  0  0  0  0
  -25.2418  -13.7599   20.4938 C   0  0  0  0  0  0  0  0  0  0  0  0
  -22.8525  -13.4812   21.1736 C   0  0  0  0  0  0  0  0  0  0  0  0
  -24.4567  -16.8290   25.7786 C   0  0  0  0  0  0  0  0  0  0  0  0
  -21.7257  -18.5775   25.6962 C   0  0  0  0  0  0  0  0  0  0  0  0
  -26.4880  -18.6762   17.9833 C   0  0  0  0  0  0  0  0  0  0  0  0
  -19.8899  -21.0130   24.1648 C   0  0  0  0  0  0  0  0  0  0  0  0
  -30.1704  -12.2147   17.2081 C   0  0  0  0  0  0  0  0  0  0  0  0
  -22.8191  -13.1228   28.8834 C   0  0  0  0  0  0  0  0  0  0  0  0
  -25.3660  -19.1773   25.6568 C   0  0  0  0  0  0  0  0  0  0  0  0
  -23.2223  -18.7260   23.6705 C   0  0  0  0  0  0  0  0  0  0  0  0
  -22.2604  -13.8520   27.6642 C   0  0  0  0  0  0  0  0  0  0  0  0
  -30.0211  -13.7496   20.5719 C   0  0  0  0  0  0  0  0  0  0  0  0
  -23.2947  -13.8885   26.5437 C   0  0  0  0  0  0  0  0  0  0  0  0
  -28.6006  -13.4248   21.0303 C   0  0  0  0  0  0  0  0  0  0  0  0
  -30.5574  -12.7003   19.6028 C   0  0  0  0  0  0  0  0  0  0  0  0
  -28.2523  -12.1539   18.8751 C   0  0  0  0  0  0  0  0  0  0  0  0
  -24.5521  -14.6512   26.9781 C   0  0  1  0  0  0  0  0  0  0  0  0
  -24.1622  -18.2910   25.9617 C   0  0  1  0  0  0  0  0  0  0  0  0
  -27.6744  -13.2175   19.8206 C   0  0  1  0  0  0  0  0  0  0  0  0
  -17.6807  -22.1952   24.3034 C   0  0  0  0  0  0  0  0  0  0  0  0
  -20.3459  -16.1347   24.4966 C   0  0  0  0  0  0  0  0  0  0  0  0
  -18.4658  -17.6299   23.7910 C   0  0  0  0  0  0  0  0  0  0  0  0
  -18.9980  -17.3563   26.2127 C   0  0  0  0  0  0  0  0  0  0  0  0
  -29.4570  -11.7502   14.9044 C   0  0  0  0  0  0  0  0  0  0  0  0
  -24.5407  -17.3755   17.1064 C   0  0  0  0  0  0  0  0  0  0  0  0
  -21.1897  -23.6370   24.5939 C   0  0  0  0  0  0  0  0  0  0  0  0
  -26.5808  -17.5706   15.7396 C   0  0  0  0  0  0  0  0  0  0  0  0
  -25.6683  -18.9627   19.2238 C   0  0  0  0  0  0  0  0  0  1  0  0
  -20.5602  -18.6957   24.7439 C   0  0  1  0  0  0  0  0  0  0  0  0
  -19.1428  -22.2114   24.7217 C   0  0  2  0  0  0  0  0  0  0  0  0
  -19.6191  -17.4595   24.8027 C   0  0  0  0  0  0  0  0  0  0  0  0
  -25.8995  -11.5927   20.3589 N   0  0  0  0  0  0  0  0  0  0  0  0
  -26.2523  -12.8829   20.2292 N   0  0  0  0  0  0  0  0  0  0  0  0
  -23.0042  -18.6019   25.1212 N   0  0  0  0  0  0  0  0  0  0  0  0
  -29.6370  -12.4700   18.4882 N   0  0  0  0  0  0  0  0  0  0  0  0
  -25.4248  -15.0949   20.4113 N   0  0  0  0  0  0  0  0  0  0  0  0
  -21.8476  -12.5530   21.4785 N   0  0  0  0  0  0  0  0  0  0  0  0
  -24.3189  -16.0787   26.9308 N   0  0  0  0  0  0  0  0  0  0  0  0
  -19.9047  -19.9611   25.0562 N   0  0  0  0  0  0  0  0  0  0  0  0
  -29.3679  -12.5736   16.1084 N   0  0  0  0  0  0  0  0  0  0  0  0
  -25.8932  -17.9052   16.9840 N   0  0  0  0  0  0  0  0  0  0  0  0
  -19.7575  -23.4779   24.2328 N   0  3  0  0  0  0  0  0  0  0  0  0
  -22.5859  -14.7065   21.2029 O   0  0  0  0  0  0  0  0  0  0  0  0
  -24.7831  -16.4122   24.6734 O   0  0  0  0  0  0  0  0  0  0  0  0
  -21.5098  -18.4747   26.9064 O   0  0  0  0  0  0  0  0  0  0  0  0
  -27.6307  -19.1380   17.9077 O   0  0  0  0  0  0  0  0  0  0  0  0
  -20.4054  -21.0090   23.0491 O   0  0  0  0  0  0  0  0  0  0  0  0
  -31.2625  -11.6542   17.0542 O   0  0  0  0  0  0  0  0  0  0  0  0
  -21.6971   -6.9869   21.6533 O   0  0  0  0  0  0  0  0  0  0  0  0
  -26.4268  -19.7696   20.1237 O   0  0  0  0  0  0  0  0  0  1  0  0
  -18.5065   -6.8192   26.1473 F   0  0  0  0  0  0  0  0  0  0  0  0
  -30.3395  -14.9045   17.3199 F   0  0  0  0  0  0  0  0  0  0  0  0
  -22.1058   -5.0798   23.6126 F   0  0  0  0  0  0  0  0  0  0  0  0
  1  2  1  0  0  0  0
  1  5  2  0  0  0  0
  2  6  2  0  0  0  0
  3 10  2  0  0  0  0
  3 18  1  0  0  0  0
  4 11  1  0  0  0  0
  4 18  2  0  0  0  0
  5 20  1  0  0  0  0
  6 22  1  0  0  0  0
  7 12  2  0  0  0  0
  7 21  1  0  0  0  0
  8  9  2  0  0  0  0
  8 24  1  0  0  0  0
  9 25  1  0  0  0  0
 10 26  1  0  0  0  0
 11 26  2  0  0  0  0
 12 27  1  0  0  0  0
 13 14  2  0  0  0  0
 13 28  1  0  0  0  0
 14 29  1  0  0  0  0
 15 23  1  0  0  0  0
 15 27  2  0  0  0  0
 16 24  2  0  0  0  0
 16 30  1  0  0  0  0
 17 29  2  0  0  0  0
 17 31  1  0  0  0  0
 18 32  1  0  0  0  0
 19 32  1  0  0  0  0
 19 33  2  0  0  0  0
 19 34  1  0  0  0  0
 20 22  2  0  0  0  0
 20 40  1  0  0  0  0
 21 23  2  0  0  0  0
 21 41  1  0  0  0  0
 22 49  1  0  0  0  0
 23 42  1  0  0  0  0
 24 59  1  0  0  0  0
 25 30  2  0  0  0  0
 25 72  1  0  0  0  0
 26 81  1  0  0  0  0
 27 82  1  0  0  0  0
 28 31  2  0  0  0  0
 28 81  1  0  0  0  0
 29 83  1  0  0  0  0
 30 84  1  0  0  0  0
 31 85  1  0  0  0  0
 32 64  2  0  0  0  0
 33 65  1  0  0  0  0
 33 68  1  0  0  0  0
 34 69  1  0  0  0  0
 34 75  2  0  0  0  0
 35 50  1  0  0  0  0
 35 70  1  0  0  0  0
 35 76  2  0  0  0  0
 36 61  1  0  0  0  0
 36 66  1  0  0  0  0
 36 77  2  0  0  0  0
 37 60  1  0  0  0  0
 37 73  1  0  0  0  0
 37 78  2  0  0  0  0
 38 62  1  0  0  0  0
 38 71  1  0  0  0  0
 38 79  2  0  0  0  0
 39 67  1  0  0  0  0
 39 72  1  0  0  0  0
 39 80  2  0  0  0  0
 40 43  1  0  0  0  0
 41 50  1  0  0  0  0
 42 66  1  0  0  0  0
 43 45  1  0  0  0  0
 44 46  1  0  0  0  0
 44 47  1  0  0  0  0
 45 49  1  0  0  0  0
 46 51  1  0  0  0  0
 47 67  1  0  0  0  0
 48 51  1  0  0  0  0
 48 67  1  0  0  0  0
 49 70  1  0  0  0  0
 50 66  1  0  0  0  0
 51 65  1  0  0  0  0
 52 62  1  0  0  0  0
 53 63  1  0  0  0  0
 54 63  1  0  0  0  0
 55 63  1  0  0  0  0
 56 72  1  0  0  0  0
 57 73  1  0  0  0  0
 58 74  1  0  0  0  0
 59 73  1  0  0  0  0
 60 82  1  0  0  0  0
 61 63  1  0  0  0  0
 61 71  1  0  0  0  0
 62 74  1  0  0  0  0
 64 65  1  0  0  0  0
M  CHG  1  74   1
M  ISO  4  39 100  60 101  72 100  82 101
M  END
> <Batch ID>
0015

> <Smiles>
CNC(C)C(=O)NC(C(=O)N1Cc2cc([101O:1][101CH2:1]C(=O)N(C)Cc3ccc([100N:0](C)[100C:0](=O)N4CCCC(n5nc(-c6ccc(Oc7ccc(F)cc7F)cc6)c(C(N)=O)c5N)C4)c(F)c3)ccc2CC1C(=O)NC1CCCc2ccccc21)C(C)(C)C

> <Shape>
0.151

> <Color>
0.178

> <Negative vol penalty>
0.000

$$$$

  -OEChem-04042320543D

 82 90  0     1  0  0  0  0  0999 V2000
  -35.8843  -31.1724   20.0880 C   0  0  0  0  0  0  0  0  0  0  0  0
  -35.9659  -30.0121   20.8512 C   0  0  0  0  0  0  0  0  0  0  0  0
  -23.0446   -9.9682   19.8682 C   0  0  0  0  0  0  0  0  0  0  0  0
  -23.9072   -9.7577   22.1151 C   0  0  0  0  0  0  0  0  0  0  0  0
  -34.6520  -31.7974   19.9014 C   0  0  0  0  0  0  0  0  0  0  0  0
  -34.8153  -29.4767   21.4290 C   0  0  0  0  0  0  0  0  0  0  0  0
  -33.5360  -23.5471   22.2711 C   0  0  0  0  0  0  0  0  0  0  0  0
  -29.9970  -17.2351   23.4676 C   0  0  0  0  0  0  0  0  0  0  0  0
  -30.6256  -18.0307   24.4254 C   0  0  0  0  0  0  0  0  0  0  0  0
  -22.3109   -8.7944   20.0399 C   0  0  0  0  0  0  0  0  0  0  0  0
  -23.1734   -8.5839   22.2868 C   0  0  0  0  0  0  0  0  0  0  0  0
  -33.6499  -22.7114   23.3813 C   0  0  0  0  0  0  0  0  0  0  0  0
  -19.9744   -7.7235   22.9551 C   0  0  0  0  0  0  0  0  0  0  0  0
  -19.2710   -7.5697   24.1497 C   0  0  0  0  0  0  0  0  0  0  0  0
  -31.3272  -23.0997   23.9042 C   0  0  0  0  0  0  0  0  0  0  0  0
  -32.1514  -16.4538   22.7026 C   0  0  0  0  0  0  0  0  0  0  0  0
  -20.5411   -5.5740   24.6406 C   0  0  0  0  0  0  0  0  0  0  0  0
  -23.8428  -10.4498   20.9058 C   0  0  0  0  0  0  0  0  0  0  0  0
  -24.1831  -12.9757   21.0127 C   0  0  0  0  0  0  0  0  0  0  0  0
  -33.4843  -31.2640   20.4692 C   0  0  0  0  0  0  0  0  0  0  0  0
  -32.3177  -24.1750   21.9749 C   0  0  0  0  0  0  0  0  0  0  0  0
  -33.5665  -30.0958   21.2509 C   0  0  0  0  0  0  0  0  0  0  0  0
  -31.1998  -23.9408   22.7883 C   0  0  0  0  0  0  0  0  0  0  0  0
  -30.7599  -16.4466   22.6062 C   0  0  0  0  0  0  0  0  0  0  0  0
  -32.0171  -18.0380   24.5218 C   0  0  0  0  0  0  0  0  0  0  0  0
  -22.3752   -8.1023   21.2492 C   0  0  0  0  0  0  0  0  0  0  0  0
  -32.5462  -22.4899   24.1997 C   0  0  0  0  0  0  0  0  0  0  0  0
  -20.9611   -6.8025   22.6032 C   0  0  0  0  0  0  0  0  0  0  0  0
  -19.5543   -6.4949   24.9925 C   0  0  0  0  0  0  0  0  0  0  0  0
  -32.7801  -17.2495   23.6604 C   0  0  0  0  0  0  0  0  0  0  0  0
  -21.2445   -5.7278   23.4459 C   0  0  0  0  0  0  0  0  0  0  0  0
  -24.6015  -11.6619   20.7288 C   0  0  0  0  0  0  0  0  0  0  0  0
  -25.2590  -13.7594   20.6740 C   0  0  0  0  0  0  0  0  0  0  0  0
  -22.9337  -13.4457   21.5359 C   0  0  0  0  0  0  0  0  0  0  0  0
  -31.3406  -27.1930   21.7724 C   0  0  0  0  0  0  0  0  0  0  0  0
  -28.5966  -25.8247   20.7140 C   0  0  0  0  0  0  0  0  0  0  0  0
  -26.5782  -23.0743   20.6232 C   0  0  0  0  0  0  0  0  0  0  0  0
  -30.7292  -14.7981   20.7015 C   0  0  0  0  0  0  0  0  0  0  0  0
  -32.1823  -32.0012   20.2789 C   0  0  0  0  0  0  0  0  0  0  0  0
  -32.2042  -25.0524   20.7585 C   0  0  0  0  0  0  0  0  0  0  0  0
  -29.8640  -24.5751   22.5021 C   0  0  0  0  0  0  0  0  0  0  0  0
  -30.9523  -31.1616   20.6144 C   0  0  0  0  0  0  0  0  0  0  0  0
  -29.5051  -12.6190   18.1657 C   0  0  0  0  0  0  0  0  0  0  0  0
  -31.1472  -30.4358   21.9418 C   0  0  0  0  0  0  0  0  0  0  0  0
  -28.0858  -12.2838   18.6298 C   0  0  0  0  0  0  0  0  0  0  0  0
  -30.4739  -12.7342   19.3412 C   0  0  0  0  0  0  0  0  0  0  0  0
  -28.6324  -13.3181   20.8700 C   0  0  0  0  0  0  0  0  0  0  0  0
  -32.3369  -29.4707   21.8734 C   0  0  1  0  0  0  0  0  0  0  0  0
  -31.0508  -26.0471   20.8447 C   0  0  1  0  0  0  0  0  0  0  0  0
  -27.6071  -13.2558   19.7261 C   0  0  2  0  0  0  0  0  0  0  0  0
  -24.3833  -22.2709   19.7097 C   0  0  0  0  0  0  0  0  0  0  0  0
  -27.1239  -27.4087   22.8661 C   0  0  0  0  0  0  0  0  0  0  0  0
  -25.1614  -25.8879   22.5442 C   0  0  0  0  0  0  0  0  0  0  0  0
  -25.9549  -27.3135   20.6573 C   0  0  0  0  0  0  0  0  0  0  0  0
  -34.1054  -18.8499   25.5895 C   0  0  0  0  0  0  0  0  0  0  0  0
  -27.8862  -20.9498   19.0312 C   0  0  0  0  0  0  0  0  0  0  0  0
  -31.8832  -19.6770   26.3808 C   0  0  0  0  0  0  0  0  0  0  0  0
  -31.4824  -20.9667   25.6844 C   0  0  0  0  0  0  0  0  0  1  0  0
  -27.3339  -25.3170   21.3673 C   0  0  1  0  0  0  0  0  0  0  0  0
  -25.8816  -22.3737   19.4706 C   0  0  2  0  0  0  0  0  0  0  0  0
  -26.4191  -26.4712   21.8655 C   0  0  0  0  0  0  0  0  0  0  0  0
  -25.8460  -11.6099   20.2467 N   0  0  0  0  0  0  0  0  0  0  0  0
  -26.2189  -12.9009   20.2250 N   0  0  0  0  0  0  0  0  0  0  0  0
  -29.8052  -25.4298   21.3048 N   0  0  0  0  0  0  0  0  0  0  0  0
  -29.9568  -13.6749   20.3376 N   0  0  0  0  0  0  0  0  0  0  0  0
  -25.4681  -15.0923   20.7194 N   0  0  0  0  0  0  0  0  0  0  0  0
  -21.9365  -12.5057   21.8299 N   0  0  0  0  0  0  0  0  0  0  0  0
  -30.1210  -15.6388   21.6330 N   0  0  0  0  0  0  0  0  0  0  0  0
  -31.9685  -28.2637   21.1651 N   0  0  0  0  0  0  0  0  0  0  0  0
  -26.7013  -24.4291   20.3979 N   0  0  0  0  0  0  0  0  0  0  0  0
  -32.6460  -18.8389   25.4844 N   0  0  3  0  0  0  0  0  0  0  0  0
  -26.4253  -20.9970   19.2967 N   0  3  0  0  0  0  0  0  0  0  0  0
  -22.7023  -14.6645   21.7214 O   0  0  0  0  0  0  0  0  0  0  0  0
  -31.0172  -27.1123   22.9517 O   0  0  0  0  0  0  0  0  0  0  0  0
  -28.5138  -26.5393   19.7119 O   0  0  0  0  0  0  0  0  0  0  0  0
  -26.9703  -22.4799   21.6249 O   0  0  0  0  0  0  0  0  0  0  0  0
  -31.8363  -15.0138   20.2018 O   0  0  0  0  0  0  0  0  0  0  0  0
  -21.6592   -6.9570   21.4172 O   0  0  0  0  0  0  0  0  0  0  0  0
  -32.6547  -21.6752   25.2843 O   0  0  0  0  0  0  0  0  0  1  0  0
  -18.8798   -6.3482   26.1404 F   0  0  0  0  0  0  0  0  0  0  0  0
  -34.1181  -17.2502   23.7434 F   0  0  0  0  0  0  0  0  0  0  0  0
  -22.1922   -4.8404   23.1138 F   0  0  0  0  0  0  0  0  0  0  0  0
  1  2  1  0  0  0  0
  1  5  2  0  0  0  0
  2  6  2  0  0  0  0
  3 10  2  0  0  0  0
  3 18  1  0  0  0  0
  4 11  1  0  0  0  0
  4 18  2  0  0  0  0
  5 20  1  0  0  0  0
  6 22  1  0  0  0  0
  7 12  2  0  0  0  0
  7 21  1  0  0  0  0
  8  9  2  0  0  0  0
  8 24  1  0  0  0  0
  9 25  1  0  0  0  0
 10 26  1  0  0  0  0
 11 26  2  0  0  0  0
 12 27  1  0  0  0  0
 13 14  2  0  0  0  0
 13 28  1  0  0  0  0
 14 29  1  0  0  0  0
 15 23  1  0  0  0  0
 15 27  2  0  0  0  0
 16 24  2  0  0  0  0
 16 30  1  0  0  0  0
 17 29  2  0  0  0  0
 17 31  1  0  0  0  0
 18 32  1  0  0  0  0
 19 32  1  0  0  0  0
 19 33  2  0  0  0  0
 19 34  1  0  0  0  0
 20 22  2  0  0  0  0
 20 39  1  0  0  0  0
 21 23  2  0  0  0  0
 21 40  1  0  0  0  0
 22 48  1  0  0  0  0
 23 41  1  0  0  0  0
 24 68  1  0  0  0  0
 25 30  2  0  0  0  0
 25 71  1  0  0  0  0
 26 78  1  0  0  0  0
 27 79  1  0  0  0  0
 28 31  2  0  0  0  0
 28 78  1  0  0  0  0
 29 80  1  0  0  0  0
 30 81  1  0  0  0  0
 31 82  1  0  0  0  0
 32 62  2  0  0  0  0
 33 63  1  0  0  0  0
 33 66  1  0  0  0  0
 34 67  1  0  0  0  0
 34 73  2  0  0  0  0
 35 49  1  0  0  0  0
 35 69  1  0  0  0  0
 35 74  2  0  0  0  0
 36 59  1  0  0  0  0
 36 64  1  0  0  0  0
 36 75  2  0  0  0  0
 37 60  1  0  0  0  0
 37 70  1  0  0  0  0
 37 76  2  0  0  0  0
 38 65  1  0  0  0  0
 38 68  1  0  0  0  0
 38 77  2  0  0  0  0
 39 42  1  0  0  0  0
 40 49  1  0  0  0  0
 41 64  1  0  0  0  0
 42 44  1  0  0  0  0
 43 45  1  0  0  0  0
 43 46  1  0  0  0  0
 44 48  1  0  0  0  0
 45 50  1  0  0  0  0
 46 65  1  0  0  0  0
 47 50  1  0  0  0  0
 47 65  1  0  0  0  0
 48 69  1  0  0  0  0
 49 64  1  0  0  0  0
 50 63  1  0  0  0  0
 51 60  1  0  0  0  0
 52 61  1  0  0  0  0
 53 61  1  0  0  0  0
 54 61  1  0  0  0  0
 55 71  1  0  0  0  0
 56 72  1  0  0  0  0
 57 58  1  0  0  0  0
 57 71  1  0  0  0  0
 58 79  1  0  0  0  0
 59 61  1  0  0  0  0
 59 70  1  0  0  0  0
 60 72  1  0  0  0  0
 62 63  1  0  0  0  0
M  CHG  1  72   1
M  ISO  4  38 100  58 101  68 100  79 101
M  END
> <Batch ID>
0015

> <Smiles>
CNC(C)C(=O)NC(C(=O)N1Cc2cc([101O:1][101CH2:1]CN(C)c3ccc([100NH:0][100C:0](=O)N4CCCC(n5nc(-c6ccc(Oc7ccc(F)cc7F)cc6)c(C(N)=O)c5N)C4)cc3F)ccc2CC1C(=O)NC1CCCc2ccccc21)C(C)(C)C

> <Shape>
0.211

> <Color>
0.214

> <Negative vol penalty>
0.000

$$$$

  -OEChem-04042320543D

 83 92  0     1  0  0  0  0  0999 V2000
  -17.0750  -27.7477   24.1046 C   0  0  0  0  0  0  0  0  0  0  0  0
  -17.7523  -27.0000   23.1467 C   0  0  0  0  0  0  0  0  0  0  0  0
  -22.4943  -12.5884   18.7054 C   0  0  0  0  0  0  0  0  0  0  0  0
  -22.7734  -10.4255   19.7450 C   0  0  0  0  0  0  0  0  0  0  0  0
  -17.4618  -29.0620   24.3630 C   0  0  0  0  0  0  0  0  0  0  0  0
  -18.8163  -27.5667   22.4458 C   0  0  0  0  0  0  0  0  0  0  0  0
  -22.7933  -24.4509   22.0991 C   0  0  0  0  0  0  0  0  0  0  0  0
  -27.4056  -17.5657   18.6083 C   0  0  0  0  0  0  0  0  0  0  0  0
  -26.4823  -17.7978   20.8288 C   0  0  0  0  0  0  0  0  0  0  0  0
  -28.5205  -16.9175   19.1396 C   0  0  0  0  0  0  0  0  0  0  0  0
  -27.5972  -17.1495   21.3602 C   0  0  0  0  0  0  0  0  0  0  0  0
  -21.3896  -12.1080   18.0023 C   0  0  0  0  0  0  0  0  0  0  0  0
  -21.6687   -9.9450   19.0419 C   0  0  0  0  0  0  0  0  0  0  0  0
  -22.7221  -23.4305   21.1517 C   0  0  0  0  0  0  0  0  0  0  0  0
  -18.1243  -11.4823   18.6185 C   0  0  0  0  0  0  0  0  0  0  0  0
  -16.9858  -12.2867   18.5718 C   0  0  0  0  0  0  0  0  0  0  0  0
  -24.0845  -24.7377   19.6502 C   0  0  0  0  0  0  0  0  0  0  0  0
  -17.1360  -12.3592   16.1615 C   0  0  0  0  0  0  0  0  0  0  0  0
  -23.1862  -11.7472   19.5767 C   0  0  0  0  0  0  0  0  0  0  0  0
  -24.3290  -12.8525   21.5717 C   0  0  0  0  0  0  0  0  0  0  0  0
  -18.5373  -29.6419   23.6718 C   0  0  0  0  0  0  0  0  0  0  0  0
  -23.5028  -25.6289   21.8245 C   0  0  0  0  0  0  0  0  0  0  0  0
  -19.2171  -28.8904   22.6943 C   0  0  0  0  0  0  0  0  0  0  0  0
  -24.1653  -25.7705   20.5968 C   0  0  0  0  0  0  0  0  0  0  0  0
  -26.3865  -18.0059   19.4529 C   0  0  0  0  0  0  0  0  0  0  0  0
  -28.6163  -16.7094   20.5155 C   0  0  0  0  0  0  0  0  0  0  0  0
  -20.9767  -10.7863   18.1706 C   0  0  0  0  0  0  0  0  0  0  0  0
  -23.3653  -23.5750   19.9259 C   0  0  0  0  0  0  0  0  0  0  0  0
  -18.7688  -11.1164   17.4368 C   0  0  0  0  0  0  0  0  0  0  0  0
  -16.4916  -12.7251   17.3433 C   0  0  0  0  0  0  0  0  0  0  0  0
  -18.2746  -11.5549   16.2083 C   0  0  0  0  0  0  0  0  0  0  0  0
  -24.3278  -12.2428   20.3029 C   0  0  0  0  0  0  0  0  0  0  0  0
  -25.6503  -13.1386   21.8140 C   0  0  0  0  0  0  0  0  0  0  0  0
  -23.2336  -13.1351   22.4526 C   0  0  0  0  0  0  0  0  0  0  0  0
  -22.7371  -28.7047   21.5861 C   0  0  0  0  0  0  0  0  0  0  0  0
  -25.9466  -29.0805   21.3032 C   0  0  0  0  0  0  0  0  0  0  0  0
  -28.9612  -27.7149   20.4702 C   0  0  0  0  0  0  0  0  0  0  0  0
  -30.4749  -15.0662   20.3234 C   0  0  0  0  0  0  0  0  0  0  0  0
  -18.8886  -31.0816   23.9520 C   0  0  0  0  0  0  0  0  0  0  0  0
  -23.5924  -26.7090   22.8674 C   0  0  0  0  0  0  0  0  0  0  0  0
  -24.9570  -27.0069   20.2609 C   0  0  0  0  0  0  0  0  0  0  0  0
  -20.2660  -31.4848   23.4317 C   0  0  0  0  0  0  0  0  0  0  0  0
  -29.8393  -11.6942   19.3911 C   0  0  0  0  0  0  0  0  0  0  0  0
  -20.4617  -30.9920   22.0015 C   0  0  0  0  0  0  0  0  0  0  0  0
  -28.3353  -11.5887   19.6408 C   0  0  0  0  0  0  0  0  0  0  0  0
  -30.2266  -13.0465   18.7917 C   0  0  0  0  0  0  0  0  0  0  0  0
  -28.2408  -14.1045   19.8222 C   0  0  0  0  0  0  0  0  0  0  0  0
  -24.3495  -20.6791   17.7060 C   0  0  0  0  0  0  0  0  0  0  0  0
  -25.2261  -21.0527   19.5646 C   0  0  0  0  0  0  0  0  0  0  0  0
  -20.3921  -29.4618   21.9308 C   0  0  1  0  0  0  0  0  0  0  0  0
  -23.9138  -28.0803   22.2813 C   0  0  1  0  0  0  0  0  0  0  0  0
  -27.8298  -12.7769   20.4779 C   0  0  1  0  0  0  0  0  0  0  0  0
  -24.5099  -21.9579   18.5472 C   0  0  0  0  0  0  0  0  0  1  0  0
  -31.4010  -28.2786   20.3052 C   0  0  0  0  0  0  0  0  0  0  0  0
  -25.4124  -30.6284   18.7286 C   0  0  0  0  0  0  0  0  0  0  0  0
  -27.8267  -30.3357   18.1339 C   0  0  0  0  0  0  0  0  0  0  0  0
  -27.1944  -31.6082   20.1842 C   0  0  0  0  0  0  0  0  0  0  0  0
  -30.3495  -16.5505   22.3124 C   0  0  0  0  0  0  0  0  0  0  0  0
  -29.6908  -25.6560   22.4670 C   0  0  0  0  0  0  0  0  0  0  0  0
  -25.1873  -18.7032   18.8813 C   0  0  0  0  0  0  0  0  0  0  0  0
  -26.9240  -29.0946   20.1528 C   0  0  1  0  0  0  0  0  0  0  0  0
  -30.2990  -27.7132   21.1876 C   0  0  2  0  0  0  0  0  0  0  0  0
  -26.8229  -30.3941   19.3051 C   0  0  0  0  0  0  0  0  0  0  0  0
  -25.5513  -12.1468   19.7758 N   0  0  0  0  0  0  0  0  0  0  0  0
  -26.3336  -12.7001   20.7181 N   0  0  0  0  0  0  0  0  0  0  0  0
  -25.0096  -28.0376   21.3109 N   0  0  0  0  0  0  0  0  0  0  0  0
  -29.6883  -14.1487   19.6014 N   0  0  0  0  0  0  0  0  0  0  0  0
  -26.2827  -13.7199   22.8554 N   0  0  0  0  0  0  0  0  0  0  0  0
  -21.9409  -12.7747   22.0482 N   0  0  0  0  0  0  0  0  0  0  0  0
  -21.6314  -28.8775   22.3968 N   0  0  0  0  0  0  0  0  0  0  0  0
  -28.2417  -28.8612   20.7339 N   0  0  0  0  0  0  0  0  0  0  0  0
  -29.7704  -16.0381   21.0659 N   0  0  0  0  0  0  0  0  0  0  0  0
  -25.4683  -20.0958   18.4690 N   0  3  0  0  0  0  0  0  0  0  0  0
  -30.6755  -26.3252   21.5784 N   0  3  0  0  0  0  0  0  0  0  0  0
  -23.3944  -13.7055   23.5582 O   0  0  0  0  0  0  0  0  0  0  0  0
  -22.8262  -29.0086   20.4023 O   0  0  0  0  0  0  0  0  0  0  0  0
  -26.0166  -29.9583   22.1670 O   0  0  0  0  0  0  0  0  0  0  0  0
  -28.5930  -26.7934   19.7451 O   0  0  0  0  0  0  0  0  0  0  0  0
  -31.7103  -15.0058   20.3257 O   0  0  0  0  0  0  0  0  0  0  0  0
  -19.8986  -10.3171   17.4849 O   0  0  0  0  0  0  0  0  0  0  0  0
  -23.2968  -22.5809   18.9992 O   0  0  0  0  0  0  0  0  0  1  0  0
  -15.3973  -13.4963   17.2984 F   0  0  0  0  0  0  0  0  0  0  0  0
  -18.8888  -11.2056   15.0696 F   0  0  0  0  0  0  0  0  0  0  0  0
  1  2  1  0  0  0  0
  1  5  2  0  0  0  0
  2  6  2  0  0  0  0
  3 12  2  0  0  0  0
  3 19  1  0  0  0  0
  4 13  1  0  0  0  0
  4 19  2  0  0  0  0
  5 21  1  0  0  0  0
  6 23  1  0  0  0  0
  7 14  2  0  0  0  0
  7 22  1  0  0  0  0
  8 10  2  0  0  0  0
  8 25  1  0  0  0  0
  9 11  1  0  0  0  0
  9 25  2  0  0  0  0
 10 26  1  0  0  0  0
 11 26  2  0  0  0  0
 12 27  1  0  0  0  0
 13 27  2  0  0  0  0
 14 28  1  0  0  0  0
 15 16  2  0  0  0  0
 15 29  1  0  0  0  0
 16 30  1  0  0  0  0
 17 24  1  0  0  0  0
 17 28  2  0  0  0  0
 18 30  2  0  0  0  0
 18 31  1  0  0  0  0
 19 32  1  0  0  0  0
 20 32  1  0  0  0  0
 20 33  2  0  0  0  0
 20 34  1  0  0  0  0
 21 23  2  0  0  0  0
 21 39  1  0  0  0  0
 22 24  2  0  0  0  0
 22 40  1  0  0  0  0
 23 50  1  0  0  0  0
 24 41  1  0  0  0  0
 25 60  1  0  0  0  0
 26 72  1  0  0  0  0
 27 80  1  0  0  0  0
 28 81  1  0  0  0  0
 29 31  2  0  0  0  0
 29 80  1  0  0  0  0
 30 82  1  0  0  0  0
 31 83  1  0  0  0  0
 32 64  2  0  0  0  0
 33 65  1  0  0  0  0
 33 68  1  0  0  0  0
 34 69  1  0  0  0  0
 34 75  2  0  0  0  0
 35 51  1  0  0  0  0
 35 70  1  0  0  0  0
 35 76  2  0  0  0  0
 36 61  1  0  0  0  0
 36 66  1  0  0  0  0
 36 77  2  0  0  0  0
 37 62  1  0  0  0  0
 37 71  1  0  0  0  0
 37 78  2  0  0  0  0
 38 67  1  0  0  0  0
 38 72  1  0  0  0  0
 38 79  2  0  0  0  0
 39 42  1  0  0  0  0
 40 51  1  0  0  0  0
 41 66  1  0  0  0  0
 42 44  1  0  0  0  0
 43 45  1  0  0  0  0
 43 46  1  0  0  0  0
 44 50  1  0  0  0  0
 45 52  1  0  0  0  0
 46 67  1  0  0  0  0
 47 52  1  0  0  0  0
 47 67  1  0  0  0  0
 48 53  1  0  0  0  0
 48 73  1  0  0  0  0
 49 53  1  0  0  0  0
 49 73  1  0  0  0  0
 50 70  1  0  0  0  0
 51 66  1  0  0  0  0
 52 65  1  0  0  0  0
 53 81  1  0  0  0  0
 54 62  1  0  0  0  0
 55 63  1  0  0  0  0
 56 63  1  0  0  0  0
 57 63  1  0  0  0  0
 58 72  1  0  0  0  0
 59 74  1  0  0  0  0
 60 73  1  0  0  0  0
 61 63  1  0  0  0  0
 61 71  1  0  0  0  0
 62 74  1  0  0  0  0
 64 65  1  0  0  0  0
M  CHG  2  73   1  74   1
M  ISO  4  38 100  53 101  72 100  81 101
M  END
> <Batch ID>
0015

> <Smiles>
CNC(C)C(=O)NC(C(=O)N1Cc2cc([101O:1][101CH:1]3CN(Cc4ccc([100N:0](C)[100C:0](=O)N5CCCC(n6nc(-c7ccc(Oc8ccc(F)cc8F)cc7)c(C(N)=O)c6N)C5)cc4)C3)ccc2CC1C(=O)NC1CCCc2ccccc21)C(C)(C)C

> <Shape>
0.238

> <Color>
0.123

> <Negative vol penalty>
0.000

$$$$

  -OEChem-04042320543D

 85 93  0     1  0  0  0  0  0999 V2000
  -31.4170  -25.2910   17.9788 C   0  0  0  0  0  0  0  0  0  0  0  0
  -30.0483  -25.0756   18.1045 C   0  0  0  0  0  0  0  0  0  0  0  0
  -27.6030  -14.9190   19.6859 C   0  0  0  0  0  0  0  0  0  0  0  0
  -25.2185  -15.2091   19.4267 C   0  0  0  0  0  0  0  0  0  0  0  0
  -32.1014  -26.0089   18.9587 C   0  0  0  0  0  0  0  0  0  0  0  0
  -29.3635  -25.5770   19.2109 C   0  0  0  0  0  0  0  0  0  0  0  0
  -23.6202  -27.6997   19.3336 C   0  0  0  0  0  0  0  0  0  0  0  0
  -27.3997  -13.5949   20.0745 C   0  0  0  0  0  0  0  0  0  0  0  0
  -25.0152  -13.8850   19.8153 C   0  0  0  0  0  0  0  0  0  0  0  0
  -22.4128  -27.1169   19.7162 C   0  0  0  0  0  0  0  0  0  0  0  0
  -23.8421  -10.6880   21.0854 C   0  0  0  0  0  0  0  0  0  0  0  0
  -22.8247  -10.4310   22.0043 C   0  0  0  0  0  0  0  0  0  0  0  0
  -22.6335  -28.1101   21.9034 C   0  0  0  0  0  0  0  0  0  0  0  0
  -20.2755  -22.5030   21.9262 C   0  0  0  0  0  0  0  0  0  0  0  0
  -22.5785  -23.5231   23.1255 C   0  0  0  0  0  0  0  0  0  0  0  0
  -23.9193  -11.8598   23.6159 C   0  0  0  0  0  0  0  0  0  0  0  0
  -26.5124  -15.7262   19.3620 C   0  0  0  0  0  0  0  0  0  0  0  0
  -26.9222  -17.5756   17.6535 C   0  0  0  0  0  0  0  0  0  0  0  0
  -31.4228  -26.5277   20.0727 C   0  0  0  0  0  0  0  0  0  0  0  0
  -24.3499  -28.4844   20.2381 C   0  0  0  0  0  0  0  0  0  0  0  0
  -30.0397  -26.3014   20.2072 C   0  0  0  0  0  0  0  0  0  0  0  0
  -23.8486  -28.7038   21.5291 C   0  0  0  0  0  0  0  0  0  0  0  0
  -20.1716  -23.3294   23.0451 C   0  0  0  0  0  0  0  0  0  0  0  0
  -22.6824  -22.6967   22.0067 C   0  0  0  0  0  0  0  0  0  0  0  0
  -26.1058  -13.0779   20.1392 C   0  0  0  0  0  0  0  0  0  0  0  0
  -21.9207  -27.3197   21.0022 C   0  0  0  0  0  0  0  0  0  0  0  0
  -24.8982  -11.5309   21.4318 C   0  0  0  0  0  0  0  0  0  0  0  0
  -22.8633  -11.0169   23.2696 C   0  0  0  0  0  0  0  0  0  0  0  0
  -21.5309  -22.1866   21.4070 C   0  0  0  0  0  0  0  0  0  0  0  0
  -21.3230  -23.8395   23.6447 C   0  0  0  0  0  0  0  0  0  0  0  0
  -24.9367  -12.1169   22.6970 C   0  0  0  0  0  0  0  0  0  0  0  0
  -26.7217  -17.0942   18.9611 C   0  0  0  0  0  0  0  0  0  0  0  0
  -27.0699  -18.9326   17.8061 C   0  0  0  0  0  0  0  0  0  0  0  0
  -26.9706  -16.8602   16.4119 C   0  0  0  0  0  0  0  0  0  0  0  0
  -27.2327  -28.2855   21.5625 C   0  0  0  0  0  0  0  0  0  0  0  0
  -26.4720  -31.2162   22.7264 C   0  0  0  0  0  0  0  0  0  0  0  0
  -24.0394  -33.4478   23.5919 C   0  0  0  0  0  0  0  0  0  0  0  0
  -25.1989  -22.8011   21.9582 C   0  0  0  0  0  0  0  0  0  0  0  0
  -32.2138  -27.2568   21.1298 C   0  0  0  0  0  0  0  0  0  0  0  0
  -25.6374  -29.1279   19.8014 C   0  0  0  0  0  0  0  0  0  0  0  0
  -24.5836  -29.5545   22.5313 C   0  0  0  0  0  0  0  0  0  0  0  0
  -31.3469  -28.0758   22.0826 C   0  0  0  0  0  0  0  0  0  0  0  0
  -28.5662  -22.2047   20.9667 C   0  0  0  0  0  0  0  0  0  0  0  0
  -30.1529  -27.2541   22.5578 C   0  0  0  0  0  0  0  0  0  0  0  0
  -28.4925  -20.8733   20.2156 C   0  0  0  0  0  0  0  0  0  0  0  0
  -27.6108  -22.2372   22.1583 C   0  0  0  0  0  0  0  0  0  0  0  0
  -26.1424  -20.5698   21.0940 C   0  0  0  0  0  0  0  0  0  0  0  0
  -29.2572  -26.8506   21.3803 C   0  0  1  0  0  0  0  0  0  0  0  0
  -26.5522  -29.4863   20.9685 C   0  0  1  0  0  0  0  0  0  0  0  0
  -27.0398  -20.5138   19.8469 C   0  0  2  0  0  0  0  0  0  0  0  0
  -23.7247  -35.7458   24.5500 C   0  0  0  0  0  0  0  0  0  0  0  0
  -27.1269  -30.1440   25.5069 C   0  0  0  0  0  0  0  0  0  0  0  0
  -25.9136  -32.1088   26.4742 C   0  0  0  0  0  0  0  0  0  0  0  0
  -27.9413  -32.4671   25.0662 C   0  0  0  0  0  0  0  0  0  0  0  0
  -22.6725  -34.4059   21.1480 C   0  0  0  0  0  0  0  0  0  0  0  0
  -17.5251  -25.5123   24.6610 C   0  0  0  0  0  0  0  0  0  0  0  0
  -18.8197  -23.6684   23.6004 C   0  0  0  0  0  0  0  0  0  0  0  0
  -18.4958  -27.1338   22.1257 C   0  0  0  0  0  0  0  0  0  0  0  0
  -18.1561  -25.6567   22.2562 C   0  0  0  0  0  0  0  0  0  0  0  0
  -19.9693  -27.4466   22.3557 C   0  0  0  0  0  0  0  0  0  1  0  0
  -25.7863  -31.7275   23.9704 C   0  0  1  0  0  0  0  0  0  0  0  0
  -23.8685  -34.9234   23.2789 C   0  0  2  0  0  0  0  0  0  0  0  0
  -26.6789  -31.5942   25.2364 C   0  0  0  0  0  0  0  0  0  0  0  0
  -26.7400  -18.0663   19.8769 N   0  0  0  0  0  0  0  0  0  0  0  0
  -26.9537  -19.1721   19.1438 N   0  0  0  0  0  0  0  0  0  0  0  0
  -25.8411  -30.1570   22.0588 N   0  0  0  0  0  0  0  0  0  0  0  0
  -26.2530  -21.8907   21.7325 N   0  0  0  0  0  0  0  0  0  0  0  0
  -27.2866  -19.9324   16.9253 N   0  0  0  0  0  0  0  0  0  0  0  0
  -26.7996  -15.4693   16.4352 N   0  0  0  0  0  0  0  0  0  0  0  0
  -23.9590  -22.3772   21.4813 N   0  0  0  0  0  0  0  0  0  0  0  0
  -28.4367  -27.9676   20.9635 N   0  0  0  0  0  0  0  0  0  0  0  0
  -25.3695  -33.0939   23.6743 N   0  0  0  0  0  0  0  0  0  0  0  0
  -22.6551  -35.1379   22.4406 N   0  3  0  0  0  0  0  0  0  0  0  0
  -18.5333  -25.1508   23.5968 N   0  3  1  0  0  0  0  0  0  0  0  0
  -27.1762  -17.4353   15.3162 O   0  0  0  0  0  0  0  0  0  0  0  0
  -26.7052  -27.6924   22.4961 O   0  0  0  0  0  0  0  0  0  0  0  0
  -27.5247  -31.7422   22.3566 O   0  0  0  0  0  0  0  0  0  0  0  0
  -23.0881  -32.6862   23.7514 O   0  0  0  0  0  0  0  0  0  0  0  0
  -25.3878  -23.8893   22.5078 O   0  0  0  0  0  0  0  0  0  0  0  0
  -25.9071  -11.7858   20.5181 O   0  0  0  0  0  0  0  0  0  0  0  0
  -20.7428  -26.7516   21.3784 O   0  0  0  0  0  0  0  0  0  1  0  0
  -21.8854  -10.7711   24.1513 F   0  0  0  0  0  0  0  0  0  0  0  0
  -21.6190  -21.3912   20.3313 F   0  0  0  0  0  0  0  0  0  0  0  0
  -21.2331  -24.6342   24.7201 F   0  0  0  0  0  0  0  0  0  0  0  0
  -25.9481  -12.9284   23.0351 F   0  0  0  0  0  0  0  0  0  0  0  0
  1  2  1  0  0  0  0
  1  5  2  0  0  0  0
  2  6  2  0  0  0  0
  3  8  2  0  0  0  0
  3 17  1  0  0  0  0
  4  9  1  0  0  0  0
  4 17  2  0  0  0  0
  5 19  1  0  0  0  0
  6 21  1  0  0  0  0
  7 10  2  0  0  0  0
  7 20  1  0  0  0  0
  8 25  1  0  0  0  0
  9 25  2  0  0  0  0
 10 26  1  0  0  0  0
 11 12  2  0  0  0  0
 11 27  1  0  0  0  0
 12 28  1  0  0  0  0
 13 22  1  0  0  0  0
 13 26  2  0  0  0  0
 14 23  1  0  0  0  0
 14 29  2  0  0  0  0
 15 24  2  0  0  0  0
 15 30  1  0  0  0  0
 16 28  2  0  0  0  0
 16 31  1  0  0  0  0
 17 32  1  0  0  0  0
 18 32  1  0  0  0  0
 18 33  2  0  0  0  0
 18 34  1  0  0  0  0
 19 21  2  0  0  0  0
 19 39  1  0  0  0  0
 20 22  2  0  0  0  0
 20 40  1  0  0  0  0
 21 48  1  0  0  0  0
 22 41  1  0  0  0  0
 23 30  2  0  0  0  0
 23 57  1  0  0  0  0
 24 29  1  0  0  0  0
 24 70  1  0  0  0  0
 25 80  1  0  0  0  0
 26 81  1  0  0  0  0
 27 31  2  0  0  0  0
 27 80  1  0  0  0  0
 28 82  1  0  0  0  0
 29 83  1  0  0  0  0
 30 84  1  0  0  0  0
 31 85  1  0  0  0  0
 32 64  2  0  0  0  0
 33 65  1  0  0  0  0
 33 68  1  0  0  0  0
 34 69  1  0  0  0  0
 34 75  2  0  0  0  0
 35 49  1  0  0  0  0
 35 71  1  0  0  0  0
 35 76  2  0  0  0  0
 36 61  1  0  0  0  0
 36 66  1  0  0  0  0
 36 77  2  0  0  0  0
 37 62  1  0  0  0  0
 37 72  1  0  0  0  0
 37 78  2  0  0  0  0
 38 67  1  0  0  0  0
 38 70  1  0  0  0  0
 38 79  2  0  0  0  0
 39 42  1  0  0  0  0
 40 49  1  0  0  0  0
 41 66  1  0  0  0  0
 42 44  1  0  0  0  0
 43 45  1  0  0  0  0
 43 46  1  0  0  0  0
 44 48  1  0  0  0  0
 45 50  1  0  0  0  0
 46 67  1  0  0  0  0
 47 50  1  0  0  0  0
 47 67  1  0  0  0  0
 48 71  1  0  0  0  0
 49 66  1  0  0  0  0
 50 65  1  0  0  0  0
 51 62  1  0  0  0  0
 52 63  1  0  0  0  0
 53 63  1  0  0  0  0
 54 63  1  0  0  0  0
 55 73  1  0  0  0  0
 56 74  1  0  0  0  0
 57 74  1  0  0  0  0
 58 59  1  0  0  0  0
 58 60  1  0  0  0  0
 59 74  1  0  0  0  0
 60 81  1  0  0  0  0
 61 63  1  0  0  0  0
 61 72  1  0  0  0  0
 62 73  1  0  0  0  0
 64 65  1  0  0  0  0
M  CHG  2  73   1  74   1
M  ISO  4  38 100  60 101  70 100  81 101
M  END
> <Batch ID>
0015

> <Smiles>
CNC(C)C(=O)NC(C(=O)N1Cc2cc([101O:1][101CH2:1]CCN(C)Cc3cc(F)c([100NH:0][100C:0](=O)N4CCCC(n5nc(-c6ccc(Oc7ccc(F)cc7F)cc6)c(C(N)=O)c5N)C4)cc3F)ccc2CC1C(=O)NC1CCCc2ccccc21)C(C)(C)C

> <Shape>
0.269

> <Color>
0.062

> <Negative vol penalty>
0.000

$$$$

  -OEChem-04042320543D

 82 90  0     1  0  0  0  0  0999 V2000
  -17.9332  -26.5874   23.5116 C   0  0  0  0  0  0  0  0  0  0  0  0
  -18.9528  -25.9790   22.7867 C   0  0  0  0  0  0  0  0  0  0  0  0
  -23.1270  -16.3837   22.0085 C   0  0  0  0  0  0  0  0  0  0  0  0
  -22.2973  -15.8025   19.8151 C   0  0  0  0  0  0  0  0  0  0  0  0
  -17.8415  -27.9781   23.5509 C   0  0  0  0  0  0  0  0  0  0  0  0
  -19.8808  -26.7609   22.0998 C   0  0  0  0  0  0  0  0  0  0  0  0
  -24.6383  -25.1531   22.7531 C   0  0  0  0  0  0  0  0  0  0  0  0
  -28.7436  -19.3873   21.9600 C   0  0  0  0  0  0  0  0  0  0  0  0
  -29.3070  -18.1246   22.1437 C   0  0  0  0  0  0  0  0  0  0  0  0
  -22.1035  -17.3211   22.1473 C   0  0  0  0  0  0  0  0  0  0  0  0
  -21.2737  -16.7398   19.9539 C   0  0  0  0  0  0  0  0  0  0  0  0
  -25.0412  -24.0403   22.0161 C   0  0  0  0  0  0  0  0  0  0  0  0
  -21.4364  -20.4569   21.0767 C   0  0  0  0  0  0  0  0  0  0  0  0
  -21.7737  -21.7143   21.5774 C   0  0  0  0  0  0  0  0  0  0  0  0
  -26.1414  -25.4930   20.4355 C   0  0  0  0  0  0  0  0  0  0  0  0
  -29.5746  -19.4283   19.6918 C   0  0  0  0  0  0  0  0  0  0  0  0
  -20.2604  -21.3820   23.4312 C   0  0  0  0  0  0  0  0  0  0  0  0
  -23.2240  -15.6244   20.8424 C   0  0  0  0  0  0  0  0  0  0  0  0
  -24.2479  -13.2991   21.0703 C   0  0  0  0  0  0  0  0  0  0  0  0
  -18.7746  -28.7776   22.8721 C   0  0  0  0  0  0  0  0  0  0  0  0
  -24.9752  -26.4469   22.3302 C   0  0  0  0  0  0  0  0  0  0  0  0
  -19.8008  -28.1635   22.1290 C   0  0  0  0  0  0  0  0  0  0  0  0
  -25.7437  -26.6204   21.1703 C   0  0  0  0  0  0  0  0  0  0  0  0
  -28.8774  -20.0391   20.7341 C   0  0  0  0  0  0  0  0  0  0  0  0
  -30.0042  -17.5137   21.1014 C   0  0  0  0  0  0  0  0  0  0  0  0
  -21.1768  -17.4992   21.1200 C   0  0  0  0  0  0  0  0  0  0  0  0
  -25.7904  -24.2103   20.8555 C   0  0  0  0  0  0  0  0  0  0  0  0
  -20.5110  -19.6621   21.7531 C   0  0  0  0  0  0  0  0  0  0  0  0
  -21.1857  -22.1769   22.7547 C   0  0  0  0  0  0  0  0  0  0  0  0
  -30.1381  -18.1655   19.8754 C   0  0  0  0  0  0  0  0  0  0  0  0
  -19.9230  -20.1246   22.9304 C   0  0  0  0  0  0  0  0  0  0  0  0
  -24.2814  -14.6564   20.6982 C   0  0  0  0  0  0  0  0  0  0  0  0
  -25.4881  -12.8184   20.7277 C   0  0  0  0  0  0  0  0  0  0  0  0
  -23.1903  -12.5406   21.6719 C   0  0  0  0  0  0  0  0  0  0  0  0
  -23.3287  -29.0135   21.4328 C   0  0  0  0  0  0  0  0  0  0  0  0
  -26.2597  -30.4029   21.4041 C   0  0  0  0  0  0  0  0  0  0  0  0
  -29.6422  -30.0262   21.1519 C   0  0  0  0  0  0  0  0  0  0  0  0
  -30.7308  -15.3032   20.2199 C   0  0  0  0  0  0  0  0  0  0  0  0
  -18.6069  -30.2761   22.9052 C   0  0  0  0  0  0  0  0  0  0  0  0
  -24.5557  -27.6356   23.1509 C   0  0  0  0  0  0  0  0  0  0  0  0
  -26.1488  -27.9873   20.6845 C   0  0  0  0  0  0  0  0  0  0  0  0
  -19.8512  -31.0383   22.4572 C   0  0  0  0  0  0  0  0  0  0  0  0
  -29.0615  -13.5196   17.6362 C   0  0  0  0  0  0  0  0  0  0  0  0
  -20.4140  -30.4347   21.1743 C   0  0  0  0  0  0  0  0  0  0  0  0
  -27.6286  -13.4872   18.1668 C   0  0  0  0  0  0  0  0  0  0  0  0
  -29.7446  -14.8590   17.9141 C   0  0  0  0  0  0  0  0  0  0  0  0
  -28.2734  -15.2370   19.8678 C   0  0  0  0  0  0  0  0  0  0  0  0
  -20.8411  -28.9780   21.3911 C   0  0  1  0  0  0  0  0  0  0  0  0
  -24.5174  -28.9323   22.3482 C   0  0  1  0  0  0  0  0  0  0  0  0
  -27.5812  -13.8819   19.6534 C   0  0  1  0  0  0  0  0  0  0  0  0
  -31.7750  -31.3483   21.1258 C   0  0  0  0  0  0  0  0  0  0  0  0
  -25.6772  -31.2816   18.5408 C   0  0  0  0  0  0  0  0  0  0  0  0
  -28.1229  -31.7353   18.2564 C   0  0  0  0  0  0  0  0  0  0  0  0
  -26.8089  -33.0084   19.9521 C   0  0  0  0  0  0  0  0  0  0  0  0
  -31.2498  -15.9179   22.5711 C   0  0  0  0  0  0  0  0  0  0  0  0
  -30.6591  -28.6529   23.5683 C   0  0  0  0  0  0  0  0  0  0  0  0
  -28.0338  -21.8625   19.2544 C   0  0  0  0  0  0  0  0  0  0  0  0
  -27.4076  -23.2384   19.4078 C   0  0  0  0  0  0  0  0  0  1  0  0
  -27.3510  -30.5755   20.3753 C   0  0  1  0  0  0  0  0  0  0  0  0
  -30.7825  -30.5816   21.9860 C   0  0  2  0  0  0  0  0  0  0  0  0
  -26.9809  -31.6244   19.2890 C   0  0  0  0  0  0  0  0  0  0  0  0
  -25.4503  -15.0149   20.1605 N   0  0  0  0  0  0  0  0  0  0  0  0
  -26.1629  -13.8759   20.1923 N   0  0  0  0  0  0  0  0  0  0  0  0
  -25.7091  -29.1185   21.5179 N   0  0  0  0  0  0  0  0  0  0  0  0
  -29.6384  -15.2129   19.3366 N   0  0  0  0  0  0  0  0  0  0  0  0
  -26.0564  -11.5986   20.8352 N   0  0  0  0  0  0  0  0  0  0  0  0
  -21.9816  -13.1898   21.9579 N   0  0  0  0  0  0  0  0  0  0  0  0
  -28.3174  -21.2927   20.5517 N   0  0  0  0  0  0  0  0  0  0  0  0
  -22.1119  -28.9213   22.0813 N   0  0  0  0  0  0  0  0  0  0  0  0
  -28.5667  -30.8885   21.1185 N   0  0  0  0  0  0  0  0  0  0  0  0
  -30.5867  -16.2066   21.2948 N   0  0  0  0  0  0  0  0  0  0  0  0
  -31.5100  -29.4756   22.6706 N   0  3  0  0  0  0  0  0  0  0  0  0
  -23.3192  -11.3272   21.9627 O   0  0  0  0  0  0  0  0  0  0  0  0
  -23.5024  -29.1511   20.2276 O   0  0  0  0  0  0  0  0  0  0  0  0
  -25.9136  -31.3704   22.0866 O   0  0  0  0  0  0  0  0  0  0  0  0
  -29.7011  -28.9381   20.5836 O   0  0  0  0  0  0  0  0  0  0  0  0
  -31.7457  -14.6112   20.0748 O   0  0  0  0  0  0  0  0  0  0  0  0
  -20.1778  -18.4136   21.2551 O   0  0  0  0  0  0  0  0  0  0  0  0
  -26.1843  -23.1259   20.1339 O   0  0  0  0  0  0  0  0  0  1  0  0
  -21.5109  -23.3837   23.2362 F   0  0  0  0  0  0  0  0  0  0  0  0
  -30.8065  -17.5879   18.8670 F   0  0  0  0  0  0  0  0  0  0  0  0
  -19.0343  -19.3650   23.5854 F   0  0  0  0  0  0  0  0  0  0  0  0
  1  2  1  0  0  0  0
  1  5  2  0  0  0  0
  2  6  2  0  0  0  0
  3 10  2  0  0  0  0
  3 18  1  0  0  0  0
  4 11  1  0  0  0  0
  4 18  2  0  0  0  0
  5 20  1  0  0  0  0
  6 22  1  0  0  0  0
  7 12  2  0  0  0  0
  7 21  1  0  0  0  0
  8  9  2  0  0  0  0
  8 24  1  0  0  0  0
  9 25  1  0  0  0  0
 10 26  1  0  0  0  0
 11 26  2  0  0  0  0
 12 27  1  0  0  0  0
 13 14  2  0  0  0  0
 13 28  1  0  0  0  0
 14 29  1  0  0  0  0
 15 23  1  0  0  0  0
 15 27  2  0  0  0  0
 16 24  2  0  0  0  0
 16 30  1  0  0  0  0
 17 29  2  0  0  0  0
 17 31  1  0  0  0  0
 18 32  1  0  0  0  0
 19 32  1  0  0  0  0
 19 33  2  0  0  0  0
 19 34  1  0  0  0  0
 20 22  2  0  0  0  0
 20 39  1  0  0  0  0
 21 23  2  0  0  0  0
 21 40  1  0  0  0  0
 22 48  1  0  0  0  0
 23 41  1  0  0  0  0
 24 68  1  0  0  0  0
 25 30  2  0  0  0  0
 25 71  1  0  0  0  0
 26 78  1  0  0  0  0
 27 79  1  0  0  0  0
 28 31  2  0  0  0  0
 28 78  1  0  0  0  0
 29 80  1  0  0  0  0
 30 81  1  0  0  0  0
 31 82  1  0  0  0  0
 32 62  2  0  0  0  0
 33 63  1  0  0  0  0
 33 66  1  0  0  0  0
 34 67  1  0  0  0  0
 34 73  2  0  0  0  0
 35 49  1  0  0  0  0
 35 69  1  0  0  0  0
 35 74  2  0  0  0  0
 36 59  1  0  0  0  0
 36 64  1  0  0  0  0
 36 75  2  0  0  0  0
 37 60  1  0  0  0  0
 37 70  1  0  0  0  0
 37 76  2  0  0  0  0
 38 65  1  0  0  0  0
 38 71  1  0  0  0  0
 38 77  2  0  0  0  0
 39 42  1  0  0  0  0
 40 49  1  0  0  0  0
 41 64  1  0  0  0  0
 42 44  1  0  0  0  0
 43 45  1  0  0  0  0
 43 46  1  0  0  0  0
 44 48  1  0  0  0  0
 45 50  1  0  0  0  0
 46 65  1  0  0  0  0
 47 50  1  0  0  0  0
 47 65  1  0  0  0  0
 48 69  1  0  0  0  0
 49 64  1  0  0  0  0
 50 63  1  0  0  0  0
 51 60  1  0  0  0  0
 52 61  1  0  0  0  0
 53 61  1  0  0  0  0
 54 61  1  0  0  0  0
 55 71  1  0  0  0  0
 56 72  1  0  0  0  0
 57 58  1  0  0  0  0
 57 68  1  0  0  0  0
 58 79  1  0  0  0  0
 59 61  1  0  0  0  0
 59 70  1  0  0  0  0
 60 72  1  0  0  0  0
 62 63  1  0  0  0  0
M  CHG  1  72   1
M  ISO  4  38 100  58 101  71 100  79 101
M  END
> <Batch ID>
0015

> <Smiles>
CNC(C)C(=O)NC(C(=O)N1Cc2cc([101O:1][101CH2:1]CNc3ccc([100N:0](C)[100C:0](=O)N4CCCC(n5nc(-c6ccc(Oc7ccc(F)cc7F)cc6)c(C(N)=O)c5N)C4)c(F)c3)ccc2CC1C(=O)NC1CCCc2ccccc21)C(C)(C)C

> <Shape>
0.250

> <Color>
0.104

> <Negative vol penalty>
0.000

$$$$

  -OEChem-04042320543D

 86 94  0     1  0  0  0  0  0999 V2000
  -29.4134  -24.4502   17.0123 C   0  0  0  0  0  0  0  0  0  0  0  0
  -28.2252  -24.4693   17.7357 C   0  0  0  0  0  0  0  0  0  0  0  0
  -28.5608  -15.8832   20.4194 C   0  0  0  0  0  0  0  0  0  0  0  0
  -27.9680  -15.6055   22.7451 C   0  0  0  0  0  0  0  0  0  0  0  0
  -30.5036  -25.2041   17.4446 C   0  0  0  0  0  0  0  0  0  0  0  0
  -28.1270  -25.2417   18.8925 C   0  0  0  0  0  0  0  0  0  0  0  0
  -23.7988  -27.8611   19.1178 C   0  0  0  0  0  0  0  0  0  0  0  0
  -20.6670  -17.8056   25.5755 C   0  0  0  0  0  0  0  0  0  0  0  0
  -29.8628  -16.2177   20.7912 C   0  0  0  0  0  0  0  0  0  0  0  0
  -29.2701  -15.9400   23.1169 C   0  0  0  0  0  0  0  0  0  0  0  0
  -22.6516  -27.1641   19.4944 C   0  0  0  0  0  0  0  0  0  0  0  0
  -32.6645  -14.6021   21.7779 C   0  0  0  0  0  0  0  0  0  0  0  0
  -20.2193  -18.3188   26.7927 C   0  0  0  0  0  0  0  0  0  0  0  0
  -33.7122  -14.0144   21.0691 C   0  0  0  0  0  0  0  0  0  0  0  0
  -22.8645  -28.0356   21.7337 C   0  0  0  0  0  0  0  0  0  0  0  0
  -19.5333  -19.5901   24.4061 C   0  0  0  0  0  0  0  0  0  0  0  0
  -34.4880  -16.2029   20.4012 C   0  0  0  0  0  0  0  0  0  0  0  0
  -27.6133  -15.5772   21.3963 C   0  0  0  0  0  0  0  0  0  0  0  0
  -25.7672  -13.9468   20.7320 C   0  0  0  0  0  0  0  0  0  0  0  0
  -30.4155  -25.9937   18.6019 C   0  0  0  0  0  0  0  0  0  0  0  0
  -24.4949  -28.6432   20.0507 C   0  0  0  0  0  0  0  0  0  0  0  0
  -29.2175  -26.0059   19.3414 C   0  0  0  0  0  0  0  0  0  0  0  0
  -24.0189  -28.7436   21.3658 C   0  0  0  0  0  0  0  0  0  0  0  0
  -19.0856  -20.1033   25.6235 C   0  0  0  0  0  0  0  0  0  0  0  0
  -20.3240  -18.4413   24.3821 C   0  0  0  0  0  0  0  0  0  0  0  0
  -30.2176  -16.2461   22.1399 C   0  0  0  0  0  0  0  0  0  0  0  0
  -22.1859  -27.2490   20.8033 C   0  0  0  0  0  0  0  0  0  0  0  0
  -32.5284  -15.9902   21.7983 C   0  0  0  0  0  0  0  0  0  0  0  0
  -34.6240  -14.8148   20.3808 C   0  0  0  0  0  0  0  0  0  0  0  0
  -19.4286  -19.4676   26.8168 C   0  0  0  0  0  0  0  0  0  0  0  0
  -33.4402  -16.7906   21.1100 C   0  0  0  0  0  0  0  0  0  0  0  0
  -26.2679  -15.2321   21.0129 C   0  0  0  0  0  0  0  0  0  0  0  0
  -24.4455  -14.1536   20.4207 C   0  0  0  0  0  0  0  0  0  0  0  0
  -26.4368  -12.6791   20.7509 C   0  0  0  0  0  0  0  0  0  0  0  0
  -27.4243  -28.5879   21.2832 C   0  0  0  0  0  0  0  0  0  0  0  0
  -26.4804  -31.3740   22.6504 C   0  0  0  0  0  0  0  0  0  0  0  0
  -19.1947  -23.0777   24.1198 C   0  0  0  0  0  0  0  0  0  0  0  0
  -23.9138  -33.3529   23.7198 C   0  0  0  0  0  0  0  0  0  0  0  0
  -20.5306  -18.4285   21.8715 C   0  0  0  0  0  0  0  0  0  0  0  0
  -31.6358  -26.7548   19.0560 C   0  0  0  0  0  0  0  0  0  0  0  0
  -25.7156  -29.4103   19.6219 C   0  0  0  0  0  0  0  0  0  0  0  0
  -24.7182  -29.5858   22.4002 C   0  0  0  0  0  0  0  0  0  0  0  0
  -31.3290  -27.8397   20.0851 C   0  0  0  0  0  0  0  0  0  0  0  0
  -21.5028  -17.4570   18.5869 C   0  0  0  0  0  0  0  0  0  0  0  0
  -30.4085  -27.2977   21.1740 C   0  0  0  0  0  0  0  0  0  0  0  0
  -22.7862  -16.6541   18.8113 C   0  0  0  0  0  0  0  0  0  0  0  0
  -21.3961  -18.6369   19.5514 C   0  0  0  0  0  0  0  0  0  0  0  0
  -22.8283  -17.4905   21.1958 C   0  0  0  0  0  0  0  0  0  0  0  0
  -29.0640  -26.8505   20.5877 C   0  0  1  0  0  0  0  0  0  0  0  0
  -26.6366  -29.7664   20.7848 C   0  0  1  0  0  0  0  0  0  0  0  0
  -22.9490  -16.2536   20.2907 C   0  0  2  0  0  0  0  0  0  0  0  0
  -23.4560  -35.5564   24.8297 C   0  0  0  0  0  0  0  0  0  0  0  0
  -27.3012  -30.1875   25.3390 C   0  0  0  0  0  0  0  0  0  0  0  0
  -25.9732  -31.9893   26.4608 C   0  0  0  0  0  0  0  0  0  0  0  0
  -27.9230  -32.5895   25.0252 C   0  0  0  0  0  0  0  0  0  0  0  0
  -19.6074  -23.1566   26.5912 C   0  0  0  0  0  0  0  0  0  0  0  0
  -22.4027  -34.3498   21.3785 C   0  0  0  0  0  0  0  0  0  0  0  0
  -18.2357  -21.3408   25.6471 C   0  0  0  0  0  0  0  0  0  0  0  0
  -20.0403  -24.3412   24.0272 C   0  0  0  0  0  0  0  0  0  0  0  0
  -20.1791  -24.8515   22.5945 C   0  0  0  0  0  0  0  0  0  0  0  0
  -20.9877  -26.1394   22.5321 C   0  0  0  0  0  0  0  0  0  1  0  0
  -25.7971  -31.7534   23.9420 C   0  0  1  0  0  0  0  0  0  0  0  0
  -23.6219  -34.8271   23.5056 C   0  0  2  0  0  0  0  0  0  0  0  0
  -26.7363  -31.6124   25.1730 C   0  0  0  0  0  0  0  0  0  0  0  0
  -25.3400  -16.1851   20.8907 N   0  0  0  0  0  0  0  0  0  0  0  0
  -24.2429  -15.4980   20.5295 N   0  0  0  0  0  0  0  0  0  0  0  0
  -25.9111  -30.3118   21.9338 N   0  0  0  0  0  0  0  0  0  0  0  0
  -21.5557  -18.1810   20.9340 N   0  0  0  0  0  0  0  0  0  0  0  0
  -23.4485  -13.3149   20.0672 N   0  0  0  0  0  0  0  0  0  0  0  0
  -27.7957  -12.6464   21.0926 N   0  0  0  0  0  0  0  0  0  0  0  0
  -20.7797  -17.9200   23.1458 N   0  0  0  0  0  0  0  0  0  0  0  0
  -28.2221  -27.9973   20.3219 N   0  0  0  0  0  0  0  0  0  0  0  0
  -25.2689  -33.0989   23.7444 N   0  0  0  0  0  0  0  0  0  0  0  0
  -19.0190  -22.5454   25.4016 N   0  0  0  0  0  0  0  0  0  0  0  0
  -22.3702  -34.9977   22.7150 N   0  3  0  0  0  0  0  0  0  0  0  0
  -25.8517  -11.6092   20.4571 O   0  0  0  0  0  0  0  0  0  0  0  0
  -27.3174  -28.2412   22.4537 O   0  0  0  0  0  0  0  0  0  0  0  0
  -27.4782  -32.0017   22.2871 O   0  0  0  0  0  0  0  0  0  0  0  0
  -18.7062  -22.5763   23.1038 O   0  0  0  0  0  0  0  0  0  0  0  0
  -23.0284  -32.5114   23.8557 O   0  0  0  0  0  0  0  0  0  0  0  0
  -19.4952  -19.0221   21.5593 O   0  0  0  0  0  0  0  0  0  0  0  0
  -31.4881  -16.5722   22.5031 O   0  0  0  0  0  0  0  0  0  0  0  0
  -21.0668  -26.5691   21.1737 O   0  0  0  0  0  0  0  0  0  1  0  0
  -35.6310  -14.2503   19.7015 F   0  0  0  0  0  0  0  0  0  0  0  0
  -19.0023  -19.9525   27.9913 F   0  0  0  0  0  0  0  0  0  0  0  0
  -33.3153  -18.1247   21.1270 F   0  0  0  0  0  0  0  0  0  0  0  0
  1  2  1  0  0  0  0
  1  5  2  0  0  0  0
  2  6  2  0  0  0  0
  3  9  2  0  0  0  0
  3 18  1  0  0  0  0
  4 10  1  0  0  0  0
  4 18  2  0  0  0  0
  5 20  1  0  0  0  0
  6 22  1  0  0  0  0
  7 11  2  0  0  0  0
  7 21  1  0  0  0  0
  8 13  2  0  0  0  0
  8 25  1  0  0  0  0
  9 26  1  0  0  0  0
 10 26  2  0  0  0  0
 11 27  1  0  0  0  0
 12 14  2  0  0  0  0
 12 28  1  0  0  0  0
 13 30  1  0  0  0  0
 14 29  1  0  0  0  0
 15 23  1  0  0  0  0
 15 27  2  0  0  0  0
 16 24  1  0  0  0  0
 16 25  2  0  0  0  0
 17 29  2  0  0  0  0
 17 31  1  0  0  0  0
 18 32  1  0  0  0  0
 19 32  1  0  0  0  0
 19 33  2  0  0  0  0
 19 34  1  0  0  0  0
 20 22  2  0  0  0  0
 20 40  1  0  0  0  0
 21 23  2  0  0  0  0
 21 41  1  0  0  0  0
 22 49  1  0  0  0  0
 23 42  1  0  0  0  0
 24 30  2  0  0  0  0
 24 58  1  0  0  0  0
 25 71  1  0  0  0  0
 26 82  1  0  0  0  0
 27 83  1  0  0  0  0
 28 31  2  0  0  0  0
 28 82  1  0  0  0  0
 29 84  1  0  0  0  0
 30 85  1  0  0  0  0
 31 86  1  0  0  0  0
 32 65  2  0  0  0  0
 33 66  1  0  0  0  0
 33 69  1  0  0  0  0
 34 70  1  0  0  0  0
 34 76  2  0  0  0  0
 35 50  1  0  0  0  0
 35 72  1  0  0  0  0
 35 77  2  0  0  0  0
 36 62  1  0  0  0  0
 36 67  1  0  0  0  0
 36 78  2  0  0  0  0
 37 59  1  0  0  0  0
 37 74  1  0  0  0  0
 37 79  2  0  0  0  0
 38 63  1  0  0  0  0
 38 73  1  0  0  0  0
 38 80  2  0  0  0  0
 39 68  1  0  0  0  0
 39 71  1  0  0  0  0
 39 81  2  0  0  0  0
 40 43  1  0  0  0  0
 41 50  1  0  0  0  0
 42 67  1  0  0  0  0
 43 45  1  0  0  0  0
 44 46  1  0  0  0  0
 44 47  1  0  0  0  0
 45 49  1  0  0  0  0
 46 51  1  0  0  0  0
 47 68  1  0  0  0  0
 48 51  1  0  0  0  0
 48 68  1  0  0  0  0
 49 72  1  0  0  0  0
 50 67  1  0  0  0  0
 51 66  1  0  0  0  0
 52 63  1  0  0  0  0
 53 64  1  0  0  0  0
 54 64  1  0  0  0  0
 55 64  1  0  0  0  0
 56 74  1  0  0  0  0
 57 75  1  0  0  0  0
 58 74  1  0  0  0  0
 59 60  1  0  0  0  0
 60 61  1  0  0  0  0
 61 83  1  0  0  0  0
 62 64  1  0  0  0  0
 62 73  1  0  0  0  0
 63 75  1  0  0  0  0
 65 66  1  0  0  0  0
M  CHG  1  75   1
M  ISO  4  39 100  61 101  71 100  83 101
M  END
> <Batch ID>
0015

> <Smiles>
CNC(C)C(=O)NC(C(=O)N1Cc2cc([101O:1][101CH2:1]CCC(=O)N(C)Cc3cc([100NH:0][100C:0](=O)N4CCCC(n5nc(-c6ccc(Oc7ccc(F)cc7F)cc6)c(C(N)=O)c5N)C4)ccc3F)ccc2CC1C(=O)NC1CCCc2ccccc21)C(C)(C)C

> <Shape>
0.248

> <Color>
0.073

> <Negative vol penalty>
0.000

$$$$

  -OEChem-04042320543D

 85 93  0     1  0  0  0  0  0999 V2000
  -34.1083  -31.6303   17.6705 C   0  0  0  0  0  0  0  0  0  0  0  0
  -34.0274  -30.2697   17.9492 C   0  0  0  0  0  0  0  0  0  0  0  0
  -23.1790   -9.8002   19.8810 C   0  0  0  0  0  0  0  0  0  0  0  0
  -23.5904   -9.8630   22.2608 C   0  0  0  0  0  0  0  0  0  0  0  0
  -33.0023  -32.4517   17.8853 C   0  0  0  0  0  0  0  0  0  0  0  0
  -32.8407  -29.7299   18.4439 C   0  0  0  0  0  0  0  0  0  0  0  0
  -30.5522  -24.1725   17.2672 C   0  0  0  0  0  0  0  0  0  0  0  0
  -30.5565  -15.6363   21.9145 C   0  0  0  0  0  0  0  0  0  0  0  0
  -31.0282  -16.9475   21.8528 C   0  0  0  0  0  0  0  0  0  0  0  0
  -22.4194   -8.6416   20.0428 C   0  0  0  0  0  0  0  0  0  0  0  0
  -22.8308   -8.7044   22.4227 C   0  0  0  0  0  0  0  0  0  0  0  0
  -30.5867  -22.9740   17.9786 C   0  0  0  0  0  0  0  0  0  0  0  0
  -23.2388   -5.3767   21.9861 C   0  0  0  0  0  0  0  0  0  0  0  0
  -23.7527   -4.3746   22.8092 C   0  0  0  0  0  0  0  0  0  0  0  0
  -28.4172  -23.4708   18.9090 C   0  0  0  0  0  0  0  0  0  0  0  0
  -31.1884  -17.0032   24.2629 C   0  0  0  0  0  0  0  0  0  0  0  0
  -21.8153   -4.5571   24.2410 C   0  0  0  0  0  0  0  0  0  0  0  0
  -23.7645  -10.4109   20.9900 C   0  0  0  0  0  0  0  0  0  0  0  0
  -24.0917  -12.9379   20.8676 C   0  0  0  0  0  0  0  0  0  0  0  0
  -31.7985  -31.9200   18.3738 C   0  0  0  0  0  0  0  0  0  0  0  0
  -29.4529  -25.0358   17.3800 C   0  0  0  0  0  0  0  0  0  0  0  0
  -31.7180  -30.5452   18.6667 C   0  0  0  0  0  0  0  0  0  0  0  0
  -28.3700  -24.6784   18.1960 C   0  0  0  0  0  0  0  0  0  0  0  0
  -30.4007  -15.0085   23.1503 C   0  0  0  0  0  0  0  0  0  0  0  0
  -31.3442  -17.6309   23.0270 C   0  0  0  0  0  0  0  0  0  0  0  0
  -22.2453   -8.0937   21.3137 C   0  0  0  0  0  0  0  0  0  0  0  0
  -29.5204  -22.6243   18.8019 C   0  0  0  0  0  0  0  0  0  0  0  0
  -22.0132   -5.9690   22.2906 C   0  0  0  0  0  0  0  0  0  0  0  0
  -23.0409   -3.9648   23.9366 C   0  0  0  0  0  0  0  0  0  0  0  0
  -30.7167  -15.6919   24.3245 C   0  0  0  0  0  0  0  0  0  0  0  0
  -21.3014   -5.5592   23.4180 C   0  0  0  0  0  0  0  0  0  0  0  0
  -24.5498  -11.6075   20.8233 C   0  0  0  0  0  0  0  0  0  0  0  0
  -25.2170  -13.6958   20.6539 C   0  0  0  0  0  0  0  0  0  0  0  0
  -22.7674  -13.4435   21.0827 C   0  0  0  0  0  0  0  0  0  0  0  0
  -29.0370  -28.0161   18.4038 C   0  0  0  0  0  0  0  0  0  0  0  0
  -26.0212  -27.5606   17.2992 C   0  0  0  0  0  0  0  0  0  0  0  0
  -23.5293  -25.3711   16.4974 C   0  0  0  0  0  0  0  0  0  0  0  0
  -31.0783  -12.1383   21.5247 C   0  0  0  0  0  0  0  0  0  0  0  0
  -30.6446  -32.8555   18.6347 C   0  0  0  0  0  0  0  0  0  0  0  0
  -29.4191  -26.3123   16.5852 C   0  0  0  0  0  0  0  0  0  0  0  0
  -27.1574  -25.5607   18.3359 C   0  0  0  0  0  0  0  0  0  0  0  0
  -29.3073  -32.1400   18.8069 C   0  0  0  0  0  0  0  0  0  0  0  0
  -29.4826  -13.5632   18.5039 C   0  0  0  0  0  0  0  0  0  0  0  0
  -29.4565  -30.9486   19.7478 C   0  0  0  0  0  0  0  0  0  0  0  0
  -28.0023  -13.2663   18.7377 C   0  0  0  0  0  0  0  0  0  0  0  0
  -30.3817  -12.5400   19.1913 C   0  0  0  0  0  0  0  0  0  0  0  0
  -28.6338  -12.0876   20.8807 C   0  0  0  0  0  0  0  0  0  0  0  0
  -30.4404  -29.9180   19.1811 C   0  0  1  0  0  0  0  0  0  0  0  0
  -28.4774  -27.3581   17.1743 C   0  0  1  0  0  0  0  0  0  0  0  0
  -27.7014  -13.1268   20.2401 C   0  0  2  0  0  0  0  0  0  0  0  0
  -21.1660  -25.2983   15.6565 C   0  0  0  0  0  0  0  0  0  0  0  0
  -25.0182  -28.4160   20.0509 C   0  0  0  0  0  0  0  0  0  0  0  0
  -22.7915  -27.4305   19.4687 C   0  0  0  0  0  0  0  0  0  0  0  0
  -23.7016  -29.3289   18.1305 C   0  0  0  0  0  0  0  0  0  0  0  0
  -32.1502  -19.6659   24.1972 C   0  0  0  0  0  0  0  0  0  0  0  0
  -31.9631  -12.4003   23.8112 C   0  0  0  0  0  0  0  0  0  0  0  0
  -24.3100  -23.8345   14.0916 C   0  0  0  0  0  0  0  0  0  0  0  0
  -29.8960  -13.6064   23.2127 C   0  0  0  0  0  0  0  0  0  0  0  0
  -30.6877  -20.2039   21.2017 C   0  0  0  0  0  0  0  0  0  0  0  0
  -32.0047  -19.6231   21.7021 C   0  0  0  0  0  0  0  0  0  0  0  0
  -30.8341  -20.9677   19.8909 C   0  0  0  0  0  0  0  0  0  1  0  0
  -24.7350  -27.0341   17.8885 C   0  0  1  0  0  0  0  0  0  0  0  0
  -22.6374  -25.2642   15.2736 C   0  0  2  0  0  0  0  0  0  0  0  0
  -24.0851  -28.0365   18.8837 C   0  0  0  0  0  0  0  0  0  0  0  0
  -25.8636  -11.5217   20.5990 N   0  0  0  0  0  0  0  0  0  0  0  0
  -26.2408  -12.8078   20.5002 N   0  0  0  0  0  0  0  0  0  0  0  0
  -27.1744  -26.8014   17.5435 N   0  0  0  0  0  0  0  0  0  0  0  0
  -30.0456  -12.3958   20.6081 N   0  0  0  0  0  0  0  0  0  0  0  0
  -25.4208  -15.0285   20.5842 N   0  0  0  0  0  0  0  0  0  0  0  0
  -21.7270  -12.5266   21.2860 N   0  0  0  0  0  0  0  0  0  0  0  0
  -29.8077  -29.1330   18.1428 N   0  0  0  0  0  0  0  0  0  0  0  0
  -23.8840  -26.6777   16.7583 N   0  0  0  0  0  0  0  0  0  0  0  0
  -31.8187  -18.9490   22.9644 N   0  0  3  0  0  0  0  0  0  0  0  0
  -30.9145  -12.6318   22.8279 N   0  0  0  0  0  0  0  0  0  0  0  0
  -22.9048  -23.9904   14.5476 N   0  3  0  0  0  0  0  0  0  0  0  0
  -22.5113  -14.6714   21.0780 O   0  0  0  0  0  0  0  0  0  0  0  0
  -28.7867  -27.5463   19.5075 O   0  0  0  0  0  0  0  0  0  0  0  0
  -26.0023  -28.6032   16.6401 O   0  0  0  0  0  0  0  0  0  0  0  0
  -23.8735  -24.3936   17.1582 O   0  0  0  0  0  0  0  0  0  0  0  0
  -32.0933  -11.5117   21.1943 O   0  0  0  0  0  0  0  0  0  0  0  0
  -21.5040   -6.9632   21.4721 O   0  0  0  0  0  0  0  0  0  0  0  0
  -29.5519  -21.4554   19.4979 O   0  0  0  0  0  0  0  0  0  1  0  0
  -23.5338   -3.0014   24.7260 F   0  0  0  0  0  0  0  0  0  0  0  0
  -30.5691  -15.0974   25.5168 F   0  0  0  0  0  0  0  0  0  0  0  0
  -20.1229   -6.1237   23.7149 F   0  0  0  0  0  0  0  0  0  0  0  0
  1  2  1  0  0  0  0
  1  5  2  0  0  0  0
  2  6  2  0  0  0  0
  3 10  2  0  0  0  0
  3 18  1  0  0  0  0
  4 11  1  0  0  0  0
  4 18  2  0  0  0  0
  5 20  1  0  0  0  0
  6 22  1  0  0  0  0
  7 12  2  0  0  0  0
  7 21  1  0  0  0  0
  8  9  2  0  0  0  0
  8 24  1  0  0  0  0
  9 25  1  0  0  0  0
 10 26  1  0  0  0  0
 11 26  2  0  0  0  0
 12 27  1  0  0  0  0
 13 14  2  0  0  0  0
 13 28  1  0  0  0  0
 14 29  1  0  0  0  0
 15 23  1  0  0  0  0
 15 27  2  0  0  0  0
 16 25  2  0  0  0  0
 16 30  1  0  0  0  0
 17 29  2  0  0  0  0
 17 31  1  0  0  0  0
 18 32  1  0  0  0  0
 19 32  1  0  0  0  0
 19 33  2  0  0  0  0
 19 34  1  0  0  0  0
 20 22  2  0  0  0  0
 20 39  1  0  0  0  0
 21 23  2  0  0  0  0
 21 40  1  0  0  0  0
 22 48  1  0  0  0  0
 23 41  1  0  0  0  0
 24 30  2  0  0  0  0
 24 58  1  0  0  0  0
 25 73  1  0  0  0  0
 26 81  1  0  0  0  0
 27 82  1  0  0  0  0
 28 31  2  0  0  0  0
 28 81  1  0  0  0  0
 29 83  1  0  0  0  0
 30 84  1  0  0  0  0
 31 85  1  0  0  0  0
 32 65  2  0  0  0  0
 33 66  1  0  0  0  0
 33 69  1  0  0  0  0
 34 70  1  0  0  0  0
 34 76  2  0  0  0  0
 35 49  1  0  0  0  0
 35 71  1  0  0  0  0
 35 77  2  0  0  0  0
 36 62  1  0  0  0  0
 36 67  1  0  0  0  0
 36 78  2  0  0  0  0
 37 63  1  0  0  0  0
 37 72  1  0  0  0  0
 37 79  2  0  0  0  0
 38 68  1  0  0  0  0
 38 74  1  0  0  0  0
 38 80  2  0  0  0  0
 39 42  1  0  0  0  0
 40 49  1  0  0  0  0
 41 67  1  0  0  0  0
 42 44  1  0  0  0  0
 43 45  1  0  0  0  0
 43 46  1  0  0  0  0
 44 48  1  0  0  0  0
 45 50  1  0  0  0  0
 46 68  1  0  0  0  0
 47 50  1  0  0  0  0
 47 68  1  0  0  0  0
 48 71  1  0  0  0  0
 49 67  1  0  0  0  0
 50 66  1  0  0  0  0
 51 63  1  0  0  0  0
 52 64  1  0  0  0  0
 53 64  1  0  0  0  0
 54 64  1  0  0  0  0
 55 73  1  0  0  0  0
 56 74  1  0  0  0  0
 57 75  1  0  0  0  0
 58 74  1  0  0  0  0
 59 60  1  0  0  0  0
 59 61  1  0  0  0  0
 60 73  1  0  0  0  0
 61 82  1  0  0  0  0
 62 64  1  0  0  0  0
 62 72  1  0  0  0  0
 63 75  1  0  0  0  0
 65 66  1  0  0  0  0
M  CHG  1  75   1
M  ISO  4  38 100  61 101  74 100  82 101
M  END
> <Batch ID>
0015

> <Smiles>
CNC(C)C(=O)NC(C(=O)N1Cc2cc([101O:1][101CH2:1]CCN(C)c3ccc(C[100N:0](C)[100C:0](=O)N4CCCC(n5nc(-c6ccc(Oc7ccc(F)cc7F)cc6)c(C(N)=O)c5N)C4)c(F)c3)ccc2CC1C(=O)NC1CCCc2ccccc21)C(C)(C)C

> <Shape>
0.238

> <Color>
0.207

> <Negative vol penalty>
0.000

$$$$

  -OEChem-04042320543D

 85 93  0     1  0  0  0  0  0999 V2000
  -27.9300  -13.5611   13.6386 C   0  0  0  0  0  0  0  0  0  0  0  0
  -27.2379  -14.7667   13.6924 C   0  0  0  0  0  0  0  0  0  0  0  0
  -18.2696  -27.5341   22.0173 C   0  0  0  0  0  0  0  0  0  0  0  0
  -31.5378  -27.1137   19.3582 C   0  0  0  0  0  0  0  0  0  0  0  0
  -30.4496  -24.9572   19.3055 C   0  0  0  0  0  0  0  0  0  0  0  0
  -28.2802  -12.9064   14.8187 C   0  0  0  0  0  0  0  0  0  0  0  0
  -26.8945  -15.3177   14.9264 C   0  0  0  0  0  0  0  0  0  0  0  0
  -26.0111  -21.6473   18.1625 C   0  0  0  0  0  0  0  0  0  0  0  0
  -18.9996  -28.6956   21.7651 C   0  0  0  0  0  0  0  0  0  0  0  0
  -18.8195  -26.5217   22.8037 C   0  0  0  0  0  0  0  0  0  0  0  0
  -32.5184  -26.6401   18.4866 C   0  0  0  0  0  0  0  0  0  0  0  0
  -31.4303  -24.4837   18.4339 C   0  0  0  0  0  0  0  0  0  0  0  0
  -25.0744  -22.3475   18.9215 C   0  0  0  0  0  0  0  0  0  0  0  0
  -34.6167  -23.3718   18.6362 C   0  0  0  0  0  0  0  0  0  0  0  0
  -35.1609  -22.1138   18.8948 C   0  0  0  0  0  0  0  0  0  0  0  0
  -25.8012  -21.1676   20.8960 C   0  0  0  0  0  0  0  0  0  0  0  0
  -20.8294  -27.8324   23.0856 C   0  0  0  0  0  0  0  0  0  0  0  0
  -34.3923  -21.3383   16.7395 C   0  0  0  0  0  0  0  0  0  0  0  0
  -30.5034  -26.2722   19.7677 C   0  0  0  0  0  0  0  0  0  0  0  0
  -29.6803  -27.2609   21.9706 C   0  0  0  0  0  0  0  0  0  0  0  0
  -27.9495  -13.4545   16.0680 C   0  0  0  0  0  0  0  0  0  0  0  0
  -26.8439  -20.6925   18.7636 C   0  0  0  0  0  0  0  0  0  0  0  0
  -27.2395  -14.6691   16.1243 C   0  0  0  0  0  0  0  0  0  0  0  0
  -26.7494  -20.4585   20.1429 C   0  0  0  0  0  0  0  0  0  0  0  0
  -20.2794  -28.8448   22.2992 C   0  0  0  0  0  0  0  0  0  0  0  0
  -20.0994  -26.6709   23.3378 C   0  0  0  0  0  0  0  0  0  0  0  0
  -32.4647  -25.3252   18.0245 C   0  0  0  0  0  0  0  0  0  0  0  0
  -24.9673  -22.1056   20.2879 C   0  0  0  0  0  0  0  0  0  0  0  0
  -33.9603  -23.6131   17.4293 C   0  0  0  0  0  0  0  0  0  0  0  0
  -35.0487  -21.0970   17.9465 C   0  0  0  0  0  0  0  0  0  0  0  0
  -33.8481  -22.5964   16.4810 C   0  0  0  0  0  0  0  0  0  0  0  0
  -29.4904  -26.7606   20.6685 C   0  0  0  0  0  0  0  0  0  0  0  0
  -28.4177  -27.5905   22.3993 C   0  0  0  0  0  0  0  0  0  0  0  0
  -30.8898  -27.4140   22.7251 C   0  0  0  0  0  0  0  0  0  0  0  0
  -27.2786  -17.5623   18.4223 C   0  0  0  0  0  0  0  0  0  0  0  0
  -29.7122  -18.0672   20.5067 C   0  0  0  0  0  0  0  0  0  0  0  0
  -31.0576  -20.0006   22.9763 C   0  0  0  0  0  0  0  0  0  0  0  0
  -23.4016  -29.5469   21.4881 C   0  0  0  0  0  0  0  0  0  0  0  0
  -28.3079  -12.6865   17.3155 C   0  0  0  0  0  0  0  0  0  0  0  0
  -27.8675  -19.9649   17.9359 C   0  0  0  0  0  0  0  0  0  0  0  0
  -27.6339  -19.4584   20.8399 C   0  0  0  0  0  0  0  0  0  0  0  0
  -28.2353  -13.5252   18.5890 C   0  0  0  0  0  0  0  0  0  0  0  0
  -24.7799  -26.9254   19.1801 C   0  0  0  0  0  0  0  0  0  0  0  0
  -26.9418  -14.3330   18.6232 C   0  0  0  0  0  0  0  0  0  0  0  0
  -25.3621  -26.3673   20.4789 C   0  0  0  0  0  0  0  0  0  0  0  0
  -23.8371  -28.1060   19.4387 C   0  0  0  0  0  0  0  0  0  0  0  0
  -25.6990  -28.8728   20.8742 C   0  0  0  0  0  0  0  0  0  0  0  0
  -26.8709  -15.3111   17.4442 C   0  0  1  0  0  0  0  0  0  0  0  0
  -28.3113  -18.6451   18.5591 C   0  0  1  0  0  0  0  0  0  0  0  0
  -26.0723  -27.4499   21.3257 C   0  0  2  0  0  0  0  0  0  0  0  0
  -33.0375  -20.1385   24.5119 C   0  0  0  0  0  0  0  0  0  0  0  0
  -28.5147  -15.8637   22.2446 C   0  0  0  0  0  0  0  0  0  0  0  0
  -29.9286  -16.6863   24.1400 C   0  0  0  0  0  0  0  0  0  0  0  0
  -31.0088  -15.8134   22.0678 C   0  0  0  0  0  0  0  0  0  0  0  0
  -21.7793  -30.2621   19.6784 C   0  0  0  0  0  0  0  0  0  0  0  0
  -31.9071  -22.5965   21.8367 C   0  0  0  0  0  0  0  0  0  0  0  0
  -20.8100  -23.1053   24.4156 C   0  0  0  0  0  0  0  0  0  0  0  0
  -21.0587  -30.0877   22.0302 C   0  0  0  0  0  0  0  0  0  0  0  0
  -20.6910  -25.5817   24.1832 C   0  0  0  0  0  0  0  0  0  0  0  0
  -21.7283  -23.2516   21.3933 C   0  0  0  0  0  0  0  0  0  0  0  0
  -21.9741  -24.2361   22.5267 C   0  0  0  0  0  0  0  0  0  0  0  0
  -22.8571  -23.1992   20.3711 C   0  0  0  0  0  0  0  0  0  1  0  0
  -29.8511  -18.0602   22.0099 C   0  0  1  0  0  0  0  0  0  0  0  0
  -32.4565  -20.5573   23.1703 C   0  0  2  0  0  0  0  0  0  0  0  0
  -29.8077  -16.6234   22.6024 C   0  0  0  0  0  0  0  0  0  0  0  0
  -28.2081  -26.7695   20.2946 N   0  0  0  0  0  0  0  0  0  0  0  0
  -27.5809  -27.2794   21.3682 N   0  0  0  0  0  0  0  0  0  0  0  0
  -28.6148  -18.7678   19.9864 N   0  0  0  0  0  0  0  0  0  0  0  0
  -24.2727  -28.9476   20.5628 N   0  0  0  0  0  0  0  0  0  0  0  0
  -27.9528  -28.1132   23.5539 N   0  0  0  0  0  0  0  0  0  0  0  0
  -31.3122  -26.3500   23.5336 N   0  0  0  0  0  0  0  0  0  0  0  0
  -27.7047  -16.4669   17.6956 N   0  0  0  0  0  0  0  0  0  0  0  0
  -31.0761  -18.7935   22.3100 N   0  0  0  0  0  0  0  0  0  0  0  0
  -22.1126  -29.8786   21.0468 N   0  0  0  0  0  0  0  0  0  0  0  0
  -32.4341  -22.0463   23.1121 N   0  3  0  0  0  0  0  0  0  0  0  0
  -20.8166  -24.2670   23.4513 N   0  3  1  0  0  0  0  0  0  0  0  0
  -31.5669  -28.4696   22.6963 O   0  0  0  0  0  0  0  0  0  0  0  0
  -26.1771  -17.7091   18.9390 O   0  0  0  0  0  0  0  0  0  0  0  0
  -30.5506  -17.4790   19.8191 O   0  0  0  0  0  0  0  0  0  0  0  0
  -30.0495  -20.5770   23.3789 O   0  0  0  0  0  0  0  0  0  0  0  0
  -23.7526  -29.7606   22.6562 O   0  0  0  0  0  0  0  0  0  0  0  0
  -33.4213  -24.8628   17.1738 O   0  0  0  0  0  0  0  0  0  0  0  0
  -24.0534  -22.7872   21.0309 O   0  0  0  0  0  0  0  0  0  1  0  0
  -35.5726  -19.8895   18.1943 F   0  0  0  0  0  0  0  0  0  0  0  0
  -33.2197  -22.8226   15.3192 F   0  0  0  0  0  0  0  0  0  0  0  0
  1  2  1  0  0  0  0
  1  6  2  0  0  0  0
  2  7  2  0  0  0  0
  3  9  1  0  0  0  0
  3 10  2  0  0  0  0
  4 11  2  0  0  0  0
  4 19  1  0  0  0  0
  5 12  1  0  0  0  0
  5 19  2  0  0  0  0
  6 21  1  0  0  0  0
  7 23  1  0  0  0  0
  8 13  2  0  0  0  0
  8 22  1  0  0  0  0
  9 25  2  0  0  0  0
 10 26  1  0  0  0  0
 11 27  1  0  0  0  0
 12 27  2  0  0  0  0
 13 28  1  0  0  0  0
 14 15  2  0  0  0  0
 14 29  1  0  0  0  0
 15 30  1  0  0  0  0
 16 24  1  0  0  0  0
 16 28  2  0  0  0  0
 17 25  1  0  0  0  0
 17 26  2  0  0  0  0
 18 30  2  0  0  0  0
 18 31  1  0  0  0  0
 19 32  1  0  0  0  0
 20 32  1  0  0  0  0
 20 33  2  0  0  0  0
 20 34  1  0  0  0  0
 21 23  2  0  0  0  0
 21 39  1  0  0  0  0
 22 24  2  0  0  0  0
 22 40  1  0  0  0  0
 23 48  1  0  0  0  0
 24 41  1  0  0  0  0
 25 58  1  0  0  0  0
 26 59  1  0  0  0  0
 27 82  1  0  0  0  0
 28 83  1  0  0  0  0
 29 31  2  0  0  0  0
 29 82  1  0  0  0  0
 30 84  1  0  0  0  0
 31 85  1  0  0  0  0
 32 66  2  0  0  0  0
 33 67  1  0  0  0  0
 33 70  1  0  0  0  0
 34 71  1  0  0  0  0
 34 77  2  0  0  0  0
 35 49  1  0  0  0  0
 35 72  1  0  0  0  0
 35 78  2  0  0  0  0
 36 63  1  0  0  0  0
 36 68  1  0  0  0  0
 36 79  2  0  0  0  0
 37 64  1  0  0  0  0
 37 73  1  0  0  0  0
 37 80  2  0  0  0  0
 38 69  1  0  0  0  0
 38 74  1  0  0  0  0
 38 81  2  0  0  0  0
 39 42  1  0  0  0  0
 40 49  1  0  0  0  0
 41 68  1  0  0  0  0
 42 44  1  0  0  0  0
 43 45  1  0  0  0  0
 43 46  1  0  0  0  0
 44 48  1  0  0  0  0
 45 50  1  0  0  0  0
 46 69  1  0  0  0  0
 47 50  1  0  0  0  0
 47 69  1  0  0  0  0
 48 72  1  0  0  0  0
 49 68  1  0  0  0  0
 50 67  1  0  0  0  0
 51 64  1  0  0  0  0
 52 65  1  0  0  0  0
 53 65  1  0  0  0  0
 54 65  1  0  0  0  0
 55 74  1  0  0  0  0
 56 75  1  0  0  0  0
 57 76  1  0  0  0  0
 58 74  1  0  0  0  0
 59 76  1  0  0  0  0
 60 61  1  0  0  0  0
 60 62  1  0  0  0  0
 61 76  1  0  0  0  0
 62 83  1  0  0  0  0
 63 65  1  0  0  0  0
 63 73  1  0  0  0  0
 64 75  1  0  0  0  0
 66 67  1  0  0  0  0
M  CHG  2  75   1  76   1
M  ISO  4  38 100  62 101  74 100  83 101
M  END
> <Batch ID>
0015

> <Smiles>
CNC(C)C(=O)NC(C(=O)N1Cc2cc([101O:1][101CH2:1]CCN(C)Cc3cccc(C[100N:0](C)[100C:0](=O)N4CCCC(n5nc(-c6ccc(Oc7ccc(F)cc7F)cc6)c(C(N)=O)c5N)C4)c3)ccc2CC1C(=O)NC1CCCc2ccccc21)C(C)(C)C

> <Shape>
0.206

> <Color>
0.063

> <Negative vol penalty>
0.000

$$$$

  -OEChem-04042320543D

 83 91  0     1  0  0  0  0  0999 V2000
  -32.4349  -14.3477   20.9949 C   0  0  0  0  0  0  0  0  0  0  0  0
  -31.6242  -15.4741   20.8978 C   0  0  0  0  0  0  0  0  0  0  0  0
  -26.7160  -28.0303   20.3153 C   0  0  0  0  0  0  0  0  0  0  0  0
  -24.4779  -27.3737   19.6854 C   0  0  0  0  0  0  0  0  0  0  0  0
  -31.9265  -13.0934   20.6600 C   0  0  0  0  0  0  0  0  0  0  0  0
  -30.3048  -15.3469   20.4647 C   0  0  0  0  0  0  0  0  0  0  0  0
  -25.4827  -18.6240   22.3392 C   0  0  0  0  0  0  0  0  0  0  0  0
  -19.3805  -28.0226   22.3341 C   0  0  0  0  0  0  0  0  0  0  0  0
  -21.4721  -27.6624   23.4884 C   0  0  0  0  0  0  0  0  0  0  0  0
  -27.2127  -26.8343   19.7972 C   0  0  0  0  0  0  0  0  0  0  0  0
  -24.9746  -26.1777   19.1673 C   0  0  0  0  0  0  0  0  0  0  0  0
  -24.8294  -19.7280   21.7932 C   0  0  0  0  0  0  0  0  0  0  0  0
  -19.5149  -26.7852   21.7045 C   0  0  0  0  0  0  0  0  0  0  0  0
  -21.6065  -26.4250   22.8589 C   0  0  0  0  0  0  0  0  0  0  0  0
  -27.4111  -23.5983   20.7529 C   0  0  0  0  0  0  0  0  0  0  0  0
  -28.3430  -22.8985   21.5192 C   0  0  0  0  0  0  0  0  0  0  0  0
  -23.2068  -18.2588   20.7793 C   0  0  0  0  0  0  0  0  0  0  0  0
  -29.9581  -23.0933   19.7329 C   0  0  0  0  0  0  0  0  0  0  0  0
  -25.3486  -28.3000   20.2595 C   0  0  0  0  0  0  0  0  0  0  0  0
  -24.6692  -30.7544   20.1113 C   0  0  0  0  0  0  0  0  0  0  0  0
  -30.5973  -12.9495   20.2319 C   0  0  0  0  0  0  0  0  0  0  0  0
  -25.0084  -17.3262   22.1000 C   0  0  0  0  0  0  0  0  0  0  0  0
  -29.7786  -14.0897   20.1225 C   0  0  0  0  0  0  0  0  0  0  0  0
  -23.8544  -17.1402   21.3256 C   0  0  0  0  0  0  0  0  0  0  0  0
  -20.3591  -28.4613   23.2260 C   0  0  0  0  0  0  0  0  0  0  0  0
  -26.3421  -25.9080   19.2232 C   0  0  0  0  0  0  0  0  0  0  0  0
  -20.6278  -25.9864   21.9669 C   0  0  0  0  0  0  0  0  0  0  0  0
  -23.6930  -19.5454   21.0107 C   0  0  0  0  0  0  0  0  0  0  0  0
  -27.7526  -24.0456   19.4766 C   0  0  0  0  0  0  0  0  0  0  0  0
  -29.6166  -22.6460   21.0093 C   0  0  0  0  0  0  0  0  0  0  0  0
  -29.0261  -23.7931   18.9666 C   0  0  0  0  0  0  0  0  0  0  0  0
  -24.8348  -29.5350   20.7950 C   0  0  0  0  0  0  0  0  0  0  0  0
  -24.1522  -31.6092   21.0539 C   0  0  0  0  0  0  0  0  0  0  0  0
  -24.9570  -31.0849   18.7461 C   0  0  0  0  0  0  0  0  0  0  0  0
  -26.1840  -14.7335   20.6858 C   0  0  0  0  0  0  0  0  0  0  0  0
  -23.4638  -13.3658   21.8049 C   0  0  0  0  0  0  0  0  0  0  0  0
  -20.2426  -13.7638   22.8594 C   0  0  0  0  0  0  0  0  0  0  0  0
  -21.1478  -30.2232   26.2105 C   0  0  0  0  0  0  0  0  0  0  0  0
  -30.1066  -11.5795   19.8357 C   0  0  0  0  0  0  0  0  0  0  0  0
  -25.7090  -16.1475   22.7183 C   0  0  0  0  0  0  0  0  0  0  0  0
  -23.2930  -15.7689   21.0557 C   0  0  0  0  0  0  0  0  0  0  0  0
  -28.5861  -11.4803   19.7436 C   0  0  0  0  0  0  0  0  0  0  0  0
  -24.0955  -32.4171   25.7634 C   0  0  0  0  0  0  0  0  0  0  0  0
  -28.0195  -12.6669   18.9706 C   0  0  0  0  0  0  0  0  0  0  0  0
  -24.6398  -31.9713   24.4073 C   0  0  0  0  0  0  0  0  0  0  0  0
  -23.3582  -31.2883   26.4775 C   0  0  0  0  0  0  0  0  0  0  0  0
  -22.8174  -30.2248   24.3117 C   0  0  0  0  0  0  0  0  0  0  0  0
  -28.3348  -13.9891   19.6805 C   0  0  1  0  0  0  0  0  0  0  0  0
  -25.4360  -14.8380   21.9848 C   0  0  1  0  0  0  0  0  0  0  0  0
  -23.5257  -31.3521   23.5455 C   0  0  2  0  0  0  0  0  0  0  0  0
  -18.2609  -12.4575   23.6743 C   0  0  0  0  0  0  0  0  0  0  0  0
  -22.9056  -12.4378   18.9523 C   0  0  0  0  0  0  0  0  0  0  0  0
  -20.5368  -11.9980   19.6332 C   0  0  0  0  0  0  0  0  0  0  0  0
  -22.3985  -10.7420   20.7191 C   0  0  0  0  0  0  0  0  0  0  0  0
  -18.9334  -29.1788   25.9187 C   0  0  0  0  0  0  0  0  0  0  0  0
  -20.2289  -15.1826   25.4567 C   0  0  0  0  0  0  0  0  0  0  0  0
  -20.2153  -29.7839   23.8997 C   0  0  0  0  0  0  0  0  0  0  0  0
  -21.8917  -22.6895   20.9155 C   0  0  0  0  0  0  0  0  0  0  0  0
  -21.9188  -24.0120   21.6656 C   0  0  0  0  0  0  0  0  0  0  0  0
  -23.1237  -21.8463   21.2043 C   0  0  0  0  0  0  0  0  0  1  0  0
  -22.0617  -13.1852   21.2751 C   0  0  1  0  0  0  0  0  0  0  0  0
  -19.5077  -13.2302   24.0759 C   0  0  2  0  0  0  0  0  0  0  0  0
  -21.9871  -12.1166   20.1482 C   0  0  0  0  0  0  0  0  0  0  0  0
  -24.4540  -29.6048   22.0733 N   0  0  0  0  0  0  0  0  0  0  0  0
  -24.0441  -30.8784   22.2004 N   0  0  0  0  0  0  0  0  0  0  0  0
  -24.0171  -14.6477   21.6770 N   0  0  0  0  0  0  0  0  0  0  0  0
  -22.3344  -30.6892   25.6208 N   0  0  0  0  0  0  0  0  0  0  0  0
  -23.7843  -32.9071   21.0057 N   0  0  0  0  0  0  0  0  0  0  0  0
  -25.4845  -30.0878   17.9142 N   0  0  0  0  0  0  0  0  0  0  0  0
  -27.4457  -14.1830   20.8058 N   0  0  0  0  0  0  0  0  0  0  0  0
  -21.2226  -12.8931   22.4322 N   0  0  0  0  0  0  0  0  0  0  0  0
  -20.1849  -29.6655   25.3558 N   0  0  0  0  0  0  0  0  0  0  0  0
  -19.0985  -14.3522   24.9673 N   0  3  0  0  0  0  0  0  0  0  0  0
  -24.7678  -32.2349   18.2822 O   0  0  0  0  0  0  0  0  0  0  0  0
  -25.6549  -15.1222   19.6511 O   0  0  0  0  0  0  0  0  0  0  0  0
  -24.0439  -12.4066   22.3198 O   0  0  0  0  0  0  0  0  0  0  0  0
  -19.9716  -14.8433   22.3380 O   0  0  0  0  0  0  0  0  0  0  0  0
  -20.9559  -30.3100   27.4302 O   0  0  0  0  0  0  0  0  0  0  0  0
  -26.8265  -24.7410   18.7173 O   0  0  0  0  0  0  0  0  0  0  0  0
  -20.7590  -24.7699   21.3491 O   0  0  0  0  0  0  0  0  0  0  0  0
  -23.0538  -20.6212   20.4760 O   0  0  0  0  0  0  0  0  0  1  0  0
  -30.5119  -21.9753   21.7459 F   0  0  0  0  0  0  0  0  0  0  0  0
  -29.3604  -24.2214   17.7416 F   0  0  0  0  0  0  0  0  0  0  0  0
  1  2  1  0  0  0  0
  1  5  2  0  0  0  0
  2  6  2  0  0  0  0
  3 10  2  0  0  0  0
  3 19  1  0  0  0  0
  4 11  1  0  0  0  0
  4 19  2  0  0  0  0
  5 21  1  0  0  0  0
  6 23  1  0  0  0  0
  7 12  2  0  0  0  0
  7 22  1  0  0  0  0
  8 13  2  0  0  0  0
  8 25  1  0  0  0  0
  9 14  1  0  0  0  0
  9 25  2  0  0  0  0
 10 26  1  0  0  0  0
 11 26  2  0  0  0  0
 12 28  1  0  0  0  0
 13 27  1  0  0  0  0
 14 27  2  0  0  0  0
 15 16  2  0  0  0  0
 15 29  1  0  0  0  0
 16 30  1  0  0  0  0
 17 24  1  0  0  0  0
 17 28  2  0  0  0  0
 18 30  2  0  0  0  0
 18 31  1  0  0  0  0
 19 32  1  0  0  0  0
 20 32  1  0  0  0  0
 20 33  2  0  0  0  0
 20 34  1  0  0  0  0
 21 23  2  0  0  0  0
 21 39  1  0  0  0  0
 22 24  2  0  0  0  0
 22 40  1  0  0  0  0
 23 48  1  0  0  0  0
 24 41  1  0  0  0  0
 25 57  1  0  0  0  0
 26 79  1  0  0  0  0
 27 80  1  0  0  0  0
 28 81  1  0  0  0  0
 29 31  2  0  0  0  0
 29 79  1  0  0  0  0
 30 82  1  0  0  0  0
 31 83  1  0  0  0  0
 32 64  2  0  0  0  0
 33 65  1  0  0  0  0
 33 68  1  0  0  0  0
 34 69  1  0  0  0  0
 34 74  2  0  0  0  0
 35 49  1  0  0  0  0
 35 70  1  0  0  0  0
 35 75  2  0  0  0  0
 36 61  1  0  0  0  0
 36 66  1  0  0  0  0
 36 76  2  0  0  0  0
 37 62  1  0  0  0  0
 37 71  1  0  0  0  0
 37 77  2  0  0  0  0
 38 67  1  0  0  0  0
 38 72  1  0  0  0  0
 38 78  2  0  0  0  0
 39 42  1  0  0  0  0
 40 49  1  0  0  0  0
 41 66  1  0  0  0  0
 42 44  1  0  0  0  0
 43 45  1  0  0  0  0
 43 46  1  0  0  0  0
 44 48  1  0  0  0  0
 45 50  1  0  0  0  0
 46 67  1  0  0  0  0
 47 50  1  0  0  0  0
 47 67  1  0  0  0  0
 48 70  1  0  0  0  0
 49 66  1  0  0  0  0
 50 65  1  0  0  0  0
 51 62  1  0  0  0  0
 52 63  1  0  0  0  0
 53 63  1  0  0  0  0
 54 63  1  0  0  0  0
 55 72  1  0  0  0  0
 56 73  1  0  0  0  0
 57 72  1  0  0  0  0
 58 59  1  0  0  0  0
 58 60  1  0  0  0  0
 59 80  1  0  0  0  0
 60 81  1  0  0  0  0
 61 63  1  0  0  0  0
 61 71  1  0  0  0  0
 62 73  1  0  0  0  0
 64 65  1  0  0  0  0
M  CHG  1  73   1
M  ISO  4  38 100  60 101  72 100  81 101
M  END
> <Batch ID>
0015

> <Smiles>
CNC(C)C(=O)NC(C(=O)N1Cc2cc([101O:1][101CH2:1]CCOc3ccc(C[100N:0](C)[100C:0](=O)N4CCCC(n5nc(-c6ccc(Oc7ccc(F)cc7F)cc6)c(C(N)=O)c5N)C4)cc3)ccc2CC1C(=O)NC1CCCc2ccccc21)C(C)(C)C

> <Shape>
0.265

> <Color>
0.062

> <Negative vol penalty>
0.000

$$$$

  -OEChem-04042320543D

 85 94  0     1  0  0  0  0  0999 V2000
  -21.4038  -12.2634   19.9896 C   0  0  0  0  0  0  0  0  0  0  0  0
  -21.4715  -13.5872   20.4121 C   0  0  0  0  0  0  0  0  0  0  0  0
  -24.2342  -28.8675   22.2428 C   0  0  0  0  0  0  0  0  0  0  0  0
  -24.0835  -30.1133   20.1783 C   0  0  0  0  0  0  0  0  0  0  0  0
  -22.5560  -11.4786   19.9725 C   0  0  0  0  0  0  0  0  0  0  0  0
  -22.6914  -14.1266   20.8186 C   0  0  0  0  0  0  0  0  0  0  0  0
  -24.6179  -19.8854   20.0247 C   0  0  0  0  0  0  0  0  0  0  0  0
  -27.8542  -28.5544   25.0618 C   0  0  0  0  0  0  0  0  0  0  0  0
  -28.6308  -29.6713   25.3699 C   0  0  0  0  0  0  0  0  0  0  0  0
  -22.8728  -29.0731   22.4663 C   0  0  0  0  0  0  0  0  0  0  0  0
  -22.7220  -30.3189   20.4018 C   0  0  0  0  0  0  0  0  0  0  0  0
  -24.6312  -20.9949   20.8689 C   0  0  0  0  0  0  0  0  0  0  0  0
  -19.9460  -27.7789   21.3747 C   0  0  0  0  0  0  0  0  0  0  0  0
  -19.1852  -26.6865   21.7912 C   0  0  0  0  0  0  0  0  0  0  0  0
  -26.9166  -20.5053   21.4661 C   0  0  0  0  0  0  0  0  0  0  0  0
  -29.6926  -27.6242   23.7999 C   0  0  0  0  0  0  0  0  0  0  0  0
  -18.5986  -27.8671   23.8159 C   0  0  0  0  0  0  0  0  0  0  0  0
  -24.8395  -29.3876   21.0988 C   0  0  0  0  0  0  0  0  0  0  0  0
  -26.8421  -28.1040   20.1770 C   0  0  0  0  0  0  0  0  0  0  0  0
  -23.7925  -12.0114   20.3698 C   0  0  0  0  0  0  0  0  0  0  0  0
  -25.7521  -19.0700   19.9029 C   0  0  0  0  0  0  0  0  0  0  0  0
  -23.8611  -13.3477   20.8080 C   0  0  0  0  0  0  0  0  0  0  0  0
  -26.9159  -19.3876   20.6176 C   0  0  0  0  0  0  0  0  0  0  0  0
  -28.3851  -27.5308   24.2769 C   0  0  0  0  0  0  0  0  0  0  0  0
  -29.9382  -29.7648   24.8929 C   0  0  0  0  0  0  0  0  0  0  0  0
  -22.1167  -29.7988   21.5458 C   0  0  0  0  0  0  0  0  0  0  0  0
  -25.7798  -21.3033   21.5920 C   0  0  0  0  0  0  0  0  0  0  0  0
  -20.0331  -28.9154   22.1787 C   0  0  0  0  0  0  0  0  0  0  0  0
  -18.5115  -26.7306   23.0118 C   0  0  0  0  0  0  0  0  0  0  0  0
  -19.3594  -28.9595   23.3993 C   0  0  0  0  0  0  0  0  0  0  0  0
  -30.4692  -28.7413   24.1079 C   0  0  0  0  0  0  0  0  0  0  0  0
  -26.2459  -29.1761   20.8677 C   0  0  0  0  0  0  0  0  0  0  0  0
  -28.1893  -28.3648   20.2351 C   0  0  0  0  0  0  0  0  0  0  0  0
  -26.2325  -26.9735   19.5398 C   0  0  0  0  0  0  0  0  0  0  0  0
  -26.3976  -16.0187   20.5169 C   0  0  0  0  0  0  0  0  0  0  0  0
  -29.2325  -16.7409   19.1155 C   0  0  0  0  0  0  0  0  0  0  0  0
  -31.5257  -19.1252   18.2768 C   0  0  0  0  0  0  0  0  0  0  0  0
  -31.2444  -31.8125   24.2667 C   0  0  0  0  0  0  0  0  0  0  0  0
  -25.0019  -11.1105   20.3790 C   0  0  0  0  0  0  0  0  0  0  0  0
  -25.7303  -17.8923   18.9675 C   0  0  0  0  0  0  0  0  0  0  0  0
  -28.1666  -18.5558   20.5066 C   0  0  0  0  0  0  0  0  0  0  0  0
  -26.3245  -11.8673   20.4698 C   0  0  0  0  0  0  0  0  0  0  0  0
  -31.3201  -31.9612   20.5701 C   0  0  0  0  0  0  0  0  0  0  0  0
  -26.2533  -12.9386   21.5533 C   0  0  0  0  0  0  0  0  0  0  0  0
  -30.0307  -31.2436   20.1752 C   0  0  0  0  0  0  0  0  0  0  0  0
  -25.9382  -24.7800   24.0898 C   0  0  0  0  0  0  0  0  0  0  0  0
  -31.1988  -32.6344   21.9338 C   0  0  0  0  0  0  0  0  0  0  0  0
  -26.2401  -26.2395   24.4227 C   0  0  0  0  0  0  0  0  0  0  0  0
  -28.0832  -25.3012   23.1659 C   0  0  0  0  0  0  0  0  0  0  0  0
  -29.4873  -30.9822   22.6283 C   0  0  0  0  0  0  0  0  0  0  0  0
  -25.1705  -13.9761   21.2330 C   0  0  1  0  0  0  0  0  0  0  0  0
  -26.7746  -16.8352   19.3132 C   0  0  1  0  0  0  0  0  0  0  0  0
  -26.8022  -24.5170   22.8599 C   0  0  1  0  0  0  0  0  0  0  0  0
  -29.5974  -30.2617   21.2762 C   0  0  1  0  0  0  0  0  0  0  0  0
  -33.7602  -19.4063   17.1700 C   0  0  0  0  0  0  0  0  0  0  0  0
  -30.6032  -15.6368   21.6079 C   0  0  0  0  0  0  0  0  0  0  0  0
  -32.7030  -16.7887   20.8784 C   0  0  0  0  0  0  0  0  0  0  0  0
  -31.6987  -15.0075   19.4496 C   0  0  0  0  0  0  0  0  0  0  0  0
  -31.1840  -31.0692   26.6067 C   0  0  0  0  0  0  0  0  0  0  0  0
  -30.3951  -20.8781   16.1773 C   0  0  0  0  0  0  0  0  0  0  0  0
  -27.0490  -23.0402   22.6060 C   0  0  0  0  0  0  0  0  0  1  0  0
  -30.5635  -17.2614   19.6017 C   0  0  1  0  0  0  0  0  0  0  0  0
  -32.2521  -19.4103   16.9747 C   0  0  2  0  0  0  0  0  0  0  0  0
  -31.3681  -16.1884   20.3882 C   0  0  0  0  0  0  0  0  0  0  0  0
  -27.1411  -30.0526   21.3307 N   0  0  0  0  0  0  0  0  0  0  0  0
  -28.3134  -29.5317   20.9303 N   0  0  0  0  0  0  0  0  0  0  0  0
  -27.6167  -26.4274   23.9719 N   0  0  3  0  0  0  0  0  0  0  0  0
  -28.0935  -17.4110   19.5838 N   0  0  0  0  0  0  0  0  0  0  0  0
  -30.7278  -31.7022   22.9594 N   0  0  0  0  0  0  0  0  0  0  0  0
  -29.2680  -27.7076   19.7589 N   0  0  0  0  0  0  0  0  0  0  0  0
  -24.8360  -26.8598   19.5740 N   0  0  0  0  0  0  0  0  0  0  0  0
  -25.6396  -14.9011   20.2237 N   0  0  0  0  0  0  0  0  0  0  0  0
  -31.2525  -17.7819   18.4257 N   0  0  0  0  0  0  0  0  0  0  0  0
  -30.7133  -30.9338   25.2300 N   0  0  0  0  0  0  0  0  0  0  0  0
  -31.8511  -20.7418   16.4387 N   0  3  0  0  0  0  0  0  0  0  0  0
  -26.9073  -26.0817   18.9715 O   0  0  0  0  0  0  0  0  0  0  0  0
  -26.7682  -16.3754   21.6291 O   0  0  0  0  0  0  0  0  0  0  0  0
  -29.2048  -15.7797   18.3428 O   0  0  0  0  0  0  0  0  0  0  0  0
  -31.2333  -20.0055   19.0831 O   0  0  0  0  0  0  0  0  0  0  0  0
  -32.0813  -32.6719   24.5693 O   0  0  0  0  0  0  0  0  0  0  0  0
  -20.7882  -29.9994   21.7634 O   0  0  0  0  0  0  0  0  0  0  0  0
  -25.7953  -22.3852   22.4173 O   0  0  0  0  0  0  0  0  0  1  0  0
  -17.7797  -25.6822   23.4110 F   0  0  0  0  0  0  0  0  0  0  0  0
  -19.4385  -30.0490   24.1756 F   0  0  0  0  0  0  0  0  0  0  0  0
  -32.0834  -28.8170   23.4963 Cl  0  0  0  0  0  0  0  0  0  0  0  0
  1  2  1  0  0  0  0
  1  5  2  0  0  0  0
  2  6  2  0  0  0  0
  3 10  2  0  0  0  0
  3 18  1  0  0  0  0
  4 11  1  0  0  0  0
  4 18  2  0  0  0  0
  5 20  1  0  0  0  0
  6 22  1  0  0  0  0
  7 12  2  0  0  0  0
  7 21  1  0  0  0  0
  8  9  2  0  0  0  0
  8 24  1  0  0  0  0
  9 25  1  0  0  0  0
 10 26  1  0  0  0  0
 11 26  2  0  0  0  0
 12 27  1  0  0  0  0
 13 14  2  0  0  0  0
 13 28  1  0  0  0  0
 14 29  1  0  0  0  0
 15 23  1  0  0  0  0
 15 27  2  0  0  0  0
 16 24  2  0  0  0  0
 16 31  1  0  0  0  0
 17 29  2  0  0  0  0
 17 30  1  0  0  0  0
 18 32  1  0  0  0  0
 19 32  1  0  0  0  0
 19 33  2  0  0  0  0
 19 34  1  0  0  0  0
 20 22  2  0  0  0  0
 20 39  1  0  0  0  0
 21 23  2  0  0  0  0
 21 40  1  0  0  0  0
 22 51  1  0  0  0  0
 23 41  1  0  0  0  0
 24 67  1  0  0  0  0
 25 31  2  0  0  0  0
 25 74  1  0  0  0  0
 26 81  1  0  0  0  0
 27 82  1  0  0  0  0
 28 30  2  0  0  0  0
 28 81  1  0  0  0  0
 29 83  1  0  0  0  0
 30 84  1  0  0  0  0
 31 85  1  0  0  0  0
 32 65  2  0  0  0  0
 33 66  1  0  0  0  0
 33 70  1  0  0  0  0
 34 71  1  0  0  0  0
 34 76  2  0  0  0  0
 35 52  1  0  0  0  0
 35 72  1  0  0  0  0
 35 77  2  0  0  0  0
 36 62  1  0  0  0  0
 36 68  1  0  0  0  0
 36 78  2  0  0  0  0
 37 63  1  0  0  0  0
 37 73  1  0  0  0  0
 37 79  2  0  0  0  0
 38 69  1  0  0  0  0
 38 74  1  0  0  0  0
 38 80  2  0  0  0  0
 39 42  1  0  0  0  0
 40 52  1  0  0  0  0
 41 68  1  0  0  0  0
 42 44  1  0  0  0  0
 43 45  1  0  0  0  0
 43 47  1  0  0  0  0
 44 51  1  0  0  0  0
 45 54  1  0  0  0  0
 46 48  1  0  0  0  0
 46 53  1  0  0  0  0
 47 69  1  0  0  0  0
 48 67  1  0  0  0  0
 49 53  1  0  0  0  0
 49 67  1  0  0  0  0
 50 54  1  0  0  0  0
 50 69  1  0  0  0  0
 51 72  1  0  0  0  0
 52 68  1  0  0  0  0
 53 61  1  0  0  0  0
 54 66  1  0  0  0  0
 55 63  1  0  0  0  0
 56 64  1  0  0  0  0
 57 64  1  0  0  0  0
 58 64  1  0  0  0  0
 59 74  1  0  0  0  0
 60 75  1  0  0  0  0
 61 82  1  0  0  0  0
 62 64  1  0  0  0  0
 62 73  1  0  0  0  0
 63 75  1  0  0  0  0
 65 66  1  0  0  0  0
M  CHG  1  75   1
M  ISO  4  38 100  61 101  74 100  82 101
M  END
> <Batch ID>
0015

> <Smiles>
CNC(C)C(=O)NC(C(=O)N1Cc2cc([101O:1][101CH2:1]C3CCN(c4ccc([100N:0](C)[100C:0](=O)N5CCCC(n6nc(-c7ccc(Oc8ccc(F)cc8F)cc7)c(C(N)=O)c6N)C5)c(Cl)c4)C3)ccc2CC1C(=O)NC1CCCc2ccccc21)C(C)(C)C

> <Shape>
0.226

> <Color>
0.062

> <Negative vol penalty>
0.000

$$$$

  -OEChem-04042320543D

 90 99  0     1  0  0  0  0  0999 V2000
  -31.7791  -13.2802   21.6897 C   0  0  0  0  0  0  0  0  0  0  0  0
  -31.2153  -14.5516   21.7230 C   0  0  0  0  0  0  0  0  0  0  0  0
  -29.4842  -23.9028   21.2775 C   0  0  0  0  0  0  0  0  0  0  0  0
  -29.4625  -24.0554   18.8664 C   0  0  0  0  0  0  0  0  0  0  0  0
  -31.1203  -12.2438   21.0297 C   0  0  0  0  0  0  0  0  0  0  0  0
  -29.9927  -14.7875   21.0953 C   0  0  0  0  0  0  0  0  0  0  0  0
  -26.8361  -17.5251   23.9565 C   0  0  0  0  0  0  0  0  0  0  0  0
  -22.4484  -26.2781   22.3317 C   0  0  0  0  0  0  0  0  0  0  0  0
  -22.9924  -27.5554   22.4671 C   0  0  0  0  0  0  0  0  0  0  0  0
  -29.5811  -22.5142   21.1888 C   0  0  0  0  0  0  0  0  0  0  0  0
  -29.5595  -22.6667   18.7777 C   0  0  0  0  0  0  0  0  0  0  0  0
  -27.0618  -18.8995   24.0174 C   0  0  0  0  0  0  0  0  0  0  0  0
  -29.4387  -19.1377   17.9166 C   0  0  0  0  0  0  0  0  0  0  0  0
  -28.6062  -18.4865   17.0064 C   0  0  0  0  0  0  0  0  0  0  0  0
  -25.3093  -19.2530   22.3979 C   0  0  0  0  0  0  0  0  0  0  0  0
  -24.4972  -26.7341   24.1695 C   0  0  0  0  0  0  0  0  0  0  0  0
  -26.6678  -19.3490   18.1622 C   0  0  0  0  0  0  0  0  0  0  0  0
  -29.4248  -24.6734   20.1163 C   0  0  0  0  0  0  0  0  0  0  0  0
  -30.3839  -27.0331   20.2561 C   0  0  0  0  0  0  0  0  0  0  0  0
  -29.8843  -12.4648   20.4018 C   0  0  0  0  0  0  0  0  0  0  0  0
  -25.8510  -17.0025   23.1062 C   0  0  0  0  0  0  0  0  0  0  0  0
  -29.3173  -13.7534   20.4251 C   0  0  0  0  0  0  0  0  0  0  0  0
  -25.0713  -17.8718   22.3299 C   0  0  0  0  0  0  0  0  0  0  0  0
  -22.9287  -25.2289   23.1153 C   0  0  0  0  0  0  0  0  0  0  0  0
  -24.0168  -27.7834   23.3859 C   0  0  0  0  0  0  0  0  0  0  0  0
  -23.9531  -25.4568   24.0341 C   0  0  0  0  0  0  0  0  0  0  0  0
  -29.6188  -21.8961   19.9389 C   0  0  0  0  0  0  0  0  0  0  0  0
  -26.3003  -19.7635   23.2359 C   0  0  0  0  0  0  0  0  0  0  0  0
  -28.8858  -19.8946   18.9496 C   0  0  0  0  0  0  0  0  0  0  0  0
  -27.2208  -18.5922   17.1292 C   0  0  0  0  0  0  0  0  0  0  0  0
  -27.5004  -20.0002   19.0724 C   0  0  0  0  0  0  0  0  0  0  0  0
  -29.3240  -26.1079   20.2073 C   0  0  0  0  0  0  0  0  0  0  0  0
  -29.7672  -28.2576   20.3383 C   0  0  0  0  0  0  0  0  0  0  0  0
  -31.7993  -26.8060   20.2294 C   0  0  0  0  0  0  0  0  0  0  0  0
  -25.8560  -15.0329   20.6114 C   0  0  0  0  0  0  0  0  0  0  0  0
  -22.6351  -15.2992   20.8894 C   0  0  0  0  0  0  0  0  0  0  0  0
  -19.9616  -17.1219   21.9742 C   0  0  0  0  0  0  0  0  0  0  0  0
  -24.6220  -30.0021   22.4360 C   0  0  0  0  0  0  0  0  0  0  0  0
  -29.2326  -11.3246   19.6603 C   0  0  0  0  0  0  0  0  0  0  0  0
  -25.6017  -15.5196   23.0720 C   0  0  0  0  0  0  0  0  0  0  0  0
  -23.9877  -17.3628   21.4160 C   0  0  0  0  0  0  0  0  0  0  0  0
  -27.7600  -11.5685   19.3407 C   0  0  0  0  0  0  0  0  0  0  0  0
  -25.7482  -30.5253   19.1042 C   0  0  0  0  0  0  0  0  0  0  0  0
  -20.0036  -21.9276   25.0605 C   0  0  0  0  0  0  0  0  0  0  0  0
  -19.4040  -23.3109   24.9071 C   0  0  0  0  0  0  0  0  0  0  0  0
  -27.5630  -12.9679   18.7664 C   0  0  0  0  0  0  0  0  0  0  0  0
  -26.8994  -29.5243   19.0123 C   0  0  0  0  0  0  0  0  0  0  0  0
  -24.5628  -29.9640   19.8901 C   0  0  0  0  0  0  0  0  0  0  0  0
  -26.0713  -28.4545   21.1432 C   0  0  0  0  0  0  0  0  0  0  0  0
  -21.1389  -21.9474   24.0597 C   0  0  0  0  0  0  0  0  0  0  0  0
  -20.6108  -24.2235   24.7761 C   0  0  0  0  0  0  0  0  0  0  0  0
  -27.9807  -14.0428   19.7771 C   0  0  1  0  0  0  0  0  0  0  0  0
  -24.9209  -15.0577   21.7873 C   0  0  1  0  0  0  0  0  0  0  0  0
  -27.2993  -29.0131   20.4076 C   0  0  1  0  0  0  0  0  0  0  0  0
  -17.4527  -17.1006   22.0241 C   0  0  0  0  0  0  0  0  0  0  0  0
  -22.5721  -16.0933   17.9440 C   0  0  0  0  0  0  0  0  0  0  0  0
  -20.2507  -16.9609   18.2994 C   0  0  0  0  0  0  0  0  0  0  0  0
  -20.7419  -14.5398   18.6449 C   0  0  0  0  0  0  0  0  0  0  0  0
  -24.8849  -29.5974   24.8737 C   0  0  0  0  0  0  0  0  0  0  0  0
  -24.3682  -24.5061   26.2889 C   0  0  0  0  0  0  0  0  0  0  0  0
  -19.9049  -17.1143   24.9332 C   0  0  0  0  0  0  0  0  0  0  0  0
  -22.3281  -23.8710   22.9495 C   0  0  0  0  0  0  0  0  0  0  0  0
  -25.0271  -23.2291   24.2436 C   0  0  0  0  0  0  0  0  0  0  0  0
  -26.9957  -21.6338   24.5299 C   0  0  0  0  0  0  0  0  0  1  0  0
  -21.5866  -16.2282   20.3265 C   0  0  1  0  0  0  0  0  0  0  0  0
  -18.7273  -16.7270   22.7648 C   0  0  2  0  0  0  0  0  0  0  0  0
  -26.4755  -23.0553   24.6817 C   0  0  1  0  0  0  0  0  0  0  0  0
  -21.3095  -15.9653   18.8194 C   0  0  0  0  0  0  0  0  0  0  0  0
  -28.1250  -26.6944   20.2547 N   0  0  0  0  0  0  0  0  0  0  0  0
  -28.4276  -28.0014   20.3342 N   0  0  0  0  0  0  0  0  0  0  0  0
  -23.7864  -15.9044   21.4129 N   0  0  0  0  0  0  0  0  0  0  0  0
  -24.9995  -29.4517   21.1967 N   0  0  0  0  0  0  0  0  0  0  0  0
  -30.2456  -29.5178   20.4130 N   0  0  0  0  0  0  0  0  0  0  0  0
  -32.2627  -25.4862   20.1425 N   0  0  0  0  0  0  0  0  0  0  0  0
  -26.9561  -14.2148   20.7846 N   0  0  0  0  0  0  0  0  0  0  0  0
  -20.4141  -16.0872   21.1831 N   0  0  0  0  0  0  0  0  0  0  0  0
  -24.5791  -29.1061   23.5258 N   0  0  0  0  0  0  0  0  0  0  0  0
  -24.4470  -24.4139   24.8302 N   0  0  3  0  0  0  0  0  0  0  0  0
  -21.7057  -23.3429   24.2019 N   0  3  0  0  0  0  0  0  0  0  0  0
  -18.7193  -17.4112   24.0887 N   0  3  0  0  0  0  0  0  0  0  0  0
  -32.6287  -27.7446   20.2977 O   0  0  0  0  0  0  0  0  0  0  0  0
  -25.5977  -15.7050   19.6198 O   0  0  0  0  0  0  0  0  0  0  0  0
  -22.4366  -14.0819   20.8718 O   0  0  0  0  0  0  0  0  0  0  0  0
  -20.4710  -18.2380   22.0480 O   0  0  0  0  0  0  0  0  0  0  0  0
  -24.3683  -31.2058   22.5649 O   0  0  0  0  0  0  0  0  0  0  0  0
  -29.7137  -20.5411   19.8520 O   0  0  0  0  0  0  0  0  0  0  0  0
  -26.5191  -21.1054   23.2930 O   0  0  0  0  0  0  0  0  0  1  0  0
  -26.4215  -17.9680   16.2542 F   0  0  0  0  0  0  0  0  0  0  0  0
  -26.9634  -20.7268   20.0621 F   0  0  0  0  0  0  0  0  0  0  0  0
  -27.2553  -23.8780   23.9214 F   0  0  0  0  0  0  0  0  0  0  0  0
  1  2  1  0  0  0  0
  1  5  2  0  0  0  0
  2  6  2  0  0  0  0
  3 10  2  0  0  0  0
  3 18  1  0  0  0  0
  4 11  1  0  0  0  0
  4 18  2  0  0  0  0
  5 20  1  0  0  0  0
  6 22  1  0  0  0  0
  7 12  2  0  0  0  0
  7 21  1  0  0  0  0
  8  9  2  0  0  0  0
  8 24  1  0  0  0  0
  9 25  1  0  0  0  0
 10 27  1  0  0  0  0
 11 27  2  0  0  0  0
 12 28  1  0  0  0  0
 13 14  2  0  0  0  0
 13 29  1  0  0  0  0
 14 30  1  0  0  0  0
 15 23  1  0  0  0  0
 15 28  2  0  0  0  0
 16 25  2  0  0  0  0
 16 26  1  0  0  0  0
 17 30  2  0  0  0  0
 17 31  1  0  0  0  0
 18 32  1  0  0  0  0
 19 32  1  0  0  0  0
 19 33  2  0  0  0  0
 19 34  1  0  0  0  0
 20 22  2  0  0  0  0
 20 39  1  0  0  0  0
 21 23  2  0  0  0  0
 21 40  1  0  0  0  0
 22 52  1  0  0  0  0
 23 41  1  0  0  0  0
 24 26  2  0  0  0  0
 24 62  1  0  0  0  0
 25 77  1  0  0  0  0
 26 78  1  0  0  0  0
 27 86  1  0  0  0  0
 28 87  1  0  0  0  0
 29 31  2  0  0  0  0
 29 86  1  0  0  0  0
 30 88  1  0  0  0  0
 31 89  1  0  0  0  0
 32 69  2  0  0  0  0
 33 70  1  0  0  0  0
 33 73  1  0  0  0  0
 34 74  1  0  0  0  0
 34 81  2  0  0  0  0
 35 53  1  0  0  0  0
 35 75  1  0  0  0  0
 35 82  2  0  0  0  0
 36 65  1  0  0  0  0
 36 71  1  0  0  0  0
 36 83  2  0  0  0  0
 37 66  1  0  0  0  0
 37 76  1  0  0  0  0
 37 84  2  0  0  0  0
 38 72  1  0  0  0  0
 38 77  1  0  0  0  0
 38 85  2  0  0  0  0
 39 42  1  0  0  0  0
 40 53  1  0  0  0  0
 41 71  1  0  0  0  0
 42 46  1  0  0  0  0
 43 47  1  0  0  0  0
 43 48  1  0  0  0  0
 44 45  1  0  0  0  0
 44 50  1  0  0  0  0
 45 51  1  0  0  0  0
 46 52  1  0  0  0  0
 47 54  1  0  0  0  0
 48 72  1  0  0  0  0
 49 54  1  0  0  0  0
 49 72  1  0  0  0  0
 50 79  1  0  0  0  0
 51 79  1  0  0  0  0
 52 75  1  0  0  0  0
 53 71  1  0  0  0  0
 54 70  1  0  0  0  0
 55 66  1  0  0  0  0
 56 68  1  0  0  0  0
 57 68  1  0  0  0  0
 58 68  1  0  0  0  0
 59 77  1  0  0  0  0
 60 78  1  0  0  0  0
 61 80  1  0  0  0  0
 62 79  1  0  0  0  0
 63 67  1  0  0  0  0
 63 78  1  0  0  0  0
 64 67  1  0  0  0  0
 64 87  1  0  0  0  0
 65 68  1  0  0  0  0
 65 76  1  0  0  0  0
 66 80  1  0  0  0  0
 67 90  1  0  0  0  0
 69 70  1  0  0  0  0
M  CHG  2  79   1  80   1
M  ISO  4  38 100  64 101  77 100  87 101
M  END
> <Batch ID>
0015

> <Smiles>
CNC(C)C(=O)NC(C(=O)N1Cc2cc([101O:1][101CH2:1]C(F)CN(C)c3cc([100N:0](C)[100C:0](=O)N4CCCC(n5nc(-c6ccc(Oc7ccc(F)cc7F)cc6)c(C(N)=O)c5N)C4)ccc3CN3CCCC3)ccc2CC1C(=O)NC1CCCc2ccccc21)C(C)(C)C

> <Shape>
0.209

> <Color>
0.078

> <Negative vol penalty>
0.000

$$$$

  -OEChem-04042320543D

 84 93  0     1  0  0  0  0  0999 V2000
  -29.4184  -30.8908   26.6115 C   0  0  0  0  0  0  0  0  0  0  0  0
  -29.2135  -30.0287   25.5391 C   0  0  0  0  0  0  0  0  0  0  0  0
  -24.2455   -8.8599   21.3885 C   0  0  0  0  0  0  0  0  0  0  0  0
  -23.9153  -10.6993   22.9197 C   0  0  0  0  0  0  0  0  0  0  0  0
  -28.3310  -31.3475   27.3551 C   0  0  0  0  0  0  0  0  0  0  0  0
  -27.9209  -29.6218   25.2103 C   0  0  0  0  0  0  0  0  0  0  0  0
  -27.0305  -29.8178   20.2290 C   0  0  0  0  0  0  0  0  0  0  0  0
  -27.2658  -20.0587   18.4370 C   0  0  0  0  0  0  0  0  0  0  0  0
  -27.3195  -18.6654   18.4716 C   0  0  0  0  0  0  0  0  0  0  0  0
  -23.7133   -7.9799   22.3308 C   0  0  0  0  0  0  0  0  0  0  0  0
  -23.3830   -9.8193   23.8620 C   0  0  0  0  0  0  0  0  0  0  0  0
  -27.5466  -28.7841   19.4487 C   0  0  0  0  0  0  0  0  0  0  0  0
  -20.6518   -7.0847   23.4529 C   0  0  0  0  0  0  0  0  0  0  0  0
  -19.7239   -6.1428   23.0087 C   0  0  0  0  0  0  0  0  0  0  0  0
  -25.3769  -27.7302   19.4205 C   0  0  0  0  0  0  0  0  0  0  0  0
  -29.6629  -18.7699   19.0501 C   0  0  0  0  0  0  0  0  0  0  0  0
  -21.1771   -4.3611   23.7510 C   0  0  0  0  0  0  0  0  0  0  0  0
  -24.3465  -10.2196   21.6829 C   0  0  0  0  0  0  0  0  0  0  0  0
  -24.1958  -11.8334   19.7130 C   0  0  0  0  0  0  0  0  0  0  0  0
  -27.0236  -30.9536   27.0293 C   0  0  0  0  0  0  0  0  0  0  0  0
  -25.6840  -29.8099   20.6207 C   0  0  0  0  0  0  0  0  0  0  0  0
  -26.8151  -30.0725   25.9511 C   0  0  0  0  0  0  0  0  0  0  0  0
  -24.8455  -28.7663   20.2036 C   0  0  0  0  0  0  0  0  0  0  0  0
  -28.4108  -20.8078   18.7088 C   0  0  0  0  0  0  0  0  0  0  0  0
  -28.5180  -18.0210   18.7782 C   0  0  0  0  0  0  0  0  0  0  0  0
  -23.2820   -8.4596   23.5675 C   0  0  0  0  0  0  0  0  0  0  0  0
  -26.7205  -27.7386   19.0468 C   0  0  0  0  0  0  0  0  0  0  0  0
  -21.8425   -6.6649   24.0460 C   0  0  0  0  0  0  0  0  0  0  0  0
  -19.9865   -4.7810   23.1578 C   0  0  0  0  0  0  0  0  0  0  0  0
  -29.6093  -20.1633   19.0154 C   0  0  0  0  0  0  0  0  0  0  0  0
  -22.1051   -5.3031   24.1951 C   0  0  0  0  0  0  0  0  0  0  0  0
  -24.8968  -11.1290   20.7101 C   0  0  0  0  0  0  0  0  0  0  0  0
  -25.1636  -12.5543   19.0571 C   0  0  0  0  0  0  0  0  0  0  0  0
  -22.7950  -11.8360   19.4071 C   0  0  0  0  0  0  0  0  0  0  0  0
  -24.1592  -29.7096   23.4079 C   0  0  0  0  0  0  0  0  0  0  0  0
  -21.5376  -30.1385   21.5464 C   0  0  0  0  0  0  0  0  0  0  0  0
  -20.0825  -29.8264   18.4752 C   0  0  0  0  0  0  0  0  0  0  0  0
  -29.6807  -15.8095   19.1000 C   0  0  0  0  0  0  0  0  0  0  0  0
  -25.8840  -31.4358   27.8915 C   0  0  0  0  0  0  0  0  0  0  0  0
  -25.1362  -30.9461   21.4400 C   0  0  0  0  0  0  0  0  0  0  0  0
  -23.3879  -28.7213   20.5804 C   0  0  0  0  0  0  0  0  0  0  0  0
  -24.5127  -31.2546   27.2458 C   0  0  0  0  0  0  0  0  0  0  0  0
  -30.2117  -12.2959   19.3242 C   0  0  0  0  0  0  0  0  0  0  0  0
  -24.3839  -29.8564   26.6498 C   0  0  0  0  0  0  0  0  0  0  0  0
  -28.8186  -11.7371   19.6227 C   0  0  0  0  0  0  0  0  0  0  0  0
  -28.8759  -24.4469   19.0690 C   0  0  0  0  0  0  0  0  0  0  0  0
  -30.4479  -13.6336   20.0231 C   0  0  0  0  0  0  0  0  0  0  0  0
  -29.4956  -23.0570   18.9411 C   0  0  0  0  0  0  0  0  0  0  0  0
  -27.1466  -22.9484   18.3685 C   0  0  0  0  0  0  0  0  0  0  0  0
  -28.0284  -14.0950   20.0727 C   0  0  0  0  0  0  0  0  0  0  0  0
  -25.4257  -29.6282   25.5480 C   0  0  1  0  0  0  0  0  0  0  0  0
  -23.8741  -30.5724   22.2113 C   0  0  1  0  0  0  0  0  0  0  0  0
  -27.6631  -24.3743   18.1458 C   0  0  1  0  0  0  0  0  0  0  0  0
  -27.7201  -12.7801   19.3382 C   0  0  2  0  0  0  0  0  0  0  0  0
  -17.9176  -30.2275   17.2712 C   0  0  0  0  0  0  0  0  0  0  0  0
  -20.3417  -27.6675   22.8784 C   0  0  0  0  0  0  0  0  0  0  0  0
  -18.6651  -27.5639   21.0220 C   0  0  0  0  0  0  0  0  0  0  0  0
  -18.7306  -29.5486   22.5318 C   0  0  0  0  0  0  0  0  0  0  0  0
  -21.3477  -31.7273   16.5925 C   0  0  0  0  0  0  0  0  0  0  0  0
  -26.6231  -25.4417   18.4380 C   0  0  0  0  0  0  0  0  0  1  0  0
  -20.5729  -29.2237   20.8312 C   0  0  1  0  0  0  0  0  0  0  0  0
  -19.2763  -30.8034   17.6386 C   0  0  2  0  0  0  0  0  0  0  0  0
  -19.6055  -28.5005   21.8102 C   0  0  0  0  0  0  0  0  0  0  0  0
  -26.2086  -11.3796   20.6929 N   0  0  0  0  0  0  0  0  0  0  0  0
  -26.3396  -12.2494   19.6769 N   0  0  0  0  0  0  0  0  0  0  0  0
  -28.3550  -22.1849   18.6724 N   0  0  3  0  0  0  0  0  0  0  0  0
  -22.9009  -29.8520   21.3877 N   0  0  0  0  0  0  0  0  0  0  0  0
  -29.3703  -14.5727   19.7040 N   0  0  0  0  0  0  0  0  0  0  0  0
  -25.1148  -13.4128   18.0164 N   0  0  0  0  0  0  0  0  0  0  0  0
  -21.9408  -11.0380   20.1804 N   0  0  0  0  0  0  0  0  0  0  0  0
  -28.5722  -16.6055   18.8134 N   0  0  0  0  0  0  0  0  0  0  0  0
  -25.0191  -30.2847   24.3241 N   0  0  0  0  0  0  0  0  0  0  0  0
  -19.9039  -30.0418   19.8254 N   0  0  0  0  0  0  0  0  0  0  0  0
  -20.0039  -31.1308   16.3799 N   0  3  0  0  0  0  0  0  0  0  0  0
  -22.3174  -12.5129   18.4652 O   0  0  0  0  0  0  0  0  0  0  0  0
  -23.6366  -28.6045   23.4943 O   0  0  0  0  0  0  0  0  0  0  0  0
  -21.0979  -31.0771   22.2152 O   0  0  0  0  0  0  0  0  0  0  0  0
  -20.7961  -28.9566   17.9805 O   0  0  0  0  0  0  0  0  0  0  0  0
  -30.8421  -16.1266   18.8302 O   0  0  0  0  0  0  0  0  0  0  0  0
  -22.7624   -7.6012   24.4872 O   0  0  0  0  0  0  0  0  0  0  0  0
  -27.2219  -26.7280   18.2857 O   0  0  0  0  0  0  0  0  0  1  0  0
  -19.0946   -3.8766   22.7326 F   0  0  0  0  0  0  0  0  0  0  0  0
  -30.7157  -20.8738   19.2768 F   0  0  0  0  0  0  0  0  0  0  0  0
  -23.2467   -4.8937   24.7652 F   0  0  0  0  0  0  0  0  0  0  0  0
  1  2  1  0  0  0  0
  1  5  2  0  0  0  0
  2  6  2  0  0  0  0
  3 10  2  0  0  0  0
  3 18  1  0  0  0  0
  4 11  1  0  0  0  0
  4 18  2  0  0  0  0
  5 20  1  0  0  0  0
  6 22  1  0  0  0  0
  7 12  2  0  0  0  0
  7 21  1  0  0  0  0
  8  9  2  0  0  0  0
  8 24  1  0  0  0  0
  9 25  1  0  0  0  0
 10 26  1  0  0  0  0
 11 26  2  0  0  0  0
 12 27  1  0  0  0  0
 13 14  2  0  0  0  0
 13 28  1  0  0  0  0
 14 29  1  0  0  0  0
 15 23  1  0  0  0  0
 15 27  2  0  0  0  0
 16 25  2  0  0  0  0
 16 30  1  0  0  0  0
 17 29  2  0  0  0  0
 17 31  1  0  0  0  0
 18 32  1  0  0  0  0
 19 32  1  0  0  0  0
 19 33  2  0  0  0  0
 19 34  1  0  0  0  0
 20 22  2  0  0  0  0
 20 39  1  0  0  0  0
 21 23  2  0  0  0  0
 21 40  1  0  0  0  0
 22 51  1  0  0  0  0
 23 41  1  0  0  0  0
 24 30  2  0  0  0  0
 24 66  1  0  0  0  0
 25 71  1  0  0  0  0
 26 80  1  0  0  0  0
 27 81  1  0  0  0  0
 28 31  2  0  0  0  0
 28 80  1  0  0  0  0
 29 82  1  0  0  0  0
 30 83  1  0  0  0  0
 31 84  1  0  0  0  0
 32 64  2  0  0  0  0
 33 65  1  0  0  0  0
 33 69  1  0  0  0  0
 34 70  1  0  0  0  0
 34 75  2  0  0  0  0
 35 52  1  0  0  0  0
 35 72  1  0  0  0  0
 35 76  2  0  0  0  0
 36 61  1  0  0  0  0
 36 67  1  0  0  0  0
 36 77  2  0  0  0  0
 37 62  1  0  0  0  0
 37 73  1  0  0  0  0
 37 78  2  0  0  0  0
 38 68  1  0  0  0  0
 38 71  1  0  0  0  0
 38 79  2  0  0  0  0
 39 42  1  0  0  0  0
 40 52  1  0  0  0  0
 41 67  1  0  0  0  0
 42 44  1  0  0  0  0
 43 45  1  0  0  0  0
 43 47  1  0  0  0  0
 44 51  1  0  0  0  0
 45 54  1  0  0  0  0
 46 48  1  0  0  0  0
 46 53  1  0  0  0  0
 47 68  1  0  0  0  0
 48 66  1  0  0  0  0
 49 53  1  0  0  0  0
 49 66  1  0  0  0  0
 50 54  1  0  0  0  0
 50 68  1  0  0  0  0
 51 72  1  0  0  0  0
 52 67  1  0  0  0  0
 53 60  1  0  0  0  0
 54 65  1  0  0  0  0
 55 62  1  0  0  0  0
 56 63  1  0  0  0  0
 57 63  1  0  0  0  0
 58 63  1  0  0  0  0
 59 74  1  0  0  0  0
 60 81  1  0  0  0  0
 61 63  1  0  0  0  0
 61 73  1  0  0  0  0
 62 74  1  0  0  0  0
 64 65  1  0  0  0  0
M  CHG  1  74   1
M  ISO  4  38 100  60 101  71 100  81 101
M  END
> <Batch ID>
0015

> <Smiles>
CNC(C)C(=O)NC(C(=O)N1Cc2cc([101O:1][101CH2:1]C3CCN(c4ccc([100NH:0][100C:0](=O)N5CCCC(n6nc(-c7ccc(Oc8ccc(F)cc8F)cc7)c(C(N)=O)c6N)C5)cc4F)C3)ccc2CC1C(=O)NC1CCCc2ccccc21)C(C)(C)C

> <Shape>
0.307

> <Color>
0.097

> <Negative vol penalty>
0.000

$$$$

  -OEChem-04042320543D

 84 92  0     1  0  0  0  0  0999 V2000
  -29.8678   -2.0832   36.8256 C   0  0  0  0  0  0  0  0  0  0  0  0
  -29.8000   -2.9386   35.7306 C   0  0  0  0  0  0  0  0  0  0  0  0
  -23.2846   -9.7975   19.9080 C   0  0  0  0  0  0  0  0  0  0  0  0
  -23.7225   -9.9368   22.2799 C   0  0  0  0  0  0  0  0  0  0  0  0
  -28.6956   -1.5915   37.3984 C   0  0  0  0  0  0  0  0  0  0  0  0
  -28.5597   -3.3021   35.2070 C   0  0  0  0  0  0  0  0  0  0  0  0
  -27.0427   -8.6994   32.7426 C   0  0  0  0  0  0  0  0  0  0  0  0
  -28.4291  -11.5084   25.2454 C   0  0  0  0  0  0  0  0  0  0  0  0
  -28.4860  -10.3588   23.1212 C   0  0  0  0  0  0  0  0  0  0  0  0
  -27.7612  -10.4241   25.8143 C   0  0  0  0  0  0  0  0  0  0  0  0
  -27.8181   -9.2744   23.6902 C   0  0  0  0  0  0  0  0  0  0  0  0
  -22.5525   -8.6278   20.1119 C   0  0  0  0  0  0  0  0  0  0  0  0
  -22.9904   -8.7671   22.4838 C   0  0  0  0  0  0  0  0  0  0  0  0
  -26.9560   -9.1361   31.4214 C   0  0  0  0  0  0  0  0  0  0  0  0
  -19.7387   -7.8687   22.6830 C   0  0  0  0  0  0  0  0  0  0  0  0
  -18.8303   -7.8507   23.7413 C   0  0  0  0  0  0  0  0  0  0  0  0
  -24.5870   -8.6809   31.4327 C   0  0  0  0  0  0  0  0  0  0  0  0
  -20.0233   -5.9990   24.7339 C   0  0  0  0  0  0  0  0  0  0  0  0
  -23.8696  -10.4519   20.9921 C   0  0  0  0  0  0  0  0  0  0  0  0
  -24.1400  -12.9809   20.7945 C   0  0  0  0  0  0  0  0  0  0  0  0
  -27.4401   -1.9568   36.8876 C   0  0  0  0  0  0  0  0  0  0  0  0
  -25.9022   -8.2391   33.4164 C   0  0  0  0  0  0  0  0  0  0  0  0
  -27.3696   -2.8138   35.7726 C   0  0  0  0  0  0  0  0  0  0  0  0
  -24.6614   -8.2413   32.7633 C   0  0  0  0  0  0  0  0  0  0  0  0
  -28.7915  -11.4758   23.8987 C   0  0  0  0  0  0  0  0  0  0  0  0
  -27.4557   -9.3071   25.0368 C   0  0  0  0  0  0  0  0  0  0  0  0
  -22.4054   -8.1126   21.3998 C   0  0  0  0  0  0  0  0  0  0  0  0
  -25.7286   -9.1242   30.7653 C   0  0  0  0  0  0  0  0  0  0  0  0
  -20.7894   -6.9518   22.6500 C   0  0  0  0  0  0  0  0  0  0  0  0
  -18.9726   -6.9159   24.7667 C   0  0  0  0  0  0  0  0  0  0  0  0
  -20.9317   -6.0170   23.6755 C   0  0  0  0  0  0  0  0  0  0  0  0
  -24.6265  -11.6599   20.7821 C   0  0  0  0  0  0  0  0  0  0  0  0
  -25.2459  -13.7565   20.5456 C   0  0  0  0  0  0  0  0  0  0  0  0
  -22.8075  -13.4637   21.0117 C   0  0  0  0  0  0  0  0  0  0  0  0
  -25.0315   -5.4755   34.7233 C   0  0  0  0  0  0  0  0  0  0  0  0
  -22.4723   -7.2006   35.7218 C   0  0  0  0  0  0  0  0  0  0  0  0
  -20.4424   -9.9047   35.2594 C   0  0  0  0  0  0  0  0  0  0  0  0
  -31.1496  -12.3509   21.3872 C   0  0  0  0  0  0  0  0  0  0  0  0
  -26.2020   -1.3624   37.5107 C   0  0  0  0  0  0  0  0  0  0  0  0
  -26.0076   -7.7965   34.8501 C   0  0  0  0  0  0  0  0  0  0  0  0
  -23.4036   -7.7759   33.4487 C   0  0  0  0  0  0  0  0  0  0  0  0
  -24.9172   -2.0935   37.1297 C   0  0  0  0  0  0  0  0  0  0  0  0
  -29.4877  -13.6547   18.3475 C   0  0  0  0  0  0  0  0  0  0  0  0
  -24.8769   -2.3545   35.6274 C   0  0  0  0  0  0  0  0  0  0  0  0
  -28.0171  -13.3328   18.6079 C   0  0  0  0  0  0  0  0  0  0  0  0
  -30.4170  -12.6711   19.0522 C   0  0  0  0  0  0  0  0  0  0  0  0
  -28.6994  -12.2294   20.7753 C   0  0  0  0  0  0  0  0  0  0  0  0
  -26.0424   -3.2508   35.1916 C   0  0  1  0  0  0  0  0  0  0  0  0
  -24.8755   -6.8653   35.2727 C   0  0  1  0  0  0  0  0  0  0  0  0
  -27.7370  -13.2295   20.1172 C   0  0  2  0  0  0  0  0  0  0  0  0
  -18.4121  -11.0298   36.2130 C   0  0  0  0  0  0  0  0  0  0  0  0
  -20.6974   -5.0672   34.4536 C   0  0  0  0  0  0  0  0  0  0  0  0
  -18.7849   -6.6772   34.5889 C   0  0  0  0  0  0  0  0  0  0  0  0
  -19.9058   -5.8966   36.6762 C   0  0  0  0  0  0  0  0  0  0  0  0
  -26.4659   -7.0444   24.7913 C   0  0  0  0  0  0  0  0  0  0  0  0
  -31.8627  -12.0559   23.7290 C   0  0  0  0  0  0  0  0  0  0  0  0
  -21.9521  -12.3786   35.8592 C   0  0  0  0  0  0  0  0  0  0  0  0
  -29.5053  -12.6348   23.2894 C   0  0  0  0  0  0  0  0  0  0  0  0
  -25.1026   -8.9645   27.2113 C   0  0  0  0  0  0  0  0  0  0  0  0
  -26.4098   -8.2097   27.0020 C   0  0  0  0  0  0  0  0  0  0  0  0
  -24.6335   -8.9512   28.6614 C   0  0  0  0  0  0  0  0  0  1  0  0
  -21.1096   -7.5176   35.1547 C   0  0  1  0  0  0  0  0  0  0  0  0
  -19.9311  -10.9575   36.2262 C   0  0  2  0  0  0  0  0  0  0  0  0
  -20.1483   -6.2967   35.2045 C   0  0  0  0  0  0  0  0  0  0  0  0
  -25.9392  -11.5961   20.5439 N   0  0  0  0  0  0  0  0  0  0  0  0
  -26.2869  -12.8867   20.4044 N   0  0  0  0  0  0  0  0  0  0  0  0
  -23.5593   -7.3469   34.8484 N   0  0  0  0  0  0  0  0  0  0  0  0
  -30.1009  -12.5599   20.4766 N   0  0  0  0  0  0  0  0  0  0  0  0
  -25.4196  -15.0907   20.4359 N   0  0  0  0  0  0  0  0  0  0  0  0
  -21.7900  -12.5308   21.2536 N   0  0  0  0  0  0  0  0  0  0  0  0
  -25.7716   -4.6317   35.5293 N   0  0  0  0  0  0  0  0  0  0  0  0
  -20.6276   -8.6877   35.8806 N   0  0  0  0  0  0  0  0  0  0  0  0
  -26.7858   -8.2161   25.6089 N   0  0  3  0  0  0  0  0  0  0  0  0
  -30.8090  -12.2608   22.7454 N   0  0  0  0  0  0  0  0  0  0  0  0
  -20.4686  -12.2991   35.8629 N   0  3  0  0  0  0  0  0  0  0  0  0
  -22.5246  -14.6852   20.9756 O   0  0  0  0  0  0  0  0  0  0  0  0
  -24.5171   -5.1895   33.6485 O   0  0  0  0  0  0  0  0  0  0  0  0
  -22.5694   -6.8434   36.8985 O   0  0  0  0  0  0  0  0  0  0  0  0
  -20.6527  -10.1376   34.0711 O   0  0  0  0  0  0  0  0  0  0  0  0
  -32.3246  -12.2600   21.0088 O   0  0  0  0  0  0  0  0  0  0  0  0
  -21.6909   -6.9715   21.5991 O   0  0  0  0  0  0  0  0  0  0  0  0
  -25.6413   -9.5493   29.4756 O   0  0  0  0  0  0  0  0  0  1  0  0
  -18.1010   -6.8998   25.7838 F   0  0  0  0  0  0  0  0  0  0  0  0
  -21.9398   -5.1344   23.6500 F   0  0  0  0  0  0  0  0  0  0  0  0
  1  2  1  0  0  0  0
  1  5  2  0  0  0  0
  2  6  2  0  0  0  0
  3 12  2  0  0  0  0
  3 19  1  0  0  0  0
  4 13  1  0  0  0  0
  4 19  2  0  0  0  0
  5 21  1  0  0  0  0
  6 23  1  0  0  0  0
  7 14  2  0  0  0  0
  7 22  1  0  0  0  0
  8 10  2  0  0  0  0
  8 25  1  0  0  0  0
  9 11  1  0  0  0  0
  9 25  2  0  0  0  0
 10 26  1  0  0  0  0
 11 26  2  0  0  0  0
 12 27  1  0  0  0  0
 13 27  2  0  0  0  0
 14 28  1  0  0  0  0
 15 16  2  0  0  0  0
 15 29  1  0  0  0  0
 16 30  1  0  0  0  0
 17 24  1  0  0  0  0
 17 28  2  0  0  0  0
 18 30  2  0  0  0  0
 18 31  1  0  0  0  0
 19 32  1  0  0  0  0
 20 32  1  0  0  0  0
 20 33  2  0  0  0  0
 20 34  1  0  0  0  0
 21 23  2  0  0  0  0
 21 39  1  0  0  0  0
 22 24  2  0  0  0  0
 22 40  1  0  0  0  0
 23 48  1  0  0  0  0
 24 41  1  0  0  0  0
 25 58  1  0  0  0  0
 26 73  1  0  0  0  0
 27 81  1  0  0  0  0
 28 82  1  0  0  0  0
 29 31  2  0  0  0  0
 29 81  1  0  0  0  0
 30 83  1  0  0  0  0
 31 84  1  0  0  0  0
 32 65  2  0  0  0  0
 33 66  1  0  0  0  0
 33 69  1  0  0  0  0
 34 70  1  0  0  0  0
 34 76  2  0  0  0  0
 35 49  1  0  0  0  0
 35 71  1  0  0  0  0
 35 77  2  0  0  0  0
 36 62  1  0  0  0  0
 36 67  1  0  0  0  0
 36 78  2  0  0  0  0
 37 63  1  0  0  0  0
 37 72  1  0  0  0  0
 37 79  2  0  0  0  0
 38 68  1  0  0  0  0
 38 74  1  0  0  0  0
 38 80  2  0  0  0  0
 39 42  1  0  0  0  0
 40 49  1  0  0  0  0
 41 67  1  0  0  0  0
 42 44  1  0  0  0  0
 43 45  1  0  0  0  0
 43 46  1  0  0  0  0
 44 48  1  0  0  0  0
 45 50  1  0  0  0  0
 46 68  1  0  0  0  0
 47 50  1  0  0  0  0
 47 68  1  0  0  0  0
 48 71  1  0  0  0  0
 49 67  1  0  0  0  0
 50 66  1  0  0  0  0
 51 63  1  0  0  0  0
 52 64  1  0  0  0  0
 53 64  1  0  0  0  0
 54 64  1  0  0  0  0
 55 73  1  0  0  0  0
 56 74  1  0  0  0  0
 57 75  1  0  0  0  0
 58 74  1  0  0  0  0
 59 60  1  0  0  0  0
 59 61  1  0  0  0  0
 60 73  1  0  0  0  0
 61 82  1  0  0  0  0
 62 64  1  0  0  0  0
 62 72  1  0  0  0  0
 63 75  1  0  0  0  0
 65 66  1  0  0  0  0
M  CHG  1  75   1
M  ISO  4  38 100  61 101  74 100  82 101
M  END
> <Batch ID>
0015

> <Smiles>
CNC(C)C(=O)NC(C(=O)N1Cc2cc([101O:1][101CH2:1]CCN(C)c3ccc(C[100N:0](C)[100C:0](=O)N4CCCC(n5nc(-c6ccc(Oc7ccc(F)cc7F)cc6)c(C(N)=O)c5N)C4)cc3)ccc2CC1C(=O)NC1CCCc2ccccc21)C(C)(C)C

> <Shape>
0.132

> <Color>
0.185

> <Negative vol penalty>
0.000

$$$$

  -OEChem-04042320543D

 84 92  0     1  0  0  0  0  0999 V2000
  -21.4267  -25.8143   17.1290 C   0  0  0  0  0  0  0  0  0  0  0  0
  -22.5908  -25.5785   17.8534 C   0  0  0  0  0  0  0  0  0  0  0  0
  -23.1656   -9.7225   20.3651 C   0  0  0  0  0  0  0  0  0  0  0  0
  -23.7239  -10.2471   22.6564 C   0  0  0  0  0  0  0  0  0  0  0  0
  -20.9171  -27.1084   17.0325 C   0  0  0  0  0  0  0  0  0  0  0  0
  -23.2465  -26.6371   18.4810 C   0  0  0  0  0  0  0  0  0  0  0  0
  -24.6784  -25.5084   23.2055 C   0  0  0  0  0  0  0  0  0  0  0  0
  -31.0902  -19.2113   19.6883 C   0  0  0  0  0  0  0  0  0  0  0  0
  -29.3075  -19.7004   21.2440 C   0  0  0  0  0  0  0  0  0  0  0  0
  -30.9581  -17.8506   19.9647 C   0  0  0  0  0  0  0  0  0  0  0  0
  -29.1754  -18.3396   21.5204 C   0  0  0  0  0  0  0  0  0  0  0  0
  -22.4315   -8.6179   20.7968 C   0  0  0  0  0  0  0  0  0  0  0  0
  -22.9897   -9.1424   23.0882 C   0  0  0  0  0  0  0  0  0  0  0  0
  -25.8203  -24.7224   23.3541 C   0  0  0  0  0  0  0  0  0  0  0  0
  -23.4094   -5.7932   23.2812 C   0  0  0  0  0  0  0  0  0  0  0  0
  -23.9855   -4.9702   24.2488 C   0  0  0  0  0  0  0  0  0  0  0  0
  -27.1137  -26.7022   23.8300 C   0  0  0  0  0  0  0  0  0  0  0  0
  -22.1392   -5.4286   25.7381 C   0  0  0  0  0  0  0  0  0  0  0  0
  -23.8118  -10.5371   21.2949 C   0  0  0  0  0  0  0  0  0  0  0  0
  -24.1005  -12.9918   20.6635 C   0  0  0  0  0  0  0  0  0  0  0  0
  -21.5616  -28.1819   17.6672 C   0  0  0  0  0  0  0  0  0  0  0  0
  -24.7479  -26.9007   23.3575 C   0  0  0  0  0  0  0  0  0  0  0  0
  -22.7458  -27.9471   18.3918 C   0  0  0  0  0  0  0  0  0  0  0  0
  -25.9707  -27.5034   23.6853 C   0  0  0  0  0  0  0  0  0  0  0  0
  -30.2649  -20.1363   20.3280 C   0  0  0  0  0  0  0  0  0  0  0  0
  -30.0007  -17.4147   20.8808 C   0  0  0  0  0  0  0  0  0  0  0  0
  -22.3435   -8.3278   22.1584 C   0  0  0  0  0  0  0  0  0  0  0  0
  -27.0387  -25.3196   23.6636 C   0  0  0  0  0  0  0  0  0  0  0  0
  -22.1982   -6.4340   23.5420 C   0  0  0  0  0  0  0  0  0  0  0  0
  -23.3504   -4.7879   25.4773 C   0  0  0  0  0  0  0  0  0  0  0  0
  -21.5630   -6.2517   24.7704 C   0  0  0  0  0  0  0  0  0  0  0  0
  -24.5708  -11.6780   20.8495 C   0  0  0  0  0  0  0  0  0  0  0  0
  -25.2012  -13.6932   20.2356 C   0  0  0  0  0  0  0  0  0  0  0  0
  -22.7863  -13.5302   20.8600 C   0  0  0  0  0  0  0  0  0  0  0  0
  -24.2079  -29.3939   21.4613 C   0  0  0  0  0  0  0  0  0  0  0  0
  -24.7128  -31.0804   24.1858 C   0  0  0  0  0  0  0  0  0  0  0  0
  -29.8905  -23.3715   21.7287 C   0  0  0  0  0  0  0  0  0  0  0  0
  -26.1254  -31.2160   27.2895 C   0  0  0  0  0  0  0  0  0  0  0  0
  -30.6044  -14.9834   20.6145 C   0  0  0  0  0  0  0  0  0  0  0  0
  -20.9991  -29.5707   17.4952 C   0  0  0  0  0  0  0  0  0  0  0  0
  -23.5017  -27.7317   23.2203 C   0  0  0  0  0  0  0  0  0  0  0  0
  -26.0945  -28.9919   23.8790 C   0  0  0  0  0  0  0  0  0  0  0  0
  -21.5475  -30.5790   18.5016 C   0  0  0  0  0  0  0  0  0  0  0  0
  -29.7588  -12.0779   18.7385 C   0  0  0  0  0  0  0  0  0  0  0  0
  -23.0643  -30.4566   18.6073 C   0  0  0  0  0  0  0  0  0  0  0  0
  -28.2950  -11.8229   19.1051 C   0  0  0  0  0  0  0  0  0  0  0  0
  -30.5606  -12.5945   19.9317 C   0  0  0  0  0  0  0  0  0  0  0  0
  -28.5241  -13.5132   20.9699 C   0  0  0  0  0  0  0  0  0  0  0  0
  -23.4720  -29.0655   19.1073 C   0  0  1  0  0  0  0  0  0  0  0  0
  -23.7911  -29.1929   22.8908 C   0  0  1  0  0  0  0  0  0  0  0  0
  -27.6613  -13.0534   19.7833 C   0  0  2  0  0  0  0  0  0  0  0  0
  -26.3978  -32.7394   29.2650 C   0  0  0  0  0  0  0  0  0  0  0  0
  -26.8052  -32.6885   22.6543 C   0  0  0  0  0  0  0  0  0  0  0  0
  -27.6852  -33.5045   24.8516 C   0  0  0  0  0  0  0  0  0  0  0  0
  -25.3483  -34.0459   24.1673 C   0  0  0  0  0  0  0  0  0  0  0  0
  -31.9995  -22.0278   21.8616 C   0  0  0  0  0  0  0  0  0  0  0  0
  -24.7277  -29.3254   29.0869 C   0  0  0  0  0  0  0  0  0  0  0  0
  -30.4072  -21.6010   20.0304 C   0  0  0  0  0  0  0  0  0  0  0  0
  -30.3713  -24.0864   22.9872 C   0  0  0  0  0  0  0  0  0  0  0  0
  -29.4038  -25.1583   23.4732 C   0  0  0  0  0  0  0  0  0  1  0  0
  -25.9206  -31.6833   24.8617 C   0  0  1  0  0  0  0  0  0  0  0  0
  -25.5621  -31.6359   28.6352 C   0  0  2  0  0  0  0  0  0  0  0  0
  -26.4382  -32.9527   24.1282 C   0  0  0  0  0  0  0  0  0  0  0  0
  -25.8690  -11.5497   20.5631 N   0  0  0  0  0  0  0  0  0  0  0  0
  -26.2239  -12.7918   20.1927 N   0  0  0  0  0  0  0  0  0  0  0  0
  -24.8490  -29.7622   23.7281 N   0  0  0  0  0  0  0  0  0  0  0  0
  -29.9026  -13.7630   20.5204 N   0  0  0  0  0  0  0  0  0  0  0  0
  -25.3843  -14.9867   19.8956 N   0  0  0  0  0  0  0  0  0  0  0  0
  -21.7716  -12.6708   21.3032 N   0  0  0  0  0  0  0  0  0  0  0  0
  -29.8661  -16.0324   21.1616 N   0  0  0  0  0  0  0  0  0  0  0  0
  -23.2745  -28.9644   20.5374 N   0  0  0  0  0  0  0  0  0  0  0  0
  -25.5399  -31.9098   26.2517 N   0  0  0  0  0  0  0  0  0  0  0  0
  -30.7331  -22.3730   21.2274 N   0  0  0  0  0  0  0  0  0  0  0  0
  -25.5344  -30.4756   29.5700 N   0  3  0  0  0  0  0  0  0  0  0  0
  -22.5157  -14.7338   20.6331 O   0  0  0  0  0  0  0  0  0  0  0  0
  -25.2952  -29.9026   21.2148 O   0  0  0  0  0  0  0  0  0  0  0  0
  -23.6840  -31.7519   24.0747 O   0  0  0  0  0  0  0  0  0  0  0  0
  -28.8157  -23.6771   21.2056 O   0  0  0  0  0  0  0  0  0  0  0  0
  -27.0003  -30.3610   27.1711 O   0  0  0  0  0  0  0  0  0  0  0  0
  -31.7652  -15.0972   20.2126 O   0  0  0  0  0  0  0  0  0  0  0  0
  -21.6271   -7.2501   22.5800 O   0  0  0  0  0  0  0  0  0  0  0  0
  -28.1550  -24.5548   23.8086 O   0  0  0  0  0  0  0  0  0  1  0  0
  -23.9030   -3.9963   26.4058 F   0  0  0  0  0  0  0  0  0  0  0  0
  -20.3987   -6.8637   25.0263 F   0  0  0  0  0  0  0  0  0  0  0  0
  1  2  1  0  0  0  0
  1  5  2  0  0  0  0
  2  6  2  0  0  0  0
  3 12  2  0  0  0  0
  3 19  1  0  0  0  0
  4 13  1  0  0  0  0
  4 19  2  0  0  0  0
  5 21  1  0  0  0  0
  6 23  1  0  0  0  0
  7 14  2  0  0  0  0
  7 22  1  0  0  0  0
  8 10  2  0  0  0  0
  8 25  1  0  0  0  0
  9 11  1  0  0  0  0
  9 25  2  0  0  0  0
 10 26  1  0  0  0  0
 11 26  2  0  0  0  0
 12 27  1  0  0  0  0
 13 27  2  0  0  0  0
 14 28  1  0  0  0  0
 15 16  2  0  0  0  0
 15 29  1  0  0  0  0
 16 30  1  0  0  0  0
 17 24  1  0  0  0  0
 17 28  2  0  0  0  0
 18 30  2  0  0  0  0
 18 31  1  0  0  0  0
 19 32  1  0  0  0  0
 20 32  1  0  0  0  0
 20 33  2  0  0  0  0
 20 34  1  0  0  0  0
 21 23  2  0  0  0  0
 21 40  1  0  0  0  0
 22 24  2  0  0  0  0
 22 41  1  0  0  0  0
 23 49  1  0  0  0  0
 24 42  1  0  0  0  0
 25 58  1  0  0  0  0
 26 70  1  0  0  0  0
 27 81  1  0  0  0  0
 28 82  1  0  0  0  0
 29 31  2  0  0  0  0
 29 81  1  0  0  0  0
 30 83  1  0  0  0  0
 31 84  1  0  0  0  0
 32 64  2  0  0  0  0
 33 65  1  0  0  0  0
 33 68  1  0  0  0  0
 34 69  1  0  0  0  0
 34 75  2  0  0  0  0
 35 50  1  0  0  0  0
 35 71  1  0  0  0  0
 35 76  2  0  0  0  0
 36 61  1  0  0  0  0
 36 66  1  0  0  0  0
 36 77  2  0  0  0  0
 37 59  1  0  0  0  0
 37 73  1  0  0  0  0
 37 78  2  0  0  0  0
 38 62  1  0  0  0  0
 38 72  1  0  0  0  0
 38 79  2  0  0  0  0
 39 67  1  0  0  0  0
 39 70  1  0  0  0  0
 39 80  2  0  0  0  0
 40 43  1  0  0  0  0
 41 50  1  0  0  0  0
 42 66  1  0  0  0  0
 43 45  1  0  0  0  0
 44 46  1  0  0  0  0
 44 47  1  0  0  0  0
 45 49  1  0  0  0  0
 46 51  1  0  0  0  0
 47 67  1  0  0  0  0
 48 51  1  0  0  0  0
 48 67  1  0  0  0  0
 49 71  1  0  0  0  0
 50 66  1  0  0  0  0
 51 65  1  0  0  0  0
 52 62  1  0  0  0  0
 53 63  1  0  0  0  0
 54 63  1  0  0  0  0
 55 63  1  0  0  0  0
 56 73  1  0  0  0  0
 57 74  1  0  0  0  0
 58 73  1  0  0  0  0
 59 60  1  0  0  0  0
 60 82  1  0  0  0  0
 61 63  1  0  0  0  0
 61 72  1  0  0  0  0
 62 74  1  0  0  0  0
 64 65  1  0  0  0  0
M  CHG  1  74   1
M  ISO  4  39 100  60 101  70 100  82 101
M  END
> <Batch ID>
0015

> <Smiles>
CNC(C)C(=O)NC(C(=O)N1Cc2cc([101O:1][101CH2:1]CC(=O)N(C)Cc3ccc([100NH:0][100C:0](=O)N4CCCC(n5nc(-c6ccc(Oc7ccc(F)cc7F)cc6)c(C(N)=O)c5N)C4)cc3)ccc2CC1C(=O)NC1CCCc2ccccc21)C(C)(C)C

> <Shape>
0.301

> <Color>
0.184

> <Negative vol penalty>
0.000

$$$$

  -OEChem-04042320543D

 95104  0     1  0  0  0  0  0999 V2000
  -21.6981  -20.7470   18.7880 C   0  0  0  0  0  0  0  0  0  0  0  0
  -21.2931  -22.0270   19.1526 C   0  0  0  0  0  0  0  0  0  0  0  0
  -25.2282   -9.8339   19.6412 C   0  0  0  0  0  0  0  0  0  0  0  0
  -25.0896   -9.9676   22.0495 C   0  0  0  0  0  0  0  0  0  0  0  0
  -22.9858  -20.3102   19.0959 C   0  0  0  0  0  0  0  0  0  0  0  0
  -22.1754  -22.8707   19.8265 C   0  0  0  0  0  0  0  0  0  0  0  0
  -23.8767  -29.7988   20.4771 C   0  0  0  0  0  0  0  0  0  0  0  0
  -25.0701  -27.0312   24.7400 C   0  0  0  0  0  0  0  0  0  0  0  0
  -25.3831  -25.6726   24.7837 C   0  0  0  0  0  0  0  0  0  0  0  0
  -26.4359  -20.2594   25.3954 C   0  0  0  0  0  0  0  0  0  0  0  0
  -28.8295  -20.4698   25.6472 C   0  0  0  0  0  0  0  0  0  0  0  0
  -26.6247  -19.2901   24.4103 C   0  0  0  0  0  0  0  0  0  0  0  0
  -29.0184  -19.5005   24.6621 C   0  0  0  0  0  0  0  0  0  0  0  0
  -25.0111   -8.4575   19.7050 C   0  0  0  0  0  0  0  0  0  0  0  0
  -24.8725   -8.5912   22.1134 C   0  0  0  0  0  0  0  0  0  0  0  0
  -24.0591  -30.7759   21.4548 C   0  0  0  0  0  0  0  0  0  0  0  0
  -22.3865   -6.3664   20.1196 C   0  0  0  0  0  0  0  0  0  0  0  0
  -21.4729   -5.8120   19.2232 C   0  0  0  0  0  0  0  0  0  0  0  0
  -26.2855  -29.9423   21.8640 C   0  0  0  0  0  0  0  0  0  0  0  0
  -24.8983  -27.0692   27.1496 C   0  0  0  0  0  0  0  0  0  0  0  0
  -23.2169   -4.4093   18.3132 C   0  0  0  0  0  0  0  0  0  0  0  0
  -25.2675  -10.5889   20.8134 C   0  0  0  0  0  0  0  0  0  0  0  0
  -24.5185  -13.0210   20.6362 C   0  0  0  0  0  0  0  0  0  0  0  0
  -23.8876  -21.1525   19.7654 C   0  0  0  0  0  0  0  0  0  0  0  0
  -24.8951  -28.8777   20.1927 C   0  0  0  0  0  0  0  0  0  0  0  0
  -23.4760  -22.4443   20.1449 C   0  0  0  0  0  0  0  0  0  0  0  0
  -26.1145  -28.9561   20.8805 C   0  0  0  0  0  0  0  0  0  0  0  0
  -27.5384  -20.8493   26.0138 C   0  0  0  0  0  0  0  0  0  0  0  0
  -24.8278  -27.7295   25.9229 C   0  0  0  0  0  0  0  0  0  0  0  0
  -25.4536  -25.0123   26.0104 C   0  0  0  0  0  0  0  0  0  0  0  0
  -27.9159  -18.9106   24.0437 C   0  0  0  0  0  0  0  0  0  0  0  0
  -24.8332   -7.8362   20.9411 C   0  0  0  0  0  0  0  0  0  0  0  0
  -25.2625  -30.8459   22.1504 C   0  0  0  0  0  0  0  0  0  0  0  0
  -23.7154   -5.9423   20.1127 C   0  0  0  0  0  0  0  0  0  0  0  0
  -21.8881   -4.8334   18.3200 C   0  0  0  0  0  0  0  0  0  0  0  0
  -25.2112  -25.7106   27.1933 C   0  0  0  0  0  0  0  0  0  0  0  0
  -24.1306   -4.9638   19.2096 C   0  0  0  0  0  0  0  0  0  0  0  0
  -25.4923  -12.0106   20.7481 C   0  0  0  0  0  0  0  0  0  0  0  0
  -25.2382  -14.1906   20.6135 C   0  0  0  0  0  0  0  0  0  0  0  0
  -23.0909  -12.9121   20.5597 C   0  0  0  0  0  0  0  0  0  0  0  0
  -25.1761  -25.7168   20.3759 C   0  0  0  0  0  0  0  0  0  0  0  0
  -28.0266  -26.2770   18.9325 C   0  0  0  0  0  0  0  0  0  0  0  0
  -30.5678  -28.4619   18.2878 C   0  0  0  0  0  0  0  0  0  0  0  0
  -29.3218  -17.4355   22.5625 C   0  0  0  0  0  0  0  0  0  0  0  0
  -25.2535  -20.6192   20.1185 C   0  0  0  0  0  0  0  0  0  0  0  0
  -24.6926  -27.8466   19.1165 C   0  0  0  0  0  0  0  0  0  0  0  0
  -27.2467  -28.0037   20.5986 C   0  0  0  0  0  0  0  0  0  0  0  0
  -26.2518  -21.7083   20.5028 C   0  0  0  0  0  0  0  0  0  0  0  0
  -30.2140  -14.9875   20.1358 C   0  0  0  0  0  0  0  0  0  0  0  0
  -25.6192  -22.6905   21.4835 C   0  0  0  0  0  0  0  0  0  0  0  0
  -28.9850  -14.0780   20.0696 C   0  0  0  0  0  0  0  0  0  0  0  0
  -30.4794  -15.4797   21.5575 C   0  0  0  0  0  0  0  0  0  0  0  0
  -28.1041  -15.2075   22.1517 C   0  0  0  0  0  0  0  0  0  0  0  0
  -24.4125  -23.3977   20.8550 C   0  0  1  0  0  0  0  0  0  0  0  0
  -25.6084  -26.6361   19.2688 C   0  0  1  0  0  0  0  0  0  0  0  0
  -27.7586  -14.7389   20.7287 C   0  0  2  0  0  0  0  0  0  0  0  0
  -28.4693  -21.9312   28.1008 C   0  0  0  0  0  0  0  0  0  0  0  0
  -32.7785  -28.6203   17.1110 C   0  0  0  0  0  0  0  0  0  0  0  0
  -23.7564  -33.0892   24.2461 C   0  0  0  0  0  0  0  0  0  0  0  0
  -29.3378  -24.6945   21.1878 C   0  0  0  0  0  0  0  0  0  0  0  0
  -31.5373  -25.6752   20.5033 C   0  0  0  0  0  0  0  0  0  0  0  0
  -30.2674  -24.2333   18.9123 C   0  0  0  0  0  0  0  0  0  0  0  0
  -29.5899  -30.6017   16.4923 C   0  0  0  0  0  0  0  0  0  0  0  0
  -26.8009  -29.8078   26.5714 C   0  0  0  0  0  0  0  0  0  0  0  0
  -28.1996  -23.5572   25.4365 C   0  0  0  0  0  0  0  0  0  0  0  0
  -24.4908  -29.1908   25.8759 C   0  0  0  0  0  0  0  0  0  0  0  0
  -25.7873  -23.5593   26.0540 C   0  0  0  0  0  0  0  0  0  0  0  0
  -25.3323  -31.5020   25.4876 C   0  0  0  0  0  0  0  0  0  0  0  0
  -27.3337  -21.8996   27.0810 C   0  0  1  0  0  0  0  0  0  0  0  0
  -29.4289  -26.5657   19.4112 C   0  0  1  0  0  0  0  0  0  0  0  0
  -31.2766  -28.8299   16.9968 C   0  0  2  0  0  0  0  0  0  0  0  0
  -24.5434  -31.7856   24.2134 C   0  0  2  0  0  0  0  0  0  1  0  0
  -30.1210  -25.3091   20.0105 C   0  0  0  0  0  0  0  0  0  0  0  0
  -26.7359  -12.4958   20.7932 N   0  0  0  0  0  0  0  0  0  0  0  0
  -26.5484  -13.8239   20.7092 N   0  0  0  0  0  0  0  0  0  0  0  0
  -26.9978  -27.0093   19.5417 N   0  0  0  0  0  0  0  0  0  0  0  0
  -29.2749  -16.0979   22.1160 N   0  0  0  0  0  0  0  0  0  0  0  0
  -24.8719  -15.4866   20.5212 N   0  0  0  0  0  0  0  0  0  0  0  0
  -22.5153  -11.6347   20.5967 N   0  0  0  0  0  0  0  0  0  0  0  0
  -28.1081  -17.9258   23.0432 N   0  0  0  0  0  0  0  0  0  0  0  0
  -24.8515  -24.4417   19.9539 N   0  0  0  0  0  0  0  0  0  0  0  0
  -30.1345  -27.1529   18.2773 N   0  0  0  0  0  0  0  0  0  0  0  0
  -31.0260  -30.2593   16.6576 N   0  3  0  0  0  0  0  0  0  0  0  0
  -25.6868  -30.0643   25.5866 N   0  3  1  0  0  0  0  0  0  0  0  0
  -27.1779  -23.2858   26.5106 N   0  3  1  0  0  0  0  0  0  0  0  0
  -22.3487  -13.9168   20.4448 O   0  0  0  0  0  0  0  0  0  0  0  0
  -25.1412  -26.1331   21.5279 O   0  0  0  0  0  0  0  0  0  0  0  0
  -27.8511  -25.4379   18.0455 O   0  0  0  0  0  0  0  0  0  0  0  0
  -30.4170  -29.2551   19.2144 O   0  0  0  0  0  0  0  0  0  0  0  0
  -30.3553  -18.1059   22.4962 O   0  0  0  0  0  0  0  0  0  0  0  0
  -24.6210   -6.4932   21.0038 O   0  0  0  0  0  0  0  0  0  0  0  0
  -25.4429  -31.7982   23.1057 O   0  0  0  0  0  0  0  0  0  1  0  0
  -21.0103   -4.3000   17.4603 F   0  0  0  0  0  0  0  0  0  0  0  0
  -25.2758  -25.0843   28.3766 F   0  0  0  0  0  0  0  0  0  0  0  0
  -25.4056   -4.5515   19.1991 F   0  0  0  0  0  0  0  0  0  0  0  0
  1  2  1  0  0  0  0
  1  5  2  0  0  0  0
  2  6  2  0  0  0  0
  3 14  2  0  0  0  0
  3 22  1  0  0  0  0
  4 15  1  0  0  0  0
  4 22  2  0  0  0  0
  5 24  1  0  0  0  0
  6 26  1  0  0  0  0
  7 16  2  0  0  0  0
  7 25  1  0  0  0  0
  8  9  2  0  0  0  0
  8 29  1  0  0  0  0
  9 30  1  0  0  0  0
 10 12  2  0  0  0  0
 10 28  1  0  0  0  0
 11 13  1  0  0  0  0
 11 28  2  0  0  0  0
 12 31  1  0  0  0  0
 13 31  2  0  0  0  0
 14 32  1  0  0  0  0
 15 32  2  0  0  0  0
 16 33  1  0  0  0  0
 17 18  2  0  0  0  0
 17 34  1  0  0  0  0
 18 35  1  0  0  0  0
 19 27  1  0  0  0  0
 19 33  2  0  0  0  0
 20 29  2  0  0  0  0
 20 36  1  0  0  0  0
 21 35  2  0  0  0  0
 21 37  1  0  0  0  0
 22 38  1  0  0  0  0
 23 38  1  0  0  0  0
 23 39  2  0  0  0  0
 23 40  1  0  0  0  0
 24 26  2  0  0  0  0
 24 45  1  0  0  0  0
 25 27  2  0  0  0  0
 25 46  1  0  0  0  0
 26 54  1  0  0  0  0
 27 47  1  0  0  0  0
 28 69  1  0  0  0  0
 29 66  1  0  0  0  0
 30 36  2  0  0  0  0
 30 67  1  0  0  0  0
 31 80  1  0  0  0  0
 32 91  1  0  0  0  0
 33 92  1  0  0  0  0
 34 37  2  0  0  0  0
 34 91  1  0  0  0  0
 35 93  1  0  0  0  0
 36 94  1  0  0  0  0
 37 95  1  0  0  0  0
 38 74  2  0  0  0  0
 39 75  1  0  0  0  0
 39 78  1  0  0  0  0
 40 79  1  0  0  0  0
 40 86  2  0  0  0  0
 41 55  1  0  0  0  0
 41 81  1  0  0  0  0
 41 87  2  0  0  0  0
 42 70  1  0  0  0  0
 42 76  1  0  0  0  0
 42 88  2  0  0  0  0
 43 71  1  0  0  0  0
 43 82  1  0  0  0  0
 43 89  2  0  0  0  0
 44 77  1  0  0  0  0
 44 80  1  0  0  0  0
 44 90  2  0  0  0  0
 45 48  1  0  0  0  0
 46 55  1  0  0  0  0
 47 76  1  0  0  0  0
 48 50  1  0  0  0  0
 49 51  1  0  0  0  0
 49 52  1  0  0  0  0
 50 54  1  0  0  0  0
 51 56  1  0  0  0  0
 52 77  1  0  0  0  0
 53 56  1  0  0  0  0
 53 77  1  0  0  0  0
 54 81  1  0  0  0  0
 55 76  1  0  0  0  0
 56 75  1  0  0  0  0
 57 69  1  0  0  0  0
 58 71  1  0  0  0  0
 59 72  1  0  0  0  0
 60 73  1  0  0  0  0
 61 73  1  0  0  0  0
 62 73  1  0  0  0  0
 63 83  1  0  0  0  0
 64 84  1  0  0  0  0
 65 85  1  0  0  0  0
 66 84  1  0  0  0  0
 67 85  1  0  0  0  0
 68 72  1  0  0  0  0
 68 84  1  0  0  0  0
 69 85  1  0  0  0  0
 70 73  1  0  0  0  0
 70 82  1  0  0  0  0
 71 83  1  0  0  0  0
 72 92  1  0  0  0  0
 74 75  1  0  0  0  0
M  CHG  3  83   1  84   1  85   1
M  ISO  4  44 100  72 101  80 100  92 101
M  END
> <Batch ID>
0015

> <Smiles>
CNC(C)C(=O)NC(C(=O)N1Cc2cc([101O:1][101CH:1](C)CN(C)Cc3ccc(CN(C)C(C)c4ccc([100NH:0][100C:0](=O)N5CCCC(n6nc(-c7ccc(Oc8ccc(F)cc8F)cc7)c(C(N)=O)c6N)C5)cc4)c(F)c3)ccc2CC1C(=O)NC1CCCc2ccccc21)C(C)(C)C

> <Shape>
0.219

> <Color>
0.085

> <Negative vol penalty>
0.000

$$$$

  -OEChem-04042320543D

 84 92  0     1  0  0  0  0  0999 V2000
  -29.8678   -2.0832   36.8256 C   0  0  0  0  0  0  0  0  0  0  0  0
  -29.8000   -2.9386   35.7306 C   0  0  0  0  0  0  0  0  0  0  0  0
  -23.2846   -9.7975   19.9080 C   0  0  0  0  0  0  0  0  0  0  0  0
  -23.7225   -9.9368   22.2799 C   0  0  0  0  0  0  0  0  0  0  0  0
  -28.6956   -1.5915   37.3984 C   0  0  0  0  0  0  0  0  0  0  0  0
  -28.5597   -3.3021   35.2070 C   0  0  0  0  0  0  0  0  0  0  0  0
  -27.0427   -8.6994   32.7426 C   0  0  0  0  0  0  0  0  0  0  0  0
  -28.4291  -11.5084   25.2454 C   0  0  0  0  0  0  0  0  0  0  0  0
  -28.4860  -10.3588   23.1212 C   0  0  0  0  0  0  0  0  0  0  0  0
  -27.7612  -10.4241   25.8143 C   0  0  0  0  0  0  0  0  0  0  0  0
  -27.8181   -9.2744   23.6902 C   0  0  0  0  0  0  0  0  0  0  0  0
  -22.5525   -8.6278   20.1119 C   0  0  0  0  0  0  0  0  0  0  0  0
  -22.9904   -8.7671   22.4838 C   0  0  0  0  0  0  0  0  0  0  0  0
  -26.9560   -9.1361   31.4214 C   0  0  0  0  0  0  0  0  0  0  0  0
  -19.7387   -7.8687   22.6830 C   0  0  0  0  0  0  0  0  0  0  0  0
  -18.8303   -7.8507   23.7413 C   0  0  0  0  0  0  0  0  0  0  0  0
  -24.5870   -8.6809   31.4327 C   0  0  0  0  0  0  0  0  0  0  0  0
  -20.0233   -5.9990   24.7339 C   0  0  0  0  0  0  0  0  0  0  0  0
  -23.8696  -10.4519   20.9921 C   0  0  0  0  0  0  0  0  0  0  0  0
  -24.1400  -12.9809   20.7945 C   0  0  0  0  0  0  0  0  0  0  0  0
  -27.4401   -1.9568   36.8876 C   0  0  0  0  0  0  0  0  0  0  0  0
  -25.9022   -8.2391   33.4164 C   0  0  0  0  0  0  0  0  0  0  0  0
  -27.3696   -2.8138   35.7726 C   0  0  0  0  0  0  0  0  0  0  0  0
  -24.6614   -8.2413   32.7633 C   0  0  0  0  0  0  0  0  0  0  0  0
  -28.7915  -11.4758   23.8987 C   0  0  0  0  0  0  0  0  0  0  0  0
  -27.4557   -9.3071   25.0368 C   0  0  0  0  0  0  0  0  0  0  0  0
  -22.4054   -8.1126   21.3998 C   0  0  0  0  0  0  0  0  0  0  0  0
  -25.7286   -9.1242   30.7653 C   0  0  0  0  0  0  0  0  0  0  0  0
  -20.7894   -6.9518   22.6500 C   0  0  0  0  0  0  0  0  0  0  0  0
  -18.9726   -6.9159   24.7667 C   0  0  0  0  0  0  0  0  0  0  0  0
  -20.9317   -6.0170   23.6755 C   0  0  0  0  0  0  0  0  0  0  0  0
  -24.6265  -11.6599   20.7821 C   0  0  0  0  0  0  0  0  0  0  0  0
  -25.2459  -13.7565   20.5456 C   0  0  0  0  0  0  0  0  0  0  0  0
  -22.8075  -13.4637   21.0117 C   0  0  0  0  0  0  0  0  0  0  0  0
  -25.0315   -5.4755   34.7233 C   0  0  0  0  0  0  0  0  0  0  0  0
  -22.4723   -7.2006   35.7218 C   0  0  0  0  0  0  0  0  0  0  0  0
  -20.4424   -9.9047   35.2594 C   0  0  0  0  0  0  0  0  0  0  0  0
  -31.1496  -12.3509   21.3872 C   0  0  0  0  0  0  0  0  0  0  0  0
  -26.2020   -1.3624   37.5107 C   0  0  0  0  0  0  0  0  0  0  0  0
  -26.0076   -7.7965   34.8501 C   0  0  0  0  0  0  0  0  0  0  0  0
  -23.4036   -7.7759   33.4487 C   0  0  0  0  0  0  0  0  0  0  0  0
  -24.9172   -2.0935   37.1297 C   0  0  0  0  0  0  0  0  0  0  0  0
  -29.4877  -13.6547   18.3475 C   0  0  0  0  0  0  0  0  0  0  0  0
  -24.8769   -2.3545   35.6274 C   0  0  0  0  0  0  0  0  0  0  0  0
  -28.0171  -13.3328   18.6079 C   0  0  0  0  0  0  0  0  0  0  0  0
  -30.4170  -12.6711   19.0522 C   0  0  0  0  0  0  0  0  0  0  0  0
  -28.6994  -12.2294   20.7753 C   0  0  0  0  0  0  0  0  0  0  0  0
  -26.0424   -3.2508   35.1916 C   0  0  1  0  0  0  0  0  0  0  0  0
  -24.8755   -6.8653   35.2727 C   0  0  1  0  0  0  0  0  0  0  0  0
  -27.7370  -13.2295   20.1172 C   0  0  2  0  0  0  0  0  0  0  0  0
  -18.4121  -11.0298   36.2130 C   0  0  0  0  0  0  0  0  0  0  0  0
  -20.6974   -5.0672   34.4536 C   0  0  0  0  0  0  0  0  0  0  0  0
  -18.7849   -6.6772   34.5889 C   0  0  0  0  0  0  0  0  0  0  0  0
  -19.9058   -5.8966   36.6762 C   0  0  0  0  0  0  0  0  0  0  0  0
  -26.4659   -7.0444   24.7913 C   0  0  0  0  0  0  0  0  0  0  0  0
  -31.8627  -12.0559   23.7290 C   0  0  0  0  0  0  0  0  0  0  0  0
  -21.9521  -12.3786   35.8592 C   0  0  0  0  0  0  0  0  0  0  0  0
  -29.5053  -12.6348   23.2894 C   0  0  0  0  0  0  0  0  0  0  0  0
  -25.1026   -8.9645   27.2113 C   0  0  0  0  0  0  0  0  0  0  0  0
  -26.4098   -8.2097   27.0020 C   0  0  0  0  0  0  0  0  0  0  0  0
  -24.6335   -8.9512   28.6614 C   0  0  0  0  0  0  0  0  0  1  0  0
  -21.1096   -7.5176   35.1547 C   0  0  1  0  0  0  0  0  0  0  0  0
  -19.9311  -10.9575   36.2262 C   0  0  2  0  0  0  0  0  0  0  0  0
  -20.1483   -6.2967   35.2045 C   0  0  0  0  0  0  0  0  0  0  0  0
  -25.9392  -11.5961   20.5439 N   0  0  0  0  0  0  0  0  0  0  0  0
  -26.2869  -12.8867   20.4044 N   0  0  0  0  0  0  0  0  0  0  0  0
  -23.5593   -7.3469   34.8484 N   0  0  0  0  0  0  0  0  0  0  0  0
  -30.1009  -12.5599   20.4766 N   0  0  0  0  0  0  0  0  0  0  0  0
  -25.4196  -15.0907   20.4359 N   0  0  0  0  0  0  0  0  0  0  0  0
  -21.7900  -12.5308   21.2536 N   0  0  0  0  0  0  0  0  0  0  0  0
  -25.7716   -4.6317   35.5293 N   0  0  0  0  0  0  0  0  0  0  0  0
  -20.6276   -8.6877   35.8806 N   0  0  0  0  0  0  0  0  0  0  0  0
  -26.7858   -8.2161   25.6089 N   0  0  3  0  0  0  0  0  0  0  0  0
  -30.8090  -12.2608   22.7454 N   0  0  0  0  0  0  0  0  0  0  0  0
  -20.4686  -12.2991   35.8629 N   0  3  0  0  0  0  0  0  0  0  0  0
  -22.5246  -14.6852   20.9756 O   0  0  0  0  0  0  0  0  0  0  0  0
  -24.5171   -5.1895   33.6485 O   0  0  0  0  0  0  0  0  0  0  0  0
  -22.5694   -6.8434   36.8985 O   0  0  0  0  0  0  0  0  0  0  0  0
  -20.6527  -10.1376   34.0711 O   0  0  0  0  0  0  0  0  0  0  0  0
  -32.3246  -12.2600   21.0088 O   0  0  0  0  0  0  0  0  0  0  0  0
  -21.6909   -6.9715   21.5991 O   0  0  0  0  0  0  0  0  0  0  0  0
  -25.6413   -9.5493   29.4756 O   0  0  0  0  0  0  0  0  0  1  0  0
  -18.1010   -6.8998   25.7838 F   0  0  0  0  0  0  0  0  0  0  0  0
  -21.9398   -5.1344   23.6500 F   0  0  0  0  0  0  0  0  0  0  0  0
  1  2  1  0  0  0  0
  1  5  2  0  0  0  0
  2  6  2  0  0  0  0
  3 12  2  0  0  0  0
  3 19  1  0  0  0  0
  4 13  1  0  0  0  0
  4 19  2  0  0  0  0
  5 21  1  0  0  0  0
  6 23  1  0  0  0  0
  7 14  2  0  0  0  0
  7 22  1  0  0  0  0
  8 10  2  0  0  0  0
  8 25  1  0  0  0  0
  9 11  1  0  0  0  0
  9 25  2  0  0  0  0
 10 26  1  0  0  0  0
 11 26  2  0  0  0  0
 12 27  1  0  0  0  0
 13 27  2  0  0  0  0
 14 28  1  0  0  0  0
 15 16  2  0  0  0  0
 15 29  1  0  0  0  0
 16 30  1  0  0  0  0
 17 24  1  0  0  0  0
 17 28  2  0  0  0  0
 18 30  2  0  0  0  0
 18 31  1  0  0  0  0
 19 32  1  0  0  0  0
 20 32  1  0  0  0  0
 20 33  2  0  0  0  0
 20 34  1  0  0  0  0
 21 23  2  0  0  0  0
 21 39  1  0  0  0  0
 22 24  2  0  0  0  0
 22 40  1  0  0  0  0
 23 48  1  0  0  0  0
 24 41  1  0  0  0  0
 25 58  1  0  0  0  0
 26 73  1  0  0  0  0
 27 81  1  0  0  0  0
 28 82  1  0  0  0  0
 29 31  2  0  0  0  0
 29 81  1  0  0  0  0
 30 83  1  0  0  0  0
 31 84  1  0  0  0  0
 32 65  2  0  0  0  0
 33 66  1  0  0  0  0
 33 69  1  0  0  0  0
 34 70  1  0  0  0  0
 34 76  2  0  0  0  0
 35 49  1  0  0  0  0
 35 71  1  0  0  0  0
 35 77  2  0  0  0  0
 36 62  1  0  0  0  0
 36 67  1  0  0  0  0
 36 78  2  0  0  0  0
 37 63  1  0  0  0  0
 37 72  1  0  0  0  0
 37 79  2  0  0  0  0
 38 68  1  0  0  0  0
 38 74  1  0  0  0  0
 38 80  2  0  0  0  0
 39 42  1  0  0  0  0
 40 49  1  0  0  0  0
 41 67  1  0  0  0  0
 42 44  1  0  0  0  0
 43 45  1  0  0  0  0
 43 46  1  0  0  0  0
 44 48  1  0  0  0  0
 45 50  1  0  0  0  0
 46 68  1  0  0  0  0
 47 50  1  0  0  0  0
 47 68  1  0  0  0  0
 48 71  1  0  0  0  0
 49 67  1  0  0  0  0
 50 66  1  0  0  0  0
 51 63  1  0  0  0  0
 52 64  1  0  0  0  0
 53 64  1  0  0  0  0
 54 64  1  0  0  0  0
 55 73  1  0  0  0  0
 56 74  1  0  0  0  0
 57 75  1  0  0  0  0
 58 74  1  0  0  0  0
 59 60  1  0  0  0  0
 59 61  1  0  0  0  0
 60 73  1  0  0  0  0
 61 82  1  0  0  0  0
 62 64  1  0  0  0  0
 62 72  1  0  0  0  0
 63 75  1  0  0  0  0
 65 66  1  0  0  0  0
M  CHG  1  75   1
M  ISO  4  38 100  61 101  74 100  82 101
M  END
> <Batch ID>
0015

> <Smiles>
CNC(C)C(=O)NC(C(=O)N1Cc2cc([101O:1][101CH2:1]CCN(C)c3ccc(C[100N:0](C)[100C:0](=O)N4CCCC(n5nc(-c6ccc(Oc7ccc(F)cc7F)cc6)c(C(N)=O)c5N)C4)cc3)ccc2CC1C(=O)NC1CCCc2ccccc21)C(C)(C)C

> <Shape>
0.132

> <Color>
0.185

> <Negative vol penalty>
0.000

$$$$

  -OEChem-04042320543D

 83 91  0     1  0  0  0  0  0999 V2000
  -22.0028  -11.8184   20.3339 C   0  0  0  0  0  0  0  0  0  0  0  0
  -21.7846  -13.0191   21.0017 C   0  0  0  0  0  0  0  0  0  0  0  0
  -26.1054  -26.6802   21.5131 C   0  0  0  0  0  0  0  0  0  0  0  0
  -25.5679  -27.6380   19.3612 C   0  0  0  0  0  0  0  0  0  0  0  0
  -23.2965  -11.4525   19.9647 C   0  0  0  0  0  0  0  0  0  0  0  0
  -22.8602  -13.8542   21.3019 C   0  0  0  0  0  0  0  0  0  0  0  0
  -22.8521  -19.9776   21.3980 C   0  0  0  0  0  0  0  0  0  0  0  0
  -21.1604  -24.7933   27.2877 C   0  0  0  0  0  0  0  0  0  0  0  0
  -20.4066  -22.8460   26.0725 C   0  0  0  0  0  0  0  0  0  0  0  0
  -20.2143  -25.5740   26.6236 C   0  0  0  0  0  0  0  0  0  0  0  0
  -19.4606  -23.6267   25.4083 C   0  0  0  0  0  0  0  0  0  0  0  0
  -27.3961  -26.3987   21.0655 C   0  0  0  0  0  0  0  0  0  0  0  0
  -26.8587  -27.3566   18.9136 C   0  0  0  0  0  0  0  0  0  0  0  0
  -22.7371  -20.8992   22.4378 C   0  0  0  0  0  0  0  0  0  0  0  0
  -30.2897  -28.0818   20.5889 C   0  0  0  0  0  0  0  0  0  0  0  0
  -31.3520  -28.3888   21.4391 C   0  0  0  0  0  0  0  0  0  0  0  0
  -25.1406  -21.0821   22.5335 C   0  0  0  0  0  0  0  0  0  0  0  0
  -32.0089  -26.0639   21.4579 C   0  0  0  0  0  0  0  0  0  0  0  0
  -25.1912  -27.2998   20.6610 C   0  0  0  0  0  0  0  0  0  0  0  0
  -23.4148  -28.7666   21.7566 C   0  0  0  0  0  0  0  0  0  0  0  0
  -24.3874  -12.2880   20.2519 C   0  0  0  0  0  0  0  0  0  0  0  0
  -24.1147  -19.5924   20.9247 C   0  0  0  0  0  0  0  0  0  0  0  0
  -24.1699  -13.4985   20.9374 C   0  0  0  0  0  0  0  0  0  0  0  0
  -25.2688  -20.1573   21.4859 C   0  0  0  0  0  0  0  0  0  0  0  0
  -21.2566  -23.4293   27.0121 C   0  0  0  0  0  0  0  0  0  0  0  0
  -19.3644  -24.9907   25.6839 C   0  0  0  0  0  0  0  0  0  0  0  0
  -27.7728  -26.7369   19.7657 C   0  0  0  0  0  0  0  0  0  0  0  0
  -23.8815  -21.4494   23.0077 C   0  0  0  0  0  0  0  0  0  0  0  0
  -30.0869  -26.7658   20.1733 C   0  0  0  0  0  0  0  0  0  0  0  0
  -32.2117  -27.3799   21.8736 C   0  0  0  0  0  0  0  0  0  0  0  0
  -30.9465  -25.7568   20.6078 C   0  0  0  0  0  0  0  0  0  0  0  0
  -23.8576  -27.5903   21.1226 C   0  0  0  0  0  0  0  0  0  0  0  0
  -22.0794  -28.5481   21.9920 C   0  0  0  0  0  0  0  0  0  0  0  0
  -24.1454  -29.9510   22.1019 C   0  0  0  0  0  0  0  0  0  0  0  0
  -25.7166  -16.8506   20.7834 C   0  0  0  0  0  0  0  0  0  0  0  0
  -27.8482  -18.6324   19.1089 C   0  0  0  0  0  0  0  0  0  0  0  0
  -29.1279  -21.7176   18.4084 C   0  0  0  0  0  0  0  0  0  0  0  0
  -17.9637  -25.4818   23.6868 C   0  0  0  0  0  0  0  0  0  0  0  0
  -25.7733  -11.8278   19.8749 C   0  0  0  0  0  0  0  0  0  0  0  0
  -24.2210  -18.6173   19.7844 C   0  0  0  0  0  0  0  0  0  0  0  0
  -26.6470  -19.7923   21.0003 C   0  0  0  0  0  0  0  0  0  0  0  0
  -26.8134  -12.9449   19.8980 C   0  0  0  0  0  0  0  0  0  0  0  0
  -18.9834  -24.9223   20.3267 C   0  0  0  0  0  0  0  0  0  0  0  0
  -26.6831  -13.7693   21.1748 C   0  0  0  0  0  0  0  0  0  0  0  0
  -20.3216  -25.6595   20.2890 C   0  0  0  0  0  0  0  0  0  0  0  0
  -18.7731  -24.1851   21.6496 C   0  0  0  0  0  0  0  0  0  0  0  0
  -20.2677  -25.7804   22.8096 C   0  0  0  0  0  0  0  0  0  0  0  0
  -25.3080  -14.4427   21.2588 C   0  0  1  0  0  0  0  0  0  0  0  0
  -25.5713  -17.9096   19.7274 C   0  0  1  0  0  0  0  0  0  0  0  0
  -20.4809  -26.5779   21.5135 C   0  0  1  0  0  0  0  0  0  0  0  0
  -30.8891  -22.8526   17.0273 C   0  0  0  0  0  0  0  0  0  0  0  0
  -29.9909  -17.6744   21.0585 C   0  0  0  0  0  0  0  0  0  0  0  0
  -31.4632  -19.5276   20.2425 C   0  0  0  0  0  0  0  0  0  0  0  0
  -30.7144  -17.7456   18.6657 C   0  0  0  0  0  0  0  0  0  0  0  0
  -17.6511  -26.8118   25.7625 C   0  0  0  0  0  0  0  0  0  0  0  0
  -27.1124  -23.3033   16.9311 C   0  0  0  0  0  0  0  0  0  0  0  0
  -23.8410  -20.6814   27.4041 C   0  0  0  0  0  0  0  0  0  0  0  0
  -22.2742  -22.5897   27.7266 C   0  0  0  0  0  0  0  0  0  0  0  0
  -24.3027  -22.8703   26.3098 C   0  0  0  0  0  0  0  0  0  0  0  0
  -24.8342  -22.3854   24.9755 C   0  0  0  0  0  0  0  0  0  1  0  0
  -29.0505  -19.4737   19.4636 C   0  0  1  0  0  0  0  0  0  0  0  0
  -29.4373  -22.4043   17.0904 C   0  0  2  0  0  0  0  0  0  0  0  0
  -30.2790  -18.6110   19.8682 C   0  0  0  0  0  0  0  0  0  0  0  0
  -22.8826  -26.6910   20.9653 N   0  0  0  0  0  0  0  0  0  0  0  0
  -21.8139  -27.3025   21.5039 N   0  0  0  0  0  0  0  0  0  0  0  0
  -26.6989  -18.8298   19.8874 N   0  0  0  0  0  0  0  0  0  0  0  0
  -18.9752  -25.0913   22.7890 N   0  0  0  0  0  0  0  0  0  0  0  0
  -21.1182  -29.3018   22.5667 N   0  0  0  0  0  0  0  0  0  0  0  0
  -25.5100  -30.0096   21.7880 N   0  0  0  0  0  0  0  0  0  0  0  0
  -25.2609  -15.6046   20.3972 N   0  0  0  0  0  0  0  0  0  0  0  0
  -29.2862  -20.3507   18.3217 N   0  0  0  0  0  0  0  0  0  0  0  0
  -18.3847  -25.7986   24.9963 N   0  0  0  0  0  0  0  0  0  0  0  0
  -28.5677  -23.6015   16.9133 N   0  3  0  0  0  0  0  0  0  0  0  0
  -23.2587  -21.9312   26.7919 N   0  3  1  0  0  0  0  0  0  0  0  0
  -23.6077  -30.9219   22.6867 O   0  0  0  0  0  0  0  0  0  0  0  0
  -26.2074  -17.1421   21.8678 O   0  0  0  0  0  0  0  0  0  0  0  0
  -27.9237  -17.8348   18.1710 O   0  0  0  0  0  0  0  0  0  0  0  0
  -28.7840  -22.3328   19.4153 O   0  0  0  0  0  0  0  0  0  0  0  0
  -16.7798  -25.5664   23.3388 O   0  0  0  0  0  0  0  0  0  0  0  0
  -29.0322  -26.4626   19.3287 O   0  0  0  0  0  0  0  0  0  0  0  0
  -23.7721  -22.3487   24.0231 O   0  0  0  0  0  0  0  0  0  1  0  0
  -33.2327  -27.6752   22.6887 F   0  0  0  0  0  0  0  0  0  0  0  0
  -30.7575  -24.4909   20.2110 F   0  0  0  0  0  0  0  0  0  0  0  0
  1  2  1  0  0  0  0
  1  5  2  0  0  0  0
  2  6  2  0  0  0  0
  3 12  2  0  0  0  0
  3 19  1  0  0  0  0
  4 13  1  0  0  0  0
  4 19  2  0  0  0  0
  5 21  1  0  0  0  0
  6 23  1  0  0  0  0
  7 14  2  0  0  0  0
  7 22  1  0  0  0  0
  8 10  2  0  0  0  0
  8 25  1  0  0  0  0
  9 11  1  0  0  0  0
  9 25  2  0  0  0  0
 10 26  1  0  0  0  0
 11 26  2  0  0  0  0
 12 27  1  0  0  0  0
 13 27  2  0  0  0  0
 14 28  1  0  0  0  0
 15 16  2  0  0  0  0
 15 29  1  0  0  0  0
 16 30  1  0  0  0  0
 17 24  1  0  0  0  0
 17 28  2  0  0  0  0
 18 30  2  0  0  0  0
 18 31  1  0  0  0  0
 19 32  1  0  0  0  0
 20 32  1  0  0  0  0
 20 33  2  0  0  0  0
 20 34  1  0  0  0  0
 21 23  2  0  0  0  0
 21 39  1  0  0  0  0
 22 24  2  0  0  0  0
 22 40  1  0  0  0  0
 23 48  1  0  0  0  0
 24 41  1  0  0  0  0
 25 58  1  0  0  0  0
 26 72  1  0  0  0  0
 27 80  1  0  0  0  0
 28 81  1  0  0  0  0
 29 31  2  0  0  0  0
 29 80  1  0  0  0  0
 30 82  1  0  0  0  0
 31 83  1  0  0  0  0
 32 64  2  0  0  0  0
 33 65  1  0  0  0  0
 33 68  1  0  0  0  0
 34 69  1  0  0  0  0
 34 75  2  0  0  0  0
 35 49  1  0  0  0  0
 35 70  1  0  0  0  0
 35 76  2  0  0  0  0
 36 61  1  0  0  0  0
 36 66  1  0  0  0  0
 36 77  2  0  0  0  0
 37 62  1  0  0  0  0
 37 71  1  0  0  0  0
 37 78  2  0  0  0  0
 38 67  1  0  0  0  0
 38 72  1  0  0  0  0
 38 79  2  0  0  0  0
 39 42  1  0  0  0  0
 40 49  1  0  0  0  0
 41 66  1  0  0  0  0
 42 44  1  0  0  0  0
 43 45  1  0  0  0  0
 43 46  1  0  0  0  0
 44 48  1  0  0  0  0
 45 50  1  0  0  0  0
 46 67  1  0  0  0  0
 47 50  1  0  0  0  0
 47 67  1  0  0  0  0
 48 70  1  0  0  0  0
 49 66  1  0  0  0  0
 50 65  1  0  0  0  0
 51 62  1  0  0  0  0
 52 63  1  0  0  0  0
 53 63  1  0  0  0  0
 54 63  1  0  0  0  0
 55 72  1  0  0  0  0
 56 73  1  0  0  0  0
 57 74  1  0  0  0  0
 58 74  1  0  0  0  0
 59 60  1  0  0  0  0
 59 74  1  0  0  0  0
 60 81  1  0  0  0  0
 61 63  1  0  0  0  0
 61 71  1  0  0  0  0
 62 73  1  0  0  0  0
 64 65  1  0  0  0  0
M  CHG  2  73   1  74   1
M  ISO  4  38 100  60 101  72 100  81 101
M  END
> <Batch ID>
0015

> <Smiles>
CNC(C)C(=O)NC(C(=O)N1Cc2cc([101O:1][101CH2:1]CN(C)Cc3ccc([100N:0](C)[100C:0](=O)N4CCCC(n5nc(-c6ccc(Oc7ccc(F)cc7F)cc6)c(C(N)=O)c5N)C4)cc3)ccc2CC1C(=O)NC1CCCc2ccccc21)C(C)(C)C

> <Shape>
0.226

> <Color>
0.069

> <Negative vol penalty>
0.000

$$$$

  -OEChem-04042320543D

 86 94  0     1  0  0  0  0  0999 V2000
  -16.8322  -28.9284   24.2425 C   0  0  0  0  0  0  0  0  0  0  0  0
  -17.2354  -28.1375   23.1714 C   0  0  0  0  0  0  0  0  0  0  0  0
  -25.8251  -14.0595   20.6737 C   0  0  0  0  0  0  0  0  0  0  0  0
  -23.4946  -13.9168   21.2947 C   0  0  0  0  0  0  0  0  0  0  0  0
  -17.5570  -30.0723   24.5746 C   0  0  0  0  0  0  0  0  0  0  0  0
  -18.3630  -28.4906   22.4310 C   0  0  0  0  0  0  0  0  0  0  0  0
  -22.3996  -24.6882   19.8322 C   0  0  0  0  0  0  0  0  0  0  0  0
  -26.0023  -12.7231   21.0314 C   0  0  0  0  0  0  0  0  0  0  0  0
  -23.6718  -12.5802   21.6524 C   0  0  0  0  0  0  0  0  0  0  0  0
  -22.5396  -24.2180   18.5272 C   0  0  0  0  0  0  0  0  0  0  0  0
  -23.8997   -9.5938   20.0872 C   0  0  0  0  0  0  0  0  0  0  0  0
  -22.9374   -8.6778   19.6626 C   0  0  0  0  0  0  0  0  0  0  0  0
  -24.1597  -25.9494   18.0835 C   0  0  0  0  0  0  0  0  0  0  0  0
  -26.6797  -22.8858   19.5003 C   0  0  0  0  0  0  0  0  0  0  0  0
  -28.5891  -21.0183   20.3064 C   0  0  0  0  0  0  0  0  0  0  0  0
  -22.4612   -8.1118   21.9626 C   0  0  0  0  0  0  0  0  0  0  0  0
  -24.5712  -14.6565   20.8054 C   0  0  0  0  0  0  0  0  0  0  0  0
  -24.0201  -16.5380   19.1734 C   0  0  0  0  0  0  0  0  0  0  0  0
  -18.6997  -30.4342   23.8440 C   0  0  0  0  0  0  0  0  0  0  0  0
  -23.1318  -25.8012   20.2701 C   0  0  0  0  0  0  0  0  0  0  0  0
  -19.1030  -29.6410   22.7529 C   0  0  0  0  0  0  0  0  0  0  0  0
  -24.0291  -26.4302   19.3953 C   0  0  0  0  0  0  0  0  0  0  0  0
  -27.5073  -22.2816   18.5539 C   0  0  0  0  0  0  0  0  0  0  0  0
  -27.7615  -21.6226   21.2528 C   0  0  0  0  0  0  0  0  0  0  0  0
  -24.9257  -11.9834   21.5207 C   0  0  0  0  0  0  0  0  0  0  0  0
  -23.4175  -24.8504   17.6517 C   0  0  0  0  0  0  0  0  0  0  0  0
  -24.1429   -9.7688   21.4496 C   0  0  0  0  0  0  0  0  0  0  0  0
  -22.2181   -7.9368   20.6002 C   0  0  0  0  0  0  0  0  0  0  0  0
  -26.8069  -22.5563   20.8497 C   0  0  0  0  0  0  0  0  0  0  0  0
  -28.4620  -21.3478   18.9569 C   0  0  0  0  0  0  0  0  0  0  0  0
  -23.4237   -9.0278   22.3872 C   0  0  0  0  0  0  0  0  0  0  0  0
  -24.3877  -16.0372   20.4366 C   0  0  0  0  0  0  0  0  0  0  0  0
  -23.9808  -17.9005   19.3424 C   0  0  0  0  0  0  0  0  0  0  0  0
  -23.7393  -15.8346   17.9560 C   0  0  0  0  0  0  0  0  0  0  0  0
  -22.3831  -28.7010   21.3350 C   0  0  0  0  0  0  0  0  0  0  0  0
  -25.5764  -28.9042   21.8679 C   0  0  0  0  0  0  0  0  0  0  0  0
  -28.7186  -27.8269   21.0851 C   0  0  0  0  0  0  0  0  0  0  0  0
  -26.8210  -21.3126   23.5573 C   0  0  0  0  0  0  0  0  0  0  0  0
  -19.4235  -31.7054   24.2111 C   0  0  0  0  0  0  0  0  0  0  0  0
  -22.9893  -26.2796   21.6890 C   0  0  0  0  0  0  0  0  0  0  0  0
  -24.8533  -27.6162   19.8225 C   0  0  0  0  0  0  0  0  0  0  0  0
  -20.8231  -31.8049   23.6097 C   0  0  0  0  0  0  0  0  0  0  0  0
  -23.2333  -21.2670   22.6523 C   0  0  0  0  0  0  0  0  0  0  0  0
  -20.7972  -31.4271   22.1320 C   0  0  0  0  0  0  0  0  0  0  0  0
  -23.0783  -19.9208   21.9473 C   0  0  0  0  0  0  0  0  0  0  0  0
  -24.3518  -21.2377   23.6895 C   0  0  0  0  0  0  0  0  0  0  0  0
  -25.5130  -19.4487   22.4276 C   0  0  0  0  0  0  0  0  0  0  0  0
  -20.3351  -29.9775   21.9412 C   0  0  1  0  0  0  0  0  0  0  0  0
  -23.4023  -27.7367   21.8725 C   0  0  1  0  0  0  0  0  0  0  0  0
  -24.4192  -19.4641   21.3493 C   0  0  1  0  0  0  0  0  0  0  0  0
  -31.2122  -27.6015   21.2537 C   0  0  0  0  0  0  0  0  0  0  0  0
  -25.5559  -31.4889   20.2464 C   0  0  0  0  0  0  0  0  0  0  0  0
  -28.0451  -31.3041   20.0511 C   0  0  0  0  0  0  0  0  0  0  0  0
  -26.9871  -31.5546   22.2962 C   0  0  0  0  0  0  0  0  0  0  0  0
  -29.2439  -21.1441   23.1929 C   0  0  0  0  0  0  0  0  0  0  0  0
  -28.5027  -25.6039   23.0268 C   0  0  0  0  0  0  0  0  0  0  0  0
  -26.3536  -20.5458   16.2104 C   0  0  0  0  0  0  0  0  0  0  0  0
  -27.3674  -22.6376   17.1032 C   0  0  0  0  0  0  0  0  0  0  0  0
  -24.2284  -22.5496   14.9991 C   0  0  0  0  0  0  0  0  0  0  0  0
  -25.7167  -22.7501   15.2423 C   0  0  0  0  0  0  0  0  0  0  0  0
  -23.3513  -22.9981   16.1616 C   0  0  0  0  0  0  0  0  0  1  0  0
  -26.7681  -29.3597   21.0608 C   0  0  1  0  0  0  0  0  0  0  0  0
  -29.8813  -27.3922   21.9590 C   0  0  2  0  0  0  0  0  0  0  0  0
  -26.8222  -30.9057   20.9047 C   0  0  0  0  0  0  0  0  0  0  0  0
  -24.5691  -17.0029   21.3413 N   0  0  0  0  0  0  0  0  0  0  0  0
  -24.3146  -18.1242   20.6457 N   0  0  0  0  0  0  0  0  0  0  0  0
  -24.6740  -28.0505   21.2177 N   0  0  0  0  0  0  0  0  0  0  0  0
  -25.6069  -20.7440   23.1205 N   0  0  0  0  0  0  0  0  0  0  0  0
  -23.6938  -18.9171   18.5017 N   0  0  0  0  0  0  0  0  0  0  0  0
  -23.8261  -14.4357   17.9574 N   0  0  0  0  0  0  0  0  0  0  0  0
  -21.4108  -29.0595   22.2491 N   0  0  0  0  0  0  0  0  0  0  0  0
  -27.9426  -28.7828   21.7059 N   0  0  0  0  0  0  0  0  0  0  0  0
  -27.8951  -21.2797   22.6476 N   0  0  0  0  0  0  0  0  0  0  0  0
  -29.7559  -25.9486   22.3074 N   0  3  0  0  0  0  0  0  0  0  0  0
  -26.1497  -22.0213   16.4575 N   0  3  1  0  0  0  0  0  0  0  0  0
  -23.4368  -16.4298   16.8941 O   0  0  0  0  0  0  0  0  0  0  0  0
  -22.4730  -29.0921   20.1771 O   0  0  0  0  0  0  0  0  0  0  0  0
  -25.4545  -29.2859   23.0345 O   0  0  0  0  0  0  0  0  0  0  0  0
  -28.5209  -27.3675   19.9624 O   0  0  0  0  0  0  0  0  0  0  0  0
  -26.9567  -21.7684   24.6994 O   0  0  0  0  0  0  0  0  0  0  0  0
  -25.0982  -10.6791   21.8696 O   0  0  0  0  0  0  0  0  0  0  0  0
  -23.5556  -24.3939   16.3772 O   0  0  0  0  0  0  0  0  0  1  0  0
  -21.2929   -7.0583   20.1923 F   0  0  0  0  0  0  0  0  0  0  0  0
  -26.0061  -23.1434   21.7508 F   0  0  0  0  0  0  0  0  0  0  0  0
  -29.2616  -20.7622   18.0549 F   0  0  0  0  0  0  0  0  0  0  0  0
  -23.6521   -9.1924   23.6974 F   0  0  0  0  0  0  0  0  0  0  0  0
  1  2  1  0  0  0  0
  1  5  2  0  0  0  0
  2  6  2  0  0  0  0
  3  8  2  0  0  0  0
  3 17  1  0  0  0  0
  4  9  1  0  0  0  0
  4 17  2  0  0  0  0
  5 19  1  0  0  0  0
  6 21  1  0  0  0  0
  7 10  2  0  0  0  0
  7 20  1  0  0  0  0
  8 25  1  0  0  0  0
  9 25  2  0  0  0  0
 10 26  1  0  0  0  0
 11 12  2  0  0  0  0
 11 27  1  0  0  0  0
 12 28  1  0  0  0  0
 13 22  1  0  0  0  0
 13 26  2  0  0  0  0
 14 23  1  0  0  0  0
 14 29  2  0  0  0  0
 15 24  2  0  0  0  0
 15 30  1  0  0  0  0
 16 28  2  0  0  0  0
 16 31  1  0  0  0  0
 17 32  1  0  0  0  0
 18 32  1  0  0  0  0
 18 33  2  0  0  0  0
 18 34  1  0  0  0  0
 19 21  2  0  0  0  0
 19 39  1  0  0  0  0
 20 22  2  0  0  0  0
 20 40  1  0  0  0  0
 21 48  1  0  0  0  0
 22 41  1  0  0  0  0
 23 30  2  0  0  0  0
 23 58  1  0  0  0  0
 24 29  1  0  0  0  0
 24 73  1  0  0  0  0
 25 81  1  0  0  0  0
 26 82  1  0  0  0  0
 27 31  2  0  0  0  0
 27 81  1  0  0  0  0
 28 83  1  0  0  0  0
 29 84  1  0  0  0  0
 30 85  1  0  0  0  0
 31 86  1  0  0  0  0
 32 65  2  0  0  0  0
 33 66  1  0  0  0  0
 33 69  1  0  0  0  0
 34 70  1  0  0  0  0
 34 76  2  0  0  0  0
 35 49  1  0  0  0  0
 35 71  1  0  0  0  0
 35 77  2  0  0  0  0
 36 62  1  0  0  0  0
 36 67  1  0  0  0  0
 36 78  2  0  0  0  0
 37 63  1  0  0  0  0
 37 72  1  0  0  0  0
 37 79  2  0  0  0  0
 38 68  1  0  0  0  0
 38 73  1  0  0  0  0
 38 80  2  0  0  0  0
 39 42  1  0  0  0  0
 40 49  1  0  0  0  0
 41 67  1  0  0  0  0
 42 44  1  0  0  0  0
 43 45  1  0  0  0  0
 43 46  1  0  0  0  0
 44 48  1  0  0  0  0
 45 50  1  0  0  0  0
 46 68  1  0  0  0  0
 47 50  1  0  0  0  0
 47 68  1  0  0  0  0
 48 71  1  0  0  0  0
 49 67  1  0  0  0  0
 50 66  1  0  0  0  0
 51 63  1  0  0  0  0
 52 64  1  0  0  0  0
 53 64  1  0  0  0  0
 54 64  1  0  0  0  0
 55 73  1  0  0  0  0
 56 74  1  0  0  0  0
 57 75  1  0  0  0  0
 58 75  1  0  0  0  0
 59 60  1  0  0  0  0
 59 61  1  0  0  0  0
 60 75  1  0  0  0  0
 61 82  1  0  0  0  0
 62 64  1  0  0  0  0
 62 72  1  0  0  0  0
 63 74  1  0  0  0  0
 65 66  1  0  0  0  0
M  CHG  2  74   1  75   1
M  ISO  4  38 100  61 101  73 100  82 101
M  END
> <Batch ID>
0015

> <Smiles>
CNC(C)C(=O)NC(C(=O)N1Cc2cc([101O:1][101CH2:1]CCN(C)Cc3cc(F)c([100N:0](C)[100C:0](=O)N4CCCC(n5nc(-c6ccc(Oc7ccc(F)cc7F)cc6)c(C(N)=O)c5N)C4)cc3F)ccc2CC1C(=O)NC1CCCc2ccccc21)C(C)(C)C

> <Shape>
0.217

> <Color>
0.075

> <Negative vol penalty>
0.000

$$$$

  -OEChem-04042320543D

 85 93  0     1  0  0  0  0  0999 V2000
  -29.3525  -19.0289   17.6954 C   0  0  0  0  0  0  0  0  0  0  0  0
  -28.8811  -19.3283   18.9696 C   0  0  0  0  0  0  0  0  0  0  0  0
  -28.2428  -14.1989   19.0929 C   0  0  0  0  0  0  0  0  0  0  0  0
  -28.4890  -13.9558   21.4840 C   0  0  0  0  0  0  0  0  0  0  0  0
  -29.8651  -20.0425   16.8870 C   0  0  0  0  0  0  0  0  0  0  0  0
  -28.9232  -20.6416   19.4366 C   0  0  0  0  0  0  0  0  0  0  0  0
  -24.6229  -22.0293   21.7228 C   0  0  0  0  0  0  0  0  0  0  0  0
  -29.5954  -14.5225   18.9865 C   0  0  0  0  0  0  0  0  0  0  0  0
  -29.8416  -14.2794   21.3776 C   0  0  0  0  0  0  0  0  0  0  0  0
  -24.4214  -21.5797   23.0270 C   0  0  0  0  0  0  0  0  0  0  0  0
  -33.2779  -15.3926   21.7813 C   0  0  0  0  0  0  0  0  0  0  0  0
  -33.8022  -16.2985   22.7032 C   0  0  0  0  0  0  0  0  0  0  0  0
  -25.1285  -23.7265   23.8699 C   0  0  0  0  0  0  0  0  0  0  0  0
  -21.1754  -18.0582   25.8951 C   0  0  0  0  0  0  0  0  0  0  0  0
  -32.2405  -17.9773   21.9417 C   0  0  0  0  0  0  0  0  0  0  0  0
  -22.6341  -16.8121   27.9204 C   0  0  0  0  0  0  0  0  0  0  0  0
  -27.6895  -13.9156   20.3417 C   0  0  0  0  0  0  0  0  0  0  0  0
  -25.7164  -12.2992   20.3814 C   0  0  0  0  0  0  0  0  0  0  0  0
  -29.9046  -21.3704   17.3406 C   0  0  0  0  0  0  0  0  0  0  0  0
  -25.0899  -23.3295   21.4823 C   0  0  0  0  0  0  0  0  0  0  0  0
  -29.4381  -21.6737   18.6339 C   0  0  0  0  0  0  0  0  0  0  0  0
  -25.3327  -24.1911   22.5616 C   0  0  0  0  0  0  0  0  0  0  0  0
  -21.1775  -18.5931   27.1833 C   0  0  0  0  0  0  0  0  0  0  0  0
  -21.9026  -16.9002   25.6195 C   0  0  0  0  0  0  0  0  0  0  0  0
  -30.3948  -14.5627   20.1288 C   0  0  0  0  0  0  0  0  0  0  0  0
  -24.6769  -22.4274   24.1009 C   0  0  0  0  0  0  0  0  0  0  0  0
  -32.2348  -15.7790   20.9395 C   0  0  0  0  0  0  0  0  0  0  0  0
  -33.2835  -17.5909   22.7834 C   0  0  0  0  0  0  0  0  0  0  0  0
  -21.9069  -17.9700   28.1959 C   0  0  0  0  0  0  0  0  0  0  0  0
  -22.6320  -16.2772   26.6321 C   0  0  0  0  0  0  0  0  0  0  0  0
  -31.7161  -17.0714   21.0198 C   0  0  0  0  0  0  0  0  0  0  0  0
  -26.2922  -13.5819   20.4523 C   0  0  0  0  0  0  0  0  0  0  0  0
  -24.3701  -12.5179   20.5431 C   0  0  0  0  0  0  0  0  0  0  0  0
  -26.3425  -11.0241   20.1869 C   0  0  0  0  0  0  0  0  0  0  0  0
  -27.6808  -24.5658   20.1174 C   0  0  0  0  0  0  0  0  0  0  0  0
  -26.1098  -27.3665   20.5764 C   0  0  0  0  0  0  0  0  0  0  0  0
  -23.7604  -29.1175   22.3258 C   0  0  0  0  0  0  0  0  0  0  0  0
  -21.2281  -16.8552   23.1927 C   0  0  0  0  0  0  0  0  0  0  0  0
  -30.5114  -22.4245   16.4487 C   0  0  0  0  0  0  0  0  0  0  0  0
  -25.2767  -23.8082   20.0686 C   0  0  0  0  0  0  0  0  0  0  0  0
  -25.8158  -25.6028   22.3563 C   0  0  0  0  0  0  0  0  0  0  0  0
  -30.1751  -23.8509   16.8757 C   0  0  0  0  0  0  0  0  0  0  0  0
  -20.9977  -15.8335   19.7897 C   0  0  0  0  0  0  0  0  0  0  0  0
  -30.3752  -24.0195   18.3785 C   0  0  0  0  0  0  0  0  0  0  0  0
  -22.2739  -15.0183   19.5687 C   0  0  0  0  0  0  0  0  0  0  0  0
  -21.2392  -17.0259   20.7136 C   0  0  0  0  0  0  0  0  0  0  0  0
  -23.1437  -15.8824   21.7787 C   0  0  0  0  0  0  0  0  0  0  0  0
  -29.4441  -23.0902   19.1666 C   0  0  1  0  0  0  0  0  0  0  0  0
  -26.2457  -24.9813   19.9581 C   0  0  1  0  0  0  0  0  0  0  0  0
  -22.9355  -14.6335   20.9066 C   0  0  2  0  0  0  0  0  0  0  0  0
  -22.7262  -31.3976   22.4977 C   0  0  0  0  0  0  0  0  0  0  0  0
  -28.6060  -28.3885   22.0028 C   0  0  0  0  0  0  0  0  0  0  0  0
  -27.2178  -30.2412   22.9561 C   0  0  0  0  0  0  0  0  0  0  0  0
  -27.5160  -30.0522   20.4867 C   0  0  0  0  0  0  0  0  0  0  0  0
  -21.0696  -28.0737   21.6706 C   0  0  0  0  0  0  0  0  0  0  0  0
  -20.4505  -21.9388   28.8136 C   0  0  0  0  0  0  0  0  0  0  0  0
  -20.3943  -19.8387   27.4768 C   0  0  0  0  0  0  0  0  0  0  0  0
  -23.2669  -22.2950   27.4207 C   0  0  0  0  0  0  0  0  0  0  0  0
  -21.9984  -21.6488   26.8844 C   0  0  0  0  0  0  0  0  0  0  0  0
  -24.1131  -22.9683   26.3471 C   0  0  0  0  0  0  0  0  0  1  0  0
  -26.0433  -28.3852   21.6885 C   0  0  1  0  0  0  0  0  0  0  0  0
  -22.6265  -30.0170   21.8678 C   0  0  2  0  0  0  0  0  0  0  0  0
  -27.3385  -29.2396   21.7878 C   0  0  0  0  0  0  0  0  0  0  0  0
  -25.3859  -14.5441   20.6440 N   0  0  0  0  0  0  0  0  0  0  0  0
  -24.2269  -13.8657   20.6948 N   0  0  0  0  0  0  0  0  0  0  0  0
  -25.9892  -26.0221   20.9558 N   0  0  0  0  0  0  0  0  0  0  0  0
  -21.8640  -16.5846   21.9625 N   0  0  0  0  0  0  0  0  0  0  0  0
  -23.3066  -11.6867   20.5689 N   0  0  0  0  0  0  0  0  0  0  0  0
  -27.7354  -10.9795   20.0382 N   0  0  0  0  0  0  0  0  0  0  0  0
  -21.8990  -16.3591   24.3099 N   0  0  0  0  0  0  0  0  0  0  0  0
  -28.1003  -23.6265   19.1948 N   0  0  0  0  0  0  0  0  0  0  0  0
  -24.8307  -29.1628   21.4577 N   0  0  0  0  0  0  0  0  0  0  0  0
  -21.3115  -29.4237   22.2416 N   0  3  0  0  0  0  0  0  0  0  0  0
  -21.2548  -20.9750   27.9746 N   0  3  1  0  0  0  0  0  0  0  0  0
  -25.6845   -9.9577   20.1297 O   0  0  0  0  0  0  0  0  0  0  0  0
  -28.3579  -25.0617   21.0103 O   0  0  0  0  0  0  0  0  0  0  0  0
  -26.2560  -27.7498   19.4131 O   0  0  0  0  0  0  0  0  0  0  0  0
  -23.7038  -28.4452   23.3531 O   0  0  0  0  0  0  0  0  0  0  0  0
  -20.1527  -17.4572   23.2487 O   0  0  0  0  0  0  0  0  0  0  0  0
  -31.7148  -14.8782   20.0254 O   0  0  0  0  0  0  0  0  0  0  0  0
  -24.4817  -21.9908   25.3750 O   0  0  0  0  0  0  0  0  0  1  0  0
  -33.7862  -18.4603   23.6698 F   0  0  0  0  0  0  0  0  0  0  0  0
  -21.9156  -18.4770   29.4367 F   0  0  0  0  0  0  0  0  0  0  0  0
  -23.3341  -15.1635   26.3790 F   0  0  0  0  0  0  0  0  0  0  0  0
  -30.7133  -17.4480   20.2146 F   0  0  0  0  0  0  0  0  0  0  0  0
  1  2  1  0  0  0  0
  1  5  2  0  0  0  0
  2  6  2  0  0  0  0
  3  8  2  0  0  0  0
  3 17  1  0  0  0  0
  4  9  1  0  0  0  0
  4 17  2  0  0  0  0
  5 19  1  0  0  0  0
  6 21  1  0  0  0  0
  7 10  2  0  0  0  0
  7 20  1  0  0  0  0
  8 25  1  0  0  0  0
  9 25  2  0  0  0  0
 10 26  1  0  0  0  0
 11 12  2  0  0  0  0
 11 27  1  0  0  0  0
 12 28  1  0  0  0  0
 13 22  1  0  0  0  0
 13 26  2  0  0  0  0
 14 23  1  0  0  0  0
 14 24  2  0  0  0  0
 15 28  2  0  0  0  0
 15 31  1  0  0  0  0
 16 29  1  0  0  0  0
 16 30  2  0  0  0  0
 17 32  1  0  0  0  0
 18 32  1  0  0  0  0
 18 33  2  0  0  0  0
 18 34  1  0  0  0  0
 19 21  2  0  0  0  0
 19 39  1  0  0  0  0
 20 22  2  0  0  0  0
 20 40  1  0  0  0  0
 21 48  1  0  0  0  0
 22 41  1  0  0  0  0
 23 29  2  0  0  0  0
 23 57  1  0  0  0  0
 24 30  1  0  0  0  0
 24 70  1  0  0  0  0
 25 80  1  0  0  0  0
 26 81  1  0  0  0  0
 27 31  2  0  0  0  0
 27 80  1  0  0  0  0
 28 82  1  0  0  0  0
 29 83  1  0  0  0  0
 30 84  1  0  0  0  0
 31 85  1  0  0  0  0
 32 64  2  0  0  0  0
 33 65  1  0  0  0  0
 33 68  1  0  0  0  0
 34 69  1  0  0  0  0
 34 75  2  0  0  0  0
 35 49  1  0  0  0  0
 35 71  1  0  0  0  0
 35 76  2  0  0  0  0
 36 61  1  0  0  0  0
 36 66  1  0  0  0  0
 36 77  2  0  0  0  0
 37 62  1  0  0  0  0
 37 72  1  0  0  0  0
 37 78  2  0  0  0  0
 38 67  1  0  0  0  0
 38 70  1  0  0  0  0
 38 79  2  0  0  0  0
 39 42  1  0  0  0  0
 40 49  1  0  0  0  0
 41 66  1  0  0  0  0
 42 44  1  0  0  0  0
 43 45  1  0  0  0  0
 43 46  1  0  0  0  0
 44 48  1  0  0  0  0
 45 50  1  0  0  0  0
 46 67  1  0  0  0  0
 47 50  1  0  0  0  0
 47 67  1  0  0  0  0
 48 71  1  0  0  0  0
 49 66  1  0  0  0  0
 50 65  1  0  0  0  0
 51 62  1  0  0  0  0
 52 63  1  0  0  0  0
 53 63  1  0  0  0  0
 54 63  1  0  0  0  0
 55 73  1  0  0  0  0
 56 74  1  0  0  0  0
 57 74  1  0  0  0  0
 58 59  1  0  0  0  0
 58 60  1  0  0  0  0
 59 74  1  0  0  0  0
 60 81  1  0  0  0  0
 61 63  1  0  0  0  0
 61 72  1  0  0  0  0
 62 73  1  0  0  0  0
 64 65  1  0  0  0  0
M  CHG  2  73   1  74   1
M  ISO  4  38 100  60 101  70 100  81 101
M  END
> <Batch ID>
0015

> <Smiles>
CNC(C)C(=O)NC(C(=O)N1Cc2cc([101O:1][101CH2:1]CCN(C)Cc3cc([100NH:0][100C:0](=O)N4CCCC(n5nc(-c6ccc(Oc7ccc(F)cc7F)cc6)c(C(N)=O)c5N)C4)c(F)cc3F)ccc2CC1C(=O)NC1CCCc2ccccc21)C(C)(C)C

> <Shape>
0.204

> <Color>
0.079

> <Negative vol penalty>
0.000

$$$$

  -OEChem-04042320543D

 85 94  0     1  0  0  0  0  0999 V2000
  -18.9411  -21.4894   24.6903 C   0  0  0  0  0  0  0  0  0  0  0  0
  -20.2408  -21.6182   24.2110 C   0  0  0  0  0  0  0  0  0  0  0  0
  -23.9232  -10.8950   20.3226 C   0  0  0  0  0  0  0  0  0  0  0  0
  -23.9851  -10.5077   22.7065 C   0  0  0  0  0  0  0  0  0  0  0  0
  -17.9765  -22.4365   24.3492 C   0  0  0  0  0  0  0  0  0  0  0  0
  -20.5763  -22.6938   23.3894 C   0  0  0  0  0  0  0  0  0  0  0  0
  -25.9269  -25.6682   23.2199 C   0  0  0  0  0  0  0  0  0  0  0  0
  -29.9528  -20.8412   17.7625 C   0  0  0  0  0  0  0  0  0  0  0  0
  -27.5724  -21.1634   18.0212 C   0  0  0  0  0  0  0  0  0  0  0  0
  -29.9091  -19.7860   18.6737 C   0  0  0  0  0  0  0  0  0  0  0  0
  -27.5286  -20.1081   18.9324 C   0  0  0  0  0  0  0  0  0  0  0  0
  -23.4515   -9.5975   20.1239 C   0  0  0  0  0  0  0  0  0  0  0  0
  -23.5134   -9.2101   22.5079 C   0  0  0  0  0  0  0  0  0  0  0  0
  -27.0296  -25.5677   22.3726 C   0  0  0  0  0  0  0  0  0  0  0  0
  -20.5512   -7.7059   21.8887 C   0  0  0  0  0  0  0  0  0  0  0  0
  -19.5322   -7.2530   22.7266 C   0  0  0  0  0  0  0  0  0  0  0  0
  -26.1767  -27.3998   21.0553 C   0  0  0  0  0  0  0  0  0  0  0  0
  -20.9610   -5.4637   23.4972 C   0  0  0  0  0  0  0  0  0  0  0  0
  -24.1901  -11.3501   21.6138 C   0  0  0  0  0  0  0  0  0  0  0  0
  -23.9102  -13.8516   22.0285 C   0  0  0  0  0  0  0  0  0  0  0  0
  -18.3027  -23.5294   23.5308 C   0  0  0  0  0  0  0  0  0  0  0  0
  -24.9337  -26.6297   22.9845 C   0  0  0  0  0  0  0  0  0  0  0  0
  -19.6147  -23.6557   23.0359 C   0  0  0  0  0  0  0  0  0  0  0  0
  -25.0638  -27.5121   21.9026 C   0  0  0  0  0  0  0  0  0  0  0  0
  -28.7845  -21.5299   17.4363 C   0  0  0  0  0  0  0  0  0  0  0  0
  -28.6970  -19.4194   19.2586 C   0  0  0  0  0  0  0  0  0  0  0  0
  -23.2466   -8.7550   21.2166 C   0  0  0  0  0  0  0  0  0  0  0  0
  -27.1531  -26.4316   21.2885 C   0  0  0  0  0  0  0  0  0  0  0  0
  -21.7752   -7.0376   21.8550 C   0  0  0  0  0  0  0  0  0  0  0  0
  -19.7371   -6.1320   23.5309 C   0  0  0  0  0  0  0  0  0  0  0  0
  -21.9801   -5.9165   22.6593 C   0  0  0  0  0  0  0  0  0  0  0  0
  -24.6778  -12.6902   21.8196 C   0  0  0  0  0  0  0  0  0  0  0  0
  -24.8372  -14.8554   22.1684 C   0  0  0  0  0  0  0  0  0  0  0  0
  -22.4864  -14.0090   22.0906 C   0  0  0  0  0  0  0  0  0  0  0  0
  -21.8259  -26.5294   22.3252 C   0  0  0  0  0  0  0  0  0  0  0  0
  -22.0516  -29.7497   22.6430 C   0  0  0  0  0  0  0  0  0  0  0  0
  -24.0133  -32.5405   22.5422 C   0  0  0  0  0  0  0  0  0  0  0  0
  -29.5560  -17.2466   20.1166 C   0  0  0  0  0  0  0  0  0  0  0  0
  -17.2144  -24.5020   23.1506 C   0  0  0  0  0  0  0  0  0  0  0  0
  -23.7640  -26.7428   23.9233 C   0  0  0  0  0  0  0  0  0  0  0  0
  -24.0354  -28.5751   21.6182 C   0  0  0  0  0  0  0  0  0  0  0  0
  -17.7434  -25.8157   22.5808 C   0  0  0  0  0  0  0  0  0  0  0  0
  -29.8501  -14.6742   22.7446 C   0  0  0  0  0  0  0  0  0  0  0  0
  -18.8254  -25.5486   21.5394 C   0  0  0  0  0  0  0  0  0  0  0  0
  -28.4864  -13.9867   22.7022 C   0  0  0  0  0  0  0  0  0  0  0  0
  -28.8447  -26.2331   16.7427 C   0  0  0  0  0  0  0  0  0  0  0  0
  -30.2467  -15.2312   21.3806 C   0  0  0  0  0  0  0  0  0  0  0  0
  -27.8648  -15.4577   20.7438 C   0  0  0  0  0  0  0  0  0  0  0  0
  -29.5283  -25.0650   16.0509 C   0  0  0  0  0  0  0  0  0  0  0  0
  -28.7014  -24.4210   18.2590 C   0  0  0  0  0  0  0  0  0  0  0  0
  -20.0235  -24.8219   22.1625 C   0  0  1  0  0  0  0  0  0  0  0  0
  -22.5534  -27.4220   23.2904 C   0  0  1  0  0  0  0  0  0  0  0  0
  -28.9794  -25.9140   18.2251 C   0  0  2  0  0  0  0  0  0  0  0  0
  -27.4177  -14.9236   22.1131 C   0  0  1  0  0  0  0  0  0  0  0  0
  -23.9071  -35.0337   22.8077 C   0  0  0  0  0  0  0  0  0  0  0  0
  -20.7681  -29.9864   19.8850 C   0  0  0  0  0  0  0  0  0  0  0  0
  -21.5477  -32.3641   19.8030 C   0  0  0  0  0  0  0  0  0  0  0  0
  -19.9389  -31.6410   21.5669 C   0  0  0  0  0  0  0  0  0  0  0  0
  -27.8133  -18.4688   21.3968 C   0  0  0  0  0  0  0  0  0  0  0  0
  -25.9020  -32.4947   24.8203 C   0  0  0  0  0  0  0  0  0  0  0  0
  -28.8317  -22.6649   16.4562 C   0  0  0  0  0  0  0  0  0  0  0  0
  -28.0332  -26.7115   19.0969 C   0  0  0  0  0  0  0  0  0  1  0  0
  -22.3512  -30.8978   21.7096 C   0  0  1  0  0  0  0  0  0  0  0  0
  -24.1578  -33.7055   23.5048 C   0  0  2  0  0  0  0  0  0  0  0  0
  -21.1701  -31.2011   20.7451 C   0  0  0  0  0  0  0  0  0  0  0  0
  -25.9914  -12.9324   21.8254 N   0  0  0  0  0  0  0  0  0  0  0  0
  -26.0562  -14.2576   22.0394 N   0  0  0  0  0  0  0  0  0  0  0  0
  -22.9067  -28.6416   22.5611 N   0  0  0  0  0  0  0  0  0  0  0  0
  -29.1945  -16.0817   20.8227 N   0  0  0  0  0  0  0  0  0  0  0  0
  -24.7203  -16.1823   22.3877 N   0  0  0  0  0  0  0  0  0  0  0  0
  -21.6809  -12.8738   21.9263 N   0  0  0  0  0  0  0  0  0  0  0  0
  -20.8453  -25.7503   22.9089 N   0  0  0  0  0  0  0  0  0  0  0  0
  -22.7356  -32.0223   22.5558 N   0  0  0  0  0  0  0  0  0  0  0  0
  -28.6513  -18.3270   20.2016 N   0  0  0  0  0  0  0  0  0  0  0  0
  -29.4245  -23.9109   17.0312 N   0  3  1  0  0  0  0  0  0  0  0  0
  -25.5303  -33.7309   24.0849 N   0  3  0  0  0  0  0  0  0  0  0  0
  -21.9441  -15.1259   22.2696 O   0  0  0  0  0  0  0  0  0  0  0  0
  -22.1306  -26.5475   21.1384 O   0  0  0  0  0  0  0  0  0  0  0  0
  -21.0985  -29.8361   23.4213 O   0  0  0  0  0  0  0  0  0  0  0  0
  -24.9401  -32.1336   21.8451 O   0  0  0  0  0  0  0  0  0  0  0  0
  -30.6168  -17.3243   19.4855 O   0  0  0  0  0  0  0  0  0  0  0  0
  -22.7861   -7.4889   21.0232 O   0  0  0  0  0  0  0  0  0  0  0  0
  -28.2281  -26.3352   20.4595 O   0  0  0  0  0  0  0  0  0  1  0  0
  -18.7590   -5.6981   24.3366 F   0  0  0  0  0  0  0  0  0  0  0  0
  -23.1542   -5.2711   22.6321 F   0  0  0  0  0  0  0  0  0  0  0  0
  1  2  1  0  0  0  0
  1  5  2  0  0  0  0
  2  6  2  0  0  0  0
  3 12  2  0  0  0  0
  3 19  1  0  0  0  0
  4 13  1  0  0  0  0
  4 19  2  0  0  0  0
  5 21  1  0  0  0  0
  6 23  1  0  0  0  0
  7 14  2  0  0  0  0
  7 22  1  0  0  0  0
  8 10  2  0  0  0  0
  8 25  1  0  0  0  0
  9 11  1  0  0  0  0
  9 25  2  0  0  0  0
 10 26  1  0  0  0  0
 11 26  2  0  0  0  0
 12 27  1  0  0  0  0
 13 27  2  0  0  0  0
 14 28  1  0  0  0  0
 15 16  2  0  0  0  0
 15 29  1  0  0  0  0
 16 30  1  0  0  0  0
 17 24  1  0  0  0  0
 17 28  2  0  0  0  0
 18 30  2  0  0  0  0
 18 31  1  0  0  0  0
 19 32  1  0  0  0  0
 20 32  1  0  0  0  0
 20 33  2  0  0  0  0
 20 34  1  0  0  0  0
 21 23  2  0  0  0  0
 21 39  1  0  0  0  0
 22 24  2  0  0  0  0
 22 40  1  0  0  0  0
 23 51  1  0  0  0  0
 24 41  1  0  0  0  0
 25 61  1  0  0  0  0
 26 74  1  0  0  0  0
 27 82  1  0  0  0  0
 28 83  1  0  0  0  0
 29 31  2  0  0  0  0
 29 82  1  0  0  0  0
 30 84  1  0  0  0  0
 31 85  1  0  0  0  0
 32 66  2  0  0  0  0
 33 67  1  0  0  0  0
 33 70  1  0  0  0  0
 34 71  1  0  0  0  0
 34 77  2  0  0  0  0
 35 52  1  0  0  0  0
 35 72  1  0  0  0  0
 35 78  2  0  0  0  0
 36 63  1  0  0  0  0
 36 68  1  0  0  0  0
 36 79  2  0  0  0  0
 37 64  1  0  0  0  0
 37 73  1  0  0  0  0
 37 80  2  0  0  0  0
 38 69  1  0  0  0  0
 38 74  1  0  0  0  0
 38 81  2  0  0  0  0
 39 42  1  0  0  0  0
 40 52  1  0  0  0  0
 41 68  1  0  0  0  0
 42 44  1  0  0  0  0
 43 45  1  0  0  0  0
 43 47  1  0  0  0  0
 44 51  1  0  0  0  0
 45 54  1  0  0  0  0
 46 49  1  0  0  0  0
 46 53  1  0  0  0  0
 47 69  1  0  0  0  0
 48 54  1  0  0  0  0
 48 69  1  0  0  0  0
 49 75  1  0  0  0  0
 50 53  1  0  0  0  0
 50 75  1  0  0  0  0
 51 72  1  0  0  0  0
 52 68  1  0  0  0  0
 53 62  1  0  0  0  0
 54 67  1  0  0  0  0
 55 64  1  0  0  0  0
 56 65  1  0  0  0  0
 57 65  1  0  0  0  0
 58 65  1  0  0  0  0
 59 74  1  0  0  0  0
 60 76  1  0  0  0  0
 61 75  1  0  0  0  0
 62 83  1  0  0  0  0
 63 65  1  0  0  0  0
 63 73  1  0  0  0  0
 64 76  1  0  0  0  0
 66 67  1  0  0  0  0
M  CHG  2  75   1  76   1
M  ISO  4  38 100  62 101  74 100  83 101
M  END
> <Batch ID>
0015

> <Smiles>
CNC(C)C(=O)NC(C(=O)N1Cc2cc([101O:1][101CH2:1]C3CCN(Cc4ccc([100N:0](C)[100C:0](=O)N5CCCC(n6nc(-c7ccc(Oc8ccc(F)cc8F)cc7)c(C(N)=O)c6N)C5)cc4)C3)ccc2CC1C(=O)NC1CCCc2ccccc21)C(C)(C)C

> <Shape>
0.261

> <Color>
0.074

> <Negative vol penalty>
0.000

$$$$

  -OEChem-04042320543D

 91 99  0     1  0  0  0  0  0999 V2000
  -20.9988  -32.3396   26.0266 C   0  0  0  0  0  0  0  0  0  0  0  0
  -22.1788  -31.6795   25.6992 C   0  0  0  0  0  0  0  0  0  0  0  0
  -23.2933   -9.9514   19.8497 C   0  0  0  0  0  0  0  0  0  0  0  0
  -24.3394   -9.7711   22.0200 C   0  0  0  0  0  0  0  0  0  0  0  0
  -19.7860  -31.9012   25.4968 C   0  0  0  0  0  0  0  0  0  0  0  0
  -22.1464  -30.5797   24.8425 C   0  0  0  0  0  0  0  0  0  0  0  0
  -26.4018  -28.9846   20.7372 C   0  0  0  0  0  0  0  0  0  0  0  0
  -31.1624  -17.7671   15.6178 C   0  0  0  0  0  0  0  0  0  0  0  0
  -28.7628  -17.5351   15.7770 C   0  0  0  0  0  0  0  0  0  0  0  0
  -31.2998  -16.3800   15.6677 C   0  0  0  0  0  0  0  0  0  0  0  0
  -28.9003  -16.1479   15.8269 C   0  0  0  0  0  0  0  0  0  0  0  0
  -22.7520   -8.6753   20.0045 C   0  0  0  0  0  0  0  0  0  0  0  0
  -23.7980   -8.4949   22.1748 C   0  0  0  0  0  0  0  0  0  0  0  0
  -27.4390  -28.0538   20.7747 C   0  0  0  0  0  0  0  0  0  0  0  0
  -20.8151   -7.1402   23.0039 C   0  0  0  0  0  0  0  0  0  0  0  0
  -20.2307   -6.8304   24.2319 C   0  0  0  0  0  0  0  0  0  0  0  0
  -26.0261  -26.4436   19.6656 C   0  0  0  0  0  0  0  0  0  0  0  0
  -21.8092   -5.0254   24.5277 C   0  0  0  0  0  0  0  0  0  0  0  0
  -24.0870  -10.4993   20.8574 C   0  0  0  0  0  0  0  0  0  0  0  0
  -24.0645  -13.0405   21.0804 C   0  0  0  0  0  0  0  0  0  0  0  0
  -19.7399  -30.8015   24.6255 C   0  0  0  0  0  0  0  0  0  0  0  0
  -25.1632  -28.6478   20.1723 C   0  0  0  0  0  0  0  0  0  0  0  0
  -20.9317  -30.1253   24.3015 C   0  0  0  0  0  0  0  0  0  0  0  0
  -24.9756  -27.3728   19.6198 C   0  0  0  0  0  0  0  0  0  0  0  0
  -29.8939  -18.3447   15.6725 C   0  0  0  0  0  0  0  0  0  0  0  0
  -30.1688  -15.5704   15.7723 C   0  0  0  0  0  0  0  0  0  0  0  0
  -23.0043   -7.9470   21.1671 C   0  0  0  0  0  0  0  0  0  0  0  0
  -27.2504  -26.7821   20.2415 C   0  0  0  0  0  0  0  0  0  0  0  0
  -21.8965   -6.3925   22.5377 C   0  0  0  0  0  0  0  0  0  0  0  0
  -20.7278   -5.7730   24.9939 C   0  0  0  0  0  0  0  0  0  0  0  0
  -22.3935   -5.3352   23.2996 C   0  0  0  0  0  0  0  0  0  0  0  0
  -24.6470  -11.8173   20.6978 C   0  0  0  0  0  0  0  0  0  0  0  0
  -24.9877  -13.9896   20.7152 C   0  0  0  0  0  0  0  0  0  0  0  0
  -22.8018  -13.2959   21.7098 C   0  0  0  0  0  0  0  0  0  0  0  0
  -22.1836  -28.4418   21.2600 C   0  0  0  0  0  0  0  0  0  0  0  0
  -21.4932  -27.9160   18.1344 C   0  0  0  0  0  0  0  0  0  0  0  0
  -29.5340  -21.0167   19.2529 C   0  0  0  0  0  0  0  0  0  0  0  0
  -22.5636  -26.8709   15.0670 C   0  0  0  0  0  0  0  0  0  0  0  0
  -29.4104  -13.2968   16.5052 C   0  0  0  0  0  0  0  0  0  0  0  0
  -18.3994  -30.3352   24.1153 C   0  0  0  0  0  0  0  0  0  0  0  0
  -24.0632  -29.6720   20.1156 C   0  0  0  0  0  0  0  0  0  0  0  0
  -23.6716  -26.9682   18.9839 C   0  0  0  0  0  0  0  0  0  0  0  0
  -18.4975  -29.3928   22.9184 C   0  0  0  0  0  0  0  0  0  0  0  0
  -29.8033  -14.0718   20.1289 C   0  0  0  0  0  0  0  0  0  0  0  0
  -19.5523  -28.3198   23.1688 C   0  0  0  0  0  0  0  0  0  0  0  0
  -28.3767  -14.0736   20.6813 C   0  0  0  0  0  0  0  0  0  0  0  0
  -29.8647  -14.5401   18.6795 C   0  0  0  0  0  0  0  0  0  0  0  0
  -27.8551  -13.0689   18.4083 C   0  0  0  0  0  0  0  0  0  0  0  0
  -20.9405  -28.9438   23.3560 C   0  0  1  0  0  0  0  0  0  0  0  0
  -22.6760  -29.0520   19.9783 C   0  0  1  0  0  0  0  0  0  0  0  0
  -27.3083  -13.8829   19.5885 C   0  0  1  0  0  0  0  0  0  0  0  0
  -32.4512  -23.3972   15.9441 C   0  0  0  0  0  0  0  0  0  0  0  0
  -28.7423  -18.9167   18.1300 C   0  0  0  0  0  0  0  0  0  0  0  0
  -21.7615  -26.5188   12.7154 C   0  0  0  0  0  0  0  0  0  0  0  0
  -20.0475  -25.3758   19.0103 C   0  0  0  0  0  0  0  0  0  0  0  0
  -20.1067  -24.6044   16.6292 C   0  0  0  0  0  0  0  0  0  0  0  0
  -18.8715  -26.6856   17.2338 C   0  0  0  0  0  0  0  0  0  0  0  0
  -31.2716  -13.5111   14.9184 C   0  0  0  0  0  0  0  0  0  0  0  0
  -24.5073  -28.8246   13.9882 C   0  0  0  0  0  0  0  0  0  0  0  0
  -29.7461  -19.8368   15.6188 C   0  0  0  0  0  0  0  0  0  0  0  0
  -31.9674  -21.9710   16.1501 C   0  0  0  0  0  0  0  0  0  0  0  0
  -28.9944  -23.7324   21.0808 C   0  0  0  0  0  0  0  0  0  0  0  0
  -28.6871  -22.2488   21.2325 C   0  0  0  0  0  0  0  0  0  0  0  0
  -30.5423  -21.9446   16.6790 C   0  0  0  0  0  0  0  0  0  0  0  0
  -27.8924  -24.4950   20.3553 C   0  0  0  0  0  0  0  0  0  1  0  0
  -21.3997  -26.6955   17.2508 C   0  0  1  0  0  0  0  0  0  0  0  0
  -29.0687  -20.3911   17.9503 C   0  0  2  0  0  0  0  0  0  0  0  0
  -22.4202  -27.4861   13.6866 C   0  0  2  0  0  0  0  0  0  0  0  0
  -20.1304  -25.8470   17.5447 C   0  0  0  0  0  0  0  0  0  0  0  0
  -25.8472  -11.9722   20.1327 N   0  0  0  0  0  0  0  0  0  0  0  0
  -26.0265  -13.3039   20.1575 N   0  0  0  0  0  0  0  0  0  0  0  0
  -22.6244  -28.0027   18.9582 N   0  0  0  0  0  0  0  0  0  0  0  0
  -29.0316  -13.7003   17.8019 N   0  0  0  0  0  0  0  0  0  0  0  0
  -25.0042  -15.3354   20.8199 N   0  0  0  0  0  0  0  0  0  0  0  0
  -21.9756  -12.2061   22.0166 N   0  0  0  0  0  0  0  0  0  0  0  0
  -21.5010  -29.3229   22.0767 N   0  0  0  0  0  0  0  0  0  0  0  0
  -28.4917  -21.5986   19.9663 N   0  0  0  0  0  0  0  0  0  0  0  0
  -21.4909  -27.1782   15.8771 N   0  0  0  0  0  0  0  0  0  0  0  0
  -30.3105  -14.1369   15.8236 N   0  0  0  0  0  0  0  0  0  0  0  0
  -23.7572  -27.8591   13.1443 N   0  3  0  0  0  0  0  0  0  0  0  0
  -30.1277  -20.5145   16.9091 N   0  3  1  0  0  0  0  0  0  0  0  0
  -22.4104  -14.4574   21.9768 O   0  0  0  0  0  0  0  0  0  0  0  0
  -22.4052  -27.2587   21.4901 O   0  0  0  0  0  0  0  0  0  0  0  0
  -20.5993  -28.7648   18.0898 O   0  0  0  0  0  0  0  0  0  0  0  0
  -30.7067  -20.9964   19.6200 O   0  0  0  0  0  0  0  0  0  0  0  0
  -23.5287  -26.1832   15.3927 O   0  0  0  0  0  0  0  0  0  0  0  0
  -29.0232  -12.2281   16.0168 O   0  0  0  0  0  0  0  0  0  0  0  0
  -22.4760   -6.7018   21.3186 O   0  0  0  0  0  0  0  0  0  0  0  0
  -28.2609  -25.8714   20.2775 O   0  0  0  0  0  0  0  0  0  1  0  0
  -20.1675   -5.4766   26.1739 F   0  0  0  0  0  0  0  0  0  0  0  0
  -23.4330   -4.6141   22.8575 F   0  0  0  0  0  0  0  0  0  0  0  0
  1  2  1  0  0  0  0
  1  5  2  0  0  0  0
  2  6  2  0  0  0  0
  3 12  2  0  0  0  0
  3 19  1  0  0  0  0
  4 13  1  0  0  0  0
  4 19  2  0  0  0  0
  5 21  1  0  0  0  0
  6 23  1  0  0  0  0
  7 14  2  0  0  0  0
  7 22  1  0  0  0  0
  8 10  2  0  0  0  0
  8 25  1  0  0  0  0
  9 11  1  0  0  0  0
  9 25  2  0  0  0  0
 10 26  1  0  0  0  0
 11 26  2  0  0  0  0
 12 27  1  0  0  0  0
 13 27  2  0  0  0  0
 14 28  1  0  0  0  0
 15 16  2  0  0  0  0
 15 29  1  0  0  0  0
 16 30  1  0  0  0  0
 17 24  1  0  0  0  0
 17 28  2  0  0  0  0
 18 30  2  0  0  0  0
 18 31  1  0  0  0  0
 19 32  1  0  0  0  0
 20 32  1  0  0  0  0
 20 33  2  0  0  0  0
 20 34  1  0  0  0  0
 21 23  2  0  0  0  0
 21 40  1  0  0  0  0
 22 24  2  0  0  0  0
 22 41  1  0  0  0  0
 23 49  1  0  0  0  0
 24 42  1  0  0  0  0
 25 60  1  0  0  0  0
 26 79  1  0  0  0  0
 27 88  1  0  0  0  0
 28 89  1  0  0  0  0
 29 31  2  0  0  0  0
 29 88  1  0  0  0  0
 30 90  1  0  0  0  0
 31 91  1  0  0  0  0
 32 70  2  0  0  0  0
 33 71  1  0  0  0  0
 33 74  1  0  0  0  0
 34 75  1  0  0  0  0
 34 82  2  0  0  0  0
 35 50  1  0  0  0  0
 35 76  1  0  0  0  0
 35 83  2  0  0  0  0
 36 66  1  0  0  0  0
 36 72  1  0  0  0  0
 36 84  2  0  0  0  0
 37 67  1  0  0  0  0
 37 77  1  0  0  0  0
 37 85  2  0  0  0  0
 38 68  1  0  0  0  0
 38 78  1  0  0  0  0
 38 86  2  0  0  0  0
 39 73  1  0  0  0  0
 39 79  1  0  0  0  0
 39 87  2  0  0  0  0
 40 43  1  0  0  0  0
 41 50  1  0  0  0  0
 42 72  1  0  0  0  0
 43 45  1  0  0  0  0
 44 46  1  0  0  0  0
 44 47  1  0  0  0  0
 45 49  1  0  0  0  0
 46 51  1  0  0  0  0
 47 73  1  0  0  0  0
 48 51  1  0  0  0  0
 48 73  1  0  0  0  0
 49 76  1  0  0  0  0
 50 72  1  0  0  0  0
 51 71  1  0  0  0  0
 52 61  1  0  0  0  0
 53 67  1  0  0  0  0
 54 68  1  0  0  0  0
 55 69  1  0  0  0  0
 56 69  1  0  0  0  0
 57 69  1  0  0  0  0
 58 79  1  0  0  0  0
 59 80  1  0  0  0  0
 60 81  1  0  0  0  0
 61 64  1  0  0  0  0
 62 63  1  0  0  0  0
 62 65  1  0  0  0  0
 63 77  1  0  0  0  0
 64 81  1  0  0  0  0
 65 89  1  0  0  0  0
 66 69  1  0  0  0  0
 66 78  1  0  0  0  0
 67 81  1  0  0  0  0
 68 80  1  0  0  0  0
 70 71  1  0  0  0  0
M  CHG  2  80   1  81   1
M  ISO  4  39 100  65 101  79 100  89 101
M  END
> <Batch ID>
0015

> <Smiles>
CCCN(Cc1ccc([100N:0](C)[100C:0](=O)N2CCCC(n3nc(-c4ccc(Oc5ccc(F)cc5F)cc4)c(C(N)=O)c3N)C2)cc1)C(C)C(=O)NCC[101CH2:1][101O:1]c1ccc2c(c1)CN(C(=O)C(NC(=O)C(C)NC)C(C)(C)C)C(C(=O)NC1CCCc3ccccc31)C2

> <Shape>
0.285

> <Color>
0.163

> <Negative vol penalty>
0.000

$$$$

  -OEChem-04042320543D

 83 91  0     1  0  0  0  0  0999 V2000
  -26.8598  -19.1699   17.8141 C   0  0  0  0  0  0  0  0  0  0  0  0
  -27.5548  -19.5668   18.9520 C   0  0  0  0  0  0  0  0  0  0  0  0
  -23.0835   -9.9116   19.8944 C   0  0  0  0  0  0  0  0  0  0  0  0
  -23.8455   -9.8531   22.1863 C   0  0  0  0  0  0  0  0  0  0  0  0
  -27.0585  -19.8404   16.6080 C   0  0  0  0  0  0  0  0  0  0  0  0
  -28.4499  -20.6339   18.8841 C   0  0  0  0  0  0  0  0  0  0  0  0
  -27.9549  -23.8356   22.7763 C   0  0  0  0  0  0  0  0  0  0  0  0
  -30.3569  -18.3489   24.2730 C   0  0  0  0  0  0  0  0  0  0  0  0
  -32.5522  -17.5516   23.6549 C   0  0  0  0  0  0  0  0  0  0  0  0
  -29.7810  -17.4873   23.3394 C   0  0  0  0  0  0  0  0  0  0  0  0
  -31.9763  -16.6899   22.7213 C   0  0  0  0  0  0  0  0  0  0  0  0
  -22.3564   -8.7403   20.1062 C   0  0  0  0  0  0  0  0  0  0  0  0
  -23.1184   -8.6818   22.3982 C   0  0  0  0  0  0  0  0  0  0  0  0
  -28.5171  -23.4508   23.9927 C   0  0  0  0  0  0  0  0  0  0  0  0
  -23.4560   -5.3847   21.7304 C   0  0  0  0  0  0  0  0  0  0  0  0
  -24.0868   -4.3450   22.4135 C   0  0  0  0  0  0  0  0  0  0  0  0
  -30.4222  -24.8636   23.5522 C   0  0  0  0  0  0  0  0  0  0  0  0
  -22.3848   -4.4374   24.1257 C   0  0  0  0  0  0  0  0  0  0  0  0
  -23.8281  -10.4680   20.9344 C   0  0  0  0  0  0  0  0  0  0  0  0
  -24.1338  -13.0004   20.8983 C   0  0  0  0  0  0  0  0  0  0  0  0
  -27.9493  -20.9224   16.5275 C   0  0  0  0  0  0  0  0  0  0  0  0
  -28.6284  -24.7304   21.9323 C   0  0  0  0  0  0  0  0  0  0  0  0
  -28.6618  -21.3187   17.6754 C   0  0  0  0  0  0  0  0  0  0  0  0
  -29.8652  -25.2601   22.3268 C   0  0  0  0  0  0  0  0  0  0  0  0
  -31.7424  -18.3811   24.4307 C   0  0  0  0  0  0  0  0  0  0  0  0
  -30.5907  -16.6578   22.5636 C   0  0  0  0  0  0  0  0  0  0  0  0
  -22.3738   -8.1254   21.3581 C   0  0  0  0  0  0  0  0  0  0  0  0
  -29.7523  -23.9626   24.3795 C   0  0  0  0  0  0  0  0  0  0  0  0
  -22.2897   -5.9509   22.2450 C   0  0  0  0  0  0  0  0  0  0  0  0
  -23.5512   -3.8713   23.6111 C   0  0  0  0  0  0  0  0  0  0  0  0
  -21.7541   -5.4772   23.4426 C   0  0  0  0  0  0  0  0  0  0  0  0
  -24.5799  -11.6777   20.7161 C   0  0  0  0  0  0  0  0  0  0  0  0
  -25.2148  -13.7771   20.5596 C   0  0  0  0  0  0  0  0  0  0  0  0
  -22.8566  -13.4838   21.3349 C   0  0  0  0  0  0  0  0  0  0  0  0
  -29.8126  -24.5759   18.9865 C   0  0  0  0  0  0  0  0  0  0  0  0
  -30.3507  -27.7401   19.4559 C   0  0  0  0  0  0  0  0  0  0  0  0
  -30.8365  -30.3008   21.6590 C   0  0  0  0  0  0  0  0  0  0  0  0
  -30.6657  -14.8942   20.7662 C   0  0  0  0  0  0  0  0  0  0  0  0
  -28.1664  -21.5861   15.1907 C   0  0  0  0  0  0  0  0  0  0  0  0
  -27.9961  -25.1561   20.6356 C   0  0  0  0  0  0  0  0  0  0  0  0
  -30.6193  -26.2394   21.4661 C   0  0  0  0  0  0  0  0  0  0  0  0
  -28.8524  -22.9461   15.2901 C   0  0  0  0  0  0  0  0  0  0  0  0
  -29.5835  -12.5449   18.3195 C   0  0  0  0  0  0  0  0  0  0  0  0
  -30.0540  -22.8707   16.2268 C   0  0  0  0  0  0  0  0  0  0  0  0
  -28.1486  -12.2186   18.7398 C   0  0  0  0  0  0  0  0  0  0  0  0
  -30.4964  -12.7466   19.5276 C   0  0  0  0  0  0  0  0  0  0  0  0
  -28.5807  -13.3974   20.9332 C   0  0  0  0  0  0  0  0  0  0  0  0
  -29.6228  -22.4874   17.6475 C   0  0  1  0  0  0  0  0  0  0  0  0
  -29.0084  -25.6759   19.6195 C   0  0  1  0  0  0  0  0  0  0  0  0
  -27.6093  -13.2496   19.7508 C   0  0  2  0  0  0  0  0  0  0  0  0
  -31.2881  -32.7678   21.7435 C   0  0  0  0  0  0  0  0  0  0  0  0
  -33.2598  -27.2315   18.6886 C   0  0  0  0  0  0  0  0  0  0  0  0
  -33.8393  -29.4516   19.6903 C   0  0  0  0  0  0  0  0  0  0  0  0
  -32.2836  -29.3313   17.7440 C   0  0  0  0  0  0  0  0  0  0  0  0
  -28.3174  -30.8295   23.1195 C   0  0  0  0  0  0  0  0  0  0  0  0
  -33.4109  -20.9884   23.9262 C   0  0  0  0  0  0  0  0  0  0  0  0
  -32.3617  -19.3080   25.4349 C   0  0  0  0  0  0  0  0  0  0  0  0
  -31.1551  -21.7727   26.8821 C   0  0  0  0  0  0  0  0  0  0  0  0
  -32.4692  -21.6998   26.1192 C   0  0  0  0  0  0  0  0  0  0  0  0
  -29.9878  -22.2818   26.0454 C   0  0  0  0  0  0  0  0  0  1  0  0
  -31.4879  -28.5596   20.0164 C   0  0  1  0  0  0  0  0  0  0  0  0
  -30.2200  -31.6853   21.7461 C   0  0  2  0  0  0  0  0  0  0  0  0
  -32.7046  -28.6236   19.0504 C   0  0  0  0  0  0  0  0  0  0  0  0
  -25.8456  -11.6139   20.2941 N   0  0  0  0  0  0  0  0  0  0  0  0
  -26.2040  -12.9063   20.2084 N   0  0  0  0  0  0  0  0  0  0  0  0
  -29.9626  -26.6201   20.2046 N   0  0  0  0  0  0  0  0  0  0  0  0
  -29.9237  -13.7396   20.4391 N   0  0  0  0  0  0  0  0  0  0  0  0
  -25.4062  -15.1131   20.5309 N   0  0  0  0  0  0  0  0  0  0  0  0
  -21.8580  -12.5496   21.6422 N   0  0  0  0  0  0  0  0  0  0  0  0
  -30.0061  -15.7821   21.6153 N   0  0  0  0  0  0  0  0  0  0  0  0
  -29.0510  -23.6297   18.3277 N   0  0  0  0  0  0  0  0  0  0  0  0
  -30.9245  -29.8621   20.3548 N   0  0  0  0  0  0  0  0  0  0  0  0
  -29.4194  -31.8180   22.9961 N   0  3  0  0  0  0  0  0  0  0  0  0
  -32.3632  -20.7499   24.9870 N   0  3  1  0  0  0  0  0  0  0  0  0
  -22.6028  -14.7083   21.4333 O   0  0  0  0  0  0  0  0  0  0  0  0
  -31.0339  -24.5856   19.0871 O   0  0  0  0  0  0  0  0  0  0  0  0
  -29.8214  -28.0853   18.3965 O   0  0  0  0  0  0  0  0  0  0  0  0
  -31.2067  -29.6730   22.6486 O   0  0  0  0  0  0  0  0  0  0  0  0
  -31.7919  -15.0945   20.3038 O   0  0  0  0  0  0  0  0  0  0  0  0
  -21.6642   -6.9825   21.5652 O   0  0  0  0  0  0  0  0  0  0  0  0
  -30.3035  -23.5882   25.5660 O   0  0  0  0  0  0  0  0  0  1  0  0
  -24.1562   -2.8717   24.2662 F   0  0  0  0  0  0  0  0  0  0  0  0
  -20.6331   -6.0163   23.9413 F   0  0  0  0  0  0  0  0  0  0  0  0
  1  2  1  0  0  0  0
  1  5  2  0  0  0  0
  2  6  2  0  0  0  0
  3 12  2  0  0  0  0
  3 19  1  0  0  0  0
  4 13  1  0  0  0  0
  4 19  2  0  0  0  0
  5 21  1  0  0  0  0
  6 23  1  0  0  0  0
  7 14  2  0  0  0  0
  7 22  1  0  0  0  0
  8 10  2  0  0  0  0
  8 25  1  0  0  0  0
  9 11  1  0  0  0  0
  9 25  2  0  0  0  0
 10 26  1  0  0  0  0
 11 26  2  0  0  0  0
 12 27  1  0  0  0  0
 13 27  2  0  0  0  0
 14 28  1  0  0  0  0
 15 16  2  0  0  0  0
 15 29  1  0  0  0  0
 16 30  1  0  0  0  0
 17 24  1  0  0  0  0
 17 28  2  0  0  0  0
 18 30  2  0  0  0  0
 18 31  1  0  0  0  0
 19 32  1  0  0  0  0
 20 32  1  0  0  0  0
 20 33  2  0  0  0  0
 20 34  1  0  0  0  0
 21 23  2  0  0  0  0
 21 39  1  0  0  0  0
 22 24  2  0  0  0  0
 22 40  1  0  0  0  0
 23 48  1  0  0  0  0
 24 41  1  0  0  0  0
 25 57  1  0  0  0  0
 26 70  1  0  0  0  0
 27 80  1  0  0  0  0
 28 81  1  0  0  0  0
 29 31  2  0  0  0  0
 29 80  1  0  0  0  0
 30 82  1  0  0  0  0
 31 83  1  0  0  0  0
 32 64  2  0  0  0  0
 33 65  1  0  0  0  0
 33 68  1  0  0  0  0
 34 69  1  0  0  0  0
 34 75  2  0  0  0  0
 35 49  1  0  0  0  0
 35 71  1  0  0  0  0
 35 76  2  0  0  0  0
 36 61  1  0  0  0  0
 36 66  1  0  0  0  0
 36 77  2  0  0  0  0
 37 62  1  0  0  0  0
 37 72  1  0  0  0  0
 37 78  2  0  0  0  0
 38 67  1  0  0  0  0
 38 70  1  0  0  0  0
 38 79  2  0  0  0  0
 39 42  1  0  0  0  0
 40 49  1  0  0  0  0
 41 66  1  0  0  0  0
 42 44  1  0  0  0  0
 43 45  1  0  0  0  0
 43 46  1  0  0  0  0
 44 48  1  0  0  0  0
 45 50  1  0  0  0  0
 46 67  1  0  0  0  0
 47 50  1  0  0  0  0
 47 67  1  0  0  0  0
 48 71  1  0  0  0  0
 49 66  1  0  0  0  0
 50 65  1  0  0  0  0
 51 62  1  0  0  0  0
 52 63  1  0  0  0  0
 53 63  1  0  0  0  0
 54 63  1  0  0  0  0
 55 73  1  0  0  0  0
 56 74  1  0  0  0  0
 57 74  1  0  0  0  0
 58 59  1  0  0  0  0
 58 60  1  0  0  0  0
 59 74  1  0  0  0  0
 60 81  1  0  0  0  0
 61 63  1  0  0  0  0
 61 72  1  0  0  0  0
 62 73  1  0  0  0  0
 64 65  1  0  0  0  0
M  CHG  2  73   1  74   1
M  ISO  4  38 100  60 101  70 100  81 101
M  END
> <Batch ID>
0015

> <Smiles>
CNC(C)C(=O)NC(C(=O)N1Cc2cc([101O:1][101CH2:1]CCN(C)Cc3ccc([100NH:0][100C:0](=O)N4CCCC(n5nc(-c6ccc(Oc7ccc(F)cc7F)cc6)c(C(N)=O)c5N)C4)cc3)ccc2CC1C(=O)NC1CCCc2ccccc21)C(C)(C)C

> <Shape>
0.252

> <Color>
0.203

> <Negative vol penalty>
0.000

$$$$

  -OEChem-04042320543D

 92101  0     1  0  0  0  0  0999 V2000
  -22.9180  -36.5932   23.9170 C   0  0  0  0  0  0  0  0  0  0  0  0
  -23.1346  -35.7258   22.8511 C   0  0  0  0  0  0  0  0  0  0  0  0
  -23.3486   -9.5967   20.7781 C   0  0  0  0  0  0  0  0  0  0  0  0
  -23.9652  -10.2861   23.0100 C   0  0  0  0  0  0  0  0  0  0  0  0
  -23.8649  -36.6945   24.9354 C   0  0  0  0  0  0  0  0  0  0  0  0
  -24.2989  -34.9600   22.8024 C   0  0  0  0  0  0  0  0  0  0  0  0
  -24.8808  -29.2828   20.5805 C   0  0  0  0  0  0  0  0  0  0  0  0
  -30.7871  -19.3593   19.1973 C   0  0  0  0  0  0  0  0  0  0  0  0
  -30.7082  -18.0205   19.5808 C   0  0  0  0  0  0  0  0  0  0  0  0
  -22.6884   -8.4860   21.3035 C   0  0  0  0  0  0  0  0  0  0  0  0
  -23.3049   -9.1754   23.5355 C   0  0  0  0  0  0  0  0  0  0  0  0
  -25.3329  -28.7972   19.3543 C   0  0  0  0  0  0  0  0  0  0  0  0
  -19.7333   -7.8263   22.8086 C   0  0  0  0  0  0  0  0  0  0  0  0
  -18.4664   -7.5280   22.3071 C   0  0  0  0  0  0  0  0  0  0  0  0
  -27.5235  -28.4545   20.3044 C   0  0  0  0  0  0  0  0  0  0  0  0
  -29.0456  -19.9145   20.7771 C   0  0  0  0  0  0  0  0  0  0  0  0
  -19.2632   -5.3658   21.5807 C   0  0  0  0  0  0  0  0  0  0  0  0
  -23.9870  -10.4967   21.6313 C   0  0  0  0  0  0  0  0  0  0  0  0
  -24.1265  -12.9196   20.8453 C   0  0  0  0  0  0  0  0  0  0  0  0
  -25.0369  -35.9224   24.9040 C   0  0  0  0  0  0  0  0  0  0  0  0
  -25.7511  -29.3683   21.6767 C   0  0  0  0  0  0  0  0  0  0  0  0
  -25.2630  -35.0520   23.8206 C   0  0  0  0  0  0  0  0  0  0  0  0
  -27.0794  -28.9391   21.5442 C   0  0  0  0  0  0  0  0  0  0  0  0
  -29.9558  -20.3063   19.7954 C   0  0  0  0  0  0  0  0  0  0  0  0
  -29.7980  -17.6287   20.5624 C   0  0  0  0  0  0  0  0  0  0  0  0
  -22.6665   -8.2754   22.6822 C   0  0  0  0  0  0  0  0  0  0  0  0
  -26.6552  -28.3857   19.2153 C   0  0  0  0  0  0  0  0  0  0  0  0
  -20.7652   -6.8944   22.6962 C   0  0  0  0  0  0  0  0  0  0  0  0
  -18.2314   -6.2977   21.6931 C   0  0  0  0  0  0  0  0  0  0  0  0
  -20.5301   -5.6642   22.0823 C   0  0  0  0  0  0  0  0  0  0  0  0
  -28.9666  -18.5757   21.1605 C   0  0  0  0  0  0  0  0  0  0  0  0
  -24.6697  -11.6439   21.0891 C   0  0  0  0  0  0  0  0  0  0  0  0
  -25.1732  -13.6462   20.3326 C   0  0  0  0  0  0  0  0  0  0  0  0
  -22.7949  -13.4044   21.0629 C   0  0  0  0  0  0  0  0  0  0  0  0
  -28.0040  -22.9304   20.2251 C   0  0  0  0  0  0  0  0  0  0  0  0
  -26.8630  -31.7390   23.4786 C   0  0  0  0  0  0  0  0  0  0  0  0
  -28.1516  -29.3081   25.1969 C   0  0  0  0  0  0  0  0  0  0  0  0
  -29.2431  -26.0756   25.2746 C   0  0  0  0  0  0  0  0  0  0  0  0
  -30.5142  -15.2179   20.4155 C   0  0  0  0  0  0  0  0  0  0  0  0
  -26.0535  -36.1010   26.0036 C   0  0  0  0  0  0  0  0  0  0  0  0
  -25.2409  -29.8693   23.0000 C   0  0  0  0  0  0  0  0  0  0  0  0
  -28.0484  -28.9915   22.6960 C   0  0  0  0  0  0  0  0  0  0  0  0
  -27.0857  -34.9781   26.0672 C   0  0  0  0  0  0  0  0  0  0  0  0
  -29.7476  -12.1660   18.7496 C   0  0  0  0  0  0  0  0  0  0  0  0
  -24.9300  -23.2600   19.4660 C   0  0  0  0  0  0  0  0  0  0  0  0
  -27.6231  -34.6675   24.6738 C   0  0  0  0  0  0  0  0  0  0  0  0
  -25.8079  -22.0108   19.4650 C   0  0  0  0  0  0  0  0  0  0  0  0
  -28.3135  -11.8631   19.1897 C   0  0  0  0  0  0  0  0  0  0  0  0
  -30.5664  -12.7926   19.8769 C   0  0  0  0  0  0  0  0  0  0  0  0
  -28.5262  -13.6728   20.9409 C   0  0  0  0  0  0  0  0  0  0  0  0
  -25.0602  -24.0476   18.1728 C   0  0  0  0  0  0  0  0  0  0  0  0
  -27.3811  -23.1633   17.8297 C   0  0  0  0  0  0  0  0  0  0  0  0
  -26.5020  -34.1864   23.7447 C   0  0  1  0  0  0  0  0  0  0  0  0
  -27.2592  -22.3011   19.0827 C   0  0  1  0  0  0  0  0  0  0  0  0
  -26.3492  -30.3939   23.9078 C   0  0  1  0  0  0  0  0  0  0  0  0
  -27.6440  -13.1003   19.8194 C   0  0  2  0  0  0  0  0  0  0  0  0
  -30.2789  -24.3825   26.8102 C   0  0  0  0  0  0  0  0  0  0  0  0
  -30.8509  -30.7012   24.9082 C   0  0  0  0  0  0  0  0  0  0  0  0
  -31.9509  -28.5608   25.5986 C   0  0  0  0  0  0  0  0  0  0  0  0
  -30.4127  -29.7348   27.1728 C   0  0  0  0  0  0  0  0  0  0  0  0
  -30.2029  -23.1708   21.3884 C   0  0  0  0  0  0  0  0  0  0  0  0
  -26.9268  -24.2517   25.0150 C   0  0  0  0  0  0  0  0  0  0  0  0
  -30.0411  -21.7471   19.3819 C   0  0  0  0  0  0  0  0  0  0  0  0
  -28.0128  -26.0371   16.8347 C   0  0  0  0  0  0  0  0  0  0  0  0
  -26.6818  -25.3042   16.7592 C   0  0  0  0  0  0  0  0  0  0  0  0
  -28.1459  -26.9426   18.0529 C   0  0  0  0  0  0  0  0  0  1  0  0
  -29.4534  -28.5447   25.1589 C   0  0  1  0  0  0  0  0  0  0  0  0
  -28.9803  -24.9470   26.2553 C   0  0  2  0  0  0  0  0  0  0  0  0
  -30.6495  -29.3861   25.6872 C   0  0  0  0  0  0  0  0  0  0  0  0
  -25.9611  -11.5616   20.7583 N   0  0  0  0  0  0  0  0  0  0  0  0
  -26.2382  -12.7947   20.3014 N   0  0  0  0  0  0  0  0  0  0  0  0
  -27.5036  -29.4951   23.9677 N   0  0  0  0  0  0  0  0  0  0  0  0
  -29.8724  -13.9614   20.4220 N   0  0  0  0  0  0  0  0  0  0  0  0
  -25.2774  -14.9241   19.9099 N   0  0  0  0  0  0  0  0  0  0  0  0
  -21.8427  -12.5254   21.5967 N   0  0  0  0  0  0  0  0  0  0  0  0
  -29.7445  -16.2612   20.9293 N   0  0  0  0  0  0  0  0  0  0  0  0
  -26.1727  -32.8050   24.0232 N   0  0  0  0  0  0  0  0  0  0  0  0
  -29.2223  -27.3067   25.8952 N   0  0  0  0  0  0  0  0  0  0  0  0
  -29.3624  -22.6285   20.3285 N   0  0  0  0  0  0  0  0  0  0  0  0
  -26.5104  -24.3936   17.9445 N   0  3  1  0  0  0  0  0  0  0  0  0
  -28.2356  -23.8427   25.5868 N   0  3  0  0  0  0  0  0  0  0  0  0
  -22.4551  -14.5775   20.7767 O   0  0  0  0  0  0  0  0  0  0  0  0
  -27.3973  -23.6696   21.0048 O   0  0  0  0  0  0  0  0  0  0  0  0
  -27.8163  -31.8050   22.7113 O   0  0  0  0  0  0  0  0  0  0  0  0
  -27.7218  -29.7172   26.2784 O   0  0  0  0  0  0  0  0  0  0  0  0
  -29.4500  -25.8839   24.0784 O   0  0  0  0  0  0  0  0  0  0  0  0
  -31.6518  -15.3633   19.9608 O   0  0  0  0  0  0  0  0  0  0  0  0
  -22.0222   -7.1918   23.1953 O   0  0  0  0  0  0  0  0  0  0  0  0
  -27.0992  -27.9119   18.0193 O   0  0  0  0  0  0  0  0  0  1  0  0
  -17.0143   -6.0108   21.2129 F   0  0  0  0  0  0  0  0  0  0  0  0
  -21.5171   -4.7645   21.9724 F   0  0  0  0  0  0  0  0  0  0  0  0
  -27.8251  -18.1336   22.3797 Cl  0  0  0  0  0  0  0  0  0  0  0  0
  1  2  1  0  0  0  0
  1  5  2  0  0  0  0
  2  6  2  0  0  0  0
  3 10  2  0  0  0  0
  3 18  1  0  0  0  0
  4 11  1  0  0  0  0
  4 18  2  0  0  0  0
  5 20  1  0  0  0  0
  6 22  1  0  0  0  0
  7 12  2  0  0  0  0
  7 21  1  0  0  0  0
  8  9  2  0  0  0  0
  8 24  1  0  0  0  0
  9 25  1  0  0  0  0
 10 26  1  0  0  0  0
 11 26  2  0  0  0  0
 12 27  1  0  0  0  0
 13 14  2  0  0  0  0
 13 28  1  0  0  0  0
 14 29  1  0  0  0  0
 15 23  1  0  0  0  0
 15 27  2  0  0  0  0
 16 24  2  0  0  0  0
 16 31  1  0  0  0  0
 17 29  2  0  0  0  0
 17 30  1  0  0  0  0
 18 32  1  0  0  0  0
 19 32  1  0  0  0  0
 19 33  2  0  0  0  0
 19 34  1  0  0  0  0
 20 22  2  0  0  0  0
 20 40  1  0  0  0  0
 21 23  2  0  0  0  0
 21 41  1  0  0  0  0
 22 53  1  0  0  0  0
 23 42  1  0  0  0  0
 24 63  1  0  0  0  0
 25 31  2  0  0  0  0
 25 76  1  0  0  0  0
 26 88  1  0  0  0  0
 27 89  1  0  0  0  0
 28 30  2  0  0  0  0
 28 88  1  0  0  0  0
 29 90  1  0  0  0  0
 30 91  1  0  0  0  0
 31 92  1  0  0  0  0
 32 70  2  0  0  0  0
 33 71  1  0  0  0  0
 33 74  1  0  0  0  0
 34 75  1  0  0  0  0
 34 82  2  0  0  0  0
 35 54  1  0  0  0  0
 35 79  1  0  0  0  0
 35 83  2  0  0  0  0
 36 55  1  0  0  0  0
 36 77  1  0  0  0  0
 36 84  2  0  0  0  0
 37 67  1  0  0  0  0
 37 72  1  0  0  0  0
 37 85  2  0  0  0  0
 38 68  1  0  0  0  0
 38 78  1  0  0  0  0
 38 86  2  0  0  0  0
 39 73  1  0  0  0  0
 39 76  1  0  0  0  0
 39 87  2  0  0  0  0
 40 43  1  0  0  0  0
 41 55  1  0  0  0  0
 42 72  1  0  0  0  0
 43 46  1  0  0  0  0
 44 48  1  0  0  0  0
 44 49  1  0  0  0  0
 45 47  1  0  0  0  0
 45 51  1  0  0  0  0
 46 53  1  0  0  0  0
 47 54  1  0  0  0  0
 48 56  1  0  0  0  0
 49 73  1  0  0  0  0
 50 56  1  0  0  0  0
 50 73  1  0  0  0  0
 51 80  1  0  0  0  0
 52 54  1  0  0  0  0
 52 80  1  0  0  0  0
 53 77  1  0  0  0  0
 55 72  1  0  0  0  0
 56 71  1  0  0  0  0
 57 68  1  0  0  0  0
 58 69  1  0  0  0  0
 59 69  1  0  0  0  0
 60 69  1  0  0  0  0
 61 79  1  0  0  0  0
 62 81  1  0  0  0  0
 63 79  1  0  0  0  0
 64 65  1  0  0  0  0
 64 66  1  0  0  0  0
 65 80  1  0  0  0  0
 66 89  1  0  0  0  0
 67 69  1  0  0  0  0
 67 78  1  0  0  0  0
 68 81  1  0  0  0  0
 70 71  1  0  0  0  0
M  CHG  2  80   1  81   1
M  ISO  4  39 100  66 101  76 100  89 101
M  END
> <Batch ID>
0015

> <Smiles>
CNC(C)C(=O)NC(C(=O)N1Cc2cc([101O:1][101CH2:1]CCN3CCCC(C(=O)N(C)Cc4ccc([100NH:0][100C:0](=O)N5CCCC(n6nc(-c7ccc(Oc8ccc(F)cc8F)cc7)c(C(N)=O)c6N)C5)c(Cl)c4)C3)ccc2CC1C(=O)NC1CCCc2ccccc21)C(C)(C)C

> <Shape>
0.321

> <Color>
0.157

> <Negative vol penalty>
0.000

$$$$

  -OEChem-04042320543D

 90 99  0     1  0  0  0  0  0999 V2000
  -15.4178  -29.5721   24.2099 C   0  0  0  0  0  0  0  0  0  0  0  0
  -16.0674  -29.0600   23.0913 C   0  0  0  0  0  0  0  0  0  0  0  0
  -22.6845  -10.3360   20.3618 C   0  0  0  0  0  0  0  0  0  0  0  0
  -24.4709   -9.3157   21.6286 C   0  0  0  0  0  0  0  0  0  0  0  0
  -15.9108  -30.7146   24.8387 C   0  0  0  0  0  0  0  0  0  0  0  0
  -17.2099  -29.6909   22.6003 C   0  0  0  0  0  0  0  0  0  0  0  0
  -23.4656  -26.1566   22.0843 C   0  0  0  0  0  0  0  0  0  0  0  0
  -29.1166  -17.4869   21.9844 C   0  0  0  0  0  0  0  0  0  0  0  0
  -21.9272   -9.1719   20.4920 C   0  0  0  0  0  0  0  0  0  0  0  0
  -23.7136   -8.1516   21.7589 C   0  0  0  0  0  0  0  0  0  0  0  0
  -24.6461  -25.4889   21.7577 C   0  0  0  0  0  0  0  0  0  0  0  0
  -21.1400   -7.0555   23.6552 C   0  0  0  0  0  0  0  0  0  0  0  0
  -30.4832  -17.7662   21.9788 C   0  0  0  0  0  0  0  0  0  0  0  0
  -21.0865   -6.4565   24.9137 C   0  0  0  0  0  0  0  0  0  0  0  0
  -25.6238  -27.5664   20.9987 C   0  0  0  0  0  0  0  0  0  0  0  0
  -28.7941  -19.0275   20.1515 C   0  0  0  0  0  0  0  0  0  0  0  0
  -22.0525   -4.4413   23.9957 C   0  0  0  0  0  0  0  0  0  0  0  0
  -23.9563  -10.4079   20.9300 C   0  0  0  0  0  0  0  0  0  0  0  0
  -25.1734  -12.2121   19.5992 C   0  0  0  0  0  0  0  0  0  0  0  0
  -17.0655  -31.3542   24.3610 C   0  0  0  0  0  0  0  0  0  0  0  0
  -23.3651  -27.5361   21.8834 C   0  0  0  0  0  0  0  0  0  0  0  0
  -17.7181  -30.8438   23.2226 C   0  0  0  0  0  0  0  0  0  0  0  0
  -24.4483  -28.2427   21.3356 C   0  0  0  0  0  0  0  0  0  0  0  0
  -28.2721  -18.1175   21.0707 C   0  0  0  0  0  0  0  0  0  0  0  0
  -30.1607  -19.3069   20.1458 C   0  0  0  0  0  0  0  0  0  0  0  0
  -22.4417   -8.0797   21.1906 C   0  0  0  0  0  0  0  0  0  0  0  0
  -25.7224  -26.1920   21.2160 C   0  0  0  0  0  0  0  0  0  0  0  0
  -21.6498   -6.3473   22.5669 C   0  0  0  0  0  0  0  0  0  0  0  0
  -21.5428   -5.1494   25.0840 C   0  0  0  0  0  0  0  0  0  0  0  0
  -31.0053  -18.6762   21.0595 C   0  0  0  0  0  0  0  0  0  0  0  0
  -22.1060   -5.0403   22.7371 C   0  0  0  0  0  0  0  0  0  0  0  0
  -24.7393  -11.6099   20.7953 C   0  0  0  0  0  0  0  0  0  0  0  0
  -25.8751  -13.3200   20.0074 C   0  0  0  0  0  0  0  0  0  0  0  0
  -24.9613  -11.8063   18.2405 C   0  0  0  0  0  0  0  0  0  0  0  0
  -21.2537  -30.6239   22.1719 C   0  0  0  0  0  0  0  0  0  0  0  0
  -24.1025  -31.4125   22.9924 C   0  0  0  0  0  0  0  0  0  0  0  0
  -26.8647  -32.8474   24.3883 C   0  0  0  0  0  0  0  0  0  0  0  0
  -25.8848  -17.8579   23.4315 C   0  0  0  0  0  0  0  0  0  0  0  0
  -17.5336  -32.6138   25.0458 C   0  0  0  0  0  0  0  0  0  0  0  0
  -22.0911  -28.2861   22.1633 C   0  0  0  0  0  0  0  0  0  0  0  0
  -24.2827  -29.7200   21.1047 C   0  0  0  0  0  0  0  0  0  0  0  0
  -18.9646  -33.0063   24.6871 C   0  0  0  0  0  0  0  0  0  0  0  0
  -27.4766  -14.7219   24.5862 C   0  0  0  0  0  0  0  0  0  0  0  0
  -19.1802  -32.9190   23.1795 C   0  0  0  0  0  0  0  0  0  0  0  0
  -30.0846  -23.0510   19.5229 C   0  0  0  0  0  0  0  0  0  0  0  0
  -28.1611  -22.7094   17.9228 C   0  0  0  0  0  0  0  0  0  0  0  0
  -29.3502  -24.2328   20.1535 C   0  0  0  0  0  0  0  0  0  0  0  0
  -27.4268  -23.8913   18.5533 C   0  0  0  0  0  0  0  0  0  0  0  0
  -26.8799  -13.6786   23.6431 C   0  0  0  0  0  0  0  0  0  0  0  0
  -26.5349  -15.9044   24.7927 C   0  0  0  0  0  0  0  0  0  0  0  0
  -25.4966  -15.5076   22.5839 C   0  0  0  0  0  0  0  0  0  0  0  0
  -18.9744  -31.4856   22.6749 C   0  0  1  0  0  0  0  0  0  0  0  0
  -22.3336  -29.7152   22.6812 C   0  0  1  0  0  0  0  0  0  0  0  0
  -29.1081  -22.0323   18.9216 C   0  0  0  0  0  0  0  0  0  0  0  0
  -28.4033  -24.9100   19.1546 C   0  0  0  0  0  0  0  0  0  0  0  0
  -26.4399  -14.3248   22.3179 C   0  0  2  0  0  0  0  0  0  0  0  0
  -27.9733  -35.0742   24.7194 C   0  0  0  0  0  0  0  0  0  0  0  0
  -25.0115  -31.3888   20.0808 C   0  0  0  0  0  0  0  0  0  0  0  0
  -26.8093  -33.0164   20.7029 C   0  0  0  0  0  0  0  0  0  0  0  0
  -24.4108  -33.6485   20.9681 C   0  0  0  0  0  0  0  0  0  0  0  0
  -32.1346  -20.5028   19.2328 C   0  0  0  0  0  0  0  0  0  0  0  0
  -25.9200  -19.9018   22.0528 C   0  0  0  0  0  0  0  0  0  0  0  0
  -26.7077  -32.6177   27.3347 C   0  0  0  0  0  0  0  0  0  0  0  0
  -26.8110  -17.8186   21.0772 C   0  0  0  0  0  0  0  0  0  0  0  0
  -29.8667  -20.8867   18.2542 C   0  0  0  0  0  0  0  0  0  0  0  0
  -27.6448  -26.0557   19.8219 C   0  0  0  0  0  0  0  0  0  1  0  0
  -25.4342  -31.9721   22.5602 C   0  0  1  0  0  0  0  0  0  0  0  0
  -27.0221  -34.0442   25.3087 C   0  0  2  0  0  0  0  0  0  0  0  0
  -25.4144  -32.4813   21.0912 C   0  0  0  0  0  0  0  0  0  0  0  0
  -25.1324  -12.2797   21.8820 N   0  0  0  0  0  0  0  0  0  0  0  0
  -25.8210  -13.3141   21.3702 N   0  0  0  0  0  0  0  0  0  0  0  0
  -23.5996  -30.3345   22.2538 N   0  0  0  0  0  0  0  0  0  0  0  0
  -26.0982  -16.4723   23.5167 N   0  0  0  0  0  0  0  0  0  0  0  0
  -26.5270  -14.2888   19.3301 N   0  0  0  0  0  0  0  0  0  0  0  0
  -25.8963  -10.9482   17.6457 N   0  0  0  0  0  0  0  0  0  0  0  0
  -20.1323  -30.6720   22.9778 N   0  0  0  0  0  0  0  0  0  0  0  0
  -25.7861  -32.9925   23.5416 N   0  0  0  0  0  0  0  0  0  0  0  0
  -30.6872  -20.2285   19.2141 N   0  0  3  0  0  0  0  0  0  0  0  0
  -26.1164  -18.4655   22.1882 N   0  0  0  0  0  0  0  0  0  0  0  0
  -27.5566  -33.6136   26.6315 N   0  3  0  0  0  0  0  0  0  0  0  0
  -23.9807  -12.2063   17.5683 O   0  0  0  0  0  0  0  0  0  0  0  0
  -21.4247  -31.2382   21.1254 O   0  0  0  0  0  0  0  0  0  0  0  0
  -23.5191  -31.9191   23.9548 O   0  0  0  0  0  0  0  0  0  0  0  0
  -27.6249  -31.8820   24.4149 O   0  0  0  0  0  0  0  0  0  0  0  0
  -25.5178  -18.5160   24.4134 O   0  0  0  0  0  0  0  0  0  0  0  0
  -21.7030   -6.9437   21.3182 O   0  0  0  0  0  0  0  0  0  0  0  0
  -26.8736  -25.5347   20.9037 O   0  0  0  0  0  0  0  0  0  1  0  0
  -21.4927   -4.5749   26.2930 F   0  0  0  0  0  0  0  0  0  0  0  0
  -32.3203  -18.9369   21.0628 F   0  0  0  0  0  0  0  0  0  0  0  0
  -22.5979   -4.3554   21.6956 F   0  0  0  0  0  0  0  0  0  0  0  0
  1  2  1  0  0  0  0
  1  5  2  0  0  0  0
  2  6  2  0  0  0  0
  3  9  2  0  0  0  0
  3 18  1  0  0  0  0
  4 10  1  0  0  0  0
  4 18  2  0  0  0  0
  5 20  1  0  0  0  0
  6 22  1  0  0  0  0
  7 11  2  0  0  0  0
  7 21  1  0  0  0  0
  8 13  2  0  0  0  0
  8 24  1  0  0  0  0
  9 26  1  0  0  0  0
 10 26  2  0  0  0  0
 11 27  1  0  0  0  0
 12 14  2  0  0  0  0
 12 28  1  0  0  0  0
 13 30  1  0  0  0  0
 14 29  1  0  0  0  0
 15 23  1  0  0  0  0
 15 27  2  0  0  0  0
 16 24  2  0  0  0  0
 16 25  1  0  0  0  0
 17 29  2  0  0  0  0
 17 31  1  0  0  0  0
 18 32  1  0  0  0  0
 19 32  1  0  0  0  0
 19 33  2  0  0  0  0
 19 34  1  0  0  0  0
 20 22  2  0  0  0  0
 20 39  1  0  0  0  0
 21 23  2  0  0  0  0
 21 40  1  0  0  0  0
 22 52  1  0  0  0  0
 23 41  1  0  0  0  0
 24 64  1  0  0  0  0
 25 30  2  0  0  0  0
 25 78  1  0  0  0  0
 26 86  1  0  0  0  0
 27 87  1  0  0  0  0
 28 31  2  0  0  0  0
 28 86  1  0  0  0  0
 29 88  1  0  0  0  0
 30 89  1  0  0  0  0
 31 90  1  0  0  0  0
 32 70  2  0  0  0  0
 33 71  1  0  0  0  0
 33 74  1  0  0  0  0
 34 75  1  0  0  0  0
 34 81  2  0  0  0  0
 35 53  1  0  0  0  0
 35 76  1  0  0  0  0
 35 82  2  0  0  0  0
 36 67  1  0  0  0  0
 36 72  1  0  0  0  0
 36 83  2  0  0  0  0
 37 68  1  0  0  0  0
 37 77  1  0  0  0  0
 37 84  2  0  0  0  0
 38 73  1  0  0  0  0
 38 79  1  0  0  0  0
 38 85  2  0  0  0  0
 39 42  1  0  0  0  0
 40 53  1  0  0  0  0
 41 72  1  0  0  0  0
 42 44  1  0  0  0  0
 43 49  1  0  0  0  0
 43 50  1  0  0  0  0
 44 52  1  0  0  0  0
 45 47  1  0  0  0  0
 45 54  1  0  0  0  0
 46 48  1  0  0  0  0
 46 54  1  0  0  0  0
 47 55  1  0  0  0  0
 48 55  1  0  0  0  0
 49 56  1  0  0  0  0
 50 73  1  0  0  0  0
 51 56  1  0  0  0  0
 51 73  1  0  0  0  0
 52 76  1  0  0  0  0
 53 72  1  0  0  0  0
 54 65  1  0  0  0  0
 55 66  1  0  0  0  0
 56 71  1  0  0  0  0
 57 68  1  0  0  0  0
 58 69  1  0  0  0  0
 59 69  1  0  0  0  0
 60 69  1  0  0  0  0
 61 78  1  0  0  0  0
 62 79  1  0  0  0  0
 63 80  1  0  0  0  0
 64 79  1  0  0  0  0
 65 78  1  0  0  0  0
 66 87  1  0  0  0  0
 67 69  1  0  0  0  0
 67 77  1  0  0  0  0
 68 80  1  0  0  0  0
 70 71  1  0  0  0  0
M  CHG  1  80   1
M  ISO  4  38 100  66 101  79 100  87 101
M  END
> <Batch ID>
0015

> <Smiles>
CNC(C)C(=O)NC(C(=O)N1Cc2cc([101O:1][101CH2:1]C3CCC(CN(C)c4cc(C[100N:0](C)[100C:0](=O)N5CCCC(n6nc(-c7ccc(Oc8ccc(F)cc8F)cc7)c(C(N)=O)c6N)C5)ccc4F)CC3)ccc2CC1C(=O)NC1CCCc2ccccc21)C(C)(C)C

> <Shape>
0.311

> <Color>
0.105

> <Negative vol penalty>
0.000

$$$$

  -OEChem-04042320543D

 87 96  0     1  0  0  0  0  0999 V2000
  -25.1151  -31.1727   19.7468 C   0  0  0  0  0  0  0  0  0  0  0  0
  -26.0319  -30.4406   20.4944 C   0  0  0  0  0  0  0  0  0  0  0  0
  -23.0994   -9.7847   19.9479 C   0  0  0  0  0  0  0  0  0  0  0  0
  -23.8304   -9.8396   22.2500 C   0  0  0  0  0  0  0  0  0  0  0  0
  -23.8717  -31.4930   20.2901 C   0  0  0  0  0  0  0  0  0  0  0  0
  -25.7061  -30.0293   21.7863 C   0  0  0  0  0  0  0  0  0  0  0  0
  -26.9779  -25.2075   22.6687 C   0  0  0  0  0  0  0  0  0  0  0  0
  -22.3622   -8.6299   20.2096 C   0  0  0  0  0  0  0  0  0  0  0  0
  -23.0931   -8.6849   22.5117 C   0  0  0  0  0  0  0  0  0  0  0  0
  -28.3211  -24.9410   22.9303 C   0  0  0  0  0  0  0  0  0  0  0  0
  -19.4027   -7.8344   21.6385 C   0  0  0  0  0  0  0  0  0  0  0  0
  -18.1025   -7.7682   21.1381 C   0  0  0  0  0  0  0  0  0  0  0  0
  -27.8386  -24.8590   25.2924 C   0  0  0  0  0  0  0  0  0  0  0  0
  -30.3718  -18.3952   23.9870 C   0  0  0  0  0  0  0  0  0  0  0  0
  -31.9968  -16.6471   22.5426 C   0  0  0  0  0  0  0  0  0  0  0  0
  -18.6949   -5.8064   19.8584 C   0  0  0  0  0  0  0  0  0  0  0  0
  -23.8336  -10.3895   20.9681 C   0  0  0  0  0  0  0  0  0  0  0  0
  -24.1558  -12.9149   20.8064 C   0  0  0  0  0  0  0  0  0  0  0  0
  -23.5268  -31.0771   21.5857 C   0  0  0  0  0  0  0  0  0  0  0  0
  -26.0554  -25.3128   23.7195 C   0  0  0  0  0  0  0  0  0  0  0  0
  -24.4574  -30.3454   22.3480 C   0  0  0  0  0  0  0  0  0  0  0  0
  -26.4838  -25.1244   25.0413 C   0  0  0  0  0  0  0  0  0  0  0  0
  -31.7556  -18.4257   24.1598 C   0  0  0  0  0  0  0  0  0  0  0  0
  -30.6130  -16.6165   22.3698 C   0  0  0  0  0  0  0  0  0  0  0  0
  -22.3590   -8.0800   21.4915 C   0  0  0  0  0  0  0  0  0  0  0  0
  -28.7522  -24.7695   24.2425 C   0  0  0  0  0  0  0  0  0  0  0  0
  -20.3492   -6.8866   21.2489 C   0  0  0  0  0  0  0  0  0  0  0  0
  -17.7485   -6.7541   20.2480 C   0  0  0  0  0  0  0  0  0  0  0  0
  -29.8005  -17.4905   23.0920 C   0  0  0  0  0  0  0  0  0  0  0  0
  -32.5681  -17.5517   23.4376 C   0  0  0  0  0  0  0  0  0  0  0  0
  -19.9952   -5.8726   20.3589 C   0  0  0  0  0  0  0  0  0  0  0  0
  -24.5959  -11.5821   20.6983 C   0  0  0  0  0  0  0  0  0  0  0  0
  -25.2461  -13.6671   20.4431 C   0  0  0  0  0  0  0  0  0  0  0  0
  -31.3835  -21.7024   24.7904 C   0  0  0  0  0  0  0  0  0  0  0  0
  -22.8759  -13.4273   21.2001 C   0  0  0  0  0  0  0  0  0  0  0  0
  -24.1699  -27.6201   24.8265 C   0  0  0  0  0  0  0  0  0  0  0  0
  -23.0688  -25.2584   26.7585 C   0  0  0  0  0  0  0  0  0  0  0  0
  -23.6417  -22.2598   28.2839 C   0  0  0  0  0  0  0  0  0  0  0  0
  -30.7008  -14.7626   20.6664 C   0  0  0  0  0  0  0  0  0  0  0  0
  -22.1890  -31.4878   22.1480 C   0  0  0  0  0  0  0  0  0  0  0  0
  -24.6050  -25.5743   23.4188 C   0  0  0  0  0  0  0  0  0  0  0  0
  -25.5295  -25.2073   26.2036 C   0  0  0  0  0  0  0  0  0  0  0  0
  -21.7779  -30.6927   23.3846 C   0  0  0  0  0  0  0  0  0  0  0  0
  -29.6364  -12.2968   18.3289 C   0  0  0  0  0  0  0  0  0  0  0  0
  -22.9401  -30.5965   24.3680 C   0  0  0  0  0  0  0  0  0  0  0  0
  -28.1939  -12.0007   18.7458 C   0  0  0  0  0  0  0  0  0  0  0  0
  -32.9650  -22.5088   23.1967 C   0  0  0  0  0  0  0  0  0  0  0  0
  -30.5344  -12.5552   19.5374 C   0  0  0  0  0  0  0  0  0  0  0  0
  -33.5141  -21.2602   23.8609 C   0  0  0  0  0  0  0  0  0  0  0  0
  -28.6043  -13.2881   20.8815 C   0  0  0  0  0  0  0  0  0  0  0  0
  -24.1314  -29.8600   23.7438 C   0  0  1  0  0  0  0  0  0  0  0  0
  -31.8901  -22.9936   24.1723 C   0  0  1  0  0  0  0  0  0  0  0  0
  -23.8475  -26.1698   24.6015 C   0  0  1  0  0  0  0  0  0  0  0  0
  -27.6478  -13.0852   19.6951 C   0  0  2  0  0  0  0  0  0  0  0  0
  -22.5698  -20.6003   29.8313 C   0  0  0  0  0  0  0  0  0  0  0  0
  -23.6416  -27.0982   29.1244 C   0  0  0  0  0  0  0  0  0  0  0  0
  -23.4667  -25.1039   30.6279 C   0  0  0  0  0  0  0  0  0  0  0  0
  -21.4928  -25.8289   29.2861 C   0  0  0  0  0  0  0  0  0  0  0  0
  -23.7322  -20.1211   26.2403 C   0  0  0  0  0  0  0  0  0  0  0  0
  -32.3673  -19.4012   25.1233 C   0  0  0  0  0  0  0  0  0  0  0  0
  -30.7928  -23.7978   23.5024 C   0  0  0  0  0  0  0  0  0  1  0  0
  -23.4471  -24.7276   28.1201 C   0  0  1  0  0  0  0  0  0  0  0  0
  -22.7973  -21.0022   28.3823 C   0  0  2  0  0  0  0  0  0  0  0  0
  -23.0306  -25.6899   29.2681 C   0  0  0  0  0  0  0  0  0  0  0  0
  -25.8667  -11.4896   20.2975 N   0  0  0  0  0  0  0  0  0  0  0  0
  -26.2344  -12.7738   20.1505 N   0  0  0  0  0  0  0  0  0  0  0  0
  -32.3806  -20.7480   24.5950 N   0  0  0  0  0  0  0  0  0  0  0  0
  -24.1228  -25.4712   25.8586 N   0  0  0  0  0  0  0  0  0  0  0  0
  -29.9559  -13.5969   20.3889 N   0  0  0  0  0  0  0  0  0  0  0  0
  -25.4463  -14.9988   20.3485 N   0  0  0  0  0  0  0  0  0  0  0  0
  -21.8675  -12.5157   21.5413 N   0  0  0  0  0  0  0  0  0  0  0  0
  -30.0355  -15.6967   21.4598 N   0  0  0  0  0  0  0  0  0  0  0  0
  -23.8979  -28.4317   23.7417 N   0  0  0  0  0  0  0  0  0  0  0  0
  -22.8616  -23.3948   28.2157 N   0  0  0  0  0  0  0  0  0  0  0  0
  -23.4683  -19.8715   27.6808 N   0  3  0  0  0  0  0  0  0  0  0  0
  -30.3229  -21.5712   25.3831 O   0  0  0  0  0  0  0  0  0  0  0  0
  -22.6287  -14.6567   21.2321 O   0  0  0  0  0  0  0  0  0  0  0  0
  -24.6300  -27.9765   25.9049 O   0  0  0  0  0  0  0  0  0  0  0  0
  -21.8812  -25.4696   26.5003 O   0  0  0  0  0  0  0  0  0  0  0  0
  -24.8705  -22.2379   28.2727 O   0  0  0  0  0  0  0  0  0  0  0  0
  -31.8342  -14.9325   20.2098 O   0  0  0  0  0  0  0  0  0  0  0  0
  -21.6395   -6.9533   21.7472 O   0  0  0  0  0  0  0  0  0  0  0  0
  -30.0629  -24.5099   24.5006 O   0  0  0  0  0  0  0  0  0  1  0  0
  -16.4994   -6.6898   19.7687 F   0  0  0  0  0  0  0  0  0  0  0  0
  -28.4692  -17.4698   22.9339 F   0  0  0  0  0  0  0  0  0  0  0  0
  -33.8986  -17.5737   23.5970 F   0  0  0  0  0  0  0  0  0  0  0  0
  -20.8998   -4.9586   19.9818 F   0  0  0  0  0  0  0  0  0  0  0  0
  1  2  1  0  0  0  0
  1  5  2  0  0  0  0
  2  6  2  0  0  0  0
  3  8  2  0  0  0  0
  3 17  1  0  0  0  0
  4  9  1  0  0  0  0
  4 17  2  0  0  0  0
  5 19  1  0  0  0  0
  6 21  1  0  0  0  0
  7 10  2  0  0  0  0
  7 20  1  0  0  0  0
  8 25  1  0  0  0  0
  9 25  2  0  0  0  0
 10 26  1  0  0  0  0
 11 12  2  0  0  0  0
 11 27  1  0  0  0  0
 12 28  1  0  0  0  0
 13 22  1  0  0  0  0
 13 26  2  0  0  0  0
 14 23  1  0  0  0  0
 14 29  2  0  0  0  0
 15 24  2  0  0  0  0
 15 30  1  0  0  0  0
 16 28  2  0  0  0  0
 16 31  1  0  0  0  0
 17 32  1  0  0  0  0
 18 32  1  0  0  0  0
 18 33  2  0  0  0  0
 18 35  1  0  0  0  0
 19 21  2  0  0  0  0
 19 40  1  0  0  0  0
 20 22  2  0  0  0  0
 20 41  1  0  0  0  0
 21 51  1  0  0  0  0
 22 42  1  0  0  0  0
 23 30  2  0  0  0  0
 23 60  1  0  0  0  0
 24 29  1  0  0  0  0
 24 72  1  0  0  0  0
 25 82  1  0  0  0  0
 26 83  1  0  0  0  0
 27 31  2  0  0  0  0
 27 82  1  0  0  0  0
 28 84  1  0  0  0  0
 29 85  1  0  0  0  0
 30 86  1  0  0  0  0
 31 87  1  0  0  0  0
 32 65  2  0  0  0  0
 33 66  1  0  0  0  0
 33 70  1  0  0  0  0
 34 52  1  0  0  0  0
 34 67  1  0  0  0  0
 34 76  2  0  0  0  0
 35 71  1  0  0  0  0
 35 77  2  0  0  0  0
 36 53  1  0  0  0  0
 36 73  1  0  0  0  0
 36 78  2  0  0  0  0
 37 62  1  0  0  0  0
 37 68  1  0  0  0  0
 37 79  2  0  0  0  0
 38 63  1  0  0  0  0
 38 74  1  0  0  0  0
 38 80  2  0  0  0  0
 39 69  1  0  0  0  0
 39 72  1  0  0  0  0
 39 81  2  0  0  0  0
 40 43  1  0  0  0  0
 41 53  1  0  0  0  0
 42 68  1  0  0  0  0
 43 45  1  0  0  0  0
 44 46  1  0  0  0  0
 44 48  1  0  0  0  0
 45 51  1  0  0  0  0
 46 54  1  0  0  0  0
 47 49  1  0  0  0  0
 47 52  1  0  0  0  0
 48 69  1  0  0  0  0
 49 67  1  0  0  0  0
 50 54  1  0  0  0  0
 50 69  1  0  0  0  0
 51 73  1  0  0  0  0
 52 61  1  0  0  0  0
 53 68  1  0  0  0  0
 54 66  1  0  0  0  0
 55 63  1  0  0  0  0
 56 64  1  0  0  0  0
 57 64  1  0  0  0  0
 58 64  1  0  0  0  0
 59 75  1  0  0  0  0
 60 67  1  0  0  0  0
 61 83  1  0  0  0  0
 62 64  1  0  0  0  0
 62 74  1  0  0  0  0
 63 75  1  0  0  0  0
 65 66  1  0  0  0  0
M  CHG  1  75   1
M  ISO  4  39 100  61 101  72 100  83 101
M  END
> <Batch ID>
0015

> <Smiles>
CNC(C)C(=O)NC(C(=O)N1Cc2cc([101O:1][101CH2:1]C3CCN(Cc4cc(F)c([100NH:0][100C:0](=O)N5CCCC(n6nc(-c7ccc(Oc8ccc(F)cc8F)cc7)c(C(N)=O)c6N)C5)cc4F)C3=O)ccc2CC1C(=O)NC1CCCc2ccccc21)C(C)(C)C

> <Shape>
0.196

> <Color>
0.207

> <Negative vol penalty>
0.000

$$$$

  -OEChem-04042320543D

 87 96  0     1  0  0  0  0  0999 V2000
  -17.0585  -28.9745   24.4990 C   0  0  0  0  0  0  0  0  0  0  0  0
  -17.4877  -27.9140   23.7074 C   0  0  0  0  0  0  0  0  0  0  0  0
  -29.8549  -19.8139   18.3366 C   0  0  0  0  0  0  0  0  0  0  0  0
  -29.2638  -19.8424   20.6790 C   0  0  0  0  0  0  0  0  0  0  0  0
  -17.6453  -30.2312   24.3567 C   0  0  0  0  0  0  0  0  0  0  0  0
  -18.5034  -28.1099   22.7723 C   0  0  0  0  0  0  0  0  0  0  0  0
  -22.8199  -24.0886   21.1285 C   0  0  0  0  0  0  0  0  0  0  0  0
  -29.6123  -21.1852   18.2586 C   0  0  0  0  0  0  0  0  0  0  0  0
  -29.0212  -21.2138   20.6011 C   0  0  0  0  0  0  0  0  0  0  0  0
  -22.9297  -23.2222   20.0418 C   0  0  0  0  0  0  0  0  0  0  0  0
  -31.2081  -24.0484   19.0885 C   0  0  0  0  0  0  0  0  0  0  0  0
  -32.1431  -24.8349   18.4157 C   0  0  0  0  0  0  0  0  0  0  0  0
  -24.2687  -24.8584   18.8803 C   0  0  0  0  0  0  0  0  0  0  0  0
  -26.5232  -15.6147   14.7999 C   0  0  0  0  0  0  0  0  0  0  0  0
  -24.0297  -15.6869   16.0489 C   0  0  0  0  0  0  0  0  0  0  0  0
  -30.4341  -25.5331   16.8571 C   0  0  0  0  0  0  0  0  0  0  0  0
  -29.6806  -19.1424   19.5468 C   0  0  0  0  0  0  0  0  0  0  0  0
  -31.1485  -17.0940   19.9431 C   0  0  0  0  0  0  0  0  0  0  0  0
  -18.6754  -30.4403   23.4262 C   0  0  0  0  0  0  0  0  0  0  0  0
  -23.4256  -25.3529   21.0949 C   0  0  0  0  0  0  0  0  0  0  0  0
  -19.1037  -29.3709   22.6166 C   0  0  0  0  0  0  0  0  0  0  0  0
  -24.1673  -25.7380   19.9689 C   0  0  0  0  0  0  0  0  0  0  0  0
  -25.6930  -16.7235   14.6360 C   0  0  0  0  0  0  0  0  0  0  0  0
  -24.4462  -16.7596   15.2605 C   0  0  0  0  0  0  0  0  0  0  0  0
  -26.1067  -14.5419   15.5882 C   0  0  0  0  0  0  0  0  0  0  0  0
  -29.1954  -21.8852   19.3908 C   0  0  0  0  0  0  0  0  0  0  0  0
  -23.6517  -23.6082   18.9162 C   0  0  0  0  0  0  0  0  0  0  0  0
  -29.8861  -24.0041   18.6456 C   0  0  0  0  0  0  0  0  0  0  0  0
  -31.7561  -25.5773   17.3000 C   0  0  0  0  0  0  0  0  0  0  0  0
  -24.8600  -14.5781   16.2127 C   0  0  0  0  0  0  0  0  0  0  0  0
  -29.4991  -24.7466   17.5300 C   0  0  0  0  0  0  0  0  0  0  0  0
  -29.9306  -17.7257   19.6279 C   0  0  0  0  0  0  0  0  0  0  0  0
  -30.8633  -15.7516   19.8884 C   0  0  0  0  0  0  0  0  0  0  0  0
  -23.8258  -20.3976   15.7276 C   0  0  0  0  0  0  0  0  0  0  0  0
  -32.4237  -17.6693   20.2574 C   0  0  0  0  0  0  0  0  0  0  0  0
  -22.3725  -28.3490   21.2298 C   0  0  0  0  0  0  0  0  0  0  0  0
  -25.5394  -29.0466   21.3101 C   0  0  0  0  0  0  0  0  0  0  0  0
  -28.7348  -28.0965   20.5795 C   0  0  0  0  0  0  0  0  0  0  0  0
  -26.9363  -12.6230   16.9375 C   0  0  0  0  0  0  0  0  0  0  0  0
  -19.2467  -31.8279   23.2753 C   0  0  0  0  0  0  0  0  0  0  0  0
  -23.3202  -26.2652   22.2861 C   0  0  0  0  0  0  0  0  0  0  0  0
  -24.8535  -27.0765   19.8911 C   0  0  0  0  0  0  0  0  0  0  0  0
  -20.5748  -31.8613   22.5234 C   0  0  0  0  0  0  0  0  0  0  0  0
  -27.2783  -12.6501   20.4766 C   0  0  0  0  0  0  0  0  0  0  0  0
  -20.4962  -31.0061   21.2627 C   0  0  0  0  0  0  0  0  0  0  0  0
  -28.1145  -13.9112   20.6910 C   0  0  0  0  0  0  0  0  0  0  0  0
  -26.2332  -12.8364   19.3761 C   0  0  0  0  0  0  0  0  0  0  0  0
  -24.6093  -19.0969   17.1803 C   0  0  0  0  0  0  0  0  0  0  0  0
  -27.6292  -14.5766   18.3051 C   0  0  0  0  0  0  0  0  0  0  0  0
  -20.2199  -29.5379   21.6084 C   0  0  1  0  0  0  0  0  0  0  0  0
  -24.5458  -20.6447   17.0745 C   0  0  2  0  0  0  0  0  0  0  0  0
  -23.5466  -27.7328   21.9366 C   0  0  1  0  0  0  0  0  0  0  0  0
  -28.7265  -14.3999   19.3663 C   0  0  1  0  0  0  0  0  0  0  0  0
  -26.1599  -17.8601   13.7870 C   0  0  0  0  0  0  0  0  0  0  0  0
  -31.1098  -28.8928   20.7299 C   0  0  0  0  0  0  0  0  0  0  0  0
  -25.0601  -30.9150   18.9460 C   0  0  0  0  0  0  0  0  0  0  0  0
  -27.5318  -30.9315   18.5475 C   0  0  0  0  0  0  0  0  0  0  0  0
  -26.6097  -31.8157   20.6900 C   0  0  0  0  0  0  0  0  0  0  0  0
  -27.7047  -12.8962   14.5901 C   0  0  0  0  0  0  0  0  0  0  0  0
  -29.5065  -25.8304   22.3197 C   0  0  0  0  0  0  0  0  0  0  0  0
  -23.5351  -17.9419   15.0989 C   0  0  0  0  0  0  0  0  0  0  0  0
  -23.7294  -21.3650   18.1301 C   0  0  0  0  0  0  0  0  0  1  0  0
  -26.6000  -29.3223   20.2718 C   0  0  1  0  0  0  0  0  0  0  0  0
  -30.0035  -28.1042   21.4131 C   0  0  2  0  0  0  0  0  0  0  0  0
  -26.4360  -30.7216   19.6142 C   0  0  0  0  0  0  0  0  0  0  0  0
  -28.9450  -16.8561   19.3903 N   0  0  0  0  0  0  0  0  0  0  0  0
  -29.5434  -15.6642   19.5563 N   0  0  0  0  0  0  0  0  0  0  0  0
  -23.9683  -19.0619   15.8764 N   0  0  0  0  0  0  0  0  0  0  0  0
  -24.7159  -27.9357   21.0787 N   0  0  0  0  0  0  0  0  0  0  0  0
  -26.8573  -13.3419   18.1452 N   0  0  0  0  0  0  0  0  0  0  0  0
  -31.6154  -14.6492   20.0924 N   0  0  0  0  0  0  0  0  0  0  0  0
  -32.5419  -19.0658   20.2695 N   0  0  0  0  0  0  0  0  0  0  0  0
  -21.4275  -28.8934   22.0783 N   0  0  0  0  0  0  0  0  0  0  0  0
  -27.8834  -29.1209   20.9358 N   0  0  0  0  0  0  0  0  0  0  0  0
  -26.9682  -13.3953   15.7565 N   0  0  0  0  0  0  0  0  0  0  0  0
  -30.4865  -26.7118   21.6341 N   0  3  0  0  0  0  0  0  0  0  0  0
  -23.3197  -21.0823   14.8686 O   0  0  0  0  0  0  0  0  0  0  0  0
  -33.4324  -16.9656   20.5038 O   0  0  0  0  0  0  0  0  0  0  0  0
  -22.3280  -28.3330   20.0053 O   0  0  0  0  0  0  0  0  0  0  0  0
  -25.4497  -29.7853   22.2939 O   0  0  0  0  0  0  0  0  0  0  0  0
  -28.5221  -27.2672   19.6978 O   0  0  0  0  0  0  0  0  0  0  0  0
  -26.9999  -11.3879   16.9168 O   0  0  0  0  0  0  0  0  0  0  0  0
  -28.9588  -23.2234   19.3152 O   0  0  0  0  0  0  0  0  0  0  0  0
  -23.7599  -22.7647   17.8538 O   0  0  0  0  0  0  0  0  0  1  0  0
  -32.6538  -26.3337   16.6549 F   0  0  0  0  0  0  0  0  0  0  0  0
  -24.4494  -13.5529   16.9729 F   0  0  0  0  0  0  0  0  0  0  0  0
  -28.2303  -24.7090   17.1005 F   0  0  0  0  0  0  0  0  0  0  0  0
  1  2  1  0  0  0  0
  1  5  2  0  0  0  0
  2  6  2  0  0  0  0
  3  8  2  0  0  0  0
  3 17  1  0  0  0  0
  4  9  1  0  0  0  0
  4 17  2  0  0  0  0
  5 19  1  0  0  0  0
  6 21  1  0  0  0  0
  7 10  2  0  0  0  0
  7 20  1  0  0  0  0
  8 26  1  0  0  0  0
  9 26  2  0  0  0  0
 10 27  1  0  0  0  0
 11 12  2  0  0  0  0
 11 28  1  0  0  0  0
 12 29  1  0  0  0  0
 13 22  1  0  0  0  0
 13 27  2  0  0  0  0
 14 23  1  0  0  0  0
 14 25  2  0  0  0  0
 15 24  1  0  0  0  0
 15 30  2  0  0  0  0
 16 29  2  0  0  0  0
 16 31  1  0  0  0  0
 17 32  1  0  0  0  0
 18 32  1  0  0  0  0
 18 33  2  0  0  0  0
 18 35  1  0  0  0  0
 19 21  2  0  0  0  0
 19 40  1  0  0  0  0
 20 22  2  0  0  0  0
 20 41  1  0  0  0  0
 21 50  1  0  0  0  0
 22 42  1  0  0  0  0
 23 24  2  0  0  0  0
 23 54  1  0  0  0  0
 24 61  1  0  0  0  0
 25 30  1  0  0  0  0
 25 75  1  0  0  0  0
 26 83  1  0  0  0  0
 27 84  1  0  0  0  0
 28 31  2  0  0  0  0
 28 83  1  0  0  0  0
 29 85  1  0  0  0  0
 30 86  1  0  0  0  0
 31 87  1  0  0  0  0
 32 66  2  0  0  0  0
 33 67  1  0  0  0  0
 33 71  1  0  0  0  0
 34 51  1  0  0  0  0
 34 68  1  0  0  0  0
 34 77  2  0  0  0  0
 35 72  1  0  0  0  0
 35 78  2  0  0  0  0
 36 52  1  0  0  0  0
 36 73  1  0  0  0  0
 36 79  2  0  0  0  0
 37 63  1  0  0  0  0
 37 69  1  0  0  0  0
 37 80  2  0  0  0  0
 38 64  1  0  0  0  0
 38 74  1  0  0  0  0
 38 81  2  0  0  0  0
 39 70  1  0  0  0  0
 39 75  1  0  0  0  0
 39 82  2  0  0  0  0
 40 43  1  0  0  0  0
 41 52  1  0  0  0  0
 42 69  1  0  0  0  0
 43 45  1  0  0  0  0
 44 46  1  0  0  0  0
 44 47  1  0  0  0  0
 45 50  1  0  0  0  0
 46 53  1  0  0  0  0
 47 70  1  0  0  0  0
 48 51  1  0  0  0  0
 48 68  1  0  0  0  0
 49 53  1  0  0  0  0
 49 70  1  0  0  0  0
 50 73  1  0  0  0  0
 51 62  1  0  0  0  0
 52 69  1  0  0  0  0
 53 67  1  0  0  0  0
 55 64  1  0  0  0  0
 56 65  1  0  0  0  0
 57 65  1  0  0  0  0
 58 65  1  0  0  0  0
 59 75  1  0  0  0  0
 60 76  1  0  0  0  0
 61 68  1  0  0  0  0
 62 84  1  0  0  0  0
 63 65  1  0  0  0  0
 63 74  1  0  0  0  0
 64 76  1  0  0  0  0
 66 67  1  0  0  0  0
M  CHG  1  76   1
M  ISO  4  39 100  62 101  75 100  84 101
M  END
> <Batch ID>
0015

> <Smiles>
CNC(C)C(=O)NC(C(=O)N1Cc2cc([101O:1][101CH2:1]C3CN(Cc4cc(F)c([100N:0](C)[100C:0](=O)N5CCCC(n6nc(-c7ccc(Oc8ccc(F)cc8F)cc7)c(C(N)=O)c6N)C5)cc4C)C3=O)ccc2CC1C(=O)NC1CCCc2ccccc21)C(C)(C)C

> <Shape>
0.226

> <Color>
0.082

> <Negative vol penalty>
0.000

$$$$

  -OEChem-04042320543D

 93102  0     1  0  0  0  0  0999 V2000
  -25.2632  -17.8180   24.7128 C   0  0  0  0  0  0  0  0  0  0  0  0
  -25.7378  -19.1199   24.5887 C   0  0  0  0  0  0  0  0  0  0  0  0
  -23.0744   -9.8689   19.9423 C   0  0  0  0  0  0  0  0  0  0  0  0
  -23.8360   -9.8745   22.2351 C   0  0  0  0  0  0  0  0  0  0  0  0
  -29.6895  -19.2680   22.3795 C   0  0  0  0  0  0  0  0  0  0  0  0
  -31.3195  -19.0821   20.6060 C   0  0  0  0  0  0  0  0  0  0  0  0
  -24.1714  -17.3999   23.9532 C   0  0  0  0  0  0  0  0  0  0  0  0
  -25.1213  -20.0041   23.7041 C   0  0  0  0  0  0  0  0  0  0  0  0
  -24.3780  -24.5826   25.7364 C   0  0  0  0  0  0  0  0  0  0  0  0
  -29.5218  -17.8833   22.3706 C   0  0  0  0  0  0  0  0  0  0  0  0
  -31.1518  -17.6974   20.5970 C   0  0  0  0  0  0  0  0  0  0  0  0
  -29.9627  -24.9828   23.5922 C   0  0  0  0  0  0  0  0  0  0  0  0
  -30.0757  -23.7103   23.0323 C   0  0  0  0  0  0  0  0  0  0  0  0
  -22.3304   -8.7158   20.1922 C   0  0  0  0  0  0  0  0  0  0  0  0
  -23.0920   -8.7215   22.4851 C   0  0  0  0  0  0  0  0  0  0  0  0
  -25.4797  -25.4339   25.8082 C   0  0  0  0  0  0  0  0  0  0  0  0
  -19.8641   -7.9243   23.0897 C   0  0  0  0  0  0  0  0  0  0  0  0
  -19.1080   -7.8840   24.2611 C   0  0  0  0  0  0  0  0  0  0  0  0
  -24.7068  -26.5906   23.8375 C   0  0  0  0  0  0  0  0  0  0  0  0
  -28.7077  -25.7198   21.6638 C   0  0  0  0  0  0  0  0  0  0  0  0
  -20.3494   -5.9459   24.9957 C   0  0  0  0  0  0  0  0  0  0  0  0
  -23.8273  -10.4482   20.9637 C   0  0  0  0  0  0  0  0  0  0  0  0
  -30.5883  -19.8674   21.4972 C   0  0  0  0  0  0  0  0  0  0  0  0
  -24.1697  -12.9733   20.8446 C   0  0  0  0  0  0  0  0  0  0  0  0
  -23.5352  -18.2824   23.0660 C   0  0  0  0  0  0  0  0  0  0  0  0
  -23.4365  -24.7223   24.7065 C   0  0  0  0  0  0  0  0  0  0  0  0
  -24.0208  -19.5971   22.9310 C   0  0  0  0  0  0  0  0  0  0  0  0
  -23.5926  -25.7415   23.7563 C   0  0  0  0  0  0  0  0  0  0  0  0
  -30.2529  -17.0980   21.4793 C   0  0  0  0  0  0  0  0  0  0  0  0
  -29.2786  -25.9876   22.9080 C   0  0  0  0  0  0  0  0  0  0  0  0
  -29.5049  -23.4425   21.7881 C   0  0  0  0  0  0  0  0  0  0  0  0
  -22.3391   -8.1421   21.4636 C   0  0  0  0  0  0  0  0  0  0  0  0
  -25.6459  -26.4362   24.8570 C   0  0  0  0  0  0  0  0  0  0  0  0
  -20.8628   -6.9753   22.8712 C   0  0  0  0  0  0  0  0  0  0  0  0
  -19.3507   -6.8948   25.2142 C   0  0  0  0  0  0  0  0  0  0  0  0
  -28.8208  -24.4473   21.1038 C   0  0  0  0  0  0  0  0  0  0  0  0
  -21.1055   -5.9861   23.8242 C   0  0  0  0  0  0  0  0  0  0  0  0
  -24.5965  -11.6390   20.7059 C   0  0  0  0  0  0  0  0  0  0  0  0
  -25.2618  -13.7227   20.4808 C   0  0  0  0  0  0  0  0  0  0  0  0
  -30.7645  -21.3238   21.5065 C   0  0  0  0  0  0  0  0  0  0  0  0
  -22.8997  -13.4893   21.2647 C   0  0  0  0  0  0  0  0  0  0  0  0
  -22.4253  -22.8745   22.3260 C   0  0  0  0  0  0  0  0  0  0  0  0
  -20.2871  -25.2745   21.8898 C   0  0  0  0  0  0  0  0  0  0  0  0
  -19.5008  -28.5677   22.3183 C   0  0  0  0  0  0  0  0  0  0  0  0
  -30.7284  -14.7666   20.6518 C   0  0  0  0  0  0  0  0  0  0  0  0
  -22.3879  -17.7708   22.2312 C   0  0  0  0  0  0  0  0  0  0  0  0
  -22.2393  -23.8129   24.6586 C   0  0  0  0  0  0  0  0  0  0  0  0
  -22.5996  -25.9462   22.6426 C   0  0  0  0  0  0  0  0  0  0  0  0
  -21.5569  -18.8807   21.5927 C   0  0  0  0  0  0  0  0  0  0  0  0
  -29.6115  -12.3542   18.2832 C   0  0  0  0  0  0  0  0  0  0  0  0
  -22.4645  -19.9261   20.9522 C   0  0  0  0  0  0  0  0  0  0  0  0
  -28.1721  -12.0629   18.7138 C   0  0  0  0  0  0  0  0  0  0  0  0
  -30.5276  -12.5822   19.4843 C   0  0  0  0  0  0  0  0  0  0  0  0
  -28.6219  -13.3065   20.8674 C   0  0  0  0  0  0  0  0  0  0  0  0
  -23.3633  -20.5930   22.0004 C   0  0  1  0  0  0  0  0  0  0  0  0
  -21.6159  -23.7187   23.2694 C   0  0  1  0  0  0  0  0  0  0  0  0
  -27.6482  -13.1341   19.6902 C   0  0  2  0  0  0  0  0  0  0  0  0
  -30.2782  -28.5645   21.7358 C   0  0  0  0  0  0  0  0  0  0  0  0
  -17.7003  -30.2438   21.8221 C   0  0  0  0  0  0  0  0  0  0  0  0
  -21.2011  -25.3916   18.9810 C   0  0  0  0  0  0  0  0  0  0  0  0
  -20.1055  -27.6355   18.7999 C   0  0  0  0  0  0  0  0  0  0  0  0
  -18.7319  -25.6163   19.3085 C   0  0  0  0  0  0  0  0  0  0  0  0
  -28.5669  -21.6166   20.3214 C   0  0  0  0  0  0  0  0  0  0  0  0
  -19.0439  -29.1010   25.1933 C   0  0  0  0  0  0  0  0  0  0  0  0
  -29.0740  -28.4426   22.6062 C   0  0  0  0  0  0  0  0  0  0  0  0
  -29.1196  -27.4561   24.9025 C   0  0  0  0  0  0  0  0  0  0  0  0
  -27.9175  -26.7381   25.4929 C   0  0  0  0  0  0  0  0  0  1  0  0
  -20.2642  -26.5533   21.0879 C   0  0  1  0  0  0  0  0  0  0  0  0
  -18.2427  -29.2443   22.8319 C   0  0  2  0  0  0  0  0  0  0  0  0
  -20.0956  -26.2943   19.5641 C   0  0  0  0  0  0  0  0  0  0  0  0
  -25.8610  -11.5430   20.2866 N   0  0  0  0  0  0  0  0  0  0  0  0
  -26.2382  -12.8265   20.1586 N   0  0  0  0  0  0  0  0  0  0  0  0
  -21.4490  -25.0277   22.6347 N   0  0  0  0  0  0  0  0  0  0  0  0
  -29.9696  -13.6128   20.3626 N   0  0  0  0  0  0  0  0  0  0  0  0
  -25.4726  -15.0541   20.4083 N   0  0  0  0  0  0  0  0  0  0  0  0
  -21.8878  -12.5803   21.6023 N   0  0  0  0  0  0  0  0  0  0  0  0
  -30.0820  -15.6914   21.4712 N   0  0  0  0  0  0  0  0  0  0  0  0
  -22.6156  -21.5751   22.7560 N   0  0  0  0  0  0  0  0  0  0  0  0
  -19.2163  -27.3831   21.6725 N   0  0  0  0  0  0  0  0  0  0  0  0
  -29.6201  -22.1687   21.2304 N   0  0  0  0  0  0  0  0  0  0  0  0
  -29.1645  -27.2657   23.4709 N   0  0  3  0  0  0  0  0  0  0  0  0
  -18.5260  -29.9678   24.1036 N   0  3  0  0  0  0  0  0  0  0  0  0
  -31.8736  -21.8046   21.7467 O   0  0  0  0  0  0  0  0  0  0  0  0
  -22.6639  -14.7200   21.3228 O   0  0  0  0  0  0  0  0  0  0  0  0
  -22.8448  -23.3652   21.2844 O   0  0  0  0  0  0  0  0  0  0  0  0
  -19.3072  -24.5257   21.8621 O   0  0  0  0  0  0  0  0  0  0  0  0
  -20.6233  -29.0443   22.4712 O   0  0  0  0  0  0  0  0  0  0  0  0
  -31.8572  -14.9352   20.1834 O   0  0  0  0  0  0  0  0  0  0  0  0
  -21.6131   -7.0171   21.7080 O   0  0  0  0  0  0  0  0  0  0  0  0
  -26.7207  -27.2681   24.9244 O   0  0  0  0  0  0  0  0  0  1  0  0
  -18.6256   -6.8572   26.3398 F   0  0  0  0  0  0  0  0  0  0  0  0
  -28.2686  -24.2012   19.9071 F   0  0  0  0  0  0  0  0  0  0  0  0
  -22.0644   -5.0725   23.6204 F   0  0  0  0  0  0  0  0  0  0  0  0
  1  2  1  0  0  0  0
  1  7  2  0  0  0  0
  2  8  2  0  0  0  0
  3 14  2  0  0  0  0
  3 22  1  0  0  0  0
  4 15  1  0  0  0  0
  4 22  2  0  0  0  0
  5 10  2  0  0  0  0
  5 23  1  0  0  0  0
  6 11  1  0  0  0  0
  6 23  2  0  0  0  0
  7 25  1  0  0  0  0
  8 27  1  0  0  0  0
  9 16  2  0  0  0  0
  9 26  1  0  0  0  0
 10 29  1  0  0  0  0
 11 29  2  0  0  0  0
 12 13  2  0  0  0  0
 12 30  1  0  0  0  0
 13 31  1  0  0  0  0
 14 32  1  0  0  0  0
 15 32  2  0  0  0  0
 16 33  1  0  0  0  0
 17 18  2  0  0  0  0
 17 34  1  0  0  0  0
 18 35  1  0  0  0  0
 19 28  1  0  0  0  0
 19 33  2  0  0  0  0
 20 30  2  0  0  0  0
 20 36  1  0  0  0  0
 21 35  2  0  0  0  0
 21 37  1  0  0  0  0
 22 38  1  0  0  0  0
 23 40  1  0  0  0  0
 24 38  1  0  0  0  0
 24 39  2  0  0  0  0
 24 41  1  0  0  0  0
 25 27  2  0  0  0  0
 25 46  1  0  0  0  0
 26 28  2  0  0  0  0
 26 47  1  0  0  0  0
 27 55  1  0  0  0  0
 28 48  1  0  0  0  0
 29 77  1  0  0  0  0
 30 81  1  0  0  0  0
 31 36  2  0  0  0  0
 31 80  1  0  0  0  0
 32 89  1  0  0  0  0
 33 90  1  0  0  0  0
 34 37  2  0  0  0  0
 34 89  1  0  0  0  0
 35 91  1  0  0  0  0
 36 92  1  0  0  0  0
 37 93  1  0  0  0  0
 38 71  2  0  0  0  0
 39 72  1  0  0  0  0
 39 75  1  0  0  0  0
 40 80  1  0  0  0  0
 40 83  2  0  0  0  0
 41 76  1  0  0  0  0
 41 84  2  0  0  0  0
 42 56  1  0  0  0  0
 42 78  1  0  0  0  0
 42 85  2  0  0  0  0
 43 68  1  0  0  0  0
 43 73  1  0  0  0  0
 43 86  2  0  0  0  0
 44 69  1  0  0  0  0
 44 79  1  0  0  0  0
 44 87  2  0  0  0  0
 45 74  1  0  0  0  0
 45 77  1  0  0  0  0
 45 88  2  0  0  0  0
 46 49  1  0  0  0  0
 47 56  1  0  0  0  0
 48 73  1  0  0  0  0
 49 51  1  0  0  0  0
 50 52  1  0  0  0  0
 50 53  1  0  0  0  0
 51 55  1  0  0  0  0
 52 57  1  0  0  0  0
 53 74  1  0  0  0  0
 54 57  1  0  0  0  0
 54 74  1  0  0  0  0
 55 78  1  0  0  0  0
 56 73  1  0  0  0  0
 57 72  1  0  0  0  0
 58 65  1  0  0  0  0
 59 69  1  0  0  0  0
 60 70  1  0  0  0  0
 61 70  1  0  0  0  0
 62 70  1  0  0  0  0
 63 80  1  0  0  0  0
 64 82  1  0  0  0  0
 65 81  1  0  0  0  0
 66 67  1  0  0  0  0
 66 81  1  0  0  0  0
 67 90  1  0  0  0  0
 68 70  1  0  0  0  0
 68 79  1  0  0  0  0
 69 82  1  0  0  0  0
 71 72  1  0  0  0  0
M  CHG  1  82   1
M  ISO  4  45 100  67 101  77 100  90 101
M  END
> <Batch ID>
0015

> <Smiles>
CCN(C[101CH2:1][101O:1]c1ccc2c(c1)CN(C(=O)C(NC(=O)C(C)NC)C(C)(C)C)C(C(=O)NC1CCCc3ccccc31)C2)c1ccc(N(C)C(=O)c2ccc([100NH:0][100C:0](=O)N3CCCC(n4nc(-c5ccc(Oc6ccc(F)cc6F)cc5)c(C(N)=O)c4N)C3)cc2)c(F)c1

> <Shape>
0.262

> <Color>
0.192

> <Negative vol penalty>
0.000

$$$$

  -OEChem-04042320543D

 85 94  0     1  0  0  0  0  0999 V2000
  -16.6367  -30.3162   23.1380 C   0  0  0  0  0  0  0  0  0  0  0  0
  -17.6575  -30.6485   22.2531 C   0  0  0  0  0  0  0  0  0  0  0  0
  -26.8477  -12.8161   20.0542 C   0  0  0  0  0  0  0  0  0  0  0  0
  -26.8828  -13.7834   22.2678 C   0  0  0  0  0  0  0  0  0  0  0  0
  -16.9337  -29.6418   24.3215 C   0  0  0  0  0  0  0  0  0  0  0  0
  -18.9761  -30.3074   22.5518 C   0  0  0  0  0  0  0  0  0  0  0  0
  -25.0984  -28.3714   19.3759 C   0  0  0  0  0  0  0  0  0  0  0  0
  -32.2245  -23.8827   18.6767 C   0  0  0  0  0  0  0  0  0  0  0  0
  -32.3828  -22.5885   19.1721 C   0  0  0  0  0  0  0  0  0  0  0  0
  -26.3454  -11.6267   20.5819 C   0  0  0  0  0  0  0  0  0  0  0  0
  -26.3804  -12.5940   22.7955 C   0  0  0  0  0  0  0  0  0  0  0  0
  -26.4465  -28.7237   19.3306 C   0  0  0  0  0  0  0  0  0  0  0  0
  -23.3633  -10.4341   21.6393 C   0  0  0  0  0  0  0  0  0  0  0  0
  -22.3012   -9.8258   20.9705 C   0  0  0  0  0  0  0  0  0  0  0  0
  -26.8314  -27.4892   21.3670 C   0  0  0  0  0  0  0  0  0  0  0  0
  -30.1482  -24.0947   19.8937 C   0  0  0  0  0  0  0  0  0  0  0  0
  -23.6482   -7.8495   20.6289 C   0  0  0  0  0  0  0  0  0  0  0  0
  -27.1165  -13.8945   20.8971 C   0  0  0  0  0  0  0  0  0  0  0  0
  -26.8960  -16.2249   19.8832 C   0  0  0  0  0  0  0  0  0  0  0  0
  -18.2555  -29.2838   24.6304 C   0  0  0  0  0  0  0  0  0  0  0  0
  -24.6036  -27.5830   20.4248 C   0  0  0  0  0  0  0  0  0  0  0  0
  -19.2913  -29.6288   23.7413 C   0  0  0  0  0  0  0  0  0  0  0  0
  -25.4771  -27.1261   21.4220 C   0  0  0  0  0  0  0  0  0  0  0  0
  -31.1073  -24.6359   19.0375 C   0  0  0  0  0  0  0  0  0  0  0  0
  -31.4237  -22.0473   20.0282 C   0  0  0  0  0  0  0  0  0  0  0  0
  -26.1117  -11.5156   21.9525 C   0  0  0  0  0  0  0  0  0  0  0  0
  -27.3127  -28.2851   20.3278 C   0  0  0  0  0  0  0  0  0  0  0  0
  -24.5680   -9.7502   21.8029 C   0  0  0  0  0  0  0  0  0  0  0  0
  -22.4436   -8.5335   20.4653 C   0  0  0  0  0  0  0  0  0  0  0  0
  -30.3064  -22.8004   20.3890 C   0  0  0  0  0  0  0  0  0  0  0  0
  -24.7104   -8.4578   21.2977 C   0  0  0  0  0  0  0  0  0  0  0  0
  -27.6360  -15.1232   20.3527 C   0  0  0  0  0  0  0  0  0  0  0  0
  -27.8466  -17.1280   19.4744 C   0  0  0  0  0  0  0  0  0  0  0  0
  -25.4761  -16.4150   19.8222 C   0  0  0  0  0  0  0  0  0  0  0  0
  -22.4508  -28.0046   22.7251 C   0  0  0  0  0  0  0  0  0  0  0  0
  -23.0350  -24.8679   23.3102 C   0  0  0  0  0  0  0  0  0  0  0  0
  -25.1773  -22.2235   23.0566 C   0  0  0  0  0  0  0  0  0  0  0  0
  -32.6371  -19.8527   20.2685 C   0  0  0  0  0  0  0  0  0  0  0  0
  -18.5336  -28.5972   25.9441 C   0  0  0  0  0  0  0  0  0  0  0  0
  -23.1520  -27.1894   20.4448 C   0  0  0  0  0  0  0  0  0  0  0  0
  -24.9999  -26.2608   22.5586 C   0  0  0  0  0  0  0  0  0  0  0  0
  -19.9102  -27.9407   26.0089 C   0  0  0  0  0  0  0  0  0  0  0  0
  -32.8408  -16.5955   18.8449 C   0  0  0  0  0  0  0  0  0  0  0  0
  -32.6768  -28.4673   20.3441 C   0  0  0  0  0  0  0  0  0  0  0  0
  -20.9811  -28.8937   25.4877 C   0  0  0  0  0  0  0  0  0  0  0  0
  -31.4440  -16.0128   19.0716 C   0  0  0  0  0  0  0  0  0  0  0  0
  -31.4697  -29.3337   20.0441 C   0  0  0  0  0  0  0  0  0  0  0  0
  -33.2884  -17.4679   20.0164 C   0  0  0  0  0  0  0  0  0  0  0  0
  -30.9490  -17.9448   20.6237 C   0  0  0  0  0  0  0  0  0  0  0  0
  -32.0919  -27.0757   20.4895 C   0  0  0  0  0  0  0  0  0  0  0  0
  -20.7311  -29.2541   24.0183 C   0  0  1  0  0  0  0  0  0  0  0  0
  -22.6549  -26.8103   21.8364 C   0  0  1  0  0  0  0  0  0  0  0  0
  -30.4282  -17.1114   19.4414 C   0  0  2  0  0  0  0  0  0  0  0  0
  -30.6832  -28.4831   19.0578 C   0  0  2  0  0  0  0  0  0  0  0  0
  -25.3921  -19.7974   23.6610 C   0  0  0  0  0  0  0  0  0  0  0  0
  -23.5961  -25.6419   26.2078 C   0  0  0  0  0  0  0  0  0  0  0  0
  -24.7001  -23.4160   26.5155 C   0  0  0  0  0  0  0  0  0  0  0  0
  -22.2788  -23.5346   25.9273 C   0  0  0  0  0  0  0  0  0  0  0  0
  -25.4090  -21.4174   20.2184 C   0  0  0  0  0  0  0  0  0  0  0  0
  -30.9363  -26.0277   18.5040 C   0  0  0  0  0  0  0  0  0  0  0  0
  -29.2071  -28.8303   18.9975 C   0  0  0  0  0  0  0  0  0  1  0  0
  -24.0096  -24.1051   24.1748 C   0  0  1  0  0  0  0  0  0  0  0  0
  -24.9620  -20.7934   22.5953 C   0  0  2  0  0  0  0  0  0  0  0  0
  -23.6551  -24.1923   25.6861 C   0  0  0  0  0  0  0  0  0  0  0  0
  -28.9550  -15.3074   20.2518 N   0  0  0  0  0  0  0  0  0  0  0  0
  -29.0513  -16.5353   19.7142 N   0  0  0  0  0  0  0  0  0  0  0  0
  -23.5706  -25.9080   22.5374 N   0  0  0  0  0  0  0  0  0  0  0  0
  -32.2790  -18.4884   20.3067 N   0  0  0  0  0  0  0  0  0  0  0  0
  -27.7612  -18.3633   18.9367 N   0  0  0  0  0  0  0  0  0  0  0  0
  -24.6439  -15.3862   20.2841 N   0  0  0  0  0  0  0  0  0  0  0  0
  -31.5868  -20.7320   20.5295 N   0  0  0  0  0  0  0  0  0  0  0  0
  -21.1478  -28.1705   23.1542 N   0  0  0  0  0  0  0  0  0  0  0  0
  -24.0458  -22.7455   23.6470 N   0  0  0  0  0  0  0  0  0  0  0  0
  -30.8730  -27.0662   19.5822 N   0  3  1  0  0  0  0  0  0  0  0  0
  -25.7466  -20.5249   21.3570 N   0  3  0  0  0  0  0  0  0  0  0  0
  -24.9606  -17.4593   19.3562 O   0  0  0  0  0  0  0  0  0  0  0  0
  -23.4052  -28.7216   23.0023 O   0  0  0  0  0  0  0  0  0  0  0  0
  -21.8437  -24.5480   23.3149 O   0  0  0  0  0  0  0  0  0  0  0  0
  -26.2438  -22.8168   22.9115 O   0  0  0  0  0  0  0  0  0  0  0  0
  -33.7844  -20.2150   19.9956 O   0  0  0  0  0  0  0  0  0  0  0  0
  -25.6213  -10.3552   22.4678 O   0  0  0  0  0  0  0  0  0  0  0  0
  -28.6290  -28.6281   20.2863 O   0  0  0  0  0  0  0  0  0  1  0  0
  -21.4230   -7.9488   19.8244 F   0  0  0  0  0  0  0  0  0  0  0  0
  -29.3776  -22.2898   21.2100 F   0  0  0  0  0  0  0  0  0  0  0  0
  -25.8648   -7.7953   21.4528 F   0  0  0  0  0  0  0  0  0  0  0  0
  1  2  1  0  0  0  0
  1  5  2  0  0  0  0
  2  6  2  0  0  0  0
  3 10  2  0  0  0  0
  3 18  1  0  0  0  0
  4 11  1  0  0  0  0
  4 18  2  0  0  0  0
  5 20  1  0  0  0  0
  6 22  1  0  0  0  0
  7 12  2  0  0  0  0
  7 21  1  0  0  0  0
  8  9  2  0  0  0  0
  8 24  1  0  0  0  0
  9 25  1  0  0  0  0
 10 26  1  0  0  0  0
 11 26  2  0  0  0  0
 12 27  1  0  0  0  0
 13 14  2  0  0  0  0
 13 28  1  0  0  0  0
 14 29  1  0  0  0  0
 15 23  1  0  0  0  0
 15 27  2  0  0  0  0
 16 24  2  0  0  0  0
 16 30  1  0  0  0  0
 17 29  2  0  0  0  0
 17 31  1  0  0  0  0
 18 32  1  0  0  0  0
 19 32  1  0  0  0  0
 19 33  2  0  0  0  0
 19 34  1  0  0  0  0
 20 22  2  0  0  0  0
 20 39  1  0  0  0  0
 21 23  2  0  0  0  0
 21 40  1  0  0  0  0
 22 51  1  0  0  0  0
 23 41  1  0  0  0  0
 24 60  1  0  0  0  0
 25 30  2  0  0  0  0
 25 71  1  0  0  0  0
 26 81  1  0  0  0  0
 27 82  1  0  0  0  0
 28 31  2  0  0  0  0
 28 81  1  0  0  0  0
 29 83  1  0  0  0  0
 30 84  1  0  0  0  0
 31 85  1  0  0  0  0
 32 65  2  0  0  0  0
 33 66  1  0  0  0  0
 33 69  1  0  0  0  0
 34 70  1  0  0  0  0
 34 76  2  0  0  0  0
 35 52  1  0  0  0  0
 35 72  1  0  0  0  0
 35 77  2  0  0  0  0
 36 62  1  0  0  0  0
 36 67  1  0  0  0  0
 36 78  2  0  0  0  0
 37 63  1  0  0  0  0
 37 73  1  0  0  0  0
 37 79  2  0  0  0  0
 38 68  1  0  0  0  0
 38 71  1  0  0  0  0
 38 80  2  0  0  0  0
 39 42  1  0  0  0  0
 40 52  1  0  0  0  0
 41 67  1  0  0  0  0
 42 45  1  0  0  0  0
 43 46  1  0  0  0  0
 43 48  1  0  0  0  0
 44 47  1  0  0  0  0
 44 50  1  0  0  0  0
 45 51  1  0  0  0  0
 46 53  1  0  0  0  0
 47 54  1  0  0  0  0
 48 68  1  0  0  0  0
 49 53  1  0  0  0  0
 49 68  1  0  0  0  0
 50 74  1  0  0  0  0
 51 72  1  0  0  0  0
 52 67  1  0  0  0  0
 53 66  1  0  0  0  0
 54 61  1  0  0  0  0
 54 74  1  0  0  0  0
 55 63  1  0  0  0  0
 56 64  1  0  0  0  0
 57 64  1  0  0  0  0
 58 64  1  0  0  0  0
 59 75  1  0  0  0  0
 60 74  1  0  0  0  0
 61 82  1  0  0  0  0
 62 64  1  0  0  0  0
 62 73  1  0  0  0  0
 63 75  1  0  0  0  0
 65 66  1  0  0  0  0
M  CHG  2  74   1  75   1
M  ISO  4  38 100  61 101  71 100  82 101
M  END
> <Batch ID>
0015

> <Smiles>
CNC(C)C(=O)NC(C(=O)N1Cc2cc([101O:1][101CH2:1]C3CCCN3Cc3ccc([100NH:0][100C:0](=O)N4CCCC(n5nc(-c6ccc(Oc7ccc(F)cc7F)cc6)c(C(N)=O)c5N)C4)c(F)c3)ccc2CC1C(=O)NC1CCCc2ccccc21)C(C)(C)C

> <Shape>
0.219

> <Color>
0.078

> <Negative vol penalty>
0.000

$$$$

  -OEChem-04042320543D

 84 93  0     1  0  0  0  0  0999 V2000
  -32.3143  -33.1731   22.2675 C   0  0  0  0  0  0  0  0  0  0  0  0
  -31.6715  -31.9923   21.9099 C   0  0  0  0  0  0  0  0  0  0  0  0
  -23.1639   -9.8977   20.6055 C   0  0  0  0  0  0  0  0  0  0  0  0
  -24.5361   -8.7677   22.2418 C   0  0  0  0  0  0  0  0  0  0  0  0
  -31.7756  -33.9841   23.2655 C   0  0  0  0  0  0  0  0  0  0  0  0
  -30.4900  -31.6213   22.5509 C   0  0  0  0  0  0  0  0  0  0  0  0
  -26.9528  -29.9918   19.3139 C   0  0  0  0  0  0  0  0  0  0  0  0
  -29.5997  -18.3454   18.4751 C   0  0  0  0  0  0  0  0  0  0  0  0
  -29.5920  -19.7406   18.3870 C   0  0  0  0  0  0  0  0  0  0  0  0
  -22.3106   -8.7953   20.5598 C   0  0  0  0  0  0  0  0  0  0  0  0
  -23.6826   -7.6653   22.1962 C   0  0  0  0  0  0  0  0  0  0  0  0
  -27.0869  -28.6931   18.8250 C   0  0  0  0  0  0  0  0  0  0  0  0
  -20.6723   -6.7939   23.4607 C   0  0  0  0  0  0  0  0  0  0  0  0
  -20.2911   -6.2206   24.6738 C   0  0  0  0  0  0  0  0  0  0  0  0
  -27.5779  -19.6899   17.0308 C   0  0  0  0  0  0  0  0  0  0  0  0
  -25.4493  -27.9288   20.4229 C   0  0  0  0  0  0  0  0  0  0  0  0
  -21.2831   -4.1248   23.9951 C   0  0  0  0  0  0  0  0  0  0  0  0
  -24.2767   -9.8839   21.4465 C   0  0  0  0  0  0  0  0  0  0  0  0
  -25.0618  -12.1382   22.3461 C   0  0  0  0  0  0  0  0  0  0  0  0
  -30.5817  -33.6277   23.9123 C   0  0  0  0  0  0  0  0  0  0  0  0
  -26.0724  -30.2674   20.3701 C   0  0  0  0  0  0  0  0  0  0  0  0
  -29.9355  -32.4276   23.5594 C   0  0  0  0  0  0  0  0  0  0  0  0
  -27.5884  -18.3074   17.1295 C   0  0  0  0  0  0  0  0  0  0  0  0
  -25.3039  -29.2324   20.9217 C   0  0  0  0  0  0  0  0  0  0  0  0
  -28.5882  -17.6402   17.8396 C   0  0  0  0  0  0  0  0  0  0  0  0
  -28.5884  -20.4084   17.6704 C   0  0  0  0  0  0  0  0  0  0  0  0
  -22.5699   -7.6791   21.3552 C   0  0  0  0  0  0  0  0  0  0  0  0
  -26.3373  -27.6608   19.3814 C   0  0  0  0  0  0  0  0  0  0  0  0
  -21.3588   -6.0326   22.5147 C   0  0  0  0  0  0  0  0  0  0  0  0
  -20.5966   -4.8861   24.9410 C   0  0  0  0  0  0  0  0  0  0  0  0
  -21.6642   -4.6981   22.7819 C   0  0  0  0  0  0  0  0  0  0  0  0
  -25.1590  -11.0221   21.4937 C   0  0  0  0  0  0  0  0  0  0  0  0
  -26.1293  -12.9295   21.9987 C   0  0  0  0  0  0  0  0  0  0  0  0
  -24.0933  -12.4332   23.3613 C   0  0  0  0  0  0  0  0  0  0  0  0
  -26.3973  -31.3885   23.3266 C   0  0  0  0  0  0  0  0  0  0  0  0
  -23.1542  -31.3337   23.2863 C   0  0  0  0  0  0  0  0  0  0  0  0
  -20.2950  -30.0210   21.9640 C   0  0  0  0  0  0  0  0  0  0  0  0
  -29.3373  -15.2852   18.1060 C   0  0  0  0  0  0  0  0  0  0  0  0
  -30.0629  -34.5126   25.0180 C   0  0  0  0  0  0  0  0  0  0  0  0
  -25.9195  -31.6784   20.8682 C   0  0  0  0  0  0  0  0  0  0  0  0
  -26.6502  -17.3452   16.4754 C   0  0  0  0  0  0  0  0  0  0  0  0
  -24.3297  -29.4793   22.0435 C   0  0  0  0  0  0  0  0  0  0  0  0
  -28.6078  -34.2361   25.3874 C   0  0  0  0  0  0  0  0  0  0  0  0
  -30.1367  -11.9898   19.0896 C   0  0  0  0  0  0  0  0  0  0  0  0
  -28.3700  -32.7365   25.5342 C   0  0  0  0  0  0  0  0  0  0  0  0
  -28.8984  -11.5148   19.8452 C   0  0  0  0  0  0  0  0  0  0  0  0
  -27.0676  -16.0180   17.1216 C   0  0  0  0  0  0  0  0  0  0  0  0
  -29.7441  -12.8522   17.8978 C   0  0  0  0  0  0  0  0  0  0  0  0
  -27.6830  -13.6110   19.0541 C   0  0  0  0  0  0  0  0  0  0  0  0
  -28.6388  -32.0035   24.2143 C   0  0  1  0  0  0  0  0  0  0  0  0
  -25.3725  -31.7540   22.2903 C   0  0  1  0  0  0  0  0  0  0  0  0
  -28.0246  -12.7093   20.2583 C   0  0  1  0  0  0  0  0  0  0  0  0
  -17.7962  -30.1458   22.1590 C   0  0  0  0  0  0  0  0  0  0  0  0
  -23.2748  -29.6885   25.8532 C   0  0  0  0  0  0  0  0  0  0  0  0
  -20.8830  -29.0524   25.4754 C   0  0  0  0  0  0  0  0  0  0  0  0
  -21.4953  -31.4455   25.8228 C   0  0  0  0  0  0  0  0  0  0  0  0
  -20.0052  -30.9254   19.1609 C   0  0  0  0  0  0  0  0  0  0  0  0
  -29.3344  -24.1045   18.0109 C   0  0  0  0  0  0  0  0  0  0  0  0
  -27.9694  -24.5302   18.5536 C   0  0  0  0  0  0  0  0  0  0  0  0
  -29.6106  -22.6176   18.2185 C   0  0  0  0  0  0  0  0  0  0  0  0
  -27.7355  -26.0244   18.3700 C   0  0  0  0  0  0  0  0  0  1  0  0
  -22.0976  -30.3159   23.6426 C   0  0  1  0  0  0  0  0  0  0  0  0
  -19.0291  -30.6803   21.4469 C   0  0  2  0  0  0  0  0  0  0  0  0
  -21.9574  -30.1203   25.1787 C   0  0  0  0  0  0  0  0  0  0  0  0
  -26.2054  -11.0943   20.6668 N   0  0  0  0  0  0  0  0  0  0  0  0
  -26.7756  -12.2654   20.9980 N   0  0  0  0  0  0  0  0  0  0  0  0
  -28.3717  -16.2443   17.7927 N   0  0  0  0  0  0  0  0  0  0  0  0
  -24.2206  -30.8746   22.5003 N   0  0  0  0  0  0  0  0  0  0  0  0
  -28.8870  -13.9702   18.2948 N   0  0  0  0  0  0  0  0  0  0  0  0
  -26.5688  -14.1218   22.4545 N   0  0  0  0  0  0  0  0  0  0  0  0
  -23.0620  -11.5118   23.5888 N   0  0  0  0  0  0  0  0  0  0  0  0
  -28.6046  -21.8178   17.5926 N   0  0  0  0  0  0  0  0  0  0  0  0
  -27.5290  -32.1810   23.3025 N   0  0  0  0  0  0  0  0  0  0  0  0
  -20.8722  -30.7511   22.9813 N   0  0  0  0  0  0  0  0  0  0  0  0
  -18.8739  -30.4293   19.9862 N   0  3  0  0  0  0  0  0  0  0  0  0
  -24.1316  -13.4905   24.0352 O   0  0  0  0  0  0  0  0  0  0  0  0
  -26.1768  -30.4576   24.0924 O   0  0  0  0  0  0  0  0  0  0  0  0
  -23.0339  -32.4949   23.6846 O   0  0  0  0  0  0  0  0  0  0  0  0
  -20.7264  -28.9621   21.5132 O   0  0  0  0  0  0  0  0  0  0  0  0
  -30.5448  -15.5512   18.1493 O   0  0  0  0  0  0  0  0  0  0  0  0
  -21.7372   -6.6034   21.3111 O   0  0  0  0  0  0  0  0  0  0  0  0
  -26.4677  -26.3830   18.9031 O   0  0  0  0  0  0  0  0  0  1  0  0
  -20.2318   -4.3362   26.1067 F   0  0  0  0  0  0  0  0  0  0  0  0
  -22.3246   -3.9620   21.8775 F   0  0  0  0  0  0  0  0  0  0  0  0
  1  2  1  0  0  0  0
  1  5  2  0  0  0  0
  2  6  2  0  0  0  0
  3 10  2  0  0  0  0
  3 18  1  0  0  0  0
  4 11  1  0  0  0  0
  4 18  2  0  0  0  0
  5 20  1  0  0  0  0
  6 22  1  0  0  0  0
  7 12  2  0  0  0  0
  7 21  1  0  0  0  0
  8  9  2  0  0  0  0
  8 25  1  0  0  0  0
  9 26  1  0  0  0  0
 10 27  1  0  0  0  0
 11 27  2  0  0  0  0
 12 28  1  0  0  0  0
 13 14  2  0  0  0  0
 13 29  1  0  0  0  0
 14 30  1  0  0  0  0
 15 23  1  0  0  0  0
 15 26  2  0  0  0  0
 16 24  1  0  0  0  0
 16 28  2  0  0  0  0
 17 30  2  0  0  0  0
 17 31  1  0  0  0  0
 18 32  1  0  0  0  0
 19 32  1  0  0  0  0
 19 33  2  0  0  0  0
 19 34  1  0  0  0  0
 20 22  2  0  0  0  0
 20 39  1  0  0  0  0
 21 24  2  0  0  0  0
 21 40  1  0  0  0  0
 22 50  1  0  0  0  0
 23 25  2  0  0  0  0
 23 41  1  0  0  0  0
 24 42  1  0  0  0  0
 25 67  1  0  0  0  0
 26 72  1  0  0  0  0
 27 81  1  0  0  0  0
 28 82  1  0  0  0  0
 29 31  2  0  0  0  0
 29 81  1  0  0  0  0
 30 83  1  0  0  0  0
 31 84  1  0  0  0  0
 32 65  2  0  0  0  0
 33 66  1  0  0  0  0
 33 70  1  0  0  0  0
 34 71  1  0  0  0  0
 34 76  2  0  0  0  0
 35 51  1  0  0  0  0
 35 73  1  0  0  0  0
 35 77  2  0  0  0  0
 36 62  1  0  0  0  0
 36 68  1  0  0  0  0
 36 78  2  0  0  0  0
 37 63  1  0  0  0  0
 37 74  1  0  0  0  0
 37 79  2  0  0  0  0
 38 67  1  0  0  0  0
 38 69  1  0  0  0  0
 38 80  2  0  0  0  0
 39 43  1  0  0  0  0
 40 51  1  0  0  0  0
 41 47  1  0  0  0  0
 42 68  1  0  0  0  0
 43 45  1  0  0  0  0
 44 46  1  0  0  0  0
 44 48  1  0  0  0  0
 45 50  1  0  0  0  0
 46 52  1  0  0  0  0
 47 67  1  0  0  0  0
 48 69  1  0  0  0  0
 49 52  1  0  0  0  0
 49 69  1  0  0  0  0
 50 73  1  0  0  0  0
 51 68  1  0  0  0  0
 52 66  1  0  0  0  0
 53 63  1  0  0  0  0
 54 64  1  0  0  0  0
 55 64  1  0  0  0  0
 56 64  1  0  0  0  0
 57 75  1  0  0  0  0
 58 59  1  0  0  0  0
 58 60  1  0  0  0  0
 59 61  1  0  0  0  0
 60 72  1  0  0  0  0
 61 82  1  0  0  0  0
 62 64  1  0  0  0  0
 62 74  1  0  0  0  0
 63 75  1  0  0  0  0
 65 66  1  0  0  0  0
M  CHG  1  75   1
M  ISO  4  38 100  61 101  67 100  82 101
M  END
> <Batch ID>
0015

> <Smiles>
CNC(C)C(=O)NC(C(=O)N1Cc2cc([101O:1][101CH2:1]CCCNc3ccc4c(c3)CC[100N:0]4[100C:0](=O)N3CCCC(n4nc(-c5ccc(Oc6ccc(F)cc6F)cc5)c(C(N)=O)c4N)C3)ccc2CC1C(=O)NC1CCCc2ccccc21)C(C)(C)C

> <Shape>
0.282

> <Color>
0.115

> <Negative vol penalty>
0.000

$$$$

  -OEChem-04042320543D

 85 93  0     1  0  0  0  0  0999 V2000
  -27.9491  -28.5604   27.0567 C   0  0  0  0  0  0  0  0  0  0  0  0
  -28.1288  -27.8120   25.8977 C   0  0  0  0  0  0  0  0  0  0  0  0
  -23.1114   -9.8480   20.1574 C   0  0  0  0  0  0  0  0  0  0  0  0
  -23.9540  -10.0604   22.4117 C   0  0  0  0  0  0  0  0  0  0  0  0
  -26.7143  -28.5550   27.7041 C   0  0  0  0  0  0  0  0  0  0  0  0
  -27.0741  -27.0570   25.3861 C   0  0  0  0  0  0  0  0  0  0  0  0
  -26.5851  -27.5512   20.3700 C   0  0  0  0  0  0  0  0  0  0  0  0
  -29.7164  -17.6697   19.0729 C   0  0  0  0  0  0  0  0  0  0  0  0
  -29.2566  -18.9028   21.0990 C   0  0  0  0  0  0  0  0  0  0  0  0
  -29.9922  -18.8646   18.4082 C   0  0  0  0  0  0  0  0  0  0  0  0
  -29.5325  -20.0977   20.4343 C   0  0  0  0  0  0  0  0  0  0  0  0
  -22.4067   -8.7029   20.5286 C   0  0  0  0  0  0  0  0  0  0  0  0
  -23.2493   -8.9153   22.7830 C   0  0  0  0  0  0  0  0  0  0  0  0
  -27.4754  -26.8363   19.5700 C   0  0  0  0  0  0  0  0  0  0  0  0
  -20.0667   -8.0976   23.5720 C   0  0  0  0  0  0  0  0  0  0  0  0
  -19.3542   -8.1371   24.7705 C   0  0  0  0  0  0  0  0  0  0  0  0
  -25.7834  -25.1577   19.1975 C   0  0  0  0  0  0  0  0  0  0  0  0
  -20.6706   -6.2950   25.6137 C   0  0  0  0  0  0  0  0  0  0  0  0
  -23.8851  -10.5267   21.0989 C   0  0  0  0  0  0  0  0  0  0  0  0
  -24.1578  -13.0405   20.7610 C   0  0  0  0  0  0  0  0  0  0  0  0
  -25.6410  -27.8071   27.1947 C   0  0  0  0  0  0  0  0  0  0  0  0
  -25.2886  -27.0684   20.5990 C   0  0  0  0  0  0  0  0  0  0  0  0
  -25.8241  -27.0405   26.0280 C   0  0  0  0  0  0  0  0  0  0  0  0
  -24.8778  -25.8696   19.9988 C   0  0  0  0  0  0  0  0  0  0  0  0
  -29.3486  -17.6888   20.4183 C   0  0  0  0  0  0  0  0  0  0  0  0
  -29.9003  -20.0786   19.0889 C   0  0  0  0  0  0  0  0  0  0  0  0
  -22.4757   -8.2366   21.8414 C   0  0  0  0  0  0  0  0  0  0  0  0
  -27.0756  -25.6379   18.9859 C   0  0  0  0  0  0  0  0  0  0  0  0
  -21.0811   -7.1568   23.3943 C   0  0  0  0  0  0  0  0  0  0  0  0
  -19.6562   -7.2358   25.7913 C   0  0  0  0  0  0  0  0  0  0  0  0
  -21.3830   -6.2555   24.4151 C   0  0  0  0  0  0  0  0  0  0  0  0
  -24.6136  -11.7093   20.7158 C   0  0  0  0  0  0  0  0  0  0  0  0
  -25.2166  -13.7819   20.2963 C   0  0  0  0  0  0  0  0  0  0  0  0
  -22.8908  -13.5604   21.1851 C   0  0  0  0  0  0  0  0  0  0  0  0
  -23.6561  -26.1566   23.1695 C   0  0  0  0  0  0  0  0  0  0  0  0
  -21.2032  -25.9469   21.0572 C   0  0  0  0  0  0  0  0  0  0  0  0
  -29.5510  -22.5264   18.7690 C   0  0  0  0  0  0  0  0  0  0  0  0
  -20.1918  -25.5560   17.8213 C   0  0  0  0  0  0  0  0  0  0  0  0
  -30.8214  -14.6685   20.6384 C   0  0  0  0  0  0  0  0  0  0  0  0
  -24.3388  -27.7951   27.9556 C   0  0  0  0  0  0  0  0  0  0  0  0
  -24.3315  -27.8649   21.4428 C   0  0  0  0  0  0  0  0  0  0  0  0
  -23.4902  -25.3184   20.1969 C   0  0  0  0  0  0  0  0  0  0  0  0
  -23.1620  -27.2649   27.1405 C   0  0  0  0  0  0  0  0  0  0  0  0
  -29.5120  -12.3710   18.0482 C   0  0  0  0  0  0  0  0  0  0  0  0
  -23.5503  -25.9800   26.4160 C   0  0  0  0  0  0  0  0  0  0  0  0
  -28.1088  -12.0541   18.5627 C   0  0  0  0  0  0  0  0  0  0  0  0
  -30.4719  -12.7033   19.1866 C   0  0  0  0  0  0  0  0  0  0  0  0
  -28.5911  -13.4783   20.5924 C   0  0  0  0  0  0  0  0  0  0  0  0
  -24.6968  -26.2283   25.4284 C   0  0  1  0  0  0  0  0  0  0  0  0
  -23.2033  -27.0197   22.0260 C   0  0  1  0  0  0  0  0  0  0  0  0
  -27.5877  -13.1845   19.4670 C   0  0  2  0  0  0  0  0  0  0  0  0
  -18.1232  -25.3873   16.4107 C   0  0  0  0  0  0  0  0  0  0  0  0
  -20.7808  -23.0837   22.0233 C   0  0  0  0  0  0  0  0  0  0  0  0
  -19.3916  -22.6736   19.9812 C   0  0  0  0  0  0  0  0  0  0  0  0
  -18.6751  -24.3810   21.6528 C   0  0  0  0  0  0  0  0  0  0  0  0
  -31.2430  -21.2725   17.3751 C   0  0  0  0  0  0  0  0  0  0  0  0
  -31.0574  -16.2043   22.5528 C   0  0  0  0  0  0  0  0  0  0  0  0
  -20.9128  -27.9708   16.2697 C   0  0  0  0  0  0  0  0  0  0  0  0
  -29.0537  -16.4112   21.1288 C   0  0  0  0  0  0  0  0  0  0  0  0
  -30.0571  -23.7882   18.0694 C   0  0  0  0  0  0  0  0  0  0  0  0
  -29.3316  -25.0536   18.5119 C   0  0  0  0  0  0  0  0  0  1  0  0
  -20.6561  -24.8646   20.1582 C   0  0  1  0  0  0  0  0  0  0  0  0
  -19.1814  -26.3178   16.9828 C   0  0  2  0  0  0  0  0  0  0  0  0
  -19.9027  -23.7599   20.9515 C   0  0  0  0  0  0  0  0  0  0  0  0
  -25.8644  -11.6078   20.2584 N   0  0  0  0  0  0  0  0  0  0  0  0
  -26.2036  -12.8846   20.0118 N   0  0  0  0  0  0  0  0  0  0  0  0
  -22.5931  -26.1305   21.0354 N   0  0  0  0  0  0  0  0  0  0  0  0
  -29.9328  -13.7503   20.0552 N   0  0  0  0  0  0  0  0  0  0  0  0
  -25.3902  -15.1072   20.1073 N   0  0  0  0  0  0  0  0  0  0  0  0
  -21.9153  -12.6596   21.6338 N   0  0  0  0  0  0  0  0  0  0  0  0
  -24.1998  -26.8621   24.2260 N   0  0  0  0  0  0  0  0  0  0  0  0
  -19.8411  -25.5408   19.1548 N   0  0  0  0  0  0  0  0  0  0  0  0
  -30.1871  -21.3202   18.3987 N   0  0  0  0  0  0  0  0  0  0  0  0
  -30.2665  -15.6646   21.4560 N   0  0  0  0  0  0  0  0  0  0  0  0
  -19.8626  -27.0072   15.8507 N   0  3  0  0  0  0  0  0  0  0  0  0
  -22.6255  -14.7860   21.1513 O   0  0  0  0  0  0  0  0  0  0  0  0
  -23.5209  -24.9406   23.0992 O   0  0  0  0  0  0  0  0  0  0  0  0
  -20.4254  -26.6100   21.7478 O   0  0  0  0  0  0  0  0  0  0  0  0
  -28.6623  -22.6213   19.6191 O   0  0  0  0  0  0  0  0  0  0  0  0
  -21.1902  -25.0241   17.3410 O   0  0  0  0  0  0  0  0  0  0  0  0
  -32.0402  -14.6074   20.4319 O   0  0  0  0  0  0  0  0  0  0  0  0
  -21.7880   -7.1194   22.2041 O   0  0  0  0  0  0  0  0  0  0  0  0
  -27.9428  -24.9379   18.2051 O   0  0  0  0  0  0  0  0  0  1  0  0
  -18.9729   -7.2748   26.9428 F   0  0  0  0  0  0  0  0  0  0  0  0
  -22.3573   -5.3502   24.2507 F   0  0  0  0  0  0  0  0  0  0  0  0
  1  2  1  0  0  0  0
  1  5  2  0  0  0  0
  2  6  2  0  0  0  0
  3 12  2  0  0  0  0
  3 19  1  0  0  0  0
  4 13  1  0  0  0  0
  4 19  2  0  0  0  0
  5 21  1  0  0  0  0
  6 23  1  0  0  0  0
  7 14  2  0  0  0  0
  7 22  1  0  0  0  0
  8 10  2  0  0  0  0
  8 25  1  0  0  0  0
  9 11  1  0  0  0  0
  9 25  2  0  0  0  0
 10 26  1  0  0  0  0
 11 26  2  0  0  0  0
 12 27  1  0  0  0  0
 13 27  2  0  0  0  0
 14 28  1  0  0  0  0
 15 16  2  0  0  0  0
 15 29  1  0  0  0  0
 16 30  1  0  0  0  0
 17 24  1  0  0  0  0
 17 28  2  0  0  0  0
 18 30  2  0  0  0  0
 18 31  1  0  0  0  0
 19 32  1  0  0  0  0
 20 32  1  0  0  0  0
 20 33  2  0  0  0  0
 20 34  1  0  0  0  0
 21 23  2  0  0  0  0
 21 40  1  0  0  0  0
 22 24  2  0  0  0  0
 22 41  1  0  0  0  0
 23 49  1  0  0  0  0
 24 42  1  0  0  0  0
 25 59  1  0  0  0  0
 26 73  1  0  0  0  0
 27 82  1  0  0  0  0
 28 83  1  0  0  0  0
 29 31  2  0  0  0  0
 29 82  1  0  0  0  0
 30 84  1  0  0  0  0
 31 85  1  0  0  0  0
 32 65  2  0  0  0  0
 33 66  1  0  0  0  0
 33 69  1  0  0  0  0
 34 70  1  0  0  0  0
 34 76  2  0  0  0  0
 35 50  1  0  0  0  0
 35 71  1  0  0  0  0
 35 77  2  0  0  0  0
 36 62  1  0  0  0  0
 36 67  1  0  0  0  0
 36 78  2  0  0  0  0
 37 60  1  0  0  0  0
 37 73  1  0  0  0  0
 37 79  2  0  0  0  0
 38 63  1  0  0  0  0
 38 72  1  0  0  0  0
 38 80  2  0  0  0  0
 39 68  1  0  0  0  0
 39 74  1  0  0  0  0
 39 81  2  0  0  0  0
 40 43  1  0  0  0  0
 41 50  1  0  0  0  0
 42 67  1  0  0  0  0
 43 45  1  0  0  0  0
 44 46  1  0  0  0  0
 44 47  1  0  0  0  0
 45 49  1  0  0  0  0
 46 51  1  0  0  0  0
 47 68  1  0  0  0  0
 48 51  1  0  0  0  0
 48 68  1  0  0  0  0
 49 71  1  0  0  0  0
 50 67  1  0  0  0  0
 51 66  1  0  0  0  0
 52 63  1  0  0  0  0
 53 64  1  0  0  0  0
 54 64  1  0  0  0  0
 55 64  1  0  0  0  0
 56 73  1  0  0  0  0
 57 74  1  0  0  0  0
 58 75  1  0  0  0  0
 59 74  1  0  0  0  0
 60 61  1  0  0  0  0
 61 83  1  0  0  0  0
 62 64  1  0  0  0  0
 62 72  1  0  0  0  0
 63 75  1  0  0  0  0
 65 66  1  0  0  0  0
M  CHG  1  75   1
M  ISO  4  39 100  61 101  74 100  83 101
M  END
> <Batch ID>
0015

> <Smiles>
CNC(C)C(=O)NC(C(=O)N1Cc2cc([101O:1][101CH2:1]CC(=O)N(C)c3ccc(C[100N:0](C)[100C:0](=O)N4CCCC(n5nc(-c6ccc(Oc7ccc(F)cc7F)cc6)c(C(N)=O)c5N)C4)cc3)ccc2CC1C(=O)NC1CCCc2ccccc21)C(C)(C)C

> <Shape>
0.279

> <Color>
0.195

> <Negative vol penalty>
0.000

$$$$

  -OEChem-04042320543D

 86 94  0     1  0  0  0  0  0999 V2000
  -28.5876  -18.9909   20.1675 C   0  0  0  0  0  0  0  0  0  0  0  0
  -28.1258  -20.1893   20.7024 C   0  0  0  0  0  0  0  0  0  0  0  0
  -25.7227  -15.3903   20.1753 C   0  0  0  0  0  0  0  0  0  0  0  0
  -26.5753  -16.1813   22.2930 C   0  0  0  0  0  0  0  0  0  0  0  0
  -29.7773  -18.9657   19.4411 C   0  0  0  0  0  0  0  0  0  0  0  0
  -28.8541  -21.3631   20.5119 C   0  0  0  0  0  0  0  0  0  0  0  0
  -25.9201  -25.2810   19.2133 C   0  0  0  0  0  0  0  0  0  0  0  0
  -19.9246  -27.7320   24.0934 C   0  0  0  0  0  0  0  0  0  0  0  0
  -19.8327  -26.5229   24.7828 C   0  0  0  0  0  0  0  0  0  0  0  0
  -26.9359  -14.7487   19.9265 C   0  0  0  0  0  0  0  0  0  0  0  0
  -27.7885  -15.5396   22.0442 C   0  0  0  0  0  0  0  0  0  0  0  0
  -25.1994  -25.9021   20.2324 C   0  0  0  0  0  0  0  0  0  0  0  0
  -28.4875  -11.8989   20.8773 C   0  0  0  0  0  0  0  0  0  0  0  0
  -28.4420  -10.5933   20.3887 C   0  0  0  0  0  0  0  0  0  0  0  0
  -26.8571  -27.6520   20.3299 C   0  0  0  0  0  0  0  0  0  0  0  0
  -19.9401  -26.5345   21.9951 C   0  0  0  0  0  0  0  0  0  0  0  0
  -29.6370  -11.2926   18.4088 C   0  0  0  0  0  0  0  0  0  0  0  0
  -25.5423  -16.1067   21.3586 C   0  0  0  0  0  0  0  0  0  0  0  0
  -23.0167  -16.1763   21.7104 C   0  0  0  0  0  0  0  0  0  0  0  0
  -30.5156  -20.1414   19.2334 C   0  0  0  0  0  0  0  0  0  0  0  0
  -27.1223  -25.8359   18.7515 C   0  0  0  0  0  0  0  0  0  0  0  0
  -30.0555  -21.3533   19.7831 C   0  0  0  0  0  0  0  0  0  0  0  0
  -27.5898  -27.0373   19.3030 C   0  0  0  0  0  0  0  0  0  0  0  0
  -19.9782  -27.7378   22.6996 C   0  0  0  0  0  0  0  0  0  0  0  0
  -19.7946  -25.3196   24.0784 C   0  0  0  0  0  0  0  0  0  0  0  0
  -27.9688  -14.8233   20.8609 C   0  0  0  0  0  0  0  0  0  0  0  0
  -25.6694  -27.0862   20.7929 C   0  0  0  0  0  0  0  0  0  0  0  0
  -29.1077  -12.9015   20.1317 C   0  0  0  0  0  0  0  0  0  0  0  0
  -29.0168  -10.2901   19.1545 C   0  0  0  0  0  0  0  0  0  0  0  0
  -19.8483  -25.3254   22.6845 C   0  0  0  0  0  0  0  0  0  0  0  0
  -29.6825  -12.5983   18.8975 C   0  0  0  0  0  0  0  0  0  0  0  0
  -24.2895  -16.7702   21.6159 C   0  0  0  0  0  0  0  0  0  0  0  0
  -22.1665  -17.2248   21.9640 C   0  0  0  0  0  0  0  0  0  0  0  0
  -22.6368  -14.7999   21.5806 C   0  0  0  0  0  0  0  0  0  0  0  0
  -30.1517  -24.8766   18.6739 C   0  0  0  0  0  0  0  0  0  0  0  0
  -30.5641  -27.6034   16.9661 C   0  0  0  0  0  0  0  0  0  0  0  0
  -29.4545  -30.7388   16.2015 C   0  0  0  0  0  0  0  0  0  0  0  0
  -21.0237  -22.0056   24.3425 C   0  0  0  0  0  0  0  0  0  0  0  0
  -31.8203  -20.0561   18.4815 C   0  0  0  0  0  0  0  0  0  0  0  0
  -27.8741  -25.1678   17.6331 C   0  0  0  0  0  0  0  0  0  0  0  0
  -28.8643  -27.6846   18.8288 C   0  0  0  0  0  0  0  0  0  0  0  0
  -32.3392  -21.4109   18.0065 C   0  0  0  0  0  0  0  0  0  0  0  0
  -24.2361  -21.6448   22.4321 C   0  0  0  0  0  0  0  0  0  0  0  0
  -32.2562  -22.4384   19.1308 C   0  0  0  0  0  0  0  0  0  0  0  0
  -23.3582  -20.8139   21.4961 C   0  0  0  0  0  0  0  0  0  0  0  0
  -23.4131  -22.3236   23.5329 C   0  0  0  0  0  0  0  0  0  0  0  0
  -22.4374  -20.0628   23.7622 C   0  0  0  0  0  0  0  0  0  0  0  0
  -30.8047  -22.6519   19.5770 C   0  0  1  0  0  0  0  0  0  0  0  0
  -29.3509  -25.5485   17.5947 C   0  0  1  0  0  0  0  0  0  0  0  0
  -22.5039  -19.7696   22.2531 C   0  0  2  0  0  0  0  0  0  0  0  0
  -30.0215  -32.7419   14.8002 C   0  0  0  0  0  0  0  0  0  0  0  0
  -32.7633  -28.3596   18.9413 C   0  0  0  0  0  0  0  0  0  0  0  0
  -32.6250  -30.7094   18.0885 C   0  0  0  0  0  0  0  0  0  0  0  0
  -33.2913  -28.8630   16.5492 C   0  0  0  0  0  0  0  0  0  0  0  0
  -22.0257  -23.9459   25.6267 C   0  0  0  0  0  0  0  0  0  0  0  0
  -26.9207  -30.5400   14.6850 C   0  0  0  0  0  0  0  0  0  0  0  0
  -21.1010  -31.3053   22.0734 C   0  0  0  0  0  0  0  0  0  0  0  0
  -19.6976  -24.0282   24.8182 C   0  0  0  0  0  0  0  0  0  0  0  0
  -20.0773  -29.0383   21.9581 C   0  0  0  0  0  0  0  0  0  0  0  0
  -23.7711  -29.6581   22.4688 C   0  0  0  0  0  0  0  0  0  0  0  0
  -22.5337  -29.3119   21.6543 C   0  0  0  0  0  0  0  0  0  0  0  0
  -25.0661  -29.1151   21.8772 C   0  0  0  0  0  0  0  0  0  1  0  0
  -30.8852  -29.0390   17.3052 C   0  0  1  0  0  0  0  0  0  0  0  0
  -29.2449  -31.4362   14.8695 C   0  0  2  0  0  0  0  0  0  0  0  0
  -32.3681  -29.2298   17.7315 C   0  0  0  0  0  0  0  0  0  0  0  0
  -24.2556  -18.0935   21.7948 N   0  0  0  0  0  0  0  0  0  0  0  0
  -22.9512  -18.3397   22.0041 N   0  0  0  0  0  0  0  0  0  0  0  0
  -29.5669  -26.9898   17.7373 N   0  0  0  0  0  0  0  0  0  0  0  0
  -22.2866  -21.4984   23.9930 N   0  0  0  0  0  0  0  0  0  0  0  0
  -20.8317  -17.2927   22.1542 N   0  0  0  0  0  0  0  0  0  0  0  0
  -22.6241  -13.9990   22.7307 N   0  0  0  0  0  0  0  0  0  0  0  0
  -30.1047  -23.4961   18.6327 N   0  0  0  0  0  0  0  0  0  0  0  0
  -30.4904  -29.8305   16.1450 N   0  0  0  0  0  0  0  0  0  0  0  0
  -20.9653  -23.3116   24.8498 N   0  0  0  0  0  0  0  0  0  0  0  0
  -27.7998  -31.7374   14.6642 N   0  3  0  0  0  0  0  0  0  0  0  0
  -21.3126  -29.8300   22.3146 N   0  3  1  0  0  0  0  0  0  0  0  0
  -22.3340  -14.2910   20.4747 O   0  0  0  0  0  0  0  0  0  0  0  0
  -30.7680  -25.5599   19.4833 O   0  0  0  0  0  0  0  0  0  0  0  0
  -31.1706  -27.0491   16.0460 O   0  0  0  0  0  0  0  0  0  0  0  0
  -28.7703  -30.9787   17.1939 O   0  0  0  0  0  0  0  0  0  0  0  0
  -19.9963  -21.3306   24.1935 O   0  0  0  0  0  0  0  0  0  0  0  0
  -29.1527  -14.1971   20.6186 O   0  0  0  0  0  0  0  0  0  0  0  0
  -24.9682  -27.6942   21.7882 O   0  0  0  0  0  0  0  0  0  1  0  0
  -28.9744   -9.0359   18.6860 F   0  0  0  0  0  0  0  0  0  0  0  0
  -19.8133  -24.1740   21.9991 F   0  0  0  0  0  0  0  0  0  0  0  0
  -30.2808  -13.5569   18.1772 F   0  0  0  0  0  0  0  0  0  0  0  0
  1  2  1  0  0  0  0
  1  5  2  0  0  0  0
  2  6  2  0  0  0  0
  3 10  2  0  0  0  0
  3 18  1  0  0  0  0
  4 11  1  0  0  0  0
  4 18  2  0  0  0  0
  5 20  1  0  0  0  0
  6 22  1  0  0  0  0
  7 12  2  0  0  0  0
  7 21  1  0  0  0  0
  8  9  2  0  0  0  0
  8 24  1  0  0  0  0
  9 25  1  0  0  0  0
 10 26  1  0  0  0  0
 11 26  2  0  0  0  0
 12 27  1  0  0  0  0
 13 14  2  0  0  0  0
 13 28  1  0  0  0  0
 14 29  1  0  0  0  0
 15 23  1  0  0  0  0
 15 27  2  0  0  0  0
 16 24  2  0  0  0  0
 16 30  1  0  0  0  0
 17 29  2  0  0  0  0
 17 31  1  0  0  0  0
 18 32  1  0  0  0  0
 19 32  1  0  0  0  0
 19 33  2  0  0  0  0
 19 34  1  0  0  0  0
 20 22  2  0  0  0  0
 20 39  1  0  0  0  0
 21 23  2  0  0  0  0
 21 40  1  0  0  0  0
 22 48  1  0  0  0  0
 23 41  1  0  0  0  0
 24 59  1  0  0  0  0
 25 30  2  0  0  0  0
 25 58  1  0  0  0  0
 26 82  1  0  0  0  0
 27 83  1  0  0  0  0
 28 31  2  0  0  0  0
 28 82  1  0  0  0  0
 29 84  1  0  0  0  0
 30 85  1  0  0  0  0
 31 86  1  0  0  0  0
 32 66  2  0  0  0  0
 33 67  1  0  0  0  0
 33 70  1  0  0  0  0
 34 71  1  0  0  0  0
 34 77  2  0  0  0  0
 35 49  1  0  0  0  0
 35 72  1  0  0  0  0
 35 78  2  0  0  0  0
 36 63  1  0  0  0  0
 36 68  1  0  0  0  0
 36 79  2  0  0  0  0
 37 64  1  0  0  0  0
 37 73  1  0  0  0  0
 37 80  2  0  0  0  0
 38 69  1  0  0  0  0
 38 74  1  0  0  0  0
 38 81  2  0  0  0  0
 39 42  1  0  0  0  0
 40 49  1  0  0  0  0
 41 68  1  0  0  0  0
 42 44  1  0  0  0  0
 43 45  1  0  0  0  0
 43 46  1  0  0  0  0
 44 48  1  0  0  0  0
 45 50  1  0  0  0  0
 46 69  1  0  0  0  0
 47 50  1  0  0  0  0
 47 69  1  0  0  0  0
 48 72  1  0  0  0  0
 49 68  1  0  0  0  0
 50 67  1  0  0  0  0
 51 64  1  0  0  0  0
 52 65  1  0  0  0  0
 53 65  1  0  0  0  0
 54 65  1  0  0  0  0
 55 74  1  0  0  0  0
 56 75  1  0  0  0  0
 57 76  1  0  0  0  0
 58 74  1  0  0  0  0
 59 76  1  0  0  0  0
 60 61  1  0  0  0  0
 60 62  1  0  0  0  0
 61 76  1  0  0  0  0
 62 83  1  0  0  0  0
 63 65  1  0  0  0  0
 63 73  1  0  0  0  0
 64 75  1  0  0  0  0
 66 67  1  0  0  0  0
M  CHG  2  75   1  76   1
M  ISO  4  38 100  62 101  74 100  83 101
M  END
> <Batch ID>
0015

> <Smiles>
CNC(C)C(=O)NC(C(=O)N1Cc2cc([101O:1][101CH2:1]CCN(C)Cc3ccc(C[100N:0](C)[100C:0](=O)N4CCCC(n5nc(-c6ccc(Oc7ccc(F)cc7F)cc6)c(C(N)=O)c5N)C4)c(F)c3)ccc2CC1C(=O)NC1CCCc2ccccc21)C(C)(C)C

> <Shape>
0.210

> <Color>
0.060

> <Negative vol penalty>
0.000

$$$$

  -OEChem-04042320543D

 85 93  0     1  0  0  0  0  0999 V2000
  -16.9296  -30.1130   23.3773 C   0  0  0  0  0  0  0  0  0  0  0  0
  -18.1527  -30.7012   23.0718 C   0  0  0  0  0  0  0  0  0  0  0  0
  -25.3237  -14.2040   21.2713 C   0  0  0  0  0  0  0  0  0  0  0  0
  -26.2884  -13.0407   19.3864 C   0  0  0  0  0  0  0  0  0  0  0  0
  -16.8553  -28.7394   23.6044 C   0  0  0  0  0  0  0  0  0  0  0  0
  -19.3026  -29.9163   22.9944 C   0  0  0  0  0  0  0  0  0  0  0  0
  -25.5236  -29.4595   19.4721 C   0  0  0  0  0  0  0  0  0  0  0  0
  -31.6802  -24.4572   22.1219 C   0  0  0  0  0  0  0  0  0  0  0  0
  -31.3206  -23.4602   21.2151 C   0  0  0  0  0  0  0  0  0  0  0  0
  -24.3271  -13.2323   21.3610 C   0  0  0  0  0  0  0  0  0  0  0  0
  -25.2919  -12.0688   19.4761 C   0  0  0  0  0  0  0  0  0  0  0  0
  -26.8921  -29.3459   19.7133 C   0  0  0  0  0  0  0  0  0  0  0  0
  -24.0144  -10.0888   22.5668 C   0  0  0  0  0  0  0  0  0  0  0  0
  -23.7057   -9.5918   23.8330 C   0  0  0  0  0  0  0  0  0  0  0  0
  -26.6300  -26.9712   20.0471 C   0  0  0  0  0  0  0  0  0  0  0  0
  -29.6119  -24.1116   23.3220 C   0  0  0  0  0  0  0  0  0  0  0  0
  -21.4305  -10.3647   23.5817 C   0  0  0  0  0  0  0  0  0  0  0  0
  -26.3043  -14.1083   20.2840 C   0  0  0  0  0  0  0  0  0  0  0  0
  -28.5860  -15.1081   20.8336 C   0  0  0  0  0  0  0  0  0  0  0  0
  -18.0032  -27.9357   23.5203 C   0  0  0  0  0  0  0  0  0  0  0  0
  -24.6949  -28.3296   19.5274 C   0  0  0  0  0  0  0  0  0  0  0  0
  -19.2439  -28.5308   23.2220 C   0  0  0  0  0  0  0  0  0  0  0  0
  -25.2518  -27.0727   19.8037 C   0  0  0  0  0  0  0  0  0  0  0  0
  -30.8259  -24.7829   23.1754 C   0  0  0  0  0  0  0  0  0  0  0  0
  -30.1067  -22.7889   21.3617 C   0  0  0  0  0  0  0  0  0  0  0  0
  -24.3112  -12.1647   20.4634 C   0  0  0  0  0  0  0  0  0  0  0  0
  -27.4450  -28.1021   20.0037 C   0  0  0  0  0  0  0  0  0  0  0  0
  -23.0312  -10.7239   21.8081 C   0  0  0  0  0  0  0  0  0  0  0  0
  -22.4138   -9.7297   24.3405 C   0  0  0  0  0  0  0  0  0  0  0  0
  -21.7392  -10.8618   22.3155 C   0  0  0  0  0  0  0  0  0  0  0  0
  -29.2523  -23.1146   22.4151 C   0  0  0  0  0  0  0  0  0  0  0  0
  -27.3337  -15.1121   20.1904 C   0  0  0  0  0  0  0  0  0  0  0  0
  -29.1872  -16.2723   20.4217 C   0  0  0  0  0  0  0  0  0  0  0  0
  -29.1549  -14.1387   21.7237 C   0  0  0  0  0  0  0  0  0  0  0  0
  -22.2183  -27.4495   21.3150 C   0  0  0  0  0  0  0  0  0  0  0  0
  -22.1216  -24.9439   19.2572 C   0  0  0  0  0  0  0  0  0  0  0  0
  -23.7835  -22.9452   17.0457 C   0  0  0  0  0  0  0  0  0  0  0  0
  -28.6056  -21.8575   19.6083 C   0  0  0  0  0  0  0  0  0  0  0  0
  -17.8816  -26.4627   23.8204 C   0  0  0  0  0  0  0  0  0  0  0  0
  -23.2250  -28.4646   19.2385 C   0  0  0  0  0  0  0  0  0  0  0  0
  -24.4086  -25.8257   19.8549 C   0  0  0  0  0  0  0  0  0  0  0  0
  -19.0816  -25.6443   23.3507 C   0  0  0  0  0  0  0  0  0  0  0  0
  -27.9087  -19.5589   16.8082 C   0  0  0  0  0  0  0  0  0  0  0  0
  -20.3845  -26.3263   23.7558 C   0  0  0  0  0  0  0  0  0  0  0  0
  -27.7362  -18.2120   17.5082 C   0  0  0  0  0  0  0  0  0  0  0  0
  -27.4970  -20.7214   17.7065 C   0  0  0  0  0  0  0  0  0  0  0  0
  -28.0192  -19.3885   19.7266 C   0  0  0  0  0  0  0  0  0  0  0  0
  -20.5091  -27.7090   23.1045 C   0  0  1  0  0  0  0  0  0  0  0  0
  -22.3935  -27.3293   19.8276 C   0  0  1  0  0  0  0  0  0  0  0  0
  -28.4664  -18.1998   18.8623 C   0  0  1  0  0  0  0  0  0  0  0  0
  -23.4489  -20.9578   15.5506 C   0  0  0  0  0  0  0  0  0  0  0  0
  -22.1961  -23.1041   21.6902 C   0  0  0  0  0  0  0  0  0  0  0  0
  -22.8137  -21.2210   20.1603 C   0  0  0  0  0  0  0  0  0  0  0  0
  -20.6235  -22.3826   19.8845 C   0  0  0  0  0  0  0  0  0  0  0  0
  -30.7665  -20.7344   20.0968 C   0  0  0  0  0  0  0  0  0  0  0  0
  -24.4548  -24.5082   14.6239 C   0  0  0  0  0  0  0  0  0  0  0  0
  -31.9338  -28.2144   24.4924 C   0  0  0  0  0  0  0  0  0  0  0  0
  -31.2131  -25.8556   24.1503 C   0  0  0  0  0  0  0  0  0  0  0  0
  -30.6152  -28.6248   21.6478 C   0  0  0  0  0  0  0  0  0  0  0  0
  -30.2211  -27.6733   22.7675 C   0  0  0  0  0  0  0  0  0  0  0  0
  -29.4360  -29.1168   20.8177 C   0  0  0  0  0  0  0  0  0  1  0  0
  -22.7507  -23.5723   19.2124 C   0  0  1  0  0  0  0  0  0  0  0  0
  -23.4259  -22.4753   15.6473 C   0  0  2  0  0  0  0  0  0  0  0  0
  -22.1118  -22.5936   20.2379 C   0  0  0  0  0  0  0  0  0  0  0  0
  -27.1491  -16.1932   19.4281 N   0  0  0  0  0  0  0  0  0  0  0  0
  -28.2933  -16.8794   19.5896 N   0  0  0  0  0  0  0  0  0  0  0  0
  -22.9758  -26.0104   19.5714 N   0  0  0  0  0  0  0  0  0  0  0  0
  -28.1711  -20.6608   19.0039 N   0  0  0  0  0  0  0  0  0  0  0  0
  -30.3881  -16.8257   20.6939 N   0  0  0  0  0  0  0  0  0  0  0  0
  -28.4015  -13.0003   22.0416 N   0  0  0  0  0  0  0  0  0  0  0  0
  -20.9030  -27.5808   21.7178 N   0  0  0  0  0  0  0  0  0  0  0  0
  -22.6612  -23.1273   17.8259 N   0  0  0  0  0  0  0  0  0  0  0  0
  -29.7664  -21.7616   20.4059 N   0  0  0  0  0  0  0  0  0  0  0  0
  -24.3914  -23.0242   14.6536 N   0  3  0  0  0  0  0  0  0  0  0  0
  -31.4208  -27.2011   23.4976 N   0  3  1  0  0  0  0  0  0  0  0  0
  -30.2907  -14.2857   22.2352 O   0  0  0  0  0  0  0  0  0  0  0  0
  -23.2034  -27.4236   22.0435 O   0  0  0  0  0  0  0  0  0  0  0  0
  -20.9182  -25.0655   19.0149 O   0  0  0  0  0  0  0  0  0  0  0  0
  -24.9426  -23.1287   17.4107 O   0  0  0  0  0  0  0  0  0  0  0  0
  -28.0196  -22.9312   19.4250 O   0  0  0  0  0  0  0  0  0  0  0  0
  -23.3390  -11.2161   20.5508 O   0  0  0  0  0  0  0  0  0  0  0  0
  -28.7803  -27.9885   20.2402 O   0  0  0  0  0  0  0  0  0  1  0  0
  -22.1171   -9.2510   25.5558 F   0  0  0  0  0  0  0  0  0  0  0  0
  -20.7901  -11.4699   21.5908 F   0  0  0  0  0  0  0  0  0  0  0  0
  -27.7398  -22.3087   22.6333 Cl  0  0  0  0  0  0  0  0  0  0  0  0
  1  2  1  0  0  0  0
  1  5  2  0  0  0  0
  2  6  2  0  0  0  0
  3 10  2  0  0  0  0
  3 18  1  0  0  0  0
  4 11  1  0  0  0  0
  4 18  2  0  0  0  0
  5 20  1  0  0  0  0
  6 22  1  0  0  0  0
  7 12  2  0  0  0  0
  7 21  1  0  0  0  0
  8  9  2  0  0  0  0
  8 24  1  0  0  0  0
  9 25  1  0  0  0  0
 10 26  1  0  0  0  0
 11 26  2  0  0  0  0
 12 27  1  0  0  0  0
 13 14  2  0  0  0  0
 13 28  1  0  0  0  0
 14 29  1  0  0  0  0
 15 23  1  0  0  0  0
 15 27  2  0  0  0  0
 16 24  2  0  0  0  0
 16 31  1  0  0  0  0
 17 29  2  0  0  0  0
 17 30  1  0  0  0  0
 18 32  1  0  0  0  0
 19 32  1  0  0  0  0
 19 33  2  0  0  0  0
 19 34  1  0  0  0  0
 20 22  2  0  0  0  0
 20 39  1  0  0  0  0
 21 23  2  0  0  0  0
 21 40  1  0  0  0  0
 22 48  1  0  0  0  0
 23 41  1  0  0  0  0
 24 58  1  0  0  0  0
 25 31  2  0  0  0  0
 25 73  1  0  0  0  0
 26 81  1  0  0  0  0
 27 82  1  0  0  0  0
 28 30  2  0  0  0  0
 28 81  1  0  0  0  0
 29 83  1  0  0  0  0
 30 84  1  0  0  0  0
 31 85  1  0  0  0  0
 32 65  2  0  0  0  0
 33 66  1  0  0  0  0
 33 69  1  0  0  0  0
 34 70  1  0  0  0  0
 34 76  2  0  0  0  0
 35 49  1  0  0  0  0
 35 71  1  0  0  0  0
 35 77  2  0  0  0  0
 36 62  1  0  0  0  0
 36 67  1  0  0  0  0
 36 78  2  0  0  0  0
 37 63  1  0  0  0  0
 37 72  1  0  0  0  0
 37 79  2  0  0  0  0
 38 68  1  0  0  0  0
 38 73  1  0  0  0  0
 38 80  2  0  0  0  0
 39 42  1  0  0  0  0
 40 49  1  0  0  0  0
 41 67  1  0  0  0  0
 42 44  1  0  0  0  0
 43 45  1  0  0  0  0
 43 46  1  0  0  0  0
 44 48  1  0  0  0  0
 45 50  1  0  0  0  0
 46 68  1  0  0  0  0
 47 50  1  0  0  0  0
 47 68  1  0  0  0  0
 48 71  1  0  0  0  0
 49 67  1  0  0  0  0
 50 66  1  0  0  0  0
 51 63  1  0  0  0  0
 52 64  1  0  0  0  0
 53 64  1  0  0  0  0
 54 64  1  0  0  0  0
 55 73  1  0  0  0  0
 56 74  1  0  0  0  0
 57 75  1  0  0  0  0
 58 75  1  0  0  0  0
 59 60  1  0  0  0  0
 59 61  1  0  0  0  0
 60 75  1  0  0  0  0
 61 82  1  0  0  0  0
 62 64  1  0  0  0  0
 62 72  1  0  0  0  0
 63 74  1  0  0  0  0
 65 66  1  0  0  0  0
M  CHG  2  74   1  75   1
M  ISO  4  38 100  61 101  73 100  82 101
M  END
> <Batch ID>
0015

> <Smiles>
CNC(C)C(=O)NC(C(=O)N1Cc2cc([101O:1][101CH2:1]CCN(C)Cc3ccc([100N:0](C)[100C:0](=O)N4CCCC(n5nc(-c6ccc(Oc7ccc(F)cc7F)cc6)c(C(N)=O)c5N)C4)c(Cl)c3)ccc2CC1C(=O)NC1CCCc2ccccc21)C(C)(C)C

> <Shape>
0.238

> <Color>
0.071

> <Negative vol penalty>
0.000

$$$$

  -OEChem-04042320543D

 84 92  0     1  0  0  0  0  0999 V2000
  -29.8678   -2.0832   36.8256 C   0  0  0  0  0  0  0  0  0  0  0  0
  -29.8000   -2.9386   35.7306 C   0  0  0  0  0  0  0  0  0  0  0  0
  -23.2846   -9.7975   19.9080 C   0  0  0  0  0  0  0  0  0  0  0  0
  -23.7225   -9.9368   22.2799 C   0  0  0  0  0  0  0  0  0  0  0  0
  -28.6956   -1.5915   37.3984 C   0  0  0  0  0  0  0  0  0  0  0  0
  -28.5597   -3.3021   35.2070 C   0  0  0  0  0  0  0  0  0  0  0  0
  -27.0427   -8.6994   32.7426 C   0  0  0  0  0  0  0  0  0  0  0  0
  -28.4291  -11.5084   25.2454 C   0  0  0  0  0  0  0  0  0  0  0  0
  -28.4860  -10.3588   23.1212 C   0  0  0  0  0  0  0  0  0  0  0  0
  -27.7612  -10.4241   25.8143 C   0  0  0  0  0  0  0  0  0  0  0  0
  -27.8181   -9.2744   23.6902 C   0  0  0  0  0  0  0  0  0  0  0  0
  -22.5525   -8.6278   20.1119 C   0  0  0  0  0  0  0  0  0  0  0  0
  -22.9904   -8.7671   22.4838 C   0  0  0  0  0  0  0  0  0  0  0  0
  -26.9560   -9.1361   31.4214 C   0  0  0  0  0  0  0  0  0  0  0  0
  -19.7387   -7.8687   22.6830 C   0  0  0  0  0  0  0  0  0  0  0  0
  -18.8303   -7.8507   23.7413 C   0  0  0  0  0  0  0  0  0  0  0  0
  -24.5870   -8.6809   31.4327 C   0  0  0  0  0  0  0  0  0  0  0  0
  -20.0233   -5.9990   24.7339 C   0  0  0  0  0  0  0  0  0  0  0  0
  -23.8696  -10.4519   20.9921 C   0  0  0  0  0  0  0  0  0  0  0  0
  -24.1400  -12.9809   20.7945 C   0  0  0  0  0  0  0  0  0  0  0  0
  -27.4401   -1.9568   36.8876 C   0  0  0  0  0  0  0  0  0  0  0  0
  -25.9022   -8.2391   33.4164 C   0  0  0  0  0  0  0  0  0  0  0  0
  -27.3696   -2.8138   35.7726 C   0  0  0  0  0  0  0  0  0  0  0  0
  -24.6614   -8.2413   32.7633 C   0  0  0  0  0  0  0  0  0  0  0  0
  -28.7915  -11.4758   23.8987 C   0  0  0  0  0  0  0  0  0  0  0  0
  -27.4557   -9.3071   25.0368 C   0  0  0  0  0  0  0  0  0  0  0  0
  -22.4054   -8.1126   21.3998 C   0  0  0  0  0  0  0  0  0  0  0  0
  -25.7286   -9.1242   30.7653 C   0  0  0  0  0  0  0  0  0  0  0  0
  -20.7894   -6.9518   22.6500 C   0  0  0  0  0  0  0  0  0  0  0  0
  -18.9726   -6.9159   24.7667 C   0  0  0  0  0  0  0  0  0  0  0  0
  -20.9317   -6.0170   23.6755 C   0  0  0  0  0  0  0  0  0  0  0  0
  -24.6265  -11.6599   20.7821 C   0  0  0  0  0  0  0  0  0  0  0  0
  -25.2459  -13.7565   20.5456 C   0  0  0  0  0  0  0  0  0  0  0  0
  -22.8075  -13.4637   21.0117 C   0  0  0  0  0  0  0  0  0  0  0  0
  -25.0315   -5.4755   34.7233 C   0  0  0  0  0  0  0  0  0  0  0  0
  -22.4723   -7.2006   35.7218 C   0  0  0  0  0  0  0  0  0  0  0  0
  -20.4424   -9.9047   35.2594 C   0  0  0  0  0  0  0  0  0  0  0  0
  -31.1496  -12.3509   21.3872 C   0  0  0  0  0  0  0  0  0  0  0  0
  -26.2020   -1.3624   37.5107 C   0  0  0  0  0  0  0  0  0  0  0  0
  -26.0076   -7.7965   34.8501 C   0  0  0  0  0  0  0  0  0  0  0  0
  -23.4036   -7.7759   33.4487 C   0  0  0  0  0  0  0  0  0  0  0  0
  -24.9172   -2.0935   37.1297 C   0  0  0  0  0  0  0  0  0  0  0  0
  -29.4877  -13.6547   18.3475 C   0  0  0  0  0  0  0  0  0  0  0  0
  -24.8769   -2.3545   35.6274 C   0  0  0  0  0  0  0  0  0  0  0  0
  -28.0171  -13.3328   18.6079 C   0  0  0  0  0  0  0  0  0  0  0  0
  -30.4170  -12.6711   19.0522 C   0  0  0  0  0  0  0  0  0  0  0  0
  -28.6994  -12.2294   20.7753 C   0  0  0  0  0  0  0  0  0  0  0  0
  -26.0424   -3.2508   35.1916 C   0  0  1  0  0  0  0  0  0  0  0  0
  -24.8755   -6.8653   35.2727 C   0  0  1  0  0  0  0  0  0  0  0  0
  -27.7370  -13.2295   20.1172 C   0  0  2  0  0  0  0  0  0  0  0  0
  -18.4121  -11.0298   36.2130 C   0  0  0  0  0  0  0  0  0  0  0  0
  -20.6974   -5.0672   34.4536 C   0  0  0  0  0  0  0  0  0  0  0  0
  -18.7849   -6.6772   34.5889 C   0  0  0  0  0  0  0  0  0  0  0  0
  -19.9058   -5.8966   36.6762 C   0  0  0  0  0  0  0  0  0  0  0  0
  -26.4659   -7.0444   24.7913 C   0  0  0  0  0  0  0  0  0  0  0  0
  -31.8627  -12.0559   23.7290 C   0  0  0  0  0  0  0  0  0  0  0  0
  -21.9521  -12.3786   35.8592 C   0  0  0  0  0  0  0  0  0  0  0  0
  -29.5053  -12.6348   23.2894 C   0  0  0  0  0  0  0  0  0  0  0  0
  -25.1026   -8.9645   27.2113 C   0  0  0  0  0  0  0  0  0  0  0  0
  -26.4098   -8.2097   27.0020 C   0  0  0  0  0  0  0  0  0  0  0  0
  -24.6335   -8.9512   28.6614 C   0  0  0  0  0  0  0  0  0  1  0  0
  -21.1096   -7.5176   35.1547 C   0  0  1  0  0  0  0  0  0  0  0  0
  -19.9311  -10.9575   36.2262 C   0  0  2  0  0  0  0  0  0  0  0  0
  -20.1483   -6.2967   35.2045 C   0  0  0  0  0  0  0  0  0  0  0  0
  -25.9392  -11.5961   20.5439 N   0  0  0  0  0  0  0  0  0  0  0  0
  -26.2869  -12.8867   20.4044 N   0  0  0  0  0  0  0  0  0  0  0  0
  -23.5593   -7.3469   34.8484 N   0  0  0  0  0  0  0  0  0  0  0  0
  -30.1009  -12.5599   20.4766 N   0  0  0  0  0  0  0  0  0  0  0  0
  -25.4196  -15.0907   20.4359 N   0  0  0  0  0  0  0  0  0  0  0  0
  -21.7900  -12.5308   21.2536 N   0  0  0  0  0  0  0  0  0  0  0  0
  -25.7716   -4.6317   35.5293 N   0  0  0  0  0  0  0  0  0  0  0  0
  -20.6276   -8.6877   35.8806 N   0  0  0  0  0  0  0  0  0  0  0  0
  -26.7858   -8.2161   25.6089 N   0  0  3  0  0  0  0  0  0  0  0  0
  -30.8090  -12.2608   22.7454 N   0  0  0  0  0  0  0  0  0  0  0  0
  -20.4686  -12.2991   35.8629 N   0  3  0  0  0  0  0  0  0  0  0  0
  -22.5246  -14.6852   20.9756 O   0  0  0  0  0  0  0  0  0  0  0  0
  -24.5171   -5.1895   33.6485 O   0  0  0  0  0  0  0  0  0  0  0  0
  -22.5694   -6.8434   36.8985 O   0  0  0  0  0  0  0  0  0  0  0  0
  -20.6527  -10.1376   34.0711 O   0  0  0  0  0  0  0  0  0  0  0  0
  -32.3246  -12.2600   21.0088 O   0  0  0  0  0  0  0  0  0  0  0  0
  -21.6909   -6.9715   21.5991 O   0  0  0  0  0  0  0  0  0  0  0  0
  -25.6413   -9.5493   29.4756 O   0  0  0  0  0  0  0  0  0  1  0  0
  -18.1010   -6.8998   25.7838 F   0  0  0  0  0  0  0  0  0  0  0  0
  -21.9398   -5.1344   23.6500 F   0  0  0  0  0  0  0  0  0  0  0  0
  1  2  1  0  0  0  0
  1  5  2  0  0  0  0
  2  6  2  0  0  0  0
  3 12  2  0  0  0  0
  3 19  1  0  0  0  0
  4 13  1  0  0  0  0
  4 19  2  0  0  0  0
  5 21  1  0  0  0  0
  6 23  1  0  0  0  0
  7 14  2  0  0  0  0
  7 22  1  0  0  0  0
  8 10  2  0  0  0  0
  8 25  1  0  0  0  0
  9 11  1  0  0  0  0
  9 25  2  0  0  0  0
 10 26  1  0  0  0  0
 11 26  2  0  0  0  0
 12 27  1  0  0  0  0
 13 27  2  0  0  0  0
 14 28  1  0  0  0  0
 15 16  2  0  0  0  0
 15 29  1  0  0  0  0
 16 30  1  0  0  0  0
 17 24  1  0  0  0  0
 17 28  2  0  0  0  0
 18 30  2  0  0  0  0
 18 31  1  0  0  0  0
 19 32  1  0  0  0  0
 20 32  1  0  0  0  0
 20 33  2  0  0  0  0
 20 34  1  0  0  0  0
 21 23  2  0  0  0  0
 21 39  1  0  0  0  0
 22 24  2  0  0  0  0
 22 40  1  0  0  0  0
 23 48  1  0  0  0  0
 24 41  1  0  0  0  0
 25 58  1  0  0  0  0
 26 73  1  0  0  0  0
 27 81  1  0  0  0  0
 28 82  1  0  0  0  0
 29 31  2  0  0  0  0
 29 81  1  0  0  0  0
 30 83  1  0  0  0  0
 31 84  1  0  0  0  0
 32 65  2  0  0  0  0
 33 66  1  0  0  0  0
 33 69  1  0  0  0  0
 34 70  1  0  0  0  0
 34 76  2  0  0  0  0
 35 49  1  0  0  0  0
 35 71  1  0  0  0  0
 35 77  2  0  0  0  0
 36 62  1  0  0  0  0
 36 67  1  0  0  0  0
 36 78  2  0  0  0  0
 37 63  1  0  0  0  0
 37 72  1  0  0  0  0
 37 79  2  0  0  0  0
 38 68  1  0  0  0  0
 38 74  1  0  0  0  0
 38 80  2  0  0  0  0
 39 42  1  0  0  0  0
 40 49  1  0  0  0  0
 41 67  1  0  0  0  0
 42 44  1  0  0  0  0
 43 45  1  0  0  0  0
 43 46  1  0  0  0  0
 44 48  1  0  0  0  0
 45 50  1  0  0  0  0
 46 68  1  0  0  0  0
 47 50  1  0  0  0  0
 47 68  1  0  0  0  0
 48 71  1  0  0  0  0
 49 67  1  0  0  0  0
 50 66  1  0  0  0  0
 51 63  1  0  0  0  0
 52 64  1  0  0  0  0
 53 64  1  0  0  0  0
 54 64  1  0  0  0  0
 55 73  1  0  0  0  0
 56 74  1  0  0  0  0
 57 75  1  0  0  0  0
 58 74  1  0  0  0  0
 59 60  1  0  0  0  0
 59 61  1  0  0  0  0
 60 73  1  0  0  0  0
 61 82  1  0  0  0  0
 62 64  1  0  0  0  0
 62 72  1  0  0  0  0
 63 75  1  0  0  0  0
 65 66  1  0  0  0  0
M  CHG  1  75   1
M  ISO  4  38 100  61 101  74 100  82 101
M  END
> <Batch ID>
0015

> <Smiles>
CNC(C)C(=O)NC(C(=O)N1Cc2cc([101O:1][101CH2:1]CCN(C)c3ccc(C[100N:0](C)[100C:0](=O)N4CCCC(n5nc(-c6ccc(Oc7ccc(F)cc7F)cc6)c(C(N)=O)c5N)C4)cc3)ccc2CC1C(=O)NC1CCCc2ccccc21)C(C)(C)C

> <Shape>
0.132

> <Color>
0.185

> <Negative vol penalty>
0.000

$$$$

  -OEChem-04042320543D

 85 94  0     1  0  0  0  0  0999 V2000
  -23.5663  -36.9229   18.9510 C   0  0  0  0  0  0  0  0  0  0  0  0
  -24.4590  -35.8687   18.7857 C   0  0  0  0  0  0  0  0  0  0  0  0
  -23.8869   -9.8465   21.7252 C   0  0  0  0  0  0  0  0  0  0  0  0
  -21.9040  -10.5805   20.5563 C   0  0  0  0  0  0  0  0  0  0  0  0
  -22.7841  -36.9984   20.1026 C   0  0  0  0  0  0  0  0  0  0  0  0
  -24.5707  -34.8900   19.7727 C   0  0  0  0  0  0  0  0  0  0  0  0
  -25.6834  -28.9263   18.9342 C   0  0  0  0  0  0  0  0  0  0  0  0
  -27.5885  -20.7603   18.8313 C   0  0  0  0  0  0  0  0  0  0  0  0
  -26.5864  -19.8051   18.6614 C   0  0  0  0  0  0  0  0  0  0  0  0
  -23.3444   -8.5668   21.8420 C   0  0  0  0  0  0  0  0  0  0  0  0
  -21.3615   -9.3008   20.6731 C   0  0  0  0  0  0  0  0  0  0  0  0
  -26.8504  -28.1686   19.0213 C   0  0  0  0  0  0  0  0  0  0  0  0
  -21.0714   -6.9935   23.7869 C   0  0  0  0  0  0  0  0  0  0  0  0
  -21.1702   -6.3591   25.0252 C   0  0  0  0  0  0  0  0  0  0  0  0
  -26.2778  -27.5577   21.2836 C   0  0  0  0  0  0  0  0  0  0  0  0
  -26.8332  -21.1504   21.0928 C   0  0  0  0  0  0  0  0  0  0  0  0
  -22.4271   -4.5651   24.0057 C   0  0  0  0  0  0  0  0  0  0  0  0
  -23.1667  -10.8534   21.0824 C   0  0  0  0  0  0  0  0  0  0  0  0
  -24.9241  -12.5362   20.3159 C   0  0  0  0  0  0  0  0  0  0  0  0
  -22.8794  -36.0149   21.0998 C   0  0  0  0  0  0  0  0  0  0  0  0
  -24.8087  -29.0144   20.0268 C   0  0  0  0  0  0  0  0  0  0  0  0
  -23.7900  -34.9532   20.9394 C   0  0  0  0  0  0  0  0  0  0  0  0
  -25.0990  -28.3151   21.2070 C   0  0  0  0  0  0  0  0  0  0  0  0
  -27.7120  -21.4330   20.0471 C   0  0  0  0  0  0  0  0  0  0  0  0
  -25.7076  -19.5226   19.7071 C   0  0  0  0  0  0  0  0  0  0  0  0
  -22.0817   -8.2939   21.3160 C   0  0  0  0  0  0  0  0  0  0  0  0
  -27.1493  -27.4865   20.1971 C   0  0  0  0  0  0  0  0  0  0  0  0
  -21.6504   -6.4138   22.6580 C   0  0  0  0  0  0  0  0  0  0  0  0
  -21.8481   -5.1449   25.1346 C   0  0  0  0  0  0  0  0  0  0  0  0
  -25.8310  -20.1952   20.9229 C   0  0  0  0  0  0  0  0  0  0  0  0
  -22.3282   -5.1996   22.7674 C   0  0  0  0  0  0  0  0  0  0  0  0
  -23.7264  -12.1756   20.9619 C   0  0  0  0  0  0  0  0  0  0  0  0
  -25.0070  -13.8972   20.4810 C   0  0  0  0  0  0  0  0  0  0  0  0
  -25.8764  -11.7143   19.6278 C   0  0  0  0  0  0  0  0  0  0  0  0
  -23.7568  -31.3783   21.8732 C   0  0  0  0  0  0  0  0  0  0  0  0
  -21.8598  -29.0518   23.1025 C   0  0  0  0  0  0  0  0  0  0  0  0
  -21.3438  -25.7234   23.6523 C   0  0  0  0  0  0  0  0  0  0  0  0
  -22.2079  -18.8341   20.1508 C   0  0  0  0  0  0  0  0  0  0  0  0
  -22.0474  -36.1647   22.3489 C   0  0  0  0  0  0  0  0  0  0  0  0
  -23.5405  -29.8143   19.9077 C   0  0  0  0  0  0  0  0  0  0  0  0
  -24.1828  -28.3607   22.4015 C   0  0  0  0  0  0  0  0  0  0  0  0
  -21.9552  -34.8851   23.1763 C   0  0  0  0  0  0  0  0  0  0  0  0
  -22.3403  -17.0472   23.3898 C   0  0  0  0  0  0  0  0  0  0  0  0
  -23.3340  -34.2526   23.3367 C   0  0  0  0  0  0  0  0  0  0  0  0
  -22.7427  -15.6333   22.9740 C   0  0  0  0  0  0  0  0  0  0  0  0
  -21.5741  -17.7671   22.2842 C   0  0  0  0  0  0  0  0  0  0  0  0
  -22.6915  -16.3869   20.5636 C   0  0  0  0  0  0  0  0  0  0  0  0
  -27.5240  -24.4460   19.5636 C   0  0  0  0  0  0  0  0  0  0  0  0
  -29.5973  -24.6903   19.6258 C   0  0  0  0  0  0  0  0  0  0  0  0
  -23.9219  -33.8588   21.9762 C   0  0  1  0  0  0  0  0  0  0  0  0
  -22.9794  -30.2492   21.2580 C   0  0  1  0  0  0  0  0  0  0  0  0
  -23.5057  -15.6506   21.6380 C   0  0  2  0  0  0  0  0  0  0  0  0
  -28.4389  -25.6652   19.3514 C   0  0  0  0  0  0  0  0  0  1  0  0
  -19.7225  -24.1307   24.7162 C   0  0  0  0  0  0  0  0  0  0  0  0
  -22.9204  -29.8174   25.8591 C   0  0  0  0  0  0  0  0  0  0  0  0
  -22.0348  -27.6424   26.7270 C   0  0  0  0  0  0  0  0  0  0  0  0
  -20.4673  -29.3371   25.7816 C   0  0  0  0  0  0  0  0  0  0  0  0
  -23.2736  -20.2459   18.4331 C   0  0  0  0  0  0  0  0  0  0  0  0
  -20.7963  -24.3767   21.0745 C   0  0  0  0  0  0  0  0  0  0  0  0
  -24.6362  -18.5016   19.5221 C   0  0  0  0  0  0  0  0  0  0  0  0
  -28.7896  -22.4606   20.2298 C   0  0  0  0  0  0  0  0  0  0  0  0
  -21.9874  -28.0500   24.2245 C   0  0  1  0  0  0  0  0  0  0  0  0
  -20.1261  -24.8435   23.4349 C   0  0  2  0  0  0  0  0  0  0  0  0
  -21.8709  -28.7122   25.6264 C   0  0  0  0  0  0  0  0  0  0  0  0
  -23.0941  -13.2230   21.4978 N   0  0  0  0  0  0  0  0  0  0  0  0
  -23.8974  -14.2551   21.1888 N   0  0  0  0  0  0  0  0  0  0  0  0
  -22.9582  -29.1615   22.2381 N   0  0  0  0  0  0  0  0  0  0  0  0
  -22.3020  -17.7311   21.0153 N   0  0  0  0  0  0  0  0  0  0  0  0
  -25.9202  -14.8107   20.0886 N   0  0  0  0  0  0  0  0  0  0  0  0
  -25.7023  -11.4969   18.2542 N   0  0  0  0  0  0  0  0  0  0  0  0
  -23.3166  -32.6337   21.4995 N   0  0  0  0  0  0  0  0  0  0  0  0
  -20.9888  -27.0183   23.9661 N   0  0  0  0  0  0  0  0  0  0  0  0
  -23.3187  -19.1060   19.3378 N   0  0  0  0  0  0  0  0  0  0  0  0
  -28.6859  -23.5855   19.2746 N   0  3  0  0  0  0  0  0  0  0  0  0
  -20.4094  -23.8150   22.3942 N   0  3  0  0  0  0  0  0  0  0  0  0
  -26.8436  -11.1750   20.2170 O   0  0  0  0  0  0  0  0  0  0  0  0
  -24.6862  -31.1289   22.6319 O   0  0  0  0  0  0  0  0  0  0  0  0
  -20.8208  -29.7077   22.9926 O   0  0  0  0  0  0  0  0  0  0  0  0
  -22.4949  -25.3032   23.5572 O   0  0  0  0  0  0  0  0  0  0  0  0
  -21.1929  -19.5414   20.1150 O   0  0  0  0  0  0  0  0  0  0  0  0
  -21.5521   -7.0453   21.4295 O   0  0  0  0  0  0  0  0  0  0  0  0
  -28.2880  -26.7467   20.2850 O   0  0  0  0  0  0  0  0  0  1  0  0
  -21.9442   -4.5365   26.3240 F   0  0  0  0  0  0  0  0  0  0  0  0
  -24.9906  -19.9311   21.9331 F   0  0  0  0  0  0  0  0  0  0  0  0
  -22.8875   -4.6384   21.6867 F   0  0  0  0  0  0  0  0  0  0  0  0
  1  2  1  0  0  0  0
  1  5  2  0  0  0  0
  2  6  2  0  0  0  0
  3 10  2  0  0  0  0
  3 18  1  0  0  0  0
  4 11  1  0  0  0  0
  4 18  2  0  0  0  0
  5 20  1  0  0  0  0
  6 22  1  0  0  0  0
  7 12  2  0  0  0  0
  7 21  1  0  0  0  0
  8  9  2  0  0  0  0
  8 24  1  0  0  0  0
  9 25  1  0  0  0  0
 10 26  1  0  0  0  0
 11 26  2  0  0  0  0
 12 27  1  0  0  0  0
 13 14  2  0  0  0  0
 13 28  1  0  0  0  0
 14 29  1  0  0  0  0
 15 23  1  0  0  0  0
 15 27  2  0  0  0  0
 16 24  2  0  0  0  0
 16 30  1  0  0  0  0
 17 29  2  0  0  0  0
 17 31  1  0  0  0  0
 18 32  1  0  0  0  0
 19 32  1  0  0  0  0
 19 33  2  0  0  0  0
 19 34  1  0  0  0  0
 20 22  2  0  0  0  0
 20 39  1  0  0  0  0
 21 23  2  0  0  0  0
 21 40  1  0  0  0  0
 22 50  1  0  0  0  0
 23 41  1  0  0  0  0
 24 61  1  0  0  0  0
 25 30  2  0  0  0  0
 25 60  1  0  0  0  0
 26 81  1  0  0  0  0
 27 82  1  0  0  0  0
 28 31  2  0  0  0  0
 28 81  1  0  0  0  0
 29 83  1  0  0  0  0
 30 84  1  0  0  0  0
 31 85  1  0  0  0  0
 32 65  2  0  0  0  0
 33 66  1  0  0  0  0
 33 69  1  0  0  0  0
 34 70  1  0  0  0  0
 34 76  2  0  0  0  0
 35 51  1  0  0  0  0
 35 71  1  0  0  0  0
 35 77  2  0  0  0  0
 36 62  1  0  0  0  0
 36 67  1  0  0  0  0
 36 78  2  0  0  0  0
 37 63  1  0  0  0  0
 37 72  1  0  0  0  0
 37 79  2  0  0  0  0
 38 68  1  0  0  0  0
 38 73  1  0  0  0  0
 38 80  2  0  0  0  0
 39 42  1  0  0  0  0
 40 51  1  0  0  0  0
 41 67  1  0  0  0  0
 42 44  1  0  0  0  0
 43 45  1  0  0  0  0
 43 46  1  0  0  0  0
 44 50  1  0  0  0  0
 45 52  1  0  0  0  0
 46 68  1  0  0  0  0
 47 52  1  0  0  0  0
 47 68  1  0  0  0  0
 48 53  1  0  0  0  0
 48 74  1  0  0  0  0
 49 53  1  0  0  0  0
 49 74  1  0  0  0  0
 50 71  1  0  0  0  0
 51 67  1  0  0  0  0
 52 66  1  0  0  0  0
 53 82  1  0  0  0  0
 54 63  1  0  0  0  0
 55 64  1  0  0  0  0
 56 64  1  0  0  0  0
 57 64  1  0  0  0  0
 58 73  1  0  0  0  0
 59 75  1  0  0  0  0
 60 73  1  0  0  0  0
 61 74  1  0  0  0  0
 62 64  1  0  0  0  0
 62 72  1  0  0  0  0
 63 75  1  0  0  0  0
 65 66  1  0  0  0  0
M  CHG  2  74   1  75   1
M  ISO  4  38 100  53 101  73 100  82 101
M  END
> <Batch ID>
0015

> <Smiles>
CNC(C)C(=O)NC(C(=O)N1Cc2cc([101O:1][101CH:1]3CN(Cc4ccc(C[100N:0](C)[100C:0](=O)N5CCCC(n6nc(-c7ccc(Oc8ccc(F)cc8F)cc7)c(C(N)=O)c6N)C5)c(F)c4)C3)ccc2CC1C(=O)NC1CCCc2ccccc21)C(C)(C)C

> <Shape>
0.251

> <Color>
0.124

> <Negative vol penalty>
0.000

$$$$

  -OEChem-04042320543D

 85 94  0     1  0  0  0  0  0999 V2000
  -28.6571  -33.4742   24.3817 C   0  0  0  0  0  0  0  0  0  0  0  0
  -28.6253  -32.1195   24.0667 C   0  0  0  0  0  0  0  0  0  0  0  0
  -23.5734   -9.1540   20.4857 C   0  0  0  0  0  0  0  0  0  0  0  0
  -22.9835  -11.2974   21.4316 C   0  0  0  0  0  0  0  0  0  0  0  0
  -27.4736  -34.1463   24.6846 C   0  0  0  0  0  0  0  0  0  0  0  0
  -27.4100  -31.4358   24.0555 C   0  0  0  0  0  0  0  0  0  0  0  0
  -26.9061  -28.4356   20.0071 C   0  0  0  0  0  0  0  0  0  0  0  0
  -29.2846  -19.1740   17.2843 C   0  0  0  0  0  0  0  0  0  0  0  0
  -29.0911  -17.8207   17.5613 C   0  0  0  0  0  0  0  0  0  0  0  0
  -22.5830   -8.5423   21.2542 C   0  0  0  0  0  0  0  0  0  0  0  0
  -21.9930  -10.6857   22.2000 C   0  0  0  0  0  0  0  0  0  0  0  0
  -27.5832  -27.2171   20.0294 C   0  0  0  0  0  0  0  0  0  0  0  0
  -18.8538   -9.5203   21.7445 C   0  0  0  0  0  0  0  0  0  0  0  0
  -17.6038  -10.1370   21.7980 C   0  0  0  0  0  0  0  0  0  0  0  0
  -25.5382  -26.0990   20.6516 C   0  0  0  0  0  0  0  0  0  0  0  0
  -31.0143  -17.8449   19.0234 C   0  0  0  0  0  0  0  0  0  0  0  0
  -17.8163  -10.3598   24.1943 C   0  0  0  0  0  0  0  0  0  0  0  0
  -23.7737  -10.5316   20.5744 C   0  0  0  0  0  0  0  0  0  0  0  0
  -24.6599  -11.6980   18.4860 C   0  0  0  0  0  0  0  0  0  0  0  0
  -26.2421  -33.4727   24.6676 C   0  0  0  0  0  0  0  0  0  0  0  0
  -25.5401  -28.4966   20.3180 C   0  0  0  0  0  0  0  0  0  0  0  0
  -26.2091  -32.0992   24.3597 C   0  0  0  0  0  0  0  0  0  0  0  0
  -24.8455  -27.3192   20.6300 C   0  0  0  0  0  0  0  0  0  0  0  0
  -30.3431  -19.8628   17.8768 C   0  0  0  0  0  0  0  0  0  0  0  0
  -29.9558  -17.1562   18.4309 C   0  0  0  0  0  0  0  0  0  0  0  0
  -21.7928   -9.3081   22.1113 C   0  0  0  0  0  0  0  0  0  0  0  0
  -26.9000  -26.0489   20.3545 C   0  0  0  0  0  0  0  0  0  0  0  0
  -19.5850   -9.3233   22.9160 C   0  0  0  0  0  0  0  0  0  0  0  0
  -17.0851  -10.5568   23.0229 C   0  0  0  0  0  0  0  0  0  0  0  0
  -31.2079  -19.1982   18.7463 C   0  0  0  0  0  0  0  0  0  0  0  0
  -19.0662   -9.7431   24.1409 C   0  0  0  0  0  0  0  0  0  0  0  0
  -24.7970  -11.1640   19.7813 C   0  0  0  0  0  0  0  0  0  0  0  0
  -25.9094  -12.1785   18.1788 C   0  0  0  0  0  0  0  0  0  0  0  0
  -30.7689  -23.0743   19.4165 C   0  0  0  0  0  0  0  0  0  0  0  0
  -23.5063  -11.7549   17.6365 C   0  0  0  0  0  0  0  0  0  0  0  0
  -23.8147  -29.9246   22.5735 C   0  0  0  0  0  0  0  0  0  0  0  0
  -21.3208  -28.7895   20.8373 C   0  0  0  0  0  0  0  0  0  0  0  0
  -20.1545  -26.4856   18.6060 C   0  0  0  0  0  0  0  0  0  0  0  0
  -30.5265  -14.9724   19.5498 C   0  0  0  0  0  0  0  0  0  0  0  0
  -24.9949  -34.2305   25.0481 C   0  0  0  0  0  0  0  0  0  0  0  0
  -24.8183  -29.8151   20.2634 C   0  0  0  0  0  0  0  0  0  0  0  0
  -23.3742  -27.3280   20.9518 C   0  0  0  0  0  0  0  0  0  0  0  0
  -23.7045  -33.5198   24.6481 C   0  0  0  0  0  0  0  0  0  0  0  0
  -30.3484  -11.5541   20.5298 C   0  0  0  0  0  0  0  0  0  0  0  0
  -23.7633  -32.0465   25.0387 C   0  0  0  0  0  0  0  0  0  0  0  0
  -28.8770  -11.1918   20.3159 C   0  0  0  0  0  0  0  0  0  0  0  0
  -30.5118  -12.9845   21.0407 C   0  0  0  0  0  0  0  0  0  0  0  0
  -28.8031  -22.3580   19.2211 C   0  0  0  0  0  0  0  0  0  0  0  0
  -28.3710  -13.6501   20.0195 C   0  0  0  0  0  0  0  0  0  0  0  0
  -24.9076  -31.3286   24.3128 C   0  0  1  0  0  0  0  0  0  0  0  0
  -29.4584  -23.3939   20.1742 C   0  0  2  0  0  0  0  0  0  0  0  0
  -23.5419  -29.8325   21.0988 C   0  0  1  0  0  0  0  0  0  0  0  0
  -28.1595  -12.2404   19.4434 C   0  0  2  0  0  0  0  0  0  0  0  0
  -18.0638  -25.7883   17.4059 C   0  0  0  0  0  0  0  0  0  0  0  0
  -20.2737  -27.5178   23.4056 C   0  0  0  0  0  0  0  0  0  0  0  0
  -18.7696  -26.0900   22.0029 C   0  0  0  0  0  0  0  0  0  0  0  0
  -18.5165  -28.5715   21.9715 C   0  0  0  0  0  0  0  0  0  0  0  0
  -21.3712  -26.9843   15.9546 C   0  0  0  0  0  0  0  0  0  0  0  0
  -30.5467  -21.3198   17.5774 C   0  0  0  0  0  0  0  0  0  0  0  0
  -28.9700  -24.8251   20.0614 C   0  0  0  0  0  0  0  0  0  1  0  0
  -20.5122  -27.5147   20.8348 C   0  0  1  0  0  0  0  0  0  0  0  0
  -19.3248  -26.6361   17.3437 C   0  0  2  0  0  0  0  0  0  0  0  0
  -19.5461  -27.4233   22.0496 C   0  0  0  0  0  0  0  0  0  0  0  0
  -26.0358  -11.2926   20.2637 N   0  0  0  0  0  0  0  0  0  0  0  0
  -26.6887  -11.9130   19.2662 N   0  0  0  0  0  0  0  0  0  0  0  0
  -30.1291  -22.1528   18.6628 N   0  0  0  0  0  0  0  0  0  0  0  0
  -22.7141  -28.6426   20.8912 N   0  0  0  0  0  0  0  0  0  0  0  0
  -29.8097  -13.9228   20.1623 N   0  0  0  0  0  0  0  0  0  0  0  0
  -26.4067  -12.7978   17.0872 N   0  0  0  0  0  0  0  0  0  0  0  0
  -22.3021  -11.2145   18.1080 N   0  0  0  0  0  0  0  0  0  0  0  0
  -29.7604  -15.7810   18.7107 N   0  0  0  0  0  0  0  0  0  0  0  0
  -24.5370  -31.0431   22.9433 N   0  0  0  0  0  0  0  0  0  0  0  0
  -19.8479  -27.4552   19.5372 N   0  0  0  0  0  0  0  0  0  0  0  0
  -20.1147  -26.2167   16.1516 N   0  3  0  0  0  0  0  0  0  0  0  0
  -31.9126  -23.4666   19.4447 O   0  0  0  0  0  0  0  0  0  0  0  0
  -23.5463  -12.2548   16.4868 O   0  0  0  0  0  0  0  0  0  0  0  0
  -23.3992  -29.0467   23.3208 O   0  0  0  0  0  0  0  0  0  0  0  0
  -20.7379  -29.8754   20.7858 O   0  0  0  0  0  0  0  0  0  0  0  0
  -20.9882  -25.5947   18.7528 O   0  0  0  0  0  0  0  0  0  0  0  0
  -31.7369  -15.1252   19.7331 O   0  0  0  0  0  0  0  0  0  0  0  0
  -20.8261   -8.7116   22.8611 O   0  0  0  0  0  0  0  0  0  0  0  0
  -27.5586  -24.8583   20.3776 O   0  0  0  0  0  0  0  0  0  1  0  0
  -15.8854  -11.1504   23.0739 F   0  0  0  0  0  0  0  0  0  0  0  0
  -32.2276  -19.8515   19.3205 F   0  0  0  0  0  0  0  0  0  0  0  0
  -19.7646   -9.5576   25.2695 F   0  0  0  0  0  0  0  0  0  0  0  0
  1  2  1  0  0  0  0
  1  5  2  0  0  0  0
  2  6  2  0  0  0  0
  3 10  2  0  0  0  0
  3 18  1  0  0  0  0
  4 11  1  0  0  0  0
  4 18  2  0  0  0  0
  5 20  1  0  0  0  0
  6 22  1  0  0  0  0
  7 12  2  0  0  0  0
  7 21  1  0  0  0  0
  8  9  2  0  0  0  0
  8 24  1  0  0  0  0
  9 25  1  0  0  0  0
 10 26  1  0  0  0  0
 11 26  2  0  0  0  0
 12 27  1  0  0  0  0
 13 14  2  0  0  0  0
 13 28  1  0  0  0  0
 14 29  1  0  0  0  0
 15 23  1  0  0  0  0
 15 27  2  0  0  0  0
 16 25  2  0  0  0  0
 16 30  1  0  0  0  0
 17 29  2  0  0  0  0
 17 31  1  0  0  0  0
 18 32  1  0  0  0  0
 19 32  1  0  0  0  0
 19 33  2  0  0  0  0
 19 35  1  0  0  0  0
 20 22  2  0  0  0  0
 20 40  1  0  0  0  0
 21 23  2  0  0  0  0
 21 41  1  0  0  0  0
 22 50  1  0  0  0  0
 23 42  1  0  0  0  0
 24 30  2  0  0  0  0
 24 59  1  0  0  0  0
 25 71  1  0  0  0  0
 26 81  1  0  0  0  0
 27 82  1  0  0  0  0
 28 31  2  0  0  0  0
 28 81  1  0  0  0  0
 29 83  1  0  0  0  0
 30 84  1  0  0  0  0
 31 85  1  0  0  0  0
 32 64  2  0  0  0  0
 33 65  1  0  0  0  0
 33 69  1  0  0  0  0
 34 51  1  0  0  0  0
 34 66  1  0  0  0  0
 34 75  2  0  0  0  0
 35 70  1  0  0  0  0
 35 76  2  0  0  0  0
 36 52  1  0  0  0  0
 36 72  1  0  0  0  0
 36 77  2  0  0  0  0
 37 61  1  0  0  0  0
 37 67  1  0  0  0  0
 37 78  2  0  0  0  0
 38 62  1  0  0  0  0
 38 73  1  0  0  0  0
 38 79  2  0  0  0  0
 39 68  1  0  0  0  0
 39 71  1  0  0  0  0
 39 80  2  0  0  0  0
 40 43  1  0  0  0  0
 41 52  1  0  0  0  0
 42 67  1  0  0  0  0
 43 45  1  0  0  0  0
 44 46  1  0  0  0  0
 44 47  1  0  0  0  0
 45 50  1  0  0  0  0
 46 53  1  0  0  0  0
 47 68  1  0  0  0  0
 48 51  1  0  0  0  0
 48 66  1  0  0  0  0
 49 53  1  0  0  0  0
 49 68  1  0  0  0  0
 50 72  1  0  0  0  0
 51 60  1  0  0  0  0
 52 67  1  0  0  0  0
 53 65  1  0  0  0  0
 54 62  1  0  0  0  0
 55 63  1  0  0  0  0
 56 63  1  0  0  0  0
 57 63  1  0  0  0  0
 58 74  1  0  0  0  0
 59 66  1  0  0  0  0
 60 82  1  0  0  0  0
 61 63  1  0  0  0  0
 61 73  1  0  0  0  0
 62 74  1  0  0  0  0
 64 65  1  0  0  0  0
M  CHG  1  74   1
M  ISO  4  39 100  60 101  71 100  82 101
M  END
> <Batch ID>
0015

> <Smiles>
CNC(C)C(=O)NC(C(=O)N1Cc2cc([101O:1][101CH2:1]C3CN(Cc4ccc([100NH:0][100C:0](=O)N5CCCC(n6nc(-c7ccc(Oc8ccc(F)cc8F)cc7)c(C(N)=O)c6N)C5)cc4F)C3=O)ccc2CC1C(=O)NC1CCCc2ccccc21)C(C)(C)C

> <Shape>
0.276

> <Color>
0.078

> <Negative vol penalty>
0.000

$$$$

  -OEChem-04042320543D

 83 92  0     1  0  0  0  0  0999 V2000
  -26.3824  -38.1074   23.1638 C   0  0  0  0  0  0  0  0  0  0  0  0
  -27.2235  -37.0777   22.7544 C   0  0  0  0  0  0  0  0  0  0  0  0
  -23.5668   -9.5574   19.8123 C   0  0  0  0  0  0  0  0  0  0  0  0
  -24.4144   -9.5296   22.0746 C   0  0  0  0  0  0  0  0  0  0  0  0
  -25.1540  -37.8102   23.7525 C   0  0  0  0  0  0  0  0  0  0  0  0
  -26.8372  -35.7500   22.9345 C   0  0  0  0  0  0  0  0  0  0  0  0
  -27.4593  -29.2932   19.8951 C   0  0  0  0  0  0  0  0  0  0  0  0
  -29.0134  -23.6903   22.5220 C   0  0  0  0  0  0  0  0  0  0  0  0
  -28.8147  -23.0319   20.2059 C   0  0  0  0  0  0  0  0  0  0  0  0
  -29.1985  -22.3564   22.8853 C   0  0  0  0  0  0  0  0  0  0  0  0
  -28.9998  -21.6980   20.5692 C   0  0  0  0  0  0  0  0  0  0  0  0
  -23.0662   -8.2669   19.9840 C   0  0  0  0  0  0  0  0  0  0  0  0
  -23.9137   -8.2390   22.2463 C   0  0  0  0  0  0  0  0  0  0  0  0
  -27.8359  -27.9876   20.2072 C   0  0  0  0  0  0  0  0  0  0  0  0
  -20.9249   -6.7914   22.8722 C   0  0  0  0  0  0  0  0  0  0  0  0
  -20.2427   -6.5148   24.0570 C   0  0  0  0  0  0  0  0  0  0  0  0
  -25.6565  -27.5940   21.1635 C   0  0  0  0  0  0  0  0  0  0  0  0
  -21.8597   -4.7999   24.5877 C   0  0  0  0  0  0  0  0  0  0  0  0
  -24.2409  -10.1888   20.8576 C   0  0  0  0  0  0  0  0  0  0  0  0
  -24.0939  -12.7340   20.9450 C   0  0  0  0  0  0  0  0  0  0  0  0
  -24.7482  -36.4783   23.9311 C   0  0  0  0  0  0  0  0  0  0  0  0
  -26.1800  -29.7631   20.2252 C   0  0  0  0  0  0  0  0  0  0  0  0
  -25.6028  -35.4347   23.5274 C   0  0  0  0  0  0  0  0  0  0  0  0
  -25.2652  -28.9051   20.8522 C   0  0  0  0  0  0  0  0  0  0  0  0
  -28.8215  -24.0281   21.1822 C   0  0  0  0  0  0  0  0  0  0  0  0
  -29.1917  -21.3603   21.9090 C   0  0  0  0  0  0  0  0  0  0  0  0
  -23.2396   -7.6077   21.2009 C   0  0  0  0  0  0  0  0  0  0  0  0
  -26.9354  -27.1387   20.8441 C   0  0  0  0  0  0  0  0  0  0  0  0
  -22.0744   -6.0721   22.5451 C   0  0  0  0  0  0  0  0  0  0  0  0
  -20.7101   -5.5191   24.9148 C   0  0  0  0  0  0  0  0  0  0  0  0
  -22.5418   -5.0764   23.4028 C   0  0  0  0  0  0  0  0  0  0  0  0
  -24.7588  -11.5217   20.6808 C   0  0  0  0  0  0  0  0  0  0  0  0
  -25.0073  -13.7055   20.6157 C   0  0  0  0  0  0  0  0  0  0  0  0
  -22.7690  -12.9617   21.4437 C   0  0  0  0  0  0  0  0  0  0  0  0
  -25.0523  -32.0738   22.0941 C   0  0  0  0  0  0  0  0  0  0  0  0
  -22.2109  -31.2064   20.7918 C   0  0  0  0  0  0  0  0  0  0  0  0
  -20.3383  -28.7946   19.2675 C   0  0  0  0  0  0  0  0  0  0  0  0
  -30.2026  -15.7403   20.7303 C   0  0  0  0  0  0  0  0  0  0  0  0
  -23.4320  -36.2060   24.6154 C   0  0  0  0  0  0  0  0  0  0  0  0
  -25.7801  -31.1658   19.8576 C   0  0  0  0  0  0  0  0  0  0  0  0
  -23.8729  -29.3548   21.2096 C   0  0  0  0  0  0  0  0  0  0  0  0
  -22.9331  -34.7754   24.4291 C   0  0  0  0  0  0  0  0  0  0  0  0
  -29.4294  -13.3773   18.1819 C   0  0  0  0  0  0  0  0  0  0  0  0
  -24.0610  -33.7797   24.6805 C   0  0  0  0  0  0  0  0  0  0  0  0
  -28.0943  -12.7799   18.6298 C   0  0  0  0  0  0  0  0  0  0  0  0
  -29.4400  -18.0700   23.5571 C   0  0  0  0  0  0  0  0  0  0  0  0
  -30.3415  -13.6748   19.3699 C   0  0  0  0  0  0  0  0  0  0  0  0
  -29.5866  -19.5892   23.6410 C   0  0  0  0  0  0  0  0  0  0  0  0
  -28.4005  -13.9157   20.8693 C   0  0  0  0  0  0  0  0  0  0  0  0
  -29.3612  -18.9247   21.3247 C   0  0  0  0  0  0  0  0  0  0  0  0
  -25.2081  -33.9821   23.6831 C   0  0  1  0  0  0  0  0  0  0  0  0
  -24.6272  -31.6992   20.7025 C   0  0  1  0  0  0  0  0  0  0  0  0
  -27.4247  -13.6506   19.7100 C   0  0  2  0  0  0  0  0  0  0  0  0
  -29.9168  -17.7593   22.1449 C   0  0  2  0  0  0  0  0  0  0  0  0
  -18.0391  -28.3676   18.3572 C   0  0  0  0  0  0  0  0  0  0  0  0
  -21.1467  -30.8912   23.6340 C   0  0  0  0  0  0  0  0  0  0  0  0
  -19.2278  -29.5849   22.6962 C   0  0  0  0  0  0  0  0  0  0  0  0
  -19.5524  -31.9687   22.0366 C   0  0  0  0  0  0  0  0  0  0  0  0
  -21.3805  -28.3224   16.5381 C   0  0  0  0  0  0  0  0  0  0  0  0
  -28.6219  -25.4627   20.7905 C   0  0  0  0  0  0  0  0  0  1  0  0
  -21.1334  -30.2093   21.1439 C   0  0  1  0  0  0  0  0  0  0  0  0
  -19.4500  -28.8365   18.0372 C   0  0  2  0  0  0  0  0  0  0  0  0
  -20.2919  -30.6554   22.3728 C   0  0  0  0  0  0  0  0  0  0  0  0
  -25.9988  -11.7037   20.2190 N   0  0  0  0  0  0  0  0  0  0  0  0
  -26.1203  -13.0418   20.1904 N   0  0  0  0  0  0  0  0  0  0  0  0
  -29.3764  -20.0420   22.2675 N   0  0  3  0  0  0  0  0  0  0  0  0
  -23.5314  -30.7371   20.8353 N   0  0  0  0  0  0  0  0  0  0  0  0
  -29.6471  -14.5055   20.3567 N   0  0  0  0  0  0  0  0  0  0  0  0
  -24.9589  -15.0541   20.6512 N   0  0  0  0  0  0  0  0  0  0  0  0
  -21.9633  -11.8515   21.7311 N   0  0  0  0  0  0  0  0  0  0  0  0
  -24.8679  -33.4090   22.3985 N   0  0  0  0  0  0  0  0  0  0  0  0
  -20.3535  -30.0048   19.9280 N   0  0  0  0  0  0  0  0  0  0  0  0
  -29.4774  -16.4676   21.6662 N   0  0  0  0  0  0  0  0  0  0  0  0
  -20.0052  -27.9601   16.9673 N   0  3  0  0  0  0  0  0  0  0  0  0
  -22.3074  -14.1157   21.6134 O   0  0  0  0  0  0  0  0  0  0  0  0
  -25.5122  -31.2147   22.8373 O   0  0  0  0  0  0  0  0  0  0  0  0
  -21.8922  -32.3572   20.4825 O   0  0  0  0  0  0  0  0  0  0  0  0
  -20.9541  -27.7877   19.6105 O   0  0  0  0  0  0  0  0  0  0  0  0
  -31.2633  -16.1658   20.2604 O   0  0  0  0  0  0  0  0  0  0  0  0
  -22.7510   -6.3485   21.3689 O   0  0  0  0  0  0  0  0  0  0  0  0
  -27.3007  -25.8641   21.1505 O   0  0  0  0  0  0  0  0  0  1  0  0
  -20.0558   -5.2546   26.0532 F   0  0  0  0  0  0  0  0  0  0  0  0
  -23.6463   -4.3830   23.0945 F   0  0  0  0  0  0  0  0  0  0  0  0
  1  2  1  0  0  0  0
  1  5  2  0  0  0  0
  2  6  2  0  0  0  0
  3 12  2  0  0  0  0
  3 19  1  0  0  0  0
  4 13  1  0  0  0  0
  4 19  2  0  0  0  0
  5 21  1  0  0  0  0
  6 23  1  0  0  0  0
  7 14  2  0  0  0  0
  7 22  1  0  0  0  0
  8 10  2  0  0  0  0
  8 25  1  0  0  0  0
  9 11  1  0  0  0  0
  9 25  2  0  0  0  0
 10 26  1  0  0  0  0
 11 26  2  0  0  0  0
 12 27  1  0  0  0  0
 13 27  2  0  0  0  0
 14 28  1  0  0  0  0
 15 16  2  0  0  0  0
 15 29  1  0  0  0  0
 16 30  1  0  0  0  0
 17 24  1  0  0  0  0
 17 28  2  0  0  0  0
 18 30  2  0  0  0  0
 18 31  1  0  0  0  0
 19 32  1  0  0  0  0
 20 32  1  0  0  0  0
 20 33  2  0  0  0  0
 20 34  1  0  0  0  0
 21 23  2  0  0  0  0
 21 39  1  0  0  0  0
 22 24  2  0  0  0  0
 22 40  1  0  0  0  0
 23 51  1  0  0  0  0
 24 41  1  0  0  0  0
 25 60  1  0  0  0  0
 26 66  1  0  0  0  0
 27 80  1  0  0  0  0
 28 81  1  0  0  0  0
 29 31  2  0  0  0  0
 29 80  1  0  0  0  0
 30 82  1  0  0  0  0
 31 83  1  0  0  0  0
 32 64  2  0  0  0  0
 33 65  1  0  0  0  0
 33 69  1  0  0  0  0
 34 70  1  0  0  0  0
 34 75  2  0  0  0  0
 35 52  1  0  0  0  0
 35 71  1  0  0  0  0
 35 76  2  0  0  0  0
 36 61  1  0  0  0  0
 36 67  1  0  0  0  0
 36 77  2  0  0  0  0
 37 62  1  0  0  0  0
 37 72  1  0  0  0  0
 37 78  2  0  0  0  0
 38 68  1  0  0  0  0
 38 73  1  0  0  0  0
 38 79  2  0  0  0  0
 39 42  1  0  0  0  0
 40 52  1  0  0  0  0
 41 67  1  0  0  0  0
 42 44  1  0  0  0  0
 43 45  1  0  0  0  0
 43 47  1  0  0  0  0
 44 51  1  0  0  0  0
 45 53  1  0  0  0  0
 46 48  1  0  0  0  0
 46 54  1  0  0  0  0
 47 68  1  0  0  0  0
 48 66  1  0  0  0  0
 49 53  1  0  0  0  0
 49 68  1  0  0  0  0
 50 54  1  0  0  0  0
 50 66  1  0  0  0  0
 51 71  1  0  0  0  0
 52 67  1  0  0  0  0
 53 65  1  0  0  0  0
 54 73  1  0  0  0  0
 55 62  1  0  0  0  0
 56 63  1  0  0  0  0
 57 63  1  0  0  0  0
 58 63  1  0  0  0  0
 59 74  1  0  0  0  0
 60 81  1  0  0  0  0
 61 63  1  0  0  0  0
 61 72  1  0  0  0  0
 62 74  1  0  0  0  0
 64 65  1  0  0  0  0
M  CHG  1  74   1
M  ISO  4  38 100  60 101  73 100  81 101
M  END
> <Batch ID>
0015

> <Smiles>
CNC(C)C(=O)NC(C(=O)N1Cc2cc([101O:1][101CH2:1]c3ccc(N4CCC([100NH:0][100C:0](=O)N5CCCC(n6nc(-c7ccc(Oc8ccc(F)cc8F)cc7)c(C(N)=O)c6N)C5)C4)cc3)ccc2CC1C(=O)NC1CCCc2ccccc21)C(C)(C)C

> <Shape>
0.362

> <Color>
0.161

> <Negative vol penalty>
0.000

$$$$

  -OEChem-04042320543D

 83 91  0     1  0  0  0  0  0999 V2000
  -28.3287  -38.0367   24.2618 C   0  0  0  0  0  0  0  0  0  0  0  0
  -28.7520  -36.9838   23.4570 C   0  0  0  0  0  0  0  0  0  0  0  0
  -26.4990  -12.5857   21.6256 C   0  0  0  0  0  0  0  0  0  0  0  0
  -26.1065  -13.6175   19.4765 C   0  0  0  0  0  0  0  0  0  0  0  0
  -27.4166  -37.8034   25.2902 C   0  0  0  0  0  0  0  0  0  0  0  0
  -28.2643  -35.6968   23.6809 C   0  0  0  0  0  0  0  0  0  0  0  0
  -27.1086  -31.4119   19.4607 C   0  0  0  0  0  0  0  0  0  0  0  0
  -28.5584  -23.6715   18.8778 C   0  0  0  0  0  0  0  0  0  0  0  0
  -29.0454  -22.6232   19.6584 C   0  0  0  0  0  0  0  0  0  0  0  0
  -25.2362  -11.9956   21.5729 C   0  0  0  0  0  0  0  0  0  0  0  0
  -24.8437  -13.0274   19.4239 C   0  0  0  0  0  0  0  0  0  0  0  0
  -27.8411  -30.3125   19.0153 C   0  0  0  0  0  0  0  0  0  0  0  0
  -22.2590   -9.9265   21.8384 C   0  0  0  0  0  0  0  0  0  0  0  0
  -22.1562   -8.5818   22.1945 C   0  0  0  0  0  0  0  0  0  0  0  0
  -26.6173  -28.8903   20.5315 C   0  0  0  0  0  0  0  0  0  0  0  0
  -28.3009  -22.1610   17.0099 C   0  0  0  0  0  0  0  0  0  0  0  0
  -23.6846   -7.9944   20.4180 C   0  0  0  0  0  0  0  0  0  0  0  0
  -26.9341  -13.3967   20.5774 C   0  0  0  0  0  0  0  0  0  0  0  0
  -29.4484  -13.4703   20.1526 C   0  0  0  0  0  0  0  0  0  0  0  0
  -26.9101  -36.5147   25.5207 C   0  0  0  0  0  0  0  0  0  0  0  0
  -26.1308  -31.2604   20.4544 C   0  0  0  0  0  0  0  0  0  0  0  0
  -27.3456  -35.4458   24.7142 C   0  0  0  0  0  0  0  0  0  0  0  0
  -25.8720  -29.9890   20.9860 C   0  0  0  0  0  0  0  0  0  0  0  0
  -28.1860  -23.4404   17.5535 C   0  0  0  0  0  0  0  0  0  0  0  0
  -29.1603  -21.3438   19.1148 C   0  0  0  0  0  0  0  0  0  0  0  0
  -24.4085  -12.2165   20.4721 C   0  0  0  0  0  0  0  0  0  0  0  0
  -27.5975  -29.0519   19.5527 C   0  0  0  0  0  0  0  0  0  0  0  0
  -23.0746  -10.3052   20.7721 C   0  0  0  0  0  0  0  0  0  0  0  0
  -22.8690   -7.6158   21.4844 C   0  0  0  0  0  0  0  0  0  0  0  0
  -28.7880  -21.1126   17.7905 C   0  0  0  0  0  0  0  0  0  0  0  0
  -23.7874   -9.3392   20.0619 C   0  0  0  0  0  0  0  0  0  0  0  0
  -28.2383  -14.0069   20.6315 C   0  0  0  0  0  0  0  0  0  0  0  0
  -30.3876  -14.4301   20.4410 C   0  0  0  0  0  0  0  0  0  0  0  0
  -29.7010  -12.2163   19.5049 C   0  0  0  0  0  0  0  0  0  0  0  0
  -25.7254  -32.3985   23.3945 C   0  0  0  0  0  0  0  0  0  0  0  0
  -22.8596  -30.8968   23.1609 C   0  0  0  0  0  0  0  0  0  0  0  0
  -20.9829  -28.4467   21.7043 C   0  0  0  0  0  0  0  0  0  0  0  0
  -30.0687  -20.3431   21.2408 C   0  0  0  0  0  0  0  0  0  0  0  0
  -25.9621  -36.3029   26.6744 C   0  0  0  0  0  0  0  0  0  0  0  0
  -25.3308  -32.4517   20.9050 C   0  0  0  0  0  0  0  0  0  0  0  0
  -24.8190  -29.7696   22.0404 C   0  0  0  0  0  0  0  0  0  0  0  0
  -25.2073  -34.9777   26.6072 C   0  0  0  0  0  0  0  0  0  0  0  0
  -31.3145  -17.9449   23.5589 C   0  0  0  0  0  0  0  0  0  0  0  0
  -26.1632  -33.8348   26.2802 C   0  0  0  0  0  0  0  0  0  0  0  0
  -30.7822  -16.6134   23.0243 C   0  0  0  0  0  0  0  0  0  0  0  0
  -30.3072  -19.0770   23.3657 C   0  0  0  0  0  0  0  0  0  0  0  0
  -29.2767  -17.9058   21.4590 C   0  0  0  0  0  0  0  0  0  0  0  0
  -26.8204  -34.0402   24.9100 C   0  0  1  0  0  0  0  0  0  0  0  0
  -24.7158  -32.2696   22.2892 C   0  0  1  0  0  0  0  0  0  0  0  0
  -30.2823  -16.7484   21.5726 C   0  0  2  0  0  0  0  0  0  0  0  0
  -18.6853  -27.4383   21.7455 C   0  0  0  0  0  0  0  0  0  0  0  0
  -23.5347  -29.4715   25.7730 C   0  0  0  0  0  0  0  0  0  0  0  0
  -21.7104  -27.8326   25.2691 C   0  0  0  0  0  0  0  0  0  0  0  0
  -21.1636  -30.2453   25.5893 C   0  0  0  0  0  0  0  0  0  0  0  0
  -27.3053  -24.2505   15.3791 C   0  0  0  0  0  0  0  0  0  0  0  0
  -20.5037  -29.1347   18.8660 C   0  0  0  0  0  0  0  0  0  0  0  0
  -28.8784  -26.5734   17.2581 C   0  0  0  0  0  0  0  0  0  0  0  0
  -27.5508  -25.8266   17.3036 C   0  0  0  0  0  0  0  0  0  0  0  0
  -28.7736  -28.0051   17.7703 C   0  0  0  0  0  0  0  0  0  1  0  0
  -22.3490  -29.5124   23.4798 C   0  0  1  0  0  0  0  0  0  0  0  0
  -19.5927  -28.4708   21.0949 C   0  0  2  0  0  0  0  0  0  0  0  0
  -22.2107  -29.2696   25.0093 C   0  0  0  0  0  0  0  0  0  0  0  0
  -28.3917  -15.2139   21.1824 N   0  0  0  0  0  0  0  0  0  0  0  0
  -29.7093  -15.4437   21.0516 N   0  0  0  0  0  0  0  0  0  0  0  0
  -24.0677  -30.9667   22.4527 N   0  0  0  0  0  0  0  0  0  0  0  0
  -29.8818  -19.1474   21.9660 N   0  0  0  0  0  0  0  0  0  0  0  0
  -31.7192  -14.4975   20.2294 N   0  0  0  0  0  0  0  0  0  0  0  0
  -28.6227  -11.3483   19.2859 N   0  0  0  0  0  0  0  0  0  0  0  0
  -29.6559  -20.2810   19.9103 N   0  0  0  0  0  0  0  0  0  0  0  0
  -25.8987  -33.6915   23.8501 N   0  0  0  0  0  0  0  0  0  0  0  0
  -21.1046  -29.3547   22.7349 N   0  0  0  0  0  0  0  0  0  0  0  0
  -27.6958  -24.4942   16.7690 N   0  0  3  0  0  0  0  0  0  0  0  0
  -19.6623  -28.1817   19.6346 N   0  3  0  0  0  0  0  0  0  0  0  0
  -30.8517  -11.8687   19.1462 O   0  0  0  0  0  0  0  0  0  0  0  0
  -26.3032  -31.3988   23.8047 O   0  0  0  0  0  0  0  0  0  0  0  0
  -22.2070  -31.8798   23.5204 O   0  0  0  0  0  0  0  0  0  0  0  0
  -21.8708  -27.6948   21.3084 O   0  0  0  0  0  0  0  0  0  0  0  0
  -30.5840  -21.3397   21.7541 O   0  0  0  0  0  0  0  0  0  0  0  0
  -23.1763  -11.6407   20.4203 O   0  0  0  0  0  0  0  0  0  0  0  0
  -28.3115  -27.9772   19.1201 O   0  0  0  0  0  0  0  0  0  1  0  0
  -22.7713   -6.3247   21.8274 F   0  0  0  0  0  0  0  0  0  0  0  0
  -28.8947  -19.8870   17.2577 F   0  0  0  0  0  0  0  0  0  0  0  0
  -24.5735   -9.6970   19.0373 F   0  0  0  0  0  0  0  0  0  0  0  0
  1  2  1  0  0  0  0
  1  5  2  0  0  0  0
  2  6  2  0  0  0  0
  3 10  2  0  0  0  0
  3 18  1  0  0  0  0
  4 11  1  0  0  0  0
  4 18  2  0  0  0  0
  5 20  1  0  0  0  0
  6 22  1  0  0  0  0
  7 12  2  0  0  0  0
  7 21  1  0  0  0  0
  8  9  2  0  0  0  0
  8 24  1  0  0  0  0
  9 25  1  0  0  0  0
 10 26  1  0  0  0  0
 11 26  2  0  0  0  0
 12 27  1  0  0  0  0
 13 14  2  0  0  0  0
 13 28  1  0  0  0  0
 14 29  1  0  0  0  0
 15 23  1  0  0  0  0
 15 27  2  0  0  0  0
 16 24  2  0  0  0  0
 16 30  1  0  0  0  0
 17 29  2  0  0  0  0
 17 31  1  0  0  0  0
 18 32  1  0  0  0  0
 19 32  1  0  0  0  0
 19 33  2  0  0  0  0
 19 34  1  0  0  0  0
 20 22  2  0  0  0  0
 20 39  1  0  0  0  0
 21 23  2  0  0  0  0
 21 40  1  0  0  0  0
 22 48  1  0  0  0  0
 23 41  1  0  0  0  0
 24 72  1  0  0  0  0
 25 30  2  0  0  0  0
 25 69  1  0  0  0  0
 26 79  1  0  0  0  0
 27 80  1  0  0  0  0
 28 31  2  0  0  0  0
 28 79  1  0  0  0  0
 29 81  1  0  0  0  0
 30 82  1  0  0  0  0
 31 83  1  0  0  0  0
 32 63  2  0  0  0  0
 33 64  1  0  0  0  0
 33 67  1  0  0  0  0
 34 68  1  0  0  0  0
 34 74  2  0  0  0  0
 35 49  1  0  0  0  0
 35 70  1  0  0  0  0
 35 75  2  0  0  0  0
 36 60  1  0  0  0  0
 36 65  1  0  0  0  0
 36 76  2  0  0  0  0
 37 61  1  0  0  0  0
 37 71  1  0  0  0  0
 37 77  2  0  0  0  0
 38 66  1  0  0  0  0
 38 69  1  0  0  0  0
 38 78  2  0  0  0  0
 39 42  1  0  0  0  0
 40 49  1  0  0  0  0
 41 65  1  0  0  0  0
 42 44  1  0  0  0  0
 43 45  1  0  0  0  0
 43 46  1  0  0  0  0
 44 48  1  0  0  0  0
 45 50  1  0  0  0  0
 46 66  1  0  0  0  0
 47 50  1  0  0  0  0
 47 66  1  0  0  0  0
 48 70  1  0  0  0  0
 49 65  1  0  0  0  0
 50 64  1  0  0  0  0
 51 61  1  0  0  0  0
 52 62  1  0  0  0  0
 53 62  1  0  0  0  0
 54 62  1  0  0  0  0
 55 72  1  0  0  0  0
 56 73  1  0  0  0  0
 57 58  1  0  0  0  0
 57 59  1  0  0  0  0
 58 72  1  0  0  0  0
 59 80  1  0  0  0  0
 60 62  1  0  0  0  0
 60 71  1  0  0  0  0
 61 73  1  0  0  0  0
 63 64  1  0  0  0  0
M  CHG  1  73   1
M  ISO  4  38 100  59 101  69 100  80 101
M  END
> <Batch ID>
0015

> <Smiles>
CNC(C)C(=O)NC(C(=O)N1Cc2cc([101O:1][101CH2:1]CCN(C)c3ccc([100NH:0][100C:0](=O)N4CCCC(n5nc(-c6ccc(Oc7ccc(F)cc7F)cc6)c(C(N)=O)c5N)C4)c(F)c3)ccc2CC1C(=O)NC1CCCc2ccccc21)C(C)(C)C

> <Shape>
0.328

> <Color>
0.095

> <Negative vol penalty>
0.000

$$$$

  -OEChem-04042320543D

 82 90  0     1  0  0  0  0  0999 V2000
  -30.9884  -10.4167   20.4790 C   0  0  0  0  0  0  0  0  0  0  0  0
  -30.9141  -11.7639   20.1402 C   0  0  0  0  0  0  0  0  0  0  0  0
  -25.0540  -21.3682   22.8685 C   0  0  0  0  0  0  0  0  0  0  0  0
  -25.0301  -32.9533   23.5474 C   0  0  0  0  0  0  0  0  0  0  0  0
  -26.9813  -31.5411   23.3590 C   0  0  0  0  0  0  0  0  0  0  0  0
  -29.8746   -9.5947   20.3123 C   0  0  0  0  0  0  0  0  0  0  0  0
  -29.7262  -12.2898   19.6334 C   0  0  0  0  0  0  0  0  0  0  0  0
  -28.5100  -16.7290   21.7452 C   0  0  0  0  0  0  0  0  0  0  0  0
  -24.3176  -22.4902   22.4885 C   0  0  0  0  0  0  0  0  0  0  0  0
  -26.4390  -21.3544   22.7037 C   0  0  0  0  0  0  0  0  0  0  0  0
  -25.6484  -33.6710   24.5712 C   0  0  0  0  0  0  0  0  0  0  0  0
  -27.5997  -32.2589   24.3827 C   0  0  0  0  0  0  0  0  0  0  0  0
  -29.1935  -17.8572   21.2940 C   0  0  0  0  0  0  0  0  0  0  0  0
  -27.9863  -36.0976   24.8518 C   0  0  0  0  0  0  0  0  0  0  0  0
  -27.9097  -37.4895   24.8053 C   0  0  0  0  0  0  0  0  0  0  0  0
  -27.3139  -18.4286   19.8940 C   0  0  0  0  0  0  0  0  0  0  0  0
  -26.7795  -37.4986   26.9406 C   0  0  0  0  0  0  0  0  0  0  0  0
  -25.6965  -31.8883   22.9413 C   0  0  0  0  0  0  0  0  0  0  0  0
  -25.1175  -31.4120   20.5030 C   0  0  0  0  0  0  0  0  0  0  0  0
  -28.6695  -10.1129   19.8123 C   0  0  0  0  0  0  0  0  0  0  0  0
  -27.2255  -16.4356   21.2652 C   0  0  0  0  0  0  0  0  0  0  0  0
  -28.5956  -11.4737   19.4586 C   0  0  0  0  0  0  0  0  0  0  0  0
  -26.6152  -17.2974   20.3426 C   0  0  0  0  0  0  0  0  0  0  0  0
  -24.9662  -23.5984   21.9435 C   0  0  0  0  0  0  0  0  0  0  0  0
  -26.9332  -33.3239   24.9888 C   0  0  0  0  0  0  0  0  0  0  0  0
  -28.5967  -18.7057   20.3661 C   0  0  0  0  0  0  0  0  0  0  0  0
  -27.4594  -35.4061   25.9426 C   0  0  0  0  0  0  0  0  0  0  0  0
  -27.0877  -22.4625   22.1588 C   0  0  0  0  0  0  0  0  0  0  0  0
  -27.3064  -38.1901   25.8497 C   0  0  0  0  0  0  0  0  0  0  0  0
  -26.8560  -36.1066   26.9871 C   0  0  0  0  0  0  0  0  0  0  0  0
  -26.3513  -23.5845   21.7787 C   0  0  0  0  0  0  0  0  0  0  0  0
  -25.0581  -31.1461   21.8841 C   0  0  0  0  0  0  0  0  0  0  0  0
  -24.3504  -30.4271   19.9304 C   0  0  0  0  0  0  0  0  0  0  0  0
  -25.8046  -32.4560   19.8005 C   0  0  0  0  0  0  0  0  0  0  0  0
  -25.9352  -14.0318   19.6340 C   0  0  0  0  0  0  0  0  0  0  0  0
  -23.1743  -15.6322   20.2161 C   0  0  0  0  0  0  0  0  0  0  0  0
  -21.6387  -18.5940   20.9347 C   0  0  0  0  0  0  0  0  0  0  0  0
  -22.8351  -24.9109   21.6571 C   0  0  0  0  0  0  0  0  0  0  0  0
  -27.5066   -9.1751   19.6052 C   0  0  0  0  0  0  0  0  0  0  0  0
  -26.4908  -15.2291   21.7820 C   0  0  0  0  0  0  0  0  0  0  0  0
  -25.2299  -17.0381   19.8115 C   0  0  0  0  0  0  0  0  0  0  0  0
  -26.1725   -9.8921   19.4141 C   0  0  0  0  0  0  0  0  0  0  0  0
  -20.6150  -27.5765   20.8554 C   0  0  0  0  0  0  0  0  0  0  0  0
  -26.3205  -11.0389   18.4192 C   0  0  0  0  0  0  0  0  0  0  0  0
  -21.5091  -28.8179   20.8966 C   0  0  0  0  0  0  0  0  0  0  0  0
  -21.0004  -26.5640   21.9325 C   0  0  0  0  0  0  0  0  0  0  0  0
  -23.3108  -27.4176   21.9829 C   0  0  0  0  0  0  0  0  0  0  0  0
  -27.3173  -12.0866   18.9292 C   0  0  1  0  0  0  0  0  0  0  0  0
  -25.3928  -14.7485   20.8381 C   0  0  1  0  0  0  0  0  0  0  0  0
  -23.0026  -28.4376   20.8747 C   0  0  2  0  0  0  0  0  0  0  0  0
  -19.7752  -20.1675   21.5254 C   0  0  0  0  0  0  0  0  0  0  0  0
  -22.6403  -15.5505   17.2131 C   0  0  0  0  0  0  0  0  0  0  0  0
  -20.9174  -17.3372   17.5414 C   0  0  0  0  0  0  0  0  0  0  0  0
  -20.6340  -15.1164   18.6417 C   0  0  0  0  0  0  0  0  0  0  0  0
  -22.0400  -18.1647   23.8353 C   0  0  0  0  0  0  0  0  0  0  0  0
  -30.2848  -21.9045   20.5376 C   0  0  0  0  0  0  0  0  0  0  0  0
  -30.1850  -20.4148   20.8263 C   0  0  0  0  0  0  0  0  0  1  0  0
  -28.9403  -22.6017   20.6742 C   0  0  0  0  0  0  0  0  0  0  0  0
  -22.3944  -16.7121   19.5058 C   0  0  1  0  0  0  0  0  0  0  0  0
  -20.5861  -18.9587   21.9659 C   0  0  2  0  0  0  0  0  0  0  0  0
  -21.6734  -16.1832   18.2339 C   0  0  0  0  0  0  0  0  0  0  0  0
  -24.3121  -30.0761   22.1716 N   0  0  0  0  0  0  0  0  0  0  0  0
  -23.8956  -29.6610   20.9631 N   0  0  0  0  0  0  0  0  0  0  0  0
  -24.5548  -15.8423   20.3425 N   0  0  0  0  0  0  0  0  0  0  0  0
  -22.4280  -26.2483   21.8479 N   0  0  0  0  0  0  0  0  0  0  0  0
  -24.0272  -30.1502   18.6493 N   0  0  0  0  0  0  0  0  0  0  0  0
  -26.5472  -33.3844   20.5428 N   0  0  0  0  0  0  0  0  0  0  0  0
  -24.2153  -24.7368   21.5592 N   0  0  0  0  0  0  0  0  0  0  0  0
  -26.7008  -12.9222   19.9373 N   0  0  0  0  0  0  0  0  0  0  0  0
  -21.5002  -17.2922   20.5019 N   0  0  0  0  0  0  0  0  0  0  0  0
  -21.2290  -19.2750   23.2727 N   0  3  0  0  0  0  0  0  0  0  0  0
  -25.7480  -32.5722   18.5527 O   0  0  0  0  0  0  0  0  0  0  0  0
  -25.6769  -14.4535   18.5128 O   0  0  0  0  0  0  0  0  0  0  0  0
  -22.5795  -14.6422   20.6494 O   0  0  0  0  0  0  0  0  0  0  0  0
  -22.4956  -19.3860   20.5486 O   0  0  0  0  0  0  0  0  0  0  0  0
  -22.0183  -23.9916   21.5586 O   0  0  0  0  0  0  0  0  0  0  0  0
  -27.5369  -34.0242   25.9876 O   0  0  0  0  0  0  0  0  0  0  0  0
  -29.2619  -19.8072   19.9235 O   0  0  0  0  0  0  0  0  0  1  0  0
  -28.4488  -22.4465   21.9986 O   0  0  0  0  0  0  0  0  0  0  0  0
  -27.2343  -39.5269   25.8057 F   0  0  0  0  0  0  0  0  0  0  0  0
  -26.3491  -35.4479   28.0382 F   0  0  0  0  0  0  0  0  0  0  0  0
  -26.9799  -24.6478   21.2556 F   0  0  0  0  0  0  0  0  0  0  0  0
  1  2  1  0  0  0  0
  1  6  2  0  0  0  0
  2  7  2  0  0  0  0
  3  9  1  0  0  0  0
  3 10  2  0  0  0  0
  4 11  2  0  0  0  0
  4 18  1  0  0  0  0
  5 12  1  0  0  0  0
  5 18  2  0  0  0  0
  6 20  1  0  0  0  0
  7 22  1  0  0  0  0
  8 13  2  0  0  0  0
  8 21  1  0  0  0  0
  9 24  2  0  0  0  0
 10 28  1  0  0  0  0
 11 25  1  0  0  0  0
 12 25  2  0  0  0  0
 13 26  1  0  0  0  0
 14 15  2  0  0  0  0
 14 27  1  0  0  0  0
 15 29  1  0  0  0  0
 16 23  1  0  0  0  0
 16 26  2  0  0  0  0
 17 29  2  0  0  0  0
 17 30  1  0  0  0  0
 18 32  1  0  0  0  0
 19 32  1  0  0  0  0
 19 33  2  0  0  0  0
 19 34  1  0  0  0  0
 20 22  2  0  0  0  0
 20 39  1  0  0  0  0
 21 23  2  0  0  0  0
 21 40  1  0  0  0  0
 22 48  1  0  0  0  0
 23 41  1  0  0  0  0
 24 31  1  0  0  0  0
 24 68  1  0  0  0  0
 25 77  1  0  0  0  0
 26 78  1  0  0  0  0
 27 30  2  0  0  0  0
 27 77  1  0  0  0  0
 28 31  2  0  0  0  0
 28 79  1  0  0  0  0
 29 80  1  0  0  0  0
 30 81  1  0  0  0  0
 31 82  1  0  0  0  0
 32 62  2  0  0  0  0
 33 63  1  0  0  0  0
 33 66  1  0  0  0  0
 34 67  1  0  0  0  0
 34 72  2  0  0  0  0
 35 49  1  0  0  0  0
 35 69  1  0  0  0  0
 35 73  2  0  0  0  0
 36 59  1  0  0  0  0
 36 64  1  0  0  0  0
 36 74  2  0  0  0  0
 37 60  1  0  0  0  0
 37 70  1  0  0  0  0
 37 75  2  0  0  0  0
 38 65  1  0  0  0  0
 38 68  1  0  0  0  0
 38 76  2  0  0  0  0
 39 42  1  0  0  0  0
 40 49  1  0  0  0  0
 41 64  1  0  0  0  0
 42 44  1  0  0  0  0
 43 45  1  0  0  0  0
 43 46  1  0  0  0  0
 44 48  1  0  0  0  0
 45 50  1  0  0  0  0
 46 65  1  0  0  0  0
 47 50  1  0  0  0  0
 47 65  1  0  0  0  0
 48 69  1  0  0  0  0
 49 64  1  0  0  0  0
 50 63  1  0  0  0  0
 51 60  1  0  0  0  0
 52 61  1  0  0  0  0
 53 61  1  0  0  0  0
 54 61  1  0  0  0  0
 55 71  1  0  0  0  0
 56 57  1  0  0  0  0
 56 58  1  0  0  0  0
 57 78  1  0  0  0  0
 58 79  1  0  0  0  0
 59 61  1  0  0  0  0
 59 70  1  0  0  0  0
 60 71  1  0  0  0  0
 62 63  1  0  0  0  0
M  CHG  1  71   1
M  ISO  4  38 100  57 101  68 100  78 101
M  END
> <Batch ID>
0015

> <Smiles>
CNC(C)C(=O)NC(C(=O)N1Cc2cc([101O:1][101CH2:1]CCOc3cccc([100NH:0][100C:0](=O)N4CCCC(n5nc(-c6ccc(Oc7ccc(F)cc7F)cc6)c(C(N)=O)c5N)C4)c3F)ccc2CC1C(=O)NC1CCCc2ccccc21)C(C)(C)C

> <Shape>
0.225

> <Color>
0.048

> <Negative vol penalty>
0.000

$$$$

  -OEChem-04042320543D

 82 90  0     1  0  0  0  0  0999 V2000
  -35.9187  -30.2920   22.8748 C   0  0  0  0  0  0  0  0  0  0  0  0
  -34.8692  -29.4480   23.2234 C   0  0  0  0  0  0  0  0  0  0  0  0
  -23.2830   -9.7788   19.8993 C   0  0  0  0  0  0  0  0  0  0  0  0
  -23.7041   -9.9126   22.2746 C   0  0  0  0  0  0  0  0  0  0  0  0
  -36.1181  -30.6397   21.5394 C   0  0  0  0  0  0  0  0  0  0  0  0
  -34.0177  -28.9520   22.2368 C   0  0  0  0  0  0  0  0  0  0  0  0
  -31.3354  -23.4478   22.1156 C   0  0  0  0  0  0  0  0  0  0  0  0
  -27.2634  -18.1696   19.2566 C   0  0  0  0  0  0  0  0  0  0  0  0
  -29.2221  -17.4422   20.4697 C   0  0  0  0  0  0  0  0  0  0  0  0
  -27.6144  -17.3395   18.1920 C   0  0  0  0  0  0  0  0  0  0  0  0
  -29.5731  -16.6121   19.4051 C   0  0  0  0  0  0  0  0  0  0  0  0
  -22.5496   -8.6086   20.0953 C   0  0  0  0  0  0  0  0  0  0  0  0
  -22.9706   -8.7425   22.4706 C   0  0  0  0  0  0  0  0  0  0  0  0
  -30.0550  -23.0204   22.4645 C   0  0  0  0  0  0  0  0  0  0  0  0
  -19.7177   -7.8434   22.6446 C   0  0  0  0  0  0  0  0  0  0  0  0
  -18.8018   -7.8229   23.6964 C   0  0  0  0  0  0  0  0  0  0  0  0
  -29.3722  -23.2024   20.1581 C   0  0  0  0  0  0  0  0  0  0  0  0
  -19.9878   -5.9690   24.6931 C   0  0  0  0  0  0  0  0  0  0  0  0
  -23.8603  -10.4308   20.9890 C   0  0  0  0  0  0  0  0  0  0  0  0
  -24.1318  -12.9602   20.7992 C   0  0  0  0  0  0  0  0  0  0  0  0
  -35.2744  -30.1400   20.5348 C   0  0  0  0  0  0  0  0  0  0  0  0
  -31.6413  -23.7667   20.7847 C   0  0  0  0  0  0  0  0  0  0  0  0
  -34.2051  -29.2944   20.8869 C   0  0  0  0  0  0  0  0  0  0  0  0
  -30.6579  -23.6312   19.7944 C   0  0  0  0  0  0  0  0  0  0  0  0
  -28.0673  -18.2210   20.3954 C   0  0  0  0  0  0  0  0  0  0  0  0
  -28.7692  -16.5608   18.2662 C   0  0  0  0  0  0  0  0  0  0  0  0
  -22.3934   -8.0905   21.3809 C   0  0  0  0  0  0  0  0  0  0  0  0
  -29.0724  -22.9004   21.4862 C   0  0  0  0  0  0  0  0  0  0  0  0
  -20.7686   -6.9266   22.6170 C   0  0  0  0  0  0  0  0  0  0  0  0
  -18.9368   -6.8858   24.7207 C   0  0  0  0  0  0  0  0  0  0  0  0
  -20.9037   -5.9895   23.6413 C   0  0  0  0  0  0  0  0  0  0  0  0
  -24.6185  -11.6393   20.7871 C   0  0  0  0  0  0  0  0  0  0  0  0
  -25.2394  -13.7364   20.5599 C   0  0  0  0  0  0  0  0  0  0  0  0
  -22.7979  -13.4424   21.0080 C   0  0  0  0  0  0  0  0  0  0  0  0
  -32.5821  -26.3967   19.2676 C   0  0  0  0  0  0  0  0  0  0  0  0
  -32.8356  -24.3790   16.7404 C   0  0  0  0  0  0  0  0  0  0  0  0
  -31.8642  -21.4670   15.2492 C   0  0  0  0  0  0  0  0  0  0  0  0
  -29.8419  -14.4971   17.3270 C   0  0  0  0  0  0  0  0  0  0  0  0
  -35.5008  -30.5817   19.1106 C   0  0  0  0  0  0  0  0  0  0  0  0
  -33.0346  -24.2007   20.4204 C   0  0  0  0  0  0  0  0  0  0  0  0
  -30.9410  -23.9416   18.3481 C   0  0  0  0  0  0  0  0  0  0  0  0
  -34.7807  -29.7136   18.0819 C   0  0  0  0  0  0  0  0  0  0  0  0
  -30.1536  -12.5912   20.4835 C   0  0  0  0  0  0  0  0  0  0  0  0
  -33.3366  -29.4684   18.5076 C   0  0  0  0  0  0  0  0  0  0  0  0
  -28.7071  -12.2120   20.7951 C   0  0  0  0  0  0  0  0  0  0  0  0
  -30.3888  -12.7432   18.9837 C   0  0  0  0  0  0  0  0  0  0  0  0
  -28.0056  -13.3300   18.6412 C   0  0  0  0  0  0  0  0  0  0  0  0
  -33.2750  -28.7162   19.8425 C   0  0  1  0  0  0  0  0  0  0  0  0
  -33.0924  -24.9915   19.1170 C   0  0  1  0  0  0  0  0  0  0  0  0
  -27.7331  -13.2105   20.1481 C   0  0  1  0  0  0  0  0  0  0  0  0
  -32.2147  -20.1061   13.1701 C   0  0  0  0  0  0  0  0  0  0  0  0
  -31.0639  -26.3116   15.1797 C   0  0  0  0  0  0  0  0  0  0  0  0
  -30.6754  -24.4926   13.5039 C   0  0  0  0  0  0  0  0  0  0  0  0
  -32.9804  -25.3701   13.8777 C   0  0  0  0  0  0  0  0  0  0  0  0
  -28.9863  -16.2287   15.8100 C   0  0  0  0  0  0  0  0  0  0  0  0
  -32.9268  -19.1741   16.7896 C   0  0  0  0  0  0  0  0  0  0  0  0
  -26.4843  -20.7142   22.7397 C   0  0  0  0  0  0  0  0  0  0  0  0
  -26.5462  -19.8870   21.4613 C   0  0  0  0  0  0  0  0  0  0  0  0
  -27.7108  -21.5974   22.9368 C   0  0  0  0  0  0  0  0  0  1  0  0
  -31.9060  -23.9157   15.6448 C   0  0  1  0  0  0  0  0  0  0  0  0
  -32.6644  -20.3510   14.6021 C   0  0  2  0  0  0  0  0  0  0  0  0
  -31.6502  -25.0184   14.5790 C   0  0  0  0  0  0  0  0  0  0  0  0
  -25.9329  -11.5761   20.5582 N   0  0  0  0  0  0  0  0  0  0  0  0
  -26.2815  -12.8670   20.4240 N   0  0  0  0  0  0  0  0  0  0  0  0
  -32.3166  -24.3683   18.0429 N   0  0  0  0  0  0  0  0  0  0  0  0
  -29.4168  -13.6500   18.3710 N   0  0  0  0  0  0  0  0  0  0  0  0
  -25.4138  -15.0709   20.4545 N   0  0  0  0  0  0  0  0  0  0  0  0
  -21.7787  -12.5089   21.2406 N   0  0  0  0  0  0  0  0  0  0  0  0
  -27.7196  -19.0472   21.4527 N   0  0  0  0  0  0  0  0  0  0  0  0
  -33.5494  -27.3093   19.6430 N   0  0  0  0  0  0  0  0  0  0  0  0
  -32.4865  -22.6894   15.1084 N   0  0  0  0  0  0  0  0  0  0  0  0
  -29.1322  -15.7023   17.1653 N   0  0  0  0  0  0  0  0  0  0  0  0
  -32.5003  -19.0839   15.3694 N   0  3  0  0  0  0  0  0  0  0  0  0
  -22.5151  -14.6640   20.9727 O   0  0  0  0  0  0  0  0  0  0  0  0
  -31.3987  -26.6355   19.0573 O   0  0  0  0  0  0  0  0  0  0  0  0
  -33.9823  -24.7304   16.4521 O   0  0  0  0  0  0  0  0  0  0  0  0
  -30.7925  -21.2743   15.8190 O   0  0  0  0  0  0  0  0  0  0  0  0
  -30.7549  -14.1777   16.5557 O   0  0  0  0  0  0  0  0  0  0  0  0
  -21.6776   -6.9488   21.5725 O   0  0  0  0  0  0  0  0  0  0  0  0
  -27.8217  -22.4841   21.8242 O   0  0  0  0  0  0  0  0  0  1  0  0
  -18.0581   -6.8672   25.7315 F   0  0  0  0  0  0  0  0  0  0  0  0
  -21.9120   -5.1070   23.6208 F   0  0  0  0  0  0  0  0  0  0  0  0
  1  2  1  0  0  0  0
  1  5  2  0  0  0  0
  2  6  2  0  0  0  0
  3 12  2  0  0  0  0
  3 19  1  0  0  0  0
  4 13  1  0  0  0  0
  4 19  2  0  0  0  0
  5 21  1  0  0  0  0
  6 23  1  0  0  0  0
  7 14  2  0  0  0  0
  7 22  1  0  0  0  0
  8 10  2  0  0  0  0
  8 25  1  0  0  0  0
  9 11  1  0  0  0  0
  9 25  2  0  0  0  0
 10 26  1  0  0  0  0
 11 26  2  0  0  0  0
 12 27  1  0  0  0  0
 13 27  2  0  0  0  0
 14 28  1  0  0  0  0
 15 16  2  0  0  0  0
 15 29  1  0  0  0  0
 16 30  1  0  0  0  0
 17 24  1  0  0  0  0
 17 28  2  0  0  0  0
 18 30  2  0  0  0  0
 18 31  1  0  0  0  0
 19 32  1  0  0  0  0
 20 32  1  0  0  0  0
 20 33  2  0  0  0  0
 20 34  1  0  0  0  0
 21 23  2  0  0  0  0
 21 39  1  0  0  0  0
 22 24  2  0  0  0  0
 22 40  1  0  0  0  0
 23 48  1  0  0  0  0
 24 41  1  0  0  0  0
 25 69  1  0  0  0  0
 26 72  1  0  0  0  0
 27 79  1  0  0  0  0
 28 80  1  0  0  0  0
 29 31  2  0  0  0  0
 29 79  1  0  0  0  0
 30 81  1  0  0  0  0
 31 82  1  0  0  0  0
 32 63  2  0  0  0  0
 33 64  1  0  0  0  0
 33 67  1  0  0  0  0
 34 68  1  0  0  0  0
 34 74  2  0  0  0  0
 35 49  1  0  0  0  0
 35 70  1  0  0  0  0
 35 75  2  0  0  0  0
 36 60  1  0  0  0  0
 36 65  1  0  0  0  0
 36 76  2  0  0  0  0
 37 61  1  0  0  0  0
 37 71  1  0  0  0  0
 37 77  2  0  0  0  0
 38 66  1  0  0  0  0
 38 72  1  0  0  0  0
 38 78  2  0  0  0  0
 39 42  1  0  0  0  0
 40 49  1  0  0  0  0
 41 65  1  0  0  0  0
 42 44  1  0  0  0  0
 43 45  1  0  0  0  0
 43 46  1  0  0  0  0
 44 48  1  0  0  0  0
 45 50  1  0  0  0  0
 46 66  1  0  0  0  0
 47 50  1  0  0  0  0
 47 66  1  0  0  0  0
 48 70  1  0  0  0  0
 49 65  1  0  0  0  0
 50 64  1  0  0  0  0
 51 61  1  0  0  0  0
 52 62  1  0  0  0  0
 53 62  1  0  0  0  0
 54 62  1  0  0  0  0
 55 72  1  0  0  0  0
 56 73  1  0  0  0  0
 57 58  1  0  0  0  0
 57 59  1  0  0  0  0
 58 69  1  0  0  0  0
 59 80  1  0  0  0  0
 60 62  1  0  0  0  0
 60 71  1  0  0  0  0
 61 73  1  0  0  0  0
 63 64  1  0  0  0  0
M  CHG  1  73   1
M  ISO  4  38 100  59 101  72 100  80 101
M  END
> <Batch ID>
0015

> <Smiles>
CNC(C)C(=O)NC(C(=O)N1Cc2cc([101O:1][101CH2:1]CCNc3ccc([100N:0](C)[100C:0](=O)N4CCCC(n5nc(-c6ccc(Oc7ccc(F)cc7F)cc6)c(C(N)=O)c5N)C4)cc3)ccc2CC1C(=O)NC1CCCc2ccccc21)C(C)(C)C

> <Shape>
0.203

> <Color>
0.183

> <Negative vol penalty>
0.000

$$$$

  -OEChem-04042320543D

 89 98  0     1  0  0  0  0  0999 V2000
  -28.7022   -2.7791   35.2839 C   0  0  0  0  0  0  0  0  0  0  0  0
  -28.7535   -3.9258   34.4978 C   0  0  0  0  0  0  0  0  0  0  0  0
  -32.6899  -15.3592   24.6370 C   0  0  0  0  0  0  0  0  0  0  0  0
  -34.1974  -12.8068   29.2298 C   0  0  0  0  0  0  0  0  0  0  0  0
  -23.2860   -9.8014   19.9111 C   0  0  0  0  0  0  0  0  0  0  0  0
  -23.7359   -9.9414   22.2807 C   0  0  0  0  0  0  0  0  0  0  0  0
  -28.0848   -1.6281   34.7961 C   0  0  0  0  0  0  0  0  0  0  0  0
  -28.1883   -3.9218   33.2231 C   0  0  0  0  0  0  0  0  0  0  0  0
  -25.4511   -8.0808   32.2984 C   0  0  0  0  0  0  0  0  0  0  0  0
  -32.1566  -15.1940   25.9152 C   0  0  0  0  0  0  0  0  0  0  0  0
  -32.1999  -14.6012   23.5735 C   0  0  0  0  0  0  0  0  0  0  0  0
  -32.9893  -13.2130   28.6632 C   0  0  0  0  0  0  0  0  0  0  0  0
  -22.5591   -8.6291   20.1183 C   0  0  0  0  0  0  0  0  0  0  0  0
  -23.0089   -8.7692   22.4880 C   0  0  0  0  0  0  0  0  0  0  0  0
  -26.1492   -9.2441   31.9773 C   0  0  0  0  0  0  0  0  0  0  0  0
  -19.4768   -7.7698   21.2111 C   0  0  0  0  0  0  0  0  0  0  0  0
  -34.3457  -11.4995   29.6932 C   0  0  0  0  0  0  0  0  0  0  0  0
  -18.2480   -7.6459   20.5628 C   0  0  0  0  0  0  0  0  0  0  0  0
  -25.6873   -8.8690   29.6396 C   0  0  0  0  0  0  0  0  0  0  0  0
  -30.6434  -13.5126   25.0665 C   0  0  0  0  0  0  0  0  0  0  0  0
  -32.0777  -11.0048   29.0236 C   0  0  0  0  0  0  0  0  0  0  0  0
  -19.0492   -5.6729   19.4213 C   0  0  0  0  0  0  0  0  0  0  0  0
  -23.8745  -10.4575   20.9922 C   0  0  0  0  0  0  0  0  0  0  0  0
  -24.1350  -12.9875   20.7942 C   0  0  0  0  0  0  0  0  0  0  0  0
  -27.5033   -1.6129   33.5185 C   0  0  0  0  0  0  0  0  0  0  0  0
  -24.8742   -7.2957   31.2898 C   0  0  0  0  0  0  0  0  0  0  0  0
  -27.5638   -2.7691   32.7173 C   0  0  0  0  0  0  0  0  0  0  0  0
  -24.9802   -7.6975   29.9506 C   0  0  0  0  0  0  0  0  0  0  0  0
  -31.1334  -14.2707   26.1300 C   0  0  0  0  0  0  0  0  0  0  0  0
  -31.1767  -13.6779   23.7883 C   0  0  0  0  0  0  0  0  0  0  0  0
  -31.9294  -12.3121   28.5602 C   0  0  0  0  0  0  0  0  0  0  0  0
  -22.4205   -8.1130   21.4068 C   0  0  0  0  0  0  0  0  0  0  0  0
  -26.2698   -9.6369   30.6476 C   0  0  0  0  0  0  0  0  0  0  0  0
  -20.4919   -6.8453   20.9644 C   0  0  0  0  0  0  0  0  0  0  0  0
  -33.2859  -10.5986   29.5902 C   0  0  0  0  0  0  0  0  0  0  0  0
  -18.0342   -6.5974   19.6680 C   0  0  0  0  0  0  0  0  0  0  0  0
  -20.2781   -5.7969   20.0696 C   0  0  0  0  0  0  0  0  0  0  0  0
  -24.6260  -11.6682   20.7787 C   0  0  0  0  0  0  0  0  0  0  0  0
  -25.2369  -13.7669   20.5398 C   0  0  0  0  0  0  0  0  0  0  0  0
  -22.8021  -13.4656   21.0185 C   0  0  0  0  0  0  0  0  0  0  0  0
  -25.2754   -4.3146   30.2622 C   0  0  0  0  0  0  0  0  0  0  0  0
  -22.7263   -5.0314   28.3885 C   0  0  0  0  0  0  0  0  0  0  0  0
  -20.8456   -7.4262   26.8475 C   0  0  0  0  0  0  0  0  0  0  0  0
  -31.0966  -12.9501   21.3778 C   0  0  0  0  0  0  0  0  0  0  0  0
  -26.8887   -0.3306   33.0159 C   0  0  0  0  0  0  0  0  0  0  0  0
  -24.1016   -6.0578   31.6548 C   0  0  0  0  0  0  0  0  0  0  0  0
  -24.3618   -6.9005   28.8322 C   0  0  0  0  0  0  0  0  0  0  0  0
  -25.9844   -0.5238   31.8013 C   0  0  0  0  0  0  0  0  0  0  0  0
  -29.4647  -13.6557   18.2930 C   0  0  0  0  0  0  0  0  0  0  0  0
  -26.6631   -1.4160   30.7669 C   0  0  0  0  0  0  0  0  0  0  0  0
  -27.9931  -13.3520   18.5835 C   0  0  0  0  0  0  0  0  0  0  0  0
  -30.3972  -12.6800   19.0087 C   0  0  0  0  0  0  0  0  0  0  0  0
  -28.7031  -12.2523   20.7454 C   0  0  0  0  0  0  0  0  0  0  0  0
  -26.9403   -2.8115   31.3390 C   0  0  1  0  0  0  0  0  0  0  0  0
  -23.9938   -5.0602   30.5056 C   0  0  1  0  0  0  0  0  0  0  0  0
  -27.7274  -13.2488   20.0982 C   0  0  2  0  0  0  0  0  0  0  0  0
  -18.8476   -7.7038   25.3548 C   0  0  0  0  0  0  0  0  0  0  0  0
  -24.3947   -4.1412   25.9939 C   0  0  0  0  0  0  0  0  0  0  0  0
  -22.7542   -5.3081   24.5055 C   0  0  0  0  0  0  0  0  0  0  0  0
  -22.0057   -3.4040   25.9328 C   0  0  0  0  0  0  0  0  0  0  0  0
  -19.3918   -8.9975   28.8912 C   0  0  0  0  0  0  0  0  0  0  0  0
  -30.5597  -14.0933   27.5061 C   0  0  0  0  0  0  0  0  0  0  0  0
  -28.8197  -11.7196   29.1613 C   0  0  0  0  0  0  0  0  0  0  0  0
  -29.6025  -11.8110   27.8570 C   0  0  0  0  0  0  0  0  0  0  0  0
  -27.6046  -10.8048   29.0632 C   0  0  0  0  0  0  0  0  0  1  0  0
  -22.5442   -5.6257   27.0128 C   0  0  1  0  0  0  0  0  0  0  0  0
  -19.3447   -7.6465   26.7908 C   0  0  2  0  0  0  0  0  0  0  0  0
  -22.9381   -4.6340   25.8819 C   0  0  0  0  0  0  0  0  0  0  0  0
  -25.9377  -11.6090   20.5337 N   0  0  0  0  0  0  0  0  0  0  0  0
  -26.2802  -12.9009   20.3928 N   0  0  0  0  0  0  0  0  0  0  0  0
  -23.6218   -5.6947   29.2394 N   0  0  0  0  0  0  0  0  0  0  0  0
  -30.0897  -12.6380   20.4399 N   0  0  0  0  0  0  0  0  0  0  0  0
  -25.4054  -15.1018   20.4296 N   0  0  0  0  0  0  0  0  0  0  0  0
  -21.7890  -12.5290   21.2654 N   0  0  0  0  0  0  0  0  0  0  0  0
  -30.6788  -12.9085   22.7076 N   0  0  0  0  0  0  0  0  0  0  0  0
  -25.7275   -3.6010   31.3557 N   0  0  0  0  0  0  0  0  0  0  0  0
  -21.1619   -6.0879   26.9475 N   0  0  0  0  0  0  0  0  0  0  0  0
  -30.7145  -12.7206   27.9914 N   0  0  3  0  0  0  0  0  0  0  0  0
  -18.9831   -8.9256   27.4647 N   0  3  0  0  0  0  0  0  0  0  0  0
  -22.5147  -14.6861   20.9843 O   0  0  0  0  0  0  0  0  0  0  0  0
  -25.8134   -4.3806   29.1631 O   0  0  0  0  0  0  0  0  0  0  0  0
  -22.0918   -4.0202   28.6993 O   0  0  0  0  0  0  0  0  0  0  0  0
  -21.6564   -8.3488   26.8034 O   0  0  0  0  0  0  0  0  0  0  0  0
  -32.2377  -13.2600   21.0259 O   0  0  0  0  0  0  0  0  0  0  0  0
  -21.7110   -6.9693   21.6094 O   0  0  0  0  0  0  0  0  0  0  0  0
  -26.9512  -10.7716   30.3314 O   0  0  0  0  0  0  0  0  0  1  0  0
  -33.4290   -9.3427   30.0337 F   0  0  0  0  0  0  0  0  0  0  0  0
  -16.8536   -6.4777   19.0467 F   0  0  0  0  0  0  0  0  0  0  0  0
  -21.2490   -4.9050   19.8295 F   0  0  0  0  0  0  0  0  0  0  0  0
  1  2  1  0  0  0  0
  1  7  2  0  0  0  0
  2  8  2  0  0  0  0
  3 10  2  0  0  0  0
  3 11  1  0  0  0  0
  4 12  2  0  0  0  0
  4 17  1  0  0  0  0
  5 13  2  0  0  0  0
  5 23  1  0  0  0  0
  6 14  1  0  0  0  0
  6 23  2  0  0  0  0
  7 25  1  0  0  0  0
  8 27  1  0  0  0  0
  9 15  2  0  0  0  0
  9 26  1  0  0  0  0
 10 29  1  0  0  0  0
 11 30  2  0  0  0  0
 12 31  1  0  0  0  0
 13 32  1  0  0  0  0
 14 32  2  0  0  0  0
 15 33  1  0  0  0  0
 16 18  2  0  0  0  0
 16 34  1  0  0  0  0
 17 35  2  0  0  0  0
 18 36  1  0  0  0  0
 19 28  1  0  0  0  0
 19 33  2  0  0  0  0
 20 29  2  0  0  0  0
 20 30  1  0  0  0  0
 21 31  2  0  0  0  0
 21 35  1  0  0  0  0
 22 36  2  0  0  0  0
 22 37  1  0  0  0  0
 23 38  1  0  0  0  0
 24 38  1  0  0  0  0
 24 39  2  0  0  0  0
 24 40  1  0  0  0  0
 25 27  2  0  0  0  0
 25 45  1  0  0  0  0
 26 28  2  0  0  0  0
 26 46  1  0  0  0  0
 27 54  1  0  0  0  0
 28 47  1  0  0  0  0
 29 62  1  0  0  0  0
 30 75  1  0  0  0  0
 31 78  1  0  0  0  0
 32 85  1  0  0  0  0
 33 86  1  0  0  0  0
 34 37  2  0  0  0  0
 34 85  1  0  0  0  0
 35 87  1  0  0  0  0
 36 88  1  0  0  0  0
 37 89  1  0  0  0  0
 38 69  2  0  0  0  0
 39 70  1  0  0  0  0
 39 73  1  0  0  0  0
 40 74  1  0  0  0  0
 40 80  2  0  0  0  0
 41 55  1  0  0  0  0
 41 76  1  0  0  0  0
 41 81  2  0  0  0  0
 42 66  1  0  0  0  0
 42 71  1  0  0  0  0
 42 82  2  0  0  0  0
 43 67  1  0  0  0  0
 43 77  1  0  0  0  0
 43 83  2  0  0  0  0
 44 72  1  0  0  0  0
 44 75  1  0  0  0  0
 44 84  2  0  0  0  0
 45 48  1  0  0  0  0
 46 55  1  0  0  0  0
 47 71  1  0  0  0  0
 48 50  1  0  0  0  0
 49 51  1  0  0  0  0
 49 52  1  0  0  0  0
 50 54  1  0  0  0  0
 51 56  1  0  0  0  0
 52 72  1  0  0  0  0
 53 56  1  0  0  0  0
 53 72  1  0  0  0  0
 54 76  1  0  0  0  0
 55 71  1  0  0  0  0
 56 70  1  0  0  0  0
 57 67  1  0  0  0  0
 58 68  1  0  0  0  0
 59 68  1  0  0  0  0
 60 68  1  0  0  0  0
 61 79  1  0  0  0  0
 62 78  1  0  0  0  0
 63 64  1  0  0  0  0
 63 65  1  0  0  0  0
 64 78  1  0  0  0  0
 65 86  1  0  0  0  0
 66 68  1  0  0  0  0
 66 77  1  0  0  0  0
 67 79  1  0  0  0  0
 69 70  1  0  0  0  0
M  CHG  1  79   1
M  ISO  4  44 100  65 101  75 100  86 101
M  END
> <Batch ID>
0015

> <Smiles>
CNC(C)C(=O)NC(C(=O)N1Cc2cc([101O:1][101CH2:1]CCN(Cc3cccc([100NH:0][100C:0](=O)N4CCCC(n5nc(-c6ccc(Oc7ccc(F)cc7F)cc6)c(C(N)=O)c5N)C4)c3)c3cccc(F)c3)ccc2CC1C(=O)NC1CCCc2ccccc21)C(C)(C)C

> <Shape>
0.127

> <Color>
0.178

> <Negative vol penalty>
0.000

$$$$

  -OEChem-04042320543D

 85 94  0     1  0  0  0  0  0999 V2000
  -24.9766  -32.9151   14.0546 C   0  0  0  0  0  0  0  0  0  0  0  0
  -25.7043  -32.0215   14.8339 C   0  0  0  0  0  0  0  0  0  0  0  0
  -24.2583  -10.6131   23.3826 C   0  0  0  0  0  0  0  0  0  0  0  0
  -23.5652  -12.9191   23.1847 C   0  0  0  0  0  0  0  0  0  0  0  0
  -24.4700  -34.0826   14.6240 C   0  0  0  0  0  0  0  0  0  0  0  0
  -25.9267  -32.2955   16.1829 C   0  0  0  0  0  0  0  0  0  0  0  0
  -25.1600  -28.2552   19.1381 C   0  0  0  0  0  0  0  0  0  0  0  0
  -30.5516  -24.8469   19.2302 C   0  0  0  0  0  0  0  0  0  0  0  0
  -23.6838  -10.5493   24.6520 C   0  0  0  0  0  0  0  0  0  0  0  0
  -22.9906  -12.8553   24.4542 C   0  0  0  0  0  0  0  0  0  0  0  0
  -26.1680  -27.2927   19.1748 C   0  0  0  0  0  0  0  0  0  0  0  0
  -20.5901  -10.2020   25.9715 C   0  0  0  0  0  0  0  0  0  0  0  0
  -19.8166   -9.0824   26.2774 C   0  0  0  0  0  0  0  0  0  0  0  0
  -31.5991  -23.9526   19.4506 C   0  0  0  0  0  0  0  0  0  0  0  0
  -26.9576  -28.2079   21.2624 C   0  0  0  0  0  0  0  0  0  0  0  0
  -28.9613  -23.1375   19.8516 C   0  0  0  0  0  0  0  0  0  0  0  0
  -21.3079   -8.5508   28.1024 C   0  0  0  0  0  0  0  0  0  0  0  0
  -24.1991  -11.7980   22.6489 C   0  0  0  0  0  0  0  0  0  0  0  0
  -24.1729  -11.5731   20.1080 C   0  0  0  0  0  0  0  0  0  0  0  0
  -24.6781  -34.3664   15.9829 C   0  0  0  0  0  0  0  0  0  0  0  0
  -25.0498  -29.2097   20.1595 C   0  0  0  0  0  0  0  0  0  0  0  0
  -25.4236  -33.4686   16.7707 C   0  0  0  0  0  0  0  0  0  0  0  0
  -25.9458  -29.1799   21.2376 C   0  0  0  0  0  0  0  0  0  0  0  0
  -29.2327  -24.4393   19.4307 C   0  0  0  0  0  0  0  0  0  0  0  0
  -30.0088  -22.2431   20.0719 C   0  0  0  0  0  0  0  0  0  0  0  0
  -23.0500  -11.6704   25.1878 C   0  0  0  0  0  0  0  0  0  0  0  0
  -27.0687  -27.2707   20.2356 C   0  0  0  0  0  0  0  0  0  0  0  0
  -21.7226  -10.4960   26.7309 C   0  0  0  0  0  0  0  0  0  0  0  0
  -20.1754   -8.2568   27.3428 C   0  0  0  0  0  0  0  0  0  0  0  0
  -22.0814   -9.6704   27.7964 C   0  0  0  0  0  0  0  0  0  0  0  0
  -31.3277  -22.6507   19.8714 C   0  0  0  0  0  0  0  0  0  0  0  0
  -24.7928  -11.8647   21.3378 C   0  0  0  0  0  0  0  0  0  0  0  0
  -25.1529  -11.7880   19.1700 C   0  0  0  0  0  0  0  0  0  0  0  0
  -22.8311  -11.1461   19.8377 C   0  0  0  0  0  0  0  0  0  0  0  0
  -25.2365  -32.3798   20.2967 C   0  0  0  0  0  0  0  0  0  0  0  0
  -24.3347  -31.9103   23.3771 C   0  0  0  0  0  0  0  0  0  0  0  0
  -24.1857  -29.8123   26.0646 C   0  0  0  0  0  0  0  0  0  0  0  0
  -30.0723  -15.2010   19.1212 C   0  0  0  0  0  0  0  0  0  0  0  0
  -24.1514  -35.6641   16.5425 C   0  0  0  0  0  0  0  0  0  0  0  0
  -23.9405  -30.2247   20.1187 C   0  0  0  0  0  0  0  0  0  0  0  0
  -25.8579  -30.1698   22.3693 C   0  0  0  0  0  0  0  0  0  0  0  0
  -24.1117  -35.6980   18.0681 C   0  0  0  0  0  0  0  0  0  0  0  0
  -29.9052  -11.6789   18.6271 C   0  0  0  0  0  0  0  0  0  0  0  0
  -25.4233  -35.1778   18.6480 C   0  0  0  0  0  0  0  0  0  0  0  0
  -28.5201  -11.3009   19.1548 C   0  0  0  0  0  0  0  0  0  0  0  0
  -28.2109  -18.3539   18.4236 C   0  0  0  0  0  0  0  0  0  0  0  0
  -30.5410  -12.7918   19.4573 C   0  0  0  0  0  0  0  0  0  0  0  0
  -28.3238  -13.6212   20.1428 C   0  0  0  0  0  0  0  0  0  0  0  0
  -28.6696  -19.8035   18.4520 C   0  0  0  0  0  0  0  0  0  0  0  0
  -30.0136  -18.4232   19.9593 C   0  0  0  0  0  0  0  0  0  0  0  0
  -25.6649  -33.7185   18.2436 C   0  0  1  0  0  0  0  0  0  0  0  0
  -24.2375  -31.4681   20.9513 C   0  0  1  0  0  0  0  0  0  0  0  0
  -27.6190  -12.5415   19.3040 C   0  0  2  0  0  0  0  0  0  0  0  0
  -29.4472  -17.5747   18.8380 C   0  0  1  0  0  0  0  0  0  0  0  0
  -23.4260  -29.7236   28.4547 C   0  0  0  0  0  0  0  0  0  0  0  0
  -26.7661  -33.5555   24.2084 C   0  0  0  0  0  0  0  0  0  0  0  0
  -26.5001  -32.6484   26.5267 C   0  0  0  0  0  0  0  0  0  0  0  0
  -24.6877  -34.0321   25.5152 C   0  0  0  0  0  0  0  0  0  0  0  0
  -22.2740  -27.6255   25.4972 C   0  0  0  0  0  0  0  0  0  0  0  0
  -29.6762  -20.8576   20.5231 C   0  0  0  0  0  0  0  0  0  0  0  0
  -28.1062  -25.4016   19.1934 C   0  0  0  0  0  0  0  0  0  1  0  0
  -25.0607  -31.6753   24.6796 C   0  0  1  0  0  0  0  0  0  0  0  0
  -23.0477  -29.4599   27.0055 C   0  0  2  0  0  0  0  0  0  0  0  0
  -25.7568  -32.9603   25.2103 C   0  0  0  0  0  0  0  0  0  0  0  0
  -26.0680  -12.2365   21.1971 N   0  0  0  0  0  0  0  0  0  0  0  0
  -26.2573  -12.1798   19.8678 N   0  0  0  0  0  0  0  0  0  0  0  0
  -24.7599  -31.1466   22.2809 N   0  0  0  0  0  0  0  0  0  0  0  0
  -29.6362  -13.9394   19.5588 N   0  0  0  0  0  0  0  0  0  0  0  0
  -25.1690  -11.6782   17.8246 N   0  0  0  0  0  0  0  0  0  0  0  0
  -21.9543  -10.9744   20.9175 N   0  0  0  0  0  0  0  0  0  0  0  0
  -24.8533  -32.8302   19.0478 N   0  0  0  0  0  0  0  0  0  0  0  0
  -24.0797  -31.1049   25.5966 N   0  0  0  0  0  0  0  0  0  0  0  0
  -29.1504  -16.2330   19.2469 N   0  0  0  0  0  0  0  0  0  0  0  0
  -29.8200  -19.8342   19.4429 N   0  3  2  0  0  0  0  0  0  0  0  0
  -22.6890  -28.0199   26.8680 N   0  3  0  0  0  0  0  0  0  0  0  0
  -22.4266  -10.9076   18.6745 O   0  0  0  0  0  0  0  0  0  0  0  0
  -26.2772  -32.6555   20.8821 O   0  0  0  0  0  0  0  0  0  0  0  0
  -23.4190  -32.7359   23.3355 O   0  0  0  0  0  0  0  0  0  0  0  0
  -25.0813  -29.0213   25.7768 O   0  0  0  0  0  0  0  0  0  0  0  0
  -31.1978  -15.3922   18.6483 O   0  0  0  0  0  0  0  0  0  0  0  0
  -22.4890  -11.6084   26.4264 O   0  0  0  0  0  0  0  0  0  0  0  0
  -28.0539  -26.3327   20.2735 O   0  0  0  0  0  0  0  0  0  1  0  0
  -19.4316   -7.1824   27.6375 F   0  0  0  0  0  0  0  0  0  0  0  0
  -23.1676   -9.9484   28.5303 F   0  0  0  0  0  0  0  0  0  0  0  0
  -32.6489  -21.5717   20.1343 Cl  0  0  0  0  0  0  0  0  0  0  0  0
  1  2  1  0  0  0  0
  1  5  2  0  0  0  0
  2  6  2  0  0  0  0
  3  9  2  0  0  0  0
  3 18  1  0  0  0  0
  4 10  1  0  0  0  0
  4 18  2  0  0  0  0
  5 20  1  0  0  0  0
  6 22  1  0  0  0  0
  7 11  2  0  0  0  0
  7 21  1  0  0  0  0
  8 14  2  0  0  0  0
  8 24  1  0  0  0  0
  9 26  1  0  0  0  0
 10 26  2  0  0  0  0
 11 27  1  0  0  0  0
 12 13  2  0  0  0  0
 12 28  1  0  0  0  0
 13 29  1  0  0  0  0
 14 31  1  0  0  0  0
 15 23  1  0  0  0  0
 15 27  2  0  0  0  0
 16 24  2  0  0  0  0
 16 25  1  0  0  0  0
 17 29  2  0  0  0  0
 17 30  1  0  0  0  0
 18 32  1  0  0  0  0
 19 32  1  0  0  0  0
 19 33  2  0  0  0  0
 19 34  1  0  0  0  0
 20 22  2  0  0  0  0
 20 39  1  0  0  0  0
 21 23  2  0  0  0  0
 21 40  1  0  0  0  0
 22 51  1  0  0  0  0
 23 41  1  0  0  0  0
 24 61  1  0  0  0  0
 25 31  2  0  0  0  0
 25 60  1  0  0  0  0
 26 81  1  0  0  0  0
 27 82  1  0  0  0  0
 28 30  2  0  0  0  0
 28 81  1  0  0  0  0
 29 83  1  0  0  0  0
 30 84  1  0  0  0  0
 31 85  1  0  0  0  0
 32 65  2  0  0  0  0
 33 66  1  0  0  0  0
 33 69  1  0  0  0  0
 34 70  1  0  0  0  0
 34 76  2  0  0  0  0
 35 52  1  0  0  0  0
 35 71  1  0  0  0  0
 35 77  2  0  0  0  0
 36 62  1  0  0  0  0
 36 67  1  0  0  0  0
 36 78  2  0  0  0  0
 37 63  1  0  0  0  0
 37 72  1  0  0  0  0
 37 79  2  0  0  0  0
 38 68  1  0  0  0  0
 38 73  1  0  0  0  0
 38 80  2  0  0  0  0
 39 42  1  0  0  0  0
 40 52  1  0  0  0  0
 41 67  1  0  0  0  0
 42 44  1  0  0  0  0
 43 45  1  0  0  0  0
 43 47  1  0  0  0  0
 44 51  1  0  0  0  0
 45 53  1  0  0  0  0
 46 49  1  0  0  0  0
 46 54  1  0  0  0  0
 47 68  1  0  0  0  0
 48 53  1  0  0  0  0
 48 68  1  0  0  0  0
 49 74  1  0  0  0  0
 50 54  1  0  0  0  0
 50 74  1  0  0  0  0
 51 71  1  0  0  0  0
 52 67  1  0  0  0  0
 53 66  1  0  0  0  0
 54 73  1  0  0  0  0
 55 63  1  0  0  0  0
 56 64  1  0  0  0  0
 57 64  1  0  0  0  0
 58 64  1  0  0  0  0
 59 75  1  0  0  0  0
 60 74  1  0  0  0  0
 61 82  1  0  0  0  0
 62 64  1  0  0  0  0
 62 72  1  0  0  0  0
 63 75  1  0  0  0  0
 65 66  1  0  0  0  0
M  CHG  2  74   1  75   1
M  ISO  4  38 100  61 101  73 100  82 101
M  END
> <Batch ID>
0015

> <Smiles>
CNC(C)C(=O)NC(C(=O)N1Cc2cc([101O:1][101CH2:1]c3ccc(Cl)c(CN4CCC([100NH:0][100C:0](=O)N5CCCC(n6nc(-c7ccc(Oc8ccc(F)cc8F)cc7)c(C(N)=O)c6N)C5)C4)c3)ccc2CC1C(=O)NC1CCCc2ccccc21)C(C)(C)C

> <Shape>
0.254

> <Color>
0.101

> <Negative vol penalty>
0.000

$$$$

  -OEChem-04042320543D

 85 94  0     1  0  0  0  0  0999 V2000
  -20.4830  -28.4624   23.4167 C   0  0  0  0  0  0  0  0  0  0  0  0
  -20.5450  -27.1385   22.9940 C   0  0  0  0  0  0  0  0  0  0  0  0
  -23.3152   -9.7421   19.8780 C   0  0  0  0  0  0  0  0  0  0  0  0
  -23.8204   -9.8552   22.2379 C   0  0  0  0  0  0  0  0  0  0  0  0
  -19.4287  -29.2761   23.0042 C   0  0  0  0  0  0  0  0  0  0  0  0
  -19.5518  -26.6270   22.1594 C   0  0  0  0  0  0  0  0  0  0  0  0
  -21.4424  -23.8891   18.3417 C   0  0  0  0  0  0  0  0  0  0  0  0
  -25.5119  -15.2025   15.9330 C   0  0  0  0  0  0  0  0  0  0  0  0
  -26.6121  -14.3838   15.6784 C   0  0  0  0  0  0  0  0  0  0  0  0
  -22.6264   -8.5467   20.0827 C   0  0  0  0  0  0  0  0  0  0  0  0
  -23.1315   -8.6597   22.4426 C   0  0  0  0  0  0  0  0  0  0  0  0
  -21.8560  -22.5901   18.6336 C   0  0  0  0  0  0  0  0  0  0  0  0
  -19.5974   -7.5831   21.2359 C   0  0  0  0  0  0  0  0  0  0  0  0
  -18.3567   -7.4356   20.6160 C   0  0  0  0  0  0  0  0  0  0  0  0
  -19.7876  -21.7357   17.7333 C   0  0  0  0  0  0  0  0  0  0  0  0
  -26.8188  -16.4632   17.5267 C   0  0  0  0  0  0  0  0  0  0  0  0
  -19.1831   -5.5053   19.4211 C   0  0  0  0  0  0  0  0  0  0  0  0
  -23.9123  -10.3964   20.9556 C   0  0  0  0  0  0  0  0  0  0  0  0
  -24.0978  -12.9356   20.7951 C   0  0  0  0  0  0  0  0  0  0  0  0
  -18.4273  -28.7771   22.1563 C   0  0  0  0  0  0  0  0  0  0  0  0
  -20.1915  -24.1224   17.7524 C   0  0  0  0  0  0  0  0  0  0  0  0
  -18.4824  -27.4344   21.7363 C   0  0  0  0  0  0  0  0  0  0  0  0
  -19.3615  -23.0385   17.4326 C   0  0  0  0  0  0  0  0  0  0  0  0
  -25.6152  -16.2423   16.8571 C   0  0  0  0  0  0  0  0  0  0  0  0
  -27.8156  -14.6048   16.3479 C   0  0  0  0  0  0  0  0  0  0  0  0
  -22.5345   -8.0055   21.3650 C   0  0  0  0  0  0  0  0  0  0  0  0
  -21.0273  -21.5133   18.3320 C   0  0  0  0  0  0  0  0  0  0  0  0
  -20.6311   -6.6918   20.9483 C   0  0  0  0  0  0  0  0  0  0  0  0
  -18.1495   -6.3967   19.7087 C   0  0  0  0  0  0  0  0  0  0  0  0
  -27.9190  -15.6445   17.2720 C   0  0  0  0  0  0  0  0  0  0  0  0
  -20.4239   -5.6528   20.0410 C   0  0  0  0  0  0  0  0  0  0  0  0
  -24.6245  -11.6311   20.7447 C   0  0  0  0  0  0  0  0  0  0  0  0
  -25.1710  -13.7498   20.5272 C   0  0  0  0  0  0  0  0  0  0  0  0
  -22.7582  -13.3724   21.0605 C   0  0  0  0  0  0  0  0  0  0  0  0
  -17.5590  -25.6790   18.6188 C   0  0  0  0  0  0  0  0  0  0  0  0
  -16.6116  -24.9640   15.5999 C   0  0  0  0  0  0  0  0  0  0  0  0
  -16.9100  -22.9318   12.8744 C   0  0  0  0  0  0  0  0  0  0  0  0
  -29.9411  -13.4680   17.0417 C   0  0  0  0  0  0  0  0  0  0  0  0
  -17.2819  -29.6812   21.7751 C   0  0  0  0  0  0  0  0  0  0  0  0
  -19.7714  -25.5277   17.4195 C   0  0  0  0  0  0  0  0  0  0  0  0
  -18.0178  -23.2339   16.7810 C   0  0  0  0  0  0  0  0  0  0  0  0
  -16.4707  -29.1690   20.5877 C   0  0  0  0  0  0  0  0  0  0  0  0
  -30.0787  -13.2815   20.7348 C   0  0  0  0  0  0  0  0  0  0  0  0
  -16.1533  -27.6867   20.7577 C   0  0  0  0  0  0  0  0  0  0  0  0
  -28.6544  -12.8740   21.1072 C   0  0  0  0  0  0  0  0  0  0  0  0
  -22.4768  -18.1759   16.8346 C   0  0  0  0  0  0  0  0  0  0  0  0
  -30.4724  -12.7664   19.3538 C   0  0  0  0  0  0  0  0  0  0  0  0
  -23.2283  -16.9007   16.4589 C   0  0  0  0  0  0  0  0  0  0  0  0
  -24.5383  -18.1695   18.0498 C   0  0  0  0  0  0  0  0  0  0  0  0
  -28.0976  -12.7678   18.6455 C   0  0  0  0  0  0  0  0  0  0  0  0
  -17.4374  -26.8501   20.8107 C   0  0  1  0  0  0  0  0  0  0  0  0
  -18.2595  -25.6845   17.2895 C   0  0  1  0  0  0  0  0  0  0  0  0
  -23.0567  -18.5329   18.2001 C   0  0  1  0  0  0  0  0  0  0  0  0
  -27.6627  -13.3090   20.0157 C   0  0  1  0  0  0  0  0  0  0  0  0
  -15.9770  -22.5738   10.5726 C   0  0  0  0  0  0  0  0  0  0  0  0
  -14.0922  -23.7434   16.8136 C   0  0  0  0  0  0  0  0  0  0  0  0
  -13.6823  -22.5909   14.6291 C   0  0  0  0  0  0  0  0  0  0  0  0
  -13.7064  -25.0829   14.7373 C   0  0  0  0  0  0  0  0  0  0  0  0
  -29.2238  -13.3912   14.6941 C   0  0  0  0  0  0  0  0  0  0  0  0
  -19.5503  -23.3676   11.6104 C   0  0  0  0  0  0  0  0  0  0  0  0
  -22.8311  -19.9843   18.5858 C   0  0  0  0  0  0  0  0  0  1  0  0
  -15.8812  -23.8118   14.9532 C   0  0  1  0  0  0  0  0  0  0  0  0
  -17.0648  -23.2444   11.3970 C   0  0  2  0  0  0  0  0  0  0  0  0
  -14.3650  -23.8034   15.2974 C   0  0  0  0  0  0  0  0  0  0  0  0
  -25.9308  -11.6128   20.4664 N   0  0  0  0  0  0  0  0  0  0  0  0
  -26.2338  -12.9159   20.3396 N   0  0  0  0  0  0  0  0  0  0  0  0
  -24.5278  -17.0518   17.1083 N   0  0  3  0  0  0  0  0  0  0  0  0
  -17.6491  -24.6273   16.4808 N   0  0  0  0  0  0  0  0  0  0  0  0
  -29.4884  -13.1370   18.3354 N   0  0  0  0  0  0  0  0  0  0  0  0
  -25.2998  -15.0905   20.4362 N   0  0  0  0  0  0  0  0  0  0  0  0
  -21.7779  -12.4038   21.3159 N   0  0  0  0  0  0  0  0  0  0  0  0
  -17.9805  -26.6732   19.4809 N   0  0  0  0  0  0  0  0  0  0  0  0
  -16.1694  -23.8956   13.5256 N   0  0  0  0  0  0  0  0  0  0  0  0
  -28.9515  -13.7560   16.0826 N   0  0  0  0  0  0  0  0  0  0  0  0
  -18.3885  -22.7703   10.9031 N   0  3  0  0  0  0  0  0  0  0  0  0
  -22.4365  -14.5848   21.0545 O   0  0  0  0  0  0  0  0  0  0  0  0
  -16.6987  -24.8361   18.8449 O   0  0  0  0  0  0  0  0  0  0  0  0
  -16.2786  -26.1201   15.3278 O   0  0  0  0  0  0  0  0  0  0  0  0
  -17.3943  -21.9308   13.3978 O   0  0  0  0  0  0  0  0  0  0  0  0
  -31.1421  -13.4539   16.7451 O   0  0  0  0  0  0  0  0  0  0  0  0
  -21.8622   -6.8391   21.5651 O   0  0  0  0  0  0  0  0  0  0  0  0
  -21.4283  -20.2444   18.6164 O   0  0  0  0  0  0  0  0  0  1  0  0
  -16.9574   -6.2542   19.1146 F   0  0  0  0  0  0  0  0  0  0  0  0
  -29.0709  -15.8656   17.9215 F   0  0  0  0  0  0  0  0  0  0  0  0
  -21.4128   -4.7927   19.7616 F   0  0  0  0  0  0  0  0  0  0  0  0
  1  2  1  0  0  0  0
  1  5  2  0  0  0  0
  2  6  2  0  0  0  0
  3 10  2  0  0  0  0
  3 18  1  0  0  0  0
  4 11  1  0  0  0  0
  4 18  2  0  0  0  0
  5 20  1  0  0  0  0
  6 22  1  0  0  0  0
  7 12  2  0  0  0  0
  7 21  1  0  0  0  0
  8  9  2  0  0  0  0
  8 24  1  0  0  0  0
  9 25  1  0  0  0  0
 10 26  1  0  0  0  0
 11 26  2  0  0  0  0
 12 27  1  0  0  0  0
 13 14  2  0  0  0  0
 13 28  1  0  0  0  0
 14 29  1  0  0  0  0
 15 23  1  0  0  0  0
 15 27  2  0  0  0  0
 16 24  2  0  0  0  0
 16 30  1  0  0  0  0
 17 29  2  0  0  0  0
 17 31  1  0  0  0  0
 18 32  1  0  0  0  0
 19 32  1  0  0  0  0
 19 33  2  0  0  0  0
 19 34  1  0  0  0  0
 20 22  2  0  0  0  0
 20 39  1  0  0  0  0
 21 23  2  0  0  0  0
 21 40  1  0  0  0  0
 22 51  1  0  0  0  0
 23 41  1  0  0  0  0
 24 67  1  0  0  0  0
 25 30  2  0  0  0  0
 25 74  1  0  0  0  0
 26 81  1  0  0  0  0
 27 82  1  0  0  0  0
 28 31  2  0  0  0  0
 28 81  1  0  0  0  0
 29 83  1  0  0  0  0
 30 84  1  0  0  0  0
 31 85  1  0  0  0  0
 32 65  2  0  0  0  0
 33 66  1  0  0  0  0
 33 70  1  0  0  0  0
 34 71  1  0  0  0  0
 34 76  2  0  0  0  0
 35 52  1  0  0  0  0
 35 72  1  0  0  0  0
 35 77  2  0  0  0  0
 36 62  1  0  0  0  0
 36 68  1  0  0  0  0
 36 78  2  0  0  0  0
 37 63  1  0  0  0  0
 37 73  1  0  0  0  0
 37 79  2  0  0  0  0
 38 69  1  0  0  0  0
 38 74  1  0  0  0  0
 38 80  2  0  0  0  0
 39 42  1  0  0  0  0
 40 52  1  0  0  0  0
 41 68  1  0  0  0  0
 42 44  1  0  0  0  0
 43 45  1  0  0  0  0
 43 47  1  0  0  0  0
 44 51  1  0  0  0  0
 45 54  1  0  0  0  0
 46 48  1  0  0  0  0
 46 53  1  0  0  0  0
 47 69  1  0  0  0  0
 48 67  1  0  0  0  0
 49 53  1  0  0  0  0
 49 67  1  0  0  0  0
 50 54  1  0  0  0  0
 50 69  1  0  0  0  0
 51 72  1  0  0  0  0
 52 68  1  0  0  0  0
 53 61  1  0  0  0  0
 54 66  1  0  0  0  0
 55 63  1  0  0  0  0
 56 64  1  0  0  0  0
 57 64  1  0  0  0  0
 58 64  1  0  0  0  0
 59 74  1  0  0  0  0
 60 75  1  0  0  0  0
 61 82  1  0  0  0  0
 62 64  1  0  0  0  0
 62 73  1  0  0  0  0
 63 75  1  0  0  0  0
 65 66  1  0  0  0  0
M  CHG  1  75   1
M  ISO  4  38 100  61 101  74 100  82 101
M  END
> <Batch ID>
0015

> <Smiles>
CNC(C)C(=O)NC(C(=O)N1Cc2cc([101O:1][101CH2:1]C3CCN(c4ccc([100N:0](C)[100C:0](=O)N5CCCC(n6nc(-c7ccc(Oc8ccc(F)cc8F)cc7)c(C(N)=O)c6N)C5)c(F)c4)C3)ccc2CC1C(=O)NC1CCCc2ccccc21)C(C)(C)C

> <Shape>
0.170

> <Color>
0.201

> <Negative vol penalty>
0.000

$$$$

  -OEChem-04042320543D

 89 98  0     1  0  0  0  0  0999 V2000
  -16.9608  -29.5660   24.5366 C   0  0  0  0  0  0  0  0  0  0  0  0
  -17.1859  -28.3417   23.9154 C   0  0  0  0  0  0  0  0  0  0  0  0
  -26.1323  -12.6583   21.6548 C   0  0  0  0  0  0  0  0  0  0  0  0
  -25.1551  -13.8845   19.8167 C   0  0  0  0  0  0  0  0  0  0  0  0
  -17.6898  -30.6887   24.1469 C   0  0  0  0  0  0  0  0  0  0  0  0
  -18.1395  -28.2398   22.9031 C   0  0  0  0  0  0  0  0  0  0  0  0
  -22.8859  -23.6359   20.1477 C   0  0  0  0  0  0  0  0  0  0  0  0
  -30.2702  -21.9982   19.6529 C   0  0  0  0  0  0  0  0  0  0  0  0
  -31.0715  -22.8875   18.9369 C   0  0  0  0  0  0  0  0  0  0  0  0
  -25.0061  -11.8369   21.7056 C   0  0  0  0  0  0  0  0  0  0  0  0
  -24.0289  -13.0631   19.8675 C   0  0  0  0  0  0  0  0  0  0  0  0
  -23.2547  -23.0702   18.9280 C   0  0  0  0  0  0  0  0  0  0  0  0
  -22.5451   -9.1881   22.0831 C   0  0  0  0  0  0  0  0  0  0  0  0
  -22.7497   -7.8139   22.2069 C   0  0  0  0  0  0  0  0  0  0  0  0
  -24.5102  -25.0592   18.3921 C   0  0  0  0  0  0  0  0  0  0  0  0
  -29.4455  -22.9141   17.1501 C   0  0  0  0  0  0  0  0  0  0  0  0
  -23.9817   -7.8103   20.1285 C   0  0  0  0  0  0  0  0  0  0  0  0
  -26.2068  -13.6821   20.7104 C   0  0  0  0  0  0  0  0  0  0  0  0
  -28.5381  -14.3267   19.8998 C   0  0  0  0  0  0  0  0  0  0  0  0
  -18.6596  -30.5983   23.1360 C   0  0  0  0  0  0  0  0  0  0  0  0
  -23.3183  -24.9240   20.4947 C   0  0  0  0  0  0  0  0  0  0  0  0
  -18.8812  -29.3626   22.4985 C   0  0  0  0  0  0  0  0  0  0  0  0
  -24.1476  -25.6379   19.6179 C   0  0  0  0  0  0  0  0  0  0  0  0
  -29.0565  -21.5668   19.1175 C   0  0  0  0  0  0  0  0  0  0  0  0
  -30.6592  -23.3455   17.6856 C   0  0  0  0  0  0  0  0  0  0  0  0
  -28.6442  -22.0248   17.8661 C   0  0  0  0  0  0  0  0  0  0  0  0
  -23.9544  -12.0393   20.8120 C   0  0  0  0  0  0  0  0  0  0  0  0
  -24.0646  -23.7830   18.0487 C   0  0  0  0  0  0  0  0  0  0  0  0
  -23.0587   -9.8734   20.9821 C   0  0  0  0  0  0  0  0  0  0  0  0
  -23.4680   -7.1250   21.2296 C   0  0  0  0  0  0  0  0  0  0  0  0
  -23.7770   -9.1845   20.0048 C   0  0  0  0  0  0  0  0  0  0  0  0
  -27.3696  -14.5313   20.6578 C   0  0  0  0  0  0  0  0  0  0  0  0
  -29.3333  -15.4066   20.1963 C   0  0  0  0  0  0  0  0  0  0  0  0
  -32.7231  -24.7770   17.3588 C   0  0  0  0  0  0  0  0  0  0  0  0
  -28.8746  -13.2561   19.0073 C   0  0  0  0  0  0  0  0  0  0  0  0
  -21.8702  -27.6836   21.1202 C   0  0  0  0  0  0  0  0  0  0  0  0
  -24.8772  -28.6454   21.8654 C   0  0  0  0  0  0  0  0  0  0  0  0
  -28.2391  -28.2127   21.4692 C   0  0  0  0  0  0  0  0  0  0  0  0
  -27.6579  -20.8890   22.3583 C   0  0  0  0  0  0  0  0  0  0  0  0
  -19.3894  -31.8497   22.7161 C   0  0  0  0  0  0  0  0  0  0  0  0
  -22.9336  -25.5094   21.8257 C   0  0  0  0  0  0  0  0  0  0  0  0
  -24.6551  -27.0160   19.9519 C   0  0  0  0  0  0  0  0  0  0  0  0
  -33.1564  -25.7703   16.3046 C   0  0  0  0  0  0  0  0  0  0  0  0
  -20.6458  -31.5752   21.8937 C   0  0  0  0  0  0  0  0  0  0  0  0
  -32.3416  -25.3708   15.0907 C   0  0  0  0  0  0  0  0  0  0  0  0
  -30.2316  -18.5706   23.6629 C   0  0  0  0  0  0  0  0  0  0  0  0
  -20.3572  -30.5461   20.8054 C   0  0  0  0  0  0  0  0  0  0  0  0
  -29.8358  -17.2402   23.0247 C   0  0  0  0  0  0  0  0  0  0  0  0
  -31.0605  -24.8298   15.6902 C   0  0  0  0  0  0  0  0  0  0  0  0
  -29.0273  -19.4866   23.8581 C   0  0  0  0  0  0  0  0  0  0  0  0
  -27.8500  -18.3970   21.9764 C   0  0  0  0  0  0  0  0  0  0  0  0
  -19.9245  -29.2065   21.4135 C   0  0  1  0  0  0  0  0  0  0  0  0
  -23.0093  -27.0329   21.8528 C   0  0  1  0  0  0  0  0  0  0  0  0
  -29.0476  -17.4690   21.7233 C   0  0  2  0  0  0  0  0  0  0  0  0
  -30.4460  -29.1762   22.1755 C   0  0  0  0  0  0  0  0  0  0  0  0
  -24.4786  -30.9706   19.9304 C   0  0  0  0  0  0  0  0  0  0  0  0
  -26.9574  -31.3219   19.9513 C   0  0  0  0  0  0  0  0  0  0  0  0
  -25.6461  -31.5728   22.0585 C   0  0  0  0  0  0  0  0  0  0  0  0
  -26.9092  -22.5500   20.6969 C   0  0  0  0  0  0  0  0  0  0  0  0
  -29.0616  -25.6813   22.7632 C   0  0  0  0  0  0  0  0  0  0  0  0
  -28.2180  -20.6143   19.9061 C   0  0  0  0  0  0  0  0  0  0  0  0
  -25.5780  -21.4432   15.7501 C   0  0  0  0  0  0  0  0  0  0  0  0
  -26.9531  -22.0365   16.0315 C   0  0  0  0  0  0  0  0  0  0  0  0
  -24.5432  -21.8122   16.8065 C   0  0  0  0  0  0  0  0  0  1  0  0
  -26.0224  -29.2636   21.1003 C   0  0  1  0  0  0  0  0  0  0  0  0
  -29.3716  -28.1433   22.4778 C   0  0  2  0  0  0  0  0  0  0  0  0
  -25.7651  -30.7570   20.7527 C   0  0  0  0  0  0  0  0  0  0  0  0
  -27.4144  -15.6530   21.3816 N   0  0  0  0  0  0  0  0  0  0  0  0
  -28.6207  -16.1628   21.0798 N   0  0  0  0  0  0  0  0  0  0  0  0
  -31.4793  -24.2545   16.9538 N   0  0  0  0  0  0  0  0  0  0  0  0
  -24.2464  -27.5479   21.2625 N   0  0  0  0  0  0  0  0  0  0  0  0
  -28.2717  -19.6522   22.6160 N   0  0  0  0  0  0  0  0  0  0  0  0
  -30.5656  -15.7735   19.7851 N   0  0  0  0  0  0  0  0  0  0  0  0
  -27.9426  -12.2268   18.8172 N   0  0  0  0  0  0  0  0  0  0  0  0
  -27.4416  -21.6054   17.3191 N   0  0  0  0  0  0  0  0  0  0  0  0
  -21.0739  -28.4849   21.9160 N   0  0  0  0  0  0  0  0  0  0  0  0
  -27.2197  -29.0343   21.9017 N   0  0  0  0  0  0  0  0  0  0  0  0
  -27.5285  -21.2711   21.0144 N   0  0  0  0  0  0  0  0  0  0  0  0
  -30.0000  -26.7921   22.4588 N   0  3  0  0  0  0  0  0  0  0  0  0
  -33.3697  -24.5737   18.3761 O   0  0  0  0  0  0  0  0  0  0  0  0
  -29.9761  -13.2052   18.4092 O   0  0  0  0  0  0  0  0  0  0  0  0
  -21.7254  -27.4754   19.9213 O   0  0  0  0  0  0  0  0  0  0  0  0
  -24.5588  -29.1143   22.9610 O   0  0  0  0  0  0  0  0  0  0  0  0
  -28.2587  -27.6024   20.4026 O   0  0  0  0  0  0  0  0  0  0  0  0
  -27.2574  -21.6148   23.2774 O   0  0  0  0  0  0  0  0  0  0  0  0
  -22.8554  -11.2379   20.8611 O   0  0  0  0  0  0  0  0  0  0  0  0
  -24.4255  -23.2335   16.8572 O   0  0  0  0  0  0  0  0  0  1  0  0
  -23.6658   -5.8056   21.3493 F   0  0  0  0  0  0  0  0  0  0  0  0
  -24.2739   -9.8376   18.9454 F   0  0  0  0  0  0  0  0  0  0  0  0
  1  2  1  0  0  0  0
  1  5  2  0  0  0  0
  2  6  2  0  0  0  0
  3 10  2  0  0  0  0
  3 18  1  0  0  0  0
  4 11  1  0  0  0  0
  4 18  2  0  0  0  0
  5 20  1  0  0  0  0
  6 22  1  0  0  0  0
  7 12  2  0  0  0  0
  7 21  1  0  0  0  0
  8  9  2  0  0  0  0
  8 24  1  0  0  0  0
  9 25  1  0  0  0  0
 10 27  1  0  0  0  0
 11 27  2  0  0  0  0
 12 28  1  0  0  0  0
 13 14  2  0  0  0  0
 13 29  1  0  0  0  0
 14 30  1  0  0  0  0
 15 23  1  0  0  0  0
 15 28  2  0  0  0  0
 16 25  2  0  0  0  0
 16 26  1  0  0  0  0
 17 30  2  0  0  0  0
 17 31  1  0  0  0  0
 18 32  1  0  0  0  0
 19 32  1  0  0  0  0
 19 33  2  0  0  0  0
 19 35  1  0  0  0  0
 20 22  2  0  0  0  0
 20 40  1  0  0  0  0
 21 23  2  0  0  0  0
 21 41  1  0  0  0  0
 22 52  1  0  0  0  0
 23 42  1  0  0  0  0
 24 26  2  0  0  0  0
 24 61  1  0  0  0  0
 25 70  1  0  0  0  0
 26 75  1  0  0  0  0
 27 86  1  0  0  0  0
 28 87  1  0  0  0  0
 29 31  2  0  0  0  0
 29 86  1  0  0  0  0
 30 88  1  0  0  0  0
 31 89  1  0  0  0  0
 32 68  2  0  0  0  0
 33 69  1  0  0  0  0
 33 73  1  0  0  0  0
 34 43  1  0  0  0  0
 34 70  1  0  0  0  0
 34 80  2  0  0  0  0
 35 74  1  0  0  0  0
 35 81  2  0  0  0  0
 36 53  1  0  0  0  0
 36 76  1  0  0  0  0
 36 82  2  0  0  0  0
 37 65  1  0  0  0  0
 37 71  1  0  0  0  0
 37 83  2  0  0  0  0
 38 66  1  0  0  0  0
 38 77  1  0  0  0  0
 38 84  2  0  0  0  0
 39 72  1  0  0  0  0
 39 78  1  0  0  0  0
 39 85  2  0  0  0  0
 40 44  1  0  0  0  0
 41 53  1  0  0  0  0
 42 71  1  0  0  0  0
 43 45  1  0  0  0  0
 44 47  1  0  0  0  0
 45 49  1  0  0  0  0
 46 48  1  0  0  0  0
 46 50  1  0  0  0  0
 47 52  1  0  0  0  0
 48 54  1  0  0  0  0
 49 70  1  0  0  0  0
 50 72  1  0  0  0  0
 51 54  1  0  0  0  0
 51 72  1  0  0  0  0
 52 76  1  0  0  0  0
 53 71  1  0  0  0  0
 54 69  1  0  0  0  0
 55 66  1  0  0  0  0
 56 67  1  0  0  0  0
 57 67  1  0  0  0  0
 58 67  1  0  0  0  0
 59 78  1  0  0  0  0
 60 79  1  0  0  0  0
 61 78  1  0  0  0  0
 62 63  1  0  0  0  0
 62 64  1  0  0  0  0
 63 75  1  0  0  0  0
 64 87  1  0  0  0  0
 65 67  1  0  0  0  0
 65 77  1  0  0  0  0
 66 79  1  0  0  0  0
 68 69  1  0  0  0  0
M  CHG  1  79   1
M  ISO  4  39 100  64 101  78 100  87 101
M  END
> <Batch ID>
0015

> <Smiles>
CNC(C)C(=O)NC(C(=O)N1Cc2cc([101O:1][101CH2:1]CCNc3cc(N4CCCC4=O)ccc3C[100N:0](C)[100C:0](=O)N3CCCC(n4nc(-c5ccc(Oc6ccc(F)cc6F)cc5)c(C(N)=O)c4N)C3)ccc2CC1C(=O)NC1CCCc2ccccc21)C(C)(C)C

> <Shape>
0.268

> <Color>
0.068

> <Negative vol penalty>
0.000

$$$$

  -OEChem-04042320543D

 87 95  0     1  0  0  0  0  0999 V2000
  -23.4949  -15.7908   18.5835 C   0  0  0  0  0  0  0  0  0  0  0  0
  -23.4439  -17.1799   18.5544 C   0  0  0  0  0  0  0  0  0  0  0  0
  -29.5966  -17.2679   19.1652 C   0  0  0  0  0  0  0  0  0  0  0  0
  -28.1880  -17.8684   21.0339 C   0  0  0  0  0  0  0  0  0  0  0  0
  -23.6391  -15.1278   19.8003 C   0  0  0  0  0  0  0  0  0  0  0  0
  -23.5490  -17.9067   19.7408 C   0  0  0  0  0  0  0  0  0  0  0  0
  -23.1209  -23.8976   20.7672 C   0  0  0  0  0  0  0  0  0  0  0  0
  -25.6138  -27.1650   19.7012 C   0  0  0  0  0  0  0  0  0  0  0  0
  -27.3525  -28.4682   20.7574 C   0  0  0  0  0  0  0  0  0  0  0  0
  -24.6776  -28.1436   20.0350 C   0  0  0  0  0  0  0  0  0  0  0  0
  -26.4163  -29.4469   21.0911 C   0  0  0  0  0  0  0  0  0  0  0  0
  -29.7686  -15.9931   19.7044 C   0  0  0  0  0  0  0  0  0  0  0  0
  -28.3599  -16.5935   21.5732 C   0  0  0  0  0  0  0  0  0  0  0  0
  -22.1269  -24.8157   21.1030 C   0  0  0  0  0  0  0  0  0  0  0  0
  -30.2858  -12.4638   20.4057 C   0  0  0  0  0  0  0  0  0  0  0  0
  -30.1751  -11.3741   19.5422 C   0  0  0  0  0  0  0  0  0  0  0  0
  -22.7630  -24.6465   23.4238 C   0  0  0  0  0  0  0  0  0  0  0  0
  -27.9050  -12.0167   19.0221 C   0  0  0  0  0  0  0  0  0  0  0  0
  -28.8064  -18.2057   19.8300 C   0  0  0  0  0  0  0  0  0  0  0  0
  -27.6230  -19.9405   18.3816 C   0  0  0  0  0  0  0  0  0  0  0  0
  -23.7333  -15.8472   21.0031 C   0  0  0  0  0  0  0  0  0  0  0  0
  -23.9377  -23.3379   21.7603 C   0  0  0  0  0  0  0  0  0  0  0  0
  -23.7190  -17.2566   20.9766 C   0  0  0  0  0  0  0  0  0  0  0  0
  -23.7683  -23.7235   23.0977 C   0  0  0  0  0  0  0  0  0  0  0  0
  -26.9513  -27.3273   20.0625 C   0  0  0  0  0  0  0  0  0  0  0  0
  -25.0788  -29.2846   20.7299 C   0  0  0  0  0  0  0  0  0  0  0  0
  -29.1502  -15.6559   20.9084 C   0  0  0  0  0  0  0  0  0  0  0  0
  -21.9459  -25.1881   22.4318 C   0  0  0  0  0  0  0  0  0  0  0  0
  -29.2059  -13.3300   20.5776 C   0  0  0  0  0  0  0  0  0  0  0  0
  -28.9848  -11.1505   18.8503 C   0  0  0  0  0  0  0  0  0  0  0  0
  -28.0156  -13.1064   19.8857 C   0  0  0  0  0  0  0  0  0  0  0  0
  -28.6288  -19.5229   19.2737 C   0  0  0  0  0  0  0  0  0  0  0  0
  -27.8918  -21.2688   18.1586 C   0  0  0  0  0  0  0  0  0  0  0  0
  -26.5423  -19.1944   17.8062 C   0  0  0  0  0  0  0  0  0  0  0  0
  -24.4586  -20.3940   22.8401 C   0  0  0  0  0  0  0  0  0  0  0  0
  -26.7556  -21.8639   24.5965 C   0  0  0  0  0  0  0  0  0  0  0  0
  -22.3615  -29.2953   22.3916 C   0  0  0  0  0  0  0  0  0  0  0  0
  -27.9135  -24.7374   26.0281 C   0  0  0  0  0  0  0  0  0  0  0  0
  -29.2673  -26.3376   20.0077 C   0  0  0  0  0  0  0  0  0  0  0  0
  -23.8960  -15.0790   22.2910 C   0  0  0  0  0  0  0  0  0  0  0  0
  -25.0230  -22.3691   21.3784 C   0  0  0  0  0  0  0  0  0  0  0  0
  -24.6322  -23.1670   24.1989 C   0  0  0  0  0  0  0  0  0  0  0  0
  -23.5537  -15.9078   23.5248 C   0  0  0  0  0  0  0  0  0  0  0  0
  -31.9327  -24.0621   19.3795 C   0  0  0  0  0  0  0  0  0  0  0  0
  -24.2713  -17.2481   23.4661 C   0  0  0  0  0  0  0  0  0  0  0  0
  -31.2281  -22.7127   19.2226 C   0  0  0  0  0  0  0  0  0  0  0  0
  -31.2668  -24.9290   20.4467 C   0  0  0  0  0  0  0  0  0  0  0  0
  -29.1163  -23.7724   20.1197 C   0  0  0  0  0  0  0  0  0  0  0  0
  -23.8005  -18.0671   22.2575 C   0  0  1  0  0  0  0  0  0  0  0  0
  -25.4581  -21.4733   22.5341 C   0  0  1  0  0  0  0  0  0  0  0  0
  -29.7118  -22.8900   19.0103 C   0  0  2  0  0  0  0  0  0  0  0  0
  -29.7975  -25.6182   27.4324 C   0  0  0  0  0  0  0  0  0  0  0  0
  -20.7347  -29.1461   24.9482 C   0  0  0  0  0  0  0  0  0  0  0  0
  -25.5069  -20.5854   27.0695 C   0  0  0  0  0  0  0  0  0  0  0  0
  -26.7903  -22.2131   28.4735 C   0  0  0  0  0  0  0  0  0  0  0  0
  -28.0075  -20.5746   27.0396 C   0  0  0  0  0  0  0  0  0  0  0  0
  -24.5934  -31.6291   21.3839 C   0  0  0  0  0  0  0  0  0  0  0  0
  -20.0091  -29.2057   21.5101 C   0  0  0  0  0  0  0  0  0  0  0  0
  -28.7718  -26.6136   23.9063 C   0  0  0  0  0  0  0  0  0  0  0  0
  -22.7274  -29.9915   21.0926 C   0  0  0  0  0  0  0  0  0  0  0  0
  -21.2147  -26.9085   23.9020 C   0  0  0  0  0  0  0  0  0  1  0  0
  -26.8072  -22.5181   25.9561 C   0  0  1  0  0  0  0  0  0  0  0  0
  -29.2865  -25.3849   26.0192 C   0  0  2  0  0  0  0  0  0  0  0  0
  -20.5251  -28.2603   23.7270 C   0  0  2  0  0  0  0  0  0  0  0  0
  -26.7603  -21.4820   27.1144 C   0  0  0  0  0  0  0  0  0  0  0  0
  -29.4736  -20.5062   19.5953 N   0  0  0  0  0  0  0  0  0  0  0  0
  -28.9994  -21.5549   18.9014 N   0  0  0  0  0  0  0  0  0  0  0  0
  -25.6755  -22.2184   23.7758 N   0  0  0  0  0  0  0  0  0  0  0  0
  -29.8328  -25.0562   20.1781 N   0  0  0  0  0  0  0  0  0  0  0  0
  -27.2866  -22.2084   17.4013 N   0  0  0  0  0  0  0  0  0  0  0  0
  -26.4120  -17.8400   18.1422 N   0  0  0  0  0  0  0  0  0  0  0  0
  -27.9018  -26.3322   19.7247 N   0  0  0  0  0  0  0  0  0  0  0  0
  -24.6472  -19.2313   22.1175 N   0  0  0  0  0  0  0  0  0  0  0  0
  -27.9966  -23.3628   25.9578 N   0  0  0  0  0  0  0  0  0  0  0  0
  -24.1345  -30.2715   21.0654 N   0  0  3  0  0  0  0  0  0  0  0  0
  -21.0126  -28.9307   22.5430 N   0  0  0  0  0  0  0  0  0  0  0  0
  -29.2356  -26.6975   25.3152 N   0  3  0  0  0  0  0  0  0  0  0  0
  -25.7264  -19.7094   17.0045 O   0  0  0  0  0  0  0  0  0  0  0  0
  -23.5821  -20.6002   23.6712 O   0  0  0  0  0  0  0  0  0  0  0  0
  -27.6450  -21.0732   24.2718 O   0  0  0  0  0  0  0  0  0  0  0  0
  -23.2182  -29.0712   23.2509 O   0  0  0  0  0  0  0  0  0  0  0  0
  -26.8716  -25.3859   26.0948 O   0  0  0  0  0  0  0  0  0  0  0  0
  -29.9498  -27.3628   20.0787 O   0  0  0  0  0  0  0  0  0  0  0  0
  -29.3176  -14.4119   21.4347 O   0  0  0  0  0  0  0  0  0  0  0  0
  -20.9759  -26.0836   22.7623 O   0  0  0  0  0  0  0  0  0  1  0  0
  -28.8792  -10.1049   18.0198 F   0  0  0  0  0  0  0  0  0  0  0  0
  -26.9752  -13.9358   20.0458 F   0  0  0  0  0  0  0  0  0  0  0  0
  1  2  1  0  0  0  0
  1  5  2  0  0  0  0
  2  6  2  0  0  0  0
  3 12  2  0  0  0  0
  3 19  1  0  0  0  0
  4 13  1  0  0  0  0
  4 19  2  0  0  0  0
  5 21  1  0  0  0  0
  6 23  1  0  0  0  0
  7 14  2  0  0  0  0
  7 22  1  0  0  0  0
  8 10  2  0  0  0  0
  8 25  1  0  0  0  0
  9 11  1  0  0  0  0
  9 25  2  0  0  0  0
 10 26  1  0  0  0  0
 11 26  2  0  0  0  0
 12 27  1  0  0  0  0
 13 27  2  0  0  0  0
 14 28  1  0  0  0  0
 15 16  2  0  0  0  0
 15 29  1  0  0  0  0
 16 30  1  0  0  0  0
 17 24  1  0  0  0  0
 17 28  2  0  0  0  0
 18 30  2  0  0  0  0
 18 31  1  0  0  0  0
 19 32  1  0  0  0  0
 20 32  1  0  0  0  0
 20 33  2  0  0  0  0
 20 34  1  0  0  0  0
 21 23  2  0  0  0  0
 21 40  1  0  0  0  0
 22 24  2  0  0  0  0
 22 41  1  0  0  0  0
 23 49  1  0  0  0  0
 24 42  1  0  0  0  0
 25 72  1  0  0  0  0
 26 75  1  0  0  0  0
 27 84  1  0  0  0  0
 28 85  1  0  0  0  0
 29 31  2  0  0  0  0
 29 84  1  0  0  0  0
 30 86  1  0  0  0  0
 31 87  1  0  0  0  0
 32 66  2  0  0  0  0
 33 67  1  0  0  0  0
 33 70  1  0  0  0  0
 34 71  1  0  0  0  0
 34 78  2  0  0  0  0
 35 50  1  0  0  0  0
 35 73  1  0  0  0  0
 35 79  2  0  0  0  0
 36 62  1  0  0  0  0
 36 68  1  0  0  0  0
 36 80  2  0  0  0  0
 37 60  1  0  0  0  0
 37 76  1  0  0  0  0
 37 81  2  0  0  0  0
 38 63  1  0  0  0  0
 38 74  1  0  0  0  0
 38 82  2  0  0  0  0
 39 69  1  0  0  0  0
 39 72  1  0  0  0  0
 39 83  2  0  0  0  0
 40 43  1  0  0  0  0
 41 50  1  0  0  0  0
 42 68  1  0  0  0  0
 43 45  1  0  0  0  0
 44 46  1  0  0  0  0
 44 47  1  0  0  0  0
 45 49  1  0  0  0  0
 46 51  1  0  0  0  0
 47 69  1  0  0  0  0
 48 51  1  0  0  0  0
 48 69  1  0  0  0  0
 49 73  1  0  0  0  0
 50 68  1  0  0  0  0
 51 67  1  0  0  0  0
 52 63  1  0  0  0  0
 53 64  1  0  0  0  0
 54 65  1  0  0  0  0
 55 65  1  0  0  0  0
 56 65  1  0  0  0  0
 57 75  1  0  0  0  0
 58 76  1  0  0  0  0
 59 77  1  0  0  0  0
 60 75  1  0  0  0  0
 61 64  1  0  0  0  0
 61 85  1  0  0  0  0
 62 65  1  0  0  0  0
 62 74  1  0  0  0  0
 63 77  1  0  0  0  0
 64 76  1  0  0  0  0
 66 67  1  0  0  0  0
M  CHG  1  77   1
M  ISO  4  39 100  61 101  72 100  85 101
M  END
> <Batch ID>
0015

> <Smiles>
CNC(C)C(=O)NC(C(=O)N1Cc2cc([101O:1][101CH2:1]C(C)N(C)C(=O)CN(C)c3ccc([100NH:0][100C:0](=O)N4CCCC(n5nc(-c6ccc(Oc7ccc(F)cc7F)cc6)c(C(N)=O)c5N)C4)cc3)ccc2CC1C(=O)NC1CCCc2ccccc21)C(C)(C)C

> <Shape>
0.236

> <Color>
0.068

> <Negative vol penalty>
0.000

$$$$

  -OEChem-04042320543D

 85 93  0     1  0  0  0  0  0999 V2000
  -16.9296  -30.1130   23.3773 C   0  0  0  0  0  0  0  0  0  0  0  0
  -18.1527  -30.7012   23.0718 C   0  0  0  0  0  0  0  0  0  0  0  0
  -25.3237  -14.2040   21.2713 C   0  0  0  0  0  0  0  0  0  0  0  0
  -26.2884  -13.0407   19.3864 C   0  0  0  0  0  0  0  0  0  0  0  0
  -16.8553  -28.7394   23.6044 C   0  0  0  0  0  0  0  0  0  0  0  0
  -19.3026  -29.9163   22.9944 C   0  0  0  0  0  0  0  0  0  0  0  0
  -25.5236  -29.4595   19.4721 C   0  0  0  0  0  0  0  0  0  0  0  0
  -31.6802  -24.4572   22.1219 C   0  0  0  0  0  0  0  0  0  0  0  0
  -31.3206  -23.4602   21.2151 C   0  0  0  0  0  0  0  0  0  0  0  0
  -24.3271  -13.2323   21.3610 C   0  0  0  0  0  0  0  0  0  0  0  0
  -25.2919  -12.0688   19.4761 C   0  0  0  0  0  0  0  0  0  0  0  0
  -26.8921  -29.3459   19.7133 C   0  0  0  0  0  0  0  0  0  0  0  0
  -24.0144  -10.0888   22.5668 C   0  0  0  0  0  0  0  0  0  0  0  0
  -23.7057   -9.5918   23.8330 C   0  0  0  0  0  0  0  0  0  0  0  0
  -26.6300  -26.9712   20.0471 C   0  0  0  0  0  0  0  0  0  0  0  0
  -29.6119  -24.1116   23.3220 C   0  0  0  0  0  0  0  0  0  0  0  0
  -21.4305  -10.3647   23.5817 C   0  0  0  0  0  0  0  0  0  0  0  0
  -26.3043  -14.1083   20.2840 C   0  0  0  0  0  0  0  0  0  0  0  0
  -28.5860  -15.1081   20.8336 C   0  0  0  0  0  0  0  0  0  0  0  0
  -18.0032  -27.9357   23.5203 C   0  0  0  0  0  0  0  0  0  0  0  0
  -24.6949  -28.3296   19.5274 C   0  0  0  0  0  0  0  0  0  0  0  0
  -19.2439  -28.5308   23.2220 C   0  0  0  0  0  0  0  0  0  0  0  0
  -25.2518  -27.0727   19.8037 C   0  0  0  0  0  0  0  0  0  0  0  0
  -30.8259  -24.7829   23.1754 C   0  0  0  0  0  0  0  0  0  0  0  0
  -30.1067  -22.7889   21.3617 C   0  0  0  0  0  0  0  0  0  0  0  0
  -24.3112  -12.1647   20.4634 C   0  0  0  0  0  0  0  0  0  0  0  0
  -27.4450  -28.1021   20.0037 C   0  0  0  0  0  0  0  0  0  0  0  0
  -23.0312  -10.7239   21.8081 C   0  0  0  0  0  0  0  0  0  0  0  0
  -22.4138   -9.7297   24.3405 C   0  0  0  0  0  0  0  0  0  0  0  0
  -21.7392  -10.8618   22.3155 C   0  0  0  0  0  0  0  0  0  0  0  0
  -29.2523  -23.1146   22.4151 C   0  0  0  0  0  0  0  0  0  0  0  0
  -27.3337  -15.1121   20.1904 C   0  0  0  0  0  0  0  0  0  0  0  0
  -29.1872  -16.2723   20.4217 C   0  0  0  0  0  0  0  0  0  0  0  0
  -29.1549  -14.1387   21.7237 C   0  0  0  0  0  0  0  0  0  0  0  0
  -22.2183  -27.4495   21.3150 C   0  0  0  0  0  0  0  0  0  0  0  0
  -22.1216  -24.9439   19.2572 C   0  0  0  0  0  0  0  0  0  0  0  0
  -23.7835  -22.9452   17.0457 C   0  0  0  0  0  0  0  0  0  0  0  0
  -28.6056  -21.8575   19.6083 C   0  0  0  0  0  0  0  0  0  0  0  0
  -17.8816  -26.4627   23.8204 C   0  0  0  0  0  0  0  0  0  0  0  0
  -23.2250  -28.4646   19.2385 C   0  0  0  0  0  0  0  0  0  0  0  0
  -24.4086  -25.8257   19.8549 C   0  0  0  0  0  0  0  0  0  0  0  0
  -19.0816  -25.6443   23.3507 C   0  0  0  0  0  0  0  0  0  0  0  0
  -27.9087  -19.5589   16.8082 C   0  0  0  0  0  0  0  0  0  0  0  0
  -20.3845  -26.3263   23.7558 C   0  0  0  0  0  0  0  0  0  0  0  0
  -27.7362  -18.2120   17.5082 C   0  0  0  0  0  0  0  0  0  0  0  0
  -27.4970  -20.7214   17.7065 C   0  0  0  0  0  0  0  0  0  0  0  0
  -28.0192  -19.3885   19.7266 C   0  0  0  0  0  0  0  0  0  0  0  0
  -20.5091  -27.7090   23.1045 C   0  0  1  0  0  0  0  0  0  0  0  0
  -22.3935  -27.3293   19.8276 C   0  0  1  0  0  0  0  0  0  0  0  0
  -28.4664  -18.1998   18.8623 C   0  0  1  0  0  0  0  0  0  0  0  0
  -23.4489  -20.9578   15.5506 C   0  0  0  0  0  0  0  0  0  0  0  0
  -22.1961  -23.1041   21.6902 C   0  0  0  0  0  0  0  0  0  0  0  0
  -22.8137  -21.2210   20.1603 C   0  0  0  0  0  0  0  0  0  0  0  0
  -20.6235  -22.3826   19.8845 C   0  0  0  0  0  0  0  0  0  0  0  0
  -30.7665  -20.7344   20.0968 C   0  0  0  0  0  0  0  0  0  0  0  0
  -24.4548  -24.5082   14.6239 C   0  0  0  0  0  0  0  0  0  0  0  0
  -31.9338  -28.2144   24.4924 C   0  0  0  0  0  0  0  0  0  0  0  0
  -31.2131  -25.8556   24.1503 C   0  0  0  0  0  0  0  0  0  0  0  0
  -30.6152  -28.6248   21.6478 C   0  0  0  0  0  0  0  0  0  0  0  0
  -30.2211  -27.6733   22.7675 C   0  0  0  0  0  0  0  0  0  0  0  0
  -29.4360  -29.1168   20.8177 C   0  0  0  0  0  0  0  0  0  1  0  0
  -22.7507  -23.5723   19.2124 C   0  0  1  0  0  0  0  0  0  0  0  0
  -23.4259  -22.4753   15.6473 C   0  0  2  0  0  0  0  0  0  0  0  0
  -22.1118  -22.5936   20.2379 C   0  0  0  0  0  0  0  0  0  0  0  0
  -27.1491  -16.1932   19.4281 N   0  0  0  0  0  0  0  0  0  0  0  0
  -28.2933  -16.8794   19.5896 N   0  0  0  0  0  0  0  0  0  0  0  0
  -22.9758  -26.0104   19.5714 N   0  0  0  0  0  0  0  0  0  0  0  0
  -28.1711  -20.6608   19.0039 N   0  0  0  0  0  0  0  0  0  0  0  0
  -30.3881  -16.8257   20.6939 N   0  0  0  0  0  0  0  0  0  0  0  0
  -28.4015  -13.0003   22.0416 N   0  0  0  0  0  0  0  0  0  0  0  0
  -20.9030  -27.5808   21.7178 N   0  0  0  0  0  0  0  0  0  0  0  0
  -22.6612  -23.1273   17.8259 N   0  0  0  0  0  0  0  0  0  0  0  0
  -29.7664  -21.7616   20.4059 N   0  0  0  0  0  0  0  0  0  0  0  0
  -24.3914  -23.0242   14.6536 N   0  3  0  0  0  0  0  0  0  0  0  0
  -31.4208  -27.2011   23.4976 N   0  3  1  0  0  0  0  0  0  0  0  0
  -30.2907  -14.2857   22.2352 O   0  0  0  0  0  0  0  0  0  0  0  0
  -23.2034  -27.4236   22.0435 O   0  0  0  0  0  0  0  0  0  0  0  0
  -20.9182  -25.0655   19.0149 O   0  0  0  0  0  0  0  0  0  0  0  0
  -24.9426  -23.1287   17.4107 O   0  0  0  0  0  0  0  0  0  0  0  0
  -28.0196  -22.9312   19.4250 O   0  0  0  0  0  0  0  0  0  0  0  0
  -23.3390  -11.2161   20.5508 O   0  0  0  0  0  0  0  0  0  0  0  0
  -28.7803  -27.9885   20.2402 O   0  0  0  0  0  0  0  0  0  1  0  0
  -22.1171   -9.2510   25.5558 F   0  0  0  0  0  0  0  0  0  0  0  0
  -20.7901  -11.4699   21.5908 F   0  0  0  0  0  0  0  0  0  0  0  0
  -27.7398  -22.3087   22.6333 Cl  0  0  0  0  0  0  0  0  0  0  0  0
  1  2  1  0  0  0  0
  1  5  2  0  0  0  0
  2  6  2  0  0  0  0
  3 10  2  0  0  0  0
  3 18  1  0  0  0  0
  4 11  1  0  0  0  0
  4 18  2  0  0  0  0
  5 20  1  0  0  0  0
  6 22  1  0  0  0  0
  7 12  2  0  0  0  0
  7 21  1  0  0  0  0
  8  9  2  0  0  0  0
  8 24  1  0  0  0  0
  9 25  1  0  0  0  0
 10 26  1  0  0  0  0
 11 26  2  0  0  0  0
 12 27  1  0  0  0  0
 13 14  2  0  0  0  0
 13 28  1  0  0  0  0
 14 29  1  0  0  0  0
 15 23  1  0  0  0  0
 15 27  2  0  0  0  0
 16 24  2  0  0  0  0
 16 31  1  0  0  0  0
 17 29  2  0  0  0  0
 17 30  1  0  0  0  0
 18 32  1  0  0  0  0
 19 32  1  0  0  0  0
 19 33  2  0  0  0  0
 19 34  1  0  0  0  0
 20 22  2  0  0  0  0
 20 39  1  0  0  0  0
 21 23  2  0  0  0  0
 21 40  1  0  0  0  0
 22 48  1  0  0  0  0
 23 41  1  0  0  0  0
 24 58  1  0  0  0  0
 25 31  2  0  0  0  0
 25 73  1  0  0  0  0
 26 81  1  0  0  0  0
 27 82  1  0  0  0  0
 28 30  2  0  0  0  0
 28 81  1  0  0  0  0
 29 83  1  0  0  0  0
 30 84  1  0  0  0  0
 31 85  1  0  0  0  0
 32 65  2  0  0  0  0
 33 66  1  0  0  0  0
 33 69  1  0  0  0  0
 34 70  1  0  0  0  0
 34 76  2  0  0  0  0
 35 49  1  0  0  0  0
 35 71  1  0  0  0  0
 35 77  2  0  0  0  0
 36 62  1  0  0  0  0
 36 67  1  0  0  0  0
 36 78  2  0  0  0  0
 37 63  1  0  0  0  0
 37 72  1  0  0  0  0
 37 79  2  0  0  0  0
 38 68  1  0  0  0  0
 38 73  1  0  0  0  0
 38 80  2  0  0  0  0
 39 42  1  0  0  0  0
 40 49  1  0  0  0  0
 41 67  1  0  0  0  0
 42 44  1  0  0  0  0
 43 45  1  0  0  0  0
 43 46  1  0  0  0  0
 44 48  1  0  0  0  0
 45 50  1  0  0  0  0
 46 68  1  0  0  0  0
 47 50  1  0  0  0  0
 47 68  1  0  0  0  0
 48 71  1  0  0  0  0
 49 67  1  0  0  0  0
 50 66  1  0  0  0  0
 51 63  1  0  0  0  0
 52 64  1  0  0  0  0
 53 64  1  0  0  0  0
 54 64  1  0  0  0  0
 55 73  1  0  0  0  0
 56 74  1  0  0  0  0
 57 75  1  0  0  0  0
 58 75  1  0  0  0  0
 59 60  1  0  0  0  0
 59 61  1  0  0  0  0
 60 75  1  0  0  0  0
 61 82  1  0  0  0  0
 62 64  1  0  0  0  0
 62 72  1  0  0  0  0
 63 74  1  0  0  0  0
 65 66  1  0  0  0  0
M  CHG  2  74   1  75   1
M  ISO  4  38 100  61 101  73 100  82 101
M  END
> <Batch ID>
0015

> <Smiles>
CNC(C)C(=O)NC(C(=O)N1Cc2cc([101O:1][101CH2:1]CCN(C)Cc3ccc([100N:0](C)[100C:0](=O)N4CCCC(n5nc(-c6ccc(Oc7ccc(F)cc7F)cc6)c(C(N)=O)c5N)C4)c(Cl)c3)ccc2CC1C(=O)NC1CCCc2ccccc21)C(C)(C)C

> <Shape>
0.238

> <Color>
0.071

> <Negative vol penalty>
0.000

$$$$

  -OEChem-04042320543D

 84 93  0     1  0  0  0  0  0999 V2000
  -19.7250  -26.2255   26.3256 C   0  0  0  0  0  0  0  0  0  0  0  0
  -21.0215  -26.0377   25.8575 C   0  0  0  0  0  0  0  0  0  0  0  0
  -23.9752  -10.4997   23.0751 C   0  0  0  0  0  0  0  0  0  0  0  0
  -23.8520  -12.1699   24.8165 C   0  0  0  0  0  0  0  0  0  0  0  0
  -18.7290  -26.6699   25.4570 C   0  0  0  0  0  0  0  0  0  0  0  0
  -21.3226  -26.2931   24.5201 C   0  0  0  0  0  0  0  0  0  0  0  0
  -26.5653  -28.5406   22.2911 C   0  0  0  0  0  0  0  0  0  0  0  0
  -30.0587  -20.3105   18.6008 C   0  0  0  0  0  0  0  0  0  0  0  0
  -30.0976  -19.2635   19.5217 C   0  0  0  0  0  0  0  0  0  0  0  0
  -23.3603   -9.5747   23.9187 C   0  0  0  0  0  0  0  0  0  0  0  0
  -23.2369  -11.2449   25.6601 C   0  0  0  0  0  0  0  0  0  0  0  0
  -27.6748  -27.9301   21.7080 C   0  0  0  0  0  0  0  0  0  0  0  0
  -21.4962   -6.8783   25.4903 C   0  0  0  0  0  0  0  0  0  0  0  0
  -20.4734   -6.0940   24.9570 C   0  0  0  0  0  0  0  0  0  0  0  0
  -26.7638  -28.3785   19.5198 C   0  0  0  0  0  0  0  0  0  0  0  0
  -27.8905  -20.9678   19.4398 C   0  0  0  0  0  0  0  0  0  0  0  0
  -19.2062   -8.0887   24.4541 C   0  0  0  0  0  0  0  0  0  0  0  0
  -24.2212  -11.7973   23.5240 C   0  0  0  0  0  0  0  0  0  0  0  0
  -24.2267  -13.6392   21.7590 C   0  0  0  0  0  0  0  0  0  0  0  0
  -19.0202  -26.9402   24.1106 C   0  0  0  0  0  0  0  0  0  0  0  0
  -25.5398  -29.0659   21.4918 C   0  0  0  0  0  0  0  0  0  0  0  0
  -20.3293  -26.7403   23.6324 C   0  0  0  0  0  0  0  0  0  0  0  0
  -25.6436  -28.9974   20.0952 C   0  0  0  0  0  0  0  0  0  0  0  0
  -28.9551  -21.1627   18.5599 C   0  0  0  0  0  0  0  0  0  0  0  0
  -29.0329  -19.0686   20.4015 C   0  0  0  0  0  0  0  0  0  0  0  0
  -22.9911   -9.9473   25.2112 C   0  0  0  0  0  0  0  0  0  0  0  0
  -27.7728  -27.8464   20.3222 C   0  0  0  0  0  0  0  0  0  0  0  0
  -21.3740   -8.2677   25.5055 C   0  0  0  0  0  0  0  0  0  0  0  0
  -19.3284   -6.6992   24.4389 C   0  0  0  0  0  0  0  0  0  0  0  0
  -27.9293  -19.9208   20.3606 C   0  0  0  0  0  0  0  0  0  0  0  0
  -20.2291   -8.8729   24.9874 C   0  0  0  0  0  0  0  0  0  0  0  0
  -24.8569  -12.7531   22.6532 C   0  0  0  0  0  0  0  0  0  0  0  0
  -25.2602  -14.3280   21.1726 C   0  0  0  0  0  0  0  0  0  0  0  0
  -22.8318  -13.8232   21.4832 C   0  0  0  0  0  0  0  0  0  0  0  0
  -22.4406  -28.4576   21.1332 C   0  0  0  0  0  0  0  0  0  0  0  0
  -22.5506  -31.0634   19.2044 C   0  0  0  0  0  0  0  0  0  0  0  0
  -24.4126  -33.1212   17.2182 C   0  0  0  0  0  0  0  0  0  0  0  0
  -30.0954  -17.0690   21.5055 C   0  0  0  0  0  0  0  0  0  0  0  0
  -17.9000  -27.3736   23.1985 C   0  0  0  0  0  0  0  0  0  0  0  0
  -24.3623  -29.7451   22.1358 C   0  0  0  0  0  0  0  0  0  0  0  0
  -24.5796  -29.5639   19.1922 C   0  0  0  0  0  0  0  0  0  0  0  0
  -18.3848  -27.9802   21.8842 C   0  0  0  0  0  0  0  0  0  0  0  0
  -30.2549  -13.5175   21.3081 C   0  0  0  0  0  0  0  0  0  0  0  0
  -19.4805  -27.1154   21.2692 C   0  0  0  0  0  0  0  0  0  0  0  0
  -28.8129  -13.0750   21.5669 C   0  0  0  0  0  0  0  0  0  0  0  0
  -30.6359  -14.7316   22.1534 C   0  0  0  0  0  0  0  0  0  0  0  0
  -28.2789  -15.4325   22.3042 C   0  0  0  0  0  0  0  0  0  0  0  0
  -29.2786  -24.1554   19.1112 C   0  0  0  0  0  0  0  0  0  0  0  0
  -29.5508  -24.6037   17.0890 C   0  0  0  0  0  0  0  0  0  0  0  0
  -20.7006  -27.0303   22.1943 C   0  0  1  0  0  0  0  0  0  0  0  0
  -23.1315  -29.7880   21.2355 C   0  0  1  0  0  0  0  0  0  0  0  0
  -29.6358  -25.4610   18.3696 C   0  0  0  0  0  0  0  0  0  0  0  0
  -27.8284  -14.2526   21.4276 C   0  0  2  0  0  0  0  0  0  0  0  0
  -24.2170  -35.1434   15.7451 C   0  0  0  0  0  0  0  0  0  0  0  0
  -21.2726  -29.3504   17.0268 C   0  0  0  0  0  0  0  0  0  0  0  0
  -21.9679  -31.0799   15.3554 C   0  0  0  0  0  0  0  0  0  0  0  0
  -20.3774  -31.6804   17.1809 C   0  0  0  0  0  0  0  0  0  0  0  0
  -26.2910  -34.6714   18.8997 C   0  0  0  0  0  0  0  0  0  0  0  0
  -28.9125  -22.2882   17.5688 C   0  0  0  0  0  0  0  0  0  0  0  0
  -28.6528  -26.6091   18.4917 C   0  0  0  0  0  0  0  0  0  1  0  0
  -22.8138  -31.2965   17.7363 C   0  0  1  0  0  0  0  0  0  0  0  0
  -24.5112  -34.6344   17.1476 C   0  0  2  0  0  0  0  0  0  0  0  0
  -21.6272  -30.8393   16.8416 C   0  0  0  0  0  0  0  0  0  0  0  0
  -26.1877  -12.8665   22.6394 N   0  0  0  0  0  0  0  0  0  0  0  0
  -26.4022  -13.8318   21.7293 N   0  0  0  0  0  0  0  0  0  0  0  0
  -23.4448  -30.2126   19.8696 N   0  0  0  0  0  0  0  0  0  0  0  0
  -29.6609  -15.8085   21.9673 N   0  0  0  0  0  0  0  0  0  0  0  0
  -25.2945  -15.3037   20.2403 N   0  0  0  0  0  0  0  0  0  0  0  0
  -21.9040  -13.0325   22.1748 N   0  0  0  0  0  0  0  0  0  0  0  0
  -29.0749  -18.0040   21.3356 N   0  0  0  0  0  0  0  0  0  0  0  0
  -21.4854  -28.2432   22.1084 N   0  0  0  0  0  0  0  0  0  0  0  0
  -23.1541  -32.7088   17.6018 N   0  0  0  0  0  0  0  0  0  0  0  0
  -29.7915  -23.4191   17.9379 N   0  3  0  0  0  0  0  0  0  0  0  0
  -25.8792  -35.0829   17.5329 N   0  3  0  0  0  0  0  0  0  0  0  0
  -22.4212  -14.6523   20.6362 O   0  0  0  0  0  0  0  0  0  0  0  0
  -22.7501  -27.6836   20.2349 O   0  0  0  0  0  0  0  0  0  0  0  0
  -21.5913  -31.6215   19.7429 O   0  0  0  0  0  0  0  0  0  0  0  0
  -25.3565  -32.3792   16.9555 O   0  0  0  0  0  0  0  0  0  0  0  0
  -31.2817  -17.2935   21.2517 O   0  0  0  0  0  0  0  0  0  0  0  0
  -22.3907   -9.0450   26.0346 O   0  0  0  0  0  0  0  0  0  0  0  0
  -28.8544  -27.2504   19.7504 O   0  0  0  0  0  0  0  0  0  1  0  0
  -18.3470   -5.9461   23.9254 F   0  0  0  0  0  0  0  0  0  0  0  0
  -26.8998  -19.7420   21.2006 F   0  0  0  0  0  0  0  0  0  0  0  0
  -20.1065  -10.2073   24.9983 F   0  0  0  0  0  0  0  0  0  0  0  0
  1  2  1  0  0  0  0
  1  5  2  0  0  0  0
  2  6  2  0  0  0  0
  3 10  2  0  0  0  0
  3 18  1  0  0  0  0
  4 11  1  0  0  0  0
  4 18  2  0  0  0  0
  5 20  1  0  0  0  0
  6 22  1  0  0  0  0
  7 12  2  0  0  0  0
  7 21  1  0  0  0  0
  8  9  2  0  0  0  0
  8 24  1  0  0  0  0
  9 25  1  0  0  0  0
 10 26  1  0  0  0  0
 11 26  2  0  0  0  0
 12 27  1  0  0  0  0
 13 14  2  0  0  0  0
 13 28  1  0  0  0  0
 14 29  1  0  0  0  0
 15 23  1  0  0  0  0
 15 27  2  0  0  0  0
 16 24  2  0  0  0  0
 16 30  1  0  0  0  0
 17 29  2  0  0  0  0
 17 31  1  0  0  0  0
 18 32  1  0  0  0  0
 19 32  1  0  0  0  0
 19 33  2  0  0  0  0
 19 34  1  0  0  0  0
 20 22  2  0  0  0  0
 20 39  1  0  0  0  0
 21 23  2  0  0  0  0
 21 40  1  0  0  0  0
 22 50  1  0  0  0  0
 23 41  1  0  0  0  0
 24 59  1  0  0  0  0
 25 30  2  0  0  0  0
 25 70  1  0  0  0  0
 26 80  1  0  0  0  0
 27 81  1  0  0  0  0
 28 31  2  0  0  0  0
 28 80  1  0  0  0  0
 29 82  1  0  0  0  0
 30 83  1  0  0  0  0
 31 84  1  0  0  0  0
 32 64  2  0  0  0  0
 33 65  1  0  0  0  0
 33 68  1  0  0  0  0
 34 69  1  0  0  0  0
 34 75  2  0  0  0  0
 35 51  1  0  0  0  0
 35 71  1  0  0  0  0
 35 76  2  0  0  0  0
 36 61  1  0  0  0  0
 36 66  1  0  0  0  0
 36 77  2  0  0  0  0
 37 62  1  0  0  0  0
 37 72  1  0  0  0  0
 37 78  2  0  0  0  0
 38 67  1  0  0  0  0
 38 70  1  0  0  0  0
 38 79  2  0  0  0  0
 39 42  1  0  0  0  0
 40 51  1  0  0  0  0
 41 66  1  0  0  0  0
 42 44  1  0  0  0  0
 43 45  1  0  0  0  0
 43 46  1  0  0  0  0
 44 50  1  0  0  0  0
 45 53  1  0  0  0  0
 46 67  1  0  0  0  0
 47 53  1  0  0  0  0
 47 67  1  0  0  0  0
 48 52  1  0  0  0  0
 48 73  1  0  0  0  0
 49 52  1  0  0  0  0
 49 73  1  0  0  0  0
 50 71  1  0  0  0  0
 51 66  1  0  0  0  0
 52 60  1  0  0  0  0
 53 65  1  0  0  0  0
 54 62  1  0  0  0  0
 55 63  1  0  0  0  0
 56 63  1  0  0  0  0
 57 63  1  0  0  0  0
 58 74  1  0  0  0  0
 59 73  1  0  0  0  0
 60 81  1  0  0  0  0
 61 63  1  0  0  0  0
 61 72  1  0  0  0  0
 62 74  1  0  0  0  0
 64 65  1  0  0  0  0
M  CHG  2  73   1  74   1
M  ISO  4  38 100  60 101  70 100  81 101
M  END
> <Batch ID>
0015

> <Smiles>
CNC(C)C(=O)NC(C(=O)N1Cc2cc([101O:1][101CH2:1]C3CN(Cc4ccc([100NH:0][100C:0](=O)N5CCCC(n6nc(-c7ccc(Oc8ccc(F)cc8F)cc7)c(C(N)=O)c6N)C5)c(F)c4)C3)ccc2CC1C(=O)NC1CCCc2ccccc21)C(C)(C)C

> <Shape>
0.257

> <Color>
0.130

> <Negative vol penalty>
0.000

$$$$

  -OEChem-04042320543D

 98106  0     1  0  0  0  0  0999 V2000
  -25.2686  -33.0228   24.3216 C   0  0  0  0  0  0  0  0  0  0  0  0
  -25.9140  -32.5784   23.1721 C   0  0  0  0  0  0  0  0  0  0  0  0
  -23.0731   -9.8787   19.9564 C   0  0  0  0  0  0  0  0  0  0  0  0
  -23.7465   -9.9541   22.2755 C   0  0  0  0  0  0  0  0  0  0  0  0
  -25.2335  -32.2141   25.4568 C   0  0  0  0  0  0  0  0  0  0  0  0
  -26.5258  -31.3254   23.1575 C   0  0  0  0  0  0  0  0  0  0  0  0
  -26.9162  -27.4743   18.4117 C   0  0  0  0  0  0  0  0  0  0  0  0
  -30.5262  -18.8839   20.1324 C   0  0  0  0  0  0  0  0  0  0  0  0
  -31.3628  -19.7364   19.4121 C   0  0  0  0  0  0  0  0  0  0  0  0
  -22.3225   -8.7311   20.2117 C   0  0  0  0  0  0  0  0  0  0  0  0
  -22.9959   -8.8066   22.5308 C   0  0  0  0  0  0  0  0  0  0  0  0
  -27.9334  -27.2172   17.4937 C   0  0  0  0  0  0  0  0  0  0  0  0
  -23.3135   -5.4707   22.0813 C   0  0  0  0  0  0  0  0  0  0  0  0
  -23.9035   -4.4684   22.8512 C   0  0  0  0  0  0  0  0  0  0  0  0
  -28.6638  -25.3500   18.8352 C   0  0  0  0  0  0  0  0  0  0  0  0
  -31.2779  -17.0169   18.7958 C   0  0  0  0  0  0  0  0  0  0  0  0
  -22.1390   -4.6863   24.4872 C   0  0  0  0  0  0  0  0  0  0  0  0
  -23.7852  -10.4902   20.9883 C   0  0  0  0  0  0  0  0  0  0  0  0
  -24.1267  -13.0118   20.8080 C   0  0  0  0  0  0  0  0  0  0  0  0
  -25.8368  -30.9465   25.4530 C   0  0  0  0  0  0  0  0  0  0  0  0
  -26.7716  -26.6766   19.5559 C   0  0  0  0  0  0  0  0  0  0  0  0
  -26.4999  -30.4996   24.2942 C   0  0  0  0  0  0  0  0  0  0  0  0
  -27.6423  -25.5976   19.7649 C   0  0  0  0  0  0  0  0  0  0  0  0
  -30.4838  -17.5241   19.8243 C   0  0  0  0  0  0  0  0  0  0  0  0
  -32.1569  -19.2293   18.3836 C   0  0  0  0  0  0  0  0  0  0  0  0
  -32.1145  -17.8695   18.0754 C   0  0  0  0  0  0  0  0  0  0  0  0
  -22.2838   -8.1950   21.4989 C   0  0  0  0  0  0  0  0  0  0  0  0
  -28.8092  -26.1567   17.7068 C   0  0  0  0  0  0  0  0  0  0  0  0
  -22.1363   -6.0809   22.5143 C   0  0  0  0  0  0  0  0  0  0  0  0
  -23.3163   -4.0761   24.0541 C   0  0  0  0  0  0  0  0  0  0  0  0
  -21.5490   -5.6887   23.7172 C   0  0  0  0  0  0  0  0  0  0  0  0
  -24.5612  -11.6753   20.7251 C   0  0  0  0  0  0  0  0  0  0  0  0
  -25.2303  -13.7536   20.4642 C   0  0  0  0  0  0  0  0  0  0  0  0
  -22.8405  -13.5358   21.1639 C   0  0  0  0  0  0  0  0  0  0  0  0
  -26.9205  -27.1987   22.6878 C   0  0  0  0  0  0  0  0  0  0  0  0
  -25.9517  -24.1074   22.8551 C   0  0  0  0  0  0  0  0  0  0  0  0
  -32.7974  -25.2645   17.4363 C   0  0  0  0  0  0  0  0  0  0  0  0
  -25.7626  -21.0456   21.3598 C   0  0  0  0  0  0  0  0  0  0  0  0
  -34.3597  -22.8955   18.4103 C   0  0  0  0  0  0  0  0  0  0  0  0
  -30.8079  -14.5003   21.2706 C   0  0  0  0  0  0  0  0  0  0  0  0
  -25.8137  -30.1277   26.7194 C   0  0  0  0  0  0  0  0  0  0  0  0
  -25.6526  -26.9508   20.5229 C   0  0  0  0  0  0  0  0  0  0  0  0
  -27.5171  -24.6989   20.9670 C   0  0  0  0  0  0  0  0  0  0  0  0
  -26.1630  -28.6579   26.5008 C   0  0  0  0  0  0  0  0  0  0  0  0
  -29.6580  -12.3708   18.4697 C   0  0  0  0  0  0  0  0  0  0  0  0
  -27.3999  -28.5287   25.6176 C   0  0  0  0  0  0  0  0  0  0  0  0
  -28.2147  -12.0575   18.8603 C   0  0  0  0  0  0  0  0  0  0  0  0
  -30.5348  -12.6221   19.6927 C   0  0  0  0  0  0  0  0  0  0  0  0
  -28.5669  -13.3624   20.9942 C   0  0  0  0  0  0  0  0  0  0  0  0
  -27.1538  -29.1363   24.2313 C   0  0  1  0  0  0  0  0  0  0  0  0
  -25.9164  -26.3895   21.9167 C   0  0  1  0  0  0  0  0  0  0  0  0
  -27.6465  -13.1498   19.7829 C   0  0  2  0  0  0  0  0  0  0  0  0
  -35.1142  -25.8364   18.2064 C   0  0  0  0  0  0  0  0  0  0  0  0
  -24.9480  -18.7057   21.7582 C   0  0  0  0  0  0  0  0  0  0  0  0
  -28.3449  -23.5867   24.6749 C   0  0  0  0  0  0  0  0  0  0  0  0
  -28.0345  -21.1363   24.2656 C   0  0  0  0  0  0  0  0  0  0  0  0
  -26.2314  -22.4512   25.3804 C   0  0  0  0  0  0  0  0  0  0  0  0
  -32.4964  -20.7796   16.4753 C   0  0  0  0  0  0  0  0  0  0  0  0
  -33.3824  -23.8155   20.5440 C   0  0  0  0  0  0  0  0  0  0  0  0
  -30.8037  -16.4815   22.7382 C   0  0  0  0  0  0  0  0  0  0  0  0
  -23.8886  -21.1847   19.0733 C   0  0  0  0  0  0  0  0  0  0  0  0
  -35.4947  -20.3992   21.0252 C   0  0  0  0  0  0  0  0  0  0  0  0
  -36.8532  -21.1326   19.0715 C   0  0  0  0  0  0  0  0  0  0  0  0
  -29.5896  -16.6125   20.5947 C   0  0  0  0  0  0  0  0  0  0  0  0
  -31.7740  -26.7372   15.7158 C   0  0  0  0  0  0  0  0  0  0  0  0
  -34.3439  -20.3702   18.1086 C   0  0  0  0  0  0  0  0  0  0  0  0
  -30.3313  -27.0191   16.0958 C   0  0  0  0  0  0  0  0  0  1  0  0
  -26.6495  -22.7698   22.9074 C   0  0  1  0  0  0  0  0  0  0  0  0
  -33.7510  -25.3063   18.6230 C   0  0  2  0  0  0  0  0  0  0  0  0
  -24.6067  -20.0757   21.1930 C   0  0  2  0  0  0  0  0  0  0  0  0
  -34.3958  -21.5338   19.0998 C   0  0  1  0  0  0  0  0  0  0  0  0
  -27.3189  -22.5039   24.2853 C   0  0  0  0  0  0  0  0  0  0  0  0
  -25.8410  -11.5711   20.3574 N   0  0  0  0  0  0  0  0  0  0  0  0
  -26.2201  -12.8515   20.2060 N   0  0  0  0  0  0  0  0  0  0  0  0
  -26.4110  -25.0115   21.8868 N   0  0  0  0  0  0  0  0  0  0  0  0
  -29.9500  -13.6333   20.5740 N   0  0  0  0  0  0  0  0  0  0  0  0
  -32.9113  -17.3351   17.0385 N   0  0  0  0  0  0  0  0  0  0  0  0
  -25.4409  -15.0830   20.3605 N   0  0  0  0  0  0  0  0  0  0  0  0
  -21.8183  -12.6338   21.4893 N   0  0  0  0  0  0  0  0  0  0  0  0
  -26.3679  -28.2346   23.4166 N   0  0  0  0  0  0  0  0  0  0  0  0
  -32.5997  -26.5212   16.8742 N   0  0  0  0  0  0  0  0  0  0  0  0
  -25.6535  -21.7747   22.5250 N   0  0  0  0  0  0  0  0  0  0  0  0
  -32.9906  -20.1031   17.6743 N   0  0  3  0  0  0  0  0  0  0  0  0
  -33.8490  -23.9752   19.1615 N   0  0  0  0  0  0  0  0  0  0  0  0
  -30.3265  -15.7882   21.5502 N   0  0  0  0  0  0  0  0  0  0  0  0
  -24.2670  -19.9178   19.7506 N   0  3  0  0  0  0  0  0  0  0  0  0
  -35.6425  -21.4081   19.9199 N   0  3  0  0  0  0  0  0  0  0  0  0
  -22.6000  -14.7669   21.1767 O   0  0  0  0  0  0  0  0  0  0  0  0
  -28.1085  -26.9041   22.6274 O   0  0  0  0  0  0  0  0  0  0  0  0
  -25.0284  -24.3389   23.6397 O   0  0  0  0  0  0  0  0  0  0  0  0
  -32.2984  -24.2238   17.0130 O   0  0  0  0  0  0  0  0  0  0  0  0
  -26.6732  -21.1438   20.5403 O   0  0  0  0  0  0  0  0  0  0  0  0
  -34.7598  -22.9989   17.2455 O   0  0  0  0  0  0  0  0  0  0  0  0
  -31.9432  -14.1466   21.6140 O   0  0  0  0  0  0  0  0  0  0  0  0
  -21.5513   -7.0753   21.7485 O   0  0  0  0  0  0  0  0  0  0  0  0
  -29.8034  -25.9038   16.8126 O   0  0  0  0  0  0  0  0  0  1  0  0
  -23.8822   -3.1125   24.7926 F   0  0  0  0  0  0  0  0  0  0  0  0
  -20.4175   -6.2704   24.1379 F   0  0  0  0  0  0  0  0  0  0  0  0
  1  2  1  0  0  0  0
  1  5  2  0  0  0  0
  2  6  2  0  0  0  0
  3 10  2  0  0  0  0
  3 18  1  0  0  0  0
  4 11  1  0  0  0  0
  4 18  2  0  0  0  0
  5 20  1  0  0  0  0
  6 22  1  0  0  0  0
  7 12  2  0  0  0  0
  7 21  1  0  0  0  0
  8  9  2  0  0  0  0
  8 24  1  0  0  0  0
  9 25  1  0  0  0  0
 10 27  1  0  0  0  0
 11 27  2  0  0  0  0
 12 28  1  0  0  0  0
 13 14  2  0  0  0  0
 13 29  1  0  0  0  0
 14 30  1  0  0  0  0
 15 23  1  0  0  0  0
 15 28  2  0  0  0  0
 16 24  2  0  0  0  0
 16 26  1  0  0  0  0
 17 30  2  0  0  0  0
 17 31  1  0  0  0  0
 18 32  1  0  0  0  0
 19 32  1  0  0  0  0
 19 33  2  0  0  0  0
 19 34  1  0  0  0  0
 20 22  2  0  0  0  0
 20 41  1  0  0  0  0
 21 23  2  0  0  0  0
 21 42  1  0  0  0  0
 22 50  1  0  0  0  0
 23 43  1  0  0  0  0
 24 64  1  0  0  0  0
 25 26  2  0  0  0  0
 25 83  1  0  0  0  0
 26 77  1  0  0  0  0
 27 95  1  0  0  0  0
 28 96  1  0  0  0  0
 29 31  2  0  0  0  0
 29 95  1  0  0  0  0
 30 97  1  0  0  0  0
 31 98  1  0  0  0  0
 32 73  2  0  0  0  0
 33 74  1  0  0  0  0
 33 78  1  0  0  0  0
 34 79  1  0  0  0  0
 34 88  2  0  0  0  0
 35 51  1  0  0  0  0
 35 80  1  0  0  0  0
 35 89  2  0  0  0  0
 36 68  1  0  0  0  0
 36 75  1  0  0  0  0
 36 90  2  0  0  0  0
 37 69  1  0  0  0  0
 37 81  1  0  0  0  0
 37 91  2  0  0  0  0
 38 70  1  0  0  0  0
 38 82  1  0  0  0  0
 38 92  2  0  0  0  0
 39 71  1  0  0  0  0
 39 84  1  0  0  0  0
 39 93  2  0  0  0  0
 40 76  1  0  0  0  0
 40 85  1  0  0  0  0
 40 94  2  0  0  0  0
 41 44  1  0  0  0  0
 42 51  1  0  0  0  0
 43 75  1  0  0  0  0
 44 46  1  0  0  0  0
 45 47  1  0  0  0  0
 45 48  1  0  0  0  0
 46 50  1  0  0  0  0
 47 52  1  0  0  0  0
 48 76  1  0  0  0  0
 49 52  1  0  0  0  0
 49 76  1  0  0  0  0
 50 80  1  0  0  0  0
 51 75  1  0  0  0  0
 52 74  1  0  0  0  0
 53 69  1  0  0  0  0
 54 70  1  0  0  0  0
 55 72  1  0  0  0  0
 56 72  1  0  0  0  0
 57 72  1  0  0  0  0
 58 83  1  0  0  0  0
 59 84  1  0  0  0  0
 60 85  1  0  0  0  0
 61 86  1  0  0  0  0
 62 87  1  0  0  0  0
 63 87  1  0  0  0  0
 64 85  1  0  0  0  0
 65 67  1  0  0  0  0
 65 81  1  0  0  0  0
 66 71  1  0  0  0  0
 66 83  1  0  0  0  0
 67 96  1  0  0  0  0
 68 72  1  0  0  0  0
 68 82  1  0  0  0  0
 69 84  1  0  0  0  0
 70 86  1  0  0  0  0
 71 87  1  0  0  0  0
 73 74  1  0  0  0  0
M  CHG  2  86   1  87   1
M  ISO  4  40 100  67 101  85 100  96 101
M  END
> <Batch ID>
0015

> <Smiles>
CNC(C)C(=O)NC(C(=O)N1Cc2cc([101O:1][101CH2:1]CNC(=O)C(C)N(C)C(=O)C(CN(C)c3ccc(C[100N:0](C)[100C:0](=O)N4CCCC(n5nc(-c6ccc(Oc7ccc(F)cc7F)cc6)c(C(N)=O)c5N)C4)cc3N)N(C)C)ccc2CC1C(=O)NC1CCCc2ccccc21)C(C)(C)C

> <Shape>
0.267

> <Color>
0.163

> <Negative vol penalty>
0.000

$$$$

  -OEChem-04042320543D

 83 91  0     1  0  0  0  0  0999 V2000
  -32.7858  -14.1819   20.3238 C   0  0  0  0  0  0  0  0  0  0  0  0
  -32.0020  -15.3310   20.2998 C   0  0  0  0  0  0  0  0  0  0  0  0
  -26.2582  -29.6565   20.3861 C   0  0  0  0  0  0  0  0  0  0  0  0
  -24.9383  -27.7338   19.7550 C   0  0  0  0  0  0  0  0  0  0  0  0
  -32.2288  -12.9521   19.9754 C   0  0  0  0  0  0  0  0  0  0  0  0
  -30.6609  -15.2512   19.9261 C   0  0  0  0  0  0  0  0  0  0  0  0
  -26.0213  -18.5885   22.1266 C   0  0  0  0  0  0  0  0  0  0  0  0
  -19.6078  -26.0604   21.2418 C   0  0  0  0  0  0  0  0  0  0  0  0
  -21.1256  -27.2238   22.7182 C   0  0  0  0  0  0  0  0  0  0  0  0
  -20.5083  -24.9989   21.1524 C   0  0  0  0  0  0  0  0  0  0  0  0
  -22.0261  -26.1623   22.6289 C   0  0  0  0  0  0  0  0  0  0  0  0
  -27.4003  -28.8571   20.4329 C   0  0  0  0  0  0  0  0  0  0  0  0
  -26.0804  -26.9344   19.8017 C   0  0  0  0  0  0  0  0  0  0  0  0
  -25.3731  -19.7255   21.6461 C   0  0  0  0  0  0  0  0  0  0  0  0
  -28.7574  -26.3011   17.8388 C   0  0  0  0  0  0  0  0  0  0  0  0
  -28.9640  -25.4067   16.7886 C   0  0  0  0  0  0  0  0  0  0  0  0
  -23.6661  -18.3309   20.6661 C   0  0  0  0  0  0  0  0  0  0  0  0
  -28.9187  -23.5633   18.3497 C   0  0  0  0  0  0  0  0  0  0  0  0
  -25.0271  -29.0948   20.0472 C   0  0  0  0  0  0  0  0  0  0  0  0
  -23.3482  -30.6266   18.8886 C   0  0  0  0  0  0  0  0  0  0  0  0
  -30.8777  -12.8557   19.6067 C   0  0  0  0  0  0  0  0  0  0  0  0
  -25.5017  -17.3114   21.8707 C   0  0  0  0  0  0  0  0  0  0  0  0
  -30.0857  -14.0192   19.5712 C   0  0  0  0  0  0  0  0  0  0  0  0
  -24.3082  -17.1794   21.1466 C   0  0  0  0  0  0  0  0  0  0  0  0
  -19.9165  -27.1729   22.0246 C   0  0  0  0  0  0  0  0  0  0  0  0
  -21.7175  -25.0499   21.8460 C   0  0  0  0  0  0  0  0  0  0  0  0
  -27.3114  -27.4961   20.1406 C   0  0  0  0  0  0  0  0  0  0  0  0
  -24.1969  -19.5967   20.9132 C   0  0  0  0  0  0  0  0  0  0  0  0
  -28.6315  -25.8266   19.1444 C   0  0  0  0  0  0  0  0  0  0  0  0
  -29.0446  -24.0378   17.0440 C   0  0  0  0  0  0  0  0  0  0  0  0
  -28.7121  -24.4577   19.3999 C   0  0  0  0  0  0  0  0  0  0  0  0
  -23.8469  -29.9199   19.9993 C   0  0  0  0  0  0  0  0  0  0  0  0
  -22.2167  -31.2485   19.3571 C   0  0  0  0  0  0  0  0  0  0  0  0
  -23.8618  -30.7131   17.5528 C   0  0  0  0  0  0  0  0  0  0  0  0
  -26.5399  -14.7359   20.3239 C   0  0  0  0  0  0  0  0  0  0  0  0
  -23.8391  -13.4029   21.5286 C   0  0  0  0  0  0  0  0  0  0  0  0
  -22.4855  -22.7974   21.0273 C   0  0  0  0  0  0  0  0  0  0  0  0
  -20.6825  -13.8489   22.7466 C   0  0  0  0  0  0  0  0  0  0  0  0
  -18.7714  -29.7444   24.1950 C   0  0  0  0  0  0  0  0  0  0  0  0
  -30.3324  -11.5118   19.1926 C   0  0  0  0  0  0  0  0  0  0  0  0
  -26.1984  -16.0963   22.4188 C   0  0  0  0  0  0  0  0  0  0  0  0
  -23.6982  -15.8321   20.8620 C   0  0  0  0  0  0  0  0  0  0  0  0
  -28.8071  -11.4542   19.1699 C   0  0  0  0  0  0  0  0  0  0  0  0
  -20.2835  -33.0165   23.3536 C   0  0  0  0  0  0  0  0  0  0  0  0
  -28.2371  -12.6788   18.4612 C   0  0  0  0  0  0  0  0  0  0  0  0
  -21.3744  -32.6325   22.3553 C   0  0  0  0  0  0  0  0  0  0  0  0
  -19.9897  -31.8862   24.3353 C   0  0  0  0  0  0  0  0  0  0  0  0
  -20.7440  -30.2085   22.6829 C   0  0  0  0  0  0  0  0  0  0  0  0
  -28.6206  -13.9693   19.1953 C   0  0  1  0  0  0  0  0  0  0  0  0
  -25.8564  -14.8181   21.6595 C   0  0  1  0  0  0  0  0  0  0  0  0
  -21.0314  -31.3087   21.6502 C   0  0  2  0  0  0  0  0  0  0  0  0
  -18.7067  -12.5682   23.6145 C   0  0  0  0  0  0  0  0  0  0  0  0
  -23.1236  -12.5803   18.6788 C   0  0  0  0  0  0  0  0  0  0  0  0
  -20.7782  -12.1794   19.4577 C   0  0  0  0  0  0  0  0  0  0  0  0
  -22.6542  -10.8427   20.4151 C   0  0  0  0  0  0  0  0  0  0  0  0
  -17.5479  -27.6105   24.0236 C   0  0  0  0  0  0  0  0  0  0  0  0
  -20.8282  -15.1845   25.3837 C   0  0  0  0  0  0  0  0  0  0  0  0
  -18.9536  -28.3078   22.1200 C   0  0  0  0  0  0  0  0  0  0  0  0
  -23.6994  -21.9041   21.2038 C   0  0  0  0  0  0  0  0  0  1  0  0
  -22.4095  -13.2749   21.0608 C   0  0  1  0  0  0  0  0  0  0  0  0
  -19.9911  -13.2958   23.9798 C   0  0  2  0  0  0  0  0  0  0  0  0
  -22.2537  -12.2448   19.9066 C   0  0  0  0  0  0  0  0  0  0  0  0
  -23.0940  -30.0777   21.0912 N   0  0  0  0  0  0  0  0  0  0  0  0
  -22.1108  -30.8907   20.6689 N   0  0  0  0  0  0  0  0  0  0  0  0
  -24.4201  -14.6737   21.4138 N   0  0  0  0  0  0  0  0  0  0  0  0
  -19.7095  -30.6299   23.6394 N   0  0  0  0  0  0  0  0  0  0  0  0
  -21.3121  -32.0611   18.7708 N   0  0  0  0  0  0  0  0  0  0  0  0
  -25.0343  -30.0114   17.2410 N   0  0  0  0  0  0  0  0  0  0  0  0
  -22.6311  -23.9730   21.7558 N   0  0  0  0  0  0  0  0  0  0  0  0
  -27.7906  -14.1500   20.3670 N   0  0  0  0  0  0  0  0  0  0  0  0
  -21.6178  -12.9676   22.2470 N   0  0  0  0  0  0  0  0  0  0  0  0
  -18.5209  -28.5553   23.4937 N   0  0  0  0  0  0  0  0  0  0  0  0
  -19.6543  -14.3991   24.9234 N   0  3  0  0  0  0  0  0  0  0  0  0
  -23.3067  -31.4057   16.6663 O   0  0  0  0  0  0  0  0  0  0  0  0
  -25.9737  -15.1705   19.3278 O   0  0  0  0  0  0  0  0  0  0  0  0
  -24.4166  -12.4134   21.9860 O   0  0  0  0  0  0  0  0  0  0  0  0
  -21.5392  -22.4635   20.3219 O   0  0  0  0  0  0  0  0  0  0  0  0
  -20.4166  -14.9509   22.2718 O   0  0  0  0  0  0  0  0  0  0  0  0
  -18.1839  -30.0064   25.2524 O   0  0  0  0  0  0  0  0  0  0  0  0
  -28.4257  -26.7158   20.1859 O   0  0  0  0  0  0  0  0  0  0  0  0
  -23.5626  -20.7048   20.4425 O   0  0  0  0  0  0  0  0  0  1  0  0
  -29.2414  -23.1788   16.0352 F   0  0  0  0  0  0  0  0  0  0  0  0
  -28.5908  -23.9959   20.6520 F   0  0  0  0  0  0  0  0  0  0  0  0
  1  2  1  0  0  0  0
  1  5  2  0  0  0  0
  2  6  2  0  0  0  0
  3 12  2  0  0  0  0
  3 19  1  0  0  0  0
  4 13  1  0  0  0  0
  4 19  2  0  0  0  0
  5 21  1  0  0  0  0
  6 23  1  0  0  0  0
  7 14  2  0  0  0  0
  7 22  1  0  0  0  0
  8 10  2  0  0  0  0
  8 25  1  0  0  0  0
  9 11  1  0  0  0  0
  9 25  2  0  0  0  0
 10 26  1  0  0  0  0
 11 26  2  0  0  0  0
 12 27  1  0  0  0  0
 13 27  2  0  0  0  0
 14 28  1  0  0  0  0
 15 16  2  0  0  0  0
 15 29  1  0  0  0  0
 16 30  1  0  0  0  0
 17 24  1  0  0  0  0
 17 28  2  0  0  0  0
 18 30  2  0  0  0  0
 18 31  1  0  0  0  0
 19 32  1  0  0  0  0
 20 32  1  0  0  0  0
 20 33  2  0  0  0  0
 20 34  1  0  0  0  0
 21 23  2  0  0  0  0
 21 40  1  0  0  0  0
 22 24  2  0  0  0  0
 22 41  1  0  0  0  0
 23 49  1  0  0  0  0
 24 42  1  0  0  0  0
 25 58  1  0  0  0  0
 26 69  1  0  0  0  0
 27 80  1  0  0  0  0
 28 81  1  0  0  0  0
 29 31  2  0  0  0  0
 29 80  1  0  0  0  0
 30 82  1  0  0  0  0
 31 83  1  0  0  0  0
 32 63  2  0  0  0  0
 33 64  1  0  0  0  0
 33 67  1  0  0  0  0
 34 68  1  0  0  0  0
 34 74  2  0  0  0  0
 35 50  1  0  0  0  0
 35 70  1  0  0  0  0
 35 75  2  0  0  0  0
 36 60  1  0  0  0  0
 36 65  1  0  0  0  0
 36 76  2  0  0  0  0
 37 59  1  0  0  0  0
 37 69  1  0  0  0  0
 37 77  2  0  0  0  0
 38 61  1  0  0  0  0
 38 71  1  0  0  0  0
 38 78  2  0  0  0  0
 39 66  1  0  0  0  0
 39 72  1  0  0  0  0
 39 79  2  0  0  0  0
 40 43  1  0  0  0  0
 41 50  1  0  0  0  0
 42 65  1  0  0  0  0
 43 45  1  0  0  0  0
 44 46  1  0  0  0  0
 44 47  1  0  0  0  0
 45 49  1  0  0  0  0
 46 51  1  0  0  0  0
 47 66  1  0  0  0  0
 48 51  1  0  0  0  0
 48 66  1  0  0  0  0
 49 70  1  0  0  0  0
 50 65  1  0  0  0  0
 51 64  1  0  0  0  0
 52 61  1  0  0  0  0
 53 62  1  0  0  0  0
 54 62  1  0  0  0  0
 55 62  1  0  0  0  0
 56 72  1  0  0  0  0
 57 73  1  0  0  0  0
 58 72  1  0  0  0  0
 59 81  1  0  0  0  0
 60 62  1  0  0  0  0
 60 71  1  0  0  0  0
 61 73  1  0  0  0  0
 63 64  1  0  0  0  0
M  CHG  1  73   1
M  ISO  4  39 100  59 101  72 100  81 101
M  END
> <Batch ID>
0015

> <Smiles>
CNC(C)C(=O)NC(C(=O)N1Cc2cc([101O:1][101CH2:1]C(=O)Nc3ccc(C[100N:0](C)[100C:0](=O)N4CCCC(n5nc(-c6ccc(Oc7ccc(F)cc7F)cc6)c(C(N)=O)c5N)C4)cc3)ccc2CC1C(=O)NC1CCCc2ccccc21)C(C)(C)C

> <Shape>
0.261

> <Color>
0.071

> <Negative vol penalty>
0.000

$$$$

  -OEChem-04042320543D

 82 90  0     1  0  0  0  0  0999 V2000
  -35.9092  -31.1665   20.0709 C   0  0  0  0  0  0  0  0  0  0  0  0
  -35.9895  -30.0060   20.8339 C   0  0  0  0  0  0  0  0  0  0  0  0
  -23.0463   -9.9635   19.8683 C   0  0  0  0  0  0  0  0  0  0  0  0
  -23.9077   -9.7563   22.1160 C   0  0  0  0  0  0  0  0  0  0  0  0
  -34.6783  -31.7950   19.8874 C   0  0  0  0  0  0  0  0  0  0  0  0
  -34.8389  -29.4739   21.4148 C   0  0  0  0  0  0  0  0  0  0  0  0
  -33.5448  -23.5480   22.2608 C   0  0  0  0  0  0  0  0  0  0  0  0
  -32.7769  -17.2532   23.6545 C   0  0  0  0  0  0  0  0  0  0  0  0
  -32.1462  -16.4571   22.6984 C   0  0  0  0  0  0  0  0  0  0  0  0
  -22.3135   -8.7894   20.0408 C   0  0  0  0  0  0  0  0  0  0  0  0
  -23.1748   -8.5821   22.2886 C   0  0  0  0  0  0  0  0  0  0  0  0
  -33.6592  -22.7121   23.3707 C   0  0  0  0  0  0  0  0  0  0  0  0
  -19.9761   -7.7198   22.9558 C   0  0  0  0  0  0  0  0  0  0  0  0
  -19.2721   -7.5667   24.1502 C   0  0  0  0  0  0  0  0  0  0  0  0
  -31.3390  -23.1072   23.8997 C   0  0  0  0  0  0  0  0  0  0  0  0
  -30.6244  -18.0379   24.4212 C   0  0  0  0  0  0  0  0  0  0  0  0
  -20.5436   -5.5726   24.6441 C   0  0  0  0  0  0  0  0  0  0  0  0
  -23.8435  -10.4470   20.9058 C   0  0  0  0  0  0  0  0  0  0  0  0
  -24.1816  -12.9733   21.0101 C   0  0  0  0  0  0  0  0  0  0  0  0
  -33.5105  -31.2649   20.4583 C   0  0  0  0  0  0  0  0  0  0  0  0
  -32.3275  -24.1795   21.9677 C   0  0  0  0  0  0  0  0  0  0  0  0
  -33.5914  -30.0966   21.2399 C   0  0  0  0  0  0  0  0  0  0  0  0
  -31.2111  -23.9486   22.7840 C   0  0  0  0  0  0  0  0  0  0  0  0
  -32.0160  -18.0435   24.5160 C   0  0  0  0  0  0  0  0  0  0  0  0
  -30.7546  -16.4515   22.6037 C   0  0  0  0  0  0  0  0  0  0  0  0
  -22.3777   -8.0986   21.2510 C   0  0  0  0  0  0  0  0  0  0  0  0
  -32.5569  -22.4939   24.1920 C   0  0  0  0  0  0  0  0  0  0  0  0
  -20.9638   -6.7992   22.6055 C   0  0  0  0  0  0  0  0  0  0  0  0
  -19.5558   -6.4932   24.9943 C   0  0  0  0  0  0  0  0  0  0  0  0
  -29.9936  -17.2419   23.4651 C   0  0  0  0  0  0  0  0  0  0  0  0
  -21.2476   -5.7257   23.4497 C   0  0  0  0  0  0  0  0  0  0  0  0
  -24.6013  -11.6595   20.7280 C   0  0  0  0  0  0  0  0  0  0  0  0
  -25.2570  -13.7576   20.6712 C   0  0  0  0  0  0  0  0  0  0  0  0
  -22.9314  -13.4428   21.5320 C   0  0  0  0  0  0  0  0  0  0  0  0
  -31.3586  -27.2002   21.7675 C   0  0  0  0  0  0  0  0  0  0  0  0
  -28.6079  -25.8397   20.7163 C   0  0  0  0  0  0  0  0  0  0  0  0
  -26.5814  -23.0951   20.6311 C   0  0  0  0  0  0  0  0  0  0  0  0
  -30.7264  -14.8008   20.7008 C   0  0  0  0  0  0  0  0  0  0  0  0
  -32.2102  -32.0058   20.2713 C   0  0  0  0  0  0  0  0  0  0  0  0
  -32.2134  -25.0571   20.7515 C   0  0  0  0  0  0  0  0  0  0  0  0
  -29.8764  -24.5866   22.5013 C   0  0  0  0  0  0  0  0  0  0  0  0
  -30.9787  -31.1698   20.6101 C   0  0  0  0  0  0  0  0  0  0  0  0
  -29.5056  -12.6179   18.1667 C   0  0  0  0  0  0  0  0  0  0  0  0
  -31.1749  -30.4436   21.9371 C   0  0  0  0  0  0  0  0  0  0  0  0
  -28.0864  -12.2820   18.6304 C   0  0  0  0  0  0  0  0  0  0  0  0
  -30.4736  -12.7352   19.3428 C   0  0  0  0  0  0  0  0  0  0  0  0
  -28.6307  -13.3193   20.8698 C   0  0  0  0  0  0  0  0  0  0  0  0
  -32.3617  -29.4751   21.8657 C   0  0  1  0  0  0  0  0  0  0  0  0
  -31.0630  -26.0551   20.8406 C   0  0  1  0  0  0  0  0  0  0  0  0
  -27.6062  -13.2548   19.7253 C   0  0  2  0  0  0  0  0  0  0  0  0
  -24.3818  -22.2980   19.7234 C   0  0  0  0  0  0  0  0  0  0  0  0
  -27.1454  -27.4281   22.8722 C   0  0  0  0  0  0  0  0  0  0  0  0
  -25.1776  -25.9129   22.5555 C   0  0  0  0  0  0  0  0  0  0  0  0
  -25.9704  -27.3361   20.6664 C   0  0  0  0  0  0  0  0  0  0  0  0
  -34.1094  -18.8496   25.5781 C   0  0  0  0  0  0  0  0  0  0  0  0
  -27.8791  -20.9667   19.0359 C   0  0  0  0  0  0  0  0  0  0  0  0
  -31.8916  -19.6831   26.3751 C   0  0  0  0  0  0  0  0  0  0  0  0
  -31.4927  -20.9739   25.6797 C   0  0  0  0  0  0  0  0  0  1  0  0
  -27.3455  -25.3357   21.3730 C   0  0  1  0  0  0  0  0  0  0  0  0
  -25.8798  -22.3964   19.4804 C   0  0  2  0  0  0  0  0  0  0  0  0
  -26.4352  -26.4926   21.8735 C   0  0  0  0  0  0  0  0  0  0  0  0
  -25.8461  -11.6080   20.2467 N   0  0  0  0  0  0  0  0  0  0  0  0
  -26.2179  -12.8993   20.2237 N   0  0  0  0  0  0  0  0  0  0  0  0
  -29.8169  -25.4414   21.3041 N   0  0  0  0  0  0  0  0  0  0  0  0
  -29.9551  -13.6765   20.3377 N   0  0  0  0  0  0  0  0  0  0  0  0
  -25.4650  -15.0907   20.7152 N   0  0  0  0  0  0  0  0  0  0  0  0
  -21.9349  -12.5024   21.8264 N   0  0  0  0  0  0  0  0  0  0  0  0
  -30.1169  -15.6421   21.6311 N   0  0  0  0  0  0  0  0  0  0  0  0
  -31.9879  -28.2690   21.1584 N   0  0  0  0  0  0  0  0  0  0  0  0
  -26.7078  -24.4495   20.4053 N   0  0  0  0  0  0  0  0  0  0  0  0
  -32.6497  -18.8427   25.4768 N   0  0  3  0  0  0  0  0  0  0  0  0
  -26.4191  -21.0181   19.3052 N   0  3  0  0  0  0  0  0  0  0  0  0
  -22.6989  -14.6617   21.7160 O   0  0  0  0  0  0  0  0  0  0  0  0
  -31.0380  -27.1206   22.9476 O   0  0  0  0  0  0  0  0  0  0  0  0
  -28.5245  -26.5544   19.7144 O   0  0  0  0  0  0  0  0  0  0  0  0
  -26.9744  -22.4997   21.6318 O   0  0  0  0  0  0  0  0  0  0  0  0
  -31.8336  -15.0169   20.2015 O   0  0  0  0  0  0  0  0  0  0  0  0
  -21.6625   -6.9530   21.4198 O   0  0  0  0  0  0  0  0  0  0  0  0
  -32.6660  -21.6789   25.2764 O   0  0  0  0  0  0  0  0  0  1  0  0
  -18.8807   -6.3472   26.1420 F   0  0  0  0  0  0  0  0  0  0  0  0
  -28.6555  -17.2445   23.3825 F   0  0  0  0  0  0  0  0  0  0  0  0
  -22.1962   -4.8387   23.1191 F   0  0  0  0  0  0  0  0  0  0  0  0
  1  2  1  0  0  0  0
  1  5  2  0  0  0  0
  2  6  2  0  0  0  0
  3 10  2  0  0  0  0
  3 18  1  0  0  0  0
  4 11  1  0  0  0  0
  4 18  2  0  0  0  0
  5 20  1  0  0  0  0
  6 22  1  0  0  0  0
  7 12  2  0  0  0  0
  7 21  1  0  0  0  0
  8  9  2  0  0  0  0
  8 24  1  0  0  0  0
  9 25  1  0  0  0  0
 10 26  1  0  0  0  0
 11 26  2  0  0  0  0
 12 27  1  0  0  0  0
 13 14  2  0  0  0  0
 13 28  1  0  0  0  0
 14 29  1  0  0  0  0
 15 23  1  0  0  0  0
 15 27  2  0  0  0  0
 16 24  2  0  0  0  0
 16 30  1  0  0  0  0
 17 29  2  0  0  0  0
 17 31  1  0  0  0  0
 18 32  1  0  0  0  0
 19 32  1  0  0  0  0
 19 33  2  0  0  0  0
 19 34  1  0  0  0  0
 20 22  2  0  0  0  0
 20 39  1  0  0  0  0
 21 23  2  0  0  0  0
 21 40  1  0  0  0  0
 22 48  1  0  0  0  0
 23 41  1  0  0  0  0
 24 71  1  0  0  0  0
 25 30  2  0  0  0  0
 25 68  1  0  0  0  0
 26 78  1  0  0  0  0
 27 79  1  0  0  0  0
 28 31  2  0  0  0  0
 28 78  1  0  0  0  0
 29 80  1  0  0  0  0
 30 81  1  0  0  0  0
 31 82  1  0  0  0  0
 32 62  2  0  0  0  0
 33 63  1  0  0  0  0
 33 66  1  0  0  0  0
 34 67  1  0  0  0  0
 34 73  2  0  0  0  0
 35 49  1  0  0  0  0
 35 69  1  0  0  0  0
 35 74  2  0  0  0  0
 36 59  1  0  0  0  0
 36 64  1  0  0  0  0
 36 75  2  0  0  0  0
 37 60  1  0  0  0  0
 37 70  1  0  0  0  0
 37 76  2  0  0  0  0
 38 65  1  0  0  0  0
 38 68  1  0  0  0  0
 38 77  2  0  0  0  0
 39 42  1  0  0  0  0
 40 49  1  0  0  0  0
 41 64  1  0  0  0  0
 42 44  1  0  0  0  0
 43 45  1  0  0  0  0
 43 46  1  0  0  0  0
 44 48  1  0  0  0  0
 45 50  1  0  0  0  0
 46 65  1  0  0  0  0
 47 50  1  0  0  0  0
 47 65  1  0  0  0  0
 48 69  1  0  0  0  0
 49 64  1  0  0  0  0
 50 63  1  0  0  0  0
 51 60  1  0  0  0  0
 52 61  1  0  0  0  0
 53 61  1  0  0  0  0
 54 61  1  0  0  0  0
 55 71  1  0  0  0  0
 56 72  1  0  0  0  0
 57 58  1  0  0  0  0
 57 71  1  0  0  0  0
 58 79  1  0  0  0  0
 59 61  1  0  0  0  0
 59 70  1  0  0  0  0
 60 72  1  0  0  0  0
 62 63  1  0  0  0  0
M  CHG  1  72   1
M  ISO  4  38 100  58 101  68 100  79 101
M  END
> <Batch ID>
0015

> <Smiles>
CNC(C)C(=O)NC(C(=O)N1Cc2cc([101O:1][101CH2:1]CN(C)c3ccc([100NH:0][100C:0](=O)N4CCCC(n5nc(-c6ccc(Oc7ccc(F)cc7F)cc6)c(C(N)=O)c5N)C4)c(F)c3)ccc2CC1C(=O)NC1CCCc2ccccc21)C(C)(C)C

> <Shape>
0.212

> <Color>
0.214

> <Negative vol penalty>
0.000

$$$$

  -OEChem-04042320543D

 84 92  0     1  0  0  0  0  0999 V2000
  -18.9778  -24.9994   25.3521 C   0  0  0  0  0  0  0  0  0  0  0  0
  -20.1643  -24.5960   24.7479 C   0  0  0  0  0  0  0  0  0  0  0  0
  -23.8399  -16.5321   21.3437 C   0  0  0  0  0  0  0  0  0  0  0  0
  -23.1261  -15.6673   19.2037 C   0  0  0  0  0  0  0  0  0  0  0  0
  -18.2833  -26.1014   24.8549 C   0  0  0  0  0  0  0  0  0  0  0  0
  -20.6563  -25.2938   23.6454 C   0  0  0  0  0  0  0  0  0  0  0  0
  -25.6330  -26.1740   23.9664 C   0  0  0  0  0  0  0  0  0  0  0  0
  -29.9958  -18.1588   21.5719 C   0  0  0  0  0  0  0  0  0  0  0  0
  -31.0437  -17.5026   19.4963 C   0  0  0  0  0  0  0  0  0  0  0  0
  -30.2096  -16.8793   22.0844 C   0  0  0  0  0  0  0  0  0  0  0  0
  -31.2576  -16.2230   20.0088 C   0  0  0  0  0  0  0  0  0  0  0  0
  -23.0679  -17.6757   21.1391 C   0  0  0  0  0  0  0  0  0  0  0  0
  -22.3540  -16.8109   18.9991 C   0  0  0  0  0  0  0  0  0  0  0  0
  -26.4877  -25.1138   23.6677 C   0  0  0  0  0  0  0  0  0  0  0  0
  -23.3029  -20.5591   19.3913 C   0  0  0  0  0  0  0  0  0  0  0  0
  -23.8835  -21.7930   19.6845 C   0  0  0  0  0  0  0  0  0  0  0  0
  -26.8429  -26.0288   21.4641 C   0  0  0  0  0  0  0  0  0  0  0  0
  -22.1505  -22.2215   21.3125 C   0  0  0  0  0  0  0  0  0  0  0  0
  -23.8690  -15.5279   20.3760 C   0  0  0  0  0  0  0  0  0  0  0  0
  -24.2638  -13.1479   21.2051 C   0  0  0  0  0  0  0  0  0  0  0  0
  -18.7721  -26.8188   23.7517 C   0  0  0  0  0  0  0  0  0  0  0  0
  -25.3678  -27.1654   23.0108 C   0  0  0  0  0  0  0  0  0  0  0  0
  -19.9669  -26.4056   23.1322 C   0  0  0  0  0  0  0  0  0  0  0  0
  -25.9864  -27.1019   21.7540 C   0  0  0  0  0  0  0  0  0  0  0  0
  -30.4128  -18.4705   20.2778 C   0  0  0  0  0  0  0  0  0  0  0  0
  -30.8405  -15.9114   21.3029 C   0  0  0  0  0  0  0  0  0  0  0  0
  -22.3250  -17.8151   19.9668 C   0  0  0  0  0  0  0  0  0  0  0  0
  -27.0905  -25.0395   22.4155 C   0  0  0  0  0  0  0  0  0  0  0  0
  -22.1461  -20.1564   20.0586 C   0  0  0  0  0  0  0  0  0  0  0  0
  -23.3073  -22.6242   20.6451 C   0  0  0  0  0  0  0  0  0  0  0  0
  -21.5699  -20.9876   21.0192 C   0  0  0  0  0  0  0  0  0  0  0  0
  -24.6667  -14.3466   20.5865 C   0  0  0  0  0  0  0  0  0  0  0  0
  -25.3775  -12.3455   21.1570 C   0  0  0  0  0  0  0  0  0  0  0  0
  -22.9962  -12.7916   21.7724 C   0  0  0  0  0  0  0  0  0  0  0  0
  -22.7635  -28.1868   21.5015 C   0  0  0  0  0  0  0  0  0  0  0  0
  -24.7839  -30.4587   20.3704 C   0  0  0  0  0  0  0  0  0  0  0  0
  -27.9879  -31.3881   19.6515 C   0  0  0  0  0  0  0  0  0  0  0  0
  -31.0921  -13.4559   20.9892 C   0  0  0  0  0  0  0  0  0  0  0  0
  -17.9617  -27.9747   23.2207 C   0  0  0  0  0  0  0  0  0  0  0  0
  -24.4644  -28.3169   23.3578 C   0  0  0  0  0  0  0  0  0  0  0  0
  -25.7506  -28.1517   20.7001 C   0  0  0  0  0  0  0  0  0  0  0  0
  -18.7455  -28.8870   22.2806 C   0  0  0  0  0  0  0  0  0  0  0  0
  -29.3155  -11.5431   18.5750 C   0  0  0  0  0  0  0  0  0  0  0  0
  -19.5219  -28.0614   21.2597 C   0  0  0  0  0  0  0  0  0  0  0  0
  -27.8710  -11.9420   18.8751 C   0  0  0  0  0  0  0  0  0  0  0  0
  -30.2727  -12.7300   18.6895 C   0  0  0  0  0  0  0  0  0  0  0  0
  -28.7435  -13.8466   20.2831 C   0  0  0  0  0  0  0  0  0  0  0  0
  -20.5457  -27.1518   21.9497 C   0  0  1  0  0  0  0  0  0  0  0  0
  -23.8627  -28.9951   22.1308 C   0  0  1  0  0  0  0  0  0  0  0  0
  -27.7671  -12.6611   20.2317 C   0  0  1  0  0  0  0  0  0  0  0  0
  -29.3212  -33.2897   18.7008 C   0  0  0  0  0  0  0  0  0  0  0  0
  -23.8862  -29.6799   17.5602 C   0  0  0  0  0  0  0  0  0  0  0  0
  -25.8838  -30.8925   16.6614 C   0  0  0  0  0  0  0  0  0  0  0  0
  -24.1364  -32.1404   17.9310 C   0  0  0  0  0  0  0  0  0  0  0  0
  -31.4982  -14.4553   23.2278 C   0  0  0  0  0  0  0  0  0  0  0  0
  -29.4952  -31.7447   22.1734 C   0  0  0  0  0  0  0  0  0  0  0  0
  -28.3945  -19.3822   18.0572 C   0  0  0  0  0  0  0  0  0  0  0  0
  -30.1827  -19.8468   19.7266 C   0  0  0  0  0  0  0  0  0  0  0  0
  -28.2898  -22.0983   20.7130 C   0  0  0  0  0  0  0  0  0  0  0  0
  -28.4052  -21.5384   19.3032 C   0  0  0  0  0  0  0  0  0  0  0  0
  -27.9899  -23.5916   20.7570 C   0  0  0  0  0  0  0  0  0  1  0  0
  -25.6922  -30.5801   19.1708 C   0  0  1  0  0  0  0  0  0  0  0  0
  -28.7638  -32.6546   19.9652 C   0  0  2  0  0  0  0  0  0  0  0  0
  -24.9028  -30.8022   17.8498 C   0  0  0  0  0  0  0  0  0  0  0  0
  -25.9372  -14.3132   20.1757 N   0  0  0  0  0  0  0  0  0  0  0  0
  -26.3423  -13.0838   20.5369 N   0  0  0  0  0  0  0  0  0  0  0  0
  -24.8544  -29.2545   21.0851 N   0  0  0  0  0  0  0  0  0  0  0  0
  -30.1089  -13.4086   19.9829 N   0  0  0  0  0  0  0  0  0  0  0  0
  -25.6159  -11.0876   21.5850 N   0  0  0  0  0  0  0  0  0  0  0  0
  -21.9600  -13.7346   21.7378 N   0  0  0  0  0  0  0  0  0  0  0  0
  -21.7088  -27.9136   22.3514 N   0  0  0  0  0  0  0  0  0  0  0  0
  -26.6429  -31.6414   19.4844 N   0  0  0  0  0  0  0  0  0  0  0  0
  -31.0623  -14.5867   21.8333 N   0  0  0  0  0  0  0  0  0  0  0  0
  -29.9009  -32.3522   20.8799 N   0  3  0  0  0  0  0  0  0  0  0  0
  -28.7447  -20.0966   19.3404 N   0  3  1  0  0  0  0  0  0  0  0  0
  -22.7935  -11.6761   22.3093 O   0  0  0  0  0  0  0  0  0  0  0  0
  -22.8641  -27.8383   20.3310 O   0  0  0  0  0  0  0  0  0  0  0  0
  -24.0443  -31.4004   20.6669 O   0  0  0  0  0  0  0  0  0  0  0  0
  -28.5222  -30.2851   19.5599 O   0  0  0  0  0  0  0  0  0  0  0  0
  -31.9165  -12.5459   21.1387 O   0  0  0  0  0  0  0  0  0  0  0  0
  -21.5714  -18.9307   19.7669 O   0  0  0  0  0  0  0  0  0  0  0  0
  -27.9246  -24.0054   22.1211 O   0  0  0  0  0  0  0  0  0  1  0  0
  -23.8658  -23.8085   20.9277 F   0  0  0  0  0  0  0  0  0  0  0  0
  -20.4592  -20.6056   21.6644 F   0  0  0  0  0  0  0  0  0  0  0  0
  1  2  1  0  0  0  0
  1  5  2  0  0  0  0
  2  6  2  0  0  0  0
  3 12  2  0  0  0  0
  3 19  1  0  0  0  0
  4 13  1  0  0  0  0
  4 19  2  0  0  0  0
  5 21  1  0  0  0  0
  6 23  1  0  0  0  0
  7 14  2  0  0  0  0
  7 22  1  0  0  0  0
  8 10  2  0  0  0  0
  8 25  1  0  0  0  0
  9 11  1  0  0  0  0
  9 25  2  0  0  0  0
 10 26  1  0  0  0  0
 11 26  2  0  0  0  0
 12 27  1  0  0  0  0
 13 27  2  0  0  0  0
 14 28  1  0  0  0  0
 15 16  2  0  0  0  0
 15 29  1  0  0  0  0
 16 30  1  0  0  0  0
 17 24  1  0  0  0  0
 17 28  2  0  0  0  0
 18 30  2  0  0  0  0
 18 31  1  0  0  0  0
 19 32  1  0  0  0  0
 20 32  1  0  0  0  0
 20 33  2  0  0  0  0
 20 34  1  0  0  0  0
 21 23  2  0  0  0  0
 21 39  1  0  0  0  0
 22 24  2  0  0  0  0
 22 40  1  0  0  0  0
 23 48  1  0  0  0  0
 24 41  1  0  0  0  0
 25 58  1  0  0  0  0
 26 73  1  0  0  0  0
 27 81  1  0  0  0  0
 28 82  1  0  0  0  0
 29 31  2  0  0  0  0
 29 81  1  0  0  0  0
 30 83  1  0  0  0  0
 31 84  1  0  0  0  0
 32 65  2  0  0  0  0
 33 66  1  0  0  0  0
 33 69  1  0  0  0  0
 34 70  1  0  0  0  0
 34 76  2  0  0  0  0
 35 49  1  0  0  0  0
 35 71  1  0  0  0  0
 35 77  2  0  0  0  0
 36 62  1  0  0  0  0
 36 67  1  0  0  0  0
 36 78  2  0  0  0  0
 37 63  1  0  0  0  0
 37 72  1  0  0  0  0
 37 79  2  0  0  0  0
 38 68  1  0  0  0  0
 38 73  1  0  0  0  0
 38 80  2  0  0  0  0
 39 42  1  0  0  0  0
 40 49  1  0  0  0  0
 41 67  1  0  0  0  0
 42 44  1  0  0  0  0
 43 45  1  0  0  0  0
 43 46  1  0  0  0  0
 44 48  1  0  0  0  0
 45 50  1  0  0  0  0
 46 68  1  0  0  0  0
 47 50  1  0  0  0  0
 47 68  1  0  0  0  0
 48 71  1  0  0  0  0
 49 67  1  0  0  0  0
 50 66  1  0  0  0  0
 51 63  1  0  0  0  0
 52 64  1  0  0  0  0
 53 64  1  0  0  0  0
 54 64  1  0  0  0  0
 55 73  1  0  0  0  0
 56 74  1  0  0  0  0
 57 75  1  0  0  0  0
 58 75  1  0  0  0  0
 59 60  1  0  0  0  0
 59 61  1  0  0  0  0
 60 75  1  0  0  0  0
 61 82  1  0  0  0  0
 62 64  1  0  0  0  0
 62 72  1  0  0  0  0
 63 74  1  0  0  0  0
 65 66  1  0  0  0  0
M  CHG  2  74   1  75   1
M  ISO  4  38 100  61 101  73 100  82 101
M  END
> <Batch ID>
0015

> <Smiles>
CNC(C)C(=O)NC(C(=O)N1Cc2cc([101O:1][101CH2:1]CCN(C)Cc3ccc([100N:0](C)[100C:0](=O)N4CCCC(n5nc(-c6ccc(Oc7ccc(F)cc7F)cc6)c(C(N)=O)c5N)C4)cc3)ccc2CC1C(=O)NC1CCCc2ccccc21)C(C)(C)C

> <Shape>
0.244

> <Color>
0.069

> <Negative vol penalty>
0.000

$$$$

  -OEChem-04042320543D

 85 94  0     1  0  0  0  0  0999 V2000
  -29.9630  -33.8869   25.2007 C   0  0  0  0  0  0  0  0  0  0  0  0
  -29.7846  -32.6287   24.6346 C   0  0  0  0  0  0  0  0  0  0  0  0
  -23.7665   -8.7810   19.5681 C   0  0  0  0  0  0  0  0  0  0  0  0
  -23.3144  -10.2137   21.4602 C   0  0  0  0  0  0  0  0  0  0  0  0
  -28.8725  -34.5688   25.7390 C   0  0  0  0  0  0  0  0  0  0  0  0
  -28.5156  -32.0511   24.6076 C   0  0  0  0  0  0  0  0  0  0  0  0
  -27.4251  -29.9669   20.1229 C   0  0  0  0  0  0  0  0  0  0  0  0
  -28.3385  -19.8200   20.2742 C   0  0  0  0  0  0  0  0  0  0  0  0
  -30.5217  -19.4460   21.2391 C   0  0  0  0  0  0  0  0  0  0  0  0
  -28.2539  -18.4681   19.9415 C   0  0  0  0  0  0  0  0  0  0  0  0
  -30.4370  -18.0940   20.9065 C   0  0  0  0  0  0  0  0  0  0  0  0
  -22.9798   -7.7801   20.1380 C   0  0  0  0  0  0  0  0  0  0  0  0
  -22.5276   -9.2128   22.0301 C   0  0  0  0  0  0  0  0  0  0  0  0
  -27.9894  -28.7227   19.8450 C   0  0  0  0  0  0  0  0  0  0  0  0
  -19.4040   -7.9812   21.6471 C   0  0  0  0  0  0  0  0  0  0  0  0
  -18.1725   -8.3546   22.1852 C   0  0  0  0  0  0  0  0  0  0  0  0
  -25.9078  -27.6543   20.4317 C   0  0  0  0  0  0  0  0  0  0  0  0
  -18.8728   -7.5436   24.3506 C   0  0  0  0  0  0  0  0  0  0  0  0
  -23.9339   -9.9979   20.2292 C   0  0  0  0  0  0  0  0  0  0  0  0
  -24.3244  -12.0522   18.7681 C   0  0  0  0  0  0  0  0  0  0  0  0
  -27.5879  -34.0035   25.7098 C   0  0  0  0  0  0  0  0  0  0  0  0
  -26.0990  -30.0635   20.5686 C   0  0  0  0  0  0  0  0  0  0  0  0
  -27.4072  -32.7256   25.1472 C   0  0  0  0  0  0  0  0  0  0  0  0
  -25.3282  -28.9011   20.7122 C   0  0  0  0  0  0  0  0  0  0  0  0
  -29.4724  -20.3090   20.9229 C   0  0  0  0  0  0  0  0  0  0  0  0
  -29.3031  -17.6051   20.2577 C   0  0  0  0  0  0  0  0  0  0  0  0
  -22.3603   -7.9960   21.3689 C   0  0  0  0  0  0  0  0  0  0  0  0
  -27.2317  -27.5659   20.0021 C   0  0  0  0  0  0  0  0  0  0  0  0
  -20.3699   -7.3890   22.4607 C   0  0  0  0  0  0  0  0  0  0  0  0
  -17.9069   -8.1358   23.5369 C   0  0  0  0  0  0  0  0  0  0  0  0
  -20.1043   -7.1702   23.8125 C   0  0  0  0  0  0  0  0  0  0  0  0
  -24.7469  -11.0320   19.6413 C   0  0  0  0  0  0  0  0  0  0  0  0
  -25.4652  -12.7684   18.4995 C   0  0  0  0  0  0  0  0  0  0  0  0
  -23.0176  -12.3278   18.2466 C   0  0  0  0  0  0  0  0  0  0  0  0
  -24.6930  -31.1324   23.2113 C   0  0  0  0  0  0  0  0  0  0  0  0
  -21.9776  -30.5521   21.5343 C   0  0  0  0  0  0  0  0  0  0  0  0
  -20.4358  -28.8325   19.0218 C   0  0  0  0  0  0  0  0  0  0  0  0
  -30.1688  -15.2412   20.1620 C   0  0  0  0  0  0  0  0  0  0  0  0
  -26.4480  -34.7584   26.3466 C   0  0  0  0  0  0  0  0  0  0  0  0
  -25.4967  -31.4151   20.8385 C   0  0  0  0  0  0  0  0  0  0  0  0
  -23.8937  -28.9521   21.1683 C   0  0  0  0  0  0  0  0  0  0  0  0
  -25.0713  -34.2378   25.9418 C   0  0  0  0  0  0  0  0  0  0  0  0
  -30.3158  -11.7423   19.5195 C   0  0  0  0  0  0  0  0  0  0  0  0
  -31.4911  -23.3856   18.4063 C   0  0  0  0  0  0  0  0  0  0  0  0
  -25.0280  -32.7158   26.0332 C   0  0  0  0  0  0  0  0  0  0  0  0
  -31.0197  -24.8264   18.5734 C   0  0  0  0  0  0  0  0  0  0  0  0
  -28.8453  -11.3295   19.4221 C   0  0  0  0  0  0  0  0  0  0  0  0
  -30.5334  -12.8191   20.5809 C   0  0  0  0  0  0  0  0  0  0  0  0
  -28.2051  -13.5909   20.3512 C   0  0  0  0  0  0  0  0  0  0  0  0
  -31.2907  -22.5747   19.6774 C   0  0  0  0  0  0  0  0  0  0  0  0
  -29.3806  -24.0641   20.3358 C   0  0  0  0  0  0  0  0  0  0  0  0
  -26.0419  -32.0766   25.0767 C   0  0  1  0  0  0  0  0  0  0  0  0
  -24.2972  -31.3576   21.7794 C   0  0  1  0  0  0  0  0  0  0  0  0
  -29.5672  -24.8860   19.0592 C   0  0  1  0  0  0  0  0  0  0  0  0
  -27.9262  -12.5548   19.2502 C   0  0  2  0  0  0  0  0  0  0  0  0
  -18.2024  -28.5433   17.9146 C   0  0  0  0  0  0  0  0  0  0  0  0
  -21.0267  -28.8714   23.8968 C   0  0  0  0  0  0  0  0  0  0  0  0
  -19.2940  -27.8665   22.3948 C   0  0  0  0  0  0  0  0  0  0  0  0
  -19.2636  -30.3157   22.8672 C   0  0  0  0  0  0  0  0  0  0  0  0
  -21.4789  -29.7623   16.4129 C   0  0  0  0  0  0  0  0  0  0  0  0
  -29.5634  -21.7632   21.2807 C   0  0  0  0  0  0  0  0  0  0  0  0
  -29.1375  -26.3334   19.2917 C   0  0  0  0  0  0  0  0  0  1  0  0
  -21.0599  -29.3658   21.3629 C   0  0  1  0  0  0  0  0  0  0  0  0
  -19.5257  -29.2925   17.8972 C   0  0  2  0  0  0  0  0  0  0  0  0
  -20.1886  -29.1034   22.6236 C   0  0  0  0  0  0  0  0  0  0  0  0
  -26.0541  -11.0913   19.9094 N   0  0  0  0  0  0  0  0  0  0  0  0
  -26.4628  -12.1573   19.2005 N   0  0  0  0  0  0  0  0  0  0  0  0
  -23.3519  -30.2966   21.4258 N   0  0  0  0  0  0  0  0  0  0  0  0
  -29.6319  -13.9503   20.3518 N   0  0  0  0  0  0  0  0  0  0  0  0
  -25.7022  -13.8550   17.7342 N   0  0  0  0  0  0  0  0  0  0  0  0
  -21.9575  -11.4927   18.6247 N   0  0  0  0  0  0  0  0  0  0  0  0
  -29.2174  -16.2316   19.9201 N   0  0  0  0  0  0  0  0  0  0  0  0
  -25.5400  -32.0988   23.7195 N   0  0  0  0  0  0  0  0  0  0  0  0
  -20.2924  -29.6157   20.1476 N   0  0  0  0  0  0  0  0  0  0  0  0
  -29.8420  -22.6456   20.0948 N   0  3  2  0  0  0  0  0  0  0  0  0
  -20.1779  -29.0641   16.5768 N   0  3  0  0  0  0  0  0  0  0  0  0
  -22.7997  -13.2765   17.4553 O   0  0  0  0  0  0  0  0  0  0  0  0
  -24.2606  -30.1552   23.8112 O   0  0  0  0  0  0  0  0  0  0  0  0
  -21.4926  -31.6657   21.7493 O   0  0  0  0  0  0  0  0  0  0  0  0
  -21.1950  -27.8721   18.9137 O   0  0  0  0  0  0  0  0  0  0  0  0
  -31.3849  -15.4479   20.1834 O   0  0  0  0  0  0  0  0  0  0  0  0
  -21.5924   -7.0196   21.9252 O   0  0  0  0  0  0  0  0  0  0  0  0
  -27.7802  -26.3502   19.7321 O   0  0  0  0  0  0  0  0  0  1  0  0
  -16.7248   -8.4958   24.0538 F   0  0  0  0  0  0  0  0  0  0  0  0
  -21.0287   -6.6028   24.5994 F   0  0  0  0  0  0  0  0  0  0  0  0
  1  2  1  0  0  0  0
  1  5  2  0  0  0  0
  2  6  2  0  0  0  0
  3 12  2  0  0  0  0
  3 19  1  0  0  0  0
  4 13  1  0  0  0  0
  4 19  2  0  0  0  0
  5 21  1  0  0  0  0
  6 23  1  0  0  0  0
  7 14  2  0  0  0  0
  7 22  1  0  0  0  0
  8 10  2  0  0  0  0
  8 25  1  0  0  0  0
  9 11  1  0  0  0  0
  9 25  2  0  0  0  0
 10 26  1  0  0  0  0
 11 26  2  0  0  0  0
 12 27  1  0  0  0  0
 13 27  2  0  0  0  0
 14 28  1  0  0  0  0
 15 16  2  0  0  0  0
 15 29  1  0  0  0  0
 16 30  1  0  0  0  0
 17 24  1  0  0  0  0
 17 28  2  0  0  0  0
 18 30  2  0  0  0  0
 18 31  1  0  0  0  0
 19 32  1  0  0  0  0
 20 32  1  0  0  0  0
 20 33  2  0  0  0  0
 20 34  1  0  0  0  0
 21 23  2  0  0  0  0
 21 39  1  0  0  0  0
 22 24  2  0  0  0  0
 22 40  1  0  0  0  0
 23 52  1  0  0  0  0
 24 41  1  0  0  0  0
 25 61  1  0  0  0  0
 26 72  1  0  0  0  0
 27 82  1  0  0  0  0
 28 83  1  0  0  0  0
 29 31  2  0  0  0  0
 29 82  1  0  0  0  0
 30 84  1  0  0  0  0
 31 85  1  0  0  0  0
 32 66  2  0  0  0  0
 33 67  1  0  0  0  0
 33 70  1  0  0  0  0
 34 71  1  0  0  0  0
 34 77  2  0  0  0  0
 35 53  1  0  0  0  0
 35 73  1  0  0  0  0
 35 78  2  0  0  0  0
 36 63  1  0  0  0  0
 36 68  1  0  0  0  0
 36 79  2  0  0  0  0
 37 64  1  0  0  0  0
 37 74  1  0  0  0  0
 37 80  2  0  0  0  0
 38 69  1  0  0  0  0
 38 72  1  0  0  0  0
 38 81  2  0  0  0  0
 39 42  1  0  0  0  0
 40 53  1  0  0  0  0
 41 68  1  0  0  0  0
 42 45  1  0  0  0  0
 43 47  1  0  0  0  0
 43 48  1  0  0  0  0
 44 46  1  0  0  0  0
 44 50  1  0  0  0  0
 45 52  1  0  0  0  0
 46 54  1  0  0  0  0
 47 55  1  0  0  0  0
 48 69  1  0  0  0  0
 49 55  1  0  0  0  0
 49 69  1  0  0  0  0
 50 75  1  0  0  0  0
 51 54  1  0  0  0  0
 51 75  1  0  0  0  0
 52 73  1  0  0  0  0
 53 68  1  0  0  0  0
 54 62  1  0  0  0  0
 55 67  1  0  0  0  0
 56 64  1  0  0  0  0
 57 65  1  0  0  0  0
 58 65  1  0  0  0  0
 59 65  1  0  0  0  0
 60 76  1  0  0  0  0
 61 75  1  0  0  0  0
 62 83  1  0  0  0  0
 63 65  1  0  0  0  0
 63 74  1  0  0  0  0
 64 76  1  0  0  0  0
 66 67  1  0  0  0  0
M  CHG  2  75   1  76   1
M  ISO  4  38 100  62 101  72 100  83 101
M  END
> <Batch ID>
0015

> <Smiles>
CNC(C)C(=O)NC(C(=O)N1Cc2cc([101O:1][101CH2:1]C3CCCN(Cc4ccc([100NH:0][100C:0](=O)N5CCCC(n6nc(-c7ccc(Oc8ccc(F)cc8F)cc7)c(C(N)=O)c6N)C5)cc4)C3)ccc2CC1C(=O)NC1CCCc2ccccc21)C(C)(C)C

> <Shape>
0.344

> <Color>
0.108

> <Negative vol penalty>
0.000

$$$$

  -OEChem-04042320543D

 90 99  0     1  0  0  0  0  0999 V2000
  -32.3852  -14.0001   20.2370 C   0  0  0  0  0  0  0  0  0  0  0  0
  -31.6482  -15.1772   20.3176 C   0  0  0  0  0  0  0  0  0  0  0  0
  -27.8937  -23.5690   20.9363 C   0  0  0  0  0  0  0  0  0  0  0  0
  -30.1597  -24.0180   20.2287 C   0  0  0  0  0  0  0  0  0  0  0  0
  -31.7374  -12.7882   20.0013 C   0  0  0  0  0  0  0  0  0  0  0  0
  -30.2629  -15.1433   20.1615 C   0  0  0  0  0  0  0  0  0  0  0  0
  -26.1496  -18.6748   23.0101 C   0  0  0  0  0  0  0  0  0  0  0  0
  -22.6888  -24.0182   22.3849 C   0  0  0  0  0  0  0  0  0  0  0  0
  -21.9015  -29.1588   20.0242 C   0  0  0  0  0  0  0  0  0  0  0  0
  -21.8511  -25.0608   21.9888 C   0  0  0  0  0  0  0  0  0  0  0  0
  -22.9061  -30.1259   20.0562 C   0  0  0  0  0  0  0  0  0  0  0  0
  -28.0675  -22.2181   20.6357 C   0  0  0  0  0  0  0  0  0  0  0  0
  -30.3335  -22.6670   19.9282 C   0  0  0  0  0  0  0  0  0  0  0  0
  -25.4738  -19.8299   22.6189 C   0  0  0  0  0  0  0  0  0  0  0  0
  -28.0712  -20.2602   17.8806 C   0  0  0  0  0  0  0  0  0  0  0  0
  -27.0501  -19.6158   17.1822 C   0  0  0  0  0  0  0  0  0  0  0  0
  -23.5855  -18.4891   21.9438 C   0  0  0  0  0  0  0  0  0  0  0  0
  -22.2590  -24.5086   19.6724 C   0  0  0  0  0  0  0  0  0  0  0  0
  -23.2120  -29.7300   22.4198 C   0  0  0  0  0  0  0  0  0  0  0  0
  -26.7744  -18.0662   19.0152 C   0  0  0  0  0  0  0  0  0  0  0  0
  -28.9398  -24.4690   20.7327 C   0  0  0  0  0  0  0  0  0  0  0  0
  -29.0180  -26.5028   22.2706 C   0  0  0  0  0  0  0  0  0  0  0  0
  -30.3424  -12.7380   19.8519 C   0  0  0  0  0  0  0  0  0  0  0  0
  -25.5516  -17.4153   22.8607 C   0  0  0  0  0  0  0  0  0  0  0  0
  -29.5960  -13.9298   19.9223 C   0  0  0  0  0  0  0  0  0  0  0  0
  -24.2547  -17.3199   22.3362 C   0  0  0  0  0  0  0  0  0  0  0  0
  -23.3116  -23.2208   21.4247 C   0  0  0  0  0  0  0  0  0  0  0  0
  -21.5521  -28.4773   21.1900 C   0  0  0  0  0  0  0  0  0  0  0  0
  -23.0967  -23.4660   20.0685 C   0  0  0  0  0  0  0  0  0  0  0  0
  -21.6362  -25.3060   20.6326 C   0  0  0  0  0  0  0  0  0  0  0  0
  -23.5613  -30.4115   21.2539 C   0  0  0  0  0  0  0  0  0  0  0  0
  -29.2874  -21.7671   20.1318 C   0  0  0  0  0  0  0  0  0  0  0  0
  -24.1927  -19.7369   22.0830 C   0  0  0  0  0  0  0  0  0  0  0  0
  -28.4440  -19.8075   19.1462 C   0  0  0  0  0  0  0  0  0  0  0  0
  -26.4016  -18.5189   17.7495 C   0  0  0  0  0  0  0  0  0  0  0  0
  -22.2074  -28.7629   22.3878 C   0  0  0  0  0  0  0  0  0  0  0  0
  -27.7955  -18.7106   19.7135 C   0  0  0  0  0  0  0  0  0  0  0  0
  -28.7607  -25.8648   21.0424 C   0  0  0  0  0  0  0  0  0  0  0  0
  -28.6894  -27.8180   22.0498 C   0  0  0  0  0  0  0  0  0  0  0  0
  -29.5101  -25.9556   23.5011 C   0  0  0  0  0  0  0  0  0  0  0  0
  -26.2412  -14.7861   21.2127 C   0  0  0  0  0  0  0  0  0  0  0  0
  -23.7201  -13.5678   22.8503 C   0  0  0  0  0  0  0  0  0  0  0  0
  -20.8134  -14.1443   24.5432 C   0  0  0  0  0  0  0  0  0  0  0  0
  -25.4056  -31.6715   20.1574 C   0  0  0  0  0  0  0  0  0  0  0  0
  -29.6918  -11.4110   19.5515 C   0  0  0  0  0  0  0  0  0  0  0  0
  -26.2833  -16.1811   23.3123 C   0  0  0  0  0  0  0  0  0  0  0  0
  -23.5606  -15.9931   22.1738 C   0  0  0  0  0  0  0  0  0  0  0  0
  -28.1810  -11.4099   19.7705 C   0  0  0  0  0  0  0  0  0  0  0  0
  -27.6468  -30.2868   17.7693 C   0  0  0  0  0  0  0  0  0  0  0  0
  -27.5493  -12.6470   19.1402 C   0  0  0  0  0  0  0  0  0  0  0  0
  -28.1532  -29.0497   18.5101 C   0  0  0  0  0  0  0  0  0  0  0  0
  -26.1560  -30.5274   18.0092 C   0  0  0  0  0  0  0  0  0  0  0  0
  -26.2860  -29.3496   20.1818 C   0  0  0  0  0  0  0  0  0  0  0  0
  -28.0891  -13.9304   19.7831 C   0  0  1  0  0  0  0  0  0  0  0  0
  -25.7810  -14.9083   22.6378 C   0  0  1  0  0  0  0  0  0  0  0  0
  -27.7945  -29.1159   20.0051 C   0  0  1  0  0  0  0  0  0  0  0  0
  -23.7539  -22.6264   19.0226 C   0  0  0  0  0  0  0  0  0  0  0  0
  -18.9562  -12.9475   25.7330 C   0  0  0  0  0  0  0  0  0  0  0  0
  -22.5344  -12.7413   20.1631 C   0  0  0  0  0  0  0  0  0  0  0  0
  -20.3291  -12.4365   21.3086 C   0  0  0  0  0  0  0  0  0  0  0  0
  -22.2850  -11.0415   21.9804 C   0  0  0  0  0  0  0  0  0  0  0  0
  -24.6497  -32.3322   22.4306 C   0  0  0  0  0  0  0  0  0  0  0  0
  -20.2116  -26.3734   18.9030 C   0  0  0  0  0  0  0  0  0  0  0  0
  -21.4212  -15.5023   27.1017 C   0  0  0  0  0  0  0  0  0  0  0  0
  -20.4715  -27.4356   21.1508 C   0  0  0  0  0  0  0  0  0  0  0  0
  -24.2092  -22.1060   21.8751 C   0  0  0  0  0  0  0  0  0  1  0  0
  -22.2309  -13.4880   22.6159 C   0  0  1  0  0  0  0  0  0  0  0  0
  -20.3069  -13.6308   25.8790 C   0  0  2  0  0  0  0  0  0  0  0  0
  -21.8584  -12.4518   21.5181 C   0  0  0  0  0  0  0  0  0  0  0  0
  -28.3037  -26.7054   20.1104 N   0  0  0  0  0  0  0  0  0  0  0  0
  -28.2712  -27.8851   20.7533 N   0  0  0  0  0  0  0  0  0  0  0  0
  -24.3197  -14.8148   22.6241 N   0  0  0  0  0  0  0  0  0  0  0  0
  -25.8555  -30.5420   19.4479 N   0  0  0  0  0  0  0  0  0  0  0  0
  -28.7202  -28.9121   22.8400 N   0  0  0  0  0  0  0  0  0  0  0  0
  -29.7977  -24.5850   23.5550 N   0  0  0  0  0  0  0  0  0  0  0  0
  -27.4617  -14.1546   21.0678 N   0  0  0  0  0  0  0  0  0  0  0  0
  -21.6265  -13.2233   23.9171 N   0  0  0  0  0  0  0  0  0  0  0  0
  -24.6000  -31.4142   21.2875 N   0  0  0  0  0  0  0  0  0  0  0  0
  -20.7884  -26.3597   20.2327 N   0  0  3  0  0  0  0  0  0  0  0  0
  -20.1624  -14.7560   26.8454 N   0  3  0  0  0  0  0  0  0  0  0  0
  -29.6740  -26.6582   24.5273 O   0  0  0  0  0  0  0  0  0  0  0  0
  -25.5402  -15.2306   20.3112 O   0  0  0  0  0  0  0  0  0  0  0  0
  -24.3276  -12.5626   23.2273 O   0  0  0  0  0  0  0  0  0  0  0  0
  -20.5145  -15.2501   24.0980 O   0  0  0  0  0  0  0  0  0  0  0  0
  -25.7207  -32.8199   19.8229 O   0  0  0  0  0  0  0  0  0  0  0  0
  -29.4574  -20.4488   19.8386 O   0  0  0  0  0  0  0  0  0  0  0  0
  -23.5311  -20.8627   21.6998 O   0  0  0  0  0  0  0  0  0  1  0  0
  -25.4200  -17.9011   17.0794 F   0  0  0  0  0  0  0  0  0  0  0  0
  -21.8787  -28.1133   23.5131 F   0  0  0  0  0  0  0  0  0  0  0  0
  -28.1485  -18.2719   20.9296 F   0  0  0  0  0  0  0  0  0  0  0  0
  1  2  1  0  0  0  0
  1  5  2  0  0  0  0
  2  6  2  0  0  0  0
  3 12  2  0  0  0  0
  3 21  1  0  0  0  0
  4 13  1  0  0  0  0
  4 21  2  0  0  0  0
  5 23  1  0  0  0  0
  6 25  1  0  0  0  0
  7 14  2  0  0  0  0
  7 24  1  0  0  0  0
  8 10  2  0  0  0  0
  8 27  1  0  0  0  0
  9 11  2  0  0  0  0
  9 28  1  0  0  0  0
 10 30  1  0  0  0  0
 11 31  1  0  0  0  0
 12 32  1  0  0  0  0
 13 32  2  0  0  0  0
 14 33  1  0  0  0  0
 15 16  2  0  0  0  0
 15 34  1  0  0  0  0
 16 35  1  0  0  0  0
 17 26  1  0  0  0  0
 17 33  2  0  0  0  0
 18 29  1  0  0  0  0
 18 30  2  0  0  0  0
 19 31  2  0  0  0  0
 19 36  1  0  0  0  0
 20 35  2  0  0  0  0
 20 37  1  0  0  0  0
 21 38  1  0  0  0  0
 22 38  1  0  0  0  0
 22 39  2  0  0  0  0
 22 40  1  0  0  0  0
 23 25  2  0  0  0  0
 23 45  1  0  0  0  0
 24 26  2  0  0  0  0
 24 46  1  0  0  0  0
 25 54  1  0  0  0  0
 26 47  1  0  0  0  0
 27 29  2  0  0  0  0
 27 66  1  0  0  0  0
 28 36  2  0  0  0  0
 28 65  1  0  0  0  0
 29 57  1  0  0  0  0
 30 79  1  0  0  0  0
 31 78  1  0  0  0  0
 32 86  1  0  0  0  0
 33 87  1  0  0  0  0
 34 37  2  0  0  0  0
 34 86  1  0  0  0  0
 35 88  1  0  0  0  0
 36 89  1  0  0  0  0
 37 90  1  0  0  0  0
 38 70  2  0  0  0  0
 39 71  1  0  0  0  0
 39 74  1  0  0  0  0
 40 75  1  0  0  0  0
 40 81  2  0  0  0  0
 41 55  1  0  0  0  0
 41 76  1  0  0  0  0
 41 82  2  0  0  0  0
 42 67  1  0  0  0  0
 42 72  1  0  0  0  0
 42 83  2  0  0  0  0
 43 68  1  0  0  0  0
 43 77  1  0  0  0  0
 43 84  2  0  0  0  0
 44 73  1  0  0  0  0
 44 78  1  0  0  0  0
 44 85  2  0  0  0  0
 45 48  1  0  0  0  0
 46 55  1  0  0  0  0
 47 72  1  0  0  0  0
 48 50  1  0  0  0  0
 49 51  1  0  0  0  0
 49 52  1  0  0  0  0
 50 54  1  0  0  0  0
 51 56  1  0  0  0  0
 52 73  1  0  0  0  0
 53 56  1  0  0  0  0
 53 73  1  0  0  0  0
 54 76  1  0  0  0  0
 55 72  1  0  0  0  0
 56 71  1  0  0  0  0
 58 68  1  0  0  0  0
 59 69  1  0  0  0  0
 60 69  1  0  0  0  0
 61 69  1  0  0  0  0
 62 78  1  0  0  0  0
 63 79  1  0  0  0  0
 64 80  1  0  0  0  0
 65 79  1  0  0  0  0
 66 87  1  0  0  0  0
 67 69  1  0  0  0  0
 67 77  1  0  0  0  0
 68 80  1  0  0  0  0
 70 71  1  0  0  0  0
M  CHG  1  80   1
M  ISO  4  44 100  66 101  78 100  87 101
M  END
> <Batch ID>
0015

> <Smiles>
CNC(C)C(=O)NC(C(=O)N1Cc2cc([101O:1][101CH2:1]c3ccc(N(C)Cc4ccc([100N:0](C)[100C:0](=O)N5CCCC(n6nc(-c7ccc(Oc8ccc(F)cc8F)cc7)c(C(N)=O)c6N)C5)cc4F)cc3C)ccc2CC1C(=O)NC1CCCc2ccccc21)C(C)(C)C

> <Shape>
0.235

> <Color>
0.079

> <Negative vol penalty>
0.000

$$$$

  -OEChem-04042320543D

 88 97  0     1  0  0  0  0  0999 V2000
  -32.1752  -25.9908   16.1290 C   0  0  0  0  0  0  0  0  0  0  0  0
  -31.3417  -25.3980   17.0720 C   0  0  0  0  0  0  0  0  0  0  0  0
  -23.0621  -10.3170   21.2374 C   0  0  0  0  0  0  0  0  0  0  0  0
  -24.6419   -8.5847   21.8209 C   0  0  0  0  0  0  0  0  0  0  0  0
  -32.5729  -27.3176   16.2879 C   0  0  0  0  0  0  0  0  0  0  0  0
  -30.9064  -26.1314   18.1752 C   0  0  0  0  0  0  0  0  0  0  0  0
  -25.9659  -25.5077   19.0959 C   0  0  0  0  0  0  0  0  0  0  0  0
  -24.2773  -16.0692   19.5748 C   0  0  0  0  0  0  0  0  0  0  0  0
  -24.9173  -15.5836   18.4346 C   0  0  0  0  0  0  0  0  0  0  0  0
  -22.0743   -9.3513   21.0445 C   0  0  0  0  0  0  0  0  0  0  0  0
  -23.6541   -7.6189   21.6281 C   0  0  0  0  0  0  0  0  0  0  0  0
  -25.5811  -24.3304   19.7358 C   0  0  0  0  0  0  0  0  0  0  0  0
  -20.0060   -7.4861   22.9619 C   0  0  0  0  0  0  0  0  0  0  0  0
  -18.7439   -7.7330   23.5020 C   0  0  0  0  0  0  0  0  0  0  0  0
  -25.4434  -25.5205   21.8296 C   0  0  0  0  0  0  0  0  0  0  0  0
  -26.4173  -16.6760   20.5177 C   0  0  0  0  0  0  0  0  0  0  0  0
  -17.7756   -7.6181   21.2915 C   0  0  0  0  0  0  0  0  0  0  0  0
  -24.3459   -9.9338   21.6256 C   0  0  0  0  0  0  0  0  0  0  0  0
  -25.6705  -11.6101   23.0195 C   0  0  0  0  0  0  0  0  0  0  0  0
  -32.1344  -28.0706   17.3886 C   0  0  0  0  0  0  0  0  0  0  0  0
  -26.1031  -26.7000   19.8212 C   0  0  0  0  0  0  0  0  0  0  0  0
  -31.2997  -27.4691   18.3497 C   0  0  0  0  0  0  0  0  0  0  0  0
  -25.8276  -26.7122   21.1960 C   0  0  0  0  0  0  0  0  0  0  0  0
  -25.0273  -16.6155   20.6164 C   0  0  0  0  0  0  0  0  0  0  0  0
  -26.3074  -15.6441   18.3360 C   0  0  0  0  0  0  0  0  0  0  0  0
  -22.3703   -8.0023   21.2399 C   0  0  0  0  0  0  0  0  0  0  0  0
  -25.3226  -24.3360   21.1034 C   0  0  0  0  0  0  0  0  0  0  0  0
  -20.1530   -7.3054   21.5866 C   0  0  0  0  0  0  0  0  0  0  0  0
  -17.6287   -7.7989   22.6668 C   0  0  0  0  0  0  0  0  0  0  0  0
  -27.0574  -16.1903   19.3775 C   0  0  0  0  0  0  0  0  0  0  0  0
  -19.0377   -7.3713   20.7514 C   0  0  0  0  0  0  0  0  0  0  0  0
  -25.3669  -10.9308   21.8244 C   0  0  0  0  0  0  0  0  0  0  0  0
  -26.7096  -12.4441   22.6860 C   0  0  0  0  0  0  0  0  0  0  0  0
  -25.2602  -19.0727   23.1733 C   0  0  0  0  0  0  0  0  0  0  0  0
  -25.0673  -11.4971   24.3153 C   0  0  0  0  0  0  0  0  0  0  0  0
  -28.5090  -28.6810   20.4464 C   0  0  0  0  0  0  0  0  0  0  0  0
  -26.1684  -30.4736   21.7994 C   0  0  0  0  0  0  0  0  0  0  0  0
  -23.0743  -30.5933   23.2342 C   0  0  0  0  0  0  0  0  0  0  0  0
  -28.2645  -14.5950   17.1696 C   0  0  0  0  0  0  0  0  0  0  0  0
  -32.6292  -29.4870   17.5425 C   0  0  0  0  0  0  0  0  0  0  0  0
  -26.4931  -27.9673   19.1112 C   0  0  0  0  0  0  0  0  0  0  0  0
  -25.9406  -27.9703   22.0163 C   0  0  0  0  0  0  0  0  0  0  0  0
  -25.4354  -20.5514   22.9210 C   0  0  0  0  0  0  0  0  0  0  0  0
  -31.8208  -30.3091   18.5430 C   0  0  0  0  0  0  0  0  0  0  0  0
  -30.3844  -12.8604   19.6577 C   0  0  0  0  0  0  0  0  0  0  0  0
  -31.5913  -29.5148   19.8249 C   0  0  0  0  0  0  0  0  0  0  0  0
  -29.3592  -12.1581   20.5461 C   0  0  0  0  0  0  0  0  0  0  0  0
  -29.8696  -13.0415   18.2330 C   0  0  0  0  0  0  0  0  0  0  0  0
  -24.3310  -19.5309   21.0489 C   0  0  0  0  0  0  0  0  0  0  0  0
  -27.5298  -13.0500   19.0496 C   0  0  0  0  0  0  0  0  0  0  0  0
  -30.7865  -28.2394   19.5469 C   0  0  1  0  0  0  0  0  0  0  0  0
  -27.0999  -29.0118   20.0430 C   0  0  1  0  0  0  0  0  0  0  0  0
  -24.4274  -20.8473   21.8075 C   0  0  2  0  0  0  0  0  0  0  0  0
  -28.0088  -12.8918   20.5005 C   0  0  1  0  0  0  0  0  0  0  0  0
  -26.6868  -16.8578   15.4117 C   0  0  0  0  0  0  0  0  0  0  0  0
  -21.4460  -32.1944   24.2747 C   0  0  0  0  0  0  0  0  0  0  0  0
  -27.8589  -30.5388   24.3387 C   0  0  0  0  0  0  0  0  0  0  0  0
  -25.8264  -31.2965   25.5889 C   0  0  0  0  0  0  0  0  0  0  0  0
  -26.7624  -32.7105   23.7594 C   0  0  0  0  0  0  0  0  0  0  0  0
  -21.0192  -30.0171   21.1839 C   0  0  0  0  0  0  0  0  0  0  0  0
  -24.3386  -17.1373   21.8442 C   0  0  0  0  0  0  0  0  0  0  0  0
  -24.8386  -22.0143   20.9264 C   0  0  0  0  0  0  0  0  0  1  0  0
  -26.3706  -15.4442   15.8567 C   0  0  0  0  0  0  0  0  0  0  0  0
  -25.5542  -30.5678   23.1752 C   0  0  1  0  0  0  0  0  0  0  0  0
  -21.8862  -31.5066   22.9918 C   0  0  2  0  0  0  0  0  0  0  0  0
  -26.5002  -31.2541   24.2007 C   0  0  0  0  0  0  0  0  0  0  0  0
  -26.1496  -11.3014   20.8075 N   0  0  0  0  0  0  0  0  0  0  0  0
  -26.9553  -12.2226   21.3628 N   0  0  0  0  0  0  0  0  0  0  0  0
  -24.6114  -18.5414   22.0626 N   0  0  0  0  0  0  0  0  0  0  0  0
  -26.3312  -29.1825   21.2776 N   0  0  0  0  0  0  0  0  0  0  0  0
  -28.5561  -13.6871   18.2083 N   0  0  0  0  0  0  0  0  0  0  0  0
  -27.4278  -13.3380   23.3983 N   0  0  0  0  0  0  0  0  0  0  0  0
  -24.0110  -10.5916   24.4839 N   0  0  0  0  0  0  0  0  0  0  0  0
  -29.3831  -28.5530   19.3838 N   0  0  0  0  0  0  0  0  0  0  0  0
  -24.2704  -31.2394   23.0040 N   0  0  0  0  0  0  0  0  0  0  0  0
  -26.9667  -15.1406   17.1559 N   0  0  0  0  0  0  0  0  0  0  0  0
  -20.7340  -30.7269   22.4574 N   0  3  0  0  0  0  0  0  0  0  0  0
  -25.6699  -18.4842   24.1630 O   0  0  0  0  0  0  0  0  0  0  0  0
  -25.4429  -12.1908   25.2906 O   0  0  0  0  0  0  0  0  0  0  0  0
  -28.7833  -28.5530   21.6338 O   0  0  0  0  0  0  0  0  0  0  0  0
  -26.4852  -31.5079   21.2064 O   0  0  0  0  0  0  0  0  0  0  0  0
  -22.9534  -29.4248   23.5955 O   0  0  0  0  0  0  0  0  0  0  0  0
  -29.0851  -14.8597   16.2824 O   0  0  0  0  0  0  0  0  0  0  0  0
  -21.4066   -7.0596   21.0520 O   0  0  0  0  0  0  0  0  0  0  0  0
  -24.9475  -23.1880   21.7306 O   0  0  0  0  0  0  0  0  0  1  0  0
  -16.4165   -8.0344   23.1858 F   0  0  0  0  0  0  0  0  0  0  0  0
  -28.3941  -16.2523   19.2941 F   0  0  0  0  0  0  0  0  0  0  0  0
  -19.1725   -7.1973   19.4296 F   0  0  0  0  0  0  0  0  0  0  0  0
  1  2  1  0  0  0  0
  1  5  2  0  0  0  0
  2  6  2  0  0  0  0
  3 10  2  0  0  0  0
  3 18  1  0  0  0  0
  4 11  1  0  0  0  0
  4 18  2  0  0  0  0
  5 20  1  0  0  0  0
  6 22  1  0  0  0  0
  7 12  2  0  0  0  0
  7 21  1  0  0  0  0
  8  9  2  0  0  0  0
  8 24  1  0  0  0  0
  9 25  1  0  0  0  0
 10 26  1  0  0  0  0
 11 26  2  0  0  0  0
 12 27  1  0  0  0  0
 13 14  2  0  0  0  0
 13 28  1  0  0  0  0
 14 29  1  0  0  0  0
 15 23  1  0  0  0  0
 15 27  2  0  0  0  0
 16 24  2  0  0  0  0
 16 30  1  0  0  0  0
 17 29  2  0  0  0  0
 17 31  1  0  0  0  0
 18 32  1  0  0  0  0
 19 32  1  0  0  0  0
 19 33  2  0  0  0  0
 19 35  1  0  0  0  0
 20 22  2  0  0  0  0
 20 40  1  0  0  0  0
 21 23  2  0  0  0  0
 21 41  1  0  0  0  0
 22 51  1  0  0  0  0
 23 42  1  0  0  0  0
 24 61  1  0  0  0  0
 25 30  2  0  0  0  0
 25 76  1  0  0  0  0
 26 84  1  0  0  0  0
 27 85  1  0  0  0  0
 28 31  2  0  0  0  0
 28 84  1  0  0  0  0
 29 86  1  0  0  0  0
 30 87  1  0  0  0  0
 31 88  1  0  0  0  0
 32 67  2  0  0  0  0
 33 68  1  0  0  0  0
 33 72  1  0  0  0  0
 34 43  1  0  0  0  0
 34 69  1  0  0  0  0
 34 78  2  0  0  0  0
 35 73  1  0  0  0  0
 35 79  2  0  0  0  0
 36 52  1  0  0  0  0
 36 74  1  0  0  0  0
 36 80  2  0  0  0  0
 37 64  1  0  0  0  0
 37 70  1  0  0  0  0
 37 81  2  0  0  0  0
 38 65  1  0  0  0  0
 38 75  1  0  0  0  0
 38 82  2  0  0  0  0
 39 71  1  0  0  0  0
 39 76  1  0  0  0  0
 39 83  2  0  0  0  0
 40 44  1  0  0  0  0
 41 52  1  0  0  0  0
 42 70  1  0  0  0  0
 43 53  1  0  0  0  0
 44 46  1  0  0  0  0
 45 47  1  0  0  0  0
 45 48  1  0  0  0  0
 46 51  1  0  0  0  0
 47 54  1  0  0  0  0
 48 71  1  0  0  0  0
 49 53  1  0  0  0  0
 49 69  1  0  0  0  0
 50 54  1  0  0  0  0
 50 71  1  0  0  0  0
 51 74  1  0  0  0  0
 52 70  1  0  0  0  0
 53 62  1  0  0  0  0
 54 68  1  0  0  0  0
 55 63  1  0  0  0  0
 56 65  1  0  0  0  0
 57 66  1  0  0  0  0
 58 66  1  0  0  0  0
 59 66  1  0  0  0  0
 60 77  1  0  0  0  0
 61 69  1  0  0  0  0
 62 85  1  0  0  0  0
 63 76  1  0  0  0  0
 64 66  1  0  0  0  0
 64 75  1  0  0  0  0
 65 77  1  0  0  0  0
 67 68  1  0  0  0  0
M  CHG  1  77   1
M  ISO  4  39 100  62 101  76 100  85 101
M  END
> <Batch ID>
0015

> <Smiles>
CC[100N:0](c1ccc(CN2CC([101CH2:1][101O:1]c3ccc4c(c3)CN(C(=O)C(NC(=O)C(C)NC)C(C)(C)C)C(C(=O)NC3CCCc5ccccc53)C4)CC2=O)cc1F)[100C:0](=O)N1CCCC(n2nc(-c3ccc(Oc4ccc(F)cc4F)cc3)c(C(N)=O)c2N)C1

> <Shape>
0.224

> <Color>
0.102

> <Negative vol penalty>
0.000

$$$$

  -OEChem-04042320543D

 85 93  0     1  0  0  0  0  0999 V2000
  -25.4652  -28.3108   30.4399 C   0  0  0  0  0  0  0  0  0  0  0  0
  -26.5352  -27.6462   29.8493 C   0  0  0  0  0  0  0  0  0  0  0  0
  -23.2056   -9.7865   20.3697 C   0  0  0  0  0  0  0  0  0  0  0  0
  -24.1254  -10.1140   22.5796 C   0  0  0  0  0  0  0  0  0  0  0  0
  -24.3871  -28.7256   29.6592 C   0  0  0  0  0  0  0  0  0  0  0  0
  -26.5272  -27.3950   28.4777 C   0  0  0  0  0  0  0  0  0  0  0  0
  -30.9594  -26.8437   22.8770 C   0  0  0  0  0  0  0  0  0  0  0  0
  -28.6657  -19.0874   19.7692 C   0  0  0  0  0  0  0  0  0  0  0  0
  -28.7735  -20.2518   19.0088 C   0  0  0  0  0  0  0  0  0  0  0  0
  -22.5598   -8.6312   20.8096 C   0  0  0  0  0  0  0  0  0  0  0  0
  -23.4794   -8.9586   23.0196 C   0  0  0  0  0  0  0  0  0  0  0  0
  -31.2765  -25.9720   21.8361 C   0  0  0  0  0  0  0  0  0  0  0  0
  -20.3627   -8.0551   23.9633 C   0  0  0  0  0  0  0  0  0  0  0  0
  -19.6957   -8.1134   25.1869 C   0  0  0  0  0  0  0  0  0  0  0  0
  -29.3970  -26.8050   20.5740 C   0  0  0  0  0  0  0  0  0  0  0  0
  -29.6584  -18.9657   17.1649 C   0  0  0  0  0  0  0  0  0  0  0  0
  -21.1125   -6.3536   26.0430 C   0  0  0  0  0  0  0  0  0  0  0  0
  -23.9885  -10.5279   21.2547 C   0  0  0  0  0  0  0  0  0  0  0  0
  -24.1524  -13.0356   20.8159 C   0  0  0  0  0  0  0  0  0  0  0  0
  -24.3703  -28.4879   28.2757 C   0  0  0  0  0  0  0  0  0  0  0  0
  -29.8504  -27.6963   22.7785 C   0  0  0  0  0  0  0  0  0  0  0  0
  -25.4472  -27.8058   27.6780 C   0  0  0  0  0  0  0  0  0  0  0  0
  -29.0695  -27.6884   21.6140 C   0  0  0  0  0  0  0  0  0  0  0  0
  -29.0544  -17.8622   19.2275 C   0  0  0  0  0  0  0  0  0  0  0  0
  -29.2698  -20.1909   17.7066 C   0  0  0  0  0  0  0  0  0  0  0  0
  -22.6966   -8.2172   22.1346 C   0  0  0  0  0  0  0  0  0  0  0  0
  -30.4935  -25.9505   20.6856 C   0  0  0  0  0  0  0  0  0  0  0  0
  -21.4046   -7.1460   23.7794 C   0  0  0  0  0  0  0  0  0  0  0  0
  -20.0706   -7.2626   26.2267 C   0  0  0  0  0  0  0  0  0  0  0  0
  -21.7795   -6.2953   24.8193 C   0  0  0  0  0  0  0  0  0  0  0  0
  -29.5507  -17.8013   17.9253 C   0  0  0  0  0  0  0  0  0  0  0  0
  -24.6564  -11.7212   20.8007 C   0  0  0  0  0  0  0  0  0  0  0  0
  -25.1636  -13.7972   20.2832 C   0  0  0  0  0  0  0  0  0  0  0  0
  -22.8836  -13.5243   21.2710 C   0  0  0  0  0  0  0  0  0  0  0  0
  -27.1413  -28.0495   24.4033 C   0  0  0  0  0  0  0  0  0  0  0  0
  -26.7700  -30.6238   22.4649 C   0  0  0  0  0  0  0  0  0  0  0  0
  -27.5317  -32.1642   19.5164 C   0  0  0  0  0  0  0  0  0  0  0  0
  -30.7397  -14.9004   20.3704 C   0  0  0  0  0  0  0  0  0  0  0  0
  -23.1613  -28.9133   27.4807 C   0  0  0  0  0  0  0  0  0  0  0  0
  -29.5375  -28.6496   23.8991 C   0  0  0  0  0  0  0  0  0  0  0  0
  -27.8803  -28.5981   21.4504 C   0  0  0  0  0  0  0  0  0  0  0  0
  -23.4019  -28.9401   25.9735 C   0  0  0  0  0  0  0  0  0  0  0  0
  -29.4202  -12.4612   17.9187 C   0  0  0  0  0  0  0  0  0  0  0  0
  -24.1113  -27.6669   25.5235 C   0  0  0  0  0  0  0  0  0  0  0  0
  -28.0509  -12.1126   18.4995 C   0  0  0  0  0  0  0  0  0  0  0  0
  -30.4097  -12.8708   19.0053 C   0  0  0  0  0  0  0  0  0  0  0  0
  -28.5561  -13.6286   20.4558 C   0  0  0  0  0  0  0  0  0  0  0  0
  -25.4866  -27.5368   26.1893 C   0  0  1  0  0  0  0  0  0  0  0  0
  -28.0827  -29.1089   23.9041 C   0  0  1  0  0  0  0  0  0  0  0  0
  -27.5222  -13.2564   19.3825 C   0  0  2  0  0  0  0  0  0  0  0  0
  -27.0466  -34.2430   18.1971 C   0  0  0  0  0  0  0  0  0  0  0  0
  -24.0350  -29.5025   21.7082 C   0  0  0  0  0  0  0  0  0  0  0  0
  -24.0207  -31.0529   19.7425 C   0  0  0  0  0  0  0  0  0  0  0  0
  -24.0870  -31.9782   22.0581 C   0  0  0  0  0  0  0  0  0  0  0  0
  -29.8987  -21.2963   15.5752 C   0  0  0  0  0  0  0  0  0  0  0  0
  -31.0846  -17.2268   21.1110 C   0  0  0  0  0  0  0  0  0  0  0  0
  -30.3750  -32.9850   19.5444 C   0  0  0  0  0  0  0  0  0  0  0  0
  -28.9243  -16.6382   20.0755 C   0  0  0  0  0  0  0  0  0  0  0  0
  -30.0756  -23.2490   18.3243 C   0  0  0  0  0  0  0  0  0  0  0  0
  -28.9717  -22.6432   17.4660 C   0  0  0  0  0  0  0  0  0  0  0  0
  -29.7177  -24.6270   18.8684 C   0  0  0  0  0  0  0  0  0  1  0  0
  -26.1475  -30.8611   21.1102 C   0  0  1  0  0  0  0  0  0  0  0  0
  -27.9737  -33.5829   19.2059 C   0  0  2  0  0  0  0  0  0  0  0  0
  -24.5938  -30.8300   21.1583 C   0  0  0  0  0  0  0  0  0  0  0  0
  -25.8917  -11.6484   20.2979 N   0  0  0  0  0  0  0  0  0  0  0  0
  -26.1724  -12.9267   19.9922 N   0  0  0  0  0  0  0  0  0  0  0  0
  -27.6113  -29.5077   22.5764 N   0  0  0  0  0  0  0  0  0  0  0  0
  -29.8649  -13.9291   19.8564 N   0  0  0  0  0  0  0  0  0  0  0  0
  -25.2793  -15.1200   20.0398 N   0  0  0  0  0  0  0  0  0  0  0  0
  -21.9611  -12.6058   21.7902 N   0  0  0  0  0  0  0  0  0  0  0  0
  -26.4455  -28.4066   25.5425 N   0  0  0  0  0  0  0  0  0  0  0  0
  -26.7051  -32.1166   20.6190 N   0  0  0  0  0  0  0  0  0  0  0  0
  -29.3775  -21.3614   16.9420 N   0  0  3  0  0  0  0  0  0  0  0  0
  -30.2139  -16.1826   20.5900 N   0  0  0  0  0  0  0  0  0  0  0  0
  -29.3548  -33.5844   18.6461 N   0  3  0  0  0  0  0  0  0  0  0  0
  -22.5709  -14.7372   21.2037 O   0  0  0  0  0  0  0  0  0  0  0  0
  -27.0517  -26.9873   23.7987 O   0  0  0  0  0  0  0  0  0  0  0  0
  -26.5246  -31.4041   23.3882 O   0  0  0  0  0  0  0  0  0  0  0  0
  -27.8815  -31.1957   18.8455 O   0  0  0  0  0  0  0  0  0  0  0  0
  -31.9255  -14.6391   20.6099 O   0  0  0  0  0  0  0  0  0  0  0  0
  -22.0663   -7.0900   22.5642 O   0  0  0  0  0  0  0  0  0  0  0  0
  -30.8004  -25.1002   19.6684 O   0  0  0  0  0  0  0  0  0  1  0  0
  -19.4310   -7.3198   27.4023 F   0  0  0  0  0  0  0  0  0  0  0  0
  -22.7804   -5.4207   24.6490 F   0  0  0  0  0  0  0  0  0  0  0  0
  -30.0424  -16.3032   17.2231 Cl  0  0  0  0  0  0  0  0  0  0  0  0
  1  2  1  0  0  0  0
  1  5  2  0  0  0  0
  2  6  2  0  0  0  0
  3 10  2  0  0  0  0
  3 18  1  0  0  0  0
  4 11  1  0  0  0  0
  4 18  2  0  0  0  0
  5 20  1  0  0  0  0
  6 22  1  0  0  0  0
  7 12  2  0  0  0  0
  7 21  1  0  0  0  0
  8  9  2  0  0  0  0
  8 24  1  0  0  0  0
  9 25  1  0  0  0  0
 10 26  1  0  0  0  0
 11 26  2  0  0  0  0
 12 27  1  0  0  0  0
 13 14  2  0  0  0  0
 13 28  1  0  0  0  0
 14 29  1  0  0  0  0
 15 23  1  0  0  0  0
 15 27  2  0  0  0  0
 16 25  2  0  0  0  0
 16 31  1  0  0  0  0
 17 29  2  0  0  0  0
 17 30  1  0  0  0  0
 18 32  1  0  0  0  0
 19 32  1  0  0  0  0
 19 33  2  0  0  0  0
 19 34  1  0  0  0  0
 20 22  2  0  0  0  0
 20 39  1  0  0  0  0
 21 23  2  0  0  0  0
 21 40  1  0  0  0  0
 22 48  1  0  0  0  0
 23 41  1  0  0  0  0
 24 31  2  0  0  0  0
 24 58  1  0  0  0  0
 25 73  1  0  0  0  0
 26 81  1  0  0  0  0
 27 82  1  0  0  0  0
 28 30  2  0  0  0  0
 28 81  1  0  0  0  0
 29 83  1  0  0  0  0
 30 84  1  0  0  0  0
 31 85  1  0  0  0  0
 32 65  2  0  0  0  0
 33 66  1  0  0  0  0
 33 69  1  0  0  0  0
 34 70  1  0  0  0  0
 34 76  2  0  0  0  0
 35 49  1  0  0  0  0
 35 71  1  0  0  0  0
 35 77  2  0  0  0  0
 36 62  1  0  0  0  0
 36 67  1  0  0  0  0
 36 78  2  0  0  0  0
 37 63  1  0  0  0  0
 37 72  1  0  0  0  0
 37 79  2  0  0  0  0
 38 68  1  0  0  0  0
 38 74  1  0  0  0  0
 38 80  2  0  0  0  0
 39 42  1  0  0  0  0
 40 49  1  0  0  0  0
 41 67  1  0  0  0  0
 42 44  1  0  0  0  0
 43 45  1  0  0  0  0
 43 46  1  0  0  0  0
 44 48  1  0  0  0  0
 45 50  1  0  0  0  0
 46 68  1  0  0  0  0
 47 50  1  0  0  0  0
 47 68  1  0  0  0  0
 48 71  1  0  0  0  0
 49 67  1  0  0  0  0
 50 66  1  0  0  0  0
 51 63  1  0  0  0  0
 52 64  1  0  0  0  0
 53 64  1  0  0  0  0
 54 64  1  0  0  0  0
 55 73  1  0  0  0  0
 56 74  1  0  0  0  0
 57 75  1  0  0  0  0
 58 74  1  0  0  0  0
 59 60  1  0  0  0  0
 59 61  1  0  0  0  0
 60 73  1  0  0  0  0
 61 82  1  0  0  0  0
 62 64  1  0  0  0  0
 62 72  1  0  0  0  0
 63 75  1  0  0  0  0
 65 66  1  0  0  0  0
M  CHG  1  75   1
M  ISO  4  38 100  61 101  74 100  82 101
M  END
> <Batch ID>
0015

> <Smiles>
CNC(C)C(=O)NC(C(=O)N1Cc2cc([101O:1][101CH2:1]CCN(C)c3ccc(C[100N:0](C)[100C:0](=O)N4CCCC(n5nc(-c6ccc(Oc7ccc(F)cc7F)cc6)c(C(N)=O)c5N)C4)c(Cl)c3)ccc2CC1C(=O)NC1CCCc2ccccc21)C(C)(C)C

> <Shape>
0.307

> <Color>
0.193

> <Negative vol penalty>
0.000

$$$$

  -OEChem-04042320543D

 94103  0     1  0  0  0  0  0999 V2000
  -30.7440  -22.0619   15.4783 C   0  0  0  0  0  0  0  0  0  0  0  0
  -30.0618  -21.8760   16.6764 C   0  0  0  0  0  0  0  0  0  0  0  0
  -24.4606   -9.7707   21.5732 C   0  0  0  0  0  0  0  0  0  0  0  0
  -24.8158  -10.9281   23.6640 C   0  0  0  0  0  0  0  0  0  0  0  0
  -31.1910  -23.3336   15.1221 C   0  0  0  0  0  0  0  0  0  0  0  0
  -29.8274  -22.9616   17.5196 C   0  0  0  0  0  0  0  0  0  0  0  0
  -24.9130  -23.8818   21.0563 C   0  0  0  0  0  0  0  0  0  0  0  0
  -28.5040  -23.3089   26.0569 C   0  0  0  0  0  0  0  0  0  0  0  0
  -28.1819  -25.4878   25.0642 C   0  0  0  0  0  0  0  0  0  0  0  0
  -28.9194  -22.8081   24.8232 C   0  0  0  0  0  0  0  0  0  0  0  0
  -28.5973  -24.9871   23.8303 C   0  0  0  0  0  0  0  0  0  0  0  0
  -30.3580  -21.0503   21.6621 C   0  0  0  0  0  0  0  0  0  0  0  0
  -30.2077  -19.7424   21.2013 C   0  0  0  0  0  0  0  0  0  0  0  0
  -24.1124   -8.6149   22.2722 C   0  0  0  0  0  0  0  0  0  0  0  0
  -24.4676   -9.7724   24.3630 C   0  0  0  0  0  0  0  0  0  0  0  0
  -24.6787  -23.6601   22.4127 C   0  0  0  0  0  0  0  0  0  0  0  0
  -21.4105   -7.4151   23.9132 C   0  0  0  0  0  0  0  0  0  0  0  0
  -20.2832   -6.7137   23.4856 C   0  0  0  0  0  0  0  0  0  0  0  0
  -25.2184  -25.9651   22.8765 C   0  0  0  0  0  0  0  0  0  0  0  0
  -27.9592  -21.2550   21.8639 C   0  0  0  0  0  0  0  0  0  0  0  0
  -21.6505   -4.7637   23.0794 C   0  0  0  0  0  0  0  0  0  0  0  0
  -24.8123  -10.9273   22.2691 C   0  0  0  0  0  0  0  0  0  0  0  0
  -24.3113  -13.1512   21.1241 C   0  0  0  0  0  0  0  0  0  0  0  0
  -30.9535  -24.4370   15.9568 C   0  0  0  0  0  0  0  0  0  0  0  0
  -25.3130  -25.1462   20.6005 C   0  0  0  0  0  0  0  0  0  0  0  0
  -30.2729  -24.2490   17.1749 C   0  0  0  0  0  0  0  0  0  0  0  0
  -25.4547  -26.2009   21.5135 C   0  0  0  0  0  0  0  0  0  0  0  0
  -28.1352  -24.6488   26.1775 C   0  0  0  0  0  0  0  0  0  0  0  0
  -28.9661  -23.6472   23.7099 C   0  0  0  0  0  0  0  0  0  0  0  0
  -29.2338  -21.8067   21.9934 C   0  0  0  0  0  0  0  0  0  0  0  0
  -28.9331  -19.1908   21.0717 C   0  0  0  0  0  0  0  0  0  0  0  0
  -24.1159   -8.6157   23.6670 C   0  0  0  0  0  0  0  0  0  0  0  0
  -24.8342  -24.7011   23.3234 C   0  0  0  0  0  0  0  0  0  0  0  0
  -22.6579   -6.7908   23.9239 C   0  0  0  0  0  0  0  0  0  0  0  0
  -20.4032   -5.3881   23.0687 C   0  0  0  0  0  0  0  0  0  0  0  0
  -22.7779   -5.4651   23.5070 C   0  0  0  0  0  0  0  0  0  0  0  0
  -27.8088  -19.9471   21.4030 C   0  0  0  0  0  0  0  0  0  0  0  0
  -25.1726  -12.1214   21.5477 C   0  0  0  0  0  0  0  0  0  0  0  0
  -25.1348  -14.0481   20.4887 C   0  0  0  0  0  0  0  0  0  0  0  0
  -22.8935  -13.2851   21.2904 C   0  0  0  0  0  0  0  0  0  0  0  0
  -27.8863  -26.2878   19.1244 C   0  0  0  0  0  0  0  0  0  0  0  0
  -26.1334  -29.0149   19.0137 C   0  0  0  0  0  0  0  0  0  0  0  0
  -23.6069  -30.8907   20.3347 C   0  0  0  0  0  0  0  0  0  0  0  0
  -29.8502  -16.9984   20.2360 C   0  0  0  0  0  0  0  0  0  0  0  0
  -31.4973  -25.7841   15.5517 C   0  0  0  0  0  0  0  0  0  0  0  0
  -25.5359  -25.3759   19.1308 C   0  0  0  0  0  0  0  0  0  0  0  0
  -25.8625  -27.5821   21.0726 C   0  0  0  0  0  0  0  0  0  0  0  0
  -30.8801  -26.9474   16.3238 C   0  0  0  0  0  0  0  0  0  0  0  0
  -29.9747  -13.6387   19.0639 C   0  0  0  0  0  0  0  0  0  0  0  0
  -30.8444  -26.6379   17.8170 C   0  0  0  0  0  0  0  0  0  0  0  0
  -28.6656  -13.0291   19.5707 C   0  0  0  0  0  0  0  0  0  0  0  0
  -30.5674  -14.6251   20.0685 C   0  0  0  0  0  0  0  0  0  0  0  0
  -28.3411  -15.0707   21.0246 C   0  0  0  0  0  0  0  0  0  0  0  0
  -29.9775  -25.4060   18.1044 C   0  0  1  0  0  0  0  0  0  0  0  0
  -26.4380  -26.5721   18.8430 C   0  0  1  0  0  0  0  0  0  0  0  0
  -27.6726  -14.1194   20.0187 C   0  0  2  0  0  0  0  0  0  0  0  0
  -22.4332  -33.0910   20.0547 C   0  0  0  0  0  0  0  0  0  0  0  0
  -28.4968  -30.4386   20.3166 C   0  0  0  0  0  0  0  0  0  0  0  0
  -26.9594  -32.3356   20.8699 C   0  0  0  0  0  0  0  0  0  0  0  0
  -27.3813  -31.7286   18.4874 C   0  0  0  0  0  0  0  0  0  0  0  0
  -21.0154  -29.5705   19.7870 C   0  0  0  0  0  0  0  0  0  0  0  0
  -26.0836  -26.7794   28.5504 C   0  0  0  0  0  0  0  0  0  0  0  0
  -27.6879  -25.1882   27.5041 C   0  0  0  0  0  0  0  0  0  0  0  0
  -23.9632  -25.1521   26.8608 C   0  0  0  0  0  0  0  0  0  0  0  0
  -30.2847  -24.0231   21.6980 C   0  0  0  0  0  0  0  0  0  0  0  0
  -25.2515  -24.6738   27.5132 C   0  0  0  0  0  0  0  0  0  0  0  0
  -24.1369  -25.5960   25.4135 C   0  0  0  0  0  0  0  0  0  1  0  0
  -31.5357  -24.3982   22.4743 C   0  0  0  0  0  0  0  0  0  0  0  0
  -25.9559  -30.2092   19.9198 C   0  0  1  0  0  0  0  0  0  0  0  0
  -22.4441  -31.6166   19.6824 C   0  0  2  0  0  0  0  0  0  0  0  0
  -27.1925  -31.1516   19.9073 C   0  0  0  0  0  0  0  0  0  0  0  0
  -26.4458  -12.3423   21.2096 N   0  0  0  0  0  0  0  0  0  0  0  0
  -26.3905  -13.5213   20.5668 N   0  0  0  0  0  0  0  0  0  0  0  0
  -26.0751  -27.7550   19.6261 N   0  0  0  0  0  0  0  0  0  0  0  0
  -29.5713  -15.6310   20.4436 N   0  0  0  0  0  0  0  0  0  0  0  0
  -24.9002  -15.2280   19.8762 N   0  0  0  0  0  0  0  0  0  0  0  0
  -22.2016  -12.2720   21.9680 N   0  0  0  0  0  0  0  0  0  0  0  0
  -28.8159  -17.8597   20.6004 N   0  0  0  0  0  0  0  0  0  0  0  0
  -28.5734  -25.7527   18.0515 N   0  0  0  0  0  0  0  0  0  0  0  0
  -24.7114  -30.8510   19.5103 N   0  0  0  0  0  0  0  0  0  0  0  0
  -29.3878  -23.1417   22.4626 N   0  0  0  0  0  0  0  0  0  0  0  0
  -21.1506  -31.0138   20.1119 N   0  3  0  0  0  0  0  0  0  0  0  0
  -26.2819  -25.7379   27.4755 N   0  3  1  0  0  0  0  0  0  0  0  0
  -22.2566  -14.2660   20.8367 O   0  0  0  0  0  0  0  0  0  0  0  0
  -28.3467  -26.5369   20.2324 O   0  0  0  0  0  0  0  0  0  0  0  0
  -26.3099  -29.1931   17.8059 O   0  0  0  0  0  0  0  0  0  0  0  0
  -23.5430  -30.4104   21.4642 O   0  0  0  0  0  0  0  0  0  0  0  0
  -30.9167  -17.3757   19.7439 O   0  0  0  0  0  0  0  0  0  0  0  0
  -23.7760   -7.4882   24.3494 O   0  0  0  0  0  0  0  0  0  0  0  0
  -24.6068  -24.4873   24.6479 O   0  0  0  0  0  0  0  0  0  1  0  0
  -19.3203   -4.7142   22.6596 F   0  0  0  0  0  0  0  0  0  0  0  0
  -23.9733   -4.8597   23.5161 F   0  0  0  0  0  0  0  0  0  0  0  0
  -26.2122  -19.3030   21.2570 Cl  0  0  0  0  0  0  0  0  0  0  0  0
  -32.5932  -25.4683   21.5212 Cl  0  0  0  0  0  0  0  0  0  0  0  0
  1  2  1  0  0  0  0
  1  5  2  0  0  0  0
  2  6  2  0  0  0  0
  3 14  2  0  0  0  0
  3 22  1  0  0  0  0
  4 15  1  0  0  0  0
  4 22  2  0  0  0  0
  5 24  1  0  0  0  0
  6 26  1  0  0  0  0
  7 16  2  0  0  0  0
  7 25  1  0  0  0  0
  8 10  2  0  0  0  0
  8 28  1  0  0  0  0
  9 11  1  0  0  0  0
  9 28  2  0  0  0  0
 10 29  1  0  0  0  0
 11 29  2  0  0  0  0
 12 13  2  0  0  0  0
 12 30  1  0  0  0  0
 13 31  1  0  0  0  0
 14 32  1  0  0  0  0
 15 32  2  0  0  0  0
 16 33  1  0  0  0  0
 17 18  2  0  0  0  0
 17 34  1  0  0  0  0
 18 35  1  0  0  0  0
 19 27  1  0  0  0  0
 19 33  2  0  0  0  0
 20 30  2  0  0  0  0
 20 37  1  0  0  0  0
 21 35  2  0  0  0  0
 21 36  1  0  0  0  0
 22 38  1  0  0  0  0
 23 38  1  0  0  0  0
 23 39  2  0  0  0  0
 23 40  1  0  0  0  0
 24 26  2  0  0  0  0
 24 45  1  0  0  0  0
 25 27  2  0  0  0  0
 25 46  1  0  0  0  0
 26 54  1  0  0  0  0
 27 47  1  0  0  0  0
 28 63  1  0  0  0  0
 29 81  1  0  0  0  0
 30 81  1  0  0  0  0
 31 37  2  0  0  0  0
 31 78  1  0  0  0  0
 32 89  1  0  0  0  0
 33 90  1  0  0  0  0
 34 36  2  0  0  0  0
 34 89  1  0  0  0  0
 35 91  1  0  0  0  0
 36 92  1  0  0  0  0
 37 93  1  0  0  0  0
 38 72  2  0  0  0  0
 39 73  1  0  0  0  0
 39 76  1  0  0  0  0
 40 77  1  0  0  0  0
 40 84  2  0  0  0  0
 41 55  1  0  0  0  0
 41 79  1  0  0  0  0
 41 85  2  0  0  0  0
 42 69  1  0  0  0  0
 42 74  1  0  0  0  0
 42 86  2  0  0  0  0
 43 70  1  0  0  0  0
 43 80  1  0  0  0  0
 43 87  2  0  0  0  0
 44 75  1  0  0  0  0
 44 78  1  0  0  0  0
 44 88  2  0  0  0  0
 45 48  1  0  0  0  0
 46 55  1  0  0  0  0
 47 74  1  0  0  0  0
 48 50  1  0  0  0  0
 49 51  1  0  0  0  0
 49 52  1  0  0  0  0
 50 54  1  0  0  0  0
 51 56  1  0  0  0  0
 52 75  1  0  0  0  0
 53 56  1  0  0  0  0
 53 75  1  0  0  0  0
 54 79  1  0  0  0  0
 55 74  1  0  0  0  0
 56 73  1  0  0  0  0
 57 70  1  0  0  0  0
 58 71  1  0  0  0  0
 59 71  1  0  0  0  0
 60 71  1  0  0  0  0
 61 82  1  0  0  0  0
 62 83  1  0  0  0  0
 63 83  1  0  0  0  0
 64 66  1  0  0  0  0
 64 67  1  0  0  0  0
 65 68  1  0  0  0  0
 65 81  1  0  0  0  0
 66 83  1  0  0  0  0
 67 90  1  0  0  0  0
 68 94  1  0  0  0  0
 69 71  1  0  0  0  0
 69 80  1  0  0  0  0
 70 82  1  0  0  0  0
 72 73  1  0  0  0  0
M  CHG  2  82   1  83   1
M  ISO  4  44 100  67 101  78 100  90 101
M  END
> <Batch ID>
0015

> <Smiles>
CNC(C)C(=O)NC(C(=O)N1Cc2cc([101O:1][101CH2:1]CCN(C)Cc3ccc(N(CCCl)c4ccc([100NH:0][100C:0](=O)N5CCCC(n6nc(-c7ccc(Oc8ccc(F)cc8F)cc7)c(C(N)=O)c6N)C5)c(Cl)c4)cc3)ccc2CC1C(=O)NC1CCCc2ccccc21)C(C)(C)C

> <Shape>
0.245

> <Color>
0.116

> <Negative vol penalty>
0.000

$$$$

  -OEChem-04042320543D

 81 89  0     1  0  0  0  0  0999 V2000
  -22.3915  -28.8478   16.3570 C   0  0  0  0  0  0  0  0  0  0  0  0
  -23.1182  -28.3091   17.4139 C   0  0  0  0  0  0  0  0  0  0  0  0
  -32.3706  -18.5607   22.0128 C   0  0  0  0  0  0  0  0  0  0  0  0
  -23.0723   -9.8713   19.9416 C   0  0  0  0  0  0  0  0  0  0  0  0
  -23.8310   -9.8778   22.2354 C   0  0  0  0  0  0  0  0  0  0  0  0
  -21.4531  -28.0643   15.6866 C   0  0  0  0  0  0  0  0  0  0  0  0
  -22.9060  -26.9866   17.8019 C   0  0  0  0  0  0  0  0  0  0  0  0
  -27.0912  -23.0614   19.9426 C   0  0  0  0  0  0  0  0  0  0  0  0
  -31.8720  -17.3380   21.5633 C   0  0  0  0  0  0  0  0  0  0  0  0
  -31.5877  -19.3746   22.8315 C   0  0  0  0  0  0  0  0  0  0  0  0
  -22.3267   -8.7192   20.1914 C   0  0  0  0  0  0  0  0  0  0  0  0
  -23.0853   -8.7258   22.4853 C   0  0  0  0  0  0  0  0  0  0  0  0
  -27.4281  -22.6622   21.2352 C   0  0  0  0  0  0  0  0  0  0  0  0
  -19.3766   -7.9272   21.6414 C   0  0  0  0  0  0  0  0  0  0  0  0
  -18.0699   -7.8826   21.1555 C   0  0  0  0  0  0  0  0  0  0  0  0
  -26.0004  -20.7315   21.0046 C   0  0  0  0  0  0  0  0  0  0  0  0
  -29.8075  -17.7432   22.7510 C   0  0  0  0  0  0  0  0  0  0  0  0
  -18.6276   -5.9384   19.8340 C   0  0  0  0  0  0  0  0  0  0  0  0
  -23.8245  -10.4506   20.9635 C   0  0  0  0  0  0  0  0  0  0  0  0
  -24.1700  -12.9752   20.8430 C   0  0  0  0  0  0  0  0  0  0  0  0
  -21.2363  -26.7286   16.0603 C   0  0  0  0  0  0  0  0  0  0  0  0
  -26.1963  -22.3032   19.1740 C   0  0  0  0  0  0  0  0  0  0  0  0
  -21.9629  -26.1848   17.1368 C   0  0  0  0  0  0  0  0  0  0  0  0
  -25.6557  -21.1219   19.7016 C   0  0  0  0  0  0  0  0  0  0  0  0
  -30.5905  -16.9293   21.9323 C   0  0  0  0  0  0  0  0  0  0  0  0
  -30.3061  -18.9659   23.2005 C   0  0  0  0  0  0  0  0  0  0  0  0
  -22.3332   -8.1465   21.4633 C   0  0  0  0  0  0  0  0  0  0  0  0
  -26.8805  -21.4986   21.7675 C   0  0  0  0  0  0  0  0  0  0  0  0
  -20.3088   -6.9774   21.2236 C   0  0  0  0  0  0  0  0  0  0  0  0
  -17.6954   -6.8883   20.2518 C   0  0  0  0  0  0  0  0  0  0  0  0
  -19.9343   -5.9830   20.3199 C   0  0  0  0  0  0  0  0  0  0  0  0
  -24.5954  -11.6403   20.7059 C   0  0  0  0  0  0  0  0  0  0  0  0
  -25.2633  -13.7230   20.4801 C   0  0  0  0  0  0  0  0  0  0  0  0
  -22.9000  -13.4929   21.2611 C   0  0  0  0  0  0  0  0  0  0  0  0
  -23.3469  -22.8384   17.8710 C   0  0  0  0  0  0  0  0  0  0  0  0
  -23.8214  -19.9031   16.5745 C   0  0  0  0  0  0  0  0  0  0  0  0
  -25.3850  -16.8749   16.7541 C   0  0  0  0  0  0  0  0  0  0  0  0
  -30.7309  -14.7610   20.6574 C   0  0  0  0  0  0  0  0  0  0  0  0
  -20.1775  -25.9350   15.3365 C   0  0  0  0  0  0  0  0  0  0  0  0
  -25.8638  -22.7332   17.7715 C   0  0  0  0  0  0  0  0  0  0  0  0
  -24.7060  -20.2617   18.9100 C   0  0  0  0  0  0  0  0  0  0  0  0
  -20.2805  -24.4296   15.5672 C   0  0  0  0  0  0  0  0  0  0  0  0
  -29.6144  -12.3481   18.2892 C   0  0  0  0  0  0  0  0  0  0  0  0
  -20.4759  -24.1288   17.0499 C   0  0  0  0  0  0  0  0  0  0  0  0
  -28.1741  -12.0587   18.7181 C   0  0  0  0  0  0  0  0  0  0  0  0
  -30.5292  -12.5760   19.4913 C   0  0  0  0  0  0  0  0  0  0  0  0
  -28.6225  -13.3035   20.8713 C   0  0  0  0  0  0  0  0  0  0  0  0
  -21.7789  -24.7469   17.5711 C   0  0  1  0  0  0  0  0  0  0  0  0
  -24.5434  -22.1587   17.2677 C   0  0  1  0  0  0  0  0  0  0  0  0
  -27.6501  -13.1313   19.6930 C   0  0  2  0  0  0  0  0  0  0  0  0
  -25.5441  -14.6669   15.5722 C   0  0  0  0  0  0  0  0  0  0  0  0
  -21.1136  -19.0948   17.7253 C   0  0  0  0  0  0  0  0  0  0  0  0
  -21.7486  -16.7016   17.3545 C   0  0  0  0  0  0  0  0  0  0  0  0
  -21.5567  -18.2546   15.4118 C   0  0  0  0  0  0  0  0  0  0  0  0
  -30.0410  -21.0671   24.4946 C   0  0  0  0  0  0  0  0  0  0  0  0
  -28.2762  -17.2313   16.2319 C   0  0  0  0  0  0  0  0  0  0  0  0
  -28.1832  -19.3967   24.4121 C   0  0  0  0  0  0  0  0  0  0  0  0
  -27.1982  -19.7054   23.2970 C   0  0  0  0  0  0  0  0  0  1  0  0
  -23.5142  -18.4862   16.9952 C   0  0  1  0  0  0  0  0  0  0  0  0
  -26.1310  -16.0630   15.7106 C   0  0  2  0  0  0  0  0  0  0  0  0
  -21.9996  -18.1513   16.8876 C   0  0  0  0  0  0  0  0  0  0  0  0
  -25.8604  -11.5426   20.2883 N   0  0  0  0  0  0  0  0  0  0  0  0
  -26.2391  -12.8256   20.1598 N   0  0  0  0  0  0  0  0  0  0  0  0
  -24.4068  -20.7276   17.5458 N   0  0  0  0  0  0  0  0  0  0  0  0
  -29.9712  -13.6078   20.3681 N   0  0  0  0  0  0  0  0  0  0  0  0
  -25.4757  -15.0542   20.4068 N   0  0  0  0  0  0  0  0  0  0  0  0
  -21.8866  -12.5852   21.5981 N   0  0  0  0  0  0  0  0  0  0  0  0
  -30.0844  -15.6872   21.4752 N   0  0  0  0  0  0  0  0  0  0  0  0
  -22.9149  -23.9464   17.1673 N   0  0  0  0  0  0  0  0  0  0  0  0
  -24.3750  -17.6258   16.1908 N   0  0  0  0  0  0  0  0  0  0  0  0
  -29.5197  -19.7840   24.0225 N   0  0  3  0  0  0  0  0  0  0  0  0
  -27.5678  -15.9339   16.0847 N   0  3  0  0  0  0  0  0  0  0  0  0
  -22.6654  -14.7239   21.3180 O   0  0  0  0  0  0  0  0  0  0  0  0
  -22.8513  -22.3899   18.8981 O   0  0  0  0  0  0  0  0  0  0  0  0
  -23.5585  -20.2630   15.4243 O   0  0  0  0  0  0  0  0  0  0  0  0
  -25.6674  -16.8431   17.9498 O   0  0  0  0  0  0  0  0  0  0  0  0
  -31.8605  -14.9280   20.1903 O   0  0  0  0  0  0  0  0  0  0  0  0
  -21.6055   -7.0225   21.7075 O   0  0  0  0  0  0  0  0  0  0  0  0
  -27.2072  -21.1070   23.0292 O   0  0  0  0  0  0  0  0  0  1  0  0
  -16.4401   -6.8447   19.7864 F   0  0  0  0  0  0  0  0  0  0  0  0
  -20.8252   -5.0671   19.9158 F   0  0  0  0  0  0  0  0  0  0  0  0
  1  2  1  0  0  0  0
  1  6  2  0  0  0  0
  2  7  2  0  0  0  0
  3  9  1  0  0  0  0
  3 10  2  0  0  0  0
  4 11  2  0  0  0  0
  4 19  1  0  0  0  0
  5 12  1  0  0  0  0
  5 19  2  0  0  0  0
  6 21  1  0  0  0  0
  7 23  1  0  0  0  0
  8 13  2  0  0  0  0
  8 22  1  0  0  0  0
  9 25  2  0  0  0  0
 10 26  1  0  0  0  0
 11 27  1  0  0  0  0
 12 27  2  0  0  0  0
 13 28  1  0  0  0  0
 14 15  2  0  0  0  0
 14 29  1  0  0  0  0
 15 30  1  0  0  0  0
 16 24  1  0  0  0  0
 16 28  2  0  0  0  0
 17 25  1  0  0  0  0
 17 26  2  0  0  0  0
 18 30  2  0  0  0  0
 18 31  1  0  0  0  0
 19 32  1  0  0  0  0
 20 32  1  0  0  0  0
 20 33  2  0  0  0  0
 20 34  1  0  0  0  0
 21 23  2  0  0  0  0
 21 39  1  0  0  0  0
 22 24  2  0  0  0  0
 22 40  1  0  0  0  0
 23 48  1  0  0  0  0
 24 41  1  0  0  0  0
 25 68  1  0  0  0  0
 26 71  1  0  0  0  0
 27 78  1  0  0  0  0
 28 79  1  0  0  0  0
 29 31  2  0  0  0  0
 29 78  1  0  0  0  0
 30 80  1  0  0  0  0
 31 81  1  0  0  0  0
 32 62  2  0  0  0  0
 33 63  1  0  0  0  0
 33 66  1  0  0  0  0
 34 67  1  0  0  0  0
 34 73  2  0  0  0  0
 35 49  1  0  0  0  0
 35 69  1  0  0  0  0
 35 74  2  0  0  0  0
 36 59  1  0  0  0  0
 36 64  1  0  0  0  0
 36 75  2  0  0  0  0
 37 60  1  0  0  0  0
 37 70  1  0  0  0  0
 37 76  2  0  0  0  0
 38 65  1  0  0  0  0
 38 68  1  0  0  0  0
 38 77  2  0  0  0  0
 39 42  1  0  0  0  0
 40 49  1  0  0  0  0
 41 64  1  0  0  0  0
 42 44  1  0  0  0  0
 43 45  1  0  0  0  0
 43 46  1  0  0  0  0
 44 48  1  0  0  0  0
 45 50  1  0  0  0  0
 46 65  1  0  0  0  0
 47 50  1  0  0  0  0
 47 65  1  0  0  0  0
 48 69  1  0  0  0  0
 49 64  1  0  0  0  0
 50 63  1  0  0  0  0
 51 60  1  0  0  0  0
 52 61  1  0  0  0  0
 53 61  1  0  0  0  0
 54 61  1  0  0  0  0
 55 71  1  0  0  0  0
 56 72  1  0  0  0  0
 57 58  1  0  0  0  0
 57 71  1  0  0  0  0
 58 79  1  0  0  0  0
 59 61  1  0  0  0  0
 59 70  1  0  0  0  0
 60 72  1  0  0  0  0
 62 63  1  0  0  0  0
M  CHG  1  72   1
M  ISO  4  38 100  58 101  68 100  79 101
M  END
> <Batch ID>
0015

> <Smiles>
CNC(C)C(=O)NC(C(=O)N1Cc2cc([101O:1][101CH2:1]CN(C)c3cccc([100NH:0][100C:0](=O)N4CCCC(n5nc(-c6ccc(Oc7ccc(F)cc7F)cc6)c(C(N)=O)c5N)C4)c3)ccc2CC1C(=O)NC1CCCc2ccccc21)C(C)(C)C

> <Shape>
0.162

> <Color>
0.200

> <Negative vol penalty>
0.000

$$$$

  -OEChem-04042320543D

 93102  0     1  0  0  0  0  0999 V2000
  -16.3800  -31.6103   21.8231 C   0  0  0  0  0  0  0  0  0  0  0  0
  -17.5150  -32.4138   21.8627 C   0  0  0  0  0  0  0  0  0  0  0  0
  -24.0612   -9.3102   20.0122 C   0  0  0  0  0  0  0  0  0  0  0  0
  -23.0005  -10.0903   22.0379 C   0  0  0  0  0  0  0  0  0  0  0  0
  -16.4329  -30.3064   22.3139 C   0  0  0  0  0  0  0  0  0  0  0  0
  -18.7034  -31.9142   22.3943 C   0  0  0  0  0  0  0  0  0  0  0  0
  -25.8001  -31.4035   19.1689 C   0  0  0  0  0  0  0  0  0  0  0  0
  -25.7006  -18.2300   18.1302 C   0  0  0  0  0  0  0  0  0  0  0  0
  -26.6719  -19.2229   18.0033 C   0  0  0  0  0  0  0  0  0  0  0  0
  -23.3579   -8.1094   20.1063 C   0  0  0  0  0  0  0  0  0  0  0  0
  -22.2971   -8.8895   22.1320 C   0  0  0  0  0  0  0  0  0  0  0  0
  -27.0630  -31.1155   18.6511 C   0  0  0  0  0  0  0  0  0  0  0  0
  -22.9039   -5.7190   23.1374 C   0  0  0  0  0  0  0  0  0  0  0  0
  -22.8445   -5.0988   24.3854 C   0  0  0  0  0  0  0  0  0  0  0  0
  -27.2943  -29.2792   20.2075 C   0  0  0  0  0  0  0  0  0  0  0  0
  -20.4345   -5.2655   24.3536 C   0  0  0  0  0  0  0  0  0  0  0  0
  -23.8826  -10.3007   20.9780 C   0  0  0  0  0  0  0  0  0  0  0  0
  -26.0069  -11.7096   20.8801 C   0  0  0  0  0  0  0  0  0  0  0  0
  -17.6251  -29.7873   22.8429 C   0  0  0  0  0  0  0  0  0  0  0  0
  -25.2724  -30.6198   20.1989 C   0  0  0  0  0  0  0  0  0  0  0  0
  -18.7719  -30.6025   22.8938 C   0  0  0  0  0  0  0  0  0  0  0  0
  -26.0246  -29.5551   20.7218 C   0  0  0  0  0  0  0  0  0  0  0  0
  -25.2776  -17.5203   17.0063 C   0  0  0  0  0  0  0  0  0  0  0  0
  -27.2203  -19.5062   16.7524 C   0  0  0  0  0  0  0  0  0  0  0  0
  -22.4758   -7.8990   21.1662 C   0  0  0  0  0  0  0  0  0  0  0  0
  -27.8084  -30.0562   19.1693 C   0  0  0  0  0  0  0  0  0  0  0  0
  -21.7285   -6.1125   22.4975 C   0  0  0  0  0  0  0  0  0  0  0  0
  -21.6099   -4.8720   24.9935 C   0  0  0  0  0  0  0  0  0  0  0  0
  -20.4939   -5.8857   23.1056 C   0  0  0  0  0  0  0  0  0  0  0  0
  -25.8259  -17.8036   15.7555 C   0  0  0  0  0  0  0  0  0  0  0  0
  -26.7973  -18.7966   15.6285 C   0  0  0  0  0  0  0  0  0  0  0  0
  -24.6093  -11.5411   20.8817 C   0  0  0  0  0  0  0  0  0  0  0  0
  -26.1891  -13.0665   20.7691 C   0  0  0  0  0  0  0  0  0  0  0  0
  -27.0476  -10.7275   20.9709 C   0  0  0  0  0  0  0  0  0  0  0  0
  -29.3001  -25.2700   16.2337 C   0  0  0  0  0  0  0  0  0  0  0  0
  -22.3922  -29.9687   22.5134 C   0  0  0  0  0  0  0  0  0  0  0  0
  -23.4181  -27.2338   21.5762 C   0  0  0  0  0  0  0  0  0  0  0  0
  -24.5768  -24.4492   19.9822 C   0  0  0  0  0  0  0  0  0  0  0  0
  -22.3047  -17.2618   18.5669 C   0  0  0  0  0  0  0  0  0  0  0  0
  -17.6211  -28.3877   23.4048 C   0  0  0  0  0  0  0  0  0  0  0  0
  -23.9421  -30.9316   20.8289 C   0  0  0  0  0  0  0  0  0  0  0  0
  -25.4312  -28.7607   21.8530 C   0  0  0  0  0  0  0  0  0  0  0  0
  -19.0190  -27.8091   23.6086 C   0  0  0  0  0  0  0  0  0  0  0  0
  -24.0953  -17.2348   21.8065 C   0  0  0  0  0  0  0  0  0  0  0  0
  -19.9229  -28.8270   24.2969 C   0  0  0  0  0  0  0  0  0  0  0  0
  -24.4826  -15.7650   21.9607 C   0  0  0  0  0  0  0  0  0  0  0  0
  -27.7092  -23.7403   15.0861 C   0  0  0  0  0  0  0  0  0  0  0  0
  -22.8272  -17.4029   20.9750 C   0  0  0  0  0  0  0  0  0  0  0  0
  -23.2780  -15.2773   19.7948 C   0  0  0  0  0  0  0  0  0  0  0  0
  -27.0198  -22.4339   15.4364 C   0  0  0  0  0  0  0  0  0  0  0  0
  -28.7182  -23.0065   17.0995 C   0  0  0  0  0  0  0  0  0  0  0  0
  -20.0862  -30.0882   23.4401 C   0  0  1  0  0  0  0  0  0  0  0  0
  -28.2125  -24.2634   16.4194 C   0  0  1  0  0  0  0  0  0  0  0  0
  -23.1713  -29.6729   21.2656 C   0  0  1  0  0  0  0  0  0  0  0  0
  -24.5776  -15.0758   20.5884 C   0  0  2  0  0  0  0  0  0  0  0  0
  -24.2426  -21.9650   19.8635 C   0  0  0  0  0  0  0  0  0  0  0  0
  -24.9074  -26.9110   24.2185 C   0  0  0  0  0  0  0  0  0  0  0  0
  -25.3737  -24.5344   23.5838 C   0  0  0  0  0  0  0  0  0  0  0  0
  -23.0200  -25.3052   23.8815 C   0  0  0  0  0  0  0  0  0  0  0  0
  -22.2952  -17.5832   16.1223 C   0  0  0  0  0  0  0  0  0  0  0  0
  -23.8244  -24.5702   17.1224 C   0  0  0  0  0  0  0  0  0  0  0  0
  -24.2384  -16.4596   17.1456 C   0  0  0  0  0  0  0  0  0  0  0  0
  -28.2644  -20.5753   16.6190 C   0  0  0  0  0  0  0  0  0  0  0  0
  -30.3719  -28.1498   17.5025 C   0  0  0  0  0  0  0  0  0  0  0  0
  -30.8991  -26.7217   17.4658 C   0  0  0  0  0  0  0  0  0  0  0  0
  -29.4664  -28.4170   18.6987 C   0  0  0  0  0  0  0  0  0  1  0  0
  -24.3242  -26.0605   21.8515 C   0  0  1  0  0  0  0  0  0  0  0  0
  -23.8518  -23.3144   19.2814 C   0  0  2  0  0  0  0  0  0  0  0  0
  -24.4144  -25.7242   23.3668 C   0  0  0  0  0  0  0  0  0  0  0  0
  -23.9503  -12.6984   20.7799 N   0  0  0  0  0  0  0  0  0  0  0  0
  -24.9382  -13.6071   20.7134 N   0  0  0  0  0  0  0  0  0  0  0  0
  -24.0058  -28.5045   21.5935 N   0  0  0  0  0  0  0  0  0  0  0  0
  -22.9280  -16.7021   19.6943 N   0  0  0  0  0  0  0  0  0  0  0  0
  -27.2956  -13.8379   20.7148 N   0  0  0  0  0  0  0  0  0  0  0  0
  -27.5215  -10.3716   22.2409 N   0  0  0  0  0  0  0  0  0  0  0  0
  -21.0237  -29.8500   22.3636 N   0  0  0  0  0  0  0  0  0  0  0  0
  -29.8421  -25.7498   17.4163 N   0  0  0  0  0  0  0  0  0  0  0  0
  -23.8342  -24.9634   21.0241 N   0  0  0  0  0  0  0  0  0  0  0  0
  -22.8979  -17.0147   17.3196 N   0  0  0  0  0  0  0  0  0  0  0  0
  -27.7016  -21.9579   16.7046 N   0  3  2  0  0  0  0  0  0  0  0  0
  -24.1780  -23.3112   17.8272 N   0  3  0  0  0  0  0  0  0  0  0  0
  -27.5538  -10.1936   19.9549 O   0  0  0  0  0  0  0  0  0  0  0  0
  -29.6346  -25.5960   15.1008 O   0  0  0  0  0  0  0  0  0  0  0  0
  -22.9879  -30.2804   23.5379 O   0  0  0  0  0  0  0  0  0  0  0  0
  -22.2203  -27.0325   21.3571 O   0  0  0  0  0  0  0  0  0  0  0  0
  -25.6920  -24.8380   19.6420 O   0  0  0  0  0  0  0  0  0  0  0  0
  -21.2822  -17.9514   18.6704 O   0  0  0  0  0  0  0  0  0  0  0  0
  -21.7891   -6.7274   21.2582 O   0  0  0  0  0  0  0  0  0  0  0  0
  -29.0387  -29.7777   18.6561 O   0  0  0  0  0  0  0  0  0  1  0  0
  -21.5529   -4.2750   26.1912 F   0  0  0  0  0  0  0  0  0  0  0  0
  -19.3612   -6.2605   22.4952 F   0  0  0  0  0  0  0  0  0  0  0  0
  -25.4246  -17.1281   14.6696 F   0  0  0  0  0  0  0  0  0  0  0  0
  -27.3175  -19.0628   14.4222 F   0  0  0  0  0  0  0  0  0  0  0  0
  1  2  1  0  0  0  0
  1  5  2  0  0  0  0
  2  6  2  0  0  0  0
  3 10  2  0  0  0  0
  3 17  1  0  0  0  0
  4 11  1  0  0  0  0
  4 17  2  0  0  0  0
  5 19  1  0  0  0  0
  6 21  1  0  0  0  0
  7 12  2  0  0  0  0
  7 20  1  0  0  0  0
  8  9  2  0  0  0  0
  8 23  1  0  0  0  0
  9 24  1  0  0  0  0
 10 25  1  0  0  0  0
 11 25  2  0  0  0  0
 12 26  1  0  0  0  0
 13 14  2  0  0  0  0
 13 27  1  0  0  0  0
 14 28  1  0  0  0  0
 15 22  1  0  0  0  0
 15 26  2  0  0  0  0
 16 28  2  0  0  0  0
 16 29  1  0  0  0  0
 17 32  1  0  0  0  0
 18 32  1  0  0  0  0
 18 33  2  0  0  0  0
 18 34  1  0  0  0  0
 19 21  2  0  0  0  0
 19 40  1  0  0  0  0
 20 22  2  0  0  0  0
 20 41  1  0  0  0  0
 21 52  1  0  0  0  0
 22 42  1  0  0  0  0
 23 30  2  0  0  0  0
 23 62  1  0  0  0  0
 24 31  2  0  0  0  0
 24 63  1  0  0  0  0
 25 88  1  0  0  0  0
 26 89  1  0  0  0  0
 27 29  2  0  0  0  0
 27 88  1  0  0  0  0
 28 90  1  0  0  0  0
 29 91  1  0  0  0  0
 30 31  1  0  0  0  0
 30 92  1  0  0  0  0
 31 93  1  0  0  0  0
 32 70  2  0  0  0  0
 33 71  1  0  0  0  0
 33 74  1  0  0  0  0
 34 75  1  0  0  0  0
 34 82  2  0  0  0  0
 35 53  1  0  0  0  0
 35 77  1  0  0  0  0
 35 83  2  0  0  0  0
 36 54  1  0  0  0  0
 36 76  1  0  0  0  0
 36 84  2  0  0  0  0
 37 67  1  0  0  0  0
 37 72  1  0  0  0  0
 37 85  2  0  0  0  0
 38 68  1  0  0  0  0
 38 78  1  0  0  0  0
 38 86  2  0  0  0  0
 39 73  1  0  0  0  0
 39 79  1  0  0  0  0
 39 87  2  0  0  0  0
 40 43  1  0  0  0  0
 41 54  1  0  0  0  0
 42 72  1  0  0  0  0
 43 45  1  0  0  0  0
 44 46  1  0  0  0  0
 44 48  1  0  0  0  0
 45 52  1  0  0  0  0
 46 55  1  0  0  0  0
 47 50  1  0  0  0  0
 47 53  1  0  0  0  0
 48 73  1  0  0  0  0
 49 55  1  0  0  0  0
 49 73  1  0  0  0  0
 50 80  1  0  0  0  0
 51 53  1  0  0  0  0
 51 80  1  0  0  0  0
 52 76  1  0  0  0  0
 54 72  1  0  0  0  0
 55 71  1  0  0  0  0
 56 68  1  0  0  0  0
 57 69  1  0  0  0  0
 58 69  1  0  0  0  0
 59 69  1  0  0  0  0
 60 79  1  0  0  0  0
 61 81  1  0  0  0  0
 62 79  1  0  0  0  0
 63 80  1  0  0  0  0
 64 65  1  0  0  0  0
 64 66  1  0  0  0  0
 65 77  1  0  0  0  0
 66 89  1  0  0  0  0
 67 69  1  0  0  0  0
 67 78  1  0  0  0  0
 68 81  1  0  0  0  0
 70 71  1  0  0  0  0
M  CHG  2  80   1  81   1
M  ISO  4  39 100  66 101  79 100  89 101
M  END
> <Batch ID>
0015

> <Smiles>
CNC(C)C(=O)NC(C(=O)N1Cc2cc([101O:1][101CH2:1]CCNC(=O)C3CCN(Cc4ccc(C[100N:0](C)[100C:0](=O)N5CCCC(n6nc(-c7ccc(Oc8ccc(F)cc8F)cc7)c(C(N)=O)c6N)C5)c(F)c4F)C3)ccc2CC1C(=O)NC1CCCc2ccccc21)C(C)(C)C

> <Shape>
0.205

> <Color>
0.111

> <Negative vol penalty>
0.000

$$$$

  -OEChem-04042320543D

 85 93  0     1  0  0  0  0  0999 V2000
  -17.0913  -26.8477   21.8839 C   0  0  0  0  0  0  0  0  0  0  0  0
  -18.3061  -26.1824   22.0147 C   0  0  0  0  0  0  0  0  0  0  0  0
  -23.9201   -9.6808   19.8085 C   0  0  0  0  0  0  0  0  0  0  0  0
  -24.6170   -9.7708   22.1200 C   0  0  0  0  0  0  0  0  0  0  0  0
  -17.0671  -28.1749   21.4573 C   0  0  0  0  0  0  0  0  0  0  0  0
  -19.4974  -26.8436   21.7179 C   0  0  0  0  0  0  0  0  0  0  0  0
  -24.9048  -26.1129   24.4984 C   0  0  0  0  0  0  0  0  0  0  0  0
  -29.0262  -17.6563   21.5238 C   0  0  0  0  0  0  0  0  0  0  0  0
  -29.0004  -19.0508   21.5334 C   0  0  0  0  0  0  0  0  0  0  0  0
  -23.6403   -8.3212   19.9457 C   0  0  0  0  0  0  0  0  0  0  0  0
  -24.3372   -8.4112   22.2573 C   0  0  0  0  0  0  0  0  0  0  0  0
  -26.0378  -25.3714   24.1662 C   0  0  0  0  0  0  0  0  0  0  0  0
  -21.6104   -6.4623   22.6895 C   0  0  0  0  0  0  0  0  0  0  0  0
  -20.9137   -6.0573   23.8280 C   0  0  0  0  0  0  0  0  0  0  0  0
  -27.0219  -27.3341   23.1669 C   0  0  0  0  0  0  0  0  0  0  0  0
  -22.7664   -4.6402   24.4575 C   0  0  0  0  0  0  0  0  0  0  0  0
  -24.4085  -10.4056   20.8956 C   0  0  0  0  0  0  0  0  0  0  0  0
  -23.8186  -12.8861   20.9777 C   0  0  0  0  0  0  0  0  0  0  0  0
  -18.2593  -28.8557   21.1644 C   0  0  0  0  0  0  0  0  0  0  0  0
  -24.8172  -27.4702   24.1571 C   0  0  0  0  0  0  0  0  0  0  0  0
  -19.4890  -28.1807   21.2857 C   0  0  0  0  0  0  0  0  0  0  0  0
  -25.8879  -28.0912   23.4982 C   0  0  0  0  0  0  0  0  0  0  0  0
  -29.2744  -16.9551   22.7039 C   0  0  0  0  0  0  0  0  0  0  0  0
  -29.2229  -19.7443   22.7230 C   0  0  0  0  0  0  0  0  0  0  0  0
  -23.8488   -7.6864   21.1701 C   0  0  0  0  0  0  0  0  0  0  0  0
  -27.0953  -25.9812   23.4978 C   0  0  0  0  0  0  0  0  0  0  0  0
  -22.8850   -5.9562   22.4349 C   0  0  0  0  0  0  0  0  0  0  0  0
  -21.4917   -5.1463   24.7120 C   0  0  0  0  0  0  0  0  0  0  0  0
  -23.4630   -5.0452   23.3189 C   0  0  0  0  0  0  0  0  0  0  0  0
  -29.4969  -17.6486   23.8935 C   0  0  0  0  0  0  0  0  0  0  0  0
  -29.4711  -19.0432   23.9031 C   0  0  0  0  0  0  0  0  0  0  0  0
  -24.6982  -11.8099   20.7543 C   0  0  0  0  0  0  0  0  0  0  0  0
  -24.5692  -14.0045   20.7088 C   0  0  0  0  0  0  0  0  0  0  0  0
  -22.4459  -12.8757   21.3915 C   0  0  0  0  0  0  0  0  0  0  0  0
  -22.8874  -29.2005   22.3170 C   0  0  0  0  0  0  0  0  0  0  0  0
  -24.5707  -31.6815   23.5553 C   0  0  0  0  0  0  0  0  0  0  0  0
  -27.4569  -32.7902   25.0001 C   0  0  0  0  0  0  0  0  0  0  0  0
  -30.6672  -14.5968   20.7447 C   0  0  0  0  0  0  0  0  0  0  0  0
  -18.1799  -30.2753   20.6613 C   0  0  0  0  0  0  0  0  0  0  0  0
  -23.5995  -28.2627   24.5463 C   0  0  0  0  0  0  0  0  0  0  0  0
  -25.8518  -29.5505   23.1273 C   0  0  0  0  0  0  0  0  0  0  0  0
  -19.5108  -31.0200   20.7266 C   0  0  0  0  0  0  0  0  0  0  0  0
  -28.2658  -15.5043   18.0780 C   0  0  0  0  0  0  0  0  0  0  0  0
  -20.6358  -30.1525   20.1709 C   0  0  0  0  0  0  0  0  0  0  0  0
  -27.0292  -14.6886   18.4517 C   0  0  0  0  0  0  0  0  0  0  0  0
  -29.5515  -14.8365   18.5563 C   0  0  0  0  0  0  0  0  0  0  0  0
  -28.3268  -13.7100   20.3853 C   0  0  0  0  0  0  0  0  0  0  0  0
  -20.8041  -28.8716   20.9971 C   0  0  1  0  0  0  0  0  0  0  0  0
  -23.4023  -29.5124   23.6937 C   0  0  1  0  0  0  0  0  0  0  0  0
  -27.0114  -14.3785   19.9586 C   0  0  2  0  0  0  0  0  0  0  0  0
  -28.5524  -34.8760   25.8642 C   0  0  0  0  0  0  0  0  0  0  0  0
  -25.1120  -32.5812   20.6904 C   0  0  0  0  0  0  0  0  0  0  0  0
  -26.9396  -34.0487   21.5705 C   0  0  0  0  0  0  0  0  0  0  0  0
  -24.5804  -34.4346   22.2831 C   0  0  0  0  0  0  0  0  0  0  0  0
  -31.7208  -15.0458   22.9282 C   0  0  0  0  0  0  0  0  0  0  0  0
  -27.6728  -31.6825   27.7360 C   0  0  0  0  0  0  0  0  0  0  0  0
  -29.3013  -15.4640   22.6901 C   0  0  0  0  0  0  0  0  0  0  0  0
  -29.0480  -23.4171   21.8878 C   0  0  0  0  0  0  0  0  0  0  0  0
  -28.9483  -21.9329   21.5568 C   0  0  0  0  0  0  0  0  0  0  0  0
  -28.0180  -23.8677   22.9169 C   0  0  0  0  0  0  0  0  0  1  0  0
  -25.8281  -32.4206   23.1658 C   0  0  1  0  0  0  0  0  0  0  0  0
  -27.7033  -33.6645   26.2163 C   0  0  2  0  0  0  0  0  0  0  0  0
  -25.6152  -33.3433   21.9326 C   0  0  0  0  0  0  0  0  0  0  0  0
  -25.9145  -12.2088   20.3726 N   0  0  0  0  0  0  0  0  0  0  0  0
  -25.8045  -13.5481   20.3540 N   0  0  0  0  0  0  0  0  0  0  0  0
  -24.6368  -30.2814   23.5239 N   0  0  0  0  0  0  0  0  0  0  0  0
  -29.4906  -14.5136   19.9822 N   0  0  0  0  0  0  0  0  0  0  0  0
  -24.2863  -15.3241   20.7434 N   0  0  0  0  0  0  0  0  0  0  0  0
  -21.8279  -11.6397   21.6252 N   0  0  0  0  0  0  0  0  0  0  0  0
  -29.1970  -21.1302   22.7298 N   0  0  0  0  0  0  0  0  0  0  0  0
  -21.5092  -29.1537   22.2290 N   0  0  0  0  0  0  0  0  0  0  0  0
  -26.2785  -33.1197   24.3644 N   0  0  0  0  0  0  0  0  0  0  0  0
  -30.5290  -14.9359   22.0991 N   0  0  0  0  0  0  0  0  0  0  0  0
  -28.4070  -32.8898   27.2773 N   0  3  0  0  0  0  0  0  0  0  0  0
  -21.7822  -13.9306   21.5335 O   0  0  0  0  0  0  0  0  0  0  0  0
  -23.6818  -29.0173   21.4021 O   0  0  0  0  0  0  0  0  0  0  0  0
  -23.5690  -32.3228   23.8825 O   0  0  0  0  0  0  0  0  0  0  0  0
  -28.2341  -31.9060   24.6469 O   0  0  0  0  0  0  0  0  0  0  0  0
  -31.7787  -14.3896   20.2411 O   0  0  0  0  0  0  0  0  0  0  0  0
  -23.5757   -6.3598   21.3045 O   0  0  0  0  0  0  0  0  0  0  0  0
  -28.2021  -25.2596   23.1718 O   0  0  0  0  0  0  0  0  0  1  0  0
  -20.8233   -4.7587   25.8061 F   0  0  0  0  0  0  0  0  0  0  0  0
  -24.6878   -4.5564   23.0803 F   0  0  0  0  0  0  0  0  0  0  0  0
  -29.7361  -16.9835   25.0323 F   0  0  0  0  0  0  0  0  0  0  0  0
  -29.6858  -19.6997   25.0521 F   0  0  0  0  0  0  0  0  0  0  0  0
  1  2  1  0  0  0  0
  1  5  2  0  0  0  0
  2  6  2  0  0  0  0
  3 10  2  0  0  0  0
  3 17  1  0  0  0  0
  4 11  1  0  0  0  0
  4 17  2  0  0  0  0
  5 19  1  0  0  0  0
  6 21  1  0  0  0  0
  7 12  2  0  0  0  0
  7 20  1  0  0  0  0
  8  9  2  0  0  0  0
  8 23  1  0  0  0  0
  9 24  1  0  0  0  0
 10 25  1  0  0  0  0
 11 25  2  0  0  0  0
 12 26  1  0  0  0  0
 13 14  2  0  0  0  0
 13 27  1  0  0  0  0
 14 28  1  0  0  0  0
 15 22  1  0  0  0  0
 15 26  2  0  0  0  0
 16 28  2  0  0  0  0
 16 29  1  0  0  0  0
 17 32  1  0  0  0  0
 18 32  1  0  0  0  0
 18 33  2  0  0  0  0
 18 34  1  0  0  0  0
 19 21  2  0  0  0  0
 19 39  1  0  0  0  0
 20 22  2  0  0  0  0
 20 40  1  0  0  0  0
 21 48  1  0  0  0  0
 22 41  1  0  0  0  0
 23 30  2  0  0  0  0
 23 57  1  0  0  0  0
 24 31  2  0  0  0  0
 24 70  1  0  0  0  0
 25 80  1  0  0  0  0
 26 81  1  0  0  0  0
 27 29  2  0  0  0  0
 27 80  1  0  0  0  0
 28 82  1  0  0  0  0
 29 83  1  0  0  0  0
 30 31  1  0  0  0  0
 30 84  1  0  0  0  0
 31 85  1  0  0  0  0
 32 64  2  0  0  0  0
 33 65  1  0  0  0  0
 33 68  1  0  0  0  0
 34 69  1  0  0  0  0
 34 75  2  0  0  0  0
 35 49  1  0  0  0  0
 35 71  1  0  0  0  0
 35 76  2  0  0  0  0
 36 61  1  0  0  0  0
 36 66  1  0  0  0  0
 36 77  2  0  0  0  0
 37 62  1  0  0  0  0
 37 72  1  0  0  0  0
 37 78  2  0  0  0  0
 38 67  1  0  0  0  0
 38 73  1  0  0  0  0
 38 79  2  0  0  0  0
 39 42  1  0  0  0  0
 40 49  1  0  0  0  0
 41 66  1  0  0  0  0
 42 44  1  0  0  0  0
 43 45  1  0  0  0  0
 43 46  1  0  0  0  0
 44 48  1  0  0  0  0
 45 50  1  0  0  0  0
 46 67  1  0  0  0  0
 47 50  1  0  0  0  0
 47 67  1  0  0  0  0
 48 71  1  0  0  0  0
 49 66  1  0  0  0  0
 50 65  1  0  0  0  0
 51 62  1  0  0  0  0
 52 63  1  0  0  0  0
 53 63  1  0  0  0  0
 54 63  1  0  0  0  0
 55 73  1  0  0  0  0
 56 74  1  0  0  0  0
 57 73  1  0  0  0  0
 58 59  1  0  0  0  0
 58 60  1  0  0  0  0
 59 70  1  0  0  0  0
 60 81  1  0  0  0  0
 61 63  1  0  0  0  0
 61 72  1  0  0  0  0
 62 74  1  0  0  0  0
 64 65  1  0  0  0  0
M  CHG  1  74   1
M  ISO  4  38 100  60 101  73 100  81 101
M  END
> <Batch ID>
0015

> <Smiles>
CNC(C)C(=O)NC(C(=O)N1Cc2cc([101O:1][101CH2:1]CCNc3ccc(C[100N:0](C)[100C:0](=O)N4CCCC(n5nc(-c6ccc(Oc7ccc(F)cc7F)cc6)c(C(N)=O)c5N)C4)c(F)c3F)ccc2CC1C(=O)NC1CCCc2ccccc21)C(C)(C)C

> <Shape>
0.299

> <Color>
0.145

> <Negative vol penalty>
0.000

$$$$

  -OEChem-04042320543D

 86 95  0     1  0  0  0  0  0999 V2000
  -16.4768  -28.8533   23.3052 C   0  0  0  0  0  0  0  0  0  0  0  0
  -17.3393  -28.4709   22.2828 C   0  0  0  0  0  0  0  0  0  0  0  0
  -25.5942  -12.7123   22.0756 C   0  0  0  0  0  0  0  0  0  0  0  0
  -25.6300  -13.6791   19.8617 C   0  0  0  0  0  0  0  0  0  0  0  0
  -16.9091  -29.7499   24.2816 C   0  0  0  0  0  0  0  0  0  0  0  0
  -18.6344  -28.9859   22.2356 C   0  0  0  0  0  0  0  0  0  0  0  0
  -23.6793  -26.0916   20.3179 C   0  0  0  0  0  0  0  0  0  0  0  0
  -24.6296  -11.7948   21.6593 C   0  0  0  0  0  0  0  0  0  0  0  0
  -24.6654  -12.7615   19.4454 C   0  0  0  0  0  0  0  0  0  0  0  0
  -24.3676  -26.1098   19.1056 C   0  0  0  0  0  0  0  0  0  0  0  0
  -24.5330   -8.9048   19.9068 C   0  0  0  0  0  0  0  0  0  0  0  0
  -24.7036   -7.5713   20.2786 C   0  0  0  0  0  0  0  0  0  0  0  0
  -25.8769  -27.7685   19.9942 C   0  0  0  0  0  0  0  0  0  0  0  0
  -28.1413  -23.0681   20.6063 C   0  0  0  0  0  0  0  0  0  0  0  0
  -28.0826  -22.5317   17.8692 C   0  0  0  0  0  0  0  0  0  0  0  0
  -22.5932   -7.6289   21.4534 C   0  0  0  0  0  0  0  0  0  0  0  0
  -26.0944  -13.6545   21.1768 C   0  0  0  0  0  0  0  0  0  0  0  0
  -28.4887  -14.4468   21.5605 C   0  0  0  0  0  0  0  0  0  0  0  0
  -18.2132  -30.2686   24.2517 C   0  0  0  0  0  0  0  0  0  0  0  0
  -24.0787  -26.9211   21.3756 C   0  0  0  0  0  0  0  0  0  0  0  0
  -19.0840  -29.8913   23.2117 C   0  0  0  0  0  0  0  0  0  0  0  0
  -25.1936  -27.7571   21.2198 C   0  0  0  0  0  0  0  0  0  0  0  0
  -28.7637  -23.9385   19.7115 C   0  0  0  0  0  0  0  0  0  0  0  0
  -28.7343  -23.6703   18.3430 C   0  0  0  0  0  0  0  0  0  0  0  0
  -27.4897  -21.9294   20.1326 C   0  0  0  0  0  0  0  0  0  0  0  0
  -24.1653  -11.8193   20.3443 C   0  0  0  0  0  0  0  0  0  0  0  0
  -25.4647  -26.9505   18.9426 C   0  0  0  0  0  0  0  0  0  0  0  0
  -23.3925   -9.6004   20.3083 C   0  0  0  0  0  0  0  0  0  0  0  0
  -23.7337   -6.9333   21.0519 C   0  0  0  0  0  0  0  0  0  0  0  0
  -27.4603  -21.6612   18.7641 C   0  0  0  0  0  0  0  0  0  0  0  0
  -22.4226   -8.9624   21.0816 C   0  0  0  0  0  0  0  0  0  0  0  0
  -27.0904  -14.6030   21.6063 C   0  0  0  0  0  0  0  0  0  0  0  0
  -28.9823  -15.6188   22.0793 C   0  0  0  0  0  0  0  0  0  0  0  0
  -29.2714  -13.3411   21.0908 C   0  0  0  0  0  0  0  0  0  0  0  0
  -22.7243  -29.2942   22.9998 C   0  0  0  0  0  0  0  0  0  0  0  0
  -25.4101  -29.0715   24.8050 C   0  0  0  0  0  0  0  0  0  0  0  0
  -28.6828  -28.1293   25.0257 C   0  0  0  0  0  0  0  0  0  0  0  0
  -26.7948  -21.1682   22.4313 C   0  0  0  0  0  0  0  0  0  0  0  0
  -18.6198  -31.2714   25.3023 C   0  0  0  0  0  0  0  0  0  0  0  0
  -23.3420  -26.8701   22.6860 C   0  0  0  0  0  0  0  0  0  0  0  0
  -25.6751  -28.6522   22.3313 C   0  0  0  0  0  0  0  0  0  0  0  0
  -20.1291  -31.4816   25.3919 C   0  0  0  0  0  0  0  0  0  0  0  0
  -27.8599  -19.1231   25.1443 C   0  0  0  0  0  0  0  0  0  0  0  0
  -28.4702  -27.8742   15.9095 C   0  0  0  0  0  0  0  0  0  0  0  0
  -20.7270  -31.6591   23.9998 C   0  0  0  0  0  0  0  0  0  0  0  0
  -27.9166  -17.7186   24.5391 C   0  0  0  0  0  0  0  0  0  0  0  0
  -27.5808  -26.8668   15.2033 C   0  0  0  0  0  0  0  0  0  0  0  0
  -26.6922  -19.9346   24.5860 C   0  0  0  0  0  0  0  0  0  0  0  0
  -26.6858  -18.5998   22.5153 C   0  0  0  0  0  0  0  0  0  0  0  0
  -29.4760  -26.9957   16.6187 C   0  0  0  0  0  0  0  0  0  0  0  0
  -20.5043  -30.4089   23.1402 C   0  0  1  0  0  0  0  0  0  0  0  0
  -23.5223  -28.1332   23.5223 C   0  0  1  0  0  0  0  0  0  0  0  0
  -27.8842  -17.7669   22.9989 C   0  0  2  0  0  0  0  0  0  0  0  0
  -27.4405  -25.7061   16.1879 C   0  0  2  0  0  0  0  0  0  0  0  0
  -29.4556  -25.1512   20.2418 C   0  0  0  0  0  0  0  0  0  0  0  0
  -30.6238  -28.1085   26.6161 C   0  0  0  0  0  0  0  0  0  0  0  0
  -25.8189  -32.0594   24.3414 C   0  0  0  0  0  0  0  0  0  0  0  0
  -28.1853  -31.7843   25.1115 C   0  0  0  0  0  0  0  0  0  0  0  0
  -26.3024  -31.2895   26.6712 C   0  0  0  0  0  0  0  0  0  0  0  0
  -28.8604  -25.1760   24.9527 C   0  0  0  0  0  0  0  0  0  0  0  0
  -29.3966  -24.5915   17.3613 C   0  0  0  0  0  0  0  0  0  0  0  0
  -26.1559  -25.7617   17.0022 C   0  0  0  0  0  0  0  0  0  1  0  0
  -26.7815  -29.7012   24.7634 C   0  0  1  0  0  0  0  0  0  0  0  0
  -29.4327  -27.3316   26.0772 C   0  0  2  0  0  0  0  0  0  0  0  0
  -26.7620  -31.1933   25.2001 C   0  0  0  0  0  0  0  0  0  0  0  0
  -26.7196  -15.7813   22.1143 N   0  0  0  0  0  0  0  0  0  0  0  0
  -27.8921  -16.3761   22.3925 N   0  0  0  0  0  0  0  0  0  0  0  0
  -24.9179  -28.5710   23.5913 N   0  0  0  0  0  0  0  0  0  0  0  0
  -26.7289  -19.9396   23.1219 N   0  0  0  0  0  0  0  0  0  0  0  0
  -30.2382  -16.0651   22.2937 N   0  0  0  0  0  0  0  0  0  0  0  0
  -28.6041  -12.2154   20.5892 N   0  0  0  0  0  0  0  0  0  0  0  0
  -26.8579  -21.0469   21.0435 N   0  0  0  0  0  0  0  0  0  0  0  0
  -21.4414  -29.3692   23.5079 N   0  0  0  0  0  0  0  0  0  0  0  0
  -27.6455  -28.8519   25.5762 N   0  0  0  0  0  0  0  0  0  0  0  0
  -28.6294  -25.8554   17.1339 N   0  3  1  0  0  0  0  0  0  0  0  0
  -29.9294  -26.0509   25.4993 N   0  3  0  0  0  0  0  0  0  0  0  0
  -30.5252  -13.3446   21.1304 O   0  0  0  0  0  0  0  0  0  0  0  0
  -23.2351  -30.0656   22.1963 O   0  0  0  0  0  0  0  0  0  0  0  0
  -24.8011  -29.0190   25.8765 O   0  0  0  0  0  0  0  0  0  0  0  0
  -28.9891  -28.1159   23.8355 O   0  0  0  0  0  0  0  0  0  0  0  0
  -26.8227  -22.2475   23.0282 O   0  0  0  0  0  0  0  0  0  0  0  0
  -23.2242  -10.9240   19.9377 O   0  0  0  0  0  0  0  0  0  0  0  0
  -26.1379  -26.9707   17.7601 O   0  0  0  0  0  0  0  0  0  1  0  0
  -23.8970   -5.6523   21.4076 F   0  0  0  0  0  0  0  0  0  0  0  0
  -26.8366  -20.5700   18.2975 F   0  0  0  0  0  0  0  0  0  0  0  0
  -21.3243   -9.6251   21.4693 F   0  0  0  0  0  0  0  0  0  0  0  0
  1  2  1  0  0  0  0
  1  5  2  0  0  0  0
  2  6  2  0  0  0  0
  3  8  2  0  0  0  0
  3 17  1  0  0  0  0
  4  9  1  0  0  0  0
  4 17  2  0  0  0  0
  5 19  1  0  0  0  0
  6 21  1  0  0  0  0
  7 10  2  0  0  0  0
  7 20  1  0  0  0  0
  8 26  1  0  0  0  0
  9 26  2  0  0  0  0
 10 27  1  0  0  0  0
 11 12  2  0  0  0  0
 11 28  1  0  0  0  0
 12 29  1  0  0  0  0
 13 22  1  0  0  0  0
 13 27  2  0  0  0  0
 14 23  1  0  0  0  0
 14 25  2  0  0  0  0
 15 24  1  0  0  0  0
 15 30  2  0  0  0  0
 16 29  2  0  0  0  0
 16 31  1  0  0  0  0
 17 32  1  0  0  0  0
 18 32  1  0  0  0  0
 18 33  2  0  0  0  0
 18 34  1  0  0  0  0
 19 21  2  0  0  0  0
 19 39  1  0  0  0  0
 20 22  2  0  0  0  0
 20 40  1  0  0  0  0
 21 51  1  0  0  0  0
 22 41  1  0  0  0  0
 23 24  2  0  0  0  0
 23 55  1  0  0  0  0
 24 61  1  0  0  0  0
 25 30  1  0  0  0  0
 25 72  1  0  0  0  0
 26 82  1  0  0  0  0
 27 83  1  0  0  0  0
 28 31  2  0  0  0  0
 28 82  1  0  0  0  0
 29 84  1  0  0  0  0
 30 85  1  0  0  0  0
 31 86  1  0  0  0  0
 32 66  2  0  0  0  0
 33 67  1  0  0  0  0
 33 70  1  0  0  0  0
 34 71  1  0  0  0  0
 34 77  2  0  0  0  0
 35 52  1  0  0  0  0
 35 73  1  0  0  0  0
 35 78  2  0  0  0  0
 36 63  1  0  0  0  0
 36 68  1  0  0  0  0
 36 79  2  0  0  0  0
 37 64  1  0  0  0  0
 37 74  1  0  0  0  0
 37 80  2  0  0  0  0
 38 69  1  0  0  0  0
 38 72  1  0  0  0  0
 38 81  2  0  0  0  0
 39 42  1  0  0  0  0
 40 52  1  0  0  0  0
 41 68  1  0  0  0  0
 42 45  1  0  0  0  0
 43 46  1  0  0  0  0
 43 48  1  0  0  0  0
 44 47  1  0  0  0  0
 44 50  1  0  0  0  0
 45 51  1  0  0  0  0
 46 53  1  0  0  0  0
 47 54  1  0  0  0  0
 48 69  1  0  0  0  0
 49 53  1  0  0  0  0
 49 69  1  0  0  0  0
 50 75  1  0  0  0  0
 51 73  1  0  0  0  0
 52 68  1  0  0  0  0
 53 67  1  0  0  0  0
 54 62  1  0  0  0  0
 54 75  1  0  0  0  0
 56 64  1  0  0  0  0
 57 65  1  0  0  0  0
 58 65  1  0  0  0  0
 59 65  1  0  0  0  0
 60 76  1  0  0  0  0
 61 75  1  0  0  0  0
 62 83  1  0  0  0  0
 63 65  1  0  0  0  0
 63 74  1  0  0  0  0
 64 76  1  0  0  0  0
 66 67  1  0  0  0  0
M  CHG  2  75   1  76   1
M  ISO  4  38 100  62 101  72 100  83 101
M  END
> <Batch ID>
0015

> <Smiles>
CNC(C)C(=O)NC(C(=O)N1Cc2cc([101O:1][101CH2:1]C3CCCN3Cc3cc(F)c([100NH:0][100C:0](=O)N4CCCC(n5nc(-c6ccc(Oc7ccc(F)cc7F)cc6)c(C(N)=O)c5N)C4)cc3C)ccc2CC1C(=O)NC1CCCc2ccccc21)C(C)(C)C

> <Shape>
0.256

> <Color>
0.066

> <Negative vol penalty>
0.000

$$$$

  -OEChem-04042320543D

 90 99  0     1  0  0  0  0  0999 V2000
  -17.5539  -26.5620   22.5444 C   0  0  0  0  0  0  0  0  0  0  0  0
  -18.6252  -26.6244   21.6590 C   0  0  0  0  0  0  0  0  0  0  0  0
  -26.1002  -13.1318   19.5655 C   0  0  0  0  0  0  0  0  0  0  0  0
  -25.4056  -13.2673   21.8755 C   0  0  0  0  0  0  0  0  0  0  0  0
  -17.5715  -27.3226   23.7127 C   0  0  0  0  0  0  0  0  0  0  0  0
  -19.7142  -27.4484   21.9410 C   0  0  0  0  0  0  0  0  0  0  0  0
  -25.5912  -26.3713   20.5969 C   0  0  0  0  0  0  0  0  0  0  0  0
  -29.9366  -22.1871   19.8279 C   0  0  0  0  0  0  0  0  0  0  0  0
  -29.1870  -21.6678   17.5905 C   0  0  0  0  0  0  0  0  0  0  0  0
  -30.9086  -23.0395   19.3044 C   0  0  0  0  0  0  0  0  0  0  0  0
  -30.1590  -22.5203   17.0670 C   0  0  0  0  0  0  0  0  0  0  0  0
  -25.1056  -12.1847   19.3219 C   0  0  0  0  0  0  0  0  0  0  0  0
  -24.4109  -12.3202   21.6319 C   0  0  0  0  0  0  0  0  0  0  0  0
  -26.4106  -26.8071   19.5565 C   0  0  0  0  0  0  0  0  0  0  0  0
  -21.7669  -12.1599   18.7880 C   0  0  0  0  0  0  0  0  0  0  0  0
  -20.9959  -12.3113   17.6354 C   0  0  0  0  0  0  0  0  0  0  0  0
  -27.2460  -28.5787   20.9644 C   0  0  0  0  0  0  0  0  0  0  0  0
  -21.7426  -10.1512   16.8522 C   0  0  0  0  0  0  0  0  0  0  0  0
  -26.2503  -13.6730   20.8424 C   0  0  0  0  0  0  0  0  0  0  0  0
  -28.6668  -14.4849   20.9359 C   0  0  0  0  0  0  0  0  0  0  0  0
  -18.6655  -28.1490   24.0139 C   0  0  0  0  0  0  0  0  0  0  0  0
  -25.5850  -27.0438   21.8275 C   0  0  0  0  0  0  0  0  0  0  0  0
  -19.7458  -28.2218   23.1138 C   0  0  0  0  0  0  0  0  0  0  0  0
  -26.4276  -28.1480   22.0197 C   0  0  0  0  0  0  0  0  0  0  0  0
  -29.0758  -21.5011   18.9709 C   0  0  0  0  0  0  0  0  0  0  0  0
  -31.0199  -23.2061   17.9240 C   0  0  0  0  0  0  0  0  0  0  0  0
  -24.2609  -11.7789   20.3551 C   0  0  0  0  0  0  0  0  0  0  0  0
  -27.2360  -27.9127   19.7392 C   0  0  0  0  0  0  0  0  0  0  0  0
  -22.5258  -11.0042   18.9726 C   0  0  0  0  0  0  0  0  0  0  0  0
  -20.9838  -11.3069   16.6676 C   0  0  0  0  0  0  0  0  0  0  0  0
  -22.5136   -9.9998   18.0047 C   0  0  0  0  0  0  0  0  0  0  0  0
  -27.2779  -14.6509   21.0947 C   0  0  0  0  0  0  0  0  0  0  0  0
  -29.2015  -15.6956   21.3030 C   0  0  0  0  0  0  0  0  0  0  0  0
  -29.4074  -13.3388   20.4959 C   0  0  0  0  0  0  0  0  0  0  0  0
  -23.3977  -28.6194   23.5117 C   0  0  0  0  0  0  0  0  0  0  0  0
  -25.7525  -28.7230   25.7402 C   0  0  0  0  0  0  0  0  0  0  0  0
  -27.9861  -29.3147   28.2518 C   0  0  0  0  0  0  0  0  0  0  0  0
  -26.4744  -21.1806   21.4304 C   0  0  0  0  0  0  0  0  0  0  0  0
  -18.6181  -28.9887   25.2658 C   0  0  0  0  0  0  0  0  0  0  0  0
  -24.7152  -26.5450   22.9486 C   0  0  0  0  0  0  0  0  0  0  0  0
  -26.4731  -28.8923   23.3283 C   0  0  0  0  0  0  0  0  0  0  0  0
  -19.9774  -29.5508   25.6740 C   0  0  0  0  0  0  0  0  0  0  0  0
  -28.3716  -19.4723   24.1107 C   0  0  0  0  0  0  0  0  0  0  0  0
  -20.6913  -30.1508   24.4669 C   0  0  0  0  0  0  0  0  0  0  0  0
  -30.1985  -27.0675   15.9394 C   0  0  0  0  0  0  0  0  0  0  0  0
  -30.9829  -27.6063   18.2828 C   0  0  0  0  0  0  0  0  0  0  0  0
  -28.3564  -18.0149   23.6526 C   0  0  0  0  0  0  0  0  0  0  0  0
  -30.5838  -25.6021   16.1465 C   0  0  0  0  0  0  0  0  0  0  0  0
  -31.3698  -26.1415   18.4912 C   0  0  0  0  0  0  0  0  0  0  0  0
  -27.1510  -20.2375   23.6086 C   0  0  0  0  0  0  0  0  0  0  0  0
  -26.9443  -18.7084   21.6764 C   0  0  0  0  0  0  0  0  0  0  0  0
  -20.9562  -29.0849   23.3967 C   0  0  1  0  0  0  0  0  0  0  0  0
  -24.4096  -27.6170   23.9901 C   0  0  1  0  0  0  0  0  0  0  0  0
  -29.8611  -27.7928   17.2504 C   0  0  0  0  0  0  0  0  0  0  0  0
  -28.1841  -17.9213   22.1266 C   0  0  2  0  0  0  0  0  0  0  0  0
  -31.7168  -25.4640   17.1648 C   0  0  0  0  0  0  0  0  0  0  0  0
  -28.4222  -30.8664   30.1752 C   0  0  0  0  0  0  0  0  0  0  0  0
  -34.3558  -24.3003   17.9261 C   0  0  0  0  0  0  0  0  0  0  0  0
  -33.5865  -23.7328   15.5954 C   0  0  0  0  0  0  0  0  0  0  0  0
  -26.6688  -30.8815   23.7880 C   0  0  0  0  0  0  0  0  0  0  0  0
  -27.9307  -31.9487   25.6686 C   0  0  0  0  0  0  0  0  0  0  0  0
  -25.4481  -31.7401   25.7948 C   0  0  0  0  0  0  0  0  0  0  0  0
  -26.4136  -22.4338   19.3079 C   0  0  0  0  0  0  0  0  0  0  0  0
  -27.8637  -27.1031   30.2146 C   0  0  0  0  0  0  0  0  0  0  0  0
  -28.0365  -20.5892   19.5297 C   0  0  0  0  0  0  0  0  0  0  0  0
  -28.5033  -27.3539   17.8059 C   0  0  0  0  0  0  0  0  0  1  0  0
  -26.8806  -29.6738   26.0601 C   0  0  1  0  0  0  0  0  0  0  0  0
  -27.7906  -29.5538   29.7381 C   0  0  2  0  0  0  0  0  0  0  0  0
  -33.3293  -23.5557   17.0847 C   0  0  0  0  0  0  0  0  0  0  0  0
  -26.7370  -31.0339   25.3206 C   0  0  0  0  0  0  0  0  0  0  0  0
  -26.9508  -15.8709   21.5290 N   0  0  0  0  0  0  0  0  0  0  0  0
  -28.1417  -16.4825   21.6463 N   0  0  0  0  0  0  0  0  0  0  0  0
  -25.5995  -28.3700   24.3920 N   0  0  0  0  0  0  0  0  0  0  0  0
  -26.9864  -20.0961   22.1615 N   0  0  0  0  0  0  0  0  0  0  0  0
  -30.4702  -16.1533   21.3624 N   0  0  0  0  0  0  0  0  0  0  0  0
  -29.8389  -12.4133   21.4559 N   0  0  0  0  0  0  0  0  0  0  0  0
  -22.0877  -28.2637   23.7705 N   0  0  0  0  0  0  0  0  0  0  0  0
  -26.9205  -29.7855   27.5142 N   0  0  0  0  0  0  0  0  0  0  0  0
  -31.9942  -24.0632   17.3982 N   0  0  3  0  0  0  0  0  0  0  0  0
  -26.9074  -21.3185   20.1029 N   0  0  0  0  0  0  0  0  0  0  0  0
  -28.4080  -28.4498   30.5260 N   0  3  0  0  0  0  0  0  0  0  0  0
  -29.6926  -13.1497   19.2891 O   0  0  0  0  0  0  0  0  0  0  0  0
  -23.7773  -29.6406   22.9507 O   0  0  0  0  0  0  0  0  0  0  0  0
  -25.0380  -28.3032   26.6540 O   0  0  0  0  0  0  0  0  0  0  0  0
  -28.9860  -28.7685   27.7909 O   0  0  0  0  0  0  0  0  0  0  0  0
  -25.6833  -21.9855   21.9385 O   0  0  0  0  0  0  0  0  0  0  0  0
  -23.2900  -10.8550   20.1177 O   0  0  0  0  0  0  0  0  0  0  0  0
  -28.0362  -28.3405   18.7250 O   0  0  0  0  0  0  0  0  0  1  0  0
  -20.2422  -11.4518   15.5616 F   0  0  0  0  0  0  0  0  0  0  0  0
  -23.2397   -8.8868   18.1771 F   0  0  0  0  0  0  0  0  0  0  0  0
  1  2  1  0  0  0  0
  1  5  2  0  0  0  0
  2  6  2  0  0  0  0
  3 12  2  0  0  0  0
  3 19  1  0  0  0  0
  4 13  1  0  0  0  0
  4 19  2  0  0  0  0
  5 21  1  0  0  0  0
  6 23  1  0  0  0  0
  7 14  2  0  0  0  0
  7 22  1  0  0  0  0
  8 10  2  0  0  0  0
  8 25  1  0  0  0  0
  9 11  1  0  0  0  0
  9 25  2  0  0  0  0
 10 26  1  0  0  0  0
 11 26  2  0  0  0  0
 12 27  1  0  0  0  0
 13 27  2  0  0  0  0
 14 28  1  0  0  0  0
 15 16  2  0  0  0  0
 15 29  1  0  0  0  0
 16 30  1  0  0  0  0
 17 24  1  0  0  0  0
 17 28  2  0  0  0  0
 18 30  2  0  0  0  0
 18 31  1  0  0  0  0
 19 32  1  0  0  0  0
 20 32  1  0  0  0  0
 20 33  2  0  0  0  0
 20 34  1  0  0  0  0
 21 23  2  0  0  0  0
 21 39  1  0  0  0  0
 22 24  2  0  0  0  0
 22 40  1  0  0  0  0
 23 52  1  0  0  0  0
 24 41  1  0  0  0  0
 25 65  1  0  0  0  0
 26 79  1  0  0  0  0
 27 87  1  0  0  0  0
 28 88  1  0  0  0  0
 29 31  2  0  0  0  0
 29 87  1  0  0  0  0
 30 89  1  0  0  0  0
 31 90  1  0  0  0  0
 32 71  2  0  0  0  0
 33 72  1  0  0  0  0
 33 75  1  0  0  0  0
 34 76  1  0  0  0  0
 34 82  2  0  0  0  0
 35 53  1  0  0  0  0
 35 77  1  0  0  0  0
 35 83  2  0  0  0  0
 36 67  1  0  0  0  0
 36 73  1  0  0  0  0
 36 84  2  0  0  0  0
 37 68  1  0  0  0  0
 37 78  1  0  0  0  0
 37 85  2  0  0  0  0
 38 74  1  0  0  0  0
 38 80  1  0  0  0  0
 38 86  2  0  0  0  0
 39 42  1  0  0  0  0
 40 53  1  0  0  0  0
 41 73  1  0  0  0  0
 42 44  1  0  0  0  0
 43 47  1  0  0  0  0
 43 50  1  0  0  0  0
 44 52  1  0  0  0  0
 45 48  1  0  0  0  0
 45 54  1  0  0  0  0
 46 49  1  0  0  0  0
 46 54  1  0  0  0  0
 47 55  1  0  0  0  0
 48 56  1  0  0  0  0
 49 56  1  0  0  0  0
 50 74  1  0  0  0  0
 51 55  1  0  0  0  0
 51 74  1  0  0  0  0
 52 77  1  0  0  0  0
 53 73  1  0  0  0  0
 54 66  1  0  0  0  0
 55 72  1  0  0  0  0
 56 79  1  0  0  0  0
 57 68  1  0  0  0  0
 58 69  1  0  0  0  0
 59 69  1  0  0  0  0
 60 70  1  0  0  0  0
 61 70  1  0  0  0  0
 62 70  1  0  0  0  0
 63 80  1  0  0  0  0
 64 81  1  0  0  0  0
 65 80  1  0  0  0  0
 66 88  1  0  0  0  0
 67 70  1  0  0  0  0
 67 78  1  0  0  0  0
 68 81  1  0  0  0  0
 69 79  1  0  0  0  0
 71 72  1  0  0  0  0
M  CHG  1  81   1
M  ISO  4  38 100  66 101  80 100  88 101
M  END
> <Batch ID>
0015

> <Smiles>
CNC(C)C(=O)NC(C(=O)N1Cc2cc([101O:1][101CH2:1]C3CCC(N(c4ccc(C[100N:0](C)[100C:0](=O)N5CCCC(n6nc(-c7ccc(Oc8ccc(F)cc8F)cc7)c(C(N)=O)c6N)C5)cc4)C(C)C)CC3)ccc2CC1C(=O)NC1CCCc2ccccc21)C(C)(C)C

> <Shape>
0.253

> <Color>
0.063

> <Negative vol penalty>
0.000

$$$$

  -OEChem-04042320543D

 83 91  0     1  0  0  0  0  0999 V2000
  -28.3285  -38.0351   24.2571 C   0  0  0  0  0  0  0  0  0  0  0  0
  -28.7517  -36.9823   23.4522 C   0  0  0  0  0  0  0  0  0  0  0  0
  -26.4991  -12.5879   21.6264 C   0  0  0  0  0  0  0  0  0  0  0  0
  -26.1070  -13.6197   19.4773 C   0  0  0  0  0  0  0  0  0  0  0  0
  -27.4171  -37.8016   25.2860 C   0  0  0  0  0  0  0  0  0  0  0  0
  -28.2645  -35.6951   23.6764 C   0  0  0  0  0  0  0  0  0  0  0  0
  -27.1077  -31.4095   19.4573 C   0  0  0  0  0  0  0  0  0  0  0  0
  -29.0467  -22.6258   19.6565 C   0  0  0  0  0  0  0  0  0  0  0  0
  -28.5588  -23.6722   18.8738 C   0  0  0  0  0  0  0  0  0  0  0  0
  -25.2362  -11.9981   21.5737 C   0  0  0  0  0  0  0  0  0  0  0  0
  -24.8441  -13.0299   19.4245 C   0  0  0  0  0  0  0  0  0  0  0  0
  -27.8403  -30.3103   19.0115 C   0  0  0  0  0  0  0  0  0  0  0  0
  -23.7877   -9.3441   20.0601 C   0  0  0  0  0  0  0  0  0  0  0  0
  -23.6854   -7.9985   20.4128 C   0  0  0  0  0  0  0  0  0  0  0  0
  -26.6178  -28.8879   20.5285 C   0  0  0  0  0  0  0  0  0  0  0  0
  -28.7901  -21.1113   17.7917 C   0  0  0  0  0  0  0  0  0  0  0  0
  -22.1565   -8.5806   22.1906 C   0  0  0  0  0  0  0  0  0  0  0  0
  -26.9345  -13.3987   20.5782 C   0  0  0  0  0  0  0  0  0  0  0  0
  -29.4489  -13.4719   20.1537 C   0  0  0  0  0  0  0  0  0  0  0  0
  -26.9111  -36.5127   25.5169 C   0  0  0  0  0  0  0  0  0  0  0  0
  -26.1306  -31.2578   20.4515 C   0  0  0  0  0  0  0  0  0  0  0  0
  -27.3465  -35.4440   24.7103 C   0  0  0  0  0  0  0  0  0  0  0  0
  -25.8724  -29.9863   20.9834 C   0  0  0  0  0  0  0  0  0  0  0  0
  -29.1624  -21.3453   19.1154 C   0  0  0  0  0  0  0  0  0  0  0  0
  -28.1865  -23.4382   17.5501 C   0  0  0  0  0  0  0  0  0  0  0  0
  -24.4087  -12.2191   20.4727 C   0  0  0  0  0  0  0  0  0  0  0  0
  -27.5974  -29.0497   19.5492 C   0  0  0  0  0  0  0  0  0  0  0  0
  -23.0744  -10.3080   20.7727 C   0  0  0  0  0  0  0  0  0  0  0  0
  -22.8698   -7.6167   21.4780 C   0  0  0  0  0  0  0  0  0  0  0  0
  -28.3022  -22.1577   17.0090 C   0  0  0  0  0  0  0  0  0  0  0  0
  -22.2588   -9.9263   21.8379 C   0  0  0  0  0  0  0  0  0  0  0  0
  -28.2388  -14.0087   20.6324 C   0  0  0  0  0  0  0  0  0  0  0  0
  -30.3882  -14.4315   20.4421 C   0  0  0  0  0  0  0  0  0  0  0  0
  -29.7013  -12.2178   19.5061 C   0  0  0  0  0  0  0  0  0  0  0  0
  -25.7265  -32.3961   23.3917 C   0  0  0  0  0  0  0  0  0  0  0  0
  -22.8610  -30.8934   23.1599 C   0  0  0  0  0  0  0  0  0  0  0  0
  -20.9842  -28.4426   21.7046 C   0  0  0  0  0  0  0  0  0  0  0  0
  -30.0704  -20.3446   21.2416 C   0  0  0  0  0  0  0  0  0  0  0  0
  -25.9638  -36.3008   26.6712 C   0  0  0  0  0  0  0  0  0  0  0  0
  -25.3304  -32.4489   20.9025 C   0  0  0  0  0  0  0  0  0  0  0  0
  -24.8201  -29.7667   22.0384 C   0  0  0  0  0  0  0  0  0  0  0  0
  -25.2094  -34.9754   26.6045 C   0  0  0  0  0  0  0  0  0  0  0  0
  -31.3155  -17.9463   23.5599 C   0  0  0  0  0  0  0  0  0  0  0  0
  -26.1655  -33.8328   26.2771 C   0  0  0  0  0  0  0  0  0  0  0  0
  -30.7830  -16.6148   23.0253 C   0  0  0  0  0  0  0  0  0  0  0  0
  -30.3084  -19.0786   23.3665 C   0  0  0  0  0  0  0  0  0  0  0  0
  -29.2779  -17.9075   21.4598 C   0  0  0  0  0  0  0  0  0  0  0  0
  -26.8218  -34.0382   24.9065 C   0  0  1  0  0  0  0  0  0  0  0  0
  -24.7162  -32.2667   22.2870 C   0  0  1  0  0  0  0  0  0  0  0  0
  -30.2833  -16.7499   21.5735 C   0  0  2  0  0  0  0  0  0  0  0  0
  -18.6870  -27.4335   21.7472 C   0  0  0  0  0  0  0  0  0  0  0  0
  -23.5380  -29.4686   25.7717 C   0  0  0  0  0  0  0  0  0  0  0  0
  -21.7139  -27.8290   25.2690 C   0  0  0  0  0  0  0  0  0  0  0  0
  -21.1666  -30.2416   25.5893 C   0  0  0  0  0  0  0  0  0  0  0  0
  -27.3043  -24.2478   15.3761 C   0  0  0  0  0  0  0  0  0  0  0  0
  -20.5032  -29.1303   18.8665 C   0  0  0  0  0  0  0  0  0  0  0  0
  -28.8778  -26.5714   17.2541 C   0  0  0  0  0  0  0  0  0  0  0  0
  -27.5504  -25.8242   17.3004 C   0  0  0  0  0  0  0  0  0  0  0  0
  -28.7728  -28.0031   17.7662 C   0  0  0  0  0  0  0  0  0  1  0  0
  -22.3510  -29.5089   23.4792 C   0  0  1  0  0  0  0  0  0  0  0  0
  -19.5937  -28.4663   21.0960 C   0  0  2  0  0  0  0  0  0  0  0  0
  -22.2136  -29.2662   25.0088 C   0  0  0  0  0  0  0  0  0  0  0  0
  -28.3924  -15.2158   21.1833 N   0  0  0  0  0  0  0  0  0  0  0  0
  -29.7101  -15.4452   21.0526 N   0  0  0  0  0  0  0  0  0  0  0  0
  -24.0687  -30.9636   22.4510 N   0  0  0  0  0  0  0  0  0  0  0  0
  -29.8832  -19.1490   21.9669 N   0  0  0  0  0  0  0  0  0  0  0  0
  -31.7198  -14.4987   20.2306 N   0  0  0  0  0  0  0  0  0  0  0  0
  -28.6228  -11.3500   19.2870 N   0  0  0  0  0  0  0  0  0  0  0  0
  -29.6577  -20.2825   19.9110 N   0  0  0  0  0  0  0  0  0  0  0  0
  -25.8997  -33.6892   23.8471 N   0  0  0  0  0  0  0  0  0  0  0  0
  -21.1062  -29.3508   22.7350 N   0  0  0  0  0  0  0  0  0  0  0  0
  -27.6955  -24.4918   16.7658 N   0  0  3  0  0  0  0  0  0  0  0  0
  -19.6625  -28.1771   19.6356 N   0  3  0  0  0  0  0  0  0  0  0  0
  -30.8519  -11.8699   19.1475 O   0  0  0  0  0  0  0  0  0  0  0  0
  -26.3048  -31.3965   23.8017 O   0  0  0  0  0  0  0  0  0  0  0  0
  -22.2082  -31.8763   23.5197 O   0  0  0  0  0  0  0  0  0  0  0  0
  -21.8721  -27.6910   21.3082 O   0  0  0  0  0  0  0  0  0  0  0  0
  -30.5858  -21.3411   21.7549 O   0  0  0  0  0  0  0  0  0  0  0  0
  -23.1764  -11.6435   20.4208 O   0  0  0  0  0  0  0  0  0  0  0  0
  -28.3115  -27.9752   19.1163 O   0  0  0  0  0  0  0  0  0  1  0  0
  -22.7705   -6.3243   21.8156 F   0  0  0  0  0  0  0  0  0  0  0  0
  -27.9456  -21.9214   15.7384 F   0  0  0  0  0  0  0  0  0  0  0  0
  -21.5702  -10.8477   22.5254 F   0  0  0  0  0  0  0  0  0  0  0  0
  1  2  1  0  0  0  0
  1  5  2  0  0  0  0
  2  6  2  0  0  0  0
  3 10  2  0  0  0  0
  3 18  1  0  0  0  0
  4 11  1  0  0  0  0
  4 18  2  0  0  0  0
  5 20  1  0  0  0  0
  6 22  1  0  0  0  0
  7 12  2  0  0  0  0
  7 21  1  0  0  0  0
  8  9  2  0  0  0  0
  8 24  1  0  0  0  0
  9 25  1  0  0  0  0
 10 26  1  0  0  0  0
 11 26  2  0  0  0  0
 12 27  1  0  0  0  0
 13 14  2  0  0  0  0
 13 28  1  0  0  0  0
 14 29  1  0  0  0  0
 15 23  1  0  0  0  0
 15 27  2  0  0  0  0
 16 24  2  0  0  0  0
 16 30  1  0  0  0  0
 17 29  2  0  0  0  0
 17 31  1  0  0  0  0
 18 32  1  0  0  0  0
 19 32  1  0  0  0  0
 19 33  2  0  0  0  0
 19 34  1  0  0  0  0
 20 22  2  0  0  0  0
 20 39  1  0  0  0  0
 21 23  2  0  0  0  0
 21 40  1  0  0  0  0
 22 48  1  0  0  0  0
 23 41  1  0  0  0  0
 24 69  1  0  0  0  0
 25 30  2  0  0  0  0
 25 72  1  0  0  0  0
 26 79  1  0  0  0  0
 27 80  1  0  0  0  0
 28 31  2  0  0  0  0
 28 79  1  0  0  0  0
 29 81  1  0  0  0  0
 30 82  1  0  0  0  0
 31 83  1  0  0  0  0
 32 63  2  0  0  0  0
 33 64  1  0  0  0  0
 33 67  1  0  0  0  0
 34 68  1  0  0  0  0
 34 74  2  0  0  0  0
 35 49  1  0  0  0  0
 35 70  1  0  0  0  0
 35 75  2  0  0  0  0
 36 60  1  0  0  0  0
 36 65  1  0  0  0  0
 36 76  2  0  0  0  0
 37 61  1  0  0  0  0
 37 71  1  0  0  0  0
 37 77  2  0  0  0  0
 38 66  1  0  0  0  0
 38 69  1  0  0  0  0
 38 78  2  0  0  0  0
 39 42  1  0  0  0  0
 40 49  1  0  0  0  0
 41 65  1  0  0  0  0
 42 44  1  0  0  0  0
 43 45  1  0  0  0  0
 43 46  1  0  0  0  0
 44 48  1  0  0  0  0
 45 50  1  0  0  0  0
 46 66  1  0  0  0  0
 47 50  1  0  0  0  0
 47 66  1  0  0  0  0
 48 70  1  0  0  0  0
 49 65  1  0  0  0  0
 50 64  1  0  0  0  0
 51 61  1  0  0  0  0
 52 62  1  0  0  0  0
 53 62  1  0  0  0  0
 54 62  1  0  0  0  0
 55 72  1  0  0  0  0
 56 73  1  0  0  0  0
 57 58  1  0  0  0  0
 57 59  1  0  0  0  0
 58 72  1  0  0  0  0
 59 80  1  0  0  0  0
 60 62  1  0  0  0  0
 60 71  1  0  0  0  0
 61 73  1  0  0  0  0
 63 64  1  0  0  0  0
M  CHG  1  73   1
M  ISO  4  38 100  59 101  69 100  80 101
M  END
> <Batch ID>
0015

> <Smiles>
CNC(C)C(=O)NC(C(=O)N1Cc2cc([101O:1][101CH2:1]CCN(C)c3ccc([100NH:0][100C:0](=O)N4CCCC(n5nc(-c6ccc(Oc7ccc(F)cc7F)cc6)c(C(N)=O)c5N)C4)cc3F)ccc2CC1C(=O)NC1CCCc2ccccc21)C(C)(C)C

> <Shape>
0.328

> <Color>
0.095

> <Negative vol penalty>
0.000

$$$$

  -OEChem-04042320543D

 79 87  0     1  0  0  0  0  0999 V2000
  -28.0836  -37.0373   21.1610 C   0  0  0  0  0  0  0  0  0  0  0  0
  -28.4933  -35.7188   20.9901 C   0  0  0  0  0  0  0  0  0  0  0  0
  -26.8786  -12.7373   21.8102 C   0  0  0  0  0  0  0  0  0  0  0  0
  -26.2304  -14.3669   20.1484 C   0  0  0  0  0  0  0  0  0  0  0  0
  -26.9671  -37.3230   21.9456 C   0  0  0  0  0  0  0  0  0  0  0  0
  -27.7873  -34.6853   21.6048 C   0  0  0  0  0  0  0  0  0  0  0  0
  -26.8428  -29.0511   19.3981 C   0  0  0  0  0  0  0  0  0  0  0  0
  -29.9120  -23.9372   21.6534 C   0  0  0  0  0  0  0  0  0  0  0  0
  -30.3901  -22.6753   22.0063 C   0  0  0  0  0  0  0  0  0  0  0  0
  -25.5587  -12.2931   21.8894 C   0  0  0  0  0  0  0  0  0  0  0  0
  -24.9105  -13.9227   20.2276 C   0  0  0  0  0  0  0  0  0  0  0  0
  -27.4768  -27.8323   19.6354 C   0  0  0  0  0  0  0  0  0  0  0  0
  -22.4262  -10.4874   22.2655 C   0  0  0  0  0  0  0  0  0  0  0  0
  -22.2047   -9.1103   22.2726 C   0  0  0  0  0  0  0  0  0  0  0  0
  -25.7890  -27.2790   21.2677 C   0  0  0  0  0  0  0  0  0  0  0  0
  -29.5679  -21.7799   19.9185 C   0  0  0  0  0  0  0  0  0  0  0  0
  -23.2649   -8.9286   20.1092 C   0  0  0  0  0  0  0  0  0  0  0  0
  -27.2144  -13.7743   20.9397 C   0  0  0  0  0  0  0  0  0  0  0  0
  -29.5850  -13.7578   19.9976 C   0  0  0  0  0  0  0  0  0  0  0  0
  -26.2413  -36.2916   22.5624 C   0  0  0  0  0  0  0  0  0  0  0  0
  -25.6813  -29.3983   20.1028 C   0  0  0  0  0  0  0  0  0  0  0  0
  -26.6608  -34.9575   22.3995 C   0  0  0  0  0  0  0  0  0  0  0  0
  -25.1407  -28.5017   21.0356 C   0  0  0  0  0  0  0  0  0  0  0  0
  -29.2617  -24.1205   20.4330 C   0  0  0  0  0  0  0  0  0  0  0  0
  -30.2181  -21.5966   21.1389 C   0  0  0  0  0  0  0  0  0  0  0  0
  -24.5747  -12.8858   21.0981 C   0  0  0  0  0  0  0  0  0  0  0  0
  -26.9516  -26.9473   20.5724 C   0  0  0  0  0  0  0  0  0  0  0  0
  -23.0669  -11.0852   21.1802 C   0  0  0  0  0  0  0  0  0  0  0  0
  -22.6241   -8.3309   21.1945 C   0  0  0  0  0  0  0  0  0  0  0  0
  -29.0897  -23.0418   19.5656 C   0  0  0  0  0  0  0  0  0  0  0  0
  -23.4863  -10.3058   20.1021 C   0  0  0  0  0  0  0  0  0  0  0  0
  -28.5775  -14.2339   20.8578 C   0  0  0  0  0  0  0  0  0  0  0  0
  -30.6881  -14.5148   20.3085 C   0  0  0  0  0  0  0  0  0  0  0  0
  -29.5288  -12.7236   19.0061 C   0  0  0  0  0  0  0  0  0  0  0  0
  -24.8922  -31.7254   22.1191 C   0  0  0  0  0  0  0  0  0  0  0  0
  -21.9349  -30.4185   21.8581 C   0  0  0  0  0  0  0  0  0  0  0  0
  -20.0316  -27.6759   21.1493 C   0  0  0  0  0  0  0  0  0  0  0  0
  -31.3673  -19.9608   22.6717 C   0  0  0  0  0  0  0  0  0  0  0  0
  -25.0691  -36.6531   23.4398 C   0  0  0  0  0  0  0  0  0  0  0  0
  -24.9943  -30.7053   19.8159 C   0  0  0  0  0  0  0  0  0  0  0  0
  -23.8846  -28.8183   21.8040 C   0  0  0  0  0  0  0  0  0  0  0  0
  -24.1541  -35.4715   23.7512 C   0  0  0  0  0  0  0  0  0  0  0  0
  -32.6837  -16.9076   23.9453 C   0  0  0  0  0  0  0  0  0  0  0  0
  -24.9758  -34.2543   24.1636 C   0  0  0  0  0  0  0  0  0  0  0  0
  -31.8759  -15.8320   23.2153 C   0  0  0  0  0  0  0  0  0  0  0  0
  -31.8282  -18.1270   24.2841 C   0  0  0  0  0  0  0  0  0  0  0  0
  -30.2957  -17.6363   22.4187 C   0  0  0  0  0  0  0  0  0  0  0  0
  -25.9064  -33.8070   23.0298 C   0  0  1  0  0  0  0  0  0  0  0  0
  -24.1054  -31.1773   20.9624 C   0  0  1  0  0  0  0  0  0  0  0  0
  -31.1307  -16.4155   21.9989 C   0  0  2  0  0  0  0  0  0  0  0  0
  -17.6456  -26.9035   21.0599 C   0  0  0  0  0  0  0  0  0  0  0  0
  -21.8790  -30.2460   24.9040 C   0  0  0  0  0  0  0  0  0  0  0  0
  -19.9638  -28.6454   24.7087 C   0  0  0  0  0  0  0  0  0  0  0  0
  -19.7276  -30.9796   23.8611 C   0  0  0  0  0  0  0  0  0  0  0  0
  -20.2122  -27.0776   18.2565 C   0  0  0  0  0  0  0  0  0  0  0  0
  -28.7507  -25.4800   20.0564 C   0  0  0  0  0  0  0  0  0  1  0  0
  -21.1740  -29.3402   22.5913 C   0  0  1  0  0  0  0  0  0  0  0  0
  -18.8031  -27.5010   20.2749 C   0  0  2  0  0  0  0  0  0  0  0  0
  -20.7109  -29.7974   24.0033 C   0  0  0  0  0  0  0  0  0  0  0  0
  -29.0029  -15.2172   21.6555 N   0  0  0  0  0  0  0  0  0  0  0  0
  -30.2898  -15.3650   21.2978 N   0  0  0  0  0  0  0  0  0  0  0  0
  -23.2531  -30.1112   21.4926 N   0  0  0  0  0  0  0  0  0  0  0  0
  -31.1562  -18.6278   23.0831 N   0  0  0  0  0  0  0  0  0  0  0  0
  -31.9501  -14.5294   19.8295 N   0  0  0  0  0  0  0  0  0  0  0  0
  -28.3169  -12.0460   18.8154 N   0  0  0  0  0  0  0  0  0  0  0  0
  -30.7020  -20.3143   21.4983 N   0  0  0  0  0  0  0  0  0  0  0  0
  -25.1638  -33.0770   22.0248 N   0  0  0  0  0  0  0  0  0  0  0  0
  -20.0861  -28.9355   21.7075 N   0  0  0  0  0  0  0  0  0  0  0  0
  -19.1078  -26.5998   19.1278 N   0  3  0  0  0  0  0  0  0  0  0  0
  -30.5283  -12.3986   18.3212 O   0  0  0  0  0  0  0  0  0  0  0  0
  -25.2269  -30.9778   23.0306 O   0  0  0  0  0  0  0  0  0  0  0  0
  -21.3776  -31.4912   21.6123 O   0  0  0  0  0  0  0  0  0  0  0  0
  -20.8582  -26.7830   21.3230 O   0  0  0  0  0  0  0  0  0  0  0  0
  -32.1071  -20.7238   23.2982 O   0  0  0  0  0  0  0  0  0  0  0  0
  -23.2868  -12.4524   21.1750 O   0  0  0  0  0  0  0  0  0  0  0  0
  -27.5688  -25.7573   20.8065 O   0  0  0  0  0  0  0  0  0  1  0  0
  -22.4127   -7.0082   21.2021 F   0  0  0  0  0  0  0  0  0  0  0  0
  -28.4663  -23.2080   18.3908 F   0  0  0  0  0  0  0  0  0  0  0  0
  -24.1034  -10.8743   19.0572 F   0  0  0  0  0  0  0  0  0  0  0  0
  1  2  1  0  0  0  0
  1  5  2  0  0  0  0
  2  6  2  0  0  0  0
  3 10  2  0  0  0  0
  3 18  1  0  0  0  0
  4 11  1  0  0  0  0
  4 18  2  0  0  0  0
  5 20  1  0  0  0  0
  6 22  1  0  0  0  0
  7 12  2  0  0  0  0
  7 21  1  0  0  0  0
  8  9  2  0  0  0  0
  8 24  1  0  0  0  0
  9 25  1  0  0  0  0
 10 26  1  0  0  0  0
 11 26  2  0  0  0  0
 12 27  1  0  0  0  0
 13 14  2  0  0  0  0
 13 28  1  0  0  0  0
 14 29  1  0  0  0  0
 15 23  1  0  0  0  0
 15 27  2  0  0  0  0
 16 25  2  0  0  0  0
 16 30  1  0  0  0  0
 17 29  2  0  0  0  0
 17 31  1  0  0  0  0
 18 32  1  0  0  0  0
 19 32  1  0  0  0  0
 19 33  2  0  0  0  0
 19 34  1  0  0  0  0
 20 22  2  0  0  0  0
 20 39  1  0  0  0  0
 21 23  2  0  0  0  0
 21 40  1  0  0  0  0
 22 48  1  0  0  0  0
 23 41  1  0  0  0  0
 24 30  2  0  0  0  0
 24 56  1  0  0  0  0
 25 66  1  0  0  0  0
 26 75  1  0  0  0  0
 27 76  1  0  0  0  0
 28 31  2  0  0  0  0
 28 75  1  0  0  0  0
 29 77  1  0  0  0  0
 30 78  1  0  0  0  0
 31 79  1  0  0  0  0
 32 60  2  0  0  0  0
 33 61  1  0  0  0  0
 33 64  1  0  0  0  0
 34 65  1  0  0  0  0
 34 70  2  0  0  0  0
 35 49  1  0  0  0  0
 35 67  1  0  0  0  0
 35 71  2  0  0  0  0
 36 57  1  0  0  0  0
 36 62  1  0  0  0  0
 36 72  2  0  0  0  0
 37 58  1  0  0  0  0
 37 68  1  0  0  0  0
 37 73  2  0  0  0  0
 38 63  1  0  0  0  0
 38 66  1  0  0  0  0
 38 74  2  0  0  0  0
 39 42  1  0  0  0  0
 40 49  1  0  0  0  0
 41 62  1  0  0  0  0
 42 44  1  0  0  0  0
 43 45  1  0  0  0  0
 43 46  1  0  0  0  0
 44 48  1  0  0  0  0
 45 50  1  0  0  0  0
 46 63  1  0  0  0  0
 47 50  1  0  0  0  0
 47 63  1  0  0  0  0
 48 67  1  0  0  0  0
 49 62  1  0  0  0  0
 50 61  1  0  0  0  0
 51 58  1  0  0  0  0
 52 59  1  0  0  0  0
 53 59  1  0  0  0  0
 54 59  1  0  0  0  0
 55 69  1  0  0  0  0
 56 76  1  0  0  0  0
 57 59  1  0  0  0  0
 57 68  1  0  0  0  0
 58 69  1  0  0  0  0
 60 61  1  0  0  0  0
M  CHG  1  69   1
M  ISO  4  38 100  56 101  66 100  76 101
M  END
> <Batch ID>
0015

> <Smiles>
CNC(C)C(=O)NC(C(=O)N1Cc2cc([101O:1][101CH2:1]c3ccc([100NH:0][100C:0](=O)N4CCCC(n5nc(-c6ccc(Oc7ccc(F)cc7F)cc6)c(C(N)=O)c5N)C4)cc3F)ccc2CC1C(=O)NC1CCCc2ccccc21)C(C)(C)C

> <Shape>
0.344

> <Color>
0.078

> <Negative vol penalty>
0.000

$$$$

  -OEChem-04042320543D

 86 95  0     1  0  0  0  0  0999 V2000
  -32.0928  -32.9798   20.3492 C   0  0  0  0  0  0  0  0  0  0  0  0
  -31.4705  -31.7761   20.0342 C   0  0  0  0  0  0  0  0  0  0  0  0
  -22.9677  -10.1253   19.8893 C   0  0  0  0  0  0  0  0  0  0  0  0
  -24.1798   -9.6992   21.9354 C   0  0  0  0  0  0  0  0  0  0  0  0
  -31.7020  -33.6893   21.4840 C   0  0  0  0  0  0  0  0  0  0  0  0
  -30.4578  -31.2805   20.8547 C   0  0  0  0  0  0  0  0  0  0  0  0
  -26.4832  -29.5753   18.2204 C   0  0  0  0  0  0  0  0  0  0  0  0
  -29.0941  -20.3095   21.0387 C   0  0  0  0  0  0  0  0  0  0  0  0
  -28.9902  -18.9763   21.4353 C   0  0  0  0  0  0  0  0  0  0  0  0
  -22.2976   -8.9105   20.0332 C   0  0  0  0  0  0  0  0  0  0  0  0
  -23.5096   -8.4844   22.0794 C   0  0  0  0  0  0  0  0  0  0  0  0
  -26.6049  -28.3205   17.6249 C   0  0  0  0  0  0  0  0  0  0  0  0
  -20.4774   -7.4233   23.1284 C   0  0  0  0  0  0  0  0  0  0  0  0
  -19.9757   -7.1074   24.3909 C   0  0  0  0  0  0  0  0  0  0  0  0
  -25.3513  -27.3443   19.4400 C   0  0  0  0  0  0  0  0  0  0  0  0
  -29.6399  -19.5995   18.7948 C   0  0  0  0  0  0  0  0  0  0  0  0
  -21.3532   -5.1231   24.4417 C   0  0  0  0  0  0  0  0  0  0  0  0
  -23.9089  -10.5197   20.8403 C   0  0  0  0  0  0  0  0  0  0  0  0
  -24.2036  -13.0294   21.1894 C   0  0  0  0  0  0  0  0  0  0  0  0
  -30.6773  -33.2070   22.3135 C   0  0  0  0  0  0  0  0  0  0  0  0
  -25.8028  -29.7225   19.4377 C   0  0  0  0  0  0  0  0  0  0  0  0
  -30.0538  -31.9835   22.0025 C   0  0  0  0  0  0  0  0  0  0  0  0
  -25.2201  -28.6024   20.0475 C   0  0  0  0  0  0  0  0  0  0  0  0
  -29.4189  -20.6211   19.7184 C   0  0  0  0  0  0  0  0  0  0  0  0
  -29.2113  -17.9547   20.5118 C   0  0  0  0  0  0  0  0  0  0  0  0
  -22.5685   -8.0900   21.1283 C   0  0  0  0  0  0  0  0  0  0  0  0
  -26.0414  -27.2043   18.2362 C   0  0  0  0  0  0  0  0  0  0  0  0
  -21.4170   -6.5892   22.5224 C   0  0  0  0  0  0  0  0  0  0  0  0
  -20.4136   -5.9573   25.0476 C   0  0  0  0  0  0  0  0  0  0  0  0
  -29.5361  -18.2662   19.1915 C   0  0  0  0  0  0  0  0  0  0  0  0
  -21.8548   -5.4391   23.1791 C   0  0  0  0  0  0  0  0  0  0  0  0
  -24.6018  -11.7742   20.6918 C   0  0  0  0  0  0  0  0  0  0  0  0
  -25.1939  -13.8899   20.7829 C   0  0  0  0  0  0  0  0  0  0  0  0
  -23.0422  -13.3858   21.9510 C   0  0  0  0  0  0  0  0  0  0  0  0
  -26.6090  -30.6942   22.3548 C   0  0  0  0  0  0  0  0  0  0  0  0
  -23.4271  -30.3961   22.9105 C   0  0  0  0  0  0  0  0  0  0  0  0
  -20.4590  -28.9481   22.0500 C   0  0  0  0  0  0  0  0  0  0  0  0
  -30.8036  -14.7338   20.4127 C   0  0  0  0  0  0  0  0  0  0  0  0
  -30.3218  -33.9854   23.5554 C   0  0  0  0  0  0  0  0  0  0  0  0
  -25.6573  -31.0870   20.0535 C   0  0  0  0  0  0  0  0  0  0  0  0
  -24.4621  -28.7102   21.3446 C   0  0  0  0  0  0  0  0  0  0  0  0
  -28.9835  -33.5787   24.1669 C   0  0  0  0  0  0  0  0  0  0  0  0
  -29.0076  -13.2501   17.5361 C   0  0  0  0  0  0  0  0  0  0  0  0
  -28.8739  -32.0594   24.2492 C   0  0  0  0  0  0  0  0  0  0  0  0
  -27.6999  -12.7765   18.1682 C   0  0  0  0  0  0  0  0  0  0  0  0
  -30.1537  -13.2594   18.5432 C   0  0  0  0  0  0  0  0  0  0  0  0
  -28.5590  -13.5699   20.4072 C   0  0  0  0  0  0  0  0  0  0  0  0
  -28.5395  -23.8735   17.9842 C   0  0  0  0  0  0  0  0  0  0  0  0
  -27.1876  -22.4501   18.6986 C   0  0  0  0  0  0  0  0  0  0  0  0
  -28.9342  -31.4256   22.8542 C   0  0  1  0  0  0  0  0  0  0  0  0
  -25.3855  -31.0395   21.5539 C   0  0  1  0  0  0  0  0  0  0  0  0
  -27.0042  -23.7492   17.8856 C   0  0  0  0  0  0  0  0  0  0  0  0
  -27.3735  -13.5931   19.4307 C   0  0  2  0  0  0  0  0  0  0  0  0
  -18.0395  -28.8718   22.7116 C   0  0  0  0  0  0  0  0  0  0  0  0
  -24.1359  -28.6207   25.2887 C   0  0  0  0  0  0  0  0  0  0  0  0
  -21.7613  -27.8278   25.3154 C   0  0  0  0  0  0  0  0  0  0  0  0
  -22.2745  -30.2366   25.7112 C   0  0  0  0  0  0  0  0  0  0  0  0
  -31.4120  -16.6888   21.7866 C   0  0  0  0  0  0  0  0  0  0  0  0
  -19.5870  -29.9867   19.4194 C   0  0  0  0  0  0  0  0  0  0  0  0
  -29.1007  -16.5300   20.9390 C   0  0  0  0  0  0  0  0  0  0  0  0
  -29.5309  -22.0552   19.2918 C   0  0  0  0  0  0  0  0  0  0  0  0
  -26.1865  -24.8487   18.5290 C   0  0  0  0  0  0  0  0  0  1  0  0
  -22.5242  -29.2825   23.3833 C   0  0  1  0  0  0  0  0  0  0  0  0
  -19.0787  -29.5381   21.8234 C   0  0  2  0  0  0  0  0  0  0  0  0
  -22.6898  -28.9892   24.9012 C   0  0  0  0  0  0  0  0  0  0  0  0
  -25.7552  -11.8280   20.0204 N   0  0  0  0  0  0  0  0  0  0  0  0
  -26.0901  -13.1275   20.0931 N   0  0  0  0  0  0  0  0  0  0  0  0
  -24.3526  -30.0648   21.9107 N   0  0  0  0  0  0  0  0  0  0  0  0
  -29.8009  -14.0058   19.7513 N   0  0  0  0  0  0  0  0  0  0  0  0
  -25.3769  -15.2167   20.9516 N   0  0  0  0  0  0  0  0  0  0  0  0
  -22.1261  -12.3785   22.2831 N   0  0  0  0  0  0  0  0  0  0  0  0
  -27.6630  -31.5702   22.1779 N   0  0  0  0  0  0  0  0  0  0  0  0
  -21.1705  -29.6606   22.9920 N   0  0  0  0  0  0  0  0  0  0  0  0
  -30.4070  -15.8939   21.0952 N   0  0  0  0  0  0  0  0  0  0  0  0
  -28.5829  -22.4153   18.2151 N   0  3  0  0  0  0  0  0  0  0  0  0
  -18.6662  -29.3600   20.4025 N   0  3  0  0  0  0  0  0  0  0  0  0
  -22.8151  -14.5655   22.3119 O   0  0  0  0  0  0  0  0  0  0  0  0
  -26.5973  -29.7070   23.0806 O   0  0  0  0  0  0  0  0  0  0  0  0
  -23.3106  -31.5202   23.4048 O   0  0  0  0  0  0  0  0  0  0  0  0
  -20.8639  -27.9525   21.4540 O   0  0  0  0  0  0  0  0  0  0  0  0
  -31.9872  -14.3730   20.3863 O   0  0  0  0  0  0  0  0  0  0  0  0
  -21.9147   -6.9046   21.2692 O   0  0  0  0  0  0  0  0  0  0  0  0
  -26.1593  -25.9783   17.6575 O   0  0  0  0  0  0  0  0  0  1  0  0
  -19.9329   -5.6548   26.2607 F   0  0  0  0  0  0  0  0  0  0  0  0
  -29.7512  -17.2912   18.2972 F   0  0  0  0  0  0  0  0  0  0  0  0
  -22.7582   -4.6345   22.6025 F   0  0  0  0  0  0  0  0  0  0  0  0
  1  2  1  0  0  0  0
  1  5  2  0  0  0  0
  2  6  2  0  0  0  0
  3 10  2  0  0  0  0
  3 18  1  0  0  0  0
  4 11  1  0  0  0  0
  4 18  2  0  0  0  0
  5 20  1  0  0  0  0
  6 22  1  0  0  0  0
  7 12  2  0  0  0  0
  7 21  1  0  0  0  0
  8  9  2  0  0  0  0
  8 24  1  0  0  0  0
  9 25  1  0  0  0  0
 10 26  1  0  0  0  0
 11 26  2  0  0  0  0
 12 27  1  0  0  0  0
 13 14  2  0  0  0  0
 13 28  1  0  0  0  0
 14 29  1  0  0  0  0
 15 23  1  0  0  0  0
 15 27  2  0  0  0  0
 16 24  2  0  0  0  0
 16 30  1  0  0  0  0
 17 29  2  0  0  0  0
 17 31  1  0  0  0  0
 18 32  1  0  0  0  0
 19 32  1  0  0  0  0
 19 33  2  0  0  0  0
 19 34  1  0  0  0  0
 20 22  2  0  0  0  0
 20 39  1  0  0  0  0
 21 23  2  0  0  0  0
 21 40  1  0  0  0  0
 22 50  1  0  0  0  0
 23 41  1  0  0  0  0
 24 61  1  0  0  0  0
 25 30  2  0  0  0  0
 25 60  1  0  0  0  0
 26 82  1  0  0  0  0
 27 83  1  0  0  0  0
 28 31  2  0  0  0  0
 28 82  1  0  0  0  0
 29 84  1  0  0  0  0
 30 85  1  0  0  0  0
 31 86  1  0  0  0  0
 32 66  2  0  0  0  0
 33 67  1  0  0  0  0
 33 70  1  0  0  0  0
 34 71  1  0  0  0  0
 34 77  2  0  0  0  0
 35 51  1  0  0  0  0
 35 72  1  0  0  0  0
 35 78  2  0  0  0  0
 36 63  1  0  0  0  0
 36 68  1  0  0  0  0
 36 79  2  0  0  0  0
 37 64  1  0  0  0  0
 37 73  1  0  0  0  0
 37 80  2  0  0  0  0
 38 69  1  0  0  0  0
 38 74  1  0  0  0  0
 38 81  2  0  0  0  0
 39 42  1  0  0  0  0
 40 51  1  0  0  0  0
 41 68  1  0  0  0  0
 42 44  1  0  0  0  0
 43 45  1  0  0  0  0
 43 46  1  0  0  0  0
 44 50  1  0  0  0  0
 45 53  1  0  0  0  0
 46 69  1  0  0  0  0
 47 53  1  0  0  0  0
 47 69  1  0  0  0  0
 48 52  1  0  0  0  0
 48 75  1  0  0  0  0
 49 52  1  0  0  0  0
 49 75  1  0  0  0  0
 50 72  1  0  0  0  0
 51 68  1  0  0  0  0
 52 62  1  0  0  0  0
 53 67  1  0  0  0  0
 54 64  1  0  0  0  0
 55 65  1  0  0  0  0
 56 65  1  0  0  0  0
 57 65  1  0  0  0  0
 58 74  1  0  0  0  0
 59 76  1  0  0  0  0
 60 74  1  0  0  0  0
 61 75  1  0  0  0  0
 62 83  1  0  0  0  0
 63 65  1  0  0  0  0
 63 73  1  0  0  0  0
 64 76  1  0  0  0  0
 66 67  1  0  0  0  0
M  CHG  2  75   1  76   1
M  ISO  4  38 100  62 101  74 100  83 101
M  END
> <Batch ID>
0015

> <Smiles>
CNC(C)C(=O)NC(C(=O)N1Cc2cc([101O:1][101CH2:1]C3CN(Cc4ccc(C[100N:0](C)[100C:0](=O)N5CCCC(n6nc(-c7ccc(Oc8ccc(F)cc8F)cc7)c(C(N)=O)c6N)C5)c(F)c4)C3)ccc2CC1C(=O)NC1CCCc2ccccc21)C(C)(C)C

> <Shape>
0.357

> <Color>
0.199

> <Negative vol penalty>
0.000

$$$$

  -OEChem-04042320543D

100110  0     1  0  0  0  0  0999 V2000
  -18.0857  -26.6276   23.0735 C   0  0  0  0  0  0  0  0  0  0  0  0
  -19.2580  -26.2245   22.4421 C   0  0  0  0  0  0  0  0  0  0  0  0
  -20.4305  -16.5020   21.3141 C   0  0  0  0  0  0  0  0  0  0  0  0
  -22.6807  -17.2853   20.9141 C   0  0  0  0  0  0  0  0  0  0  0  0
  -17.8539  -27.9816   23.3121 C   0  0  0  0  0  0  0  0  0  0  0  0
  -20.1987  -27.1753   22.0479 C   0  0  0  0  0  0  0  0  0  0  0  0
  -25.0116  -25.8194   23.2682 C   0  0  0  0  0  0  0  0  0  0  0  0
  -28.3639  -19.0657   20.2653 C   0  0  0  0  0  0  0  0  0  0  0  0
  -26.4398  -19.8052   21.5255 C   0  0  0  0  0  0  0  0  0  0  0  0
  -27.9526  -19.8418   19.1818 C   0  0  0  0  0  0  0  0  0  0  0  0
  -26.0285  -20.5814   20.4420 C   0  0  0  0  0  0  0  0  0  0  0  0
  -27.7312  -14.4935   20.5743 C   0  0  0  0  0  0  0  0  0  0  0  0
  -25.9176  -13.8430   22.0320 C   0  0  0  0  0  0  0  0  0  0  0  0
  -27.8261  -15.7166   21.2381 C   0  0  0  0  0  0  0  0  0  0  0  0
  -26.0125  -15.0660   22.6959 C   0  0  0  0  0  0  0  0  0  0  0  0
  -20.1786  -17.6268   22.0996 C   0  0  0  0  0  0  0  0  0  0  0  0
  -22.4288  -18.4101   21.6995 C   0  0  0  0  0  0  0  0  0  0  0  0
  -25.6581  -24.8788   22.4676 C   0  0  0  0  0  0  0  0  0  0  0  0
  -22.2709  -19.1656   24.9912 C   0  0  0  0  0  0  0  0  0  0  0  0
  -23.2426  -19.5385   25.9198 C   0  0  0  0  0  0  0  0  0  0  0  0
  -26.7822  -26.6603   21.2926 C   0  0  0  0  0  0  0  0  0  0  0  0
  -23.4676  -21.6801   24.8245 C   0  0  0  0  0  0  0  0  0  0  0  0
  -21.6816  -16.3312   20.7214 C   0  0  0  0  0  0  0  0  0  0  0  0
  -21.7418  -15.0381   18.5232 C   0  0  0  0  0  0  0  0  0  0  0  0
  -18.7966  -28.9487   22.9293 C   0  0  0  0  0  0  0  0  0  0  0  0
  -25.2378  -27.1906   23.0803 C   0  0  0  0  0  0  0  0  0  0  0  0
  -19.9786  -28.5436   22.2804 C   0  0  0  0  0  0  0  0  0  0  0  0
  -26.1410  -27.6160   22.0954 C   0  0  0  0  0  0  0  0  0  0  0  0
  -27.6075  -19.0473   21.4372 C   0  0  0  0  0  0  0  0  0  0  0  0
  -26.7769  -13.5567   20.9711 C   0  0  0  0  0  0  0  0  0  0  0  0
  -26.7849  -20.5997   19.2701 C   0  0  0  0  0  0  0  0  0  0  0  0
  -26.9668  -16.0028   22.2989 C   0  0  0  0  0  0  0  0  0  0  0  0
  -21.1777  -18.5809   22.2922 C   0  0  0  0  0  0  0  0  0  0  0  0
  -26.5417  -25.2993   21.4781 C   0  0  0  0  0  0  0  0  0  0  0  0
  -21.8976  -20.0500   23.9791 C   0  0  0  0  0  0  0  0  0  0  0  0
  -23.8410  -20.7957   25.8365 C   0  0  0  0  0  0  0  0  0  0  0  0
  -22.4959  -21.3073   23.8958 C   0  0  0  0  0  0  0  0  0  0  0  0
  -21.9426  -15.1692   19.9104 C   0  0  0  0  0  0  0  0  0  0  0  0
  -22.1390  -13.7545   18.2385 C   0  0  0  0  0  0  0  0  0  0  0  0
  -21.2412  -15.9915   17.5766 C   0  0  0  0  0  0  0  0  0  0  0  0
  -23.4713  -29.7489   22.3183 C   0  0  0  0  0  0  0  0  0  0  0  0
  -26.3570  -31.2783   22.9405 C   0  0  0  0  0  0  0  0  0  0  0  0
  -28.8634  -25.4389   19.4647 C   0  0  0  0  0  0  0  0  0  0  0  0
  -24.7109  -34.2666   22.9608 C   0  0  0  0  0  0  0  0  0  0  0  0
  -25.9146  -10.1398   21.4349 C   0  0  0  0  0  0  0  0  0  0  0  0
  -18.4804  -30.4043   23.1658 C   0  0  0  0  0  0  0  0  0  0  0  0
  -24.5532  -28.1881   23.9751 C   0  0  0  0  0  0  0  0  0  0  0  0
  -26.4206  -29.0753   21.8567 C   0  0  0  0  0  0  0  0  0  0  0  0
  -19.6979  -31.3182   23.0536 C   0  0  0  0  0  0  0  0  0  0  0  0
  -29.0142  -27.8769   16.6779 C   0  0  0  0  0  0  0  0  0  0  0  0
  -30.0848  -28.3885   17.6349 C   0  0  0  0  0  0  0  0  0  0  0  0
  -22.5016   -9.4124   20.2005 C   0  0  0  0  0  0  0  0  0  0  0  0
  -20.5050  -30.9812   21.8039 C   0  0  0  0  0  0  0  0  0  0  0  0
  -21.9375  -10.8079   19.9388 C   0  0  0  0  0  0  0  0  0  0  0  0
  -28.1726  -26.9580   17.5508 C   0  0  0  0  0  0  0  0  0  0  0  0
  -30.3574  -27.1880   18.5267 C   0  0  0  0  0  0  0  0  0  0  0  0
  -23.5561   -9.4244   21.3030 C   0  0  0  0  0  0  0  0  0  0  0  0
  -24.1005  -11.7843   20.8041 C   0  0  0  0  0  0  0  0  0  0  0  0
  -21.0344  -29.5431   21.8602 C   0  0  1  0  0  0  0  0  0  0  0  0
  -24.5095  -29.5999   23.3941 C   0  0  1  0  0  0  0  0  0  0  0  0
  -23.0688  -11.8146   19.6665 C   0  0  2  0  0  0  0  0  0  0  0  0
  -25.0437  -36.6952   23.4980 C   0  0  0  0  0  0  0  0  0  0  0  0
  -26.1946  -30.6383   25.9187 C   0  0  0  0  0  0  0  0  0  0  0  0
  -25.5784  -33.0303   26.3272 C   0  0  0  0  0  0  0  0  0  0  0  0
  -27.7948  -32.4679   25.3303 C   0  0  0  0  0  0  0  0  0  0  0  0
  -26.1584  -17.5284   24.0820 C   0  0  0  0  0  0  0  0  0  0  0  0
  -28.2694  -10.8639   21.5357 C   0  0  0  0  0  0  0  0  0  0  0  0
  -24.1231  -35.0824   20.1773 C   0  0  0  0  0  0  0  0  0  0  0  0
  -25.2771  -23.6086   17.5215 C   0  0  0  0  0  0  0  0  0  0  0  0
  -28.0465  -18.2178   22.5961 C   0  0  0  0  0  0  0  0  0  0  0  0
  -26.6744  -12.2490   20.2617 C   0  0  0  0  0  0  0  0  0  0  0  0
  -26.3442  -21.4356   18.1048 C   0  0  0  0  0  0  0  0  0  0  0  0
  -27.5814  -23.5664   18.4651 C   0  0  0  0  0  0  0  0  0  0  0  0
  -25.7052  -32.2111   23.9305 C   0  0  1  0  0  0  0  0  0  0  0  0
  -27.5090  -24.7839   19.3675 C   0  0  1  0  0  0  0  0  0  1  0  0
  -25.0918  -35.6304   22.4133 C   0  0  2  0  0  0  0  0  0  0  0  0
  -26.3028  -32.0708   25.3590 C   0  0  0  0  0  0  0  0  0  0  0  0
  -22.4293  -14.0574   20.4683 N   0  0  0  0  0  0  0  0  0  0  0  0
  -22.5376  -13.2156   19.4263 N   0  0  0  0  0  0  0  0  0  0  0  0
  -25.7948  -30.0021   22.8088 N   0  0  0  0  0  0  0  0  0  0  0  0
  -29.0980  -26.4608   18.5626 N   0  0  0  0  0  0  0  0  0  0  0  0
  -24.5959  -10.4200   21.0406 N   0  0  0  0  0  0  0  0  0  0  0  0
  -22.1824  -13.0454   17.0906 N   0  0  0  0  0  0  0  0  0  0  0  0
  -20.8793  -17.2645   18.0381 N   0  0  0  0  0  0  0  0  0  0  0  0
  -22.1851  -29.4620   22.7340 N   0  0  0  0  0  0  0  0  0  0  0  0
  -25.8182  -33.5509   23.3645 N   0  0  0  0  0  0  0  0  0  0  0  0
  -27.0632  -17.2325   22.9683 N   0  0  3  0  0  0  0  0  0  0  0  0
  -26.8859  -11.1133   21.1565 N   0  0  0  0  0  0  0  0  0  0  0  0
  -24.1592  -36.0292   21.3215 N   0  3  0  0  0  0  0  0  0  0  0  0
  -26.2522  -22.9053   18.4328 N   0  3  1  0  0  0  0  0  0  0  0  0
  -21.1029  -15.7172   16.3604 O   0  0  0  0  0  0  0  0  0  0  0  0
  -23.8117  -30.0997   21.1945 O   0  0  0  0  0  0  0  0  0  0  0  0
  -27.3421  -31.6655   22.3058 O   0  0  0  0  0  0  0  0  0  0  0  0
  -29.6827  -25.0568   20.3019 O   0  0  0  0  0  0  0  0  0  0  0  0
  -23.5472  -33.8769   23.0273 O   0  0  0  0  0  0  0  0  0  0  0  0
  -26.2086   -9.0759   21.9949 O   0  0  0  0  0  0  0  0  0  0  0  0
  -20.9322  -19.6787   23.0584 O   0  0  0  0  0  0  0  0  0  0  0  0
  -27.1745  -24.3832   20.6956 O   0  0  0  0  0  0  0  0  0  1  0  0
  -24.7730  -21.1542   26.7292 F   0  0  0  0  0  0  0  0  0  0  0  0
  -22.1406  -22.1616   22.9265 F   0  0  0  0  0  0  0  0  0  0  0  0
  1  2  1  0  0  0  0
  1  5  2  0  0  0  0
  2  6  2  0  0  0  0
  3 16  2  0  0  0  0
  3 23  1  0  0  0  0
  4 17  1  0  0  0  0
  4 23  2  0  0  0  0
  5 25  1  0  0  0  0
  6 27  1  0  0  0  0
  7 18  2  0  0  0  0
  7 26  1  0  0  0  0
  8 10  2  0  0  0  0
  8 29  1  0  0  0  0
  9 11  1  0  0  0  0
  9 29  2  0  0  0  0
 10 31  1  0  0  0  0
 11 31  2  0  0  0  0
 12 14  2  0  0  0  0
 12 30  1  0  0  0  0
 13 15  1  0  0  0  0
 13 30  2  0  0  0  0
 14 32  1  0  0  0  0
 15 32  2  0  0  0  0
 16 33  1  0  0  0  0
 17 33  2  0  0  0  0
 18 34  1  0  0  0  0
 19 20  2  0  0  0  0
 19 35  1  0  0  0  0
 20 36  1  0  0  0  0
 21 28  1  0  0  0  0
 21 34  2  0  0  0  0
 22 36  2  0  0  0  0
 22 37  1  0  0  0  0
 23 38  1  0  0  0  0
 24 38  1  0  0  0  0
 24 39  2  0  0  0  0
 24 40  1  0  0  0  0
 25 27  2  0  0  0  0
 25 46  1  0  0  0  0
 26 28  2  0  0  0  0
 26 47  1  0  0  0  0
 27 59  1  0  0  0  0
 28 48  1  0  0  0  0
 29 70  1  0  0  0  0
 30 71  1  0  0  0  0
 31 72  1  0  0  0  0
 32 87  1  0  0  0  0
 33 97  1  0  0  0  0
 34 98  1  0  0  0  0
 35 37  2  0  0  0  0
 35 97  1  0  0  0  0
 36 99  1  0  0  0  0
 37100  1  0  0  0  0
 38 78  2  0  0  0  0
 39 79  1  0  0  0  0
 39 83  1  0  0  0  0
 40 84  1  0  0  0  0
 40 91  2  0  0  0  0
 41 60  1  0  0  0  0
 41 85  1  0  0  0  0
 41 92  2  0  0  0  0
 42 74  1  0  0  0  0
 42 80  1  0  0  0  0
 42 93  2  0  0  0  0
 43 75  1  0  0  0  0
 43 81  1  0  0  0  0
 43 94  2  0  0  0  0
 44 76  1  0  0  0  0
 44 86  1  0  0  0  0
 44 95  2  0  0  0  0
 45 82  1  0  0  0  0
 45 88  1  0  0  0  0
 45 96  2  0  0  0  0
 46 49  1  0  0  0  0
 47 60  1  0  0  0  0
 48 80  1  0  0  0  0
 49 53  1  0  0  0  0
 50 51  1  0  0  0  0
 50 55  1  0  0  0  0
 51 56  1  0  0  0  0
 52 54  1  0  0  0  0
 52 57  1  0  0  0  0
 53 59  1  0  0  0  0
 54 61  1  0  0  0  0
 55 81  1  0  0  0  0
 56 81  1  0  0  0  0
 57 82  1  0  0  0  0
 58 61  1  0  0  0  0
 58 82  1  0  0  0  0
 59 85  1  0  0  0  0
 60 80  1  0  0  0  0
 61 79  1  0  0  0  0
 62 76  1  0  0  0  0
 63 77  1  0  0  0  0
 64 77  1  0  0  0  0
 65 77  1  0  0  0  0
 66 87  1  0  0  0  0
 67 88  1  0  0  0  0
 68 89  1  0  0  0  0
 69 90  1  0  0  0  0
 70 87  1  0  0  0  0
 71 88  1  0  0  0  0
 72 90  1  0  0  0  0
 73 75  1  0  0  0  0
 73 90  1  0  0  0  0
 74 77  1  0  0  0  0
 74 86  1  0  0  0  0
 75 98  1  0  0  0  0
 76 89  1  0  0  0  0
 78 79  1  0  0  0  0
M  CHG  2  89   1  90   1
M  ISO  4  45 100  75 101  88 100  98 101
M  END
> <Batch ID>
0015

> <Smiles>
CNC(C)C(=O)NC(C(=O)N1Cc2cc([101O:1][101CH:1](CN(C)Cc3ccc(CN(C)c4ccc(C[100N:0](C)[100C:0](=O)N5CCCC(n6nc(-c7ccc(Oc8ccc(F)cc8F)cc7)c(C(N)=O)c6N)C5)cc4)cc3)C(=O)N3CCCC3)ccc2CC1C(=O)NC1CCCc2ccccc21)C(C)(C)C

> <Shape>
0.255

> <Color>
0.062

> <Negative vol penalty>
0.000

$$$$

  -OEChem-04042320543D

 90 98  0     1  0  0  0  0  0999 V2000
  -22.7043  -32.6684   13.9758 C   0  0  0  0  0  0  0  0  0  0  0  0
  -22.7265  -31.4817   14.7014 C   0  0  0  0  0  0  0  0  0  0  0  0
  -22.8552  -10.2570   20.6648 C   0  0  0  0  0  0  0  0  0  0  0  0
  -24.5060   -9.1636   22.0492 C   0  0  0  0  0  0  0  0  0  0  0  0
  -23.7162  -33.6112   14.1525 C   0  0  0  0  0  0  0  0  0  0  0  0
  -23.7614  -31.2365   15.6033 C   0  0  0  0  0  0  0  0  0  0  0  0
  -22.0966  -29.3899   20.0151 C   0  0  0  0  0  0  0  0  0  0  0  0
  -25.6259  -21.2180   20.4669 C   0  0  0  0  0  0  0  0  0  0  0  0
  -25.0946  -19.2910   21.8238 C   0  0  0  0  0  0  0  0  0  0  0  0
  -26.8234  -20.6159   20.0807 C   0  0  0  0  0  0  0  0  0  0  0  0
  -26.2921  -18.6888   21.4376 C   0  0  0  0  0  0  0  0  0  0  0  0
  -22.1245   -9.0707   20.5991 C   0  0  0  0  0  0  0  0  0  0  0  0
  -23.7752   -7.9773   21.9836 C   0  0  0  0  0  0  0  0  0  0  0  0
  -21.7546  -28.0388   20.0514 C   0  0  0  0  0  0  0  0  0  0  0  0
  -21.0263   -6.6631   23.4455 C   0  0  0  0  0  0  0  0  0  0  0  0
  -20.8394   -5.9524   24.6311 C   0  0  0  0  0  0  0  0  0  0  0  0
  -23.8839  -27.5333   21.0662 C   0  0  0  0  0  0  0  0  0  0  0  0
  -21.9720   -4.0480   23.6681 C   0  0  0  0  0  0  0  0  0  0  0  0
  -24.0460  -10.3035   21.3897 C   0  0  0  0  0  0  0  0  0  0  0  0
  -24.6768  -12.5524   22.4153 C   0  0  0  0  0  0  0  0  0  0  0  0
  -24.7587  -33.3817   15.0641 C   0  0  0  0  0  0  0  0  0  0  0  0
  -23.3413  -29.8222   20.4949 C   0  0  0  0  0  0  0  0  0  0  0  0
  -24.7889  -32.1765   15.7914 C   0  0  0  0  0  0  0  0  0  0  0  0
  -24.2382  -28.8907   21.0372 C   0  0  0  0  0  0  0  0  0  0  0  0
  -24.7615  -20.5555   21.3385 C   0  0  0  0  0  0  0  0  0  0  0  0
  -27.1565  -19.3513   20.5660 C   0  0  0  0  0  0  0  0  0  0  0  0
  -22.5844   -7.9309   21.2586 C   0  0  0  0  0  0  0  0  0  0  0  0
  -22.6494  -27.1099   20.5743 C   0  0  0  0  0  0  0  0  0  0  0  0
  -21.6860   -6.0661   22.3711 C   0  0  0  0  0  0  0  0  0  0  0  0
  -21.3122   -4.6449   24.7424 C   0  0  0  0  0  0  0  0  0  0  0  0
  -22.1588   -4.7586   22.4825 C   0  0  0  0  0  0  0  0  0  0  0  0
  -24.8016  -11.5284   21.4574 C   0  0  0  0  0  0  0  0  0  0  0  0
  -25.6108  -13.4877   22.0418 C   0  0  0  0  0  0  0  0  0  0  0  0
  -23.7955  -12.6495   23.5421 C   0  0  0  0  0  0  0  0  0  0  0  0
  -25.8641  -31.2643   19.2067 C   0  0  0  0  0  0  0  0  0  0  0  0
  -26.9012  -31.3390   22.2794 C   0  0  0  0  0  0  0  0  0  0  0  0
  -26.7666  -30.0008   25.4159 C   0  0  0  0  0  0  0  0  0  0  0  0
  -30.9886  -14.3431   20.4095 C   0  0  0  0  0  0  0  0  0  0  0  0
  -25.8557  -34.4096   15.1861 C   0  0  0  0  0  0  0  0  0  0  0  0
  -23.6843  -31.2865   20.4732 C   0  0  0  0  0  0  0  0  0  0  0  0
  -25.5789  -29.3060   21.5837 C   0  0  0  0  0  0  0  0  0  0  0  0
  -26.7148  -34.2380   16.4363 C   0  0  0  0  0  0  0  0  0  0  0  0
  -28.3660  -13.9163   17.8324 C   0  0  0  0  0  0  0  0  0  0  0  0
  -27.1151  -32.7767   16.6125 C   0  0  0  0  0  0  0  0  0  0  0  0
  -27.2255  -13.2749   18.6208 C   0  0  0  0  0  0  0  0  0  0  0  0
  -29.7287  -13.5786   18.4297 C   0  0  0  0  0  0  0  0  0  0  0  0
  -28.7122  -13.2721   20.6629 C   0  0  0  0  0  0  0  0  0  0  0  0
  -25.8812  -31.8851   16.7973 C   0  0  1  0  0  0  0  0  0  0  0  0
  -25.1865  -31.5491   20.5172 C   0  0  1  0  0  0  0  0  0  0  0  0
  -27.3230  -13.6309   20.1145 C   0  0  2  0  0  0  0  0  0  0  0  0
  -27.7567  -30.2504   27.7082 C   0  0  0  0  0  0  0  0  0  0  0  0
  -30.8728  -17.5649   19.5549 C   0  0  0  0  0  0  0  0  0  0  0  0
  -29.4670  -29.9991   21.3143 C   0  0  0  0  0  0  0  0  0  0  0  0
  -29.9793  -29.4226   23.6962 C   0  0  0  0  0  0  0  0  0  0  0  0
  -29.8084  -31.8126   23.0023 C   0  0  0  0  0  0  0  0  0  0  0  0
  -31.9724  -15.2200   22.4935 C   0  0  0  0  0  0  0  0  0  0  0  0
  -24.1266  -30.5852   26.6192 C   0  0  0  0  0  0  0  0  0  0  0  0
  -24.4345  -21.8212   23.9665 C   0  0  0  0  0  0  0  0  0  0  0  0
  -30.1278  -20.0786   21.3593 C   0  0  0  0  0  0  0  0  0  0  0  0
  -23.4733  -21.2024   21.7544 C   0  0  0  0  0  0  0  0  0  0  0  0
  -28.4363  -18.7075   20.1513 C   0  0  0  0  0  0  0  0  0  0  0  0
  -21.9160  -23.8748   21.9966 C   0  0  0  0  0  0  0  0  0  0  0  0
  -29.9606  -16.3288   21.5940 C   0  0  0  0  0  0  0  0  0  0  0  0
  -22.3944  -22.9773   23.1279 C   0  0  0  0  0  0  0  0  0  0  0  0
  -22.8781  -25.0089   21.6650 C   0  0  0  0  0  0  0  0  0  1  0  0
  -27.7080  -30.4139   23.1582 C   0  0  1  0  0  0  0  0  0  0  0  0
  -26.6183  -30.6474   26.7814 C   0  0  2  0  0  0  0  0  0  0  0  0
  -30.5064  -17.6392   21.0309 C   0  0  2  0  0  0  0  0  0  0  0  0
  -29.2163  -30.4036   22.7807 C   0  0  0  0  0  0  0  0  0  0  0  0
  -25.7408  -11.7886   20.5439 N   0  0  0  0  0  0  0  0  0  0  0  0
  -26.2145  -12.9867   20.9262 N   0  0  0  0  0  0  0  0  0  0  0  0
  -25.8707  -30.7482   21.5345 N   0  0  0  0  0  0  0  0  0  0  0  0
  -29.7796  -13.8867   19.8593 N   0  0  0  0  0  0  0  0  0  0  0  0
  -25.9662  -14.6816   22.5622 N   0  0  0  0  0  0  0  0  0  0  0  0
  -22.8985  -11.5995   23.7811 N   0  0  0  0  0  0  0  0  0  0  0  0
  -25.3713  -32.0012   18.1467 N   0  0  0  0  0  0  0  0  0  0  0  0
  -27.4390  -30.8196   24.5335 N   0  0  0  0  0  0  0  0  0  0  0  0
  -30.9036  -15.2161   21.5047 N   0  0  0  0  0  0  0  0  0  0  0  0
  -25.3327  -30.2354   27.4127 N   0  3  0  0  0  0  0  0  0  0  0  0
  -23.6659  -22.3099   22.7624 N   0  3  1  0  0  0  0  0  0  0  0  0
  -29.4788  -18.7262   21.2142 N   0  3  1  0  0  0  0  0  0  0  0  0
  -23.7919  -13.6456   24.3045 O   0  0  0  0  0  0  0  0  0  0  0  0
  -26.7682  -30.4383   19.1609 O   0  0  0  0  0  0  0  0  0  0  0  0
  -27.1707  -32.5426   22.2601 O   0  0  0  0  0  0  0  0  0  0  0  0
  -26.3328  -28.8800   25.1590 O   0  0  0  0  0  0  0  0  0  0  0  0
  -32.0815  -13.9981   19.9422 O   0  0  0  0  0  0  0  0  0  0  0  0
  -21.8715   -6.7732   21.1950 O   0  0  0  0  0  0  0  0  0  0  0  0
  -22.3184  -25.7904   20.6103 O   0  0  0  0  0  0  0  0  0  1  0  0
  -21.1341   -3.9632   25.8815 F   0  0  0  0  0  0  0  0  0  0  0  0
  -22.7944   -4.1802   21.4542 F   0  0  0  0  0  0  0  0  0  0  0  0
  1  2  1  0  0  0  0
  1  5  2  0  0  0  0
  2  6  2  0  0  0  0
  3 12  2  0  0  0  0
  3 19  1  0  0  0  0
  4 13  1  0  0  0  0
  4 19  2  0  0  0  0
  5 21  1  0  0  0  0
  6 23  1  0  0  0  0
  7 14  2  0  0  0  0
  7 22  1  0  0  0  0
  8 10  2  0  0  0  0
  8 25  1  0  0  0  0
  9 11  1  0  0  0  0
  9 25  2  0  0  0  0
 10 26  1  0  0  0  0
 11 26  2  0  0  0  0
 12 27  1  0  0  0  0
 13 27  2  0  0  0  0
 14 28  1  0  0  0  0
 15 16  2  0  0  0  0
 15 29  1  0  0  0  0
 16 30  1  0  0  0  0
 17 24  1  0  0  0  0
 17 28  2  0  0  0  0
 18 30  2  0  0  0  0
 18 31  1  0  0  0  0
 19 32  1  0  0  0  0
 20 32  1  0  0  0  0
 20 33  2  0  0  0  0
 20 34  1  0  0  0  0
 21 23  2  0  0  0  0
 21 39  1  0  0  0  0
 22 24  2  0  0  0  0
 22 40  1  0  0  0  0
 23 48  1  0  0  0  0
 24 41  1  0  0  0  0
 25 60  1  0  0  0  0
 26 61  1  0  0  0  0
 27 87  1  0  0  0  0
 28 88  1  0  0  0  0
 29 31  2  0  0  0  0
 29 87  1  0  0  0  0
 30 89  1  0  0  0  0
 31 90  1  0  0  0  0
 32 70  2  0  0  0  0
 33 71  1  0  0  0  0
 33 74  1  0  0  0  0
 34 75  1  0  0  0  0
 34 82  2  0  0  0  0
 35 49  1  0  0  0  0
 35 76  1  0  0  0  0
 35 83  2  0  0  0  0
 36 66  1  0  0  0  0
 36 72  1  0  0  0  0
 36 84  2  0  0  0  0
 37 67  1  0  0  0  0
 37 77  1  0  0  0  0
 37 85  2  0  0  0  0
 38 73  1  0  0  0  0
 38 78  1  0  0  0  0
 38 86  2  0  0  0  0
 39 42  1  0  0  0  0
 40 49  1  0  0  0  0
 41 72  1  0  0  0  0
 42 44  1  0  0  0  0
 43 45  1  0  0  0  0
 43 46  1  0  0  0  0
 44 48  1  0  0  0  0
 45 50  1  0  0  0  0
 46 73  1  0  0  0  0
 47 50  1  0  0  0  0
 47 73  1  0  0  0  0
 48 76  1  0  0  0  0
 49 72  1  0  0  0  0
 50 71  1  0  0  0  0
 51 67  1  0  0  0  0
 52 68  1  0  0  0  0
 53 69  1  0  0  0  0
 54 69  1  0  0  0  0
 55 69  1  0  0  0  0
 56 78  1  0  0  0  0
 57 79  1  0  0  0  0
 58 80  1  0  0  0  0
 59 81  1  0  0  0  0
 60 80  1  0  0  0  0
 61 81  1  0  0  0  0
 62 64  1  0  0  0  0
 62 65  1  0  0  0  0
 63 68  1  0  0  0  0
 63 78  1  0  0  0  0
 64 80  1  0  0  0  0
 65 88  1  0  0  0  0
 66 69  1  0  0  0  0
 66 77  1  0  0  0  0
 67 79  1  0  0  0  0
 68 81  1  0  0  0  0
 70 71  1  0  0  0  0
M  CHG  3  79   1  80   1  81   1
M  ISO  4  38 100  65 101  78 100  88 101
M  END
> <Batch ID>
0015

> <Smiles>
CNC(C)C(=O)NC(C(=O)N1Cc2cc([101O:1][101CH2:1]CCN(C)Cc3ccc(CN(C)C(C)C[100N:0](C)[100C:0](=O)N4CCCC(n5nc(-c6ccc(Oc7ccc(F)cc7F)cc6)c(C(N)=O)c5N)C4)cc3)ccc2CC1C(=O)NC1CCCc2ccccc21)C(C)(C)C

> <Shape>
0.283

> <Color>
0.121

> <Negative vol penalty>
0.000

$$$$

  -OEChem-04042320543D

 86 95  0     1  0  0  0  0  0999 V2000
  -22.7328  -18.0526   15.5513 C   0  0  0  0  0  0  0  0  0  0  0  0
  -23.7008  -17.3415   16.2532 C   0  0  0  0  0  0  0  0  0  0  0  0
  -26.4225  -28.4569   18.9840 C   0  0  0  0  0  0  0  0  0  0  0  0
  -26.1397  -27.4362   21.1555 C   0  0  0  0  0  0  0  0  0  0  0  0
  -21.7151  -18.7100   16.2412 C   0  0  0  0  0  0  0  0  0  0  0  0
  -23.6522  -17.2884   17.6458 C   0  0  0  0  0  0  0  0  0  0  0  0
  -24.4549  -12.6216   19.4409 C   0  0  0  0  0  0  0  0  0  0  0  0
  -30.9870  -17.1080   19.0176 C   0  0  0  0  0  0  0  0  0  0  0  0
  -30.6941  -16.7788   21.3930 C   0  0  0  0  0  0  0  0  0  0  0  0
  -30.2515  -18.2908   19.0907 C   0  0  0  0  0  0  0  0  0  0  0  0
  -29.9586  -17.9618   21.4662 C   0  0  0  0  0  0  0  0  0  0  0  0
  -25.3914  -29.3516   19.2703 C   0  0  0  0  0  0  0  0  0  0  0  0
  -25.1086  -28.3309   21.4418 C   0  0  0  0  0  0  0  0  0  0  0  0
  -25.7739  -12.1714   19.4769 C   0  0  0  0  0  0  0  0  0  0  0  0
  -24.8075  -31.5514   22.4205 C   0  0  0  0  0  0  0  0  0  0  0  0
  -24.8073  -32.1572   23.6769 C   0  0  0  0  0  0  0  0  0  0  0  0
  -25.8821  -12.6951   21.8292 C   0  0  0  0  0  0  0  0  0  0  0  0
  -22.6451  -31.1862   24.1449 C   0  0  0  0  0  0  0  0  0  0  0  0
  -26.7967  -27.4992   19.9266 C   0  0  0  0  0  0  0  0  0  0  0  0
  -29.2341  -26.7471   19.8914 C   0  0  0  0  0  0  0  0  0  0  0  0
  -21.6486  -18.6569   17.6424 C   0  0  0  0  0  0  0  0  0  0  0  0
  -23.8421  -13.1229   20.5984 C   0  0  0  0  0  0  0  0  0  0  0  0
  -22.6335  -17.9468   18.3553 C   0  0  0  0  0  0  0  0  0  0  0  0
  -24.5544  -13.1486   21.8059 C   0  0  0  0  0  0  0  0  0  0  0  0
  -31.2083  -16.3519   20.1687 C   0  0  0  0  0  0  0  0  0  0  0  0
  -29.7373  -18.7178   20.3150 C   0  0  0  0  0  0  0  0  0  0  0  0
  -24.7344  -29.2886   20.4991 C   0  0  0  0  0  0  0  0  0  0  0  0
  -26.4886  -12.2108   20.6705 C   0  0  0  0  0  0  0  0  0  0  0  0
  -23.7264  -30.7630   22.0263 C   0  0  0  0  0  0  0  0  0  0  0  0
  -23.7262  -31.9746   24.5391 C   0  0  0  0  0  0  0  0  0  0  0  0
  -22.6452  -30.5804   22.8885 C   0  0  0  0  0  0  0  0  0  0  0  0
  -27.8614  -26.5743   19.6313 C   0  0  0  0  0  0  0  0  0  0  0  0
  -29.8193  -25.5947   19.4268 C   0  0  0  0  0  0  0  0  0  0  0  0
  -31.0384  -13.3804   21.7346 C   0  0  0  0  0  0  0  0  0  0  0  0
  -29.9189  -27.8506   20.4988 C   0  0  0  0  0  0  0  0  0  0  0  0
  -22.6090  -15.9265   21.4489 C   0  0  0  0  0  0  0  0  0  0  0  0
  -21.7166  -14.2886   24.1029 C   0  0  0  0  0  0  0  0  0  0  0  0
  -22.2472  -11.6389   26.1871 C   0  0  0  0  0  0  0  0  0  0  0  0
  -27.2419  -20.1088   18.5323 C   0  0  0  0  0  0  0  0  0  0  0  0
  -20.5568  -19.4227   18.3469 C   0  0  0  0  0  0  0  0  0  0  0  0
  -22.4099  -13.5799   20.5489 C   0  0  0  0  0  0  0  0  0  0  0  0
  -23.9356  -13.6586   23.0808 C   0  0  0  0  0  0  0  0  0  0  0  0
  -20.3622  -19.0059   19.8025 C   0  0  0  0  0  0  0  0  0  0  0  0
  -29.2491  -22.1389   16.1761 C   0  0  0  0  0  0  0  0  0  0  0  0
  -21.7077  -18.9092   20.5145 C   0  0  0  0  0  0  0  0  0  0  0  0
  -29.1708  -23.5358   16.7897 C   0  0  0  0  0  0  0  0  0  0  0  0
  -28.0207  -21.3004   16.5161 C   0  0  0  0  0  0  0  0  0  0  0  0
  -30.3122  -13.1098   19.7813 C   0  0  0  0  0  0  0  0  0  0  0  0
  -27.6635  -22.6012   18.5883 C   0  0  0  0  0  0  0  0  0  0  0  0
  -22.6005  -17.8452   19.8648 C   0  0  1  0  0  0  0  0  0  0  0  0
  -30.0601  -12.3547   21.1144 C   0  0  2  0  0  0  0  0  0  0  0  0
  -22.0527  -14.5486   21.6720 C   0  0  1  0  0  0  0  0  0  0  0  0
  -28.9075  -23.4561   18.3035 C   0  0  2  0  0  0  0  0  0  0  0  0
  -21.3807  -10.5849   28.2932 C   0  0  0  0  0  0  0  0  0  0  0  0
  -23.0924  -16.4567   25.7511 C   0  0  0  0  0  0  0  0  0  0  0  0
  -23.0322  -14.9045   27.7146 C   0  0  0  0  0  0  0  0  0  0  0  0
  -20.9018  -15.6780   26.6726 C   0  0  0  0  0  0  0  0  0  0  0  0
  -26.6734  -19.0926   20.7057 C   0  0  0  0  0  0  0  0  0  0  0  0
  -21.5482   -9.1299   24.7816 C   0  0  0  0  0  0  0  0  0  0  0  0
  -31.9999  -15.0785   20.0909 C   0  0  0  0  0  0  0  0  0  0  0  0
  -28.9524  -19.9836   20.3927 C   0  0  0  0  0  0  0  0  0  0  0  0
  -28.6449  -12.3894   21.6578 C   0  0  0  0  0  0  0  0  0  1  0  0
  -22.3455  -14.0042   25.4455 C   0  0  1  0  0  0  0  0  0  0  0  0
  -21.2948  -10.6133   26.7751 C   0  0  2  0  0  0  0  0  0  0  0  0
  -22.3555  -15.2530   26.3717 C   0  0  0  0  0  0  0  0  0  0  0  0
  -27.5906  -25.4044   19.0466 N   0  0  0  0  0  0  0  0  0  0  0  0
  -28.8013  -24.8316   18.9354 N   0  0  0  0  0  0  0  0  0  0  0  0
  -31.2386  -13.9476   20.5243 N   0  0  0  0  0  0  0  0  0  0  0  0
  -22.5348  -14.1002   22.9799 N   0  0  0  0  0  0  0  0  0  0  0  0
  -27.7685  -21.2771   17.9572 N   0  0  0  0  0  0  0  0  0  0  0  0
  -31.1003  -25.1698   19.3947 N   0  0  0  0  0  0  0  0  0  0  0  0
  -29.1653  -28.9551   20.9191 N   0  0  0  0  0  0  0  0  0  0  0  0
  -22.1874  -16.5200   20.2744 N   0  0  0  0  0  0  0  0  0  0  0  0
  -21.6311  -12.8576   25.9962 N   0  0  0  0  0  0  0  0  0  0  0  0
  -27.5999  -19.8322   19.8604 N   0  0  0  0  0  0  0  0  0  0  0  0
  -21.6171   -9.2523   26.2605 N   0  3  0  0  0  0  0  0  0  0  0  0
  -31.4687  -13.6204   22.8392 O   0  0  0  0  0  0  0  0  0  0  0  0
  -31.1642  -27.8641   20.6492 O   0  0  0  0  0  0  0  0  0  0  0  0
  -23.3636  -16.4155   22.2814 O   0  0  0  0  0  0  0  0  0  0  0  0
  -20.5406  -14.6573   24.0518 O   0  0  0  0  0  0  0  0  0  0  0  0
  -23.4214  -11.3854   25.9270 O   0  0  0  0  0  0  0  0  0  0  0  0
  -26.5021  -19.3509   17.8918 O   0  0  0  0  0  0  0  0  0  0  0  0
  -23.7284  -30.1616   20.7789 O   0  0  0  0  0  0  0  0  0  0  0  0
  -27.7764  -11.7725   20.7083 O   0  0  0  0  0  0  0  0  0  1  0  0
  -23.7269  -32.5552   25.7462 F   0  0  0  0  0  0  0  0  0  0  0  0
  -21.6044  -29.8231   22.5157 F   0  0  0  0  0  0  0  0  0  0  0  0
  1  2  1  0  0  0  0
  1  5  2  0  0  0  0
  2  6  2  0  0  0  0
  3 12  2  0  0  0  0
  3 19  1  0  0  0  0
  4 13  1  0  0  0  0
  4 19  2  0  0  0  0
  5 21  1  0  0  0  0
  6 23  1  0  0  0  0
  7 14  2  0  0  0  0
  7 22  1  0  0  0  0
  8 10  2  0  0  0  0
  8 25  1  0  0  0  0
  9 11  1  0  0  0  0
  9 25  2  0  0  0  0
 10 26  1  0  0  0  0
 11 26  2  0  0  0  0
 12 27  1  0  0  0  0
 13 27  2  0  0  0  0
 14 28  1  0  0  0  0
 15 16  2  0  0  0  0
 15 29  1  0  0  0  0
 16 30  1  0  0  0  0
 17 24  1  0  0  0  0
 17 28  2  0  0  0  0
 18 30  2  0  0  0  0
 18 31  1  0  0  0  0
 19 32  1  0  0  0  0
 20 32  1  0  0  0  0
 20 33  2  0  0  0  0
 20 35  1  0  0  0  0
 21 23  2  0  0  0  0
 21 40  1  0  0  0  0
 22 24  2  0  0  0  0
 22 41  1  0  0  0  0
 23 50  1  0  0  0  0
 24 42  1  0  0  0  0
 25 60  1  0  0  0  0
 26 61  1  0  0  0  0
 27 83  1  0  0  0  0
 28 84  1  0  0  0  0
 29 31  2  0  0  0  0
 29 83  1  0  0  0  0
 30 85  1  0  0  0  0
 31 86  1  0  0  0  0
 32 66  2  0  0  0  0
 33 67  1  0  0  0  0
 33 71  1  0  0  0  0
 34 51  1  0  0  0  0
 34 68  1  0  0  0  0
 34 77  2  0  0  0  0
 35 72  1  0  0  0  0
 35 78  2  0  0  0  0
 36 52  1  0  0  0  0
 36 73  1  0  0  0  0
 36 79  2  0  0  0  0
 37 63  1  0  0  0  0
 37 69  1  0  0  0  0
 37 80  2  0  0  0  0
 38 64  1  0  0  0  0
 38 74  1  0  0  0  0
 38 81  2  0  0  0  0
 39 70  1  0  0  0  0
 39 75  1  0  0  0  0
 39 82  2  0  0  0  0
 40 43  1  0  0  0  0
 41 52  1  0  0  0  0
 42 69  1  0  0  0  0
 43 45  1  0  0  0  0
 44 46  1  0  0  0  0
 44 47  1  0  0  0  0
 45 50  1  0  0  0  0
 46 53  1  0  0  0  0
 47 70  1  0  0  0  0
 48 51  1  0  0  0  0
 48 68  1  0  0  0  0
 49 53  1  0  0  0  0
 49 70  1  0  0  0  0
 50 73  1  0  0  0  0
 51 62  1  0  0  0  0
 52 69  1  0  0  0  0
 53 67  1  0  0  0  0
 54 64  1  0  0  0  0
 55 65  1  0  0  0  0
 56 65  1  0  0  0  0
 57 65  1  0  0  0  0
 58 75  1  0  0  0  0
 59 76  1  0  0  0  0
 60 68  1  0  0  0  0
 61 75  1  0  0  0  0
 62 84  1  0  0  0  0
 63 65  1  0  0  0  0
 63 74  1  0  0  0  0
 64 76  1  0  0  0  0
 66 67  1  0  0  0  0
M  CHG  1  76   1
M  ISO  4  39 100  62 101  75 100  84 101
M  END
> <Batch ID>
0015

> <Smiles>
CNC(C)C(=O)NC(C(=O)N1Cc2cc([101O:1][101CH2:1]C3CN(Cc4ccc(C[100N:0](C)[100C:0](=O)N5CCCC(n6nc(-c7ccc(Oc8ccc(F)cc8F)cc7)c(C(N)=O)c6N)C5)cc4)C3=O)ccc2CC1C(=O)NC1CCCc2ccccc21)C(C)(C)C

> <Shape>
0.241

> <Color>
0.055

> <Negative vol penalty>
0.000

$$$$

  -OEChem-04042320543D

 86 94  0     1  0  0  0  0  0999 V2000
  -27.2860  -33.0988   27.6039 C   0  0  0  0  0  0  0  0  0  0  0  0
  -27.7312  -32.5641   26.3992 C   0  0  0  0  0  0  0  0  0  0  0  0
  -32.4399  -22.6700   20.6838 C   0  0  0  0  0  0  0  0  0  0  0  0
  -25.4577  -16.5907   21.6463 C   0  0  0  0  0  0  0  0  0  0  0  0
  -24.4050  -17.7120   19.7831 C   0  0  0  0  0  0  0  0  0  0  0  0
  -26.3797  -32.3870   28.3886 C   0  0  0  0  0  0  0  0  0  0  0  0
  -27.2711  -31.3166   25.9791 C   0  0  0  0  0  0  0  0  0  0  0  0
  -26.2047  -29.5353   20.2175 C   0  0  0  0  0  0  0  0  0  0  0  0
  -32.1531  -22.4094   22.0237 C   0  0  0  0  0  0  0  0  0  0  0  0
  -31.8303  -23.7446   20.0363 C   0  0  0  0  0  0  0  0  0  0  0  0
  -24.4632  -15.6130   21.6199 C   0  0  0  0  0  0  0  0  0  0  0  0
  -23.4105  -16.7343   19.7566 C   0  0  0  0  0  0  0  0  0  0  0  0
  -26.9602  -28.7946   19.3097 C   0  0  0  0  0  0  0  0  0  0  0  0
  -23.7238  -12.8607   19.8003 C   0  0  0  0  0  0  0  0  0  0  0  0
  -24.1222  -11.5279   19.9036 C   0  0  0  0  0  0  0  0  0  0  0  0
  -25.7679  -26.7992   19.9548 C   0  0  0  0  0  0  0  0  0  0  0  0
  -22.8015  -11.2890   21.9126 C   0  0  0  0  0  0  0  0  0  0  0  0
  -25.4286  -17.6403   20.7280 C   0  0  0  0  0  0  0  0  0  0  0  0
  -27.6778  -18.6396   20.0574 C   0  0  0  0  0  0  0  0  0  0  0  0
  -25.9009  -31.1344   27.9732 C   0  0  0  0  0  0  0  0  0  0  0  0
  -25.2309  -28.9106   21.0100 C   0  0  0  0  0  0  0  0  0  0  0  0
  -26.3586  -30.5867   26.7596 C   0  0  0  0  0  0  0  0  0  0  0  0
  -24.9996  -27.5347   20.8701 C   0  0  0  0  0  0  0  0  0  0  0  0
  -31.2565  -23.2233   22.7161 C   0  0  0  0  0  0  0  0  0  0  0  0
  -30.9338  -24.5585   20.7287 C   0  0  0  0  0  0  0  0  0  0  0  0
  -23.4397  -15.6848   20.6750 C   0  0  0  0  0  0  0  0  0  0  0  0
  -26.7439  -27.4258   19.1802 C   0  0  0  0  0  0  0  0  0  0  0  0
  -22.8644  -13.4077   20.7531 C   0  0  0  0  0  0  0  0  0  0  0  0
  -23.6610  -10.7421   20.9598 C   0  0  0  0  0  0  0  0  0  0  0  0
  -22.4032  -12.6218   21.8092 C   0  0  0  0  0  0  0  0  0  0  0  0
  -30.6469  -24.2979   22.0686 C   0  0  0  0  0  0  0  0  0  0  0  0
  -26.4552  -18.6509   20.7552 C   0  0  0  0  0  0  0  0  0  0  0  0
  -28.2898  -19.8152   20.4180 C   0  0  0  0  0  0  0  0  0  0  0  0
  -28.2125  -17.6547   19.1632 C   0  0  0  0  0  0  0  0  0  0  0  0
  -24.8030  -28.5044   24.1334 C   0  0  0  0  0  0  0  0  0  0  0  0
  -21.9698  -27.2406   23.1858 C   0  0  0  0  0  0  0  0  0  0  0  0
  -20.1449  -25.7436   20.7209 C   0  0  0  0  0  0  0  0  0  0  0  0
  -29.7243  -23.2511   24.7017 C   0  0  0  0  0  0  0  0  0  0  0  0
  -24.9583  -30.3811   28.8780 C   0  0  0  0  0  0  0  0  0  0  0  0
  -24.4059  -29.7284   21.9654 C   0  0  0  0  0  0  0  0  0  0  0  0
  -23.9522  -26.8200   21.6829 C   0  0  0  0  0  0  0  0  0  0  0  0
  -24.2319  -29.2335   28.1811 C   0  0  0  0  0  0  0  0  0  0  0  0
  -26.5487  -23.8500   22.8989 C   0  0  0  0  0  0  0  0  0  0  0  0
  -25.2118  -28.4024   27.3590 C   0  0  0  0  0  0  0  0  0  0  0  0
  -26.3028  -22.5178   22.1931 C   0  0  0  0  0  0  0  0  0  0  0  0
  -27.3401  -23.6690   24.1907 C   0  0  0  0  0  0  0  0  0  0  0  0
  -28.3881  -21.6105   23.2930 C   0  0  0  0  0  0  0  0  0  0  0  0
  -25.8636  -29.2475   26.2579 C   0  0  1  0  0  0  0  0  0  0  0  0
  -23.7957  -28.8978   23.0902 C   0  0  1  0  0  0  0  0  0  0  0  0
  -27.6276  -21.7705   21.9681 C   0  0  1  0  0  0  0  0  0  0  0  0
  -17.8694  -24.7936   20.2552 C   0  0  0  0  0  0  0  0  0  0  0  0
  -22.6767  -24.7571   24.8115 C   0  0  0  0  0  0  0  0  0  0  0  0
  -20.8875  -23.5210   23.5709 C   0  0  0  0  0  0  0  0  0  0  0  0
  -20.2895  -25.4797   24.9952 C   0  0  0  0  0  0  0  0  0  0  0  0
  -29.0953  -25.0236   16.5310 C   0  0  0  0  0  0  0  0  0  0  0  0
  -29.2776  -23.3742   18.4004 C   0  0  0  0  0  0  0  0  0  0  0  0
  -32.0730  -22.5892   24.9793 C   0  0  0  0  0  0  0  0  0  0  0  0
  -29.7459  -26.7342   20.8529 C   0  0  0  0  0  0  0  0  0  0  0  0
  -19.6495  -27.6902   18.5474 C   0  0  0  0  0  0  0  0  0  0  0  0
  -30.2579  -25.7046   18.6334 C   0  0  0  0  0  0  0  0  0  0  0  0
  -27.7228  -25.3320   18.6201 C   0  0  0  0  0  0  0  0  0  1  0  0
  -21.4890  -25.8618   22.8027 C   0  0  1  0  0  0  0  0  0  0  0  0
  -18.7542  -26.0284   20.1830 C   0  0  2  0  0  0  0  0  0  0  0  0
  -21.3568  -24.9177   24.0310 C   0  0  0  0  0  0  0  0  0  0  0  0
  -29.0875  -24.8653   18.0657 C   0  0  0  0  0  0  0  0  0  0  0  0
  -26.2982  -19.7466   21.5027 N   0  0  0  0  0  0  0  0  0  0  0  0
  -27.4302  -20.4348   21.2767 N   0  0  0  0  0  0  0  0  0  0  0  0
  -23.1757  -27.6620   22.6079 N   0  0  0  0  0  0  0  0  0  0  0  0
  -28.5688  -22.9041   23.9719 N   0  0  0  0  0  0  0  0  0  0  0  0
  -29.4740  -20.3689   20.0813 N   0  0  0  0  0  0  0  0  0  0  0  0
  -27.4525  -16.5063   18.9024 N   0  0  0  0  0  0  0  0  0  0  0  0
  -24.9490  -29.4279   25.1510 N   0  0  0  0  0  0  0  0  0  0  0  0
  -20.2478  -26.0539   22.0604 N   0  0  0  0  0  0  0  0  0  0  0  0
  -30.9620  -22.9508   24.1017 N   0  0  0  0  0  0  0  0  0  0  0  0
  -30.3230  -25.6372   20.0755 N   0  0  3  0  0  0  0  0  0  0  0  0
  -18.8290  -26.4705   18.7618 N   0  3  0  0  0  0  0  0  0  0  0  0
  -29.3383  -17.7812   18.6245 O   0  0  0  0  0  0  0  0  0  0  0  0
  -25.4023  -27.4412   24.0240 O   0  0  0  0  0  0  0  0  0  0  0  0
  -21.2965  -27.9214   23.9634 O   0  0  0  0  0  0  0  0  0  0  0  0
  -21.0485  -25.2878   20.0235 O   0  0  0  0  0  0  0  0  0  0  0  0
  -29.6592  -23.7437   25.8348 O   0  0  0  0  0  0  0  0  0  0  0  0
  -22.4692  -14.7308   20.6487 O   0  0  0  0  0  0  0  0  0  0  0  0
  -27.4804  -26.7003   18.2953 O   0  0  0  0  0  0  0  0  0  1  0  0
  -24.0423   -9.4618   21.0580 F   0  0  0  0  0  0  0  0  0  0  0  0
  -21.5764  -13.1414   22.7270 F   0  0  0  0  0  0  0  0  0  0  0  0
  -29.7843  -25.0810   22.7344 F   0  0  0  0  0  0  0  0  0  0  0  0
  1  2  1  0  0  0  0
  1  6  2  0  0  0  0
  2  7  2  0  0  0  0
  3  9  1  0  0  0  0
  3 10  2  0  0  0  0
  4 11  2  0  0  0  0
  4 18  1  0  0  0  0
  5 12  1  0  0  0  0
  5 18  2  0  0  0  0
  6 20  1  0  0  0  0
  7 22  1  0  0  0  0
  8 13  2  0  0  0  0
  8 21  1  0  0  0  0
  9 24  2  0  0  0  0
 10 25  1  0  0  0  0
 11 26  1  0  0  0  0
 12 26  2  0  0  0  0
 13 27  1  0  0  0  0
 14 15  2  0  0  0  0
 14 28  1  0  0  0  0
 15 29  1  0  0  0  0
 16 23  1  0  0  0  0
 16 27  2  0  0  0  0
 17 29  2  0  0  0  0
 17 30  1  0  0  0  0
 18 32  1  0  0  0  0
 19 32  1  0  0  0  0
 19 33  2  0  0  0  0
 19 34  1  0  0  0  0
 20 22  2  0  0  0  0
 20 39  1  0  0  0  0
 21 23  2  0  0  0  0
 21 40  1  0  0  0  0
 22 48  1  0  0  0  0
 23 41  1  0  0  0  0
 24 31  1  0  0  0  0
 24 74  1  0  0  0  0
 25 31  2  0  0  0  0
 25 75  1  0  0  0  0
 26 82  1  0  0  0  0
 27 83  1  0  0  0  0
 28 30  2  0  0  0  0
 28 82  1  0  0  0  0
 29 84  1  0  0  0  0
 30 85  1  0  0  0  0
 31 86  1  0  0  0  0
 32 66  2  0  0  0  0
 33 67  1  0  0  0  0
 33 70  1  0  0  0  0
 34 71  1  0  0  0  0
 34 77  2  0  0  0  0
 35 49  1  0  0  0  0
 35 72  1  0  0  0  0
 35 78  2  0  0  0  0
 36 62  1  0  0  0  0
 36 68  1  0  0  0  0
 36 79  2  0  0  0  0
 37 63  1  0  0  0  0
 37 73  1  0  0  0  0
 37 80  2  0  0  0  0
 38 69  1  0  0  0  0
 38 74  1  0  0  0  0
 38 81  2  0  0  0  0
 39 42  1  0  0  0  0
 40 49  1  0  0  0  0
 41 68  1  0  0  0  0
 42 44  1  0  0  0  0
 43 45  1  0  0  0  0
 43 46  1  0  0  0  0
 44 48  1  0  0  0  0
 45 50  1  0  0  0  0
 46 69  1  0  0  0  0
 47 50  1  0  0  0  0
 47 69  1  0  0  0  0
 48 72  1  0  0  0  0
 49 68  1  0  0  0  0
 50 67  1  0  0  0  0
 51 63  1  0  0  0  0
 52 64  1  0  0  0  0
 53 64  1  0  0  0  0
 54 64  1  0  0  0  0
 55 65  1  0  0  0  0
 56 65  1  0  0  0  0
 57 74  1  0  0  0  0
 58 75  1  0  0  0  0
 59 76  1  0  0  0  0
 60 65  1  0  0  0  0
 60 75  1  0  0  0  0
 61 65  1  0  0  0  0
 61 83  1  0  0  0  0
 62 64  1  0  0  0  0
 62 73  1  0  0  0  0
 63 76  1  0  0  0  0
 66 67  1  0  0  0  0
M  CHG  1  76   1
M  ISO  4  38 100  61 101  74 100  83 101
M  END
> <Batch ID>
0015

> <Smiles>
CNC(C)C(=O)NC(C(=O)N1Cc2cc([101O:1][101CH2:1]C(C)(C)CN(C)c3cccc([100N:0](C)[100C:0](=O)N4CCCC(n5nc(-c6ccc(Oc7ccc(F)cc7F)cc6)c(C(N)=O)c5N)C4)c3F)ccc2CC1C(=O)NC1CCCc2ccccc21)C(C)(C)C

> <Shape>
0.225

> <Color>
0.060

> <Negative vol penalty>
0.000

$$$$

  -OEChem-04042320543D

 79 87  0     1  0  0  0  0  0999 V2000
  -28.0836  -37.0373   21.1610 C   0  0  0  0  0  0  0  0  0  0  0  0
  -28.4933  -35.7188   20.9901 C   0  0  0  0  0  0  0  0  0  0  0  0
  -26.8786  -12.7373   21.8102 C   0  0  0  0  0  0  0  0  0  0  0  0
  -26.2304  -14.3669   20.1484 C   0  0  0  0  0  0  0  0  0  0  0  0
  -26.9671  -37.3230   21.9456 C   0  0  0  0  0  0  0  0  0  0  0  0
  -27.7873  -34.6853   21.6048 C   0  0  0  0  0  0  0  0  0  0  0  0
  -26.8428  -29.0511   19.3981 C   0  0  0  0  0  0  0  0  0  0  0  0
  -29.9120  -23.9372   21.6534 C   0  0  0  0  0  0  0  0  0  0  0  0
  -30.3901  -22.6753   22.0063 C   0  0  0  0  0  0  0  0  0  0  0  0
  -25.5587  -12.2931   21.8894 C   0  0  0  0  0  0  0  0  0  0  0  0
  -24.9105  -13.9227   20.2276 C   0  0  0  0  0  0  0  0  0  0  0  0
  -27.4768  -27.8323   19.6354 C   0  0  0  0  0  0  0  0  0  0  0  0
  -22.4262  -10.4874   22.2655 C   0  0  0  0  0  0  0  0  0  0  0  0
  -22.2047   -9.1103   22.2726 C   0  0  0  0  0  0  0  0  0  0  0  0
  -25.7890  -27.2790   21.2677 C   0  0  0  0  0  0  0  0  0  0  0  0
  -29.5679  -21.7799   19.9185 C   0  0  0  0  0  0  0  0  0  0  0  0
  -23.2649   -8.9286   20.1092 C   0  0  0  0  0  0  0  0  0  0  0  0
  -27.2144  -13.7743   20.9397 C   0  0  0  0  0  0  0  0  0  0  0  0
  -29.5850  -13.7578   19.9976 C   0  0  0  0  0  0  0  0  0  0  0  0
  -26.2413  -36.2916   22.5624 C   0  0  0  0  0  0  0  0  0  0  0  0
  -25.6813  -29.3983   20.1028 C   0  0  0  0  0  0  0  0  0  0  0  0
  -26.6608  -34.9575   22.3995 C   0  0  0  0  0  0  0  0  0  0  0  0
  -25.1407  -28.5017   21.0356 C   0  0  0  0  0  0  0  0  0  0  0  0
  -29.2617  -24.1205   20.4330 C   0  0  0  0  0  0  0  0  0  0  0  0
  -30.2181  -21.5966   21.1389 C   0  0  0  0  0  0  0  0  0  0  0  0
  -24.5747  -12.8858   21.0981 C   0  0  0  0  0  0  0  0  0  0  0  0
  -26.9516  -26.9473   20.5724 C   0  0  0  0  0  0  0  0  0  0  0  0
  -23.0669  -11.0852   21.1802 C   0  0  0  0  0  0  0  0  0  0  0  0
  -22.6241   -8.3309   21.1945 C   0  0  0  0  0  0  0  0  0  0  0  0
  -29.0897  -23.0418   19.5656 C   0  0  0  0  0  0  0  0  0  0  0  0
  -23.4863  -10.3058   20.1021 C   0  0  0  0  0  0  0  0  0  0  0  0
  -28.5775  -14.2339   20.8578 C   0  0  0  0  0  0  0  0  0  0  0  0
  -30.6881  -14.5148   20.3085 C   0  0  0  0  0  0  0  0  0  0  0  0
  -29.5288  -12.7236   19.0061 C   0  0  0  0  0  0  0  0  0  0  0  0
  -24.8922  -31.7254   22.1191 C   0  0  0  0  0  0  0  0  0  0  0  0
  -21.9349  -30.4185   21.8581 C   0  0  0  0  0  0  0  0  0  0  0  0
  -20.0316  -27.6759   21.1493 C   0  0  0  0  0  0  0  0  0  0  0  0
  -31.3673  -19.9608   22.6717 C   0  0  0  0  0  0  0  0  0  0  0  0
  -25.0691  -36.6531   23.4398 C   0  0  0  0  0  0  0  0  0  0  0  0
  -24.9943  -30.7053   19.8159 C   0  0  0  0  0  0  0  0  0  0  0  0
  -23.8846  -28.8183   21.8040 C   0  0  0  0  0  0  0  0  0  0  0  0
  -24.1541  -35.4715   23.7512 C   0  0  0  0  0  0  0  0  0  0  0  0
  -32.6837  -16.9076   23.9453 C   0  0  0  0  0  0  0  0  0  0  0  0
  -24.9758  -34.2543   24.1636 C   0  0  0  0  0  0  0  0  0  0  0  0
  -31.8759  -15.8320   23.2153 C   0  0  0  0  0  0  0  0  0  0  0  0
  -31.8282  -18.1270   24.2841 C   0  0  0  0  0  0  0  0  0  0  0  0
  -30.2957  -17.6363   22.4187 C   0  0  0  0  0  0  0  0  0  0  0  0
  -25.9064  -33.8070   23.0298 C   0  0  1  0  0  0  0  0  0  0  0  0
  -24.1054  -31.1773   20.9624 C   0  0  1  0  0  0  0  0  0  0  0  0
  -31.1307  -16.4155   21.9989 C   0  0  2  0  0  0  0  0  0  0  0  0
  -17.6456  -26.9035   21.0599 C   0  0  0  0  0  0  0  0  0  0  0  0
  -21.8790  -30.2460   24.9040 C   0  0  0  0  0  0  0  0  0  0  0  0
  -19.9638  -28.6454   24.7087 C   0  0  0  0  0  0  0  0  0  0  0  0
  -19.7276  -30.9796   23.8611 C   0  0  0  0  0  0  0  0  0  0  0  0
  -20.2122  -27.0776   18.2565 C   0  0  0  0  0  0  0  0  0  0  0  0
  -28.7507  -25.4800   20.0564 C   0  0  0  0  0  0  0  0  0  1  0  0
  -21.1740  -29.3402   22.5913 C   0  0  1  0  0  0  0  0  0  0  0  0
  -18.8031  -27.5010   20.2749 C   0  0  2  0  0  0  0  0  0  0  0  0
  -20.7109  -29.7974   24.0033 C   0  0  0  0  0  0  0  0  0  0  0  0
  -29.0029  -15.2172   21.6555 N   0  0  0  0  0  0  0  0  0  0  0  0
  -30.2898  -15.3650   21.2978 N   0  0  0  0  0  0  0  0  0  0  0  0
  -23.2531  -30.1112   21.4926 N   0  0  0  0  0  0  0  0  0  0  0  0
  -31.1562  -18.6278   23.0831 N   0  0  0  0  0  0  0  0  0  0  0  0
  -31.9501  -14.5294   19.8295 N   0  0  0  0  0  0  0  0  0  0  0  0
  -28.3169  -12.0460   18.8154 N   0  0  0  0  0  0  0  0  0  0  0  0
  -30.7020  -20.3143   21.4983 N   0  0  0  0  0  0  0  0  0  0  0  0
  -25.1638  -33.0770   22.0248 N   0  0  0  0  0  0  0  0  0  0  0  0
  -20.0861  -28.9355   21.7075 N   0  0  0  0  0  0  0  0  0  0  0  0
  -19.1078  -26.5998   19.1278 N   0  3  0  0  0  0  0  0  0  0  0  0
  -30.5283  -12.3986   18.3212 O   0  0  0  0  0  0  0  0  0  0  0  0
  -25.2269  -30.9778   23.0306 O   0  0  0  0  0  0  0  0  0  0  0  0
  -21.3776  -31.4912   21.6123 O   0  0  0  0  0  0  0  0  0  0  0  0
  -20.8582  -26.7830   21.3230 O   0  0  0  0  0  0  0  0  0  0  0  0
  -32.1071  -20.7238   23.2982 O   0  0  0  0  0  0  0  0  0  0  0  0
  -23.2868  -12.4524   21.1750 O   0  0  0  0  0  0  0  0  0  0  0  0
  -27.5688  -25.7573   20.8065 O   0  0  0  0  0  0  0  0  0  1  0  0
  -22.4127   -7.0082   21.2021 F   0  0  0  0  0  0  0  0  0  0  0  0
  -28.4663  -23.2080   18.3908 F   0  0  0  0  0  0  0  0  0  0  0  0
  -24.1034  -10.8743   19.0572 F   0  0  0  0  0  0  0  0  0  0  0  0
  1  2  1  0  0  0  0
  1  5  2  0  0  0  0
  2  6  2  0  0  0  0
  3 10  2  0  0  0  0
  3 18  1  0  0  0  0
  4 11  1  0  0  0  0
  4 18  2  0  0  0  0
  5 20  1  0  0  0  0
  6 22  1  0  0  0  0
  7 12  2  0  0  0  0
  7 21  1  0  0  0  0
  8  9  2  0  0  0  0
  8 24  1  0  0  0  0
  9 25  1  0  0  0  0
 10 26  1  0  0  0  0
 11 26  2  0  0  0  0
 12 27  1  0  0  0  0
 13 14  2  0  0  0  0
 13 28  1  0  0  0  0
 14 29  1  0  0  0  0
 15 23  1  0  0  0  0
 15 27  2  0  0  0  0
 16 25  2  0  0  0  0
 16 30  1  0  0  0  0
 17 29  2  0  0  0  0
 17 31  1  0  0  0  0
 18 32  1  0  0  0  0
 19 32  1  0  0  0  0
 19 33  2  0  0  0  0
 19 34  1  0  0  0  0
 20 22  2  0  0  0  0
 20 39  1  0  0  0  0
 21 23  2  0  0  0  0
 21 40  1  0  0  0  0
 22 48  1  0  0  0  0
 23 41  1  0  0  0  0
 24 30  2  0  0  0  0
 24 56  1  0  0  0  0
 25 66  1  0  0  0  0
 26 75  1  0  0  0  0
 27 76  1  0  0  0  0
 28 31  2  0  0  0  0
 28 75  1  0  0  0  0
 29 77  1  0  0  0  0
 30 78  1  0  0  0  0
 31 79  1  0  0  0  0
 32 60  2  0  0  0  0
 33 61  1  0  0  0  0
 33 64  1  0  0  0  0
 34 65  1  0  0  0  0
 34 70  2  0  0  0  0
 35 49  1  0  0  0  0
 35 67  1  0  0  0  0
 35 71  2  0  0  0  0
 36 57  1  0  0  0  0
 36 62  1  0  0  0  0
 36 72  2  0  0  0  0
 37 58  1  0  0  0  0
 37 68  1  0  0  0  0
 37 73  2  0  0  0  0
 38 63  1  0  0  0  0
 38 66  1  0  0  0  0
 38 74  2  0  0  0  0
 39 42  1  0  0  0  0
 40 49  1  0  0  0  0
 41 62  1  0  0  0  0
 42 44  1  0  0  0  0
 43 45  1  0  0  0  0
 43 46  1  0  0  0  0
 44 48  1  0  0  0  0
 45 50  1  0  0  0  0
 46 63  1  0  0  0  0
 47 50  1  0  0  0  0
 47 63  1  0  0  0  0
 48 67  1  0  0  0  0
 49 62  1  0  0  0  0
 50 61  1  0  0  0  0
 51 58  1  0  0  0  0
 52 59  1  0  0  0  0
 53 59  1  0  0  0  0
 54 59  1  0  0  0  0
 55 69  1  0  0  0  0
 56 76  1  0  0  0  0
 57 59  1  0  0  0  0
 57 68  1  0  0  0  0
 58 69  1  0  0  0  0
 60 61  1  0  0  0  0
M  CHG  1  69   1
M  ISO  4  38 100  56 101  66 100  76 101
M  END
> <Batch ID>
0015

> <Smiles>
CNC(C)C(=O)NC(C(=O)N1Cc2cc([101O:1][101CH2:1]c3ccc([100NH:0][100C:0](=O)N4CCCC(n5nc(-c6ccc(Oc7ccc(F)cc7F)cc6)c(C(N)=O)c5N)C4)cc3F)ccc2CC1C(=O)NC1CCCc2ccccc21)C(C)(C)C

> <Shape>
0.344

> <Color>
0.078

> <Negative vol penalty>
0.000

$$$$

  -OEChem-04042320543D

 82 90  0     1  0  0  0  0  0999 V2000
  -32.1104  -27.4947   15.0422 C   0  0  0  0  0  0  0  0  0  0  0  0
  -31.1189  -26.7019   15.6112 C   0  0  0  0  0  0  0  0  0  0  0  0
  -26.0452  -13.9608   20.9913 C   0  0  0  0  0  0  0  0  0  0  0  0
  -26.4851  -12.1100   19.5020 C   0  0  0  0  0  0  0  0  0  0  0  0
  -32.7176  -28.4979   15.7965 C   0  0  0  0  0  0  0  0  0  0  0  0
  -30.7347  -26.9111   16.9352 C   0  0  0  0  0  0  0  0  0  0  0  0
  -25.7056  -26.8712   17.5283 C   0  0  0  0  0  0  0  0  0  0  0  0
  -28.3466  -20.5545   17.6208 C   0  0  0  0  0  0  0  0  0  0  0  0
  -28.6782  -20.3999   20.0090 C   0  0  0  0  0  0  0  0  0  0  0  0
  -27.0014  -20.8600   17.8273 C   0  0  0  0  0  0  0  0  0  0  0  0
  -27.3329  -20.7054   20.2155 C   0  0  0  0  0  0  0  0  0  0  0  0
  -24.7856  -13.4332   21.2750 C   0  0  0  0  0  0  0  0  0  0  0  0
  -25.2254  -11.5823   19.7858 C   0  0  0  0  0  0  0  0  0  0  0  0
  -25.0769  -25.6270   17.5501 C   0  0  0  0  0  0  0  0  0  0  0  0
  -23.7686   -9.8171   22.2722 C   0  0  0  0  0  0  0  0  0  0  0  0
  -23.6839   -8.4491   22.5307 C   0  0  0  0  0  0  0  0  0  0  0  0
  -24.9892  -25.7202   19.9590 C   0  0  0  0  0  0  0  0  0  0  0  0
  -22.1843   -8.1874   20.6546 C   0  0  0  0  0  0  0  0  0  0  0  0
  -26.8950  -13.2993   20.1048 C   0  0  0  0  0  0  0  0  0  0  0  0
  -29.4006  -13.5828   20.4910 C   0  0  0  0  0  0  0  0  0  0  0  0
  -32.3338  -28.7259   17.1274 C   0  0  0  0  0  0  0  0  0  0  0  0
  -25.9911  -27.5454   18.7243 C   0  0  0  0  0  0  0  0  0  0  0  0
  -31.3382  -27.9174   17.7084 C   0  0  0  0  0  0  0  0  0  0  0  0
  -25.6193  -26.9740   19.9495 C   0  0  0  0  0  0  0  0  0  0  0  0
  -29.1850  -20.3244   18.7116 C   0  0  0  0  0  0  0  0  0  0  0  0
  -26.4945  -20.9354   19.1246 C   0  0  0  0  0  0  0  0  0  0  0  0
  -24.3757  -12.2439   20.6723 C   0  0  0  0  0  0  0  0  0  0  0  0
  -24.7212  -25.0500   18.7656 C   0  0  0  0  0  0  0  0  0  0  0  0
  -23.0610  -10.3704   21.2049 C   0  0  0  0  0  0  0  0  0  0  0  0
  -22.8918   -7.6342   21.7219 C   0  0  0  0  0  0  0  0  0  0  0  0
  -22.2689   -9.5555   20.3961 C   0  0  0  0  0  0  0  0  0  0  0  0
  -28.1960  -13.8441   19.8108 C   0  0  0  0  0  0  0  0  0  0  0  0
  -30.3389  -14.3369   19.8297 C   0  0  0  0  0  0  0  0  0  0  0  0
  -29.6490  -12.7342   21.6197 C   0  0  0  0  0  0  0  0  0  0  0  0
  -28.6483  -28.5251   20.1677 C   0  0  0  0  0  0  0  0  0  0  0  0
  -26.5563  -29.8949   22.2340 C   0  0  0  0  0  0  0  0  0  0  0  0
  -23.4301  -29.9169   23.6025 C   0  0  0  0  0  0  0  0  0  0  0  0
  -31.0021  -19.3244   17.3371 C   0  0  0  0  0  0  0  0  0  0  0  0
  -33.0520  -29.7909   17.9177 C   0  0  0  0  0  0  0  0  0  0  0  0
  -26.6457  -28.8990   18.6825 C   0  0  0  0  0  0  0  0  0  0  0  0
  -25.8853  -27.6661   21.2605 C   0  0  0  0  0  0  0  0  0  0  0  0
  -32.3245  -30.1943   19.1976 C   0  0  0  0  0  0  0  0  0  0  0  0
  -30.6455  -16.3946   15.3542 C   0  0  0  0  0  0  0  0  0  0  0  0
  -31.8660  -28.9574   19.9636 C   0  0  0  0  0  0  0  0  0  0  0  0
  -30.0812  -15.4053   16.3733 C   0  0  0  0  0  0  0  0  0  0  0  0
  -30.0594  -17.7957   15.5313 C   0  0  0  0  0  0  0  0  0  0  0  0
  -29.6255  -17.3430   17.9253 C   0  0  0  0  0  0  0  0  0  0  0  0
  -30.8768  -28.1300   19.1339 C   0  0  1  0  0  0  0  0  0  0  0  0
  -27.3515  -29.2619   19.9854 C   0  0  1  0  0  0  0  0  0  0  0  0
  -30.2399  -15.9394   17.8078 C   0  0  1  0  0  0  0  0  0  0  0  0
  -22.0282  -31.1312   25.2930 C   0  0  0  0  0  0  0  0  0  0  0  0
  -28.0372  -28.4644   24.4858 C   0  0  0  0  0  0  0  0  0  0  0  0
  -26.0774  -28.9261   25.9739 C   0  0  0  0  0  0  0  0  0  0  0  0
  -27.3776  -30.8206   25.0029 C   0  0  0  0  0  0  0  0  0  0  0  0
  -31.5777  -20.6137   19.3820 C   0  0  0  0  0  0  0  0  0  0  0  0
  -24.6090  -21.3229   20.6914 C   0  0  0  0  0  0  0  0  0  0  0  0
  -21.4665  -30.7470   21.5496 C   0  0  0  0  0  0  0  0  0  0  0  0
  -24.2520  -21.5010   18.2238 C   0  0  0  0  0  0  0  0  0  0  0  0
  -24.4202  -22.9291   17.7326 C   0  0  0  0  0  0  0  0  0  1  0  0
  -25.8659  -29.4575   23.5033 C   0  0  1  0  0  0  0  0  0  0  0  0
  -22.4386  -31.0434   23.8313 C   0  0  2  0  0  0  0  0  0  0  0  0
  -26.8361  -29.4030   24.7171 C   0  0  0  0  0  0  0  0  0  0  0  0
  -28.3520  -14.6976   18.7954 N   0  0  0  0  0  0  0  0  0  0  0  0
  -29.6656  -14.9793   18.8326 N   0  0  0  0  0  0  0  0  0  0  0  0
  -26.5332  -28.9848   21.1676 N   0  0  0  0  0  0  0  0  0  0  0  0
  -30.1974  -18.2460   16.9235 N   0  0  0  0  0  0  0  0  0  0  0  0
  -31.6660  -14.5066   20.0096 N   0  0  0  0  0  0  0  0  0  0  0  0
  -28.5723  -12.0310   22.1768 N   0  0  0  0  0  0  0  0  0  0  0  0
  -29.5646  -28.7401   19.1559 N   0  0  0  0  0  0  0  0  0  0  0  0
  -24.7335  -30.3594   23.6836 N   0  0  0  0  0  0  0  0  0  0  0  0
  -30.5773  -20.0066   18.4975 N   0  0  0  0  0  0  0  0  0  0  0  0
  -25.1433  -21.2432   19.3316 N   0  0  3  0  0  0  0  0  0  0  0  0
  -21.2129  -30.8292   23.0111 N   0  3  0  0  0  0  0  0  0  0  0  0
  -30.7890  -12.6162   22.1296 O   0  0  0  0  0  0  0  0  0  0  0  0
  -28.8064  -27.8153   21.1541 O   0  0  0  0  0  0  0  0  0  0  0  0
  -27.0901  -31.0060   22.1880 O   0  0  0  0  0  0  0  0  0  0  0  0
  -23.0830  -28.7594   23.3783 O   0  0  0  0  0  0  0  0  0  0  0  0
  -32.0345  -19.6373   16.7319 O   0  0  0  0  0  0  0  0  0  0  0  0
  -23.1467  -11.7286   20.9491 O   0  0  0  0  0  0  0  0  0  0  0  0
  -24.1080  -23.8354   18.7898 O   0  0  0  0  0  0  0  0  0  1  0  0
  -22.8119   -6.3202   21.9693 F   0  0  0  0  0  0  0  0  0  0  0  0
  -21.5878  -10.0810   19.3686 F   0  0  0  0  0  0  0  0  0  0  0  0
  1  2  1  0  0  0  0
  1  5  2  0  0  0  0
  2  6  2  0  0  0  0
  3 12  2  0  0  0  0
  3 19  1  0  0  0  0
  4 13  1  0  0  0  0
  4 19  2  0  0  0  0
  5 21  1  0  0  0  0
  6 23  1  0  0  0  0
  7 14  2  0  0  0  0
  7 22  1  0  0  0  0
  8 10  2  0  0  0  0
  8 25  1  0  0  0  0
  9 11  1  0  0  0  0
  9 25  2  0  0  0  0
 10 26  1  0  0  0  0
 11 26  2  0  0  0  0
 12 27  1  0  0  0  0
 13 27  2  0  0  0  0
 14 28  1  0  0  0  0
 15 16  2  0  0  0  0
 15 29  1  0  0  0  0
 16 30  1  0  0  0  0
 17 24  1  0  0  0  0
 17 28  2  0  0  0  0
 18 30  2  0  0  0  0
 18 31  1  0  0  0  0
 19 32  1  0  0  0  0
 20 32  1  0  0  0  0
 20 33  2  0  0  0  0
 20 34  1  0  0  0  0
 21 23  2  0  0  0  0
 21 39  1  0  0  0  0
 22 24  2  0  0  0  0
 22 40  1  0  0  0  0
 23 48  1  0  0  0  0
 24 41  1  0  0  0  0
 25 71  1  0  0  0  0
 26 72  1  0  0  0  0
 27 79  1  0  0  0  0
 28 80  1  0  0  0  0
 29 31  2  0  0  0  0
 29 79  1  0  0  0  0
 30 81  1  0  0  0  0
 31 82  1  0  0  0  0
 32 63  2  0  0  0  0
 33 64  1  0  0  0  0
 33 67  1  0  0  0  0
 34 68  1  0  0  0  0
 34 74  2  0  0  0  0
 35 49  1  0  0  0  0
 35 69  1  0  0  0  0
 35 75  2  0  0  0  0
 36 60  1  0  0  0  0
 36 65  1  0  0  0  0
 36 76  2  0  0  0  0
 37 61  1  0  0  0  0
 37 70  1  0  0  0  0
 37 77  2  0  0  0  0
 38 66  1  0  0  0  0
 38 71  1  0  0  0  0
 38 78  2  0  0  0  0
 39 42  1  0  0  0  0
 40 49  1  0  0  0  0
 41 65  1  0  0  0  0
 42 44  1  0  0  0  0
 43 45  1  0  0  0  0
 43 46  1  0  0  0  0
 44 48  1  0  0  0  0
 45 50  1  0  0  0  0
 46 66  1  0  0  0  0
 47 50  1  0  0  0  0
 47 66  1  0  0  0  0
 48 69  1  0  0  0  0
 49 65  1  0  0  0  0
 50 64  1  0  0  0  0
 51 61  1  0  0  0  0
 52 62  1  0  0  0  0
 53 62  1  0  0  0  0
 54 62  1  0  0  0  0
 55 71  1  0  0  0  0
 56 72  1  0  0  0  0
 57 73  1  0  0  0  0
 58 59  1  0  0  0  0
 58 72  1  0  0  0  0
 59 80  1  0  0  0  0
 60 62  1  0  0  0  0
 60 70  1  0  0  0  0
 61 73  1  0  0  0  0
 63 64  1  0  0  0  0
M  CHG  1  73   1
M  ISO  4  38 100  59 101  71 100  80 101
M  END
> <Batch ID>
0015

> <Smiles>
CNC(C)C(=O)NC(C(=O)N1Cc2cc([101O:1][101CH2:1]CN(C)c3ccc([100N:0](C)[100C:0](=O)N4CCCC(n5nc(-c6ccc(Oc7ccc(F)cc7F)cc6)c(C(N)=O)c5N)C4)cc3)ccc2CC1C(=O)NC1CCCc2ccccc21)C(C)(C)C

> <Shape>
0.239

> <Color>
0.096

> <Negative vol penalty>
0.000

$$$$

  -OEChem-04042320543D

 85 94  0     1  0  0  0  0  0999 V2000
  -28.2814  -37.0014   22.4289 C   0  0  0  0  0  0  0  0  0  0  0  0
  -28.4368  -35.6627   22.7740 C   0  0  0  0  0  0  0  0  0  0  0  0
  -25.6205   -9.1364   21.3129 C   0  0  0  0  0  0  0  0  0  0  0  0
  -23.6784   -9.8768   22.5447 C   0  0  0  0  0  0  0  0  0  0  0  0
  -27.0057  -37.5609   22.3682 C   0  0  0  0  0  0  0  0  0  0  0  0
  -27.3166  -34.8829   23.0596 C   0  0  0  0  0  0  0  0  0  0  0  0
  -29.4045  -21.8529   19.8772 C   0  0  0  0  0  0  0  0  0  0  0  0
  -27.5007  -30.3328   20.8444 C   0  0  0  0  0  0  0  0  0  0  0  0
  -30.0413  -22.9230   20.5053 C   0  0  0  0  0  0  0  0  0  0  0  0
  -25.5101   -7.8747   21.8971 C   0  0  0  0  0  0  0  0  0  0  0  0
  -23.5679   -8.6150   23.1289 C   0  0  0  0  0  0  0  0  0  0  0  0
  -28.3143  -29.3683   21.4374 C   0  0  0  0  0  0  0  0  0  0  0  0
  -22.4074   -5.5624   22.2596 C   0  0  0  0  0  0  0  0  0  0  0  0
  -21.1386   -4.9860   22.3185 C   0  0  0  0  0  0  0  0  0  0  0  0
  -31.3474  -21.3740   21.8160 C   0  0  0  0  0  0  0  0  0  0  0  0
  -26.3740  -28.3762   22.4718 C   0  0  0  0  0  0  0  0  0  0  0  0
  -21.2875   -4.9042   24.7285 C   0  0  0  0  0  0  0  0  0  0  0  0
  -24.7047  -10.1375   21.6367 C   0  0  0  0  0  0  0  0  0  0  0  0
  -24.2245  -11.8784   19.8349 C   0  0  0  0  0  0  0  0  0  0  0  0
  -25.8687  -36.7851   22.6438 C   0  0  0  0  0  0  0  0  0  0  0  0
  -26.1167  -30.3326   21.0698 C   0  0  0  0  0  0  0  0  0  0  0  0
  -29.7289  -20.5314   20.2164 C   0  0  0  0  0  0  0  0  0  0  0  0
  -26.0247  -35.4329   23.0039 C   0  0  0  0  0  0  0  0  0  0  0  0
  -30.7216  -20.2907   21.1828 C   0  0  0  0  0  0  0  0  0  0  0  0
  -25.5447  -29.3401   21.8784 C   0  0  0  0  0  0  0  0  0  0  0  0
  -31.0103  -22.6836   21.4759 C   0  0  0  0  0  0  0  0  0  0  0  0
  -24.4838   -7.6139   22.8051 C   0  0  0  0  0  0  0  0  0  0  0  0
  -27.7514  -28.3916   22.2536 C   0  0  0  0  0  0  0  0  0  0  0  0
  -23.1163   -5.8097   23.4352 C   0  0  0  0  0  0  0  0  0  0  0  0
  -20.5786   -4.6569   23.5529 C   0  0  0  0  0  0  0  0  0  0  0  0
  -22.5564   -5.4806   24.6696 C   0  0  0  0  0  0  0  0  0  0  0  0
  -24.8186  -11.4413   21.0340 C   0  0  0  0  0  0  0  0  0  0  0  0
  -24.6365  -13.1819   19.7027 C   0  0  0  0  0  0  0  0  0  0  0  0
  -23.3759  -11.1694   18.9222 C   0  0  0  0  0  0  0  0  0  0  0  0
  -24.0578  -32.3670   22.3836 C   0  0  0  0  0  0  0  0  0  0  0  0
  -21.8646  -30.2235   21.3264 C   0  0  0  0  0  0  0  0  0  0  0  0
  -21.1642  -27.0171   20.3910 C   0  0  0  0  0  0  0  0  0  0  0  0
  -28.3640  -17.0512   19.8322 C   0  0  0  0  0  0  0  0  0  0  0  0
  -24.5135  -37.4462   22.6114 C   0  0  0  0  0  0  0  0  0  0  0  0
  -25.2494  -31.3638   20.4013 C   0  0  0  0  0  0  0  0  0  0  0  0
  -31.0834  -18.8846   21.5867 C   0  0  0  0  0  0  0  0  0  0  0  0
  -29.0335  -19.3991   19.5061 C   0  0  0  0  0  0  0  0  0  0  0  0
  -24.0618  -29.2840   22.1358 C   0  0  0  0  0  0  0  0  0  0  0  0
  -23.3534  -36.4552   22.5634 C   0  0  0  0  0  0  0  0  0  0  0  0
  -26.9664  -16.2565   22.9617 C   0  0  0  0  0  0  0  0  0  0  0  0
  -23.5561  -35.3459   23.5906 C   0  0  0  0  0  0  0  0  0  0  0  0
  -26.2315  -14.9548   22.6445 C   0  0  0  0  0  0  0  0  0  0  0  0
  -30.6500  -17.8514   20.5521 C   0  0  0  0  0  0  0  0  0  0  0  0
  -28.3243  -16.3340   22.2616 C   0  0  0  0  0  0  0  0  0  0  0  0
  -27.5233  -14.8143   20.4820 C   0  0  0  0  0  0  0  0  0  0  0  0
  -24.8323  -34.5482   23.2966 C   0  0  1  0  0  0  0  0  0  0  0  0
  -23.9172  -31.5767   21.1135 C   0  0  1  0  0  0  0  0  0  0  0  0
  -26.1299  -14.7356   21.1247 C   0  0  1  0  0  0  0  0  0  0  0  0
  -19.2747  -25.5598   19.6141 C   0  0  0  0  0  0  0  0  0  0  0  0
  -20.7739  -30.1236   24.1743 C   0  0  0  0  0  0  0  0  0  0  0  0
  -19.5683  -28.0158   23.5643 C   0  0  0  0  0  0  0  0  0  0  0  0
  -19.0244  -30.1470   22.3874 C   0  0  0  0  0  0  0  0  0  0  0  0
  -32.6609  -23.5263   23.1268 C   0  0  0  0  0  0  0  0  0  0  0  0
  -22.5216  -26.4240   17.8289 C   0  0  0  0  0  0  0  0  0  0  0  0
  -30.0738  -25.6304   22.4804 C   0  0  0  0  0  0  0  0  0  0  0  0
  -31.3178  -25.1302   21.7586 C   0  0  0  0  0  0  0  0  0  0  0  0
  -29.7272  -27.0733   22.1339 C   0  0  0  0  0  0  0  0  0  1  0  0
  -21.2167  -28.9861   21.8992 C   0  0  1  0  0  0  0  0  0  0  0  0
  -20.4265  -26.4570   19.1883 C   0  0  2  0  0  0  0  0  0  0  0  0
  -20.1740  -29.3201   23.0032 C   0  0  0  0  0  0  0  0  0  0  0  0
  -25.5524  -12.3901   21.6216 N   0  0  0  0  0  0  0  0  0  0  0  0
  -25.4221  -13.4364   20.7882 N   0  0  0  0  0  0  0  0  0  0  0  0
  -23.2566  -30.3179   21.4647 N   0  0  0  0  0  0  0  0  0  0  0  0
  -29.2708  -18.0881   20.1118 N   0  0  0  0  0  0  0  0  0  0  0  0
  -28.1857  -16.0752   20.8229 N   0  0  0  0  0  0  0  0  0  0  0  0
  -24.4000  -14.1238   18.7650 N   0  0  0  0  0  0  0  0  0  0  0  0
  -23.0511   -9.8367   19.2097 N   0  0  0  0  0  0  0  0  0  0  0  0
  -24.6095  -33.6216   22.2074 N   0  0  0  0  0  0  0  0  0  0  0  0
  -20.6705  -28.2490   20.7648 N   0  0  0  0  0  0  0  0  0  0  0  0
  -31.6510  -23.7653   22.1151 N   0  0  3  0  0  0  0  0  0  0  0  0
  -21.3539  -25.6591   18.3372 N   0  3  0  0  0  0  0  0  0  0  0  0
  -22.9325  -11.6969   17.8740 O   0  0  0  0  0  0  0  0  0  0  0  0
  -23.6914  -31.8756   23.4447 O   0  0  0  0  0  0  0  0  0  0  0  0
  -21.1624  -31.0716   20.7703 O   0  0  0  0  0  0  0  0  0  0  0  0
  -22.0838  -26.4196   20.9459 O   0  0  0  0  0  0  0  0  0  0  0  0
  -27.7522  -17.0026   18.7575 O   0  0  0  0  0  0  0  0  0  0  0  0
  -24.3756   -6.3827   23.3752 O   0  0  0  0  0  0  0  0  0  0  0  0
  -28.5490  -27.4427   22.8383 O   0  0  0  0  0  0  0  0  0  1  0  0
  -19.3596   -4.1048   23.6093 F   0  0  0  0  0  0  0  0  0  0  0  0
  -23.2321   -5.7169   25.8025 F   0  0  0  0  0  0  0  0  0  0  0  0
  1  2  1  0  0  0  0
  1  5  2  0  0  0  0
  2  6  2  0  0  0  0
  3 10  2  0  0  0  0
  3 18  1  0  0  0  0
  4 11  1  0  0  0  0
  4 18  2  0  0  0  0
  5 20  1  0  0  0  0
  6 23  1  0  0  0  0
  7  9  2  0  0  0  0
  7 22  1  0  0  0  0
  8 12  2  0  0  0  0
  8 21  1  0  0  0  0
  9 26  1  0  0  0  0
 10 27  1  0  0  0  0
 11 27  2  0  0  0  0
 12 28  1  0  0  0  0
 13 14  2  0  0  0  0
 13 29  1  0  0  0  0
 14 30  1  0  0  0  0
 15 24  1  0  0  0  0
 15 26  2  0  0  0  0
 16 25  1  0  0  0  0
 16 28  2  0  0  0  0
 17 30  2  0  0  0  0
 17 31  1  0  0  0  0
 18 32  1  0  0  0  0
 19 32  1  0  0  0  0
 19 33  2  0  0  0  0
 19 34  1  0  0  0  0
 20 23  2  0  0  0  0
 20 39  1  0  0  0  0
 21 25  2  0  0  0  0
 21 40  1  0  0  0  0
 22 24  2  0  0  0  0
 22 42  1  0  0  0  0
 23 51  1  0  0  0  0
 24 41  1  0  0  0  0
 25 43  1  0  0  0  0
 26 75  1  0  0  0  0
 27 82  1  0  0  0  0
 28 83  1  0  0  0  0
 29 31  2  0  0  0  0
 29 82  1  0  0  0  0
 30 84  1  0  0  0  0
 31 85  1  0  0  0  0
 32 66  2  0  0  0  0
 33 67  1  0  0  0  0
 33 71  1  0  0  0  0
 34 72  1  0  0  0  0
 34 77  2  0  0  0  0
 35 52  1  0  0  0  0
 35 73  1  0  0  0  0
 35 78  2  0  0  0  0
 36 63  1  0  0  0  0
 36 68  1  0  0  0  0
 36 79  2  0  0  0  0
 37 64  1  0  0  0  0
 37 74  1  0  0  0  0
 37 80  2  0  0  0  0
 38 69  1  0  0  0  0
 38 70  1  0  0  0  0
 38 81  2  0  0  0  0
 39 44  1  0  0  0  0
 40 52  1  0  0  0  0
 41 48  1  0  0  0  0
 42 69  1  0  0  0  0
 43 68  1  0  0  0  0
 44 46  1  0  0  0  0
 45 47  1  0  0  0  0
 45 49  1  0  0  0  0
 46 51  1  0  0  0  0
 47 53  1  0  0  0  0
 48 69  1  0  0  0  0
 49 70  1  0  0  0  0
 50 53  1  0  0  0  0
 50 70  1  0  0  0  0
 51 73  1  0  0  0  0
 52 68  1  0  0  0  0
 53 67  1  0  0  0  0
 54 64  1  0  0  0  0
 55 65  1  0  0  0  0
 56 65  1  0  0  0  0
 57 65  1  0  0  0  0
 58 75  1  0  0  0  0
 59 76  1  0  0  0  0
 60 61  1  0  0  0  0
 60 62  1  0  0  0  0
 61 75  1  0  0  0  0
 62 83  1  0  0  0  0
 63 65  1  0  0  0  0
 63 74  1  0  0  0  0
 64 76  1  0  0  0  0
 66 67  1  0  0  0  0
M  CHG  1  76   1
M  ISO  4  38 100  62 101  69 100  83 101
M  END
> <Batch ID>
0015

> <Smiles>
CNC(C)C(=O)NC(C(=O)N1Cc2cc([101O:1][101CH2:1]CCN(C)c3ccc4c(c3)CC[100N:0]([100C:0](=O)N3CCCC(n5nc(-c6ccc(Oc7ccc(F)cc7F)cc6)c(C(N)=O)c5N)C3)C4)ccc2CC1C(=O)NC1CCCc2ccccc21)C(C)(C)C

> <Shape>
0.292

> <Color>
0.074

> <Negative vol penalty>
0.000

$$$$

  -OEChem-04042320543D

 95104  0     1  0  0  0  0  0999 V2000
  -22.4563  -27.9776   13.9736 C   0  0  0  0  0  0  0  0  0  0  0  0
  -22.3483  -27.4749   15.2663 C   0  0  0  0  0  0  0  0  0  0  0  0
  -23.2930  -10.1387   22.1617 C   0  0  0  0  0  0  0  0  0  0  0  0
  -25.6448   -9.7507   22.5561 C   0  0  0  0  0  0  0  0  0  0  0  0
  -23.6358  -28.5983   13.5646 C   0  0  0  0  0  0  0  0  0  0  0  0
  -23.4203  -27.5918   16.1504 C   0  0  0  0  0  0  0  0  0  0  0  0
  -21.9785  -29.1074   20.7623 C   0  0  0  0  0  0  0  0  0  0  0  0
  -28.8455  -20.8145   20.6828 C   0  0  0  0  0  0  0  0  0  0  0  0
  -29.6008  -19.7579   21.1912 C   0  0  0  0  0  0  0  0  0  0  0  0
  -22.9759   -9.0742   23.0054 C   0  0  0  0  0  0  0  0  0  0  0  0
  -25.3277   -8.6862   23.3999 C   0  0  0  0  0  0  0  0  0  0  0  0
  -21.4041  -28.1495   21.5967 C   0  0  0  0  0  0  0  0  0  0  0  0
  -22.9059   -5.6991   22.8381 C   0  0  0  0  0  0  0  0  0  0  0  0
  -21.9330   -4.7980   22.4057 C   0  0  0  0  0  0  0  0  0  0  0  0
  -23.5108  -27.8942   22.7438 C   0  0  0  0  0  0  0  0  0  0  0  0
  -28.4399  -18.2245   19.7291 C   0  0  0  0  0  0  0  0  0  0  0  0
  -20.5834   -5.3278   24.3383 C   0  0  0  0  0  0  0  0  0  0  0  0
  -24.6275  -10.4769   21.9369 C   0  0  0  0  0  0  0  0  0  0  0  0
  -24.6302  -11.7061   19.7016 C   0  0  0  0  0  0  0  0  0  0  0  0
  -24.7193  -28.7315   14.4472 C   0  0  0  0  0  0  0  0  0  0  0  0
  -23.3285  -29.4586   20.9055 C   0  0  0  0  0  0  0  0  0  0  0  0
  -24.6159  -28.2137   15.7524 C   0  0  0  0  0  0  0  0  0  0  0  0
  -24.0993  -28.8587   21.9116 C   0  0  0  0  0  0  0  0  0  0  0  0
  -27.8873  -20.5762   19.6975 C   0  0  0  0  0  0  0  0  0  0  0  0
  -29.3981  -18.4629   20.7144 C   0  0  0  0  0  0  0  0  0  0  0  0
  -23.9932   -8.3480   23.6246 C   0  0  0  0  0  0  0  0  0  0  0  0
  -22.1710  -27.5406   22.5857 C   0  0  0  0  0  0  0  0  0  0  0  0
  -22.7176   -6.4146   24.0206 C   0  0  0  0  0  0  0  0  0  0  0  0
  -20.7717   -4.6123   23.1557 C   0  0  0  0  0  0  0  0  0  0  0  0
  -27.6845  -19.2812   19.2207 C   0  0  0  0  0  0  0  0  0  0  0  0
  -21.5563   -6.2289   24.7707 C   0  0  0  0  0  0  0  0  0  0  0  0
  -24.9558  -11.5760   21.0650 C   0  0  0  0  0  0  0  0  0  0  0  0
  -25.1638  -12.9175   19.3352 C   0  0  0  0  0  0  0  0  0  0  0  0
  -23.9097  -10.8119   18.8431 C   0  0  0  0  0  0  0  0  0  0  0  0
  -25.9017  -29.2812   19.0479 C   0  0  0  0  0  0  0  0  0  0  0  0
  -27.2887  -30.9242   21.4766 C   0  0  0  0  0  0  0  0  0  0  0  0
  -21.9662  -22.9190   22.2656 C   0  0  0  0  0  0  0  0  0  0  0  0
  -27.2833  -31.7562   24.7864 C   0  0  0  0  0  0  0  0  0  0  0  0
  -29.6556  -16.0590   21.3029 C   0  0  0  0  0  0  0  0  0  0  0  0
  -25.9909  -29.3681   13.9447 C   0  0  0  0  0  0  0  0  0  0  0  0
  -23.9261  -30.5132   20.0149 C   0  0  0  0  0  0  0  0  0  0  0  0
  -25.5477  -29.2153   22.1198 C   0  0  0  0  0  0  0  0  0  0  0  0
  -26.9455  -29.7851   15.0606 C   0  0  0  0  0  0  0  0  0  0  0  0
  -26.2965  -17.2079   21.1035 C   0  0  0  0  0  0  0  0  0  0  0  0
  -27.0924  -28.6638   16.0842 C   0  0  0  0  0  0  0  0  0  0  0  0
  -25.5346  -15.8923   20.9477 C   0  0  0  0  0  0  0  0  0  0  0  0
  -23.9230  -23.1647   19.9487 C   0  0  0  0  0  0  0  0  0  0  0  0
  -27.4596  -17.0827   22.0881 C   0  0  0  0  0  0  0  0  0  0  0  0
  -27.6302  -14.6580   21.6229 C   0  0  0  0  0  0  0  0  0  0  0  0
  -24.7588  -22.6615   18.7839 C   0  0  0  0  0  0  0  0  0  0  0  0
  -25.2182  -21.3875   20.8204 C   0  0  0  0  0  0  0  0  0  0  0  0
  -25.7479  -28.3434   16.7484 C   0  0  1  0  0  0  0  0  0  0  0  0
  -25.4456  -30.4202   19.9152 C   0  0  1  0  0  0  0  0  0  0  0  0
  -23.8094  -21.9553   20.8651 C   0  0  1  0  0  0  0  0  0  0  0  0
  -26.4905  -14.7389   20.5954 C   0  0  1  0  0  0  0  0  0  0  0  0
  -32.4179  -17.4981   20.2123 C   0  0  0  0  0  0  0  0  0  0  0  0
  -28.5645  -33.0865   26.4853 C   0  0  0  0  0  0  0  0  0  0  0  0
  -29.4380  -28.7596   21.5471 C   0  0  0  0  0  0  0  0  0  0  0  0
  -30.1136  -29.6018   23.8060 C   0  0  0  0  0  0  0  0  0  0  0  0
  -30.2980  -31.0927   21.8146 C   0  0  0  0  0  0  0  0  0  0  0  0
  -24.9527  -33.4882   25.3586 C   0  0  0  0  0  0  0  0  0  0  0  0
  -23.5469  -21.3547   24.5634 C   0  0  0  0  0  0  0  0  0  0  0  0
  -22.1701  -20.1942   22.8434 C   0  0  0  0  0  0  0  0  0  0  0  0
  -27.0783  -21.7159   19.1520 C   0  0  0  0  0  0  0  0  0  0  0  0
  -31.6082  -17.5846   21.4902 C   0  0  0  0  0  0  0  0  0  0  0  0
  -20.5162  -24.4683   23.5508 C   0  0  0  0  0  0  0  0  0  0  0  0
  -20.5516  -25.8205   22.8585 C   0  0  0  0  0  0  0  0  0  1  0  0
  -28.0122  -30.5468   22.7467 C   0  0  1  0  0  0  0  0  0  0  0  0
  -23.3557  -22.3077   22.2706 C   0  0  2  0  0  0  0  0  0  0  0  0
  -27.4159  -33.0956   25.4886 C   0  0  2  0  0  0  0  0  0  0  0  0
  -29.4387  -29.9919   22.4736 C   0  0  0  0  0  0  0  0  0  0  0  0
  -25.6432  -12.6212   21.5329 N   0  0  0  0  0  0  0  0  0  0  0  0
  -25.7539  -13.4196   20.4576 N   0  0  0  0  0  0  0  0  0  0  0  0
  -26.0880  -30.2474   21.2196 N   0  0  0  0  0  0  0  0  0  0  0  0
  -28.3208  -15.9451   21.7353 N   0  0  0  0  0  0  0  0  0  0  0  0
  -25.1811  -13.5914   18.1656 N   0  0  0  0  0  0  0  0  0  0  0  0
  -24.6294   -9.8378   18.1378 N   0  0  0  0  0  0  0  0  0  0  0  0
  -25.4295  -29.3378   17.7505 N   0  0  0  0  0  0  0  0  0  0  0  0
  -21.7620  -23.7659   23.3439 N   0  0  0  0  0  0  0  0  0  0  0  0
  -27.9845  -31.7302   23.5994 N   0  0  0  0  0  0  0  0  0  0  0  0
  -30.1786  -17.3686   21.2422 N   0  0  0  0  0  0  0  0  0  0  0  0
  -25.6085  -21.5460   19.3657 N   0  3  2  0  0  0  0  0  0  0  0  0
  -26.1602  -33.4228   26.2214 N   0  3  0  0  0  0  0  0  0  0  0  0
  -23.3726  -21.0664   23.0950 N   0  3  0  0  0  0  0  0  0  0  0  0
  -22.6664  -10.8853   18.6930 O   0  0  0  0  0  0  0  0  0  0  0  0
  -26.6295  -28.4158   19.5203 O   0  0  0  0  0  0  0  0  0  0  0  0
  -27.7676  -31.7928   20.7432 O   0  0  0  0  0  0  0  0  0  0  0  0
  -21.1358  -22.6784   21.3921 O   0  0  0  0  0  0  0  0  0  0  0  0
  -26.6266  -30.8249   25.2468 O   0  0  0  0  0  0  0  0  0  0  0  0
  -30.3359  -15.0659   21.0184 O   0  0  0  0  0  0  0  0  0  0  0  0
  -23.6841   -7.3094   24.4482 O   0  0  0  0  0  0  0  0  0  0  0  0
  -21.6130  -26.6048   23.4011 O   0  0  0  0  0  0  0  0  0  1  0  0
  -19.8369   -3.7481   22.7396 F   0  0  0  0  0  0  0  0  0  0  0  0
  -26.7662  -19.0422   18.2741 F   0  0  0  0  0  0  0  0  0  0  0  0
  -21.3692   -6.9143   25.9069 F   0  0  0  0  0  0  0  0  0  0  0  0
  1  2  1  0  0  0  0
  1  5  2  0  0  0  0
  2  6  2  0  0  0  0
  3 10  2  0  0  0  0
  3 18  1  0  0  0  0
  4 11  1  0  0  0  0
  4 18  2  0  0  0  0
  5 20  1  0  0  0  0
  6 22  1  0  0  0  0
  7 12  2  0  0  0  0
  7 21  1  0  0  0  0
  8  9  2  0  0  0  0
  8 24  1  0  0  0  0
  9 25  1  0  0  0  0
 10 26  1  0  0  0  0
 11 26  2  0  0  0  0
 12 27  1  0  0  0  0
 13 14  2  0  0  0  0
 13 28  1  0  0  0  0
 14 29  1  0  0  0  0
 15 23  1  0  0  0  0
 15 27  2  0  0  0  0
 16 25  2  0  0  0  0
 16 30  1  0  0  0  0
 17 29  2  0  0  0  0
 17 31  1  0  0  0  0
 18 32  1  0  0  0  0
 19 32  1  0  0  0  0
 19 33  2  0  0  0  0
 19 34  1  0  0  0  0
 20 22  2  0  0  0  0
 20 40  1  0  0  0  0
 21 23  2  0  0  0  0
 21 41  1  0  0  0  0
 22 52  1  0  0  0  0
 23 42  1  0  0  0  0
 24 30  2  0  0  0  0
 24 64  1  0  0  0  0
 25 81  1  0  0  0  0
 26 91  1  0  0  0  0
 27 92  1  0  0  0  0
 28 31  2  0  0  0  0
 28 91  1  0  0  0  0
 29 93  1  0  0  0  0
 30 94  1  0  0  0  0
 31 95  1  0  0  0  0
 32 72  2  0  0  0  0
 33 73  1  0  0  0  0
 33 76  1  0  0  0  0
 34 77  1  0  0  0  0
 34 85  2  0  0  0  0
 35 53  1  0  0  0  0
 35 78  1  0  0  0  0
 35 86  2  0  0  0  0
 36 68  1  0  0  0  0
 36 74  1  0  0  0  0
 36 87  2  0  0  0  0
 37 69  1  0  0  0  0
 37 79  1  0  0  0  0
 37 88  2  0  0  0  0
 38 70  1  0  0  0  0
 38 80  1  0  0  0  0
 38 89  2  0  0  0  0
 39 75  1  0  0  0  0
 39 81  1  0  0  0  0
 39 90  2  0  0  0  0
 40 43  1  0  0  0  0
 41 53  1  0  0  0  0
 42 74  1  0  0  0  0
 43 45  1  0  0  0  0
 44 46  1  0  0  0  0
 44 48  1  0  0  0  0
 45 52  1  0  0  0  0
 46 55  1  0  0  0  0
 47 50  1  0  0  0  0
 47 54  1  0  0  0  0
 48 75  1  0  0  0  0
 49 55  1  0  0  0  0
 49 75  1  0  0  0  0
 50 82  1  0  0  0  0
 51 54  1  0  0  0  0
 51 82  1  0  0  0  0
 52 78  1  0  0  0  0
 53 74  1  0  0  0  0
 54 69  1  0  0  0  0
 55 73  1  0  0  0  0
 56 65  1  0  0  0  0
 57 70  1  0  0  0  0
 58 71  1  0  0  0  0
 59 71  1  0  0  0  0
 60 71  1  0  0  0  0
 61 83  1  0  0  0  0
 62 84  1  0  0  0  0
 63 84  1  0  0  0  0
 64 82  1  0  0  0  0
 65 81  1  0  0  0  0
 66 67  1  0  0  0  0
 66 79  1  0  0  0  0
 67 92  1  0  0  0  0
 68 71  1  0  0  0  0
 68 80  1  0  0  0  0
 69 84  1  0  0  0  0
 70 83  1  0  0  0  0
 72 73  1  0  0  0  0
M  CHG  3  82   1  83   1  84   1
M  ISO  4  39 100  67 101  81 100  92 101
M  END
> <Batch ID>
0015

> <Smiles>
CC[100N:0](c1ccc(CN2CCC(C(C(=O)NC[101CH2:1][101O:1]c3ccc4c(c3)CN(C(=O)C(NC(=O)C(C)NC)C(C)(C)C)C(C(=O)NC3CCCc5ccccc53)C4)N(C)C)C2)c(F)c1)[100C:0](=O)N1CCCC(n2nc(-c3ccc(Oc4ccc(F)cc4F)cc3)c(C(N)=O)c2N)C1

> <Shape>
0.265

> <Color>
0.051

> <Negative vol penalty>
0.000

$$$$

  -OEChem-04042320543D

 88 97  0     1  0  0  0  0  0999 V2000
  -34.4834  -32.6654   23.0398 C   0  0  0  0  0  0  0  0  0  0  0  0
  -34.1481  -31.3211   22.9146 C   0  0  0  0  0  0  0  0  0  0  0  0
  -23.3417   -9.7203   19.9484 C   0  0  0  0  0  0  0  0  0  0  0  0
  -23.8126   -9.9098   22.3105 C   0  0  0  0  0  0  0  0  0  0  0  0
  -33.6756  -33.6413   22.4575 C   0  0  0  0  0  0  0  0  0  0  0  0
  -33.0041  -30.9519   22.2079 C   0  0  0  0  0  0  0  0  0  0  0  0
  -30.4968  -18.3614   21.0172 C   0  0  0  0  0  0  0  0  0  0  0  0
  -32.2589  -25.9398   18.7684 C   0  0  0  0  0  0  0  0  0  0  0  0
  -29.8913  -19.6127   21.1514 C   0  0  0  0  0  0  0  0  0  0  0  0
  -22.6698   -8.5198   20.1786 C   0  0  0  0  0  0  0  0  0  0  0  0
  -23.1406   -8.7093   22.5407 C   0  0  0  0  0  0  0  0  0  0  0  0
  -31.6611  -24.7067   19.0248 C   0  0  0  0  0  0  0  0  0  0  0  0
  -19.9393   -7.6601   22.8072 C   0  0  0  0  0  0  0  0  0  0  0  0
  -19.0507   -7.6122   23.8813 C   0  0  0  0  0  0  0  0  0  0  0  0
  -28.4846  -18.7898   22.9587 C   0  0  0  0  0  0  0  0  0  0  0  0
  -29.6211  -25.4899   18.0029 C   0  0  0  0  0  0  0  0  0  0  0  0
  -20.3473   -5.8318   24.8744 C   0  0  0  0  0  0  0  0  0  0  0  0
  -23.9132  -10.4153   21.0143 C   0  0  0  0  0  0  0  0  0  0  0  0
  -24.0592  -12.9515   20.7826 C   0  0  0  0  0  0  0  0  0  0  0  0
  -32.5264  -33.2834   21.7351 C   0  0  0  0  0  0  0  0  0  0  0  0
  -31.5376  -26.9627   18.1361 C   0  0  0  0  0  0  0  0  0  0  0  0
  -30.0901  -17.3435   21.8621 C   0  0  0  0  0  0  0  0  0  0  0  0
  -32.1795  -31.9240   21.6165 C   0  0  0  0  0  0  0  0  0  0  0  0
  -29.0952  -17.5554   22.8221 C   0  0  0  0  0  0  0  0  0  0  0  0
  -30.2129  -26.7343   17.7373 C   0  0  0  0  0  0  0  0  0  0  0  0
  -28.8925  -19.8254   22.1152 C   0  0  0  0  0  0  0  0  0  0  0  0
  -22.5692   -8.0143   21.4748 C   0  0  0  0  0  0  0  0  0  0  0  0
  -30.3411  -24.4825   18.6446 C   0  0  0  0  0  0  0  0  0  0  0  0
  -21.0318   -6.7938   22.7666 C   0  0  0  0  0  0  0  0  0  0  0  0
  -19.2548   -6.6981   24.9149 C   0  0  0  0  0  0  0  0  0  0  0  0
  -21.2358   -5.8797   23.8002 C   0  0  0  0  0  0  0  0  0  0  0  0
  -24.6079  -11.6551   20.7771 C   0  0  0  0  0  0  0  0  0  0  0  0
  -25.1225  -13.7756   20.5054 C   0  0  0  0  0  0  0  0  0  0  0  0
  -22.7091  -13.3732   21.0174 C   0  0  0  0  0  0  0  0  0  0  0  0
  -30.6199  -29.8948   18.9514 C   0  0  0  0  0  0  0  0  0  0  0  0
  -29.6192  -30.0180   15.8682 C   0  0  0  0  0  0  0  0  0  0  0  0
  -31.0426  -13.0810   21.2679 C   0  0  0  0  0  0  0  0  0  0  0  0
  -28.6169  -28.3280   13.0779 C   0  0  0  0  0  0  0  0  0  0  0  0
  -31.6585  -34.3764   21.1636 C   0  0  0  0  0  0  0  0  0  0  0  0
  -32.2054  -28.2782   17.8427 C   0  0  0  0  0  0  0  0  0  0  0  0
  -29.4017  -27.7928   17.0372 C   0  0  0  0  0  0  0  0  0  0  0  0
  -30.5644  -15.9297   21.9006 C   0  0  0  0  0  0  0  0  0  0  0  0
  -28.8228  -16.3006   23.5816 C   0  0  0  0  0  0  0  0  0  0  0  0
  -30.6678  -33.8810   20.1132 C   0  0  0  0  0  0  0  0  0  0  0  0
  -29.3177  -13.8484   18.2222 C   0  0  0  0  0  0  0  0  0  0  0  0
  -29.9598  -32.6205   20.5997 C   0  0  0  0  0  0  0  0  0  0  0  0
  -27.8697  -13.4640   18.5232 C   0  0  0  0  0  0  0  0  0  0  0  0
  -30.3002  -12.9096   18.9155 C   0  0  0  0  0  0  0  0  0  0  0  0
  -28.6535  -12.4205   20.6961 C   0  0  0  0  0  0  0  0  0  0  0  0
  -30.9600  -31.4825   20.8366 C   0  0  1  0  0  0  0  0  0  0  0  0
  -31.2142  -29.4226   17.6546 C   0  0  1  0  0  0  0  0  0  0  0  0
  -27.6285  -13.3623   20.0397 C   0  0  2  0  0  0  0  0  0  0  0  0
  -27.8270  -28.7025   10.7256 C   0  0  0  0  0  0  0  0  0  0  0  0
  -31.9180  -13.2952   23.5753 C   0  0  0  0  0  0  0  0  0  0  0  0
  -30.2458  -11.5269   22.9938 C   0  0  0  0  0  0  0  0  0  0  0  0
  -26.8761  -30.8389   16.9225 C   0  0  0  0  0  0  0  0  0  0  0  0
  -25.9218  -30.2752   14.6776 C   0  0  0  0  0  0  0  0  0  0  0  0
  -27.6270  -32.0838   14.8876 C   0  0  0  0  0  0  0  0  0  0  0  0
  -27.2546  -21.3200   23.2305 C   0  0  0  0  0  0  0  0  0  0  0  0
  -30.9179  -26.8500   11.9467 C   0  0  0  0  0  0  0  0  0  0  0  0
  -27.9934  -22.1140   20.0328 C   0  0  0  0  0  0  0  0  0  0  0  0
  -28.6966  -22.1887   21.3827 C   0  0  0  0  0  0  0  0  0  0  0  0
  -29.4986  -13.9117   23.0252 C   0  0  0  0  0  0  0  0  0  0  0  0
  -28.3449  -23.2778   19.1135 C   0  0  0  0  0  0  0  0  0  1  0  0
  -28.3403  -29.6719   15.1447 C   0  0  1  0  0  0  0  0  0  0  0  0
  -29.0296  -28.4524   11.6223 C   0  0  2  0  0  0  0  0  0  0  0  0
  -30.6809  -12.9756   22.7280 C   0  0  0  0  0  0  0  0  0  0  0  0
  -27.2057  -30.6979   15.4230 C   0  0  0  0  0  0  0  0  0  0  0  0
  -25.9179  -11.6508   20.5168 N   0  0  0  0  0  0  0  0  0  0  0  0
  -26.2013  -12.9546   20.3561 N   0  0  0  0  0  0  0  0  0  0  0  0
  -30.0970  -29.0644   16.7783 N   0  0  0  0  0  0  0  0  0  0  0  0
  -30.0239  -12.8229   20.3505 N   0  0  0  0  0  0  0  0  0  0  0  0
  -25.2305  -15.1151   20.3771 N   0  0  0  0  0  0  0  0  0  0  0  0
  -21.7414  -12.3961   21.2879 N   0  0  0  0  0  0  0  0  0  0  0  0
  -31.3525  -30.8844   19.5786 N   0  0  0  0  0  0  0  0  0  0  0  0
  -28.6921  -29.5378   13.7352 N   0  0  0  0  0  0  0  0  0  0  0  0
  -28.2969  -21.0898   22.2282 N   0  0  3  0  0  0  0  0  0  0  0  0
  -29.9320  -15.3338   23.1605 N   0  3  1  0  0  0  0  0  0  0  0  0
  -29.7042  -27.2041   11.1667 N   0  3  0  0  0  0  0  0  0  0  0  0
  -22.3676  -14.5794   20.9720 O   0  0  0  0  0  0  0  0  0  0  0  0
  -29.5735  -29.3990   19.3524 O   0  0  0  0  0  0  0  0  0  0  0  0
  -30.1777  -31.0916   15.6292 O   0  0  0  0  0  0  0  0  0  0  0  0
  -32.1960  -13.3867   20.9539 O   0  0  0  0  0  0  0  0  0  0  0  0
  -28.2596  -27.2648   13.5804 O   0  0  0  0  0  0  0  0  0  0  0  0
  -21.9135   -6.8431   21.6998 O   0  0  0  0  0  0  0  0  0  0  0  0
  -29.7550  -23.2800   18.8942 O   0  0  0  0  0  0  0  0  0  1  0  0
  -18.4023   -6.6533   25.9471 F   0  0  0  0  0  0  0  0  0  0  0  0
  -22.2842   -5.0457   23.7673 F   0  0  0  0  0  0  0  0  0  0  0  0
  1  2  1  0  0  0  0
  1  5  2  0  0  0  0
  2  6  2  0  0  0  0
  3 10  2  0  0  0  0
  3 18  1  0  0  0  0
  4 11  1  0  0  0  0
  4 18  2  0  0  0  0
  5 20  1  0  0  0  0
  6 23  1  0  0  0  0
  7  9  2  0  0  0  0
  7 22  1  0  0  0  0
  8 12  2  0  0  0  0
  8 21  1  0  0  0  0
  9 26  1  0  0  0  0
 10 27  1  0  0  0  0
 11 27  2  0  0  0  0
 12 28  1  0  0  0  0
 13 14  2  0  0  0  0
 13 29  1  0  0  0  0
 14 30  1  0  0  0  0
 15 24  1  0  0  0  0
 15 26  2  0  0  0  0
 16 25  1  0  0  0  0
 16 28  2  0  0  0  0
 17 30  2  0  0  0  0
 17 31  1  0  0  0  0
 18 32  1  0  0  0  0
 19 32  1  0  0  0  0
 19 33  2  0  0  0  0
 19 34  1  0  0  0  0
 20 23  2  0  0  0  0
 20 39  1  0  0  0  0
 21 25  2  0  0  0  0
 21 40  1  0  0  0  0
 22 24  2  0  0  0  0
 22 42  1  0  0  0  0
 23 50  1  0  0  0  0
 24 43  1  0  0  0  0
 25 41  1  0  0  0  0
 26 77  1  0  0  0  0
 27 85  1  0  0  0  0
 28 86  1  0  0  0  0
 29 31  2  0  0  0  0
 29 85  1  0  0  0  0
 30 87  1  0  0  0  0
 31 88  1  0  0  0  0
 32 69  2  0  0  0  0
 33 70  1  0  0  0  0
 33 73  1  0  0  0  0
 34 74  1  0  0  0  0
 34 80  2  0  0  0  0
 35 51  1  0  0  0  0
 35 75  1  0  0  0  0
 35 81  2  0  0  0  0
 36 65  1  0  0  0  0
 36 71  1  0  0  0  0
 36 82  2  0  0  0  0
 37 67  1  0  0  0  0
 37 72  1  0  0  0  0
 37 83  2  0  0  0  0
 38 66  1  0  0  0  0
 38 76  1  0  0  0  0
 38 84  2  0  0  0  0
 39 44  1  0  0  0  0
 40 51  1  0  0  0  0
 41 71  1  0  0  0  0
 42 78  1  0  0  0  0
 43 78  1  0  0  0  0
 44 46  1  0  0  0  0
 45 47  1  0  0  0  0
 45 48  1  0  0  0  0
 46 50  1  0  0  0  0
 47 52  1  0  0  0  0
 48 72  1  0  0  0  0
 49 52  1  0  0  0  0
 49 72  1  0  0  0  0
 50 75  1  0  0  0  0
 51 71  1  0  0  0  0
 52 70  1  0  0  0  0
 53 66  1  0  0  0  0
 54 67  1  0  0  0  0
 55 67  1  0  0  0  0
 56 68  1  0  0  0  0
 57 68  1  0  0  0  0
 58 68  1  0  0  0  0
 59 77  1  0  0  0  0
 60 79  1  0  0  0  0
 61 62  1  0  0  0  0
 61 64  1  0  0  0  0
 62 77  1  0  0  0  0
 63 67  1  0  0  0  0
 63 78  1  0  0  0  0
 64 86  1  0  0  0  0
 65 68  1  0  0  0  0
 65 76  1  0  0  0  0
 66 79  1  0  0  0  0
 69 70  1  0  0  0  0
M  CHG  2  78   1  79   1
M  ISO  4  37 100  64 101  67 100  86 101
M  END
> <Batch ID>
0015

> <Smiles>
CNC(C)C(=O)NC(C(=O)N1Cc2cc([101O:1][101CH2:1]CCN(C)c3ccc4c(c3)CN(C[100C:0](C)(C)[100C:0](=O)N3CCCC(n5nc(-c6ccc(Oc7ccc(F)cc7F)cc6)c(C(N)=O)c5N)C3)C4)ccc2CC1C(=O)NC1CCCc2ccccc21)C(C)(C)C

> <Shape>
0.228

> <Color>
0.177

> <Negative vol penalty>
0.000

$$$$

  -OEChem-04042320543D

 85 94  0     1  0  0  0  0  0999 V2000
  -28.0956  -24.5449   17.7333 C   0  0  0  0  0  0  0  0  0  0  0  0
  -26.9844  -25.1342   18.3276 C   0  0  0  0  0  0  0  0  0  0  0  0
  -26.0753  -14.1397   19.5168 C   0  0  0  0  0  0  0  0  0  0  0  0
  -24.2652  -14.1922   21.1161 C   0  0  0  0  0  0  0  0  0  0  0  0
  -29.3380  -24.6100   18.3626 C   0  0  0  0  0  0  0  0  0  0  0  0
  -27.1147  -25.7881   19.5523 C   0  0  0  0  0  0  0  0  0  0  0  0
  -24.7054  -30.2414   19.6431 C   0  0  0  0  0  0  0  0  0  0  0  0
  -21.1649  -25.2952   23.1920 C   0  0  0  0  0  0  0  0  0  0  0  0
  -22.2454  -24.4781   22.8598 C   0  0  0  0  0  0  0  0  0  0  0  0
  -26.2915  -12.7924   19.8056 C   0  0  0  0  0  0  0  0  0  0  0  0
  -24.4814  -12.8447   21.4049 C   0  0  0  0  0  0  0  0  0  0  0  0
  -23.3220  -30.2135   19.8134 C   0  0  0  0  0  0  0  0  0  0  0  0
  -23.7574   -9.8528   20.0103 C   0  0  0  0  0  0  0  0  0  0  0  0
  -22.6401   -9.0218   20.0922 C   0  0  0  0  0  0  0  0  0  0  0  0
  -23.6052  -30.7380   22.1509 C   0  0  0  0  0  0  0  0  0  0  0  0
  -19.8036  -24.1636   21.5477 C   0  0  0  0  0  0  0  0  0  0  0  0
  -23.2012   -8.4933   22.3820 C   0  0  0  0  0  0  0  0  0  0  0  0
  -25.0622  -14.8397   20.1721 C   0  0  0  0  0  0  0  0  0  0  0  0
  -23.9845  -16.7642   18.8905 C   0  0  0  0  0  0  0  0  0  0  0  0
  -29.4856  -25.2734   19.5910 C   0  0  0  0  0  0  0  0  0  0  0  0
  -25.5511  -30.5075   20.7296 C   0  0  0  0  0  0  0  0  0  0  0  0
  -28.3600  -25.8609   20.1994 C   0  0  0  0  0  0  0  0  0  0  0  0
  -24.9989  -30.7713   21.9912 C   0  0  0  0  0  0  0  0  0  0  0  0
  -19.9439  -25.1379   22.5360 C   0  0  0  0  0  0  0  0  0  0  0  0
  -22.1051  -23.5038   21.8716 C   0  0  0  0  0  0  0  0  0  0  0  0
  -20.8842  -23.3465   21.2155 C   0  0  0  0  0  0  0  0  0  0  0  0
  -25.4945  -12.1448   20.7496 C   0  0  0  0  0  0  0  0  0  0  0  0
  -22.7718  -30.4590   21.0680 C   0  0  0  0  0  0  0  0  0  0  0  0
  -24.5966  -10.0040   21.1142 C   0  0  0  0  0  0  0  0  0  0  0  0
  -22.3620   -8.3421   21.2780 C   0  0  0  0  0  0  0  0  0  0  0  0
  -24.3185   -9.3242   22.3000 C   0  0  0  0  0  0  0  0  0  0  0  0
  -24.8388  -16.2317   19.8746 C   0  0  0  0  0  0  0  0  0  0  0  0
  -24.1287  -18.1248   19.0104 C   0  0  0  0  0  0  0  0  0  0  0  0
  -19.1341  -28.4664   23.5181 C   0  0  0  0  0  0  0  0  0  0  0  0
  -23.1363  -16.0892   17.9520 C   0  0  0  0  0  0  0  0  0  0  0  0
  -27.8356  -28.8953   22.2415 C   0  0  0  0  0  0  0  0  0  0  0  0
  -28.2231  -31.6979   23.8282 C   0  0  0  0  0  0  0  0  0  0  0  0
  -26.8677  -34.6562   24.8571 C   0  0  0  0  0  0  0  0  0  0  0  0
  -24.4894  -22.7295   22.1200 C   0  0  0  0  0  0  0  0  0  0  0  0
  -30.8392  -25.2767   20.2562 C   0  0  0  0  0  0  0  0  0  0  0  0
  -27.0401  -30.5604   20.5237 C   0  0  0  0  0  0  0  0  0  0  0  0
  -25.8623  -31.0820   23.1855 C   0  0  0  0  0  0  0  0  0  0  0  0
  -30.9675  -26.3119   21.3708 C   0  0  0  0  0  0  0  0  0  0  0  0
  -27.4823  -20.8634   21.6325 C   0  0  0  0  0  0  0  0  0  0  0  0
  -29.7484  -26.2645   22.2863 C   0  0  0  0  0  0  0  0  0  0  0  0
  -26.9911  -19.5359   21.0507 C   0  0  0  0  0  0  0  0  0  0  0  0
  -26.5198  -21.4125   22.6841 C   0  0  0  0  0  0  0  0  0  0  0  0
  -19.5378  -28.0864   21.4912 C   0  0  0  0  0  0  0  0  0  0  0  0
  -24.6318  -20.2021   21.6646 C   0  0  0  0  0  0  0  0  0  0  0  0
  -28.4661  -26.6006   21.5154 C   0  0  1  0  0  0  0  0  0  0  0  0
  -19.5823  -29.3783   22.3514 C   0  0  2  0  0  0  0  0  0  0  0  0
  -27.8295  -30.3344   21.8094 C   0  0  1  0  0  0  0  0  0  0  0  0
  -25.5358  -19.6422   20.5542 C   0  0  2  0  0  0  0  0  0  0  0  0
  -27.4159  -36.7233   26.1699 C   0  0  0  0  0  0  0  0  0  0  0  0
  -27.9255  -30.1244   26.4254 C   0  0  0  0  0  0  0  0  0  0  0  0
  -27.5291  -32.2929   27.6123 C   0  0  0  0  0  0  0  0  0  0  0  0
  -29.7064  -31.8797   26.4673 C   0  0  0  0  0  0  0  0  0  0  0  0
  -26.4299  -36.4039   22.5091 C   0  0  0  0  0  0  0  0  0  0  0  0
  -18.7812  -26.0177   22.8940 C   0  0  0  0  0  0  0  0  0  0  0  0
  -20.9356  -30.0354   22.5189 C   0  0  0  0  0  0  0  0  0  1  0  0
  -27.6376  -32.3083   25.0787 C   0  0  1  0  0  0  0  0  0  0  0  0
  -27.3899  -36.0801   24.7921 C   0  0  2  0  0  0  0  0  0  0  0  0
  -28.1832  -31.6436   26.3740 C   0  0  0  0  0  0  0  0  0  0  0  0
  -25.4785  -17.1769   20.5684 N   0  0  0  0  0  0  0  0  0  0  0  0
  -25.0259  -18.3171   20.0195 N   0  0  0  0  0  0  0  0  0  0  0  0
  -19.0740  -27.4026   22.6867 N   0  0  0  0  0  0  0  0  0  0  0  0
  -27.3127  -31.1159   22.9347 N   0  0  0  0  0  0  0  0  0  0  0  0
  -25.1617  -21.4892   22.1415 N   0  0  0  0  0  0  0  0  0  0  0  0
  -20.7201  -22.3661   20.2112 N   0  0  0  0  0  0  0  0  0  0  0  0
  -23.5744  -19.1635   18.3500 N   0  0  0  0  0  0  0  0  0  0  0  0
  -23.1079  -14.6880   17.9647 N   0  0  0  0  0  0  0  0  0  0  0  0
  -23.2170  -22.6859   21.5513 N   0  0  0  0  0  0  0  0  0  0  0  0
  -28.3632  -28.0285   21.3036 N   0  0  0  0  0  0  0  0  0  0  0  0
  -27.8915  -33.7423   24.9904 N   0  0  0  0  0  0  0  0  0  0  0  0
  -26.5270  -36.9083   23.9030 N   0  3  0  0  0  0  0  0  0  0  0  0
  -18.9218  -28.6016   24.7011 O   0  0  0  0  0  0  0  0  0  0  0  0
  -22.4372  -16.7100   17.1157 O   0  0  0  0  0  0  0  0  0  0  0  0
  -27.3955  -28.5939   23.3448 O   0  0  0  0  0  0  0  0  0  0  0  0
  -29.4425  -31.7424   23.6473 O   0  0  0  0  0  0  0  0  0  0  0  0
  -25.6709  -34.3823   24.7993 O   0  0  0  0  0  0  0  0  0  0  0  0
  -25.0153  -23.7601   22.5481 O   0  0  0  0  0  0  0  0  0  0  0  0
  -25.7050  -10.8300   21.0315 O   0  0  0  0  0  0  0  0  0  0  0  0
  -21.4217  -30.4317   21.2372 O   0  0  0  0  0  0  0  0  0  1  0  0
  -21.2882   -7.5453   21.3570 F   0  0  0  0  0  0  0  0  0  0  0  0
  -25.1204   -9.4664   23.3642 F   0  0  0  0  0  0  0  0  0  0  0  0
  1  2  1  0  0  0  0
  1  5  2  0  0  0  0
  2  6  2  0  0  0  0
  3 10  2  0  0  0  0
  3 18  1  0  0  0  0
  4 11  1  0  0  0  0
  4 18  2  0  0  0  0
  5 20  1  0  0  0  0
  6 22  1  0  0  0  0
  7 12  2  0  0  0  0
  7 21  1  0  0  0  0
  8  9  2  0  0  0  0
  8 24  1  0  0  0  0
  9 25  1  0  0  0  0
 10 27  1  0  0  0  0
 11 27  2  0  0  0  0
 12 28  1  0  0  0  0
 13 14  2  0  0  0  0
 13 29  1  0  0  0  0
 14 30  1  0  0  0  0
 15 23  1  0  0  0  0
 15 28  2  0  0  0  0
 16 24  2  0  0  0  0
 16 26  1  0  0  0  0
 17 30  2  0  0  0  0
 17 31  1  0  0  0  0
 18 32  1  0  0  0  0
 19 32  1  0  0  0  0
 19 33  2  0  0  0  0
 19 35  1  0  0  0  0
 20 22  2  0  0  0  0
 20 40  1  0  0  0  0
 21 23  2  0  0  0  0
 21 41  1  0  0  0  0
 22 50  1  0  0  0  0
 23 42  1  0  0  0  0
 24 59  1  0  0  0  0
 25 26  2  0  0  0  0
 25 72  1  0  0  0  0
 26 69  1  0  0  0  0
 27 82  1  0  0  0  0
 28 83  1  0  0  0  0
 29 31  2  0  0  0  0
 29 82  1  0  0  0  0
 30 84  1  0  0  0  0
 31 85  1  0  0  0  0
 32 64  2  0  0  0  0
 33 65  1  0  0  0  0
 33 70  1  0  0  0  0
 34 51  1  0  0  0  0
 34 66  1  0  0  0  0
 34 76  2  0  0  0  0
 35 71  1  0  0  0  0
 35 77  2  0  0  0  0
 36 52  1  0  0  0  0
 36 73  1  0  0  0  0
 36 78  2  0  0  0  0
 37 61  1  0  0  0  0
 37 67  1  0  0  0  0
 37 79  2  0  0  0  0
 38 62  1  0  0  0  0
 38 74  1  0  0  0  0
 38 80  2  0  0  0  0
 39 68  1  0  0  0  0
 39 72  1  0  0  0  0
 39 81  2  0  0  0  0
 40 43  1  0  0  0  0
 41 52  1  0  0  0  0
 42 67  1  0  0  0  0
 43 45  1  0  0  0  0
 44 46  1  0  0  0  0
 44 47  1  0  0  0  0
 45 50  1  0  0  0  0
 46 53  1  0  0  0  0
 47 68  1  0  0  0  0
 48 51  1  0  0  0  0
 48 66  1  0  0  0  0
 49 53  1  0  0  0  0
 49 68  1  0  0  0  0
 50 73  1  0  0  0  0
 51 60  1  0  0  0  0
 52 67  1  0  0  0  0
 53 65  1  0  0  0  0
 54 62  1  0  0  0  0
 55 63  1  0  0  0  0
 56 63  1  0  0  0  0
 57 63  1  0  0  0  0
 58 75  1  0  0  0  0
 59 66  1  0  0  0  0
 60 83  1  0  0  0  0
 61 63  1  0  0  0  0
 61 74  1  0  0  0  0
 62 75  1  0  0  0  0
 64 65  1  0  0  0  0
M  CHG  1  75   1
M  ISO  4  39 100  60 101  72 100  83 101
M  END
> <Batch ID>
0015

> <Smiles>
CNC(C)C(=O)NC(C(=O)N1Cc2cc([101O:1][101CH2:1]C3CN(Cc4ccc([100NH:0][100C:0](=O)N5CCCC(n6nc(-c7ccc(Oc8ccc(F)cc8F)cc7)c(C(N)=O)c6N)C5)c(N)c4)C3=O)ccc2CC1C(=O)NC1CCCc2ccccc21)C(C)(C)C

> <Shape>
0.297

> <Color>
0.088

> <Negative vol penalty>
0.000

$$$$

  -OEChem-04042320543D

 85 94  0     1  0  0  0  0  0999 V2000
  -16.6367  -30.3162   23.1380 C   0  0  0  0  0  0  0  0  0  0  0  0
  -17.6575  -30.6485   22.2531 C   0  0  0  0  0  0  0  0  0  0  0  0
  -26.8477  -12.8161   20.0542 C   0  0  0  0  0  0  0  0  0  0  0  0
  -26.8828  -13.7834   22.2678 C   0  0  0  0  0  0  0  0  0  0  0  0
  -16.9337  -29.6418   24.3215 C   0  0  0  0  0  0  0  0  0  0  0  0
  -18.9761  -30.3074   22.5518 C   0  0  0  0  0  0  0  0  0  0  0  0
  -25.0984  -28.3714   19.3759 C   0  0  0  0  0  0  0  0  0  0  0  0
  -32.2245  -23.8827   18.6767 C   0  0  0  0  0  0  0  0  0  0  0  0
  -32.3828  -22.5885   19.1721 C   0  0  0  0  0  0  0  0  0  0  0  0
  -26.3454  -11.6267   20.5819 C   0  0  0  0  0  0  0  0  0  0  0  0
  -26.3804  -12.5940   22.7955 C   0  0  0  0  0  0  0  0  0  0  0  0
  -26.4465  -28.7237   19.3306 C   0  0  0  0  0  0  0  0  0  0  0  0
  -23.3633  -10.4341   21.6393 C   0  0  0  0  0  0  0  0  0  0  0  0
  -22.3012   -9.8258   20.9705 C   0  0  0  0  0  0  0  0  0  0  0  0
  -26.8314  -27.4892   21.3670 C   0  0  0  0  0  0  0  0  0  0  0  0
  -30.1482  -24.0947   19.8937 C   0  0  0  0  0  0  0  0  0  0  0  0
  -23.6482   -7.8495   20.6289 C   0  0  0  0  0  0  0  0  0  0  0  0
  -27.1165  -13.8945   20.8971 C   0  0  0  0  0  0  0  0  0  0  0  0
  -26.8960  -16.2249   19.8832 C   0  0  0  0  0  0  0  0  0  0  0  0
  -18.2555  -29.2838   24.6304 C   0  0  0  0  0  0  0  0  0  0  0  0
  -24.6036  -27.5830   20.4248 C   0  0  0  0  0  0  0  0  0  0  0  0
  -19.2913  -29.6288   23.7413 C   0  0  0  0  0  0  0  0  0  0  0  0
  -25.4771  -27.1261   21.4220 C   0  0  0  0  0  0  0  0  0  0  0  0
  -31.1073  -24.6359   19.0375 C   0  0  0  0  0  0  0  0  0  0  0  0
  -31.4237  -22.0473   20.0282 C   0  0  0  0  0  0  0  0  0  0  0  0
  -26.1117  -11.5156   21.9525 C   0  0  0  0  0  0  0  0  0  0  0  0
  -27.3127  -28.2851   20.3278 C   0  0  0  0  0  0  0  0  0  0  0  0
  -24.5680   -9.7502   21.8029 C   0  0  0  0  0  0  0  0  0  0  0  0
  -22.4436   -8.5335   20.4653 C   0  0  0  0  0  0  0  0  0  0  0  0
  -30.3064  -22.8004   20.3890 C   0  0  0  0  0  0  0  0  0  0  0  0
  -24.7104   -8.4578   21.2977 C   0  0  0  0  0  0  0  0  0  0  0  0
  -27.6360  -15.1232   20.3527 C   0  0  0  0  0  0  0  0  0  0  0  0
  -27.8466  -17.1280   19.4744 C   0  0  0  0  0  0  0  0  0  0  0  0
  -25.4761  -16.4150   19.8222 C   0  0  0  0  0  0  0  0  0  0  0  0
  -22.4508  -28.0046   22.7251 C   0  0  0  0  0  0  0  0  0  0  0  0
  -23.0350  -24.8679   23.3102 C   0  0  0  0  0  0  0  0  0  0  0  0
  -25.1773  -22.2235   23.0566 C   0  0  0  0  0  0  0  0  0  0  0  0
  -32.6371  -19.8527   20.2685 C   0  0  0  0  0  0  0  0  0  0  0  0
  -18.5336  -28.5972   25.9441 C   0  0  0  0  0  0  0  0  0  0  0  0
  -23.1520  -27.1894   20.4448 C   0  0  0  0  0  0  0  0  0  0  0  0
  -24.9999  -26.2608   22.5586 C   0  0  0  0  0  0  0  0  0  0  0  0
  -19.9102  -27.9407   26.0089 C   0  0  0  0  0  0  0  0  0  0  0  0
  -32.8408  -16.5955   18.8449 C   0  0  0  0  0  0  0  0  0  0  0  0
  -32.6768  -28.4673   20.3441 C   0  0  0  0  0  0  0  0  0  0  0  0
  -20.9811  -28.8937   25.4877 C   0  0  0  0  0  0  0  0  0  0  0  0
  -31.4440  -16.0128   19.0716 C   0  0  0  0  0  0  0  0  0  0  0  0
  -31.4697  -29.3337   20.0441 C   0  0  0  0  0  0  0  0  0  0  0  0
  -33.2884  -17.4679   20.0164 C   0  0  0  0  0  0  0  0  0  0  0  0
  -30.9490  -17.9448   20.6237 C   0  0  0  0  0  0  0  0  0  0  0  0
  -32.0919  -27.0757   20.4895 C   0  0  0  0  0  0  0  0  0  0  0  0
  -20.7311  -29.2541   24.0183 C   0  0  1  0  0  0  0  0  0  0  0  0
  -22.6549  -26.8103   21.8364 C   0  0  1  0  0  0  0  0  0  0  0  0
  -30.4282  -17.1114   19.4414 C   0  0  2  0  0  0  0  0  0  0  0  0
  -30.6832  -28.4831   19.0578 C   0  0  2  0  0  0  0  0  0  0  0  0
  -25.3921  -19.7974   23.6610 C   0  0  0  0  0  0  0  0  0  0  0  0
  -23.5961  -25.6419   26.2078 C   0  0  0  0  0  0  0  0  0  0  0  0
  -24.7001  -23.4160   26.5155 C   0  0  0  0  0  0  0  0  0  0  0  0
  -22.2788  -23.5346   25.9273 C   0  0  0  0  0  0  0  0  0  0  0  0
  -25.4090  -21.4174   20.2184 C   0  0  0  0  0  0  0  0  0  0  0  0
  -30.9363  -26.0277   18.5040 C   0  0  0  0  0  0  0  0  0  0  0  0
  -29.2071  -28.8303   18.9975 C   0  0  0  0  0  0  0  0  0  1  0  0
  -24.0096  -24.1051   24.1748 C   0  0  1  0  0  0  0  0  0  0  0  0
  -24.9620  -20.7934   22.5953 C   0  0  2  0  0  0  0  0  0  0  0  0
  -23.6551  -24.1923   25.6861 C   0  0  0  0  0  0  0  0  0  0  0  0
  -28.9550  -15.3074   20.2518 N   0  0  0  0  0  0  0  0  0  0  0  0
  -29.0513  -16.5353   19.7142 N   0  0  0  0  0  0  0  0  0  0  0  0
  -23.5706  -25.9080   22.5374 N   0  0  0  0  0  0  0  0  0  0  0  0
  -32.2790  -18.4884   20.3067 N   0  0  0  0  0  0  0  0  0  0  0  0
  -27.7612  -18.3633   18.9367 N   0  0  0  0  0  0  0  0  0  0  0  0
  -24.6439  -15.3862   20.2841 N   0  0  0  0  0  0  0  0  0  0  0  0
  -31.5868  -20.7320   20.5295 N   0  0  0  0  0  0  0  0  0  0  0  0
  -21.1478  -28.1705   23.1542 N   0  0  0  0  0  0  0  0  0  0  0  0
  -24.0458  -22.7455   23.6470 N   0  0  0  0  0  0  0  0  0  0  0  0
  -30.8730  -27.0662   19.5822 N   0  3  1  0  0  0  0  0  0  0  0  0
  -25.7466  -20.5249   21.3570 N   0  3  0  0  0  0  0  0  0  0  0  0
  -24.9606  -17.4593   19.3562 O   0  0  0  0  0  0  0  0  0  0  0  0
  -23.4052  -28.7216   23.0023 O   0  0  0  0  0  0  0  0  0  0  0  0
  -21.8437  -24.5480   23.3149 O   0  0  0  0  0  0  0  0  0  0  0  0
  -26.2438  -22.8168   22.9115 O   0  0  0  0  0  0  0  0  0  0  0  0
  -33.7844  -20.2150   19.9956 O   0  0  0  0  0  0  0  0  0  0  0  0
  -25.6213  -10.3552   22.4678 O   0  0  0  0  0  0  0  0  0  0  0  0
  -28.6290  -28.6281   20.2863 O   0  0  0  0  0  0  0  0  0  1  0  0
  -21.4230   -7.9488   19.8244 F   0  0  0  0  0  0  0  0  0  0  0  0
  -29.3776  -22.2898   21.2100 F   0  0  0  0  0  0  0  0  0  0  0  0
  -25.8648   -7.7953   21.4528 F   0  0  0  0  0  0  0  0  0  0  0  0
  1  2  1  0  0  0  0
  1  5  2  0  0  0  0
  2  6  2  0  0  0  0
  3 10  2  0  0  0  0
  3 18  1  0  0  0  0
  4 11  1  0  0  0  0
  4 18  2  0  0  0  0
  5 20  1  0  0  0  0
  6 22  1  0  0  0  0
  7 12  2  0  0  0  0
  7 21  1  0  0  0  0
  8  9  2  0  0  0  0
  8 24  1  0  0  0  0
  9 25  1  0  0  0  0
 10 26  1  0  0  0  0
 11 26  2  0  0  0  0
 12 27  1  0  0  0  0
 13 14  2  0  0  0  0
 13 28  1  0  0  0  0
 14 29  1  0  0  0  0
 15 23  1  0  0  0  0
 15 27  2  0  0  0  0
 16 24  2  0  0  0  0
 16 30  1  0  0  0  0
 17 29  2  0  0  0  0
 17 31  1  0  0  0  0
 18 32  1  0  0  0  0
 19 32  1  0  0  0  0
 19 33  2  0  0  0  0
 19 34  1  0  0  0  0
 20 22  2  0  0  0  0
 20 39  1  0  0  0  0
 21 23  2  0  0  0  0
 21 40  1  0  0  0  0
 22 51  1  0  0  0  0
 23 41  1  0  0  0  0
 24 60  1  0  0  0  0
 25 30  2  0  0  0  0
 25 71  1  0  0  0  0
 26 81  1  0  0  0  0
 27 82  1  0  0  0  0
 28 31  2  0  0  0  0
 28 81  1  0  0  0  0
 29 83  1  0  0  0  0
 30 84  1  0  0  0  0
 31 85  1  0  0  0  0
 32 65  2  0  0  0  0
 33 66  1  0  0  0  0
 33 69  1  0  0  0  0
 34 70  1  0  0  0  0
 34 76  2  0  0  0  0
 35 52  1  0  0  0  0
 35 72  1  0  0  0  0
 35 77  2  0  0  0  0
 36 62  1  0  0  0  0
 36 67  1  0  0  0  0
 36 78  2  0  0  0  0
 37 63  1  0  0  0  0
 37 73  1  0  0  0  0
 37 79  2  0  0  0  0
 38 68  1  0  0  0  0
 38 71  1  0  0  0  0
 38 80  2  0  0  0  0
 39 42  1  0  0  0  0
 40 52  1  0  0  0  0
 41 67  1  0  0  0  0
 42 45  1  0  0  0  0
 43 46  1  0  0  0  0
 43 48  1  0  0  0  0
 44 47  1  0  0  0  0
 44 50  1  0  0  0  0
 45 51  1  0  0  0  0
 46 53  1  0  0  0  0
 47 54  1  0  0  0  0
 48 68  1  0  0  0  0
 49 53  1  0  0  0  0
 49 68  1  0  0  0  0
 50 74  1  0  0  0  0
 51 72  1  0  0  0  0
 52 67  1  0  0  0  0
 53 66  1  0  0  0  0
 54 61  1  0  0  0  0
 54 74  1  0  0  0  0
 55 63  1  0  0  0  0
 56 64  1  0  0  0  0
 57 64  1  0  0  0  0
 58 64  1  0  0  0  0
 59 75  1  0  0  0  0
 60 74  1  0  0  0  0
 61 82  1  0  0  0  0
 62 64  1  0  0  0  0
 62 73  1  0  0  0  0
 63 75  1  0  0  0  0
 65 66  1  0  0  0  0
M  CHG  2  74   1  75   1
M  ISO  4  38 100  61 101  71 100  82 101
M  END
> <Batch ID>
0015

> <Smiles>
CNC(C)C(=O)NC(C(=O)N1Cc2cc([101O:1][101CH2:1]C3CCCN3Cc3ccc([100NH:0][100C:0](=O)N4CCCC(n5nc(-c6ccc(Oc7ccc(F)cc7F)cc6)c(C(N)=O)c5N)C4)c(F)c3)ccc2CC1C(=O)NC1CCCc2ccccc21)C(C)(C)C

> <Shape>
0.219

> <Color>
0.078

> <Negative vol penalty>
0.000

$$$$

  -OEChem-04042320543D

 96105  0     1  0  0  0  0  0999 V2000
  -30.9073  -17.4989   27.0829 C   0  0  0  0  0  0  0  0  0  0  0  0
  -31.6010  -18.5996   26.5902 C   0  0  0  0  0  0  0  0  0  0  0  0
  -23.0737   -9.8785   19.9540 C   0  0  0  0  0  0  0  0  0  0  0  0
  -23.7520   -9.9490   22.2717 C   0  0  0  0  0  0  0  0  0  0  0  0
  -29.8071  -17.6867   27.9184 C   0  0  0  0  0  0  0  0  0  0  0  0
  -31.1941  -19.8888   26.9320 C   0  0  0  0  0  0  0  0  0  0  0  0
  -35.0778  -22.8779   28.2076 C   0  0  0  0  0  0  0  0  0  0  0  0
  -31.2712  -17.0261   18.7923 C   0  0  0  0  0  0  0  0  0  0  0  0
  -30.5201  -18.8883   20.1357 C   0  0  0  0  0  0  0  0  0  0  0  0
  -35.2986  -21.4717   19.0225 C   0  0  0  0  0  0  0  0  0  0  0  0
  -32.1048  -17.8817   18.0722 C   0  0  0  0  0  0  0  0  0  0  0  0
  -31.3537  -19.7440   19.4157 C   0  0  0  0  0  0  0  0  0  0  0  0
  -36.1486  -21.7606   20.0900 C   0  0  0  0  0  0  0  0  0  0  0  0
  -22.3244   -8.7298   20.2082 C   0  0  0  0  0  0  0  0  0  0  0  0
  -23.0027   -8.8003   22.5259 C   0  0  0  0  0  0  0  0  0  0  0  0
  -35.8450  -23.4032   27.1687 C   0  0  0  0  0  0  0  0  0  0  0  0
  -23.3217   -5.4657   22.0679 C   0  0  0  0  0  0  0  0  0  0  0  0
  -23.9140   -4.4620   22.8342 C   0  0  0  0  0  0  0  0  0  0  0  0
  -34.6554  -25.4934   27.3552 C   0  0  0  0  0  0  0  0  0  0  0  0
  -34.3020  -22.7519   21.2920 C   0  0  0  0  0  0  0  0  0  0  0  0
  -22.1529   -4.6748   24.4744 C   0  0  0  0  0  0  0  0  0  0  0  0
  -23.7876  -10.4881   20.9857 C   0  0  0  0  0  0  0  0  0  0  0  0
  -24.1269  -13.0103   20.8106 C   0  0  0  0  0  0  0  0  0  0  0  0
  -29.3923  -18.9786   28.2784 C   0  0  0  0  0  0  0  0  0  0  0  0
  -34.0846  -23.6541   28.8218 C   0  0  0  0  0  0  0  0  0  0  0  0
  -30.0864  -20.0941   27.7720 C   0  0  0  0  0  0  0  0  0  0  0  0
  -33.8788  -24.9765   28.4034 C   0  0  0  0  0  0  0  0  0  0  0  0
  -30.4788  -17.5294   19.8241 C   0  0  0  0  0  0  0  0  0  0  0  0
  -33.9503  -21.8230   19.0896 C   0  0  0  0  0  0  0  0  0  0  0  0
  -32.1460  -19.2407   18.3839 C   0  0  0  0  0  0  0  0  0  0  0  0
  -35.6503  -22.4006   21.2248 C   0  0  0  0  0  0  0  0  0  0  0  0
  -22.2889   -8.1907   21.4941 C   0  0  0  0  0  0  0  0  0  0  0  0
  -35.6319  -24.7102   26.7404 C   0  0  0  0  0  0  0  0  0  0  0  0
  -22.1450   -6.0741   22.5049 C   0  0  0  0  0  0  0  0  0  0  0  0
  -23.3296   -4.0665   24.0374 C   0  0  0  0  0  0  0  0  0  0  0  0
  -33.4520  -22.4631   20.2244 C   0  0  0  0  0  0  0  0  0  0  0  0
  -21.5606   -5.6786   23.7081 C   0  0  0  0  0  0  0  0  0  0  0  0
  -24.5622  -11.6744   20.7237 C   0  0  0  0  0  0  0  0  0  0  0  0
  -25.2293  -13.7537   20.4663 C   0  0  0  0  0  0  0  0  0  0  0  0
  -22.8411  -13.5326   21.1706 C   0  0  0  0  0  0  0  0  0  0  0  0
  -30.9289  -23.4266   29.1275 C   0  0  0  0  0  0  0  0  0  0  0  0
  -31.3204  -26.0076   31.0529 C   0  0  0  0  0  0  0  0  0  0  0  0
  -33.2090  -28.7141   31.9219 C   0  0  0  0  0  0  0  0  0  0  0  0
  -30.8081  -14.5023   21.2625 C   0  0  0  0  0  0  0  0  0  0  0  0
  -28.1685  -19.1327   29.1461 C   0  0  0  0  0  0  0  0  0  0  0  0
  -33.2838  -23.0816   29.9591 C   0  0  0  0  0  0  0  0  0  0  0  0
  -32.8387  -25.8580   29.0435 C   0  0  0  0  0  0  0  0  0  0  0  0
  -28.0299  -20.5224   29.7625 C   0  0  0  0  0  0  0  0  0  0  0  0
  -29.6537  -12.3787   18.4590 C   0  0  0  0  0  0  0  0  0  0  0  0
  -28.2699  -21.5997   28.7096 C   0  0  0  0  0  0  0  0  0  0  0  0
  -28.2114  -12.0634   18.8520 C   0  0  0  0  0  0  0  0  0  0  0  0
  -30.5329  -12.6277   19.6808 C   0  0  0  0  0  0  0  0  0  0  0  0
  -28.5673  -13.3636   20.9882 C   0  0  0  0  0  0  0  0  0  0  0  0
  -29.6907  -21.5076   28.1400 C   0  0  1  0  0  0  0  0  0  0  0  0
  -31.9499  -23.7919   30.1676 C   0  0  1  0  0  0  0  0  0  0  0  0
  -27.6445  -13.1532   19.7784 C   0  0  2  0  0  0  0  0  0  0  0  0
  -38.1452  -20.9476   22.7611 C   0  0  0  0  0  0  0  0  0  0  0  0
  -33.2526  -30.6585   33.5077 C   0  0  0  0  0  0  0  0  0  0  0  0
  -35.9029  -27.1583   24.3900 C   0  0  0  0  0  0  0  0  0  0  0  0
  -29.2207  -27.4331   29.3590 C   0  0  0  0  0  0  0  0  0  0  0  0
  -29.9874  -29.5981   30.3556 C   0  0  0  0  0  0  0  0  0  0  0  0
  -29.0182  -27.8267   31.8204 C   0  0  0  0  0  0  0  0  0  0  0  0
  -33.8181  -19.5685   16.5791 C   0  0  0  0  0  0  0  0  0  0  0  0
  -30.8056  -16.4801   22.7348 C   0  0  0  0  0  0  0  0  0  0  0  0
  -35.7307  -27.7917   33.1665 C   0  0  0  0  0  0  0  0  0  0  0  0
  -29.5869  -16.6153   20.5942 C   0  0  0  0  0  0  0  0  0  0  0  0
  -33.0442  -21.5128   17.9464 C   0  0  0  0  0  0  0  0  0  0  0  0
  -36.1618  -24.8790   23.3325 C   0  0  0  0  0  0  0  0  0  0  0  0
  -37.9201  -22.3207   22.2257 C   0  0  0  0  0  0  0  0  0  0  0  0
  -36.0267  -23.3635   23.4812 C   0  0  0  0  0  0  0  0  0  0  0  0
  -31.3292  -27.5032   30.8475 C   0  0  1  0  0  0  0  0  0  0  0  0
  -33.6839  -29.2193   33.2723 C   0  0  2  0  0  0  0  0  0  0  0  0
  -35.6795  -25.6613   24.5612 C   0  0  1  0  0  0  0  0  0  1  0  0
  -29.9072  -28.0733   30.5821 C   0  0  0  0  0  0  0  0  0  0  0  0
  -25.8413  -11.5719   20.3530 N   0  0  0  0  0  0  0  0  0  0  0  0
  -26.2192  -12.8529   20.2039 N   0  0  0  0  0  0  0  0  0  0  0  0
  -32.0770  -25.2506   30.1473 N   0  0  0  0  0  0  0  0  0  0  0  0
  -29.9493  -13.6364   20.5657 N   0  0  0  0  0  0  0  0  0  0  0  0
  -25.4388  -15.0835   20.3653 N   0  0  0  0  0  0  0  0  0  0  0  0
  -21.8202  -12.6292   21.4960 N   0  0  0  0  0  0  0  0  0  0  0  0
  -30.6451  -22.0755   29.0680 N   0  0  0  0  0  0  0  0  0  0  0  0
  -31.9925  -28.0719   32.0158 N   0  0  0  0  0  0  0  0  0  0  0  0
  -32.9860  -20.1016   17.6609 N   0  0  3  0  0  0  0  0  0  0  0  0
  -36.5052  -22.6904   22.2979 N   0  0  3  0  0  0  0  0  0  0  0  0
  -30.3264  -15.7893   21.5461 N   0  0  0  0  0  0  0  0  0  0  0  0
  -35.1704  -29.1545   33.3561 N   0  3  0  0  0  0  0  0  0  0  0  0
  -22.5998  -14.7635   21.1867 O   0  0  0  0  0  0  0  0  0  0  0  0
  -30.4341  -24.3056   28.4317 O   0  0  0  0  0  0  0  0  0  0  0  0
  -30.6720  -25.5294   31.9870 O   0  0  0  0  0  0  0  0  0  0  0  0
  -33.8511  -28.8765   30.8866 O   0  0  0  0  0  0  0  0  0  0  0  0
  -31.9444  -14.1487   21.6027 O   0  0  0  0  0  0  0  0  0  0  0  0
  -21.5577   -7.0699   21.7426 O   0  0  0  0  0  0  0  0  0  0  0  0
  -36.3788  -25.2252   25.7261 O   0  0  0  0  0  0  0  0  0  1  0  0
  -23.8978   -3.1015   24.7724 F   0  0  0  0  0  0  0  0  0  0  0  0
  -32.1582  -22.8056   20.2976 F   0  0  0  0  0  0  0  0  0  0  0  0
  -20.4295   -6.2586   24.1325 F   0  0  0  0  0  0  0  0  0  0  0  0
  1  2  1  0  0  0  0
  1  5  2  0  0  0  0
  2  6  2  0  0  0  0
  3 14  2  0  0  0  0
  3 22  1  0  0  0  0
  4 15  1  0  0  0  0
  4 22  2  0  0  0  0
  5 24  1  0  0  0  0
  6 26  1  0  0  0  0
  7 16  2  0  0  0  0
  7 25  1  0  0  0  0
  8 11  2  0  0  0  0
  8 28  1  0  0  0  0
  9 12  1  0  0  0  0
  9 28  2  0  0  0  0
 10 13  2  0  0  0  0
 10 29  1  0  0  0  0
 11 30  1  0  0  0  0
 12 30  2  0  0  0  0
 13 31  1  0  0  0  0
 14 32  1  0  0  0  0
 15 32  2  0  0  0  0
 16 33  1  0  0  0  0
 17 18  2  0  0  0  0
 17 34  1  0  0  0  0
 18 35  1  0  0  0  0
 19 27  1  0  0  0  0
 19 33  2  0  0  0  0
 20 31  2  0  0  0  0
 20 36  1  0  0  0  0
 21 35  2  0  0  0  0
 21 37  1  0  0  0  0
 22 38  1  0  0  0  0
 23 38  1  0  0  0  0
 23 39  2  0  0  0  0
 23 40  1  0  0  0  0
 24 26  2  0  0  0  0
 24 45  1  0  0  0  0
 25 27  2  0  0  0  0
 25 46  1  0  0  0  0
 26 54  1  0  0  0  0
 27 47  1  0  0  0  0
 28 66  1  0  0  0  0
 29 36  2  0  0  0  0
 29 67  1  0  0  0  0
 30 83  1  0  0  0  0
 31 84  1  0  0  0  0
 32 92  1  0  0  0  0
 33 93  1  0  0  0  0
 34 37  2  0  0  0  0
 34 92  1  0  0  0  0
 35 94  1  0  0  0  0
 36 95  1  0  0  0  0
 37 96  1  0  0  0  0
 38 75  2  0  0  0  0
 39 76  1  0  0  0  0
 39 79  1  0  0  0  0
 40 80  1  0  0  0  0
 40 87  2  0  0  0  0
 41 55  1  0  0  0  0
 41 81  1  0  0  0  0
 41 88  2  0  0  0  0
 42 71  1  0  0  0  0
 42 77  1  0  0  0  0
 42 89  2  0  0  0  0
 43 72  1  0  0  0  0
 43 82  1  0  0  0  0
 43 90  2  0  0  0  0
 44 78  1  0  0  0  0
 44 85  1  0  0  0  0
 44 91  2  0  0  0  0
 45 48  1  0  0  0  0
 46 55  1  0  0  0  0
 47 77  1  0  0  0  0
 48 50  1  0  0  0  0
 49 51  1  0  0  0  0
 49 52  1  0  0  0  0
 50 54  1  0  0  0  0
 51 56  1  0  0  0  0
 52 78  1  0  0  0  0
 53 56  1  0  0  0  0
 53 78  1  0  0  0  0
 54 81  1  0  0  0  0
 55 77  1  0  0  0  0
 56 76  1  0  0  0  0
 57 69  1  0  0  0  0
 58 72  1  0  0  0  0
 59 73  1  0  0  0  0
 60 74  1  0  0  0  0
 61 74  1  0  0  0  0
 62 74  1  0  0  0  0
 63 83  1  0  0  0  0
 64 85  1  0  0  0  0
 65 86  1  0  0  0  0
 66 85  1  0  0  0  0
 67 83  1  0  0  0  0
 68 70  1  0  0  0  0
 68 73  1  0  0  0  0
 69 84  1  0  0  0  0
 70 84  1  0  0  0  0
 71 74  1  0  0  0  0
 71 82  1  0  0  0  0
 72 86  1  0  0  0  0
 73 93  1  0  0  0  0
 75 76  1  0  0  0  0
M  CHG  1  86   1
M  ISO  4  44 100  73 101  85 100  93 101
M  END
> <Batch ID>
0015

> <Smiles>
CCN(CC[101CH:1](C)[101O:1]c1ccc2c(c1)CN(C(=O)C(NC(=O)C(C)NC)C(C)(C)C)C(C(=O)NC1CCCc3ccccc31)C2)c1ccc(CN(C)c2ccc(C[100N:0](C)[100C:0](=O)N3CCCC(n4nc(-c5ccc(Oc6ccc(F)cc6F)cc5)c(C(N)=O)c4N)C3)cc2)c(F)c1

> <Shape>
0.171

> <Color>
0.185

> <Negative vol penalty>
0.000

$$$$

  -OEChem-04042320543D

 85 93  0     1  0  0  0  0  0999 V2000
  -16.8363  -28.3331   28.2326 C   0  0  0  0  0  0  0  0  0  0  0  0
  -18.0349  -27.9248   27.6563 C   0  0  0  0  0  0  0  0  0  0  0  0
  -23.1624  -10.2659   21.0464 C   0  0  0  0  0  0  0  0  0  0  0  0
  -24.7180   -8.7721   22.1352 C   0  0  0  0  0  0  0  0  0  0  0  0
  -16.1480  -29.4258   27.7071 C   0  0  0  0  0  0  0  0  0  0  0  0
  -18.5453  -28.6084   26.5533 C   0  0  0  0  0  0  0  0  0  0  0  0
  -24.4451  -29.6033   25.2461 C   0  0  0  0  0  0  0  0  0  0  0  0
  -29.3319  -20.5611   19.5621 C   0  0  0  0  0  0  0  0  0  0  0  0
  -29.5114  -19.1894   19.7401 C   0  0  0  0  0  0  0  0  0  0  0  0
  -22.2458   -9.2218   20.9234 C   0  0  0  0  0  0  0  0  0  0  0  0
  -23.8013   -7.7279   22.0123 C   0  0  0  0  0  0  0  0  0  0  0  0
  -25.3381  -28.9586   24.3912 C   0  0  0  0  0  0  0  0  0  0  0  0
  -21.0000   -6.6770   23.5836 C   0  0  0  0  0  0  0  0  0  0  0  0
  -20.7947   -5.8625   24.6972 C   0  0  0  0  0  0  0  0  0  0  0  0
  -24.8712  -30.5938   22.6802 C   0  0  0  0  0  0  0  0  0  0  0  0
  -27.2254  -20.1420   18.4558 C   0  0  0  0  0  0  0  0  0  0  0  0
  -21.5228   -3.9413   23.4261 C   0  0  0  0  0  0  0  0  0  0  0  0
  -24.3986  -10.0410   21.6522 C   0  0  0  0  0  0  0  0  0  0  0  0
  -25.4657  -12.0242   22.8505 C   0  0  0  0  0  0  0  0  0  0  0  0
  -16.6552  -30.1291   26.6031 C   0  0  0  0  0  0  0  0  0  0  0  0
  -23.7491  -30.7437   24.8199 C   0  0  0  0  0  0  0  0  0  0  0  0
  -17.8625  -29.7107   26.0117 C   0  0  0  0  0  0  0  0  0  0  0  0
  -23.9719  -31.2526   23.5325 C   0  0  0  0  0  0  0  0  0  0  0  0
  -28.1889  -21.0374   18.9200 C   0  0  0  0  0  0  0  0  0  0  0  0
  -28.5479  -18.2939   19.2759 C   0  0  0  0  0  0  0  0  0  0  0  0
  -22.5652   -7.9528   21.4064 C   0  0  0  0  0  0  0  0  0  0  0  0
  -25.5491  -29.4521   23.1071 C   0  0  0  0  0  0  0  0  0  0  0  0
  -21.4667   -6.1237   22.3913 C   0  0  0  0  0  0  0  0  0  0  0  0
  -21.0561   -4.4947   24.6184 C   0  0  0  0  0  0  0  0  0  0  0  0
  -21.7281   -4.7558   22.3125 C   0  0  0  0  0  0  0  0  0  0  0  0
  -27.4049  -18.7702   18.6337 C   0  0  0  0  0  0  0  0  0  0  0  0
  -25.3462  -11.1191   21.7790 C   0  0  0  0  0  0  0  0  0  0  0  0
  -26.5066  -12.8454   22.4918 C   0  0  0  0  0  0  0  0  0  0  0  0
  -24.7040  -12.1146   24.0618 C   0  0  0  0  0  0  0  0  0  0  0  0
  -20.6839  -31.4773   24.4080 C   0  0  0  0  0  0  0  0  0  0  0  0
  -21.8739  -34.4374   23.8212 C   0  0  0  0  0  0  0  0  0  0  0  0
  -24.5227  -36.3532   22.8413 C   0  0  0  0  0  0  0  0  0  0  0  0
  -28.8457  -15.9881   18.3873 C   0  0  0  0  0  0  0  0  0  0  0  0
  -15.8517  -31.2749   26.0408 C   0  0  0  0  0  0  0  0  0  0  0  0
  -22.8094  -31.4431   25.7634 C   0  0  0  0  0  0  0  0  0  0  0  0
  -23.2649  -32.4854   23.0337 C   0  0  0  0  0  0  0  0  0  0  0  0
  -16.6502  -32.1762   25.1027 C   0  0  0  0  0  0  0  0  0  0  0  0
  -29.8851  -12.4678   18.7585 C   0  0  0  0  0  0  0  0  0  0  0  0
  -17.4477  -31.3386   24.1081 C   0  0  0  0  0  0  0  0  0  0  0  0
  -28.7668  -11.8708   19.6112 C   0  0  0  0  0  0  0  0  0  0  0  0
  -29.3844  -13.6210   17.8939 C   0  0  0  0  0  0  0  0  0  0  0  0
  -27.5789  -14.0991   19.5192 C   0  0  0  0  0  0  0  0  0  0  0  0
  -18.4610  -30.4420   24.8297 C   0  0  1  0  0  0  0  0  0  0  0  0
  -21.7690  -32.2977   25.0461 C   0  0  1  0  0  0  0  0  0  0  0  0
  -28.0612  -12.9629   20.4336 C   0  0  1  0  0  0  0  0  0  0  0  0
  -25.1808  -38.7385   22.4232 C   0  0  0  0  0  0  0  0  0  0  0  0
  -20.3315  -34.3990   21.1888 C   0  0  0  0  0  0  0  0  0  0  0  0
  -21.7448  -36.3145   20.4132 C   0  0  0  0  0  0  0  0  0  0  0  0
  -20.2663  -36.5836   22.4042 C   0  0  0  0  0  0  0  0  0  0  0  0
  -29.1443  -16.4152   20.8159 C   0  0  0  0  0  0  0  0  0  0  0  0
  -26.6241  -36.2599   24.9232 C   0  0  0  0  0  0  0  0  0  0  0  0
  -27.9966  -22.5130   18.7287 C   0  0  0  0  0  0  0  0  0  0  0  0
  -27.1014  -25.2856   21.1889 C   0  0  0  0  0  0  0  0  0  0  0  0
  -26.9034  -26.7958   21.0836 C   0  0  0  0  0  0  0  0  0  0  0  0
  -27.4689  -24.6872   19.8392 C   0  0  0  0  0  0  0  0  0  0  0  0
  -26.5772  -27.4157   22.4349 C   0  0  0  0  0  0  0  0  0  1  0  0
  -22.3553  -35.1720   22.5934 C   0  0  1  0  0  0  0  0  0  0  0  0
  -25.1343  -37.6075   23.4389 C   0  0  2  0  0  0  0  0  0  0  0  0
  -21.1865  -35.5929   21.6583 C   0  0  0  0  0  0  0  0  0  0  0  0
  -26.2397  -11.3439   20.8120 N   0  0  0  0  0  0  0  0  0  0  0  0
  -26.9306  -12.3997   21.2745 N   0  0  0  0  0  0  0  0  0  0  0  0
  -22.3512  -33.1301   23.9913 N   0  0  0  0  0  0  0  0  0  0  0  0
  -28.6780  -14.6226   18.6934 N   0  0  0  0  0  0  0  0  0  0  0  0
  -27.0915  -13.8980   23.1021 N   0  0  0  0  0  0  0  0  0  0  0  0
  -23.6700  -11.1919   24.2713 N   0  0  0  0  0  0  0  0  0  0  0  0
  -19.6143  -31.2129   25.2420 N   0  0  0  0  0  0  0  0  0  0  0  0
  -23.1655  -36.2854   23.0753 N   0  0  0  0  0  0  0  0  0  0  0  0
  -28.7649  -16.8808   19.4779 N   0  0  0  0  0  0  0  0  0  0  0  0
  -26.5240  -37.3355   23.9033 N   0  3  0  0  0  0  0  0  0  0  0  0
  -27.6063  -23.2176   19.9806 N   0  3  0  0  0  0  0  0  0  0  0  0
  -24.9227  -12.9980   24.9251 O   0  0  0  0  0  0  0  0  0  0  0  0
  -20.8071  -31.1126   23.2446 O   0  0  0  0  0  0  0  0  0  0  0  0
  -21.1084  -35.0052   24.6043 O   0  0  0  0  0  0  0  0  0  0  0  0
  -25.1822  -35.5190   22.2251 O   0  0  0  0  0  0  0  0  0  0  0  0
  -29.0788  -16.3747   17.2358 O   0  0  0  0  0  0  0  0  0  0  0  0
  -21.6708   -6.9338   21.2868 O   0  0  0  0  0  0  0  0  0  0  0  0
  -26.4196  -28.8244   22.2705 O   0  0  0  0  0  0  0  0  0  1  0  0
  -20.8603   -3.7128   25.6883 F   0  0  0  0  0  0  0  0  0  0  0  0
  -22.1778   -4.2187   21.1701 F   0  0  0  0  0  0  0  0  0  0  0  0
  -26.1872  -17.6962   18.0431 Cl  0  0  0  0  0  0  0  0  0  0  0  0
  1  2  1  0  0  0  0
  1  5  2  0  0  0  0
  2  6  2  0  0  0  0
  3 10  2  0  0  0  0
  3 18  1  0  0  0  0
  4 11  1  0  0  0  0
  4 18  2  0  0  0  0
  5 20  1  0  0  0  0
  6 22  1  0  0  0  0
  7 12  2  0  0  0  0
  7 21  1  0  0  0  0
  8  9  2  0  0  0  0
  8 24  1  0  0  0  0
  9 25  1  0  0  0  0
 10 26  1  0  0  0  0
 11 26  2  0  0  0  0
 12 27  1  0  0  0  0
 13 14  2  0  0  0  0
 13 28  1  0  0  0  0
 14 29  1  0  0  0  0
 15 23  1  0  0  0  0
 15 27  2  0  0  0  0
 16 24  2  0  0  0  0
 16 31  1  0  0  0  0
 17 29  2  0  0  0  0
 17 30  1  0  0  0  0
 18 32  1  0  0  0  0
 19 32  1  0  0  0  0
 19 33  2  0  0  0  0
 19 34  1  0  0  0  0
 20 22  2  0  0  0  0
 20 39  1  0  0  0  0
 21 23  2  0  0  0  0
 21 40  1  0  0  0  0
 22 48  1  0  0  0  0
 23 41  1  0  0  0  0
 24 57  1  0  0  0  0
 25 31  2  0  0  0  0
 25 73  1  0  0  0  0
 26 81  1  0  0  0  0
 27 82  1  0  0  0  0
 28 30  2  0  0  0  0
 28 81  1  0  0  0  0
 29 83  1  0  0  0  0
 30 84  1  0  0  0  0
 31 85  1  0  0  0  0
 32 65  2  0  0  0  0
 33 66  1  0  0  0  0
 33 69  1  0  0  0  0
 34 70  1  0  0  0  0
 34 76  2  0  0  0  0
 35 49  1  0  0  0  0
 35 71  1  0  0  0  0
 35 77  2  0  0  0  0
 36 62  1  0  0  0  0
 36 67  1  0  0  0  0
 36 78  2  0  0  0  0
 37 63  1  0  0  0  0
 37 72  1  0  0  0  0
 37 79  2  0  0  0  0
 38 68  1  0  0  0  0
 38 73  1  0  0  0  0
 38 80  2  0  0  0  0
 39 42  1  0  0  0  0
 40 49  1  0  0  0  0
 41 67  1  0  0  0  0
 42 44  1  0  0  0  0
 43 45  1  0  0  0  0
 43 46  1  0  0  0  0
 44 48  1  0  0  0  0
 45 50  1  0  0  0  0
 46 68  1  0  0  0  0
 47 50  1  0  0  0  0
 47 68  1  0  0  0  0
 48 71  1  0  0  0  0
 49 67  1  0  0  0  0
 50 66  1  0  0  0  0
 51 63  1  0  0  0  0
 52 64  1  0  0  0  0
 53 64  1  0  0  0  0
 54 64  1  0  0  0  0
 55 73  1  0  0  0  0
 56 74  1  0  0  0  0
 57 75  1  0  0  0  0
 58 59  1  0  0  0  0
 58 60  1  0  0  0  0
 59 61  1  0  0  0  0
 60 75  1  0  0  0  0
 61 82  1  0  0  0  0
 62 64  1  0  0  0  0
 62 72  1  0  0  0  0
 63 74  1  0  0  0  0
 65 66  1  0  0  0  0
M  CHG  2  74   1  75   1
M  ISO  4  38 100  61 101  73 100  82 101
M  END
> <Batch ID>
0015

> <Smiles>
CNC(C)C(=O)NC(C(=O)N1Cc2cc([101O:1][101CH2:1]CCCNCc3ccc([100N:0](C)[100C:0](=O)N4CCCC(n5nc(-c6ccc(Oc7ccc(F)cc7F)cc6)c(C(N)=O)c5N)C4)c(Cl)c3)ccc2CC1C(=O)NC1CCCc2ccccc21)C(C)(C)C

> <Shape>
0.262

> <Color>
0.125

> <Negative vol penalty>
0.000

$$$$

  -OEChem-04042320543D

 85 93  0     1  0  0  0  0  0999 V2000
  -16.7485  -29.1848   21.0214 C   0  0  0  0  0  0  0  0  0  0  0  0
  -17.7864  -28.5971   20.3053 C   0  0  0  0  0  0  0  0  0  0  0  0
  -26.8319  -14.5839   20.8042 C   0  0  0  0  0  0  0  0  0  0  0  0
  -24.6536  -14.5355   19.7604 C   0  0  0  0  0  0  0  0  0  0  0  0
  -17.0276  -30.1618   21.9761 C   0  0  0  0  0  0  0  0  0  0  0  0
  -19.1040  -28.9868   20.5427 C   0  0  0  0  0  0  0  0  0  0  0  0
  -24.0897  -25.4373   20.3223 C   0  0  0  0  0  0  0  0  0  0  0  0
  -27.7042  -23.3457   22.3801 C   0  0  0  0  0  0  0  0  0  0  0  0
  -26.9651  -22.7369   23.3943 C   0  0  0  0  0  0  0  0  0  0  0  0
  -26.8201  -13.1920   20.8934 C   0  0  0  0  0  0  0  0  0  0  0  0
  -24.6418  -13.1435   19.8496 C   0  0  0  0  0  0  0  0  0  0  0  0
  -25.0543  -25.2350   19.3362 C   0  0  0  0  0  0  0  0  0  0  0  0
  -24.0545  -10.8039   22.2186 C   0  0  0  0  0  0  0  0  0  0  0  0
  -22.8844  -10.1934   22.6700 C   0  0  0  0  0  0  0  0  0  0  0  0
  -26.4806  -26.8595   20.4067 C   0  0  0  0  0  0  0  0  0  0  0  0
  -28.7748  -21.1834   23.7805 C   0  0  0  0  0  0  0  0  0  0  0  0
  -22.7076   -8.9892   20.5830 C   0  0  0  0  0  0  0  0  0  0  0  0
  -25.7486  -15.2557   20.2377 C   0  0  0  0  0  0  0  0  0  0  0  0
  -26.2522  -17.4735   19.0821 C   0  0  0  0  0  0  0  0  0  0  0  0
  -18.3501  -30.5568   22.2323 C   0  0  0  0  0  0  0  0  0  0  0  0
  -24.3092  -26.3617   21.3537 C   0  0  0  0  0  0  0  0  0  0  0  0
  -19.4010  -29.9710   21.5008 C   0  0  0  0  0  0  0  0  0  0  0  0
  -25.5183  -27.0697   21.4061 C   0  0  0  0  0  0  0  0  0  0  0  0
  -28.9786  -22.8734   22.0660 C   0  0  0  0  0  0  0  0  0  0  0  0
  -27.5004  -21.6557   24.0945 C   0  0  0  0  0  0  0  0  0  0  0  0
  -25.7250  -12.4718   20.4161 C   0  0  0  0  0  0  0  0  0  0  0  0
  -26.2488  -25.9483   19.3766 C   0  0  0  0  0  0  0  0  0  0  0  0
  -24.5511  -10.5071   20.9493 C   0  0  0  0  0  0  0  0  0  0  0  0
  -22.2110   -9.2860   21.8523 C   0  0  0  0  0  0  0  0  0  0  0  0
  -29.5139  -21.7923   22.7662 C   0  0  0  0  0  0  0  0  0  0  0  0
  -23.8776   -9.5997   20.1315 C   0  0  0  0  0  0  0  0  0  0  0  0
  -25.7600  -16.6936   20.1457 C   0  0  0  0  0  0  0  0  0  0  0  0
  -26.0330  -18.7705   19.4773 C   0  0  0  0  0  0  0  0  0  0  0  0
  -26.8535  -17.0623   17.8471 C   0  0  0  0  0  0  0  0  0  0  0  0
  -22.8836  -29.0373   22.3087 C   0  0  0  0  0  0  0  0  0  0  0  0
  -24.9923  -28.8232   24.7642 C   0  0  0  0  0  0  0  0  0  0  0  0
  -27.9736  -27.6380   25.9279 C   0  0  0  0  0  0  0  0  0  0  0  0
  -25.3284  -20.9715   25.1459 C   0  0  0  0  0  0  0  0  0  0  0  0
  -18.5987  -31.6507   23.2403 C   0  0  0  0  0  0  0  0  0  0  0  0
  -23.2699  -26.5487   22.4248 C   0  0  0  0  0  0  0  0  0  0  0  0
  -25.8112  -28.0588   22.5036 C   0  0  0  0  0  0  0  0  0  0  0  0
  -20.0526  -31.7391   23.6972 C   0  0  0  0  0  0  0  0  0  0  0  0
  -23.1496  -21.4462   22.1928 C   0  0  0  0  0  0  0  0  0  0  0  0
  -20.9936  -31.6782   22.4982 C   0  0  0  0  0  0  0  0  0  0  0  0
  -23.5598  -20.2925   21.2796 C   0  0  0  0  0  0  0  0  0  0  0  0
  -23.3506  -21.1019   23.6655 C   0  0  0  0  0  0  0  0  0  0  0  0
  -25.1536  -19.5074   23.0754 C   0  0  0  0  0  0  0  0  0  0  0  0
  -20.8453  -30.3493   21.7475 C   0  0  1  0  0  0  0  0  0  0  0  0
  -23.3846  -27.8909   23.1408 C   0  0  1  0  0  0  0  0  0  0  0  0
  -24.9986  -19.8443   21.5848 C   0  0  1  0  0  0  0  0  0  0  0  0
  -29.8004  -27.1478   27.5771 C   0  0  0  0  0  0  0  0  0  0  0  0
  -25.8523  -31.6767   24.1098 C   0  0  0  0  0  0  0  0  0  0  0  0
  -27.9044  -31.3015   25.4942 C   0  0  0  0  0  0  0  0  0  0  0  0
  -25.6489  -31.1828   26.5530 C   0  0  0  0  0  0  0  0  0  0  0  0
  -27.4330  -20.6556   26.3718 C   0  0  0  0  0  0  0  0  0  0  0  0
  -26.7066  -25.0931   26.7508 C   0  0  0  0  0  0  0  0  0  0  0  0
  -29.6818  -21.7751   19.2138 C   0  0  0  0  0  0  0  0  0  0  0  0
  -29.7710  -23.5325   20.9757 C   0  0  0  0  0  0  0  0  0  0  0  0
  -28.6950  -24.1774   17.4099 C   0  0  0  0  0  0  0  0  0  0  0  0
  -29.6747  -24.1818   18.5737 C   0  0  0  0  0  0  0  0  0  0  0  0
  -27.2545  -24.4577   17.8202 C   0  0  0  0  0  0  0  0  0  1  0  0
  -26.3955  -29.3204   25.0148 C   0  0  1  0  0  0  0  0  0  0  0  0
  -28.3399  -26.9245   27.2167 C   0  0  2  0  0  0  0  0  0  0  0  0
  -26.4443  -30.8532   25.2711 C   0  0  0  0  0  0  0  0  0  0  0  0
  -25.2657  -17.4333   21.1419 N   0  0  0  0  0  0  0  0  0  0  0  0
  -25.4462  -18.6917   20.7059 N   0  0  0  0  0  0  0  0  0  0  0  0
  -24.7611  -28.2112   23.5242 N   0  0  0  0  0  0  0  0  0  0  0  0
  -24.7072  -20.6197   23.9300 N   0  0  0  0  0  0  0  0  0  0  0  0
  -26.2871  -19.9593   18.8903 N   0  0  0  0  0  0  0  0  0  0  0  0
  -27.0028  -15.6907   17.6008 N   0  0  0  0  0  0  0  0  0  0  0  0
  -21.5329  -29.2900   22.4543 N   0  0  0  0  0  0  0  0  0  0  0  0
  -26.9247  -28.5145   26.1097 N   0  0  0  0  0  0  0  0  0  0  0  0
  -26.7353  -21.0248   25.1420 N   0  0  0  0  0  0  0  0  0  0  0  0
  -28.1081  -25.4586   27.0811 N   0  3  0  0  0  0  0  0  0  0  0  0
  -29.2799  -23.1805   19.5920 N   0  3  1  0  0  0  0  0  0  0  0  0
  -27.2617  -17.8871   16.9948 O   0  0  0  0  0  0  0  0  0  0  0  0
  -23.6649  -29.6484   21.5891 O   0  0  0  0  0  0  0  0  0  0  0  0
  -24.1348  -28.9661   25.6394 O   0  0  0  0  0  0  0  0  0  0  0  0
  -28.5617  -27.4407   24.8669 O   0  0  0  0  0  0  0  0  0  0  0  0
  -24.6781  -21.1703   26.1795 O   0  0  0  0  0  0  0  0  0  0  0  0
  -25.7133  -11.1135   20.5029 O   0  0  0  0  0  0  0  0  0  0  0  0
  -27.1917  -25.7533   18.4150 O   0  0  0  0  0  0  0  0  0  1  0  0
  -21.0882   -8.6986   22.2865 F   0  0  0  0  0  0  0  0  0  0  0  0
  -30.7375  -21.3315   22.4717 F   0  0  0  0  0  0  0  0  0  0  0  0
  -24.3505   -9.3097   18.9116 F   0  0  0  0  0  0  0  0  0  0  0  0
  1  2  1  0  0  0  0
  1  5  2  0  0  0  0
  2  6  2  0  0  0  0
  3 10  2  0  0  0  0
  3 18  1  0  0  0  0
  4 11  1  0  0  0  0
  4 18  2  0  0  0  0
  5 20  1  0  0  0  0
  6 22  1  0  0  0  0
  7 12  2  0  0  0  0
  7 21  1  0  0  0  0
  8  9  2  0  0  0  0
  8 24  1  0  0  0  0
  9 25  1  0  0  0  0
 10 26  1  0  0  0  0
 11 26  2  0  0  0  0
 12 27  1  0  0  0  0
 13 14  2  0  0  0  0
 13 28  1  0  0  0  0
 14 29  1  0  0  0  0
 15 23  1  0  0  0  0
 15 27  2  0  0  0  0
 16 25  2  0  0  0  0
 16 30  1  0  0  0  0
 17 29  2  0  0  0  0
 17 31  1  0  0  0  0
 18 32  1  0  0  0  0
 19 32  1  0  0  0  0
 19 33  2  0  0  0  0
 19 34  1  0  0  0  0
 20 22  2  0  0  0  0
 20 39  1  0  0  0  0
 21 23  2  0  0  0  0
 21 40  1  0  0  0  0
 22 48  1  0  0  0  0
 23 41  1  0  0  0  0
 24 30  2  0  0  0  0
 24 58  1  0  0  0  0
 25 73  1  0  0  0  0
 26 81  1  0  0  0  0
 27 82  1  0  0  0  0
 28 31  2  0  0  0  0
 28 81  1  0  0  0  0
 29 83  1  0  0  0  0
 30 84  1  0  0  0  0
 31 85  1  0  0  0  0
 32 65  2  0  0  0  0
 33 66  1  0  0  0  0
 33 69  1  0  0  0  0
 34 70  1  0  0  0  0
 34 76  2  0  0  0  0
 35 49  1  0  0  0  0
 35 71  1  0  0  0  0
 35 77  2  0  0  0  0
 36 62  1  0  0  0  0
 36 67  1  0  0  0  0
 36 78  2  0  0  0  0
 37 63  1  0  0  0  0
 37 72  1  0  0  0  0
 37 79  2  0  0  0  0
 38 68  1  0  0  0  0
 38 73  1  0  0  0  0
 38 80  2  0  0  0  0
 39 42  1  0  0  0  0
 40 49  1  0  0  0  0
 41 67  1  0  0  0  0
 42 44  1  0  0  0  0
 43 45  1  0  0  0  0
 43 46  1  0  0  0  0
 44 48  1  0  0  0  0
 45 50  1  0  0  0  0
 46 68  1  0  0  0  0
 47 50  1  0  0  0  0
 47 68  1  0  0  0  0
 48 71  1  0  0  0  0
 49 67  1  0  0  0  0
 50 66  1  0  0  0  0
 51 63  1  0  0  0  0
 52 64  1  0  0  0  0
 53 64  1  0  0  0  0
 54 64  1  0  0  0  0
 55 73  1  0  0  0  0
 56 74  1  0  0  0  0
 57 75  1  0  0  0  0
 58 75  1  0  0  0  0
 59 60  1  0  0  0  0
 59 61  1  0  0  0  0
 60 75  1  0  0  0  0
 61 82  1  0  0  0  0
 62 64  1  0  0  0  0
 62 72  1  0  0  0  0
 63 74  1  0  0  0  0
 65 66  1  0  0  0  0
M  CHG  2  74   1  75   1
M  ISO  4  38 100  61 101  73 100  82 101
M  END
> <Batch ID>
0015

> <Smiles>
CNC(C)C(=O)NC(C(=O)N1Cc2cc([101O:1][101CH2:1]CCN(C)Cc3ccc([100N:0](C)[100C:0](=O)N4CCCC(n5nc(-c6ccc(Oc7ccc(F)cc7F)cc6)c(C(N)=O)c5N)C4)cc3F)ccc2CC1C(=O)NC1CCCc2ccccc21)C(C)(C)C

> <Shape>
0.190

> <Color>
0.066

> <Negative vol penalty>
0.000

$$$$

  -OEChem-04042320543D

 92100  0     1  0  0  0  0  0999 V2000
  -31.1543  -23.2918   18.3355 C   0  0  0  0  0  0  0  0  0  0  0  0
  -30.2028  -23.0518   19.3216 C   0  0  0  0  0  0  0  0  0  0  0  0
  -22.8919  -15.7770   20.8878 C   0  0  0  0  0  0  0  0  0  0  0  0
  -22.3524  -14.2878   19.0635 C   0  0  0  0  0  0  0  0  0  0  0  0
  -31.7935  -24.5293   18.2716 C   0  0  0  0  0  0  0  0  0  0  0  0
  -29.8907  -24.0489   20.2452 C   0  0  0  0  0  0  0  0  0  0  0  0
  -24.9027  -24.5249   20.9790 C   0  0  0  0  0  0  0  0  0  0  0  0
  -29.8840  -17.4748   18.6236 C   0  0  0  0  0  0  0  0  0  0  0  0
  -21.7743  -16.5543   20.5838 C   0  0  0  0  0  0  0  0  0  0  0  0
  -21.2347  -15.0650   18.7595 C   0  0  0  0  0  0  0  0  0  0  0  0
  -24.2871  -23.5814   21.8004 C   0  0  0  0  0  0  0  0  0  0  0  0
  -19.2637  -19.1328   20.0626 C   0  0  0  0  0  0  0  0  0  0  0  0
  -29.2246  -18.4810   17.9177 C   0  0  0  0  0  0  0  0  0  0  0  0
  -19.4219  -20.5184   20.0413 C   0  0  0  0  0  0  0  0  0  0  0  0
  -24.3321  -25.1534   23.6296 C   0  0  0  0  0  0  0  0  0  0  0  0
  -28.8280  -18.2158   20.6663 C   0  0  0  0  0  0  0  0  0  0  0  0
  -21.0799  -20.3024   18.2974 C   0  0  0  0  0  0  0  0  0  0  0  0
  -23.1810  -14.6438   20.1275 C   0  0  0  0  0  0  0  0  0  0  0  0
  -24.3945  -12.7426   21.3195 C   0  0  0  0  0  0  0  0  0  0  0  0
  -31.4821  -25.5453   19.1889 C   0  0  0  0  0  0  0  0  0  0  0  0
  -25.2481  -25.7880   21.4806 C   0  0  0  0  0  0  0  0  0  0  0  0
  -30.5273  -25.3006   20.1944 C   0  0  0  0  0  0  0  0  0  0  0  0
  -24.9497  -26.1120   22.8118 C   0  0  0  0  0  0  0  0  0  0  0  0
  -28.1687  -19.2221   19.9604 C   0  0  0  0  0  0  0  0  0  0  0  0
  -29.6857  -17.3421   19.9979 C   0  0  0  0  0  0  0  0  0  0  0  0
  -20.9457  -16.1983   19.5197 C   0  0  0  0  0  0  0  0  0  0  0  0
  -24.0043  -23.8946   23.1267 C   0  0  0  0  0  0  0  0  0  0  0  0
  -20.0137  -18.3319   19.2013 C   0  0  0  0  0  0  0  0  0  0  0  0
  -20.3300  -21.1033   19.1587 C   0  0  0  0  0  0  0  0  0  0  0  0
  -28.3670  -19.3547   18.5861 C   0  0  0  0  0  0  0  0  0  0  0  0
  -20.9218  -18.9167   18.3187 C   0  0  0  0  0  0  0  0  0  0  0  0
  -24.3357  -13.8408   20.4407 C   0  0  0  0  0  0  0  0  0  0  0  0
  -25.7037  -12.3308   21.2674 C   0  0  0  0  0  0  0  0  0  0  0  0
  -23.3582  -12.1479   22.1121 C   0  0  0  0  0  0  0  0  0  0  0  0
  -27.9725  -27.3786   21.8700 C   0  0  0  0  0  0  0  0  0  0  0  0
  -25.9863  -29.7928   22.7355 C   0  0  0  0  0  0  0  0  0  0  0  0
  -24.8813  -19.5254   20.1222 C   0  0  0  0  0  0  0  0  0  0  0  0
  -22.9405  -30.7466   23.9440 C   0  0  0  0  0  0  0  0  0  0  0  0
  -30.7080  -15.0764   20.1114 C   0  0  0  0  0  0  0  0  0  0  0  0
  -32.2336  -26.8505   19.1093 C   0  0  0  0  0  0  0  0  0  0  0  0
  -25.8875  -26.8040   20.5743 C   0  0  0  0  0  0  0  0  0  0  0  0
  -25.2819  -27.4611   23.3932 C   0  0  0  0  0  0  0  0  0  0  0  0
  -31.5746  -27.9817   19.8944 C   0  0  0  0  0  0  0  0  0  0  0  0
  -29.4928  -12.2303   18.3604 C   0  0  0  0  0  0  0  0  0  0  0  0
  -31.1700  -27.5015   21.2846 C   0  0  0  0  0  0  0  0  0  0  0  0
  -28.0227  -12.2221   18.7778 C   0  0  0  0  0  0  0  0  0  0  0  0
  -30.0119  -13.6484   18.1207 C   0  0  0  0  0  0  0  0  0  0  0  0
  -28.3177  -14.5625   19.6759 C   0  0  0  0  0  0  0  0  0  0  0  0
  -30.1436  -26.3654   21.1989 C   0  0  1  0  0  0  0  0  0  0  0  0
  -26.6612  -27.8781   21.3327 C   0  0  1  0  0  0  0  0  0  0  0  0
  -27.7846  -13.1537   19.9794 C   0  0  1  0  0  0  0  0  0  0  0  0
  -25.1071  -20.2186   18.8019 C   0  0  0  0  0  0  0  0  0  0  0  0
  -21.6239  -32.7864   24.5788 C   0  0  0  0  0  0  0  0  0  0  0  0
  -27.6020  -30.0306   25.3128 C   0  0  0  0  0  0  0  0  0  0  0  0
  -25.7237  -31.3708   26.2845 C   0  0  0  0  0  0  0  0  0  0  0  0
  -26.9515  -32.2153   24.2840 C   0  0  0  0  0  0  0  0  0  0  0  0
  -30.9205  -16.6175   22.0493 C   0  0  0  0  0  0  0  0  0  0  0  0
  -20.8591  -30.1755   21.9191 C   0  0  0  0  0  0  0  0  0  0  0  0
  -25.1451  -19.9250   27.1446 C   0  0  0  0  0  0  0  0  0  0  0  0
  -27.2450  -20.1606   20.6817 C   0  0  0  0  0  0  0  0  0  0  0  0
  -25.4016  -19.8868   23.3672 C   0  0  0  0  0  0  0  0  0  0  0  0
  -22.9541  -21.9173   26.0358 C   0  0  0  0  0  0  0  0  0  0  0  0
  -25.8926  -18.8990   22.3121 C   0  0  0  0  0  0  0  0  0  0  0  0
  -25.3126  -19.2571   24.7516 C   0  0  0  0  0  0  0  0  0  0  0  0
  -23.3239  -20.5223   25.5546 C   0  0  0  0  0  0  0  0  0  0  0  0
  -23.7101  -23.0321   25.3234 C   0  0  0  0  0  0  0  0  0  1  0  0
  -25.3711  -30.2579   24.0333 C   0  0  1  0  0  0  0  0  0  0  0  0
  -21.9534  -31.7983   23.4707 C   0  0  2  0  0  0  0  0  0  0  0  0
  -26.4074  -30.9425   24.9685 C   0  0  0  0  0  0  0  0  0  0  0  0
  -25.5139  -14.1097   19.8720 N   0  0  0  0  0  0  0  0  0  0  0  0
  -26.3254  -13.1747   20.3947 N   0  0  0  0  0  0  0  0  0  0  0  0
  -25.9121  -28.4183   22.4690 N   0  0  0  0  0  0  0  0  0  0  0  0
  -29.7262  -14.5102   19.2765 N   0  0  0  0  0  0  0  0  0  0  0  0
  -26.3723  -11.3328   21.8833 N   0  0  0  0  0  0  0  0  0  0  0  0
  -22.0697  -12.6955   22.0470 N   0  0  0  0  0  0  0  0  0  0  0  0
  -28.8294  -26.8931   20.9008 N   0  0  0  0  0  0  0  0  0  0  0  0
  -24.2425  -31.1075   23.6686 N   0  0  0  0  0  0  0  0  0  0  0  0
  -30.3678  -16.2997   20.7282 N   0  0  0  0  0  0  0  0  0  0  0  0
  -25.9677  -19.5253   21.0136 N   0  0  0  0  0  0  0  0  0  0  0  0
  -20.6861  -31.1548   23.0227 N   0  3  0  0  0  0  0  0  0  0  0  0
  -24.7757  -20.2795   25.7243 N   0  3  1  0  0  0  0  0  0  0  0  0
  -23.5723  -11.1703   22.8684 O   0  0  0  0  0  0  0  0  0  0  0  0
  -28.1912  -27.4312   23.0746 O   0  0  0  0  0  0  0  0  0  0  0  0
  -26.5070  -30.6196   21.9825 O   0  0  0  0  0  0  0  0  0  0  0  0
  -23.7853  -19.0065   20.3499 O   0  0  0  0  0  0  0  0  0  0  0  0
  -22.5917  -29.7104   24.5054 O   0  0  0  0  0  0  0  0  0  0  0  0
  -31.7942  -14.5195   20.3114 O   0  0  0  0  0  0  0  0  0  0  0  0
  -19.8549  -16.9564   19.2230 O   0  0  0  0  0  0  0  0  0  0  0  0
  -23.4041  -22.9753   23.9307 O   0  0  0  0  0  0  0  0  0  1  0  0
  -20.4806  -22.4341   19.1374 F   0  0  0  0  0  0  0  0  0  0  0  0
  -27.7389  -20.3192   17.8994 F   0  0  0  0  0  0  0  0  0  0  0  0
  -21.6442  -18.1526   17.4880 F   0  0  0  0  0  0  0  0  0  0  0  0
  1  2  1  0  0  0  0
  1  5  2  0  0  0  0
  2  6  2  0  0  0  0
  3  9  2  0  0  0  0
  3 18  1  0  0  0  0
  4 10  1  0  0  0  0
  4 18  2  0  0  0  0
  5 20  1  0  0  0  0
  6 22  1  0  0  0  0
  7 11  2  0  0  0  0
  7 21  1  0  0  0  0
  8 13  2  0  0  0  0
  8 25  1  0  0  0  0
  9 26  1  0  0  0  0
 10 26  2  0  0  0  0
 11 27  1  0  0  0  0
 12 14  2  0  0  0  0
 12 28  1  0  0  0  0
 13 30  1  0  0  0  0
 14 29  1  0  0  0  0
 15 23  1  0  0  0  0
 15 27  2  0  0  0  0
 16 24  1  0  0  0  0
 16 25  2  0  0  0  0
 17 29  2  0  0  0  0
 17 31  1  0  0  0  0
 18 32  1  0  0  0  0
 19 32  1  0  0  0  0
 19 33  2  0  0  0  0
 19 34  1  0  0  0  0
 20 22  2  0  0  0  0
 20 40  1  0  0  0  0
 21 23  2  0  0  0  0
 21 41  1  0  0  0  0
 22 49  1  0  0  0  0
 23 42  1  0  0  0  0
 24 30  2  0  0  0  0
 24 60  1  0  0  0  0
 25 78  1  0  0  0  0
 26 88  1  0  0  0  0
 27 89  1  0  0  0  0
 28 31  2  0  0  0  0
 28 88  1  0  0  0  0
 29 90  1  0  0  0  0
 30 91  1  0  0  0  0
 31 92  1  0  0  0  0
 32 70  2  0  0  0  0
 33 71  1  0  0  0  0
 33 74  1  0  0  0  0
 34 75  1  0  0  0  0
 34 82  2  0  0  0  0
 35 50  1  0  0  0  0
 35 76  1  0  0  0  0
 35 83  2  0  0  0  0
 36 67  1  0  0  0  0
 36 72  1  0  0  0  0
 36 84  2  0  0  0  0
 37 52  1  0  0  0  0
 37 79  1  0  0  0  0
 37 85  2  0  0  0  0
 38 68  1  0  0  0  0
 38 77  1  0  0  0  0
 38 86  2  0  0  0  0
 39 73  1  0  0  0  0
 39 78  1  0  0  0  0
 39 87  2  0  0  0  0
 40 43  1  0  0  0  0
 41 50  1  0  0  0  0
 42 72  1  0  0  0  0
 43 45  1  0  0  0  0
 44 46  1  0  0  0  0
 44 47  1  0  0  0  0
 45 49  1  0  0  0  0
 46 51  1  0  0  0  0
 47 73  1  0  0  0  0
 48 51  1  0  0  0  0
 48 73  1  0  0  0  0
 49 76  1  0  0  0  0
 50 72  1  0  0  0  0
 51 71  1  0  0  0  0
 53 68  1  0  0  0  0
 54 69  1  0  0  0  0
 55 69  1  0  0  0  0
 56 69  1  0  0  0  0
 57 78  1  0  0  0  0
 58 80  1  0  0  0  0
 59 81  1  0  0  0  0
 60 79  1  0  0  0  0
 61 63  1  0  0  0  0
 61 64  1  0  0  0  0
 62 65  1  0  0  0  0
 62 66  1  0  0  0  0
 63 79  1  0  0  0  0
 64 81  1  0  0  0  0
 65 81  1  0  0  0  0
 66 89  1  0  0  0  0
 67 69  1  0  0  0  0
 67 77  1  0  0  0  0
 68 80  1  0  0  0  0
 70 71  1  0  0  0  0
M  CHG  2  80   1  81   1
M  ISO  4  39 100  66 101  78 100  89 101
M  END
> <Batch ID>
0015

> <Smiles>
CNC(C)C(=O)NC(C(=O)N1Cc2cc([101O:1][101CH2:1]CCN(C)CCCN(Cc3cc([100N:0](C)[100C:0](=O)N4CCCC(n5nc(-c6ccc(Oc7ccc(F)cc7F)cc6)c(C(N)=O)c5N)C4)ccc3F)C(C)=O)ccc2CC1C(=O)NC1CCCc2ccccc21)C(C)(C)C

> <Shape>
0.260

> <Color>
0.086

> <Negative vol penalty>
0.000

$$$$

  -OEChem-04042320543D

 83 91  0     1  0  0  0  0  0999 V2000
  -36.0471  -28.2137   15.6321 C   0  0  0  0  0  0  0  0  0  0  0  0
  -36.0338  -27.6678   16.9116 C   0  0  0  0  0  0  0  0  0  0  0  0
  -23.4535   -9.7229   21.1217 C   0  0  0  0  0  0  0  0  0  0  0  0
  -24.0909  -10.5180   23.3122 C   0  0  0  0  0  0  0  0  0  0  0  0
  -34.8468  -28.4419   14.9603 C   0  0  0  0  0  0  0  0  0  0  0  0
  -34.8201  -27.3508   17.5206 C   0  0  0  0  0  0  0  0  0  0  0  0
  -33.7146  -22.6676   21.3089 C   0  0  0  0  0  0  0  0  0  0  0  0
  -32.8289  -16.7419   23.2403 C   0  0  0  0  0  0  0  0  0  0  0  0
  -32.3016  -15.7038   22.4724 C   0  0  0  0  0  0  0  0  0  0  0  0
  -22.8269   -8.6211   21.7039 C   0  0  0  0  0  0  0  0  0  0  0  0
  -23.4643   -9.4162   23.8945 C   0  0  0  0  0  0  0  0  0  0  0  0
  -33.6451  -22.5816   22.6987 C   0  0  0  0  0  0  0  0  0  0  0  0
  -21.3694   -5.4104   22.5930 C   0  0  0  0  0  0  0  0  0  0  0  0
  -21.5911   -4.1583   22.0197 C   0  0  0  0  0  0  0  0  0  0  0  0
  -31.2472  -22.8208   22.5875 C   0  0  0  0  0  0  0  0  0  0  0  0
  -31.4823  -16.0370   25.1182 C   0  0  0  0  0  0  0  0  0  0  0  0
  -23.9596   -4.3860   22.4386 C   0  0  0  0  0  0  0  0  0  0  0  0
  -24.0855  -10.6714   21.9258 C   0  0  0  0  0  0  0  0  0  0  0  0
  -24.1580  -13.0618   21.0380 C   0  0  0  0  0  0  0  0  0  0  0  0
  -33.6183  -28.1185   15.5575 C   0  0  0  0  0  0  0  0  0  0  0  0
  -32.5500  -22.8420   20.5474 C   0  0  0  0  0  0  0  0  0  0  0  0
  -33.6022  -27.5760   16.8567 C   0  0  0  0  0  0  0  0  0  0  0  0
  -31.3044  -22.9061   21.1880 C   0  0  0  0  0  0  0  0  0  0  0  0
  -32.4193  -16.9085   24.5633 C   0  0  0  0  0  0  0  0  0  0  0  0
  -31.3646  -14.8322   23.0274 C   0  0  0  0  0  0  0  0  0  0  0  0
  -22.8323   -8.4677   23.0903 C   0  0  0  0  0  0  0  0  0  0  0  0
  -32.4116  -22.6611   23.3384 C   0  0  0  0  0  0  0  0  0  0  0  0
  -22.4427   -6.1503   23.0892 C   0  0  0  0  0  0  0  0  0  0  0  0
  -22.8863   -3.6461   21.9425 C   0  0  0  0  0  0  0  0  0  0  0  0
  -30.9549  -14.9988   24.3503 C   0  0  0  0  0  0  0  0  0  0  0  0
  -23.7378   -5.6381   23.0120 C   0  0  0  0  0  0  0  0  0  0  0  0
  -24.7334  -11.8095   21.3249 C   0  0  0  0  0  0  0  0  0  0  0  0
  -25.1797  -13.7889   20.4777 C   0  0  0  0  0  0  0  0  0  0  0  0
  -22.8196  -13.5264   21.2584 C   0  0  0  0  0  0  0  0  0  0  0  0
  -31.4749  -25.0921   18.5764 C   0  0  0  0  0  0  0  0  0  0  0  0
  -29.0800  -22.9619   18.0772 C   0  0  0  0  0  0  0  0  0  0  0  0
  -27.2717  -20.3110   19.2387 C   0  0  0  0  0  0  0  0  0  0  0  0
  -31.1307  -13.4763   20.9171 C   0  0  0  0  0  0  0  0  0  0  0  0
  -32.3447  -28.4271   14.8109 C   0  0  0  0  0  0  0  0  0  0  0  0
  -32.6393  -22.9061   19.0473 C   0  0  0  0  0  0  0  0  0  0  0  0
  -30.0227  -23.0728   20.4148 C   0  0  0  0  0  0  0  0  0  0  0  0
  -31.1188  -27.7156   15.3776 C   0  0  0  0  0  0  0  0  0  0  0  0
  -29.2011  -13.2511   17.9334 C   0  0  0  0  0  0  0  0  0  0  0  0
  -31.0785  -27.8495   16.8966 C   0  0  0  0  0  0  0  0  0  0  0  0
  -27.7829  -12.9759   18.4386 C   0  0  0  0  0  0  0  0  0  0  0  0
  -30.2539  -12.5457   18.7863 C   0  0  0  0  0  0  0  0  0  0  0  0
  -28.7447  -12.5335   20.7335 C   0  0  0  0  0  0  0  0  0  0  0  0
  -32.3070  -27.1959   17.5408 C   0  0  1  0  0  0  0  0  0  0  0  0
  -31.4410  -23.5995   18.4065 C   0  0  1  0  0  0  0  0  0  0  0  0
  -27.6533  -13.2756   19.9449 C   0  0  2  0  0  0  0  0  0  0  0  0
  -25.3540  -18.8137   18.6238 C   0  0  0  0  0  0  0  0  0  0  0  0
  -27.1186  -25.1963   18.7633 C   0  0  0  0  0  0  0  0  0  0  0  0
  -25.3463  -23.4535   19.0634 C   0  0  0  0  0  0  0  0  0  0  0  0
  -26.4293  -23.7581   16.8370 C   0  0  0  0  0  0  0  0  0  0  0  0
  -28.9871  -17.8998   19.2884 C   0  0  0  0  0  0  0  0  0  0  0  0
  -32.9855  -18.0258   25.3891 C   0  0  0  0  0  0  0  0  0  0  0  0
  -31.4979  -21.3491   26.5742 C   0  0  0  0  0  0  0  0  0  0  0  0
  -32.5346  -20.2429   26.4474 C   0  0  0  0  0  0  0  0  0  0  0  0
  -31.1513  -22.0192   25.2504 C   0  0  0  0  0  0  0  0  0  1  0  0
  -27.7398  -22.6907   18.7172 C   0  0  1  0  0  0  0  0  0  0  0  0
  -26.8620  -19.0055   18.5811 C   0  0  2  0  0  0  0  0  0  0  0  0
  -26.6826  -23.7734   18.3602 C   0  0  0  0  0  0  0  0  0  0  0  0
  -26.0208  -11.7413   20.9756 N   0  0  0  0  0  0  0  0  0  0  0  0
  -26.2627  -12.9600   20.4633 N   0  0  0  0  0  0  0  0  0  0  0  0
  -30.1627  -23.1368   18.9507 N   0  0  0  0  0  0  0  0  0  0  0  0
  -30.0717  -12.8799   20.2005 N   0  0  0  0  0  0  0  0  0  0  0  0
  -25.2484  -15.0499   20.0008 N   0  0  0  0  0  0  0  0  0  0  0  0
  -21.8961  -12.6500   21.8444 N   0  0  0  0  0  0  0  0  0  0  0  0
  -30.8301  -13.7788   22.2448 N   0  0  0  0  0  0  0  0  0  0  0  0
  -32.1550  -25.7570   17.5740 N   0  0  0  0  0  0  0  0  0  0  0  0
  -27.3655  -21.3370   18.3224 N   0  0  0  0  0  0  0  0  0  0  0  0
  -27.5023  -17.8526   19.2753 N   0  3  0  0  0  0  0  0  0  0  0  0
  -32.0292  -19.1507   25.5830 N   0  3  0  0  0  0  0  0  0  0  0  0
  -22.4491  -14.6789   20.9298 O   0  0  0  0  0  0  0  0  0  0  0  0
  -30.9236  -25.6027   19.5443 O   0  0  0  0  0  0  0  0  0  0  0  0
  -29.1643  -23.0096   16.8475 O   0  0  0  0  0  0  0  0  0  0  0  0
  -27.4833  -20.4114   20.4453 O   0  0  0  0  0  0  0  0  0  0  0  0
  -32.2147  -13.7270   20.3842 O   0  0  0  0  0  0  0  0  0  0  0  0
  -22.2208   -7.3928   23.6588 O   0  0  0  0  0  0  0  0  0  0  0  0
  -32.3409  -22.5782   24.6949 O   0  0  0  0  0  0  0  0  0  1  0  0
  -23.0989   -2.4431   21.3932 F   0  0  0  0  0  0  0  0  0  0  0  0
  -30.0537  -14.1680   24.8936 F   0  0  0  0  0  0  0  0  0  0  0  0
  -24.7729   -6.3438   23.4880 F   0  0  0  0  0  0  0  0  0  0  0  0
  1  2  1  0  0  0  0
  1  5  2  0  0  0  0
  2  6  2  0  0  0  0
  3 10  2  0  0  0  0
  3 18  1  0  0  0  0
  4 11  1  0  0  0  0
  4 18  2  0  0  0  0
  5 20  1  0  0  0  0
  6 22  1  0  0  0  0
  7 12  2  0  0  0  0
  7 21  1  0  0  0  0
  8  9  2  0  0  0  0
  8 24  1  0  0  0  0
  9 25  1  0  0  0  0
 10 26  1  0  0  0  0
 11 26  2  0  0  0  0
 12 27  1  0  0  0  0
 13 14  2  0  0  0  0
 13 28  1  0  0  0  0
 14 29  1  0  0  0  0
 15 23  1  0  0  0  0
 15 27  2  0  0  0  0
 16 24  2  0  0  0  0
 16 30  1  0  0  0  0
 17 29  2  0  0  0  0
 17 31  1  0  0  0  0
 18 32  1  0  0  0  0
 19 32  1  0  0  0  0
 19 33  2  0  0  0  0
 19 34  1  0  0  0  0
 20 22  2  0  0  0  0
 20 39  1  0  0  0  0
 21 23  2  0  0  0  0
 21 40  1  0  0  0  0
 22 48  1  0  0  0  0
 23 41  1  0  0  0  0
 24 56  1  0  0  0  0
 25 30  2  0  0  0  0
 25 69  1  0  0  0  0
 26 79  1  0  0  0  0
 27 80  1  0  0  0  0
 28 31  2  0  0  0  0
 28 79  1  0  0  0  0
 29 81  1  0  0  0  0
 30 82  1  0  0  0  0
 31 83  1  0  0  0  0
 32 63  2  0  0  0  0
 33 64  1  0  0  0  0
 33 67  1  0  0  0  0
 34 68  1  0  0  0  0
 34 74  2  0  0  0  0
 35 49  1  0  0  0  0
 35 70  1  0  0  0  0
 35 75  2  0  0  0  0
 36 60  1  0  0  0  0
 36 65  1  0  0  0  0
 36 76  2  0  0  0  0
 37 61  1  0  0  0  0
 37 71  1  0  0  0  0
 37 77  2  0  0  0  0
 38 66  1  0  0  0  0
 38 69  1  0  0  0  0
 38 78  2  0  0  0  0
 39 42  1  0  0  0  0
 40 49  1  0  0  0  0
 41 65  1  0  0  0  0
 42 44  1  0  0  0  0
 43 45  1  0  0  0  0
 43 46  1  0  0  0  0
 44 48  1  0  0  0  0
 45 50  1  0  0  0  0
 46 66  1  0  0  0  0
 47 50  1  0  0  0  0
 47 66  1  0  0  0  0
 48 70  1  0  0  0  0
 49 65  1  0  0  0  0
 50 64  1  0  0  0  0
 51 61  1  0  0  0  0
 52 62  1  0  0  0  0
 53 62  1  0  0  0  0
 54 62  1  0  0  0  0
 55 72  1  0  0  0  0
 56 73  1  0  0  0  0
 57 58  1  0  0  0  0
 57 59  1  0  0  0  0
 58 73  1  0  0  0  0
 59 80  1  0  0  0  0
 60 62  1  0  0  0  0
 60 71  1  0  0  0  0
 61 72  1  0  0  0  0
 63 64  1  0  0  0  0
M  CHG  2  72   1  73   1
M  ISO  4  38 100  59 101  69 100  80 101
M  END
> <Batch ID>
0015

> <Smiles>
CNC(C)C(=O)NC(C(=O)N1Cc2cc([101O:1][101CH2:1]CCNCc3ccc([100NH:0][100C:0](=O)N4CCCC(n5nc(-c6ccc(Oc7ccc(F)cc7F)cc6)c(C(N)=O)c5N)C4)c(F)c3)ccc2CC1C(=O)NC1CCCc2ccccc21)C(C)(C)C

> <Shape>
0.216

> <Color>
0.158

> <Negative vol penalty>
0.000

$$$$

  -OEChem-04042320543D

 84 92  0     1  0  0  0  0  0999 V2000
  -30.5935  -24.2758   16.0757 C   0  0  0  0  0  0  0  0  0  0  0  0
  -30.8518  -23.7363   17.3317 C   0  0  0  0  0  0  0  0  0  0  0  0
  -22.0371  -28.8446   22.9341 C   0  0  0  0  0  0  0  0  0  0  0  0
  -21.6483  -28.3557   20.6002 C   0  0  0  0  0  0  0  0  0  0  0  0
  -29.3316  -24.1288   15.5013 C   0  0  0  0  0  0  0  0  0  0  0  0
  -29.8479  -23.0505   18.0146 C   0  0  0  0  0  0  0  0  0  0  0  0
  -31.5051  -18.7361   20.0847 C   0  0  0  0  0  0  0  0  0  0  0  0
  -31.6869  -23.9166   22.6432 C   0  0  0  0  0  0  0  0  0  0  0  0
  -30.6349  -24.9383   24.5632 C   0  0  0  0  0  0  0  0  0  0  0  0
  -31.0536  -24.8359   21.8069 C   0  0  0  0  0  0  0  0  0  0  0  0
  -30.0016  -25.8577   23.7269 C   0  0  0  0  0  0  0  0  0  0  0  0
  -20.8143  -28.2585   23.2607 C   0  0  0  0  0  0  0  0  0  0  0  0
  -20.4254  -27.7695   20.9268 C   0  0  0  0  0  0  0  0  0  0  0  0
  -32.2325  -18.8368   21.2698 C   0  0  0  0  0  0  0  0  0  0  0  0
  -19.3311  -24.8306   22.1862 C   0  0  0  0  0  0  0  0  0  0  0  0
  -19.0202  -23.6086   21.5901 C   0  0  0  0  0  0  0  0  0  0  0  0
  -30.2582  -18.2481   22.5246 C   0  0  0  0  0  0  0  0  0  0  0  0
  -17.0565  -24.5970   20.5881 C   0  0  0  0  0  0  0  0  0  0  0  0
  -22.4541  -28.8933   21.6038 C   0  0  0  0  0  0  0  0  0  0  0  0
  -24.1117  -30.8297   21.5015 C   0  0  0  0  0  0  0  0  0  0  0  0
  -28.3146  -23.4325   16.1733 C   0  0  0  0  0  0  0  0  0  0  0  0
  -30.1437  -18.4008   20.1114 C   0  0  0  0  0  0  0  0  0  0  0  0
  -28.5708  -22.8953   17.4493 C   0  0  0  0  0  0  0  0  0  0  0  0
  -29.5163  -18.1413   21.3383 C   0  0  0  0  0  0  0  0  0  0  0  0
  -31.4775  -23.9677   24.0213 C   0  0  0  0  0  0  0  0  0  0  0  0
  -30.2110  -25.8065   22.3487 C   0  0  0  0  0  0  0  0  0  0  0  0
  -20.0084  -27.7209   22.2571 C   0  0  0  0  0  0  0  0  0  0  0  0
  -31.6084  -18.5956   22.4902 C   0  0  0  0  0  0  0  0  0  0  0  0
  -18.5047  -25.9359   21.9834 C   0  0  0  0  0  0  0  0  0  0  0  0
  -17.8829  -23.4918   20.7910 C   0  0  0  0  0  0  0  0  0  0  0  0
  -17.3674  -25.8191   21.1844 C   0  0  0  0  0  0  0  0  0  0  0  0
  -23.7170  -29.4991   21.2658 C   0  0  0  0  0  0  0  0  0  0  0  0
  -25.3878  -30.9034   20.9990 C   0  0  0  0  0  0  0  0  0  0  0  0
  -23.3894  -31.9030   22.1195 C   0  0  0  0  0  0  0  0  0  0  0  0
  -27.4582  -19.8519   19.2249 C   0  0  0  0  0  0  0  0  0  0  0  0
  -26.1212  -16.9992   19.9976 C   0  0  0  0  0  0  0  0  0  0  0  0
  -26.3133  -14.0993   21.7864 C   0  0  0  0  0  0  0  0  0  0  0  0
  -29.6673  -26.8287   20.1114 C   0  0  0  0  0  0  0  0  0  0  0  0
  -26.9524  -23.3403   15.5327 C   0  0  0  0  0  0  0  0  0  0  0  0
  -29.3796  -18.2701   18.8224 C   0  0  0  0  0  0  0  0  0  0  0  0
  -28.0620  -17.7581   21.4198 C   0  0  0  0  0  0  0  0  0  0  0  0
  -26.0552  -22.2763   16.1597 C   0  0  0  0  0  0  0  0  0  0  0  0
  -28.2146  -28.9603   17.6571 C   0  0  0  0  0  0  0  0  0  0  0  0
  -26.0975  -22.3715   17.6815 C   0  0  0  0  0  0  0  0  0  0  0  0
  -26.9354  -29.4662   18.3278 C   0  0  0  0  0  0  0  0  0  0  0  0
  -28.5081  -27.5057   18.0202 C   0  0  0  0  0  0  0  0  0  0  0  0
  -27.2563  -27.7245   20.1307 C   0  0  0  0  0  0  0  0  0  0  0  0
  -27.5152  -22.1232   18.2106 C   0  0  1  0  0  0  0  0  0  0  0  0
  -27.8727  -18.4249   19.0028 C   0  0  1  0  0  0  0  0  0  0  0  0
  -26.9541  -29.2050   19.8467 C   0  0  2  0  0  0  0  0  0  0  0  0
  -25.0524  -11.9776   22.2405 C   0  0  0  0  0  0  0  0  0  0  0  0
  -34.3259  -19.1701   25.9794 C   0  0  0  0  0  0  0  0  0  0  0  0
  -24.1989  -18.5315   21.8050 C   0  0  0  0  0  0  0  0  0  0  0  0
  -23.6300  -16.3635   22.9206 C   0  0  0  0  0  0  0  0  0  0  0  0
  -23.1463  -16.6800   20.4940 C   0  0  0  0  0  0  0  0  0  0  0  0
  -28.5081  -12.4285   20.7137 C   0  0  0  0  0  0  0  0  0  0  0  0
  -30.0603  -21.6580   25.1508 C   0  0  0  0  0  0  0  0  0  0  0  0
  -32.1586  -22.9788   24.9207 C   0  0  0  0  0  0  0  0  0  0  0  0
  -32.2530  -20.6201   25.7133 C   0  0  0  0  0  0  0  0  0  0  0  0
  -33.3999  -19.6216   23.6707 C   0  0  0  0  0  0  0  0  0  1  0  0
  -25.5409  -16.3958   21.2538 C   0  0  1  0  0  0  0  0  0  0  0  0
  -26.1114  -12.6504   21.3810 C   0  0  2  0  0  0  0  0  0  0  0  0
  -33.5805  -20.1723   25.0909 C   0  0  2  0  0  0  0  0  0  0  0  0
  -24.1560  -17.0018   21.6173 C   0  0  0  0  0  0  0  0  0  0  0  0
  -24.6655  -28.7794   20.6605 N   0  0  0  0  0  0  0  0  0  0  0  0
  -25.6688  -29.6610   20.5115 N   0  0  0  0  0  0  0  0  0  0  0  0
  -27.3561  -17.6494   20.1325 N   0  0  0  0  0  0  0  0  0  0  0  0
  -28.5143  -27.3347   19.4747 N   0  0  0  0  0  0  0  0  0  0  0  0
  -26.2857  -31.9092   20.9309 N   0  0  0  0  0  0  0  0  0  0  0  0
  -22.6012  -32.7317   21.3092 N   0  0  0  0  0  0  0  0  0  0  0  0
  -29.5677  -26.7407   21.4995 N   0  0  0  0  0  0  0  0  0  0  0  0
  -27.8174  -20.7079   18.2014 N   0  0  0  0  0  0  0  0  0  0  0  0
  -25.5249  -14.9522   21.0434 N   0  0  0  0  0  0  0  0  0  0  0  0
  -27.3852  -11.8901   21.5237 N   0  3  0  0  0  0  0  0  0  0  0  0
  -31.5410  -21.6025   24.8620 N   0  3  1  0  0  0  0  0  0  0  0  0
  -23.4543  -32.1309   23.3513 O   0  0  0  0  0  0  0  0  0  0  0  0
  -26.8558  -20.1538   20.2485 O   0  0  0  0  0  0  0  0  0  0  0  0
  -25.5051  -16.8913   18.9344 O   0  0  0  0  0  0  0  0  0  0  0  0
  -27.0900  -14.4400   22.6760 O   0  0  0  0  0  0  0  0  0  0  0  0
  -30.6790  -26.5234   19.4748 O   0  0  0  0  0  0  0  0  0  0  0  0
  -18.8152  -27.1487   22.5754 O   0  0  0  0  0  0  0  0  0  0  0  0
  -32.3159  -18.6938   23.6485 O   0  0  0  0  0  0  0  0  0  1  0  0
  -17.5853  -22.3185   20.2172 F   0  0  0  0  0  0  0  0  0  0  0  0
  -16.5703  -26.8777   20.9849 F   0  0  0  0  0  0  0  0  0  0  0  0
  1  2  1  0  0  0  0
  1  5  2  0  0  0  0
  2  6  2  0  0  0  0
  3 12  2  0  0  0  0
  3 19  1  0  0  0  0
  4 13  1  0  0  0  0
  4 19  2  0  0  0  0
  5 21  1  0  0  0  0
  6 23  1  0  0  0  0
  7 14  2  0  0  0  0
  7 22  1  0  0  0  0
  8 10  2  0  0  0  0
  8 25  1  0  0  0  0
  9 11  1  0  0  0  0
  9 25  2  0  0  0  0
 10 26  1  0  0  0  0
 11 26  2  0  0  0  0
 12 27  1  0  0  0  0
 13 27  2  0  0  0  0
 14 28  1  0  0  0  0
 15 16  2  0  0  0  0
 15 29  1  0  0  0  0
 16 30  1  0  0  0  0
 17 24  1  0  0  0  0
 17 28  2  0  0  0  0
 18 30  2  0  0  0  0
 18 31  1  0  0  0  0
 19 32  1  0  0  0  0
 20 32  1  0  0  0  0
 20 33  2  0  0  0  0
 20 34  1  0  0  0  0
 21 23  2  0  0  0  0
 21 39  1  0  0  0  0
 22 24  2  0  0  0  0
 22 40  1  0  0  0  0
 23 48  1  0  0  0  0
 24 41  1  0  0  0  0
 25 58  1  0  0  0  0
 26 71  1  0  0  0  0
 27 81  1  0  0  0  0
 28 82  1  0  0  0  0
 29 31  2  0  0  0  0
 29 81  1  0  0  0  0
 30 83  1  0  0  0  0
 31 84  1  0  0  0  0
 32 65  2  0  0  0  0
 33 66  1  0  0  0  0
 33 69  1  0  0  0  0
 34 70  1  0  0  0  0
 34 76  2  0  0  0  0
 35 49  1  0  0  0  0
 35 72  1  0  0  0  0
 35 77  2  0  0  0  0
 36 61  1  0  0  0  0
 36 67  1  0  0  0  0
 36 78  2  0  0  0  0
 37 62  1  0  0  0  0
 37 73  1  0  0  0  0
 37 79  2  0  0  0  0
 38 68  1  0  0  0  0
 38 71  1  0  0  0  0
 38 80  2  0  0  0  0
 39 42  1  0  0  0  0
 40 49  1  0  0  0  0
 41 67  1  0  0  0  0
 42 44  1  0  0  0  0
 43 45  1  0  0  0  0
 43 46  1  0  0  0  0
 44 48  1  0  0  0  0
 45 50  1  0  0  0  0
 46 68  1  0  0  0  0
 47 50  1  0  0  0  0
 47 68  1  0  0  0  0
 48 72  1  0  0  0  0
 49 67  1  0  0  0  0
 50 66  1  0  0  0  0
 51 62  1  0  0  0  0
 52 63  1  0  0  0  0
 53 64  1  0  0  0  0
 54 64  1  0  0  0  0
 55 64  1  0  0  0  0
 56 74  1  0  0  0  0
 57 75  1  0  0  0  0
 58 75  1  0  0  0  0
 59 63  1  0  0  0  0
 59 75  1  0  0  0  0
 60 63  1  0  0  0  0
 60 82  1  0  0  0  0
 61 64  1  0  0  0  0
 61 73  1  0  0  0  0
 62 74  1  0  0  0  0
 65 66  1  0  0  0  0
M  CHG  2  74   1  75   1
M  ISO  4  38 100  60 101  71 100  82 101
M  END
> <Batch ID>
0015

> <Smiles>
CNC(C)C(=O)NC(C(=O)N1Cc2cc([101O:1][101CH2:1]C(C)CN(C)Cc3ccc([100NH:0][100C:0](=O)N4CCCC(n5nc(-c6ccc(Oc7ccc(F)cc7F)cc6)c(C(N)=O)c5N)C4)cc3)ccc2CC1C(=O)NC1CCCc2ccccc21)C(C)(C)C

> <Shape>
0.234

> <Color>
0.050

> <Negative vol penalty>
0.000

$$$$

  -OEChem-04042320543D

 83 91  0     1  0  0  0  0  0999 V2000
  -16.9328  -30.7806   23.3717 C   0  0  0  0  0  0  0  0  0  0  0  0
  -18.1326  -31.2738   23.8743 C   0  0  0  0  0  0  0  0  0  0  0  0
  -24.4466  -14.2458   20.3147 C   0  0  0  0  0  0  0  0  0  0  0  0
  -26.6129  -14.2237   21.3841 C   0  0  0  0  0  0  0  0  0  0  0  0
  -16.8844  -29.5040   22.8134 C   0  0  0  0  0  0  0  0  0  0  0  0
  -19.2847  -30.4900   23.8199 C   0  0  0  0  0  0  0  0  0  0  0  0
  -26.3863  -31.0482   23.0645 C   0  0  0  0  0  0  0  0  0  0  0  0
  -28.8878  -23.5068   23.2493 C   0  0  0  0  0  0  0  0  0  0  0  0
  -30.0167  -24.3000   21.2659 C   0  0  0  0  0  0  0  0  0  0  0  0
  -29.6766  -24.3475   24.0345 C   0  0  0  0  0  0  0  0  0  0  0  0
  -30.8055  -25.1407   22.0512 C   0  0  0  0  0  0  0  0  0  0  0  0
  -24.4955  -12.8577   20.1871 C   0  0  0  0  0  0  0  0  0  0  0  0
  -26.6618  -12.8356   21.2566 C   0  0  0  0  0  0  0  0  0  0  0  0
  -27.5700  -30.6475   23.6826 C   0  0  0  0  0  0  0  0  0  0  0  0
  -23.8888   -9.2845   19.9050 C   0  0  0  0  0  0  0  0  0  0  0  0
  -22.7427   -8.5621   20.2366 C   0  0  0  0  0  0  0  0  0  0  0  0
  -27.3848  -28.4879   22.6238 C   0  0  0  0  0  0  0  0  0  0  0  0
  -22.8456   -9.4322   22.4881 C   0  0  0  0  0  0  0  0  0  0  0  0
  -25.5054  -14.9289   20.9131 C   0  0  0  0  0  0  0  0  0  0  0  0
  -24.9311  -17.0999   22.1232 C   0  0  0  0  0  0  0  0  0  0  0  0
  -18.0385  -28.7079   22.7434 C   0  0  0  0  0  0  0  0  0  0  0  0
  -25.6861  -30.1665   22.2286 C   0  0  0  0  0  0  0  0  0  0  0  0
  -19.2514  -29.2009   23.2614 C   0  0  0  0  0  0  0  0  0  0  0  0
  -26.1939  -28.8807   21.9943 C   0  0  0  0  0  0  0  0  0  0  0  0
  -29.0578  -23.4830   21.8650 C   0  0  0  0  0  0  0  0  0  0  0  0
  -30.6355  -25.1644   23.4355 C   0  0  0  0  0  0  0  0  0  0  0  0
  -25.6030  -12.1525   20.6581 C   0  0  0  0  0  0  0  0  0  0  0  0
  -28.0679  -29.3663   23.4646 C   0  0  0  0  0  0  0  0  0  0  0  0
  -24.5135  -10.0807   20.8649 C   0  0  0  0  0  0  0  0  0  0  0  0
  -22.2210   -8.6359   21.5281 C   0  0  0  0  0  0  0  0  0  0  0  0
  -23.9919  -10.1546   22.1565 C   0  0  0  0  0  0  0  0  0  0  0  0
  -25.4558  -16.3628   21.0447 C   0  0  0  0  0  0  0  0  0  0  0  0
  -25.1213  -18.4126   21.7668 C   0  0  0  0  0  0  0  0  0  0  0  0
  -24.3259  -16.6392   23.3386 C   0  0  0  0  0  0  0  0  0  0  0  0
  -22.7962  -28.8439   22.2816 C   0  0  0  0  0  0  0  0  0  0  0  0
  -23.6671  -27.7565   19.3522 C   0  0  0  0  0  0  0  0  0  0  0  0
  -26.1824  -26.9450   17.1932 C   0  0  0  0  0  0  0  0  0  0  0  0
  -28.2980  -22.4824   19.6814 C   0  0  0  0  0  0  0  0  0  0  0  0
  -17.9268  -27.3158   22.1739 C   0  0  0  0  0  0  0  0  0  0  0  0
  -24.4248  -30.6231   21.5481 C   0  0  0  0  0  0  0  0  0  0  0  0
  -25.4907  -27.9031   21.0896 C   0  0  0  0  0  0  0  0  0  0  0  0
  -19.2742  -26.6947   21.8147 C   0  0  0  0  0  0  0  0  0  0  0  0
  -26.5209  -20.4579   17.3532 C   0  0  0  0  0  0  0  0  0  0  0  0
  -20.2751  -26.8989   22.9475 C   0  0  0  0  0  0  0  0  0  0  0  0
  -26.0422  -19.2727   18.1948 C   0  0  0  0  0  0  0  0  0  0  0  0
  -27.9095  -20.9317   17.7790 C   0  0  0  0  0  0  0  0  0  0  0  0
  -27.5741  -20.0423   20.0517 C   0  0  0  0  0  0  0  0  0  0  0  0
  -20.5278  -28.3905   23.1981 C   0  0  1  0  0  0  0  0  0  0  0  0
  -23.5229  -29.4680   21.1240 C   0  0  1  0  0  0  0  0  0  0  0  0
  -26.1528  -19.5712   19.7029 C   0  0  2  0  0  0  0  0  0  0  0  0
  -26.5837  -26.0475   14.8843 C   0  0  0  0  0  0  0  0  0  0  0  0
  -22.9680  -24.9500   20.3243 C   0  0  0  0  0  0  0  0  0  0  0  0
  -24.2545  -24.0324   18.3823 C   0  0  0  0  0  0  0  0  0  0  0  0
  -22.2438  -25.4541   17.9842 C   0  0  0  0  0  0  0  0  0  0  0  0
  -30.8775  -27.5169   26.0325 C   0  0  0  0  0  0  0  0  0  0  0  0
  -32.0819  -28.3260   23.9820 C   0  0  0  0  0  0  0  0  0  0  0  0
  -32.6981  -25.5438   24.7627 C   0  0  0  0  0  0  0  0  0  0  0  0
  -27.5880  -29.4103   16.3535 C   0  0  0  0  0  0  0  0  0  0  0  0
  -29.6754  -27.6458   23.7995 C   0  0  0  0  0  0  0  0  0  1  0  0
  -24.3703  -26.5250   18.8346 C   0  0  1  0  0  0  0  0  0  0  0  0
  -26.4101  -27.2967   15.7341 C   0  0  2  0  0  0  0  0  0  0  0  0
  -23.4716  -25.2579   18.9000 C   0  0  0  0  0  0  0  0  0  0  0  0
  -31.0085  -27.3690   24.5130 C   0  0  0  0  0  0  0  0  0  0  0  0
  -25.9427  -17.1425   20.0757 N   0  0  0  0  0  0  0  0  0  0  0  0
  -25.7246  -18.3832   20.5440 N   0  0  0  0  0  0  0  0  0  0  0  0
  -24.2578  -28.3943   20.4523 N   0  0  0  0  0  0  0  0  0  0  0  0
  -27.9376  -21.1992   19.2186 N   0  0  0  0  0  0  0  0  0  0  0  0
  -24.8297  -19.5777   22.3832 N   0  0  0  0  0  0  0  0  0  0  0  0
  -24.2091  -15.2578   23.5450 N   0  0  0  0  0  0  0  0  0  0  0  0
  -28.2574  -22.6277   21.0677 N   0  0  0  0  0  0  0  0  0  0  0  0
  -21.4197  -28.9279   22.1930 N   0  0  0  0  0  0  0  0  0  0  0  0
  -24.8396  -26.8562   17.4936 N   0  0  0  0  0  0  0  0  0  0  0  0
  -31.4245  -26.0067   24.2221 N   0  0  3  0  0  0  0  0  0  0  0  0
  -27.6318  -28.1376   15.5886 N   0  3  0  0  0  0  0  0  0  0  0  0
  -23.8864  -17.4291   24.2082 O   0  0  0  0  0  0  0  0  0  0  0  0
  -23.4367  -28.3234   23.1874 O   0  0  0  0  0  0  0  0  0  0  0  0
  -22.6358  -28.1425   18.7964 O   0  0  0  0  0  0  0  0  0  0  0  0
  -27.1036  -26.7632   17.9861 O   0  0  0  0  0  0  0  0  0  0  0  0
  -28.5928  -23.3937   18.9038 O   0  0  0  0  0  0  0  0  0  0  0  0
  -25.6509  -10.7980   20.5340 O   0  0  0  0  0  0  0  0  0  0  0  0
  -29.2228  -28.9724   24.0673 O   0  0  0  0  0  0  0  0  0  1  0  0
  -21.1195   -7.9433   21.8460 F   0  0  0  0  0  0  0  0  0  0  0  0
  -24.5869  -10.9187   23.0827 F   0  0  0  0  0  0  0  0  0  0  0  0
  1  2  1  0  0  0  0
  1  5  2  0  0  0  0
  2  6  2  0  0  0  0
  3 12  2  0  0  0  0
  3 19  1  0  0  0  0
  4 13  1  0  0  0  0
  4 19  2  0  0  0  0
  5 21  1  0  0  0  0
  6 23  1  0  0  0  0
  7 14  2  0  0  0  0
  7 22  1  0  0  0  0
  8 10  2  0  0  0  0
  8 25  1  0  0  0  0
  9 11  1  0  0  0  0
  9 25  2  0  0  0  0
 10 26  1  0  0  0  0
 11 26  2  0  0  0  0
 12 27  1  0  0  0  0
 13 27  2  0  0  0  0
 14 28  1  0  0  0  0
 15 16  2  0  0  0  0
 15 29  1  0  0  0  0
 16 30  1  0  0  0  0
 17 24  1  0  0  0  0
 17 28  2  0  0  0  0
 18 30  2  0  0  0  0
 18 31  1  0  0  0  0
 19 32  1  0  0  0  0
 20 32  1  0  0  0  0
 20 33  2  0  0  0  0
 20 34  1  0  0  0  0
 21 23  2  0  0  0  0
 21 39  1  0  0  0  0
 22 24  2  0  0  0  0
 22 40  1  0  0  0  0
 23 48  1  0  0  0  0
 24 41  1  0  0  0  0
 25 70  1  0  0  0  0
 26 73  1  0  0  0  0
 27 80  1  0  0  0  0
 28 81  1  0  0  0  0
 29 31  2  0  0  0  0
 29 80  1  0  0  0  0
 30 82  1  0  0  0  0
 31 83  1  0  0  0  0
 32 64  2  0  0  0  0
 33 65  1  0  0  0  0
 33 68  1  0  0  0  0
 34 69  1  0  0  0  0
 34 75  2  0  0  0  0
 35 49  1  0  0  0  0
 35 71  1  0  0  0  0
 35 76  2  0  0  0  0
 36 60  1  0  0  0  0
 36 66  1  0  0  0  0
 36 77  2  0  0  0  0
 37 61  1  0  0  0  0
 37 72  1  0  0  0  0
 37 78  2  0  0  0  0
 38 67  1  0  0  0  0
 38 70  1  0  0  0  0
 38 79  2  0  0  0  0
 39 42  1  0  0  0  0
 40 49  1  0  0  0  0
 41 66  1  0  0  0  0
 42 44  1  0  0  0  0
 43 45  1  0  0  0  0
 43 46  1  0  0  0  0
 44 48  1  0  0  0  0
 45 50  1  0  0  0  0
 46 67  1  0  0  0  0
 47 50  1  0  0  0  0
 47 67  1  0  0  0  0
 48 71  1  0  0  0  0
 49 66  1  0  0  0  0
 50 65  1  0  0  0  0
 51 61  1  0  0  0  0
 52 62  1  0  0  0  0
 53 62  1  0  0  0  0
 54 62  1  0  0  0  0
 55 63  1  0  0  0  0
 56 63  1  0  0  0  0
 57 73  1  0  0  0  0
 58 74  1  0  0  0  0
 59 63  1  0  0  0  0
 59 81  1  0  0  0  0
 60 62  1  0  0  0  0
 60 72  1  0  0  0  0
 61 74  1  0  0  0  0
 63 73  1  0  0  0  0
 64 65  1  0  0  0  0
M  CHG  1  74   1
M  ISO  4  38 100  59 101  70 100  81 101
M  END
> <Batch ID>
0015

> <Smiles>
CNC(C)C(=O)NC(C(=O)N1Cc2cc([101O:1][101CH2:1]C(C)(C)N(C)c3ccc([100NH:0][100C:0](=O)N4CCCC(n5nc(-c6ccc(Oc7ccc(F)cc7F)cc6)c(C(N)=O)c5N)C4)cc3)ccc2CC1C(=O)NC1CCCc2ccccc21)C(C)(C)C

> <Shape>
0.241

> <Color>
0.124

> <Negative vol penalty>
0.000

$$$$

  -OEChem-04042320543D

 81 89  0     1  0  0  0  0  0999 V2000
  -17.8848  -31.6750   19.9823 C   0  0  0  0  0  0  0  0  0  0  0  0
  -19.1935  -31.4959   19.5455 C   0  0  0  0  0  0  0  0  0  0  0  0
  -26.7372  -13.4091   21.4155 C   0  0  0  0  0  0  0  0  0  0  0  0
  -25.1204  -13.3658   19.6207 C   0  0  0  0  0  0  0  0  0  0  0  0
  -30.6828  -22.9250   20.0806 C   0  0  0  0  0  0  0  0  0  0  0  0
  -17.5618  -31.4561   21.3208 C   0  0  0  0  0  0  0  0  0  0  0  0
  -20.1801  -31.0989   20.4473 C   0  0  0  0  0  0  0  0  0  0  0  0
  -24.9671  -27.4559   19.2987 C   0  0  0  0  0  0  0  0  0  0  0  0
  -30.7305  -24.3154   19.9794 C   0  0  0  0  0  0  0  0  0  0  0  0
  -25.9385  -12.5378   22.1561 C   0  0  0  0  0  0  0  0  0  0  0  0
  -24.3217  -12.4943   20.3612 C   0  0  0  0  0  0  0  0  0  0  0  0
  -26.3052  -27.7265   19.0161 C   0  0  0  0  0  0  0  0  0  0  0  0
  -24.2565   -9.1972   21.0997 C   0  0  0  0  0  0  0  0  0  0  0  0
  -23.7161   -8.0949   20.4375 C   0  0  0  0  0  0  0  0  0  0  0  0
  -30.2514  -22.7671   17.7088 C   0  0  0  0  0  0  0  0  0  0  0  0
  -26.8546  -27.4100   21.3436 C   0  0  0  0  0  0  0  0  0  0  0  0
  -21.4893   -8.8692   20.9656 C   0  0  0  0  0  0  0  0  0  0  0  0
  -26.3281  -13.8232   20.1478 C   0  0  0  0  0  0  0  0  0  0  0  0
  -30.4433  -22.1509   18.9453 C   0  0  0  0  0  0  0  0  0  0  0  0
  -28.1706  -14.3794   18.4735 C   0  0  0  0  0  0  0  0  0  0  0  0
  -18.5430  -31.0469   22.2375 C   0  0  0  0  0  0  0  0  0  0  0  0
  -24.5602  -27.1705   20.6100 C   0  0  0  0  0  0  0  0  0  0  0  0
  -19.8702  -30.8757   21.7997 C   0  0  0  0  0  0  0  0  0  0  0  0
  -25.5111  -27.1336   21.6398 C   0  0  0  0  0  0  0  0  0  0  0  0
  -30.5386  -24.9316   18.7429 C   0  0  0  0  0  0  0  0  0  0  0  0
  -24.7308  -12.0804   21.6289 C   0  0  0  0  0  0  0  0  0  0  0  0
  -27.2487  -27.7065   20.0391 C   0  0  0  0  0  0  0  0  0  0  0  0
  -23.4133  -10.1356   21.6949 C   0  0  0  0  0  0  0  0  0  0  0  0
  -22.3326   -7.9309   20.3705 C   0  0  0  0  0  0  0  0  0  0  0  0
  -30.2991  -24.1575   17.6076 C   0  0  0  0  0  0  0  0  0  0  0  0
  -22.0297   -9.9716   21.6278 C   0  0  0  0  0  0  0  0  0  0  0  0
  -27.1524  -14.7238   19.3826 C   0  0  0  0  0  0  0  0  0  0  0  0
  -28.6446  -15.5847   18.0162 C   0  0  0  0  0  0  0  0  0  0  0  0
  -30.3937  -20.6875   19.0515 C   0  0  0  0  0  0  0  0  0  0  0  0
  -28.6454  -13.0857   18.0777 C   0  0  0  0  0  0  0  0  0  0  0  0
  -22.5881  -28.5379   22.6944 C   0  0  0  0  0  0  0  0  0  0  0  0
  -23.2378  -25.8909   24.4534 C   0  0  0  0  0  0  0  0  0  0  0  0
  -25.3727  -23.3171   25.1345 C   0  0  0  0  0  0  0  0  0  0  0  0
  -18.1556  -30.8684   23.6841 C   0  0  0  0  0  0  0  0  0  0  0  0
  -23.1173  -26.8545   20.8939 C   0  0  0  0  0  0  0  0  0  0  0  0
  -25.1290  -26.8128   23.0609 C   0  0  0  0  0  0  0  0  0  0  0  0
  -19.1836  -30.0865   24.4980 C   0  0  0  0  0  0  0  0  0  0  0  0
  -26.8230  -20.2685   18.5605 C   0  0  0  0  0  0  0  0  0  0  0  0
  -20.5910  -30.6043   24.2189 C   0  0  0  0  0  0  0  0  0  0  0  0
  -26.6765  -18.7507   18.6764 C   0  0  0  0  0  0  0  0  0  0  0  0
  -27.8906  -20.7981   19.5130 C   0  0  0  0  0  0  0  0  0  0  0  0
  -29.0831  -18.6327   19.4660 C   0  0  0  0  0  0  0  0  0  0  0  0
  -20.9633  -30.4217   22.7425 C   0  0  1  0  0  0  0  0  0  0  0  0
  -22.7315  -27.0819   22.3522 C   0  0  1  0  0  0  0  0  0  0  0  0
  -28.0346  -18.0453   18.5054 C   0  0  1  0  0  0  0  0  0  0  0  0
  -25.6506  -21.3368   26.6507 C   0  0  0  0  0  0  0  0  0  0  0  0
  -24.0150  -27.7546   26.7409 C   0  0  0  0  0  0  0  0  0  0  0  0
  -25.1550  -25.8157   27.8406 C   0  0  0  0  0  0  0  0  0  0  0  0
  -22.6949  -25.7466   27.4338 C   0  0  0  0  0  0  0  0  0  0  0  0
  -30.3864  -26.9794   17.3487 C   0  0  0  0  0  0  0  0  0  0  0  0
  -25.3908  -21.4284   22.8559 C   0  0  0  0  0  0  0  0  0  0  0  0
  -30.8198  -27.1576   19.8040 C   0  0  0  0  0  0  0  0  0  0  0  0
  -29.5324  -27.3373   20.5910 C   0  0  0  0  0  0  0  0  0  1  0  0
  -24.2814  -25.5182   25.4786 C   0  0  1  0  0  0  0  0  0  0  0  0
  -25.1326  -21.8282   25.3079 C   0  0  2  0  0  0  0  0  0  0  0  0
  -24.0438  -26.2168   26.8471 C   0  0  0  0  0  0  0  0  0  0  0  0
  -26.9887  -16.0444   19.4975 N   0  0  0  0  0  0  0  0  0  0  0  0
  -27.9104  -16.5404   18.6546 N   0  0  0  0  0  0  0  0  0  0  0  0
  -29.1603  -20.0872   19.3161 N   0  0  0  0  0  0  0  0  0  0  0  0
  -23.7049  -26.5169   23.2890 N   0  0  0  0  0  0  0  0  0  0  0  0
  -29.6138  -15.9095   17.1344 N   0  0  0  0  0  0  0  0  0  0  0  0
  -28.0473  -11.9522   18.6449 N   0  0  0  0  0  0  0  0  0  0  0  0
  -21.3208  -29.0445   22.4780 N   0  0  0  0  0  0  0  0  0  0  0  0
  -24.2865  -24.0608   25.5445 N   0  0  0  0  0  0  0  0  0  0  0  0
  -30.5871  -26.3285   18.6437 N   0  0  3  0  0  0  0  0  0  0  0  0
  -25.8213  -21.0634   24.2301 N   0  3  0  0  0  0  0  0  0  0  0  0
  -31.4591  -20.0953   18.8861 O   0  0  0  0  0  0  0  0  0  0  0  0
  -29.5836  -12.9396   17.2580 O   0  0  0  0  0  0  0  0  0  0  0  0
  -23.5551  -29.1556   23.1244 O   0  0  0  0  0  0  0  0  0  0  0  0
  -22.0526  -25.6296   24.6743 O   0  0  0  0  0  0  0  0  0  0  0  0
  -26.4207  -23.7747   24.6840 O   0  0  0  0  0  0  0  0  0  0  0  0
  -23.9513  -11.2299   22.3512 O   0  0  0  0  0  0  0  0  0  0  0  0
  -28.5554  -27.9709   19.7661 O   0  0  0  0  0  0  0  0  0  1  0  0
  -21.8138   -6.8731   19.7333 F   0  0  0  0  0  0  0  0  0  0  0  0
  -30.1133  -24.7392   16.4141 F   0  0  0  0  0  0  0  0  0  0  0  0
  -21.2146  -10.8704   22.1967 F   0  0  0  0  0  0  0  0  0  0  0  0
  1  2  1  0  0  0  0
  1  6  2  0  0  0  0
  2  7  2  0  0  0  0
  3 10  2  0  0  0  0
  3 18  1  0  0  0  0
  4 11  1  0  0  0  0
  4 18  2  0  0  0  0
  5  9  2  0  0  0  0
  5 19  1  0  0  0  0
  6 21  1  0  0  0  0
  7 23  1  0  0  0  0
  8 12  2  0  0  0  0
  8 22  1  0  0  0  0
  9 25  1  0  0  0  0
 10 26  1  0  0  0  0
 11 26  2  0  0  0  0
 12 27  1  0  0  0  0
 13 14  2  0  0  0  0
 13 28  1  0  0  0  0
 14 29  1  0  0  0  0
 15 19  2  0  0  0  0
 15 30  1  0  0  0  0
 16 24  1  0  0  0  0
 16 27  2  0  0  0  0
 17 29  2  0  0  0  0
 17 31  1  0  0  0  0
 18 32  1  0  0  0  0
 19 34  1  0  0  0  0
 20 32  1  0  0  0  0
 20 33  2  0  0  0  0
 20 35  1  0  0  0  0
 21 23  2  0  0  0  0
 21 39  1  0  0  0  0
 22 24  2  0  0  0  0
 22 40  1  0  0  0  0
 23 48  1  0  0  0  0
 24 41  1  0  0  0  0
 25 30  2  0  0  0  0
 25 70  1  0  0  0  0
 26 77  1  0  0  0  0
 27 78  1  0  0  0  0
 28 31  2  0  0  0  0
 28 77  1  0  0  0  0
 29 79  1  0  0  0  0
 30 80  1  0  0  0  0
 31 81  1  0  0  0  0
 32 62  2  0  0  0  0
 33 63  1  0  0  0  0
 33 66  1  0  0  0  0
 34 64  1  0  0  0  0
 34 72  2  0  0  0  0
 35 67  1  0  0  0  0
 35 73  2  0  0  0  0
 36 49  1  0  0  0  0
 36 68  1  0  0  0  0
 36 74  2  0  0  0  0
 37 59  1  0  0  0  0
 37 65  1  0  0  0  0
 37 75  2  0  0  0  0
 38 60  1  0  0  0  0
 38 69  1  0  0  0  0
 38 76  2  0  0  0  0
 39 42  1  0  0  0  0
 40 49  1  0  0  0  0
 41 65  1  0  0  0  0
 42 44  1  0  0  0  0
 43 45  1  0  0  0  0
 43 46  1  0  0  0  0
 44 48  1  0  0  0  0
 45 50  1  0  0  0  0
 46 64  1  0  0  0  0
 47 50  1  0  0  0  0
 47 64  1  0  0  0  0
 48 68  1  0  0  0  0
 49 65  1  0  0  0  0
 50 63  1  0  0  0  0
 51 60  1  0  0  0  0
 52 61  1  0  0  0  0
 53 61  1  0  0  0  0
 54 61  1  0  0  0  0
 55 70  1  0  0  0  0
 56 71  1  0  0  0  0
 57 58  1  0  0  0  0
 57 70  1  0  0  0  0
 58 78  1  0  0  0  0
 59 61  1  0  0  0  0
 59 69  1  0  0  0  0
 60 71  1  0  0  0  0
 62 63  1  0  0  0  0
M  CHG  1  71   1
M  ISO  4  19 100  34 100  58 101  78 101
M  END
> <Batch ID>
0015

> <Smiles>
CNC(C)C(=O)NC(C(=O)N1Cc2cc([101O:1][101CH2:1]CN(C)c3cc[100c:0]([100C:0](=O)N4CCCC(n5nc(-c6ccc(Oc7ccc(F)cc7F)cc6)c(C(N)=O)c5N)C4)cc3F)ccc2CC1C(=O)NC1CCCc2ccccc21)C(C)(C)C

> <Shape>
0.245

> <Color>
0.085

> <Negative vol penalty>
0.000

$$$$

  -OEChem-04042320543D

 85 93  0     1  0  0  0  0  0999 V2000
  -16.8325  -28.9334   24.2448 C   0  0  0  0  0  0  0  0  0  0  0  0
  -17.2348  -28.1415   23.1741 C   0  0  0  0  0  0  0  0  0  0  0  0
  -25.8268  -14.0525   20.6700 C   0  0  0  0  0  0  0  0  0  0  0  0
  -23.4974  -13.9081   21.2946 C   0  0  0  0  0  0  0  0  0  0  0  0
  -17.5580  -30.0772   24.5757 C   0  0  0  0  0  0  0  0  0  0  0  0
  -18.3622  -28.4935   22.4329 C   0  0  0  0  0  0  0  0  0  0  0  0
  -22.3958  -24.6872   19.8350 C   0  0  0  0  0  0  0  0  0  0  0  0
  -28.4576  -21.3435   18.9565 C   0  0  0  0  0  0  0  0  0  0  0  0
  -28.5872  -21.0129   20.3054 C   0  0  0  0  0  0  0  0  0  0  0  0
  -26.0052  -12.7157   21.0260 C   0  0  0  0  0  0  0  0  0  0  0  0
  -23.6758  -12.5712   21.6506 C   0  0  0  0  0  0  0  0  0  0  0  0
  -22.5349  -24.2160   18.5303 C   0  0  0  0  0  0  0  0  0  0  0  0
  -23.9024   -9.5865   20.0819 C   0  0  0  0  0  0  0  0  0  0  0  0
  -22.9397   -8.6706   19.6579 C   0  0  0  0  0  0  0  0  0  0  0  0
  -24.1555  -25.9463   18.0845 C   0  0  0  0  0  0  0  0  0  0  0  0
  -26.6754  -22.8800   19.5045 C   0  0  0  0  0  0  0  0  0  0  0  0
  -22.4675   -8.1019   21.9581 C   0  0  0  0  0  0  0  0  0  0  0  0
  -24.5729  -14.6487   20.8043 C   0  0  0  0  0  0  0  0  0  0  0  0
  -24.0184  -16.5317   19.1751 C   0  0  0  0  0  0  0  0  0  0  0  0
  -18.7005  -30.4381   23.8442 C   0  0  0  0  0  0  0  0  0  0  0  0
  -23.1287  -25.8002   20.2717 C   0  0  0  0  0  0  0  0  0  0  0  0
  -19.1029  -29.6438   22.7535 C   0  0  0  0  0  0  0  0  0  0  0  0
  -24.0258  -26.4281   19.3960 C   0  0  0  0  0  0  0  0  0  0  0  0
  -27.5017  -22.2772   18.5561 C   0  0  0  0  0  0  0  0  0  0  0  0
  -27.7610  -21.6157   21.2538 C   0  0  0  0  0  0  0  0  0  0  0  0
  -24.9297  -11.9750   21.5163 C   0  0  0  0  0  0  0  0  0  0  0  0
  -23.4127  -24.8472   17.6539 C   0  0  0  0  0  0  0  0  0  0  0  0
  -24.1477   -9.7602   21.4441 C   0  0  0  0  0  0  0  0  0  0  0  0
  -22.2223   -7.9283   20.5959 C   0  0  0  0  0  0  0  0  0  0  0  0
  -26.8051  -22.5493   20.8534 C   0  0  0  0  0  0  0  0  0  0  0  0
  -23.4303   -9.0179   22.3821 C   0  0  0  0  0  0  0  0  0  0  0  0
  -24.3882  -16.0297   20.4373 C   0  0  0  0  0  0  0  0  0  0  0  0
  -23.9788  -17.8940   19.3456 C   0  0  0  0  0  0  0  0  0  0  0  0
  -23.7359  -15.8294   17.9575 C   0  0  0  0  0  0  0  0  0  0  0  0
  -22.3819  -28.7012   21.3347 C   0  0  0  0  0  0  0  0  0  0  0  0
  -25.5755  -28.9033   21.8659 C   0  0  0  0  0  0  0  0  0  0  0  0
  -28.7168  -27.8240   21.0824 C   0  0  0  0  0  0  0  0  0  0  0  0
  -26.8244  -21.3029   23.5595 C   0  0  0  0  0  0  0  0  0  0  0  0
  -19.4251  -31.7092   24.2100 C   0  0  0  0  0  0  0  0  0  0  0  0
  -22.9871  -26.2798   21.6903 C   0  0  0  0  0  0  0  0  0  0  0  0
  -24.8508  -27.6141   19.8218 C   0  0  0  0  0  0  0  0  0  0  0  0
  -20.8244  -31.8075   23.6078 C   0  0  0  0  0  0  0  0  0  0  0  0
  -23.2352  -21.2568   22.6603 C   0  0  0  0  0  0  0  0  0  0  0  0
  -20.7976  -31.4287   22.1304 C   0  0  0  0  0  0  0  0  0  0  0  0
  -23.0796  -19.9112   21.9540 C   0  0  0  0  0  0  0  0  0  0  0  0
  -24.3554  -21.2268   23.6956 C   0  0  0  0  0  0  0  0  0  0  0  0
  -25.5153  -19.4396   22.4299 C   0  0  0  0  0  0  0  0  0  0  0  0
  -20.3348  -29.9790   21.9409 C   0  0  1  0  0  0  0  0  0  0  0  0
  -23.4009  -27.7368   21.8725 C   0  0  1  0  0  0  0  0  0  0  0  0
  -24.4198  -19.4557   21.3534 C   0  0  1  0  0  0  0  0  0  0  0  0
  -31.2104  -27.5974   21.2499 C   0  0  0  0  0  0  0  0  0  0  0  0
  -25.5554  -31.4867   20.2424 C   0  0  0  0  0  0  0  0  0  0  0  0
  -28.0444  -31.3007   20.0460 C   0  0  0  0  0  0  0  0  0  0  0  0
  -26.9876  -31.5534   22.2915 C   0  0  0  0  0  0  0  0  0  0  0  0
  -29.2468  -21.1358   23.1910 C   0  0  0  0  0  0  0  0  0  0  0  0
  -28.5008  -25.6025   23.0259 C   0  0  0  0  0  0  0  0  0  0  0  0
  -26.3460  -20.5402   16.2144 C   0  0  0  0  0  0  0  0  0  0  0  0
  -27.3613  -22.6322   17.1051 C   0  0  0  0  0  0  0  0  0  0  0  0
  -24.2211  -22.5440   15.0026 C   0  0  0  0  0  0  0  0  0  0  0  0
  -25.7096  -22.7440   15.2450 C   0  0  0  0  0  0  0  0  0  0  0  0
  -23.3448  -22.9938   16.1652 C   0  0  0  0  0  0  0  0  0  1  0  0
  -26.7670  -29.3576   21.0579 C   0  0  1  0  0  0  0  0  0  0  0  0
  -29.8797  -27.3893   21.9560 C   0  0  2  0  0  0  0  0  0  0  0  0
  -26.8218  -30.9035   20.9005 C   0  0  0  0  0  0  0  0  0  0  0  0
  -24.5707  -16.9946   21.3427 N   0  0  0  0  0  0  0  0  0  0  0  0
  -24.3146  -18.1165   20.6487 N   0  0  0  0  0  0  0  0  0  0  0  0
  -24.6724  -28.0495   21.2168 N   0  0  0  0  0  0  0  0  0  0  0  0
  -25.6097  -20.7343   23.1241 N   0  0  0  0  0  0  0  0  0  0  0  0
  -23.6900  -18.9113   18.5065 N   0  0  0  0  0  0  0  0  0  0  0  0
  -23.8234  -14.4306   17.9573 N   0  0  0  0  0  0  0  0  0  0  0  0
  -21.4102  -29.0608   22.2490 N   0  0  0  0  0  0  0  0  0  0  0  0
  -27.9416  -28.7806   21.7028 N   0  0  0  0  0  0  0  0  0  0  0  0
  -27.8970  -21.2714   22.6480 N   0  0  0  0  0  0  0  0  0  0  0  0
  -29.7538  -25.9461   22.3056 N   0  3  0  0  0  0  0  0  0  0  0  0
  -26.1429  -22.0159   16.4605 N   0  3  1  0  0  0  0  0  0  0  0  0
  -23.4314  -16.4257   16.8967 O   0  0  0  0  0  0  0  0  0  0  0  0
  -22.4714  -29.0914   20.1765 O   0  0  0  0  0  0  0  0  0  0  0  0
  -25.4544  -29.2860   23.0323 O   0  0  0  0  0  0  0  0  0  0  0  0
  -28.5184  -27.3637   19.9602 O   0  0  0  0  0  0  0  0  0  0  0  0
  -26.9617  -21.7576   24.7018 O   0  0  0  0  0  0  0  0  0  0  0  0
  -25.1033  -10.6705   21.8635 O   0  0  0  0  0  0  0  0  0  0  0  0
  -23.5499  -24.3897   16.3797 O   0  0  0  0  0  0  0  0  0  1  0  0
  -21.2968   -7.0498   20.1886 F   0  0  0  0  0  0  0  0  0  0  0  0
  -26.0046  -23.1339   21.7561 F   0  0  0  0  0  0  0  0  0  0  0  0
  -23.6607   -9.1812   23.6921 F   0  0  0  0  0  0  0  0  0  0  0  0
  1  2  1  0  0  0  0
  1  5  2  0  0  0  0
  2  6  2  0  0  0  0
  3 10  2  0  0  0  0
  3 18  1  0  0  0  0
  4 11  1  0  0  0  0
  4 18  2  0  0  0  0
  5 20  1  0  0  0  0
  6 22  1  0  0  0  0
  7 12  2  0  0  0  0
  7 21  1  0  0  0  0
  8  9  2  0  0  0  0
  8 24  1  0  0  0  0
  9 25  1  0  0  0  0
 10 26  1  0  0  0  0
 11 26  2  0  0  0  0
 12 27  1  0  0  0  0
 13 14  2  0  0  0  0
 13 28  1  0  0  0  0
 14 29  1  0  0  0  0
 15 23  1  0  0  0  0
 15 27  2  0  0  0  0
 16 24  2  0  0  0  0
 16 30  1  0  0  0  0
 17 29  2  0  0  0  0
 17 31  1  0  0  0  0
 18 32  1  0  0  0  0
 19 32  1  0  0  0  0
 19 33  2  0  0  0  0
 19 34  1  0  0  0  0
 20 22  2  0  0  0  0
 20 39  1  0  0  0  0
 21 23  2  0  0  0  0
 21 40  1  0  0  0  0
 22 48  1  0  0  0  0
 23 41  1  0  0  0  0
 24 58  1  0  0  0  0
 25 30  2  0  0  0  0
 25 73  1  0  0  0  0
 26 81  1  0  0  0  0
 27 82  1  0  0  0  0
 28 31  2  0  0  0  0
 28 81  1  0  0  0  0
 29 83  1  0  0  0  0
 30 84  1  0  0  0  0
 31 85  1  0  0  0  0
 32 65  2  0  0  0  0
 33 66  1  0  0  0  0
 33 69  1  0  0  0  0
 34 70  1  0  0  0  0
 34 76  2  0  0  0  0
 35 49  1  0  0  0  0
 35 71  1  0  0  0  0
 35 77  2  0  0  0  0
 36 62  1  0  0  0  0
 36 67  1  0  0  0  0
 36 78  2  0  0  0  0
 37 63  1  0  0  0  0
 37 72  1  0  0  0  0
 37 79  2  0  0  0  0
 38 68  1  0  0  0  0
 38 73  1  0  0  0  0
 38 80  2  0  0  0  0
 39 42  1  0  0  0  0
 40 49  1  0  0  0  0
 41 67  1  0  0  0  0
 42 44  1  0  0  0  0
 43 45  1  0  0  0  0
 43 46  1  0  0  0  0
 44 48  1  0  0  0  0
 45 50  1  0  0  0  0
 46 68  1  0  0  0  0
 47 50  1  0  0  0  0
 47 68  1  0  0  0  0
 48 71  1  0  0  0  0
 49 67  1  0  0  0  0
 50 66  1  0  0  0  0
 51 63  1  0  0  0  0
 52 64  1  0  0  0  0
 53 64  1  0  0  0  0
 54 64  1  0  0  0  0
 55 73  1  0  0  0  0
 56 74  1  0  0  0  0
 57 75  1  0  0  0  0
 58 75  1  0  0  0  0
 59 60  1  0  0  0  0
 59 61  1  0  0  0  0
 60 75  1  0  0  0  0
 61 82  1  0  0  0  0
 62 64  1  0  0  0  0
 62 72  1  0  0  0  0
 63 74  1  0  0  0  0
 65 66  1  0  0  0  0
M  CHG  2  74   1  75   1
M  ISO  4  38 100  61 101  73 100  82 101
M  END
> <Batch ID>
0015

> <Smiles>
CNC(C)C(=O)NC(C(=O)N1Cc2cc([101O:1][101CH2:1]CCN(C)Cc3ccc([100N:0](C)[100C:0](=O)N4CCCC(n5nc(-c6ccc(Oc7ccc(F)cc7F)cc6)c(C(N)=O)c5N)C4)c(F)c3)ccc2CC1C(=O)NC1CCCc2ccccc21)C(C)(C)C

> <Shape>
0.216

> <Color>
0.075

> <Negative vol penalty>
0.000

$$$$

  -OEChem-04042320543D

 89 98  0     1  0  0  0  0  0999 V2000
  -28.2841  -32.3605   26.9768 C   0  0  0  0  0  0  0  0  0  0  0  0
  -28.3336  -31.2507   26.1394 C   0  0  0  0  0  0  0  0  0  0  0  0
  -23.7129  -13.6597   24.9272 C   0  0  0  0  0  0  0  0  0  0  0  0
  -23.4288  -15.5670   23.4717 C   0  0  0  0  0  0  0  0  0  0  0  0
  -27.0534  -32.9173   27.3222 C   0  0  0  0  0  0  0  0  0  0  0  0
  -27.1523  -30.6963   25.6479 C   0  0  0  0  0  0  0  0  0  0  0  0
  -27.4244  -29.6089   20.7094 C   0  0  0  0  0  0  0  0  0  0  0  0
  -30.5212  -24.7527   17.9261 C   0  0  0  0  0  0  0  0  0  0  0  0
  -31.0322  -23.5255   17.5038 C   0  0  0  0  0  0  0  0  0  0  0  0
  -32.1088  -19.0699   19.0174 C   0  0  0  0  0  0  0  0  0  0  0  0
  -31.7186  -17.8090   19.4684 C   0  0  0  0  0  0  0  0  0  0  0  0
  -22.9224  -14.2801   25.8945 C   0  0  0  0  0  0  0  0  0  0  0  0
  -22.6383  -16.1875   24.4390 C   0  0  0  0  0  0  0  0  0  0  0  0
  -28.1098  -28.4494   20.3495 C   0  0  0  0  0  0  0  0  0  0  0  0
  -20.6822  -15.2075   28.6031 C   0  0  0  0  0  0  0  0  0  0  0  0
  -19.7063  -14.4369   29.2350 C   0  0  0  0  0  0  0  0  0  0  0  0
  -26.0086  -27.2884   20.1116 C   0  0  0  0  0  0  0  0  0  0  0  0
  -30.5748  -22.5855   19.6820 C   0  0  0  0  0  0  0  0  0  0  0  0
  -29.8546  -19.4970   18.2605 C   0  0  0  0  0  0  0  0  0  0  0  0
  -18.6530  -14.0207   27.1009 C   0  0  0  0  0  0  0  0  0  0  0  0
  -23.9662  -14.3032   23.7157 C   0  0  0  0  0  0  0  0  0  0  0  0
  -24.3504  -12.8103   21.6831 C   0  0  0  0  0  0  0  0  0  0  0  0
  -25.8569  -32.3754   26.8269 C   0  0  0  0  0  0  0  0  0  0  0  0
  -26.0241  -29.6139   20.7838 C   0  0  0  0  0  0  0  0  0  0  0  0
  -25.9044  -31.2455   25.9881 C   0  0  0  0  0  0  0  0  0  0  0  0
  -25.3077  -28.4500   20.4701 C   0  0  0  0  0  0  0  0  0  0  0  0
  -30.0370  -24.8964   19.2263 C   0  0  0  0  0  0  0  0  0  0  0  0
  -30.0638  -23.8128   20.1042 C   0  0  0  0  0  0  0  0  0  0  0  0
  -31.0591  -22.4419   18.3817 C   0  0  0  0  0  0  0  0  0  0  0  0
  -31.1768  -19.9139   18.4135 C   0  0  0  0  0  0  0  0  0  0  0  0
  -30.3963  -17.3920   19.3153 C   0  0  0  0  0  0  0  0  0  0  0  0
  -22.3851  -15.5440   25.6504 C   0  0  0  0  0  0  0  0  0  0  0  0
  -27.4021  -27.2881   20.0534 C   0  0  0  0  0  0  0  0  0  0  0  0
  -20.6435  -15.3849   27.2200 C   0  0  0  0  0  0  0  0  0  0  0  0
  -18.6917  -13.8435   28.4839 C   0  0  0  0  0  0  0  0  0  0  0  0
  -29.4643  -18.2360   18.7114 C   0  0  0  0  0  0  0  0  0  0  0  0
  -19.6289  -14.7915   26.4689 C   0  0  0  0  0  0  0  0  0  0  0  0
  -24.7831  -13.6630   22.7163 C   0  0  0  0  0  0  0  0  0  0  0  0
  -25.5005  -12.4715   21.0132 C   0  0  0  0  0  0  0  0  0  0  0  0
  -23.0270  -12.3646   21.3580 C   0  0  0  0  0  0  0  0  0  0  0  0
  -23.9025  -30.1061   23.0990 C   0  0  0  0  0  0  0  0  0  0  0  0
  -21.7744  -29.9021   20.6593 C   0  0  0  0  0  0  0  0  0  0  0  0
  -21.0620  -28.7567   17.5244 C   0  0  0  0  0  0  0  0  0  0  0  0
  -30.8047  -15.1524   20.3941 C   0  0  0  0  0  0  0  0  0  0  0  0
  -24.5482  -32.9829   27.2661 C   0  0  0  0  0  0  0  0  0  0  0  0
  -25.2984  -30.8802   21.1475 C   0  0  0  0  0  0  0  0  0  0  0  0
  -23.8028  -28.4087   20.5154 C   0  0  0  0  0  0  0  0  0  0  0  0
  -23.3618  -32.5642   26.4016 C   0  0  0  0  0  0  0  0  0  0  0  0
  -30.2045  -11.8959   21.7027 C   0  0  0  0  0  0  0  0  0  0  0  0
  -23.3788  -31.0573   26.1654 C   0  0  0  0  0  0  0  0  0  0  0  0
  -28.7056  -11.8999   22.0114 C   0  0  0  0  0  0  0  0  0  0  0  0
  -30.8470  -13.2511   21.9935 C   0  0  0  0  0  0  0  0  0  0  0  0
  -28.6948  -14.4025   21.6597 C   0  0  0  0  0  0  0  0  0  0  0  0
  -24.6460  -30.6308   25.4147 C   0  0  1  0  0  0  0  0  0  0  0  0
  -23.8949  -30.6296   21.6906 C   0  0  1  0  0  0  0  0  0  0  0  0
  -27.9911  -13.0782   21.3211 C   0  0  2  0  0  0  0  0  0  0  0  0
  -29.5523  -23.9433   21.5014 C   0  0  0  0  0  0  0  0  0  0  0  0
  -32.5948  -20.6851   15.7939 C   0  0  0  0  0  0  0  0  0  0  0  0
  -19.2283  -28.7153   15.8118 C   0  0  0  0  0  0  0  0  0  0  0  0
  -20.3162  -27.7642   22.2757 C   0  0  0  0  0  0  0  0  0  0  0  0
  -19.1092  -27.1048   20.1837 C   0  0  0  0  0  0  0  0  0  0  0  0
  -18.8190  -29.3993   21.1184 C   0  0  0  0  0  0  0  0  0  0  0  0
  -22.7162  -30.2123   15.5487 C   0  0  0  0  0  0  0  0  0  0  0  0
  -29.4931  -26.2265   19.6579 C   0  0  0  0  0  0  0  0  0  1  0  0
  -32.8034  -21.2756   17.1469 C   0  0  0  0  0  0  0  0  0  0  0  0
  -21.0030  -28.7818   20.0044 C   0  0  1  0  0  0  0  0  0  0  0  0
  -20.4644  -29.4468   16.3115 C   0  0  2  0  0  0  0  0  0  0  0  0
  -19.8403  -28.2624   20.8965 C   0  0  0  0  0  0  0  0  0  0  0  0
  -26.1051  -13.8539   22.7076 N   0  0  0  0  0  0  0  0  0  0  0  0
  -26.5129  -13.1164   21.6608 N   0  0  0  0  0  0  0  0  0  0  0  0
  -23.1391  -29.6705   20.8826 N   0  0  0  0  0  0  0  0  0  0  0  0
  -30.1199  -14.3186   21.3033 N   0  0  0  0  0  0  0  0  0  0  0  0
  -25.7345  -11.6877   19.9392 N   0  0  0  0  0  0  0  0  0  0  0  0
  -21.9591  -12.8086   22.1496 N   0  0  0  0  0  0  0  0  0  0  0  0
  -30.0031  -16.1103   19.7740 N   0  0  0  0  0  0  0  0  0  0  0  0
  -24.5274  -30.9405   24.0060 N   0  0  0  0  0  0  0  0  0  0  0  0
  -20.5783  -29.2852   18.7026 N   0  0  0  0  0  0  0  0  0  0  0  0
  -31.5750  -21.2009   17.9540 N   0  0  0  0  0  0  0  0  0  0  0  0
  -21.4593  -29.4998   15.2032 N   0  3  0  0  0  0  0  0  0  0  0  0
  -22.8003  -11.5821   20.4041 O   0  0  0  0  0  0  0  0  0  0  0  0
  -23.3787  -29.0259   23.3448 O   0  0  0  0  0  0  0  0  0  0  0  0
  -21.1894  -30.9470   20.9551 O   0  0  0  0  0  0  0  0  0  0  0  0
  -21.8736  -27.8380   17.4356 O   0  0  0  0  0  0  0  0  0  0  0  0
  -32.0076  -15.0084   20.1610 O   0  0  0  0  0  0  0  0  0  0  0  0
  -21.6135  -16.1496   26.5941 O   0  0  0  0  0  0  0  0  0  0  0  0
  -28.0686  -26.1548   19.7025 O   0  0  0  0  0  0  0  0  0  1  0  0
  -17.7555  -13.1021   29.0907 F   0  0  0  0  0  0  0  0  0  0  0  0
  -28.1909  -17.8452   18.5588 F   0  0  0  0  0  0  0  0  0  0  0  0
  -19.5871  -14.9573   25.1398 F   0  0  0  0  0  0  0  0  0  0  0  0
  1  2  1  0  0  0  0
  1  5  2  0  0  0  0
  2  6  2  0  0  0  0
  3 12  2  0  0  0  0
  3 21  1  0  0  0  0
  4 13  1  0  0  0  0
  4 21  2  0  0  0  0
  5 23  1  0  0  0  0
  6 25  1  0  0  0  0
  7 14  2  0  0  0  0
  7 24  1  0  0  0  0
  8  9  2  0  0  0  0
  8 27  1  0  0  0  0
  9 29  1  0  0  0  0
 10 11  2  0  0  0  0
 10 30  1  0  0  0  0
 11 31  1  0  0  0  0
 12 32  1  0  0  0  0
 13 32  2  0  0  0  0
 14 33  1  0  0  0  0
 15 16  2  0  0  0  0
 15 34  1  0  0  0  0
 16 35  1  0  0  0  0
 17 26  1  0  0  0  0
 17 33  2  0  0  0  0
 18 28  1  0  0  0  0
 18 29  2  0  0  0  0
 19 30  2  0  0  0  0
 19 36  1  0  0  0  0
 20 35  2  0  0  0  0
 20 37  1  0  0  0  0
 21 38  1  0  0  0  0
 22 38  1  0  0  0  0
 22 39  2  0  0  0  0
 22 40  1  0  0  0  0
 23 25  2  0  0  0  0
 23 45  1  0  0  0  0
 24 26  2  0  0  0  0
 24 46  1  0  0  0  0
 25 54  1  0  0  0  0
 26 47  1  0  0  0  0
 27 28  2  0  0  0  0
 27 64  1  0  0  0  0
 28 57  1  0  0  0  0
 29 78  1  0  0  0  0
 30 78  1  0  0  0  0
 31 36  2  0  0  0  0
 31 75  1  0  0  0  0
 32 85  1  0  0  0  0
 33 86  1  0  0  0  0
 34 37  2  0  0  0  0
 34 85  1  0  0  0  0
 35 87  1  0  0  0  0
 36 88  1  0  0  0  0
 37 89  1  0  0  0  0
 38 69  2  0  0  0  0
 39 70  1  0  0  0  0
 39 73  1  0  0  0  0
 40 74  1  0  0  0  0
 40 80  2  0  0  0  0
 41 55  1  0  0  0  0
 41 76  1  0  0  0  0
 41 81  2  0  0  0  0
 42 66  1  0  0  0  0
 42 71  1  0  0  0  0
 42 82  2  0  0  0  0
 43 67  1  0  0  0  0
 43 77  1  0  0  0  0
 43 83  2  0  0  0  0
 44 72  1  0  0  0  0
 44 75  1  0  0  0  0
 44 84  2  0  0  0  0
 45 48  1  0  0  0  0
 46 55  1  0  0  0  0
 47 71  1  0  0  0  0
 48 50  1  0  0  0  0
 49 51  1  0  0  0  0
 49 52  1  0  0  0  0
 50 54  1  0  0  0  0
 51 56  1  0  0  0  0
 52 72  1  0  0  0  0
 53 56  1  0  0  0  0
 53 72  1  0  0  0  0
 54 76  1  0  0  0  0
 55 71  1  0  0  0  0
 56 70  1  0  0  0  0
 58 65  1  0  0  0  0
 59 67  1  0  0  0  0
 60 68  1  0  0  0  0
 61 68  1  0  0  0  0
 62 68  1  0  0  0  0
 63 79  1  0  0  0  0
 64 86  1  0  0  0  0
 65 78  1  0  0  0  0
 66 68  1  0  0  0  0
 66 77  1  0  0  0  0
 67 79  1  0  0  0  0
 69 70  1  0  0  0  0
M  CHG  1  79   1
M  ISO  4  44 100  64 101  75 100  86 101
M  END
> <Batch ID>
0015

> <Smiles>
CCN(c1ccc([101CH2:1][101O:1]c2ccc3c(c2)CN(C(=O)C(NC(=O)C(C)NC)C(C)(C)C)C(C(=O)NC2CCCc4ccccc42)C3)c(C)c1)c1ccc([100NH:0][100C:0](=O)N2CCCC(n3nc(-c4ccc(Oc5ccc(F)cc5F)cc4)c(C(N)=O)c3N)C2)c(F)c1

> <Shape>
0.271

> <Color>
0.110

> <Negative vol penalty>
0.000

$$$$

  -OEChem-04042320543D

 83 91  0     1  0  0  0  0  0999 V2000
  -33.4634  -24.6646   17.9798 C   0  0  0  0  0  0  0  0  0  0  0  0
  -32.2100  -24.7904   17.3894 C   0  0  0  0  0  0  0  0  0  0  0  0
  -26.8450  -19.0960   20.0513 C   0  0  0  0  0  0  0  0  0  0  0  0
  -28.1646  -20.5899   18.6860 C   0  0  0  0  0  0  0  0  0  0  0  0
  -33.5799  -24.6493   19.3691 C   0  0  0  0  0  0  0  0  0  0  0  0
  -31.0721  -24.8998   18.1880 C   0  0  0  0  0  0  0  0  0  0  0  0
  -24.6114  -27.9919   18.3072 C   0  0  0  0  0  0  0  0  0  0  0  0
  -19.1035  -23.1302   20.2712 C   0  0  0  0  0  0  0  0  0  0  0  0
  -19.0869  -21.8683   19.6772 C   0  0  0  0  0  0  0  0  0  0  0  0
  -27.9632  -18.2849   20.2446 C   0  0  0  0  0  0  0  0  0  0  0  0
  -29.2828  -19.7788   18.8794 C   0  0  0  0  0  0  0  0  0  0  0  0
  -23.2675  -27.6719   18.4950 C   0  0  0  0  0  0  0  0  0  0  0  0
  -30.7494  -18.2990   22.1602 C   0  0  0  0  0  0  0  0  0  0  0  0
  -31.0054  -17.8455   23.4542 C   0  0  0  0  0  0  0  0  0  0  0  0
  -23.5977  -27.7132   20.8842 C   0  0  0  0  0  0  0  0  0  0  0  0
  -19.1293  -24.1589   18.0853 C   0  0  0  0  0  0  0  0  0  0  0  0
  -30.8162  -15.5610   22.6911 C   0  0  0  0  0  0  0  0  0  0  0  0
  -26.9457  -20.2484   19.2719 C   0  0  0  0  0  0  0  0  0  0  0  0
  -25.3815  -22.1742   19.8657 C   0  0  0  0  0  0  0  0  0  0  0  0
  -32.4439  -24.7683   20.1852 C   0  0  0  0  0  0  0  0  0  0  0  0
  -25.4625  -28.1645   19.4082 C   0  0  0  0  0  0  0  0  0  0  0  0
  -31.1734  -24.8847   19.5895 C   0  0  0  0  0  0  0  0  0  0  0  0
  -24.9514  -28.0379   20.7078 C   0  0  0  0  0  0  0  0  0  0  0  0
  -19.1246  -24.2755   19.4753 C   0  0  0  0  0  0  0  0  0  0  0  0
  -19.0916  -21.7517   18.2872 C   0  0  0  0  0  0  0  0  0  0  0  0
  -29.1821  -18.6263   19.6587 C   0  0  0  0  0  0  0  0  0  0  0  0
  -22.7611  -27.5296   19.7836 C   0  0  0  0  0  0  0  0  0  0  0  0
  -30.5267  -17.3835   21.1316 C   0  0  0  0  0  0  0  0  0  0  0  0
  -31.0388  -16.4766   23.7196 C   0  0  0  0  0  0  0  0  0  0  0  0
  -19.1128  -22.8970   17.4913 C   0  0  0  0  0  0  0  0  0  0  0  0
  -30.5602  -16.0145   21.3971 C   0  0  0  0  0  0  0  0  0  0  0  0
  -25.7908  -21.0864   19.0714 C   0  0  0  0  0  0  0  0  0  0  0  0
  -24.2374  -22.6314   19.2587 C   0  0  0  0  0  0  0  0  0  0  0  0
  -25.9819  -22.7224   21.0467 C   0  0  0  0  0  0  0  0  0  0  0  0
  -28.0833  -26.7106   20.4672 C   0  0  0  0  0  0  0  0  0  0  0  0
  -28.0697  -29.1183   22.6410 C   0  0  0  0  0  0  0  0  0  0  0  0
  -26.2820  -31.4752   24.3426 C   0  0  0  0  0  0  0  0  0  0  0  0
  -19.6651  -20.1687   16.4281 C   0  0  0  0  0  0  0  0  0  0  0  0
  -32.6149  -24.6990   21.6821 C   0  0  0  0  0  0  0  0  0  0  0  0
  -26.9036  -28.5358   19.1893 C   0  0  0  0  0  0  0  0  0  0  0  0
  -25.8188  -28.2329   21.9236 C   0  0  0  0  0  0  0  0  0  0  0  0
  -31.3980  -25.1968   22.4578 C   0  0  0  0  0  0  0  0  0  0  0  0
  -22.2432  -22.2359   14.7626 C   0  0  0  0  0  0  0  0  0  0  0  0
  -30.1173  -24.6020   21.8809 C   0  0  0  0  0  0  0  0  0  0  0  0
  -23.4119  -22.1768   15.7445 C   0  0  0  0  0  0  0  0  0  0  0  0
  -21.3765  -20.9825   14.8377 C   0  0  0  0  0  0  0  0  0  0  0  0
  -22.0436  -20.6287   17.1980 C   0  0  0  0  0  0  0  0  0  0  0  0
  -29.9182  -25.0308   20.4221 C   0  0  1  0  0  0  0  0  0  0  0  0
  -27.7981  -28.1829   20.3736 C   0  0  1  0  0  0  0  0  0  0  0  0
  -22.9087  -21.8975   17.1704 C   0  0  1  0  0  0  0  0  0  0  0  0
  -26.5387  -33.2683   26.0794 C   0  0  0  0  0  0  0  0  0  0  0  0
  -28.2137  -26.9854   24.8181 C   0  0  0  0  0  0  0  0  0  0  0  0
  -27.5166  -28.7285   26.4746 C   0  0  0  0  0  0  0  0  0  0  0  0
  -29.6580  -28.9869   25.2214 C   0  0  0  0  0  0  0  0  0  0  0  0
  -18.1906  -19.4327   18.2490 C   0  0  0  0  0  0  0  0  0  0  0  0
  -19.1353  -25.6677   21.5301 C   0  0  0  0  0  0  0  0  0  0  0  0
  -25.4004  -33.5841   22.4627 C   0  0  0  0  0  0  0  0  0  0  0  0
  -19.1764  -26.7490   19.2768 C   0  0  0  0  0  0  0  0  0  0  0  0
  -20.5959  -27.0353   18.8160 C   0  0  0  0  0  0  0  0  0  1  0  0
  -27.4644  -29.3200   24.0091 C   0  0  1  0  0  0  0  0  0  0  0  0
  -26.5411  -32.9500   24.5923 C   0  0  2  0  0  0  0  0  0  0  0  0
  -28.1970  -28.4996   25.1081 C   0  0  0  0  0  0  0  0  0  0  0  0
  -24.9731  -20.8656   18.0386 N   0  0  0  0  0  0  0  0  0  0  0  0
  -24.0385  -21.8209   18.1799 N   0  0  0  0  0  0  0  0  0  0  0  0
  -27.2224  -28.5887   21.6574 N   0  0  0  0  0  0  0  0  0  0  0  0
  -20.9547  -20.6956   16.2097 N   0  0  0  0  0  0  0  0  0  0  0  0
  -23.3921  -23.6434   19.5479 N   0  0  0  0  0  0  0  0  0  0  0  0
  -27.1551  -22.1318   21.5356 N   0  0  0  0  0  0  0  0  0  0  0  0
  -29.4227  -26.3890   20.3577 N   0  0  0  0  0  0  0  0  0  0  0  0
  -27.4566  -30.7598   24.2438 N   0  0  0  0  0  0  0  0  0  0  0  0
  -19.0749  -20.4452   17.6760 N   0  0  0  0  0  0  0  0  0  0  0  0
  -19.1407  -25.5432   20.0722 N   0  0  3  0  0  0  0  0  0  0  0  0
  -25.4931  -33.7790   23.9326 N   0  3  0  0  0  0  0  0  0  0  0  0
  -25.4834  -23.6966   21.6598 O   0  0  0  0  0  0  0  0  0  0  0  0
  -27.1569  -25.9248   20.6283 O   0  0  0  0  0  0  0  0  0  0  0  0
  -29.2489  -29.4262   22.4500 O   0  0  0  0  0  0  0  0  0  0  0  0
  -25.1507  -31.0042   24.2486 O   0  0  0  0  0  0  0  0  0  0  0  0
  -19.1000  -19.4539   15.5912 O   0  0  0  0  0  0  0  0  0  0  0  0
  -30.2735  -17.8352   19.8473 O   0  0  0  0  0  0  0  0  0  0  0  0
  -21.4499  -27.2167   19.9696 O   0  0  0  0  0  0  0  0  0  1  0  0
  -31.2862  -16.0413   24.9620 F   0  0  0  0  0  0  0  0  0  0  0  0
  -19.1179  -22.7966   16.1544 F   0  0  0  0  0  0  0  0  0  0  0  0
  -30.3482  -15.1302   20.4128 F   0  0  0  0  0  0  0  0  0  0  0  0
  1  2  1  0  0  0  0
  1  5  2  0  0  0  0
  2  6  2  0  0  0  0
  3 10  2  0  0  0  0
  3 18  1  0  0  0  0
  4 11  1  0  0  0  0
  4 18  2  0  0  0  0
  5 20  1  0  0  0  0
  6 22  1  0  0  0  0
  7 12  2  0  0  0  0
  7 21  1  0  0  0  0
  8  9  2  0  0  0  0
  8 24  1  0  0  0  0
  9 25  1  0  0  0  0
 10 26  1  0  0  0  0
 11 26  2  0  0  0  0
 12 27  1  0  0  0  0
 13 14  2  0  0  0  0
 13 28  1  0  0  0  0
 14 29  1  0  0  0  0
 15 23  1  0  0  0  0
 15 27  2  0  0  0  0
 16 24  2  0  0  0  0
 16 30  1  0  0  0  0
 17 29  2  0  0  0  0
 17 31  1  0  0  0  0
 18 32  1  0  0  0  0
 19 32  1  0  0  0  0
 19 33  2  0  0  0  0
 19 34  1  0  0  0  0
 20 22  2  0  0  0  0
 20 39  1  0  0  0  0
 21 23  2  0  0  0  0
 21 40  1  0  0  0  0
 22 48  1  0  0  0  0
 23 41  1  0  0  0  0
 24 72  1  0  0  0  0
 25 30  2  0  0  0  0
 25 71  1  0  0  0  0
 26 79  1  0  0  0  0
 27 80  1  0  0  0  0
 28 31  2  0  0  0  0
 28 79  1  0  0  0  0
 29 81  1  0  0  0  0
 30 82  1  0  0  0  0
 31 83  1  0  0  0  0
 32 63  2  0  0  0  0
 33 64  1  0  0  0  0
 33 67  1  0  0  0  0
 34 68  1  0  0  0  0
 34 74  2  0  0  0  0
 35 49  1  0  0  0  0
 35 69  1  0  0  0  0
 35 75  2  0  0  0  0
 36 60  1  0  0  0  0
 36 65  1  0  0  0  0
 36 76  2  0  0  0  0
 37 61  1  0  0  0  0
 37 70  1  0  0  0  0
 37 77  2  0  0  0  0
 38 66  1  0  0  0  0
 38 71  1  0  0  0  0
 38 78  2  0  0  0  0
 39 42  1  0  0  0  0
 40 49  1  0  0  0  0
 41 65  1  0  0  0  0
 42 44  1  0  0  0  0
 43 45  1  0  0  0  0
 43 46  1  0  0  0  0
 44 48  1  0  0  0  0
 45 50  1  0  0  0  0
 46 66  1  0  0  0  0
 47 50  1  0  0  0  0
 47 66  1  0  0  0  0
 48 69  1  0  0  0  0
 49 65  1  0  0  0  0
 50 64  1  0  0  0  0
 51 61  1  0  0  0  0
 52 62  1  0  0  0  0
 53 62  1  0  0  0  0
 54 62  1  0  0  0  0
 55 71  1  0  0  0  0
 56 72  1  0  0  0  0
 57 73  1  0  0  0  0
 58 59  1  0  0  0  0
 58 72  1  0  0  0  0
 59 80  1  0  0  0  0
 60 62  1  0  0  0  0
 60 70  1  0  0  0  0
 61 73  1  0  0  0  0
 63 64  1  0  0  0  0
M  CHG  1  73   1
M  ISO  4  38 100  59 101  71 100  80 101
M  END
> <Batch ID>
0015

> <Smiles>
CNC(C)C(=O)NC(C(=O)N1Cc2cc([101O:1][101CH2:1]CN(C)c3ccc([100N:0](C)[100C:0](=O)N4CCCC(n5nc(-c6ccc(Oc7ccc(F)cc7F)cc6)c(C(N)=O)c5N)C4)c(F)c3)ccc2CC1C(=O)NC1CCCc2ccccc21)C(C)(C)C

> <Shape>
0.189

> <Color>
0.054

> <Negative vol penalty>
0.000

$$$$

  -OEChem-04042320543D

 92100  0     1  0  0  0  0  0999 V2000
  -27.1851  -32.2022   16.1778 C   0  0  0  0  0  0  0  0  0  0  0  0
  -28.1268  -31.1785   16.1508 C   0  0  0  0  0  0  0  0  0  0  0  0
  -23.1422   -9.8700   19.9523 C   0  0  0  0  0  0  0  0  0  0  0  0
  -23.5460  -10.0400   22.3282 C   0  0  0  0  0  0  0  0  0  0  0  0
  -26.6646  -32.6370   17.3959 C   0  0  0  0  0  0  0  0  0  0  0  0
  -28.5493  -30.5898   17.3422 C   0  0  0  0  0  0  0  0  0  0  0  0
  -27.7474  -23.5210   18.4741 C   0  0  0  0  0  0  0  0  0  0  0  0
  -22.3401   -8.7496   20.1688 C   0  0  0  0  0  0  0  0  0  0  0  0
  -22.7439   -8.9196   22.5448 C   0  0  0  0  0  0  0  0  0  0  0  0
  -27.8210  -22.1433   18.6803 C   0  0  0  0  0  0  0  0  0  0  0  0
  -23.0317   -5.5612   22.2815 C   0  0  0  0  0  0  0  0  0  0  0  0
  -23.5052   -4.5848   23.1578 C   0  0  0  0  0  0  0  0  0  0  0  0
  -28.7313  -22.5119   20.8902 C   0  0  0  0  0  0  0  0  0  0  0  0
  -30.7201  -15.5307   21.7277 C   0  0  0  0  0  0  0  0  0  0  0  0
  -31.3967  -16.9913   24.0062 C   0  0  0  0  0  0  0  0  0  0  0  0
  -21.5700   -4.9108   24.5669 C   0  0  0  0  0  0  0  0  0  0  0  0
  -23.7452  -10.5152   21.0320 C   0  0  0  0  0  0  0  0  0  0  0  0
  -24.1651  -13.0190   20.7823 C   0  0  0  0  0  0  0  0  0  0  0  0
  -27.0737  -32.0468   18.6021 C   0  0  0  0  0  0  0  0  0  0  0  0
  -28.1516  -24.4006   19.4822 C   0  0  0  0  0  0  0  0  0  0  0  0
  -28.0347  -31.0181   18.5777 C   0  0  0  0  0  0  0  0  0  0  0  0
  -28.6482  -23.8930   20.6940 C   0  0  0  0  0  0  0  0  0  0  0  0
  -30.5365  -14.9736   22.9931 C   0  0  0  0  0  0  0  0  0  0  0  0
  -31.2420  -16.8181   21.6014 C   0  0  0  0  0  0  0  0  0  0  0  0
  -31.5803  -17.5484   22.7406 C   0  0  0  0  0  0  0  0  0  0  0  0
  -22.1409   -8.2744   21.4650 C   0  0  0  0  0  0  0  0  0  0  0  0
  -28.3119  -21.6400   19.8853 C   0  0  0  0  0  0  0  0  0  0  0  0
  -21.8273   -6.2126   22.5480 C   0  0  0  0  0  0  0  0  0  0  0  0
  -22.7744   -4.2595   24.3005 C   0  0  0  0  0  0  0  0  0  0  0  0
  -30.8748  -15.7039   24.1324 C   0  0  0  0  0  0  0  0  0  0  0  0
  -21.0965   -5.8873   23.6907 C   0  0  0  0  0  0  0  0  0  0  0  0
  -24.5744  -11.6723   20.8090 C   0  0  0  0  0  0  0  0  0  0  0  0
  -25.3183  -13.7235   20.5368 C   0  0  0  0  0  0  0  0  0  0  0  0
  -22.8593  -13.5827   20.9635 C   0  0  0  0  0  0  0  0  0  0  0  0
  -28.5765  -27.9621   20.5828 C   0  0  0  0  0  0  0  0  0  0  0  0
  -27.5126  -26.4031   23.0010 C   0  0  0  0  0  0  0  0  0  0  0  0
  -25.9445  -24.4189   25.2904 C   0  0  0  0  0  0  0  0  0  0  0  0
  -31.1150  -12.0009   21.5208 C   0  0  0  0  0  0  0  0  0  0  0  0
  -26.5180  -32.5828   19.8977 C   0  0  0  0  0  0  0  0  0  0  0  0
  -28.1475  -25.8916   19.2805 C   0  0  0  0  0  0  0  0  0  0  0  0
  -29.1040  -24.8766   21.7370 C   0  0  0  0  0  0  0  0  0  0  0  0
  -26.7396  -31.6517   21.0869 C   0  0  0  0  0  0  0  0  0  0  0  0
  -29.5848  -13.3257   18.4217 C   0  0  0  0  0  0  0  0  0  0  0  0
  -28.1791  -31.1475   21.1092 C   0  0  0  0  0  0  0  0  0  0  0  0
  -28.0937  -13.0952   18.6616 C   0  0  0  0  0  0  0  0  0  0  0  0
  -30.4431  -12.3072   19.1658 C   0  0  0  0  0  0  0  0  0  0  0  0
  -28.6729  -12.0061   20.8658 C   0  0  0  0  0  0  0  0  0  0  0  0
  -28.4995  -30.3377   19.8470 C   0  0  1  0  0  0  0  0  0  0  0  0
  -27.8087  -26.6731   20.5626 C   0  0  1  0  0  0  0  0  0  0  0  0
  -27.7818  -13.0441   20.1673 C   0  0  2  0  0  0  0  0  0  0  0  0
  -33.6978  -17.1928   19.4741 C   0  0  0  0  0  0  0  0  0  0  0  0
  -25.0043  -24.4595   27.6167 C   0  0  0  0  0  0  0  0  0  0  0  0
  -34.7496  -18.7131   24.0327 C   0  0  0  0  0  0  0  0  0  0  0  0
  -35.7125  -20.0173   22.1101 C   0  0  0  0  0  0  0  0  0  0  0  0
  -30.3391  -26.2852   24.1415 C   0  0  0  0  0  0  0  0  0  0  0  0
  -29.3676  -25.3890   26.2678 C   0  0  0  0  0  0  0  0  0  0  0  0
  -28.7339  -27.6665   25.4717 C   0  0  0  0  0  0  0  0  0  0  0  0
  -31.4178  -19.9742   23.2396 C   0  0  0  0  0  0  0  0  0  0  0  0
  -31.9996  -12.3477   23.7961 C   0  0  0  0  0  0  0  0  0  0  0  0
  -23.2228  -23.7694   24.3264 C   0  0  0  0  0  0  0  0  0  0  0  0
  -29.9805  -13.5958   23.1244 C   0  0  0  0  0  0  0  0  0  0  0  0
  -29.3633  -18.2376   19.3352 C   0  0  0  0  0  0  0  0  0  0  0  0
  -32.2982  -16.6922   19.3589 C   0  0  0  0  0  0  0  0  0  0  0  0
  -30.7360  -18.5638   19.9112 C   0  0  0  0  0  0  0  0  0  0  0  0
  -33.3565  -19.0843   21.9366 C   0  0  0  0  0  0  0  0  0  0  0  0
  -28.5787  -19.4791   18.9278 C   0  0  0  0  0  0  0  0  0  1  0  0
  -27.8428  -25.6364   24.2566 C   0  0  1  0  0  0  0  0  0  0  0  0
  -24.7047  -24.6434   26.1371 C   0  0  2  0  0  0  0  0  0  0  0  0
  -34.4350  -19.6521   22.8673 C   0  0  0  0  0  0  0  0  0  0  0  0
  -29.0662  -26.2310   25.0096 C   0  0  0  0  0  0  0  0  0  0  0  0
  -25.8851  -11.5274   20.5971 N   0  0  0  0  0  0  0  0  0  0  0  0
  -26.3095  -12.7922   20.4349 N   0  0  0  0  0  0  0  0  0  0  0  0
  -28.1512  -25.9943   21.8239 N   0  0  0  0  0  0  0  0  0  0  0  0
  -30.0962  -12.2483   20.5862 N   0  0  0  0  0  0  0  0  0  0  0  0
  -25.5710  -15.0426   20.4001 N   0  0  0  0  0  0  0  0  0  0  0  0
  -21.7853  -12.7159   21.2073 N   0  0  0  0  0  0  0  0  0  0  0  0
  -27.9376  -29.0075   19.9438 N   0  0  0  0  0  0  0  0  0  0  0  0
  -26.6164  -25.5979   25.0458 N   0  0  0  0  0  0  0  0  0  0  0  0
  -32.1095  -18.8542   22.6362 N   0  0  3  0  0  0  0  0  0  0  0  0
  -31.4177  -17.3594   20.3198 N   0  0  3  0  0  0  0  0  0  0  0  0
  -30.9642  -12.5663   22.7961 N   0  0  0  0  0  0  0  0  0  0  0  0
  -23.6331  -23.6822   25.7516 N   0  3  0  0  0  0  0  0  0  0  0  0
  -22.6483  -14.8173   20.8944 O   0  0  0  0  0  0  0  0  0  0  0  0
  -29.6678  -28.0066   21.1383 O   0  0  0  0  0  0  0  0  0  0  0  0
  -26.7148  -27.3429   23.0604 O   0  0  0  0  0  0  0  0  0  0  0  0
  -26.2851  -23.3081   24.8895 O   0  0  0  0  0  0  0  0  0  0  0  0
  -32.1077  -11.3217   21.2290 O   0  0  0  0  0  0  0  0  0  0  0  0
  -21.3581   -7.1812   21.6767 O   0  0  0  0  0  0  0  0  0  0  0  0
  -28.3768  -20.2939   20.0818 O   0  0  0  0  0  0  0  0  0  1  0  0
  -23.2285   -3.3207   25.1411 F   0  0  0  0  0  0  0  0  0  0  0  0
  -30.7035  -15.1763   25.3527 F   0  0  0  0  0  0  0  0  0  0  0  0
  -19.9382   -6.5088   23.9514 F   0  0  0  0  0  0  0  0  0  0  0  0
  1  2  1  0  0  0  0
  1  5  2  0  0  0  0
  2  6  2  0  0  0  0
  3  8  2  0  0  0  0
  3 17  1  0  0  0  0
  4  9  1  0  0  0  0
  4 17  2  0  0  0  0
  5 19  1  0  0  0  0
  6 21  1  0  0  0  0
  7 10  2  0  0  0  0
  7 20  1  0  0  0  0
  8 26  1  0  0  0  0
  9 26  2  0  0  0  0
 10 27  1  0  0  0  0
 11 12  2  0  0  0  0
 11 28  1  0  0  0  0
 12 29  1  0  0  0  0
 13 22  1  0  0  0  0
 13 27  2  0  0  0  0
 14 23  2  0  0  0  0
 14 24  1  0  0  0  0
 15 25  1  0  0  0  0
 15 30  2  0  0  0  0
 16 29  2  0  0  0  0
 16 31  1  0  0  0  0
 17 32  1  0  0  0  0
 18 32  1  0  0  0  0
 18 33  2  0  0  0  0
 18 34  1  0  0  0  0
 19 21  2  0  0  0  0
 19 39  1  0  0  0  0
 20 22  2  0  0  0  0
 20 40  1  0  0  0  0
 21 48  1  0  0  0  0
 22 41  1  0  0  0  0
 23 30  1  0  0  0  0
 23 61  1  0  0  0  0
 24 25  2  0  0  0  0
 24 80  1  0  0  0  0
 25 79  1  0  0  0  0
 26 88  1  0  0  0  0
 27 89  1  0  0  0  0
 28 31  2  0  0  0  0
 28 88  1  0  0  0  0
 29 90  1  0  0  0  0
 30 91  1  0  0  0  0
 31 92  1  0  0  0  0
 32 71  2  0  0  0  0
 33 72  1  0  0  0  0
 33 75  1  0  0  0  0
 34 76  1  0  0  0  0
 34 83  2  0  0  0  0
 35 49  1  0  0  0  0
 35 77  1  0  0  0  0
 35 84  2  0  0  0  0
 36 67  1  0  0  0  0
 36 73  1  0  0  0  0
 36 85  2  0  0  0  0
 37 68  1  0  0  0  0
 37 78  1  0  0  0  0
 37 86  2  0  0  0  0
 38 74  1  0  0  0  0
 38 81  1  0  0  0  0
 38 87  2  0  0  0  0
 39 42  1  0  0  0  0
 40 49  1  0  0  0  0
 41 73  1  0  0  0  0
 42 44  1  0  0  0  0
 43 45  1  0  0  0  0
 43 46  1  0  0  0  0
 44 48  1  0  0  0  0
 45 50  1  0  0  0  0
 46 74  1  0  0  0  0
 47 50  1  0  0  0  0
 47 74  1  0  0  0  0
 48 77  1  0  0  0  0
 49 73  1  0  0  0  0
 50 72  1  0  0  0  0
 51 63  1  0  0  0  0
 52 68  1  0  0  0  0
 53 69  1  0  0  0  0
 54 69  1  0  0  0  0
 55 70  1  0  0  0  0
 56 70  1  0  0  0  0
 57 70  1  0  0  0  0
 58 79  1  0  0  0  0
 59 81  1  0  0  0  0
 60 82  1  0  0  0  0
 61 81  1  0  0  0  0
 62 64  1  0  0  0  0
 62 66  1  0  0  0  0
 63 80  1  0  0  0  0
 64 80  1  0  0  0  0
 65 69  1  0  0  0  0
 65 79  1  0  0  0  0
 66 89  1  0  0  0  0
 67 70  1  0  0  0  0
 67 78  1  0  0  0  0
 68 82  1  0  0  0  0
 71 72  1  0  0  0  0
M  CHG  1  82   1
M  ISO  4  38 100  66 101  81 100  89 101
M  END
> <Batch ID>
0015

> <Smiles>
CCN(CC[101CH2:1][101O:1]c1ccc2c(c1)CN(C(=O)C(NC(=O)C(C)NC)C(C)(C)C)C(C(=O)NC1CCCc3ccccc31)C2)c1cc(C[100N:0](C)[100C:0](=O)N2CCCC(n3nc(-c4ccc(Oc5ccc(F)cc5F)cc4)c(C(N)=O)c3N)C2)c(F)cc1N(C)CC(C)C

> <Shape>
0.259

> <Color>
0.197

> <Negative vol penalty>
0.000

$$$$

  -OEChem-04042320543D

 86 94  0     1  0  0  0  0  0999 V2000
  -19.7523  -34.1307   21.1684 C   0  0  0  0  0  0  0  0  0  0  0  0
  -21.0046  -33.6525   20.7964 C   0  0  0  0  0  0  0  0  0  0  0  0
  -25.3362  -11.3093   20.8798 C   0  0  0  0  0  0  0  0  0  0  0  0
  -25.2883  -11.9661   23.2044 C   0  0  0  0  0  0  0  0  0  0  0  0
  -19.0651  -33.5342   22.2248 C   0  0  0  0  0  0  0  0  0  0  0  0
  -21.5711  -32.5781   21.4815 C   0  0  0  0  0  0  0  0  0  0  0  0
  -25.1136  -28.1695   19.1320 C   0  0  0  0  0  0  0  0  0  0  0  0
  -32.7643  -22.8172   19.3786 C   0  0  0  0  0  0  0  0  0  0  0  0
  -30.5011  -22.6232   18.5555 C   0  0  0  0  0  0  0  0  0  0  0  0
  -32.4269  -22.0433   20.4889 C   0  0  0  0  0  0  0  0  0  0  0  0
  -30.1637  -21.8491   19.6657 C   0  0  0  0  0  0  0  0  0  0  0  0
  -25.4020   -9.9689   21.2599 C   0  0  0  0  0  0  0  0  0  0  0  0
  -25.3541  -10.6256   23.5844 C   0  0  0  0  0  0  0  0  0  0  0  0
  -26.4960  -27.9907   19.1069 C   0  0  0  0  0  0  0  0  0  0  0  0
  -25.2186   -6.3557   21.6156 C   0  0  0  0  0  0  0  0  0  0  0  0
  -24.3956   -5.4506   20.9456 C   0  0  0  0  0  0  0  0  0  0  0  0
  -26.3426  -26.5772   21.0557 C   0  0  0  0  0  0  0  0  0  0  0  0
  -22.4481   -6.6756   21.6829 C   0  0  0  0  0  0  0  0  0  0  0  0
  -25.2794  -12.3080   21.8521 C   0  0  0  0  0  0  0  0  0  0  0  0
  -24.0516  -14.4533   21.2216 C   0  0  0  0  0  0  0  0  0  0  0  0
  -19.6192  -32.4458   22.9169 C   0  0  0  0  0  0  0  0  0  0  0  0
  -24.3352  -27.5612   20.1273 C   0  0  0  0  0  0  0  0  0  0  0  0
  -20.8913  -31.9674   22.5490 C   0  0  0  0  0  0  0  0  0  0  0  0
  -24.9501  -26.7478   21.0897 C   0  0  0  0  0  0  0  0  0  0  0  0
  -31.8014  -23.1073   18.4119 C   0  0  0  0  0  0  0  0  0  0  0  0
  -31.1266  -21.5592   20.6324 C   0  0  0  0  0  0  0  0  0  0  0  0
  -25.4109   -9.6270   22.6121 C   0  0  0  0  0  0  0  0  0  0  0  0
  -27.1111  -27.1968   20.0705 C   0  0  0  0  0  0  0  0  0  0  0  0
  -24.6564   -7.4208   22.3193 C   0  0  0  0  0  0  0  0  0  0  0  0
  -23.0104   -5.6105   20.9792 C   0  0  0  0  0  0  0  0  0  0  0  0
  -23.2712   -7.5807   22.3530 C   0  0  0  0  0  0  0  0  0  0  0  0
  -25.2120  -13.6929   21.4602 C   0  0  0  0  0  0  0  0  0  0  0  0
  -24.5210  -15.6982   20.8805 C   0  0  0  0  0  0  0  0  0  0  0  0
  -33.5096  -25.9064   17.9219 C   0  0  0  0  0  0  0  0  0  0  0  0
  -22.6726  -14.0688   21.3013 C   0  0  0  0  0  0  0  0  0  0  0  0
  -22.4466  -28.6170   22.4559 C   0  0  0  0  0  0  0  0  0  0  0  0
  -21.7964  -25.4610   22.8294 C   0  0  0  0  0  0  0  0  0  0  0  0
  -22.7937  -22.2263   22.3950 C   0  0  0  0  0  0  0  0  0  0  0  0
  -29.4431  -18.6519   21.7622 C   0  0  0  0  0  0  0  0  0  0  0  0
  -18.8595  -31.8641   24.0827 C   0  0  0  0  0  0  0  0  0  0  0  0
  -22.8420  -27.7423   20.1246 C   0  0  0  0  0  0  0  0  0  0  0  0
  -24.1571  -26.0562   22.1673 C   0  0  0  0  0  0  0  0  0  0  0  0
  -19.3653  -30.4901   24.5146 C   0  0  0  0  0  0  0  0  0  0  0  0
  -28.7045  -16.3632   18.8786 C   0  0  0  0  0  0  0  0  0  0  0  0
  -20.8875  -30.4881   24.6124 C   0  0  0  0  0  0  0  0  0  0  0  0
  -27.2669  -16.8089   19.1469 C   0  0  0  0  0  0  0  0  0  0  0  0
  -29.7111  -17.1360   19.7383 C   0  0  0  0  0  0  0  0  0  0  0  0
  -28.1214  -16.5742   21.5474 C   0  0  0  0  0  0  0  0  0  0  0  0
  -21.5281  -30.7881   23.2518 C   0  0  1  0  0  0  0  0  0  0  0  0
  -22.2073  -27.4919   21.4892 C   0  0  1  0  0  0  0  0  0  0  0  0
  -26.8843  -16.7138   20.6430 C   0  0  2  0  0  0  0  0  0  0  0  0
  -22.0677  -19.8650   22.8360 C   0  0  0  0  0  0  0  0  0  0  0  0
  -22.5410  -25.7839   25.7707 C   0  0  0  0  0  0  0  0  0  0  0  0
  -22.7207  -23.2916   25.9268 C   0  0  0  0  0  0  0  0  0  0  0  0
  -20.5354  -24.3493   25.3537 C   0  0  0  0  0  0  0  0  0  0  0  0
  -31.8916  -18.6527   21.1116 C   0  0  0  0  0  0  0  0  0  0  0  0
  -22.7702  -21.5717   19.5089 C   0  0  0  0  0  0  0  0  0  0  0  0
  -32.1637  -23.9403   17.2166 C   0  0  0  0  0  0  0  0  0  0  0  0
  -30.7671  -20.7302   21.8190 C   0  0  0  0  0  0  0  0  0  0  0  0
  -30.3474  -26.1951   18.8178 C   0  0  0  0  0  0  0  0  0  0  0  0
  -31.0975  -26.1664   17.4929 C   0  0  0  0  0  0  0  0  0  0  0  0
  -29.1013  -27.0713   18.7747 C   0  0  0  0  0  0  0  0  0  1  0  0
  -22.3931  -24.3351   23.6388 C   0  0  1  0  0  0  0  0  0  0  0  0
  -22.0675  -21.0142   21.8400 C   0  0  2  0  0  0  0  0  0  0  0  0
  -22.0630  -24.4544   25.1535 C   0  0  0  0  0  0  0  0  0  0  0  0
  -26.3342  -14.3958   21.2852 N   0  0  0  0  0  0  0  0  0  0  0  0
  -25.8810  -15.6110   20.9330 N   0  0  0  0  0  0  0  0  0  0  0  0
  -22.7009  -26.2693   22.1262 N   0  0  0  0  0  0  0  0  0  0  0  0
  -29.1934  -17.4503   21.0780 N   0  0  0  0  0  0  0  0  0  0  0  0
  -23.8989  -16.8479   20.5436 N   0  0  0  0  0  0  0  0  0  0  0  0
  -22.3666  -12.7507   21.6666 N   0  0  0  0  0  0  0  0  0  0  0  0
  -21.4914  -29.6143   22.4060 N   0  0  0  0  0  0  0  0  0  0  0  0
  -21.9280  -23.0977   23.0216 N   0  0  0  0  0  0  0  0  0  0  0  0
  -32.2829  -25.3568   17.5533 N   0  0  0  0  0  0  0  0  0  0  0  0
  -30.6479  -19.3161   21.4910 N   0  0  0  0  0  0  0  0  0  0  0  0
  -22.7218  -20.5484   20.5847 N   0  3  0  0  0  0  0  0  0  0  0  0
  -33.7325  -27.0734   18.2244 O   0  0  0  0  0  0  0  0  0  0  0  0
  -21.7399  -14.8658   21.0400 O   0  0  0  0  0  0  0  0  0  0  0  0
  -23.4246  -28.5821   23.1935 O   0  0  0  0  0  0  0  0  0  0  0  0
  -20.5724  -25.6133   22.8157 O   0  0  0  0  0  0  0  0  0  0  0  0
  -24.0080  -22.3825   22.2870 O   0  0  0  0  0  0  0  0  0  0  0  0
  -28.6226  -19.1172   22.5644 O   0  0  0  0  0  0  0  0  0  0  0  0
  -25.4749   -8.3191   22.9833 O   0  0  0  0  0  0  0  0  0  0  0  0
  -28.4604  -27.0212   20.0487 O   0  0  0  0  0  0  0  0  0  1  0  0
  -22.2202   -4.7421   20.3345 F   0  0  0  0  0  0  0  0  0  0  0  0
  -22.7253   -8.6027   23.0264 F   0  0  0  0  0  0  0  0  0  0  0  0
  1  2  1  0  0  0  0
  1  5  2  0  0  0  0
  2  6  2  0  0  0  0
  3 12  2  0  0  0  0
  3 19  1  0  0  0  0
  4 13  1  0  0  0  0
  4 19  2  0  0  0  0
  5 21  1  0  0  0  0
  6 23  1  0  0  0  0
  7 14  2  0  0  0  0
  7 22  1  0  0  0  0
  8 10  2  0  0  0  0
  8 25  1  0  0  0  0
  9 11  1  0  0  0  0
  9 25  2  0  0  0  0
 10 26  1  0  0  0  0
 11 26  2  0  0  0  0
 12 27  1  0  0  0  0
 13 27  2  0  0  0  0
 14 28  1  0  0  0  0
 15 16  2  0  0  0  0
 15 29  1  0  0  0  0
 16 30  1  0  0  0  0
 17 24  1  0  0  0  0
 17 28  2  0  0  0  0
 18 30  2  0  0  0  0
 18 31  1  0  0  0  0
 19 32  1  0  0  0  0
 20 32  1  0  0  0  0
 20 33  2  0  0  0  0
 20 35  1  0  0  0  0
 21 23  2  0  0  0  0
 21 40  1  0  0  0  0
 22 24  2  0  0  0  0
 22 41  1  0  0  0  0
 23 49  1  0  0  0  0
 24 42  1  0  0  0  0
 25 58  1  0  0  0  0
 26 59  1  0  0  0  0
 27 83  1  0  0  0  0
 28 84  1  0  0  0  0
 29 31  2  0  0  0  0
 29 83  1  0  0  0  0
 30 85  1  0  0  0  0
 31 86  1  0  0  0  0
 32 66  2  0  0  0  0
 33 67  1  0  0  0  0
 33 70  1  0  0  0  0
 34 74  1  0  0  0  0
 34 77  2  0  0  0  0
 35 71  1  0  0  0  0
 35 78  2  0  0  0  0
 36 50  1  0  0  0  0
 36 72  1  0  0  0  0
 36 79  2  0  0  0  0
 37 63  1  0  0  0  0
 37 68  1  0  0  0  0
 37 80  2  0  0  0  0
 38 64  1  0  0  0  0
 38 73  1  0  0  0  0
 38 81  2  0  0  0  0
 39 69  1  0  0  0  0
 39 75  1  0  0  0  0
 39 82  2  0  0  0  0
 40 43  1  0  0  0  0
 41 50  1  0  0  0  0
 42 68  1  0  0  0  0
 43 45  1  0  0  0  0
 44 46  1  0  0  0  0
 44 47  1  0  0  0  0
 45 49  1  0  0  0  0
 46 51  1  0  0  0  0
 47 69  1  0  0  0  0
 48 51  1  0  0  0  0
 48 69  1  0  0  0  0
 49 72  1  0  0  0  0
 50 68  1  0  0  0  0
 51 67  1  0  0  0  0
 52 64  1  0  0  0  0
 53 65  1  0  0  0  0
 54 65  1  0  0  0  0
 55 65  1  0  0  0  0
 56 75  1  0  0  0  0
 57 76  1  0  0  0  0
 58 74  1  0  0  0  0
 59 75  1  0  0  0  0
 60 61  1  0  0  0  0
 60 62  1  0  0  0  0
 61 74  1  0  0  0  0
 62 84  1  0  0  0  0
 63 65  1  0  0  0  0
 63 73  1  0  0  0  0
 64 76  1  0  0  0  0
 66 67  1  0  0  0  0
M  CHG  1  76   1
M  ISO  4  39 100  62 101  75 100  84 101
M  END
> <Batch ID>
0015

> <Smiles>
CNC(C)C(=O)NC(C(=O)N1Cc2cc([101O:1][101CH2:1]CCN(C=O)Cc3ccc(C[100N:0](C)[100C:0](=O)N4CCCC(n5nc(-c6ccc(Oc7ccc(F)cc7F)cc6)c(C(N)=O)c5N)C4)cc3)ccc2CC1C(=O)NC1CCCc2ccccc21)C(C)(C)C

> <Shape>
0.207

> <Color>
0.095

> <Negative vol penalty>
0.000

$$$$
