
  -OEChem-04042320573D

 85 93  0     1  0  0  0  0  0999 V2000
  -30.5235  -24.8617   18.0592 C   0  0  0  0  0  0  0  0  0  0  0  0
  -29.1330  -24.8796   18.0971 C   0  0  0  0  0  0  0  0  0  0  0  0
  -25.6630  -15.2839   19.5328 C   0  0  0  0  0  0  0  0  0  0  0  0
  -25.2481  -15.0321   21.8995 C   0  0  0  0  0  0  0  0  0  0  0  0
  -31.2555  -25.4140   19.1095 C   0  0  0  0  0  0  0  0  0  0  0  0
  -28.4735  -25.4489   19.1858 C   0  0  0  0  0  0  0  0  0  0  0  0
  -23.1754  -28.5191   19.0863 C   0  0  0  0  0  0  0  0  0  0  0  0
  -22.1277  -24.3444   25.1953 C   0  0  0  0  0  0  0  0  0  0  0  0
  -25.7883  -13.9004   19.4075 C   0  0  0  0  0  0  0  0  0  0  0  0
  -25.3733  -13.6485   21.7743 C   0  0  0  0  0  0  0  0  0  0  0  0
  -21.8650  -28.1381   19.3717 C   0  0  0  0  0  0  0  0  0  0  0  0
  -21.0568  -24.3706   24.3021 C   0  0  0  0  0  0  0  0  0  0  0  0
  -23.4740  -11.0633   20.7113 C   0  0  0  0  0  0  0  0  0  0  0  0
  -22.5241  -10.2675   21.3515 C   0  0  0  0  0  0  0  0  0  0  0  0
  -22.1104  -28.9954   21.6132 C   0  0  0  0  0  0  0  0  0  0  0  0
  -23.6274  -24.9955   23.4165 C   0  0  0  0  0  0  0  0  0  0  0  0
  -24.2732   -9.2276   22.6540 C   0  0  0  0  0  0  0  0  0  0  0  0
  -25.3930  -15.8498   20.7788 C   0  0  0  0  0  0  0  0  0  0  0  0
  -24.0871  -18.0412   20.7839 C   0  0  0  0  0  0  0  0  0  0  0  0
  -30.6047  -25.9991   20.2071 C   0  0  0  0  0  0  0  0  0  0  0  0
  -23.9680  -29.1323   20.0672 C   0  0  0  0  0  0  0  0  0  0  0  0
  -29.1974  -26.0084   20.2524 C   0  0  0  0  0  0  0  0  0  0  0  0
  -23.4296  -29.3856   21.3369 C   0  0  0  0  0  0  0  0  0  0  0  0
  -23.4130  -24.6569   24.7526 C   0  0  0  0  0  0  0  0  0  0  0  0
  -25.6434  -13.0827   20.5282 C   0  0  0  0  0  0  0  0  0  0  0  0
  -21.3332  -28.3736   20.6362 C   0  0  0  0  0  0  0  0  0  0  0  0
  -24.8236  -10.9412   21.0423 C   0  0  0  0  0  0  0  0  0  0  0  0
  -21.2711  -24.7091   22.9660 C   0  0  0  0  0  0  0  0  0  0  0  0
  -22.9236   -9.3497   22.3229 C   0  0  0  0  0  0  0  0  0  0  0  0
  -22.5564  -25.0216   22.5232 C   0  0  0  0  0  0  0  0  0  0  0  0
  -25.2231  -10.0234   22.0137 C   0  0  0  0  0  0  0  0  0  0  0  0
  -25.2640  -17.2790   20.9090 C   0  0  0  0  0  0  0  0  0  0  0  0
  -24.4930  -19.3365   20.9937 C   0  0  0  0  0  0  0  0  0  0  0  0
  -22.7468  -17.6164   20.5033 C   0  0  0  0  0  0  0  0  0  0  0  0
  -26.6853  -28.3921   21.5410 C   0  0  0  0  0  0  0  0  0  0  0  0
  -27.4614  -23.0392   23.9548 C   0  0  0  0  0  0  0  0  0  0  0  0
  -26.3580  -31.3638   22.7997 C   0  0  0  0  0  0  0  0  0  0  0  0
  -24.2872  -33.9453   23.6329 C   0  0  0  0  0  0  0  0  0  0  0  0
  -31.4384  -26.5412   21.3409 C   0  0  0  0  0  0  0  0  0  0  0  0
  -25.3709  -29.5615   19.7352 C   0  0  0  0  0  0  0  0  0  0  0  0
  -24.2324  -30.0591   22.4187 C   0  0  0  0  0  0  0  0  0  0  0  0
  -30.6634  -27.4602   22.2817 C   0  0  0  0  0  0  0  0  0  0  0  0
  -29.1200  -21.3422   21.2697 C   0  0  0  0  0  0  0  0  0  0  0  0
  -29.3198  -26.8382   22.6487 C   0  0  0  0  0  0  0  0  0  0  0  0
  -28.1828  -20.1792   20.9468 C   0  0  0  0  0  0  0  0  0  0  0  0
  -29.1279  -21.6549   22.7628 C   0  0  0  0  0  0  0  0  0  0  0  0
  -26.8345  -20.7607   23.0130 C   0  0  0  0  0  0  0  0  0  0  0  0
  -28.4458  -26.6391   21.4045 C   0  0  1  0  0  0  0  0  0  0  0  0
  -26.2568  -29.7133   20.9679 C   0  0  1  0  0  0  0  0  0  0  0  0
  -26.7734  -20.4321   21.5108 C   0  0  2  0  0  0  0  0  0  0  0  0
  -24.3048  -36.2253   24.6811 C   0  0  0  0  0  0  0  0  0  0  0  0
  -26.6438  -30.0909   25.5579 C   0  0  0  0  0  0  0  0  0  0  0  0
  -25.7206  -32.1967   26.5486 C   0  0  0  0  0  0  0  0  0  0  0  0
  -27.8653  -32.2548   25.2760 C   0  0  0  0  0  0  0  0  0  0  0  0
  -24.2624  -24.7123   27.0840 C   0  0  0  0  0  0  0  0  0  0  0  0
  -23.2605  -35.2151   21.1646 C   0  0  0  0  0  0  0  0  0  0  0  0
  -26.0405  -23.1871   24.4375 C   0  0  0  0  0  0  0  0  0  0  0  0
  -18.5317  -26.1393   21.0969 C   0  0  0  0  0  0  0  0  0  0  0  0
  -25.8554  -24.5080   25.1685 C   0  0  0  0  0  0  0  0  0  0  0  0
  -19.5399  -26.8675   20.2219 C   0  0  0  0  0  0  0  0  0  1  0  0
  -19.1581  -25.6344   22.3872 C   0  0  0  0  0  0  0  0  0  0  0  0
  -25.6907  -31.9378   24.0261 C   0  0  1  0  0  0  0  0  0  0  0  0
  -24.3883  -35.4390   23.3820 C   0  0  2  0  0  0  0  0  0  0  0  0
  -26.4653  -31.6056   25.3326 C   0  0  0  0  0  0  0  0  0  0  0  0
  -26.3371  -18.0276   21.1772 N   0  0  0  0  0  0  0  0  0  0  0  0
  -25.8361  -19.2738   21.2224 N   0  0  0  0  0  0  0  0  0  0  0  0
  -25.6011  -30.4544   22.0474 N   0  0  0  0  0  0  0  0  0  0  0  0
  -27.7691  -21.8665   23.2647 N   0  0  0  0  0  0  0  0  0  0  0  0
  -23.8285  -20.5115   21.0030 N   0  0  0  0  0  0  0  0  0  0  0  0
  -22.5050  -16.2488   20.3146 N   0  0  0  0  0  0  0  0  0  0  0  0
  -27.8540  -27.8951   20.9963 N   0  0  0  0  0  0  0  0  0  0  0  0
  -25.5304  -33.3656   23.7731 N   0  0  0  0  0  0  0  0  0  0  0  0
  -24.4958  -24.6308   25.6559 N   0  0  3  0  0  0  0  0  0  0  0  0
  -23.2846  -35.8900   22.4879 N   0  3  0  0  0  0  0  0  0  0  0  0
  -21.7947  -18.4273   20.4060 O   0  0  0  0  0  0  0  0  0  0  0  0
  -26.0068  -27.8634   22.4138 O   0  0  0  0  0  0  0  0  0  0  0  0
  -28.2716  -23.9414   24.1825 O   0  0  0  0  0  0  0  0  0  0  0  0
  -27.5059  -31.7149   22.5156 O   0  0  0  0  0  0  0  0  0  0  0  0
  -23.2127  -33.3526   23.7016 O   0  0  0  0  0  0  0  0  0  0  0  0
  -25.7654  -11.7325   20.4063 O   0  0  0  0  0  0  0  0  0  0  0  0
  -20.0547  -28.0021   20.9176 O   0  0  0  0  0  0  0  0  0  1  0  0
  -20.2176  -24.7352   22.0895 O   0  0  0  0  0  0  0  0  0  0  0  0
  -22.0111   -8.5866   22.9387 F   0  0  0  0  0  0  0  0  0  0  0  0
  -22.7684  -25.3485   21.2409 F   0  0  0  0  0  0  0  0  0  0  0  0
  -26.5180   -9.9024   22.3368 F   0  0  0  0  0  0  0  0  0  0  0  0
  1  2  1  0  0  0  0
  1  5  2  0  0  0  0
  2  6  2  0  0  0  0
  3  9  2  0  0  0  0
  3 18  1  0  0  0  0
  4 10  1  0  0  0  0
  4 18  2  0  0  0  0
  5 20  1  0  0  0  0
  6 22  1  0  0  0  0
  7 11  2  0  0  0  0
  7 21  1  0  0  0  0
  8 12  2  0  0  0  0
  8 24  1  0  0  0  0
  9 25  1  0  0  0  0
 10 25  2  0  0  0  0
 11 26  1  0  0  0  0
 12 28  1  0  0  0  0
 13 14  2  0  0  0  0
 13 27  1  0  0  0  0
 14 29  1  0  0  0  0
 15 23  1  0  0  0  0
 15 26  2  0  0  0  0
 16 24  2  0  0  0  0
 16 30  1  0  0  0  0
 17 29  2  0  0  0  0
 17 31  1  0  0  0  0
 18 32  1  0  0  0  0
 19 32  1  0  0  0  0
 19 33  2  0  0  0  0
 19 34  1  0  0  0  0
 20 22  2  0  0  0  0
 20 39  1  0  0  0  0
 21 23  2  0  0  0  0
 21 40  1  0  0  0  0
 22 48  1  0  0  0  0
 23 41  1  0  0  0  0
 24 73  1  0  0  0  0
 25 80  1  0  0  0  0
 26 81  1  0  0  0  0
 27 31  2  0  0  0  0
 27 80  1  0  0  0  0
 28 30  2  0  0  0  0
 28 82  1  0  0  0  0
 29 83  1  0  0  0  0
 30 84  1  0  0  0  0
 31 85  1  0  0  0  0
 32 65  2  0  0  0  0
 33 66  1  0  0  0  0
 33 69  1  0  0  0  0
 34 70  1  0  0  0  0
 34 75  2  0  0  0  0
 35 49  1  0  0  0  0
 35 71  1  0  0  0  0
 35 76  2  0  0  0  0
 36 57  1  0  0  0  0
 36 68  1  0  0  0  0
 36 77  2  0  0  0  0
 37 62  1  0  0  0  0
 37 67  1  0  0  0  0
 37 78  2  0  0  0  0
 38 63  1  0  0  0  0
 38 72  1  0  0  0  0
 38 79  2  0  0  0  0
 39 42  1  0  0  0  0
 40 49  1  0  0  0  0
 41 67  1  0  0  0  0
 42 44  1  0  0  0  0
 43 45  1  0  0  0  0
 43 46  1  0  0  0  0
 44 48  1  0  0  0  0
 45 50  1  0  0  0  0
 46 68  1  0  0  0  0
 47 50  1  0  0  0  0
 47 68  1  0  0  0  0
 48 71  1  0  0  0  0
 49 67  1  0  0  0  0
 50 66  1  0  0  0  0
 51 63  1  0  0  0  0
 52 64  1  0  0  0  0
 53 64  1  0  0  0  0
 54 64  1  0  0  0  0
 55 73  1  0  0  0  0
 56 74  1  0  0  0  0
 57 59  1  0  0  0  0
 58 60  1  0  0  0  0
 58 61  1  0  0  0  0
 59 73  1  0  0  0  0
 60 81  1  0  0  0  0
 61 82  1  0  0  0  0
 62 64  1  0  0  0  0
 62 72  1  0  0  0  0
 63 74  1  0  0  0  0
 65 66  1  0  0  0  0
M  CHG  1  74   1
M  ISO  4  36 100  57 100  60 101  81 101
M  END
> <Batch ID>
0016

> <Smiles>
CNC(C)C(=O)NC(C(=O)N1Cc2cc([101O:1][101CH2:1]CCOc3ccc(N(C)C[100CH2:0][100C:0](=O)N4CCCC(n5nc(-c6ccc(Oc7ccc(F)cc7F)cc6)c(C(N)=O)c5N)C4)cc3F)ccc2CC1C(=O)NC1CCCc2ccccc21)C(C)(C)C

> <Shape>
0.282

> <Color>
0.075

> <Negative vol penalty>
0.000

$$$$

  -OEChem-04042320573D

 84 92  0     1  0  0  0  0  0999 V2000
  -29.8678   -2.0832   36.8256 C   0  0  0  0  0  0  0  0  0  0  0  0
  -29.8000   -2.9386   35.7306 C   0  0  0  0  0  0  0  0  0  0  0  0
  -23.2846   -9.7975   19.9080 C   0  0  0  0  0  0  0  0  0  0  0  0
  -23.7225   -9.9368   22.2799 C   0  0  0  0  0  0  0  0  0  0  0  0
  -28.6956   -1.5915   37.3984 C   0  0  0  0  0  0  0  0  0  0  0  0
  -28.5597   -3.3021   35.2070 C   0  0  0  0  0  0  0  0  0  0  0  0
  -27.0427   -8.6994   32.7426 C   0  0  0  0  0  0  0  0  0  0  0  0
  -28.4291  -11.5084   25.2454 C   0  0  0  0  0  0  0  0  0  0  0  0
  -28.4860  -10.3588   23.1212 C   0  0  0  0  0  0  0  0  0  0  0  0
  -27.7612  -10.4241   25.8143 C   0  0  0  0  0  0  0  0  0  0  0  0
  -27.8181   -9.2744   23.6902 C   0  0  0  0  0  0  0  0  0  0  0  0
  -22.5525   -8.6278   20.1119 C   0  0  0  0  0  0  0  0  0  0  0  0
  -22.9904   -8.7671   22.4838 C   0  0  0  0  0  0  0  0  0  0  0  0
  -26.9560   -9.1361   31.4214 C   0  0  0  0  0  0  0  0  0  0  0  0
  -19.7387   -7.8687   22.6830 C   0  0  0  0  0  0  0  0  0  0  0  0
  -18.8303   -7.8507   23.7413 C   0  0  0  0  0  0  0  0  0  0  0  0
  -24.5870   -8.6809   31.4327 C   0  0  0  0  0  0  0  0  0  0  0  0
  -20.0233   -5.9990   24.7339 C   0  0  0  0  0  0  0  0  0  0  0  0
  -23.8696  -10.4519   20.9921 C   0  0  0  0  0  0  0  0  0  0  0  0
  -24.1400  -12.9809   20.7945 C   0  0  0  0  0  0  0  0  0  0  0  0
  -27.4401   -1.9568   36.8876 C   0  0  0  0  0  0  0  0  0  0  0  0
  -25.9022   -8.2391   33.4164 C   0  0  0  0  0  0  0  0  0  0  0  0
  -27.3696   -2.8138   35.7726 C   0  0  0  0  0  0  0  0  0  0  0  0
  -24.6614   -8.2413   32.7633 C   0  0  0  0  0  0  0  0  0  0  0  0
  -28.7915  -11.4758   23.8987 C   0  0  0  0  0  0  0  0  0  0  0  0
  -27.4557   -9.3071   25.0368 C   0  0  0  0  0  0  0  0  0  0  0  0
  -22.4054   -8.1126   21.3998 C   0  0  0  0  0  0  0  0  0  0  0  0
  -25.7286   -9.1242   30.7653 C   0  0  0  0  0  0  0  0  0  0  0  0
  -20.7894   -6.9518   22.6500 C   0  0  0  0  0  0  0  0  0  0  0  0
  -18.9726   -6.9159   24.7667 C   0  0  0  0  0  0  0  0  0  0  0  0
  -20.9317   -6.0170   23.6755 C   0  0  0  0  0  0  0  0  0  0  0  0
  -24.6265  -11.6599   20.7821 C   0  0  0  0  0  0  0  0  0  0  0  0
  -25.2459  -13.7565   20.5456 C   0  0  0  0  0  0  0  0  0  0  0  0
  -22.8075  -13.4637   21.0117 C   0  0  0  0  0  0  0  0  0  0  0  0
  -25.0315   -5.4755   34.7233 C   0  0  0  0  0  0  0  0  0  0  0  0
  -22.4723   -7.2006   35.7218 C   0  0  0  0  0  0  0  0  0  0  0  0
  -20.4424   -9.9047   35.2594 C   0  0  0  0  0  0  0  0  0  0  0  0
  -31.1496  -12.3509   21.3872 C   0  0  0  0  0  0  0  0  0  0  0  0
  -26.2020   -1.3624   37.5107 C   0  0  0  0  0  0  0  0  0  0  0  0
  -26.0076   -7.7965   34.8501 C   0  0  0  0  0  0  0  0  0  0  0  0
  -23.4036   -7.7759   33.4487 C   0  0  0  0  0  0  0  0  0  0  0  0
  -24.9172   -2.0935   37.1297 C   0  0  0  0  0  0  0  0  0  0  0  0
  -29.4877  -13.6547   18.3475 C   0  0  0  0  0  0  0  0  0  0  0  0
  -24.8769   -2.3545   35.6274 C   0  0  0  0  0  0  0  0  0  0  0  0
  -28.0171  -13.3328   18.6079 C   0  0  0  0  0  0  0  0  0  0  0  0
  -30.4170  -12.6711   19.0522 C   0  0  0  0  0  0  0  0  0  0  0  0
  -28.6994  -12.2294   20.7753 C   0  0  0  0  0  0  0  0  0  0  0  0
  -26.0424   -3.2508   35.1916 C   0  0  1  0  0  0  0  0  0  0  0  0
  -24.8755   -6.8653   35.2727 C   0  0  1  0  0  0  0  0  0  0  0  0
  -27.7370  -13.2295   20.1172 C   0  0  2  0  0  0  0  0  0  0  0  0
  -18.4121  -11.0298   36.2130 C   0  0  0  0  0  0  0  0  0  0  0  0
  -20.6974   -5.0672   34.4536 C   0  0  0  0  0  0  0  0  0  0  0  0
  -18.7849   -6.6772   34.5889 C   0  0  0  0  0  0  0  0  0  0  0  0
  -19.9058   -5.8966   36.6762 C   0  0  0  0  0  0  0  0  0  0  0  0
  -26.4659   -7.0444   24.7913 C   0  0  0  0  0  0  0  0  0  0  0  0
  -31.8627  -12.0559   23.7290 C   0  0  0  0  0  0  0  0  0  0  0  0
  -21.9521  -12.3786   35.8592 C   0  0  0  0  0  0  0  0  0  0  0  0
  -29.5053  -12.6348   23.2894 C   0  0  0  0  0  0  0  0  0  0  0  0
  -25.1026   -8.9645   27.2113 C   0  0  0  0  0  0  0  0  0  0  0  0
  -26.4098   -8.2097   27.0020 C   0  0  0  0  0  0  0  0  0  0  0  0
  -24.6335   -8.9512   28.6614 C   0  0  0  0  0  0  0  0  0  1  0  0
  -21.1096   -7.5176   35.1547 C   0  0  1  0  0  0  0  0  0  0  0  0
  -19.9311  -10.9575   36.2262 C   0  0  2  0  0  0  0  0  0  0  0  0
  -20.1483   -6.2967   35.2045 C   0  0  0  0  0  0  0  0  0  0  0  0
  -25.9392  -11.5961   20.5439 N   0  0  0  0  0  0  0  0  0  0  0  0
  -26.2869  -12.8867   20.4044 N   0  0  0  0  0  0  0  0  0  0  0  0
  -23.5593   -7.3469   34.8484 N   0  0  0  0  0  0  0  0  0  0  0  0
  -30.1009  -12.5599   20.4766 N   0  0  0  0  0  0  0  0  0  0  0  0
  -25.4196  -15.0907   20.4359 N   0  0  0  0  0  0  0  0  0  0  0  0
  -21.7900  -12.5308   21.2536 N   0  0  0  0  0  0  0  0  0  0  0  0
  -25.7716   -4.6317   35.5293 N   0  0  0  0  0  0  0  0  0  0  0  0
  -20.6276   -8.6877   35.8806 N   0  0  0  0  0  0  0  0  0  0  0  0
  -26.7858   -8.2161   25.6089 N   0  0  3  0  0  0  0  0  0  0  0  0
  -30.8090  -12.2608   22.7454 N   0  0  0  0  0  0  0  0  0  0  0  0
  -20.4686  -12.2991   35.8629 N   0  3  0  0  0  0  0  0  0  0  0  0
  -22.5246  -14.6852   20.9756 O   0  0  0  0  0  0  0  0  0  0  0  0
  -24.5171   -5.1895   33.6485 O   0  0  0  0  0  0  0  0  0  0  0  0
  -22.5694   -6.8434   36.8985 O   0  0  0  0  0  0  0  0  0  0  0  0
  -20.6527  -10.1376   34.0711 O   0  0  0  0  0  0  0  0  0  0  0  0
  -32.3246  -12.2600   21.0088 O   0  0  0  0  0  0  0  0  0  0  0  0
  -21.6909   -6.9715   21.5991 O   0  0  0  0  0  0  0  0  0  0  0  0
  -25.6413   -9.5493   29.4756 O   0  0  0  0  0  0  0  0  0  1  0  0
  -18.1010   -6.8998   25.7838 F   0  0  0  0  0  0  0  0  0  0  0  0
  -21.9398   -5.1344   23.6500 F   0  0  0  0  0  0  0  0  0  0  0  0
  1  2  1  0  0  0  0
  1  5  2  0  0  0  0
  2  6  2  0  0  0  0
  3 12  2  0  0  0  0
  3 19  1  0  0  0  0
  4 13  1  0  0  0  0
  4 19  2  0  0  0  0
  5 21  1  0  0  0  0
  6 23  1  0  0  0  0
  7 14  2  0  0  0  0
  7 22  1  0  0  0  0
  8 10  2  0  0  0  0
  8 25  1  0  0  0  0
  9 11  1  0  0  0  0
  9 25  2  0  0  0  0
 10 26  1  0  0  0  0
 11 26  2  0  0  0  0
 12 27  1  0  0  0  0
 13 27  2  0  0  0  0
 14 28  1  0  0  0  0
 15 16  2  0  0  0  0
 15 29  1  0  0  0  0
 16 30  1  0  0  0  0
 17 24  1  0  0  0  0
 17 28  2  0  0  0  0
 18 30  2  0  0  0  0
 18 31  1  0  0  0  0
 19 32  1  0  0  0  0
 20 32  1  0  0  0  0
 20 33  2  0  0  0  0
 20 34  1  0  0  0  0
 21 23  2  0  0  0  0
 21 39  1  0  0  0  0
 22 24  2  0  0  0  0
 22 40  1  0  0  0  0
 23 48  1  0  0  0  0
 24 41  1  0  0  0  0
 25 58  1  0  0  0  0
 26 73  1  0  0  0  0
 27 81  1  0  0  0  0
 28 82  1  0  0  0  0
 29 31  2  0  0  0  0
 29 81  1  0  0  0  0
 30 83  1  0  0  0  0
 31 84  1  0  0  0  0
 32 65  2  0  0  0  0
 33 66  1  0  0  0  0
 33 69  1  0  0  0  0
 34 70  1  0  0  0  0
 34 76  2  0  0  0  0
 35 49  1  0  0  0  0
 35 71  1  0  0  0  0
 35 77  2  0  0  0  0
 36 62  1  0  0  0  0
 36 67  1  0  0  0  0
 36 78  2  0  0  0  0
 37 63  1  0  0  0  0
 37 72  1  0  0  0  0
 37 79  2  0  0  0  0
 38 68  1  0  0  0  0
 38 74  1  0  0  0  0
 38 80  2  0  0  0  0
 39 42  1  0  0  0  0
 40 49  1  0  0  0  0
 41 67  1  0  0  0  0
 42 44  1  0  0  0  0
 43 45  1  0  0  0  0
 43 46  1  0  0  0  0
 44 48  1  0  0  0  0
 45 50  1  0  0  0  0
 46 68  1  0  0  0  0
 47 50  1  0  0  0  0
 47 68  1  0  0  0  0
 48 71  1  0  0  0  0
 49 67  1  0  0  0  0
 50 66  1  0  0  0  0
 51 63  1  0  0  0  0
 52 64  1  0  0  0  0
 53 64  1  0  0  0  0
 54 64  1  0  0  0  0
 55 73  1  0  0  0  0
 56 74  1  0  0  0  0
 57 75  1  0  0  0  0
 58 74  1  0  0  0  0
 59 60  1  0  0  0  0
 59 61  1  0  0  0  0
 60 73  1  0  0  0  0
 61 82  1  0  0  0  0
 62 64  1  0  0  0  0
 62 72  1  0  0  0  0
 63 75  1  0  0  0  0
 65 66  1  0  0  0  0
M  CHG  1  75   1
M  ISO  4  38 100  61 101  74 100  82 101
M  END
> <Batch ID>
0016

> <Smiles>
CNC(C)C(=O)NC(C(=O)N1Cc2cc([101O:1][101CH2:1]CCN(C)c3ccc(C[100N:0](C)[100C:0](=O)N4CCCC(n5nc(-c6ccc(Oc7ccc(F)cc7F)cc6)c(C(N)=O)c5N)C4)cc3)ccc2CC1C(=O)NC1CCCc2ccccc21)C(C)(C)C

> <Shape>
0.132

> <Color>
0.185

> <Negative vol penalty>
0.000

$$$$

  -OEChem-04042320573D

 82 90  0     1  0  0  0  0  0999 V2000
  -39.3964  -28.9430   21.8906 C   0  0  0  0  0  0  0  0  0  0  0  0
  -38.3722  -28.2573   22.5358 C   0  0  0  0  0  0  0  0  0  0  0  0
  -23.0070   -9.8885   19.9649 C   0  0  0  0  0  0  0  0  0  0  0  0
  -23.7378   -9.9140   22.2676 C   0  0  0  0  0  0  0  0  0  0  0  0
  -39.2260  -29.3716   20.5748 C   0  0  0  0  0  0  0  0  0  0  0  0
  -37.1765  -28.0006   21.8658 C   0  0  0  0  0  0  0  0  0  0  0  0
  -35.5522  -23.2518   22.5407 C   0  0  0  0  0  0  0  0  0  0  0  0
  -32.6297  -17.4393   23.5072 C   0  0  0  0  0  0  0  0  0  0  0  0
  -32.0404  -16.5521   22.6065 C   0  0  0  0  0  0  0  0  0  0  0  0
  -22.2463   -8.7473   20.2189 C   0  0  0  0  0  0  0  0  0  0  0  0
  -22.9771   -8.7728   22.5216 C   0  0  0  0  0  0  0  0  0  0  0  0
  -34.9279  -22.9586   23.7523 C   0  0  0  0  0  0  0  0  0  0  0  0
  -23.2354   -5.4411   22.0073 C   0  0  0  0  0  0  0  0  0  0  0  0
  -23.8294   -4.4173   22.7451 C   0  0  0  0  0  0  0  0  0  0  0  0
  -32.7744  -23.1502   22.6822 C   0  0  0  0  0  0  0  0  0  0  0  0
  -30.4510  -18.3240   24.0615 C   0  0  0  0  0  0  0  0  0  0  0  0
  -22.1088   -4.6313   24.4275 C   0  0  0  0  0  0  0  0  0  0  0  0
  -23.7528  -10.4719   20.9892 C   0  0  0  0  0  0  0  0  0  0  0  0
  -24.1262  -12.9912   20.8438 C   0  0  0  0  0  0  0  0  0  0  0  0
  -38.0312  -29.1116   19.8852 C   0  0  0  0  0  0  0  0  0  0  0  0
  -34.7907  -23.5076   21.3912 C   0  0  0  0  0  0  0  0  0  0  0  0
  -36.9894  -28.4273   20.5400 C   0  0  0  0  0  0  0  0  0  0  0  0
  -33.3915  -23.4440   21.4566 C   0  0  0  0  0  0  0  0  0  0  0  0
  -31.8350  -18.3252   24.2348 C   0  0  0  0  0  0  0  0  0  0  0  0
  -30.6564  -16.5510   22.4332 C   0  0  0  0  0  0  0  0  0  0  0  0
  -22.2313   -8.1894   21.4972 C   0  0  0  0  0  0  0  0  0  0  0  0
  -33.5387  -22.9106   23.8238 C   0  0  0  0  0  0  0  0  0  0  0  0
  -22.0780   -6.0602   22.4796 C   0  0  0  0  0  0  0  0  0  0  0  0
  -23.2661   -4.0124   23.9552 C   0  0  0  0  0  0  0  0  0  0  0  0
  -29.8616  -17.4369   23.1607 C   0  0  0  0  0  0  0  0  0  0  0  0
  -21.5147   -5.6552   23.6897 C   0  0  0  0  0  0  0  0  0  0  0  0
  -24.5392  -11.6504   20.7273 C   0  0  0  0  0  0  0  0  0  0  0  0
  -25.2318  -13.7234   20.4857 C   0  0  0  0  0  0  0  0  0  0  0  0
  -22.8568  -13.5269   21.2403 C   0  0  0  0  0  0  0  0  0  0  0  0
  -34.4288  -25.9973   19.4485 C   0  0  0  0  0  0  0  0  0  0  0  0
  -32.6381  -23.9044   17.7352 C   0  0  0  0  0  0  0  0  0  0  0  0
  -30.7454  -21.0649   17.6969 C   0  0  0  0  0  0  0  0  0  0  0  0
  -30.7074  -14.7065   20.7181 C   0  0  0  0  0  0  0  0  0  0  0  0
  -37.8754  -29.6360   18.4797 C   0  0  0  0  0  0  0  0  0  0  0  0
  -35.4799  -23.7962   20.0858 C   0  0  0  0  0  0  0  0  0  0  0  0
  -32.5291  -23.6908   20.2468 C   0  0  0  0  0  0  0  0  0  0  0  0
  -36.7195  -28.9958   17.7154 C   0  0  0  0  0  0  0  0  0  0  0  0
  -29.5944  -12.2778   18.3644 C   0  0  0  0  0  0  0  0  0  0  0  0
  -35.4640  -28.9567   18.5808 C   0  0  0  0  0  0  0  0  0  0  0  0
  -28.1460  -12.0084   18.7789 C   0  0  0  0  0  0  0  0  0  0  0  0
  -30.4968  -12.5102   19.5749 C   0  0  0  0  0  0  0  0  0  0  0  0
  -28.5813  -13.2735   20.9229 C   0  0  0  0  0  0  0  0  0  0  0  0
  -35.6871  -28.1081   19.8385 C   0  0  1  0  0  0  0  0  0  0  0  0
  -34.5944  -24.5462   19.0956 C   0  0  1  0  0  0  0  0  0  0  0  0
  -27.6215  -13.0977   19.7349 C   0  0  2  0  0  0  0  0  0  0  0  0
  -29.3819  -19.6270   16.1572 C   0  0  0  0  0  0  0  0  0  0  0  0
  -30.3855  -25.9611   17.8133 C   0  0  0  0  0  0  0  0  0  0  0  0
  -28.8006  -24.1483   17.1275 C   0  0  0  0  0  0  0  0  0  0  0  0
  -30.6694  -24.8079   15.6124 C   0  0  0  0  0  0  0  0  0  0  0  0
  -32.4886  -18.7178   18.1566 C   0  0  0  0  0  0  0  0  0  0  0  0
  -32.6187  -21.0152   26.7581 C   0  0  0  0  0  0  0  0  0  0  0  0
  -31.6773  -20.1554   25.9232 C   0  0  0  0  0  0  0  0  0  0  0  0
  -33.6314  -21.7804   25.9143 C   0  0  0  0  0  0  0  0  0  1  0  0
  -31.1818  -23.5069   17.7188 C   0  0  1  0  0  0  0  0  0  0  0  0
  -30.7531  -19.8616   16.7714 C   0  0  2  0  0  0  0  0  0  0  0  0
  -30.2752  -24.6032   17.0914 C   0  0  0  0  0  0  0  0  0  0  0  0
  -25.8081  -11.5347   20.3264 N   0  0  0  0  0  0  0  0  0  0  0  0
  -26.2019  -12.8121   20.1878 N   0  0  0  0  0  0  0  0  0  0  0  0
  -33.2497  -23.9752   18.9949 N   0  0  0  0  0  0  0  0  0  0  0  0
  -29.9391  -13.5580   20.4328 N   0  0  0  0  0  0  0  0  0  0  0  0
  -25.4590  -15.0513   20.3997 N   0  0  0  0  0  0  0  0  0  0  0  0
  -21.8299  -12.6338   21.5753 N   0  0  0  0  0  0  0  0  0  0  0  0
  -30.0608  -15.6488   21.5171 N   0  0  0  0  0  0  0  0  0  0  0  0
  -32.4207  -19.2063   25.1303 N   0  0  0  0  0  0  0  0  0  0  0  0
  -35.6174  -26.6989   19.5163 N   0  0  0  0  0  0  0  0  0  0  0  0
  -31.1182  -22.2177   17.0388 N   0  0  0  0  0  0  0  0  0  0  0  0
  -31.1490  -18.6351   17.5197 N   0  3  0  0  0  0  0  0  0  0  0  0
  -22.6345  -14.7608   21.2800 O   0  0  0  0  0  0  0  0  0  0  0  0
  -33.3058  -26.4474   19.6433 O   0  0  0  0  0  0  0  0  0  0  0  0
  -33.2136  -24.1364   16.6691 O   0  0  0  0  0  0  0  0  0  0  0  0
  -30.4357  -20.9902   18.8839 O   0  0  0  0  0  0  0  0  0  0  0  0
  -31.8442  -14.8563   20.2630 O   0  0  0  0  0  0  0  0  0  0  0  0
  -21.4890   -7.0760   21.7455 O   0  0  0  0  0  0  0  0  0  0  0  0
  -32.9268  -22.6252   25.0054 O   0  0  0  0  0  0  0  0  0  1  0  0
  -23.8359   -3.0281   24.6629 F   0  0  0  0  0  0  0  0  0  0  0  0
  -28.5304  -17.4447   23.0017 F   0  0  0  0  0  0  0  0  0  0  0  0
  -20.4022   -6.2454   24.1480 F   0  0  0  0  0  0  0  0  0  0  0  0
  1  2  1  0  0  0  0
  1  5  2  0  0  0  0
  2  6  2  0  0  0  0
  3 10  2  0  0  0  0
  3 18  1  0  0  0  0
  4 11  1  0  0  0  0
  4 18  2  0  0  0  0
  5 20  1  0  0  0  0
  6 22  1  0  0  0  0
  7 12  2  0  0  0  0
  7 21  1  0  0  0  0
  8  9  2  0  0  0  0
  8 24  1  0  0  0  0
  9 25  1  0  0  0  0
 10 26  1  0  0  0  0
 11 26  2  0  0  0  0
 12 27  1  0  0  0  0
 13 14  2  0  0  0  0
 13 28  1  0  0  0  0
 14 29  1  0  0  0  0
 15 23  1  0  0  0  0
 15 27  2  0  0  0  0
 16 24  2  0  0  0  0
 16 30  1  0  0  0  0
 17 29  2  0  0  0  0
 17 31  1  0  0  0  0
 18 32  1  0  0  0  0
 19 32  1  0  0  0  0
 19 33  2  0  0  0  0
 19 34  1  0  0  0  0
 20 22  2  0  0  0  0
 20 39  1  0  0  0  0
 21 23  2  0  0  0  0
 21 40  1  0  0  0  0
 22 48  1  0  0  0  0
 23 41  1  0  0  0  0
 24 69  1  0  0  0  0
 25 30  2  0  0  0  0
 25 68  1  0  0  0  0
 26 78  1  0  0  0  0
 27 79  1  0  0  0  0
 28 31  2  0  0  0  0
 28 78  1  0  0  0  0
 29 80  1  0  0  0  0
 30 81  1  0  0  0  0
 31 82  1  0  0  0  0
 32 62  2  0  0  0  0
 33 63  1  0  0  0  0
 33 66  1  0  0  0  0
 34 67  1  0  0  0  0
 34 73  2  0  0  0  0
 35 49  1  0  0  0  0
 35 70  1  0  0  0  0
 35 74  2  0  0  0  0
 36 59  1  0  0  0  0
 36 64  1  0  0  0  0
 36 75  2  0  0  0  0
 37 60  1  0  0  0  0
 37 71  1  0  0  0  0
 37 76  2  0  0  0  0
 38 65  1  0  0  0  0
 38 68  1  0  0  0  0
 38 77  2  0  0  0  0
 39 42  1  0  0  0  0
 40 49  1  0  0  0  0
 41 64  1  0  0  0  0
 42 44  1  0  0  0  0
 43 45  1  0  0  0  0
 43 46  1  0  0  0  0
 44 48  1  0  0  0  0
 45 50  1  0  0  0  0
 46 65  1  0  0  0  0
 47 50  1  0  0  0  0
 47 65  1  0  0  0  0
 48 70  1  0  0  0  0
 49 64  1  0  0  0  0
 50 63  1  0  0  0  0
 51 60  1  0  0  0  0
 52 61  1  0  0  0  0
 53 61  1  0  0  0  0
 54 61  1  0  0  0  0
 55 72  1  0  0  0  0
 56 57  1  0  0  0  0
 56 58  1  0  0  0  0
 57 69  1  0  0  0  0
 58 79  1  0  0  0  0
 59 61  1  0  0  0  0
 59 71  1  0  0  0  0
 60 72  1  0  0  0  0
 62 63  1  0  0  0  0
M  CHG  1  72   1
M  ISO  4  38 100  58 101  68 100  79 101
M  END
> <Batch ID>
0016

> <Smiles>
CNC(C)C(=O)NC(C(=O)N1Cc2cc([101O:1][101CH2:1]CCNc3ccc([100NH:0][100C:0](=O)N4CCCC(n5nc(-c6ccc(Oc7ccc(F)cc7F)cc6)c(C(N)=O)c5N)C4)c(F)c3)ccc2CC1C(=O)NC1CCCc2ccccc21)C(C)(C)C

> <Shape>
0.207

> <Color>
0.204

> <Negative vol penalty>
0.000

$$$$

  -OEChem-04042320573D

 87 95  0     1  0  0  0  0  0999 V2000
  -29.2878  -17.8601   17.1992 C   0  0  0  0  0  0  0  0  0  0  0  0
  -29.0993  -18.3918   18.4699 C   0  0  0  0  0  0  0  0  0  0  0  0
  -23.0658   -9.8738   19.9493 C   0  0  0  0  0  0  0  0  0  0  0  0
  -23.8593   -9.8731   22.2313 C   0  0  0  0  0  0  0  0  0  0  0  0
  -30.5458  -17.9181   16.6032 C   0  0  0  0  0  0  0  0  0  0  0  0
  -30.1658  -18.9923   19.1400 C   0  0  0  0  0  0  0  0  0  0  0  0
  -30.5134  -21.2963   24.7702 C   0  0  0  0  0  0  0  0  0  0  0  0
  -31.8878  -16.3865   27.4469 C   0  0  0  0  0  0  0  0  0  0  0  0
  -33.4874  -17.4939   26.0144 C   0  0  0  0  0  0  0  0  0  0  0  0
  -30.9207  -16.4902   26.4471 C   0  0  0  0  0  0  0  0  0  0  0  0
  -32.5202  -17.5976   25.0146 C   0  0  0  0  0  0  0  0  0  0  0  0
  -22.3283   -8.7179   20.2054 C   0  0  0  0  0  0  0  0  0  0  0  0
  -23.1217   -8.7172   22.4874 C   0  0  0  0  0  0  0  0  0  0  0  0
  -30.8645  -20.8518   26.0441 C   0  0  0  0  0  0  0  0  0  0  0  0
  -19.9046   -7.9096   23.1340 C   0  0  0  0  0  0  0  0  0  0  0  0
  -19.1650   -7.8631   24.3157 C   0  0  0  0  0  0  0  0  0  0  0  0
  -33.0848  -21.7435   25.7368 C   0  0  0  0  0  0  0  0  0  0  0  0
  -20.4214   -5.9255   25.0258 C   0  0  0  0  0  0  0  0  0  0  0  0
  -23.8314  -10.4513   20.9623 C   0  0  0  0  0  0  0  0  0  0  0  0
  -24.1658  -12.9777   20.8477 C   0  0  0  0  0  0  0  0  0  0  0  0
  -31.6306  -18.5086   17.2721 C   0  0  0  0  0  0  0  0  0  0  0  0
  -31.4502  -21.9592   23.9643 C   0  0  0  0  0  0  0  0  0  0  0  0
  -31.4374  -19.0819   18.5454 C   0  0  0  0  0  0  0  0  0  0  0  0
  -32.7423  -22.1977   24.4540 C   0  0  0  0  0  0  0  0  0  0  0  0
  -33.1712  -16.8884   27.2305 C   0  0  0  0  0  0  0  0  0  0  0  0
  -31.2369  -17.0957   25.2310 C   0  0  0  0  0  0  0  0  0  0  0  0
  -22.3562   -8.1396   21.4745 C   0  0  0  0  0  0  0  0  0  0  0  0
  -32.1512  -21.0728   26.5265 C   0  0  0  0  0  0  0  0  0  0  0  0
  -20.9025   -6.9639   22.8981 C   0  0  0  0  0  0  0  0  0  0  0  0
  -19.4234   -6.8711   25.2616 C   0  0  0  0  0  0  0  0  0  0  0  0
  -21.1609   -5.9719   23.8441 C   0  0  0  0  0  0  0  0  0  0  0  0
  -24.5940  -11.6450   20.6982 C   0  0  0  0  0  0  0  0  0  0  0  0
  -25.2508  -13.7312   20.4715 C   0  0  0  0  0  0  0  0  0  0  0  0
  -22.9005  -13.4889   21.2873 C   0  0  0  0  0  0  0  0  0  0  0  0
  -32.7973  -21.3740   21.1454 C   0  0  0  0  0  0  0  0  0  0  0  0
  -30.7569  -14.6952   20.6800 C   0  0  0  0  0  0  0  0  0  0  0  0
  -34.0470  -24.3378   21.5650 C   0  0  0  0  0  0  0  0  0  0  0  0
  -34.9586  -26.8186   23.7240 C   0  0  0  0  0  0  0  0  0  0  0  0
  -32.9687  -18.5512   16.5771 C   0  0  0  0  0  0  0  0  0  0  0  0
  -31.0478  -22.4561   22.6028 C   0  0  0  0  0  0  0  0  0  0  0  0
  -33.7789  -22.9225   23.6363 C   0  0  0  0  0  0  0  0  0  0  0  0
  -34.1284  -18.8035   17.5351 C   0  0  0  0  0  0  0  0  0  0  0  0
  -29.5607  -12.4062   18.1961 C   0  0  0  0  0  0  0  0  0  0  0  0
  -33.8154  -19.9951   18.4277 C   0  0  0  0  0  0  0  0  0  0  0  0
  -28.1376  -12.0904   18.6546 C   0  0  0  0  0  0  0  0  0  0  0  0
  -30.4983  -12.6060   19.3827 C   0  0  0  0  0  0  0  0  0  0  0  0
  -28.6141  -13.3307   20.8133 C   0  0  0  0  0  0  0  0  0  0  0  0
  -32.5899  -19.7126   19.3059 C   0  0  1  0  0  0  0  0  0  0  0  0
  -32.2352  -22.6656   21.6682 C   0  0  1  0  0  0  0  0  0  0  0  0
  -27.6278  -13.1518   19.6455 C   0  0  2  0  0  0  0  0  0  0  0  0
  -35.9868  -29.1072   23.7740 C   0  0  0  0  0  0  0  0  0  0  0  0
  -36.7982  -23.1096   21.0830 C   0  0  0  0  0  0  0  0  0  0  0  0
  -37.8156  -25.1757   22.0652 C   0  0  0  0  0  0  0  0  0  0  0  0
  -36.4409  -25.3302   19.9894 C   0  0  0  0  0  0  0  0  0  0  0  0
  -28.9239  -16.6791   24.4330 C   0  0  0  0  0  0  0  0  0  0  0  0
  -32.5327  -28.0089   24.9312 C   0  0  0  0  0  0  0  0  0  0  0  0
  -36.1312  -17.9897   29.3294 C   0  0  0  0  0  0  0  0  0  0  0  0
  -34.2120  -16.7778   28.3054 C   0  0  0  0  0  0  0  0  0  0  0  0
  -30.1406  -15.6840   21.6373 C   0  0  0  0  0  0  0  0  0  0  0  0
  -31.1115  -16.8205   21.9520 C   0  0  0  0  0  0  0  0  0  0  0  0
  -34.0154  -20.3242   29.5989 C   0  0  0  0  0  0  0  0  0  0  0  0
  -30.5748  -17.8389   22.9573 C   0  0  0  0  0  0  0  0  0  0  0  0
  -33.8083  -18.8189   29.6735 C   0  0  0  0  0  0  0  0  0  0  0  0
  -33.8320  -20.8998   28.2000 C   0  0  0  0  0  0  0  0  0  1  0  0
  -35.2996  -24.8896   22.2019 C   0  0  1  0  0  0  0  0  0  0  0  0
  -34.6915  -28.3129   23.7121 C   0  0  2  0  0  0  0  0  0  0  0  0
  -36.5699  -24.6109   21.3498 C   0  0  0  0  0  0  0  0  0  0  0  0
  -25.8528  -11.5538   20.2610 N   0  0  0  0  0  0  0  0  0  0  0  0
  -26.2249  -12.8387   20.1325 N   0  0  0  0  0  0  0  0  0  0  0  0
  -33.3391  -23.3833   22.3090 N   0  0  0  0  0  0  0  0  0  0  0  0
  -29.9678  -13.6054   20.3118 N   0  0  0  0  0  0  0  0  0  0  0  0
  -25.4572  -15.0634   20.4009 N   0  0  0  0  0  0  0  0  0  0  0  0
  -21.8956  -12.5761   21.6357 N   0  0  0  0  0  0  0  0  0  0  0  0
  -32.2010  -20.9318   19.9799 N   0  0  0  0  0  0  0  0  0  0  0  0
  -35.0434  -26.3047   22.4474 N   0  0  0  0  0  0  0  0  0  0  0  0
  -30.2599  -17.1990   24.2192 N   0  0  3  0  0  0  0  0  0  0  0  0
  -33.8480  -28.6977   24.8789 N   0  3  0  0  0  0  0  0  0  0  0  0
  -34.7394  -18.1181   28.7584 N   0  3  1  0  0  0  0  0  0  0  0  0
  -22.6623  -14.7187   21.3532 O   0  0  0  0  0  0  0  0  0  0  0  0
  -33.7059  -20.8203   21.7535 O   0  0  0  0  0  0  0  0  0  0  0  0
  -31.9044  -14.8890   20.2703 O   0  0  0  0  0  0  0  0  0  0  0  0
  -33.7053  -24.7442   20.4516 O   0  0  0  0  0  0  0  0  0  0  0  0
  -35.0836  -26.1726   24.7621 O   0  0  0  0  0  0  0  0  0  0  0  0
  -21.6364   -7.0119   21.7248 O   0  0  0  0  0  0  0  0  0  0  0  0
  -32.4967  -20.6394   27.7693 O   0  0  0  0  0  0  0  0  0  1  0  0
  -18.7141   -6.8275   26.3971 F   0  0  0  0  0  0  0  0  0  0  0  0
  -22.1192   -5.0615   23.6236 F   0  0  0  0  0  0  0  0  0  0  0  0
  1  2  1  0  0  0  0
  1  5  2  0  0  0  0
  2  6  2  0  0  0  0
  3 12  2  0  0  0  0
  3 19  1  0  0  0  0
  4 13  1  0  0  0  0
  4 19  2  0  0  0  0
  5 21  1  0  0  0  0
  6 23  1  0  0  0  0
  7 14  2  0  0  0  0
  7 22  1  0  0  0  0
  8 10  2  0  0  0  0
  8 25  1  0  0  0  0
  9 11  1  0  0  0  0
  9 25  2  0  0  0  0
 10 26  1  0  0  0  0
 11 26  2  0  0  0  0
 12 27  1  0  0  0  0
 13 27  2  0  0  0  0
 14 28  1  0  0  0  0
 15 16  2  0  0  0  0
 15 29  1  0  0  0  0
 16 30  1  0  0  0  0
 17 24  1  0  0  0  0
 17 28  2  0  0  0  0
 18 30  2  0  0  0  0
 18 31  1  0  0  0  0
 19 32  1  0  0  0  0
 20 32  1  0  0  0  0
 20 33  2  0  0  0  0
 20 34  1  0  0  0  0
 21 23  2  0  0  0  0
 21 39  1  0  0  0  0
 22 24  2  0  0  0  0
 22 40  1  0  0  0  0
 23 48  1  0  0  0  0
 24 41  1  0  0  0  0
 25 58  1  0  0  0  0
 26 76  1  0  0  0  0
 27 84  1  0  0  0  0
 28 85  1  0  0  0  0
 29 31  2  0  0  0  0
 29 84  1  0  0  0  0
 30 86  1  0  0  0  0
 31 87  1  0  0  0  0
 32 68  2  0  0  0  0
 33 69  1  0  0  0  0
 33 72  1  0  0  0  0
 34 73  1  0  0  0  0
 34 79  2  0  0  0  0
 35 49  1  0  0  0  0
 35 74  1  0  0  0  0
 35 80  2  0  0  0  0
 36 59  1  0  0  0  0
 36 71  1  0  0  0  0
 36 81  2  0  0  0  0
 37 65  1  0  0  0  0
 37 70  1  0  0  0  0
 37 82  2  0  0  0  0
 38 66  1  0  0  0  0
 38 75  1  0  0  0  0
 38 83  2  0  0  0  0
 39 42  1  0  0  0  0
 40 49  1  0  0  0  0
 41 70  1  0  0  0  0
 42 44  1  0  0  0  0
 43 45  1  0  0  0  0
 43 46  1  0  0  0  0
 44 48  1  0  0  0  0
 45 50  1  0  0  0  0
 46 71  1  0  0  0  0
 47 50  1  0  0  0  0
 47 71  1  0  0  0  0
 48 74  1  0  0  0  0
 49 70  1  0  0  0  0
 50 69  1  0  0  0  0
 51 66  1  0  0  0  0
 52 67  1  0  0  0  0
 53 67  1  0  0  0  0
 54 67  1  0  0  0  0
 55 76  1  0  0  0  0
 56 77  1  0  0  0  0
 57 78  1  0  0  0  0
 58 78  1  0  0  0  0
 59 60  1  0  0  0  0
 60 62  1  0  0  0  0
 61 63  1  0  0  0  0
 61 64  1  0  0  0  0
 62 76  1  0  0  0  0
 63 78  1  0  0  0  0
 64 85  1  0  0  0  0
 65 67  1  0  0  0  0
 65 75  1  0  0  0  0
 66 77  1  0  0  0  0
 68 69  1  0  0  0  0
M  CHG  2  77   1  78   1
M  ISO  4  36 100  59 100  64 101  85 101
M  END
> <Batch ID>
0016

> <Smiles>
CNC(C)C(=O)NC(C(=O)N1Cc2cc([101O:1][101CH2:1]CCN(C)Cc3ccc(N(C)CC[100CH2:0][100C:0](=O)N4CCCC(n5nc(-c6ccc(Oc7ccc(F)cc7F)cc6)c(C(N)=O)c5N)C4)cc3)ccc2CC1C(=O)NC1CCCc2ccccc21)C(C)(C)C

> <Shape>
0.180

> <Color>
0.195

> <Negative vol penalty>
0.000

$$$$

  -OEChem-04042320573D

 86 95  0     1  0  0  0  0  0999 V2000
  -31.5200  -31.4568   26.9988 C   0  0  0  0  0  0  0  0  0  0  0  0
  -31.4707  -30.7384   25.8085 C   0  0  0  0  0  0  0  0  0  0  0  0
  -23.1917   -9.7163   19.9881 C   0  0  0  0  0  0  0  0  0  0  0  0
  -24.3870   -9.5324   22.0797 C   0  0  0  0  0  0  0  0  0  0  0  0
  -30.4573  -31.3867   27.8986 C   0  0  0  0  0  0  0  0  0  0  0  0
  -30.3590  -29.9485   25.5178 C   0  0  0  0  0  0  0  0  0  0  0  0
  -27.9051  -28.9343   19.9991 C   0  0  0  0  0  0  0  0  0  0  0  0
  -29.2602  -18.3428   19.5162 C   0  0  0  0  0  0  0  0  0  0  0  0
  -29.4506  -19.5243   18.7996 C   0  0  0  0  0  0  0  0  0  0  0  0
  -22.6196   -8.4628   20.2048 C   0  0  0  0  0  0  0  0  0  0  0  0
  -23.8147   -8.2789   22.2965 C   0  0  0  0  0  0  0  0  0  0  0  0
  -28.0293  -27.8787   19.0970 C   0  0  0  0  0  0  0  0  0  0  0  0
  -20.8555   -7.0445   23.3641 C   0  0  0  0  0  0  0  0  0  0  0  0
  -20.3522   -6.7748   24.6367 C   0  0  0  0  0  0  0  0  0  0  0  0
  -26.0078  -26.8982   19.9751 C   0  0  0  0  0  0  0  0  0  0  0  0
  -27.6604  -19.4632   20.9384 C   0  0  0  0  0  0  0  0  0  0  0  0
  -21.8850   -4.9194   24.8497 C   0  0  0  0  0  0  0  0  0  0  0  0
  -24.0755  -10.2511   20.9256 C   0  0  0  0  0  0  0  0  0  0  0  0
  -23.9947  -12.7724   20.5464 C   0  0  0  0  0  0  0  0  0  0  0  0
  -29.3277  -30.6032   27.6144 C   0  0  0  0  0  0  0  0  0  0  0  0
  -26.8353  -28.9743   20.9050 C   0  0  0  0  0  0  0  0  0  0  0  0
  -29.2807  -29.8668   26.4152 C   0  0  0  0  0  0  0  0  0  0  0  0
  -25.8708  -27.9568   20.8860 C   0  0  0  0  0  0  0  0  0  0  0  0
  -28.3650  -18.3123   20.5856 C   0  0  0  0  0  0  0  0  0  0  0  0
  -28.7460  -20.6752   19.1524 C   0  0  0  0  0  0  0  0  0  0  0  0
  -22.9310   -7.7441   21.3590 C   0  0  0  0  0  0  0  0  0  0  0  0
  -27.0822  -26.8589   19.0868 C   0  0  0  0  0  0  0  0  0  0  0  0
  -21.8735   -6.2516   22.8342 C   0  0  0  0  0  0  0  0  0  0  0  0
  -20.8669   -5.7123   25.3795 C   0  0  0  0  0  0  0  0  0  0  0  0
  -27.8509  -20.6447   20.2218 C   0  0  0  0  0  0  0  0  0  0  0  0
  -22.3882   -5.1891   23.5770 C   0  0  0  0  0  0  0  0  0  0  0  0
  -24.6674  -11.5456   20.7020 C   0  0  0  0  0  0  0  0  0  0  0  0
  -24.9974  -13.6927   20.3611 C   0  0  0  0  0  0  0  0  0  0  0  0
  -22.5892  -13.0550   20.5677 C   0  0  0  0  0  0  0  0  0  0  0  0
  -26.5762  -28.9438   24.0729 C   0  0  0  0  0  0  0  0  0  0  0  0
  -23.4367  -29.4484   23.4313 C   0  0  0  0  0  0  0  0  0  0  0  0
  -20.8485  -29.1651   21.2250 C   0  0  0  0  0  0  0  0  0  0  0  0
  -30.0263  -15.5784   22.2241 C   0  0  0  0  0  0  0  0  0  0  0  0
  -28.2243  -30.5215   28.6393 C   0  0  0  0  0  0  0  0  0  0  0  0
  -26.7009  -30.1337   21.8537 C   0  0  0  0  0  0  0  0  0  0  0  0
  -24.6925  -27.9634   21.8241 C   0  0  0  0  0  0  0  0  0  0  0  0
  -26.9189  -29.9566   28.0852 C   0  0  0  0  0  0  0  0  0  0  0  0
  -29.9338  -13.0799   19.4945 C   0  0  0  0  0  0  0  0  0  0  0  0
  -27.1879  -28.7030   27.2588 C   0  0  0  0  0  0  0  0  0  0  0  0
  -28.5190  -12.5149   19.6079 C   0  0  0  0  0  0  0  0  0  0  0  0
  -29.9266  -23.4763   17.0668 C   0  0  0  0  0  0  0  0  0  0  0  0
  -30.4538  -13.5813   20.8383 C   0  0  0  0  0  0  0  0  0  0  0  0
  -29.8499  -21.9706   17.3104 C   0  0  0  0  0  0  0  0  0  0  0  0
  -28.2544  -23.1005   18.7369 C   0  0  0  0  0  0  0  0  0  0  0  0
  -28.1441  -14.0045   21.6132 C   0  0  0  0  0  0  0  0  0  0  0  0
  -28.0811  -29.0183   26.0529 C   0  0  1  0  0  0  0  0  0  0  0  0
  -25.8526  -29.8078   23.0791 C   0  0  1  0  0  0  0  0  0  0  0  0
  -28.5537  -23.9719   17.5118 C   0  0  1  0  0  0  0  0  0  0  0  0
  -27.5728  -13.5332   20.2674 C   0  0  2  0  0  0  0  0  0  0  0  0
  -18.3931  -29.6309   20.9986 C   0  0  0  0  0  0  0  0  0  0  0  0
  -22.8185  -27.0279   25.1832 C   0  0  0  0  0  0  0  0  0  0  0  0
  -20.5288  -26.9686   24.1723 C   0  0  0  0  0  0  0  0  0  0  0  0
  -21.2594  -28.9598   25.4853 C   0  0  0  0  0  0  0  0  0  0  0  0
  -29.7672  -17.8972   23.0212 C   0  0  0  0  0  0  0  0  0  0  0  0
  -21.2898  -31.0099   18.9532 C   0  0  0  0  0  0  0  0  0  0  0  0
  -28.1613  -17.0491   21.3516 C   0  0  0  0  0  0  0  0  0  0  0  0
  -28.5226  -25.4602   17.8121 C   0  0  0  0  0  0  0  0  0  1  0  0
  -22.2392  -28.5618   23.1889 C   0  0  1  0  0  0  0  0  0  0  0  0
  -19.7992  -30.1632   20.7698 C   0  0  2  0  0  0  0  0  0  0  0  0
  -21.7346  -27.8781   24.4909 C   0  0  0  0  0  0  0  0  0  0  0  0
  -25.9947  -11.6715   20.6222 N   0  0  0  0  0  0  0  0  0  0  0  0
  -26.1642  -12.9884   20.4144 N   0  0  0  0  0  0  0  0  0  0  0  0
  -28.9361  -21.8418   18.4426 N   0  0  3  0  0  0  0  0  0  0  0  0
  -24.6085  -29.1152   22.7373 N   0  0  0  0  0  0  0  0  0  0  0  0
  -29.5154  -14.5142   21.4630 N   0  0  0  0  0  0  0  0  0  0  0  0
  -24.9860  -15.0274   20.1592 N   0  0  0  0  0  0  0  0  0  0  0  0
  -21.9898  -13.3714   21.7944 N   0  0  0  0  0  0  0  0  0  0  0  0
  -27.3102  -29.6523   25.0049 N   0  0  0  0  0  0  0  0  0  0  0  0
  -21.2417  -29.3953   22.5265 N   0  0  0  0  0  0  0  0  0  0  0  0
  -29.2731  -16.7618   22.2553 N   0  0  0  0  0  0  0  0  0  0  0  0
  -19.9598  -30.4575   19.3177 N   0  3  0  0  0  0  0  0  0  0  0  0
  -21.8826  -13.0116   19.5321 O   0  0  0  0  0  0  0  0  0  0  0  0
  -26.4748  -27.7248   24.0004 O   0  0  0  0  0  0  0  0  0  0  0  0
  -23.3342  -30.4057   24.2025 O   0  0  0  0  0  0  0  0  0  0  0  0
  -21.2740  -28.2686   20.5000 O   0  0  0  0  0  0  0  0  0  0  0  0
  -31.0995  -15.4798   22.8327 O   0  0  0  0  0  0  0  0  0  0  0  0
  -22.3726   -6.5211   21.5709 O   0  0  0  0  0  0  0  0  0  0  0  0
  -27.2015  -25.8270   18.2077 O   0  0  0  0  0  0  0  0  0  1  0  0
  -20.3846   -5.4544   26.6022 F   0  0  0  0  0  0  0  0  0  0  0  0
  -27.1684  -21.7451   20.5694 F   0  0  0  0  0  0  0  0  0  0  0  0
  -23.3671   -4.4246   23.0738 F   0  0  0  0  0  0  0  0  0  0  0  0
  1  2  1  0  0  0  0
  1  5  2  0  0  0  0
  2  6  2  0  0  0  0
  3 10  2  0  0  0  0
  3 18  1  0  0  0  0
  4 11  1  0  0  0  0
  4 18  2  0  0  0  0
  5 20  1  0  0  0  0
  6 22  1  0  0  0  0
  7 12  2  0  0  0  0
  7 21  1  0  0  0  0
  8  9  2  0  0  0  0
  8 24  1  0  0  0  0
  9 25  1  0  0  0  0
 10 26  1  0  0  0  0
 11 26  2  0  0  0  0
 12 27  1  0  0  0  0
 13 14  2  0  0  0  0
 13 28  1  0  0  0  0
 14 29  1  0  0  0  0
 15 23  1  0  0  0  0
 15 27  2  0  0  0  0
 16 24  2  0  0  0  0
 16 30  1  0  0  0  0
 17 29  2  0  0  0  0
 17 31  1  0  0  0  0
 18 32  1  0  0  0  0
 19 32  1  0  0  0  0
 19 33  2  0  0  0  0
 19 34  1  0  0  0  0
 20 22  2  0  0  0  0
 20 39  1  0  0  0  0
 21 23  2  0  0  0  0
 21 40  1  0  0  0  0
 22 51  1  0  0  0  0
 23 41  1  0  0  0  0
 24 61  1  0  0  0  0
 25 30  2  0  0  0  0
 25 68  1  0  0  0  0
 26 82  1  0  0  0  0
 27 83  1  0  0  0  0
 28 31  2  0  0  0  0
 28 82  1  0  0  0  0
 29 84  1  0  0  0  0
 30 85  1  0  0  0  0
 31 86  1  0  0  0  0
 32 66  2  0  0  0  0
 33 67  1  0  0  0  0
 33 71  1  0  0  0  0
 34 72  1  0  0  0  0
 34 77  2  0  0  0  0
 35 52  1  0  0  0  0
 35 73  1  0  0  0  0
 35 78  2  0  0  0  0
 36 63  1  0  0  0  0
 36 69  1  0  0  0  0
 36 79  2  0  0  0  0
 37 64  1  0  0  0  0
 37 74  1  0  0  0  0
 37 80  2  0  0  0  0
 38 70  1  0  0  0  0
 38 75  1  0  0  0  0
 38 81  2  0  0  0  0
 39 42  1  0  0  0  0
 40 52  1  0  0  0  0
 41 69  1  0  0  0  0
 42 44  1  0  0  0  0
 43 45  1  0  0  0  0
 43 47  1  0  0  0  0
 44 51  1  0  0  0  0
 45 54  1  0  0  0  0
 46 48  1  0  0  0  0
 46 53  1  0  0  0  0
 47 70  1  0  0  0  0
 48 68  1  0  0  0  0
 49 53  1  0  0  0  0
 49 68  1  0  0  0  0
 50 54  1  0  0  0  0
 50 70  1  0  0  0  0
 51 73  1  0  0  0  0
 52 69  1  0  0  0  0
 53 62  1  0  0  0  0
 54 67  1  0  0  0  0
 55 64  1  0  0  0  0
 56 65  1  0  0  0  0
 57 65  1  0  0  0  0
 58 65  1  0  0  0  0
 59 75  1  0  0  0  0
 60 76  1  0  0  0  0
 61 75  1  0  0  0  0
 62 83  1  0  0  0  0
 63 65  1  0  0  0  0
 63 74  1  0  0  0  0
 64 76  1  0  0  0  0
 66 67  1  0  0  0  0
M  CHG  1  76   1
M  ISO  4  38 100  62 101  75 100  83 101
M  END
> <Batch ID>
0016

> <Smiles>
CNC(C)C(=O)NC(C(=O)N1Cc2cc([101O:1][101CH2:1]C3CCN(c4ccc(C[100N:0](C)[100C:0](=O)N5CCCC(n6nc(-c7ccc(Oc8ccc(F)cc8F)cc7)c(C(N)=O)c6N)C5)cc4F)C3)ccc2CC1C(=O)NC1CCCc2ccccc21)C(C)(C)C

> <Shape>
0.338

> <Color>
0.165

> <Negative vol penalty>
0.000

$$$$

  -OEChem-04042320573D

 82 90  0     1  0  0  0  0  0999 V2000
  -29.5257  -24.7786   17.0146 C   0  0  0  0  0  0  0  0  0  0  0  0
  -28.3177  -24.7885   17.7045 C   0  0  0  0  0  0  0  0  0  0  0  0
  -25.9335  -12.4030   20.0220 C   0  0  0  0  0  0  0  0  0  0  0  0
  -23.8144  -13.1254   20.9300 C   0  0  0  0  0  0  0  0  0  0  0  0
  -30.6089  -25.5118   17.4973 C   0  0  0  0  0  0  0  0  0  0  0  0
  -28.1925  -25.5308   18.8784 C   0  0  0  0  0  0  0  0  0  0  0  0
  -23.8798  -28.1793   19.0517 C   0  0  0  0  0  0  0  0  0  0  0  0
  -24.0423  -22.8068   22.0450 C   0  0  0  0  0  0  0  0  0  0  0  0
  -23.0290  -23.7653   22.0532 C   0  0  0  0  0  0  0  0  0  0  0  0
  -25.7764  -11.1632   20.6416 C   0  0  0  0  0  0  0  0  0  0  0  0
  -23.6572  -11.8856   21.5496 C   0  0  0  0  0  0  0  0  0  0  0  0
  -22.7171  -27.4822   19.3771 C   0  0  0  0  0  0  0  0  0  0  0  0
  -24.8153  -10.3161   24.3112 C   0  0  0  0  0  0  0  0  0  0  0  0
  -24.3856  -10.3046   25.6382 C   0  0  0  0  0  0  0  0  0  0  0  0
  -22.8731  -28.2923   21.6440 C   0  0  0  0  0  0  0  0  0  0  0  0
  -22.4286  -21.0961   22.5988 C   0  0  0  0  0  0  0  0  0  0  0  0
  -22.4379   -9.0272   24.9965 C   0  0  0  0  0  0  0  0  0  0  0  0
  -24.9525  -13.3841   20.1662 C   0  0  0  0  0  0  0  0  0  0  0  0
  -24.6864  -15.0315   18.2368 C   0  0  0  0  0  0  0  0  0  0  0  0
  -30.4941  -26.2711   18.6724 C   0  0  0  0  0  0  0  0  0  0  0  0
  -24.5550  -28.9307   20.0243 C   0  0  0  0  0  0  0  0  0  0  0  0
  -29.2757  -26.2737   19.3780 C   0  0  0  0  0  0  0  0  0  0  0  0
  -24.0427  -29.0001   21.3277 C   0  0  0  0  0  0  0  0  0  0  0  0
  -23.7421  -21.4721   22.3177 C   0  0  0  0  0  0  0  0  0  0  0  0
  -21.7155  -23.3893   22.3343 C   0  0  0  0  0  0  0  0  0  0  0  0
  -24.6383  -10.9045   21.4054 C   0  0  0  0  0  0  0  0  0  0  0  0
  -22.2151  -27.5362   20.6741 C   0  0  0  0  0  0  0  0  0  0  0  0
  -24.0562   -9.6832   23.3268 C   0  0  0  0  0  0  0  0  0  0  0  0
  -23.1970   -9.6602   25.9808 C   0  0  0  0  0  0  0  0  0  0  0  0
  -22.8676   -9.0388   23.6695 C   0  0  0  0  0  0  0  0  0  0  0  0
  -21.4153  -22.0547   22.6071 C   0  0  0  0  0  0  0  0  0  0  0  0
  -25.1145  -14.6651   19.5269 C   0  0  0  0  0  0  0  0  0  0  0  0
  -25.0758  -16.3421   18.1051 C   0  0  0  0  0  0  0  0  0  0  0  0
  -23.9982  -14.2566   17.2461 C   0  0  0  0  0  0  0  0  0  0  0  0
  -27.4479  -28.8184   21.3368 C   0  0  0  0  0  0  0  0  0  0  0  0
  -26.4867  -31.5750   22.7508 C   0  0  0  0  0  0  0  0  0  0  0  0
  -23.9060  -33.5462   23.8000 C   0  0  0  0  0  0  0  0  0  0  0  0
  -26.1266  -20.7045   22.0510 C   0  0  0  0  0  0  0  0  0  0  0  0
  -31.7068  -27.0098   19.1808 C   0  0  0  0  0  0  0  0  0  0  0  0
  -25.7932  -29.6986   19.6506 C   0  0  0  0  0  0  0  0  0  0  0  0
  -24.7188  -29.8088   22.4035 C   0  0  0  0  0  0  0  0  0  0  0  0
  -31.3791  -28.0696   20.2294 C   0  0  0  0  0  0  0  0  0  0  0  0
  -28.4035  -19.4310   19.6281 C   0  0  0  0  0  0  0  0  0  0  0  0
  -30.4241  -27.5066   21.2772 C   0  0  0  0  0  0  0  0  0  0  0  0
  -27.7764  -18.1005   19.2053 C   0  0  0  0  0  0  0  0  0  0  0  0
  -28.2014  -19.7054   21.1172 C   0  0  0  0  0  0  0  0  0  0  0  0
  -26.1831  -18.2933   21.1576 C   0  0  0  0  0  0  0  0  0  0  0  0
  -29.0933  -27.0864   20.6415 C   0  0  1  0  0  0  0  0  0  0  0  0
  -26.6835  -30.0161   20.8480 C   0  0  1  0  0  0  0  0  0  0  0  0
  -26.3046  -18.0039   19.6525 C   0  0  2  0  0  0  0  0  0  0  0  0
  -23.4335  -35.7234   24.9550 C   0  0  0  0  0  0  0  0  0  0  0  0
  -27.2220  -30.3110   25.4288 C   0  0  0  0  0  0  0  0  0  0  0  0
  -25.8765  -32.0935   26.5604 C   0  0  0  0  0  0  0  0  0  0  0  0
  -27.8707  -32.7151   25.1968 C   0  0  0  0  0  0  0  0  0  0  0  0
  -20.4031  -25.0966   23.5683 C   0  0  0  0  0  0  0  0  0  0  0  0
  -22.4694  -34.6174   21.4446 C   0  0  0  0  0  0  0  0  0  0  0  0
  -19.9946  -24.7134   21.1322 C   0  0  0  0  0  0  0  0  0  0  0  0
  -20.8159  -25.6564   20.2689 C   0  0  0  0  0  0  0  0  0  1  0  0
  -25.7700  -31.9258   24.0323 C   0  0  1  0  0  0  0  0  0  0  0  0
  -23.6314  -35.0280   23.6171 C   0  0  2  0  0  0  0  0  0  0  0  0
  -26.6729  -31.7445   25.2850 C   0  0  0  0  0  0  0  0  0  0  0  0
  -25.7289  -15.6623   20.1689 N   0  0  0  0  0  0  0  0  0  0  0  0
  -25.6898  -16.6682   19.2785 N   0  0  0  0  0  0  0  0  0  0  0  0
  -25.9299  -30.5370   21.9903 N   0  0  0  0  0  0  0  0  0  0  0  0
  -26.7831  -19.6006   21.4669 N   0  0  0  0  0  0  0  0  0  0  0  0
  -24.9495  -17.2358   17.1013 N   0  0  0  0  0  0  0  0  0  0  0  0
  -23.6737  -12.9263   17.5451 N   0  0  0  0  0  0  0  0  0  0  0  0
  -24.7718  -20.4989   22.3098 N   0  0  0  0  0  0  0  0  0  0  0  0
  -28.2680  -28.2467   20.3828 N   0  0  0  0  0  0  0  0  0  0  0  0
  -25.2578  -33.2804   23.8559 N   0  0  0  0  0  0  0  0  0  0  0  0
  -20.7196  -24.3750   22.3354 N   0  0  3  0  0  0  0  0  0  0  0  0
  -22.4039  -35.2299   22.7964 N   0  3  0  0  0  0  0  0  0  0  0  0
  -23.6950  -14.7248   16.1225 O   0  0  0  0  0  0  0  0  0  0  0  0
  -27.3052  -28.4417   22.4941 O   0  0  0  0  0  0  0  0  0  0  0  0
  -27.4991  -32.2038   22.4325 O   0  0  0  0  0  0  0  0  0  0  0  0
  -23.0107  -32.7088   23.8884 O   0  0  0  0  0  0  0  0  0  0  0  0
  -26.7159  -21.7643   22.2782 O   0  0  0  0  0  0  0  0  0  0  0  0
  -24.4846   -9.6948   22.0100 O   0  0  0  0  0  0  0  0  0  0  0  0
  -21.0808  -26.8562   20.9946 O   0  0  0  0  0  0  0  0  0  1  0  0
  -22.7853   -9.6479   27.2554 F   0  0  0  0  0  0  0  0  0  0  0  0
  -22.1347   -8.4280   22.7284 F   0  0  0  0  0  0  0  0  0  0  0  0
  -19.8022  -21.5465   22.9590 Cl  0  0  0  0  0  0  0  0  0  0  0  0
  1  2  1  0  0  0  0
  1  5  2  0  0  0  0
  2  6  2  0  0  0  0
  3 10  2  0  0  0  0
  3 18  1  0  0  0  0
  4 11  1  0  0  0  0
  4 18  2  0  0  0  0
  5 20  1  0  0  0  0
  6 22  1  0  0  0  0
  7 12  2  0  0  0  0
  7 21  1  0  0  0  0
  8  9  2  0  0  0  0
  8 24  1  0  0  0  0
  9 25  1  0  0  0  0
 10 26  1  0  0  0  0
 11 26  2  0  0  0  0
 12 27  1  0  0  0  0
 13 14  2  0  0  0  0
 13 28  1  0  0  0  0
 14 29  1  0  0  0  0
 15 23  1  0  0  0  0
 15 27  2  0  0  0  0
 16 24  2  0  0  0  0
 16 31  1  0  0  0  0
 17 29  2  0  0  0  0
 17 30  1  0  0  0  0
 18 32  1  0  0  0  0
 19 32  1  0  0  0  0
 19 33  2  0  0  0  0
 19 34  1  0  0  0  0
 20 22  2  0  0  0  0
 20 39  1  0  0  0  0
 21 23  2  0  0  0  0
 21 40  1  0  0  0  0
 22 48  1  0  0  0  0
 23 41  1  0  0  0  0
 24 68  1  0  0  0  0
 25 31  2  0  0  0  0
 25 71  1  0  0  0  0
 26 78  1  0  0  0  0
 27 79  1  0  0  0  0
 28 30  2  0  0  0  0
 28 78  1  0  0  0  0
 29 80  1  0  0  0  0
 30 81  1  0  0  0  0
 31 82  1  0  0  0  0
 32 62  2  0  0  0  0
 33 63  1  0  0  0  0
 33 66  1  0  0  0  0
 34 67  1  0  0  0  0
 34 73  2  0  0  0  0
 35 49  1  0  0  0  0
 35 69  1  0  0  0  0
 35 74  2  0  0  0  0
 36 59  1  0  0  0  0
 36 64  1  0  0  0  0
 36 75  2  0  0  0  0
 37 60  1  0  0  0  0
 37 70  1  0  0  0  0
 37 76  2  0  0  0  0
 38 65  1  0  0  0  0
 38 68  1  0  0  0  0
 38 77  2  0  0  0  0
 39 42  1  0  0  0  0
 40 49  1  0  0  0  0
 41 64  1  0  0  0  0
 42 44  1  0  0  0  0
 43 45  1  0  0  0  0
 43 46  1  0  0  0  0
 44 48  1  0  0  0  0
 45 50  1  0  0  0  0
 46 65  1  0  0  0  0
 47 50  1  0  0  0  0
 47 65  1  0  0  0  0
 48 69  1  0  0  0  0
 49 64  1  0  0  0  0
 50 63  1  0  0  0  0
 51 60  1  0  0  0  0
 52 61  1  0  0  0  0
 53 61  1  0  0  0  0
 54 61  1  0  0  0  0
 55 71  1  0  0  0  0
 56 72  1  0  0  0  0
 57 58  1  0  0  0  0
 57 71  1  0  0  0  0
 58 79  1  0  0  0  0
 59 61  1  0  0  0  0
 59 70  1  0  0  0  0
 60 72  1  0  0  0  0
 62 63  1  0  0  0  0
M  CHG  1  72   1
M  ISO  4  38 100  58 101  68 100  79 101
M  END
> <Batch ID>
0016

> <Smiles>
CNC(C)C(=O)NC(C(=O)N1Cc2cc([101O:1][101CH2:1]CN(C)c3ccc([100NH:0][100C:0](=O)N4CCCC(n5nc(-c6ccc(Oc7ccc(F)cc7F)cc6)c(C(N)=O)c5N)C4)cc3Cl)ccc2CC1C(=O)NC1CCCc2ccccc21)C(C)(C)C

> <Shape>
0.255

> <Color>
0.076

> <Negative vol penalty>
0.000

$$$$

  -OEChem-04042320573D

 87 95  0     1  0  0  0  0  0999 V2000
  -23.9874  -38.3555   18.2312 C   0  0  0  0  0  0  0  0  0  0  0  0
  -25.0833  -37.7018   18.7853 C   0  0  0  0  0  0  0  0  0  0  0  0
  -23.2782   -9.7650   19.8839 C   0  0  0  0  0  0  0  0  0  0  0  0
  -23.7909   -9.9081   22.2405 C   0  0  0  0  0  0  0  0  0  0  0  0
  -22.7002  -38.0544   18.6745 C   0  0  0  0  0  0  0  0  0  0  0  0
  -24.8927  -36.7474   19.7839 C   0  0  0  0  0  0  0  0  0  0  0  0
  -27.1732  -29.9692   18.9191 C   0  0  0  0  0  0  0  0  0  0  0  0
  -22.5978   -8.5676   20.1046 C   0  0  0  0  0  0  0  0  0  0  0  0
  -23.1104   -8.7106   22.4612 C   0  0  0  0  0  0  0  0  0  0  0  0
  -27.7672  -28.7070   18.9154 C   0  0  0  0  0  0  0  0  0  0  0  0
  -23.6981   -5.4035   22.0757 C   0  0  0  0  0  0  0  0  0  0  0  0
  -24.3076   -4.4533   22.8950 C   0  0  0  0  0  0  0  0  0  0  0  0
  -26.7737  -28.2215   21.0661 C   0  0  0  0  0  0  0  0  0  0  0  0
  -28.5019  -19.1489   21.0379 C   0  0  0  0  0  0  0  0  0  0  0  0
  -29.9335  -19.2692   18.6466 C   0  0  0  0  0  0  0  0  0  0  0  0
  -22.4285   -4.5544   24.4102 C   0  0  0  0  0  0  0  0  0  0  0  0
  -23.8748  -10.4353   20.9519 C   0  0  0  0  0  0  0  0  0  0  0  0
  -24.0435  -12.9736   20.7620 C   0  0  0  0  0  0  0  0  0  0  0  0
  -22.4931  -37.0889   19.6722 C   0  0  0  0  0  0  0  0  0  0  0  0
  -26.3637  -30.3570   19.9904 C   0  0  0  0  0  0  0  0  0  0  0  0
  -23.6017  -36.4341   20.2419 C   0  0  0  0  0  0  0  0  0  0  0  0
  -26.1660  -29.4798   21.0694 C   0  0  0  0  0  0  0  0  0  0  0  0
  -29.0123  -17.9811   20.4712 C   0  0  0  0  0  0  0  0  0  0  0  0
  -29.4231  -20.4370   19.2134 C   0  0  0  0  0  0  0  0  0  0  0  0
  -22.5138   -8.0404   21.3932 C   0  0  0  0  0  0  0  0  0  0  0  0
  -27.5681  -27.8354   19.9864 C   0  0  0  0  0  0  0  0  0  0  0  0
  -22.4539   -5.9293   22.4238 C   0  0  0  0  0  0  0  0  0  0  0  0
  -23.6728   -4.0287   24.0622 C   0  0  0  0  0  0  0  0  0  0  0  0
  -21.8190   -5.5047   23.5909 C   0  0  0  0  0  0  0  0  0  0  0  0
  -29.7281  -18.0412   19.2755 C   0  0  0  0  0  0  0  0  0  0  0  0
  -28.7072  -20.3769   20.4090 C   0  0  0  0  0  0  0  0  0  0  0  0
  -24.5784  -11.6720   20.7245 C   0  0  0  0  0  0  0  0  0  0  0  0
  -25.1105  -13.7915   20.4811 C   0  0  0  0  0  0  0  0  0  0  0  0
  -22.7020  -13.4048   21.0272 C   0  0  0  0  0  0  0  0  0  0  0  0
  -24.1921  -33.0134   21.5081 C   0  0  0  0  0  0  0  0  0  0  0  0
  -22.8081  -30.3257   22.0294 C   0  0  0  0  0  0  0  0  0  0  0  0
  -21.4044  -27.2166   22.0277 C   0  0  0  0  0  0  0  0  0  0  0  0
  -30.5543  -14.9512   21.6377 C   0  0  0  0  0  0  0  0  0  0  0  0
  -21.0867  -36.8313   20.1524 C   0  0  0  0  0  0  0  0  0  0  0  0
  -25.7537  -31.7303   20.0653 C   0  0  0  0  0  0  0  0  0  0  0  0
  -25.3154  -29.9528   22.2165 C   0  0  0  0  0  0  0  0  0  0  0  0
  -20.9428  -35.5378   20.9501 C   0  0  0  0  0  0  0  0  0  0  0  0
  -29.7481  -12.7210   18.7955 C   0  0  0  0  0  0  0  0  0  0  0  0
  -22.0577  -35.4216   21.9846 C   0  0  0  0  0  0  0  0  0  0  0  0
  -28.3088  -12.3059   19.0956 C   0  0  0  0  0  0  0  0  0  0  0  0
  -30.5222  -13.0456   20.0695 C   0  0  0  0  0  0  0  0  0  0  0  0
  -28.4248  -13.6501   21.2311 C   0  0  0  0  0  0  0  0  0  0  0  0
  -23.4339  -35.3749   21.3097 C   0  0  1  0  0  0  0  0  0  0  0  0
  -24.3679  -31.7394   20.7351 C   0  0  1  0  0  0  0  0  0  0  0  0
  -27.6036  -13.3610   19.9656 C   0  0  2  0  0  0  0  0  0  0  0  0
  -19.3673  -25.9747   22.8057 C   0  0  0  0  0  0  0  0  0  0  0  0
  -23.8893  -30.3466   24.8815 C   0  0  0  0  0  0  0  0  0  0  0  0
  -22.4172  -28.3833   25.3783 C   0  0  0  0  0  0  0  0  0  0  0  0
  -21.4038  -30.5613   24.7060 C   0  0  0  0  0  0  0  0  0  0  0  0
  -30.7013  -17.2075   22.6210 C   0  0  0  0  0  0  0  0  0  0  0  0
  -20.6550  -26.4791   19.2612 C   0  0  0  0  0  0  0  0  0  0  0  0
  -28.1657  -21.4766   16.5348 C   0  0  0  0  0  0  0  0  0  0  0  0
  -28.7706  -16.6858   21.1768 C   0  0  0  0  0  0  0  0  0  0  0  0
  -29.6647  -21.7379   18.5060 C   0  0  0  0  0  0  0  0  0  0  0  0
  -28.2666  -24.4856   18.8536 C   0  0  0  0  0  0  0  0  0  0  0  0
  -28.4976  -23.7227   17.5578 C   0  0  0  0  0  0  0  0  0  0  0  0
  -28.3599  -25.9987   18.6992 C   0  0  0  0  0  0  0  0  0  1  0  0
  -22.6088  -29.1679   22.9744 C   0  0  1  0  0  0  0  0  0  0  0  0
  -20.0105  -26.7407   21.6602 C   0  0  2  0  0  0  0  0  0  0  0  0
  -22.5988  -29.6136   24.4639 C   0  0  0  0  0  0  0  0  0  0  0  0
  -25.8837  -11.6589   20.4418 N   0  0  0  0  0  0  0  0  0  0  0  0
  -26.1780  -12.9624   20.2991 N   0  0  0  0  0  0  0  0  0  0  0  0
  -24.1293  -30.6574   21.7053 N   0  0  0  0  0  0  0  0  0  0  0  0
  -29.8090  -14.0182   20.8981 N   0  0  0  0  0  0  0  0  0  0  0  0
  -25.2304  -15.1319   20.3744 N   0  0  0  0  0  0  0  0  0  0  0  0
  -21.7289  -12.4330   21.2971 N   0  0  0  0  0  0  0  0  0  0  0  0
  -23.6834  -34.0589   20.7614 N   0  0  0  0  0  0  0  0  0  0  0  0
  -21.3880  -28.4951   22.5438 N   0  0  0  0  0  0  0  0  0  0  0  0
  -29.9633  -16.2026   21.8691 N   0  0  0  0  0  0  0  0  0  0  0  0
  -20.0657  -25.8464   20.4693 N   0  3  0  0  0  0  0  0  0  0  0  0
  -28.4397  -22.2613   17.7953 N   0  3  1  0  0  0  0  0  0  0  0  0
  -22.3725  -14.6150   21.0086 O   0  0  0  0  0  0  0  0  0  0  0  0
  -24.4938  -33.0462   22.6954 O   0  0  0  0  0  0  0  0  0  0  0  0
  -21.8213  -30.9252   21.5934 O   0  0  0  0  0  0  0  0  0  0  0  0
  -22.4070  -26.5222   21.8758 O   0  0  0  0  0  0  0  0  0  0  0  0
  -31.6873  -14.6845   22.0585 O   0  0  0  0  0  0  0  0  0  0  0  0
  -21.8497   -6.8721   21.6090 O   0  0  0  0  0  0  0  0  0  0  0  0
  -28.1474  -26.6029   19.9744 O   0  0  0  0  0  0  0  0  0  1  0  0
  -24.2575   -3.1150   24.8480 F   0  0  0  0  0  0  0  0  0  0  0  0
  -20.6231   -6.0053   23.9299 F   0  0  0  0  0  0  0  0  0  0  0  0
  -30.3754  -16.6171   18.5461 Cl  0  0  0  0  0  0  0  0  0  0  0  0
  -28.0608  -21.8010   21.1394 Cl  0  0  0  0  0  0  0  0  0  0  0  0
  1  2  1  0  0  0  0
  1  5  2  0  0  0  0
  2  6  2  0  0  0  0
  3  8  2  0  0  0  0
  3 17  1  0  0  0  0
  4  9  1  0  0  0  0
  4 17  2  0  0  0  0
  5 19  1  0  0  0  0
  6 21  1  0  0  0  0
  7 10  2  0  0  0  0
  7 20  1  0  0  0  0
  8 25  1  0  0  0  0
  9 25  2  0  0  0  0
 10 26  1  0  0  0  0
 11 12  2  0  0  0  0
 11 27  1  0  0  0  0
 12 28  1  0  0  0  0
 13 22  1  0  0  0  0
 13 26  2  0  0  0  0
 14 23  2  0  0  0  0
 14 31  1  0  0  0  0
 15 24  1  0  0  0  0
 15 30  2  0  0  0  0
 16 28  2  0  0  0  0
 16 29  1  0  0  0  0
 17 32  1  0  0  0  0
 18 32  1  0  0  0  0
 18 33  2  0  0  0  0
 18 34  1  0  0  0  0
 19 21  2  0  0  0  0
 19 39  1  0  0  0  0
 20 22  2  0  0  0  0
 20 40  1  0  0  0  0
 21 48  1  0  0  0  0
 22 41  1  0  0  0  0
 23 30  1  0  0  0  0
 23 58  1  0  0  0  0
 24 31  2  0  0  0  0
 24 59  1  0  0  0  0
 25 82  1  0  0  0  0
 26 83  1  0  0  0  0
 27 29  2  0  0  0  0
 27 82  1  0  0  0  0
 28 84  1  0  0  0  0
 29 85  1  0  0  0  0
 30 86  1  0  0  0  0
 31 87  1  0  0  0  0
 32 66  2  0  0  0  0
 33 67  1  0  0  0  0
 33 70  1  0  0  0  0
 34 71  1  0  0  0  0
 34 77  2  0  0  0  0
 35 49  1  0  0  0  0
 35 72  1  0  0  0  0
 35 78  2  0  0  0  0
 36 63  1  0  0  0  0
 36 68  1  0  0  0  0
 36 79  2  0  0  0  0
 37 64  1  0  0  0  0
 37 73  1  0  0  0  0
 37 80  2  0  0  0  0
 38 69  1  0  0  0  0
 38 74  1  0  0  0  0
 38 81  2  0  0  0  0
 39 42  1  0  0  0  0
 40 49  1  0  0  0  0
 41 68  1  0  0  0  0
 42 44  1  0  0  0  0
 43 45  1  0  0  0  0
 43 46  1  0  0  0  0
 44 48  1  0  0  0  0
 45 50  1  0  0  0  0
 46 69  1  0  0  0  0
 47 50  1  0  0  0  0
 47 69  1  0  0  0  0
 48 72  1  0  0  0  0
 49 68  1  0  0  0  0
 50 67  1  0  0  0  0
 51 64  1  0  0  0  0
 52 65  1  0  0  0  0
 53 65  1  0  0  0  0
 54 65  1  0  0  0  0
 55 74  1  0  0  0  0
 56 75  1  0  0  0  0
 57 76  1  0  0  0  0
 58 74  1  0  0  0  0
 59 76  1  0  0  0  0
 60 61  1  0  0  0  0
 60 62  1  0  0  0  0
 61 76  1  0  0  0  0
 62 83  1  0  0  0  0
 63 65  1  0  0  0  0
 63 73  1  0  0  0  0
 64 75  1  0  0  0  0
 66 67  1  0  0  0  0
M  CHG  2  75   1  76   1
M  ISO  4  38 100  62 101  74 100  83 101
M  END
> <Batch ID>
0016

> <Smiles>
CNC(C)C(=O)NC(C(=O)N1Cc2cc([101O:1][101CH2:1]CCN(C)Cc3cc(Cl)c(C[100N:0](C)[100C:0](=O)N4CCCC(n5nc(-c6ccc(Oc7ccc(F)cc7F)cc6)c(C(N)=O)c5N)C4)cc3Cl)ccc2CC1C(=O)NC1CCCc2ccccc21)C(C)(C)C

> <Shape>
0.363

> <Color>
0.227

> <Negative vol penalty>
0.000

$$$$

  -OEChem-04042320573D

 87 96  0     1  0  0  0  0  0999 V2000
  -30.9463  -26.2121   29.5465 C   0  0  0  0  0  0  0  0  0  0  0  0
  -30.5450  -26.0094   28.2300 C   0  0  0  0  0  0  0  0  0  0  0  0
  -23.0458   -9.7590   20.1008 C   0  0  0  0  0  0  0  0  0  0  0  0
  -23.7233  -10.0299   22.4040 C   0  0  0  0  0  0  0  0  0  0  0  0
  -30.1061  -26.8819   30.4350 C   0  0  0  0  0  0  0  0  0  0  0  0
  -29.3026  -26.4755   27.8014 C   0  0  0  0  0  0  0  0  0  0  0  0
  -29.5423  -28.7909   23.3040 C   0  0  0  0  0  0  0  0  0  0  0  0
  -28.3883  -19.8121   19.8970 C   0  0  0  0  0  0  0  0  0  0  0  0
  -29.2363  -18.8804   20.4955 C   0  0  0  0  0  0  0  0  0  0  0  0
  -22.3002   -8.6339   20.4524 C   0  0  0  0  0  0  0  0  0  0  0  0
  -22.9776   -8.9048   22.7556 C   0  0  0  0  0  0  0  0  0  0  0  0
  -29.6197  -27.9791   22.1733 C   0  0  0  0  0  0  0  0  0  0  0  0
  -23.3074   -5.5443   22.5848 C   0  0  0  0  0  0  0  0  0  0  0  0
  -23.9028   -4.6118   23.4342 C   0  0  0  0  0  0  0  0  0  0  0  0
  -27.2582  -28.2925   21.7939 C   0  0  0  0  0  0  0  0  0  0  0  0
  -27.9960  -20.8375   22.0492 C   0  0  0  0  0  0  0  0  0  0  0  0
  -22.1405   -4.9586   25.0502 C   0  0  0  0  0  0  0  0  0  0  0  0
  -23.7574  -10.4570   21.0765 C   0  0  0  0  0  0  0  0  0  0  0  0
  -24.0887  -12.9561   20.6861 C   0  0  0  0  0  0  0  0  0  0  0  0
  -28.8569  -27.3649   30.0145 C   0  0  0  0  0  0  0  0  0  0  0  0
  -28.3180  -29.3518   23.6951 C   0  0  0  0  0  0  0  0  0  0  0  0
  -28.4443  -27.1512   28.6854 C   0  0  0  0  0  0  0  0  0  0  0  0
  -27.1684  -29.1132   22.9286 C   0  0  0  0  0  0  0  0  0  0  0  0
  -27.7682  -20.7908   20.6738 C   0  0  0  0  0  0  0  0  0  0  0  0
  -29.4642  -18.9271   21.8708 C   0  0  0  0  0  0  0  0  0  0  0  0
  -22.2660   -8.2068   21.7798 C   0  0  0  0  0  0  0  0  0  0  0  0
  -28.4770  -27.7274   21.4196 C   0  0  0  0  0  0  0  0  0  0  0  0
  -22.1286   -6.1841   22.9681 C   0  0  0  0  0  0  0  0  0  0  0  0
  -23.3193   -4.3189   24.6669 C   0  0  0  0  0  0  0  0  0  0  0  0
  -28.8441  -19.9057   22.6477 C   0  0  0  0  0  0  0  0  0  0  0  0
  -21.5452   -5.8912   24.2008 C   0  0  0  0  0  0  0  0  0  0  0  0
  -24.5283  -11.6190   20.7138 C   0  0  0  0  0  0  0  0  0  0  0  0
  -25.1888  -13.6708   20.2793 C   0  0  0  0  0  0  0  0  0  0  0  0
  -22.8012  -13.5032   21.0000 C   0  0  0  0  0  0  0  0  0  0  0  0
  -26.4616  -29.1162   26.2646 C   0  0  0  0  0  0  0  0  0  0  0  0
  -30.6741  -14.7029   20.6475 C   0  0  0  0  0  0  0  0  0  0  0  0
  -24.7711  -31.4510   24.7769 C   0  0  0  0  0  0  0  0  0  0  0  0
  -23.9339  -33.0110   21.8593 C   0  0  0  0  0  0  0  0  0  0  0  0
  -27.9631  -28.0415   31.0236 C   0  0  0  0  0  0  0  0  0  0  0  0
  -28.2565  -30.2470   24.9022 C   0  0  0  0  0  0  0  0  0  0  0  0
  -25.8338  -29.7080   23.2944 C   0  0  0  0  0  0  0  0  0  0  0  0
  -26.8213  -28.8333   30.3916 C   0  0  0  0  0  0  0  0  0  0  0  0
  -29.6123  -12.1308   18.3900 C   0  0  0  0  0  0  0  0  0  0  0  0
  -26.1367  -28.0089   29.3060 C   0  0  0  0  0  0  0  0  0  0  0  0
  -28.1689  -11.8572   18.8108 C   0  0  0  0  0  0  0  0  0  0  0  0
  -30.4882  -12.4753   19.5905 C   0  0  0  0  0  0  0  0  0  0  0  0
  -28.5319  -13.3434   20.8318 C   0  0  0  0  0  0  0  0  0  0  0  0
  -28.3116  -23.7587   20.1629 C   0  0  0  0  0  0  0  0  0  0  0  0
  -26.6912  -23.9366   18.8563 C   0  0  0  0  0  0  0  0  0  0  0  0
  -27.1146  -27.6638   28.1763 C   0  0  1  0  0  0  0  0  0  0  0  0
  -26.8567  -30.3482   25.5004 C   0  0  1  0  0  0  0  0  0  0  0  0
  -27.8111  -24.9145   19.2708 C   0  0  0  0  0  0  0  0  0  0  0  0
  -27.6063  -13.0215   19.6452 C   0  0  2  0  0  0  0  0  0  0  0  0
  -22.5003  -34.8621   20.9562 C   0  0  0  0  0  0  0  0  0  0  0  0
  -22.3020  -29.6845   25.0821 C   0  0  0  0  0  0  0  0  0  0  0  0
  -21.1571  -31.1089   23.3708 C   0  0  0  0  0  0  0  0  0  0  0  0
  -21.9081  -32.1138   25.5269 C   0  0  0  0  0  0  0  0  0  0  0  0
  -30.5670  -18.0215   23.9016 C   0  0  0  0  0  0  0  0  0  0  0  0
  -26.2838  -34.4829   20.8246 C   0  0  0  0  0  0  0  0  0  0  0  0
  -26.8562  -21.7931   20.0301 C   0  0  0  0  0  0  0  0  0  0  0  0
  -30.0071  -15.7902   21.4518 C   0  0  0  0  0  0  0  0  0  0  0  0
  -27.3828  -26.1874   19.9750 C   0  0  0  0  0  0  0  0  0  1  0  0
  -30.9589  -16.9553   21.6749 C   0  0  0  0  0  0  0  0  0  0  0  0
  -23.6307  -31.4806   23.7881 C   0  0  1  0  0  0  0  0  0  0  0  0
  -23.8747  -34.4807   21.4839 C   0  0  2  0  0  0  0  0  0  0  0  0
  -22.2741  -31.0840   24.4359 C   0  0  0  0  0  0  0  0  0  0  0  0
  -25.8078  -11.4893   20.3532 N   0  0  0  0  0  0  0  0  0  0  0  0
  -26.1817  -12.7541   20.0950 N   0  0  0  0  0  0  0  0  0  0  0  0
  -25.8237  -30.5714   24.4868 N   0  0  0  0  0  0  0  0  0  0  0  0
  -29.9082  -13.5706   20.3697 N   0  0  0  0  0  0  0  0  0  0  0  0
  -25.3940  -14.9878   20.0648 N   0  0  0  0  0  0  0  0  0  0  0  0
  -21.7831  -12.6276   21.4017 N   0  0  0  0  0  0  0  0  0  0  0  0
  -27.3101  -28.8067   27.3104 N   0  0  0  0  0  0  0  0  0  0  0  0
  -23.6417  -32.8121   23.1921 N   0  0  0  0  0  0  0  0  0  0  0  0
  -30.3221  -17.9837   22.4736 N   0  0  3  0  0  0  0  0  0  0  0  0
  -27.5827  -22.8341   19.2709 N   0  3  0  0  0  0  0  0  0  0  0  0
  -24.8840  -34.7876   20.4313 N   0  3  0  0  0  0  0  0  0  0  0  0
  -22.5559  -14.7301   20.9107 O   0  0  0  0  0  0  0  0  0  0  0  0
  -25.4603  -28.4936   25.9311 O   0  0  0  0  0  0  0  0  0  0  0  0
  -31.8402  -14.8585   20.2756 O   0  0  0  0  0  0  0  0  0  0  0  0
  -24.7327  -32.1866   25.7664 O   0  0  0  0  0  0  0  0  0  0  0  0
  -24.2081  -32.1274   21.0502 O   0  0  0  0  0  0  0  0  0  0  0  0
  -21.5383   -7.1091   22.1233 O   0  0  0  0  0  0  0  0  0  0  0  0
  -28.5497  -26.9348   20.3158 O   0  0  0  0  0  0  0  0  0  1  0  0
  -23.8903   -3.4222   25.4818 F   0  0  0  0  0  0  0  0  0  0  0  0
  -29.0561  -19.9599   23.9703 F   0  0  0  0  0  0  0  0  0  0  0  0
  -20.4121   -6.5017   24.5740 F   0  0  0  0  0  0  0  0  0  0  0  0
  1  2  1  0  0  0  0
  1  5  2  0  0  0  0
  2  6  2  0  0  0  0
  3 10  2  0  0  0  0
  3 18  1  0  0  0  0
  4 11  1  0  0  0  0
  4 18  2  0  0  0  0
  5 20  1  0  0  0  0
  6 22  1  0  0  0  0
  7 12  2  0  0  0  0
  7 21  1  0  0  0  0
  8  9  2  0  0  0  0
  8 24  1  0  0  0  0
  9 25  1  0  0  0  0
 10 26  1  0  0  0  0
 11 26  2  0  0  0  0
 12 27  1  0  0  0  0
 13 14  2  0  0  0  0
 13 28  1  0  0  0  0
 14 29  1  0  0  0  0
 15 23  1  0  0  0  0
 15 27  2  0  0  0  0
 16 24  2  0  0  0  0
 16 30  1  0  0  0  0
 17 29  2  0  0  0  0
 17 31  1  0  0  0  0
 18 32  1  0  0  0  0
 19 32  1  0  0  0  0
 19 33  2  0  0  0  0
 19 34  1  0  0  0  0
 20 22  2  0  0  0  0
 20 39  1  0  0  0  0
 21 23  2  0  0  0  0
 21 40  1  0  0  0  0
 22 50  1  0  0  0  0
 23 41  1  0  0  0  0
 24 60  1  0  0  0  0
 25 30  2  0  0  0  0
 25 75  1  0  0  0  0
 26 83  1  0  0  0  0
 27 84  1  0  0  0  0
 28 31  2  0  0  0  0
 28 83  1  0  0  0  0
 29 85  1  0  0  0  0
 30 86  1  0  0  0  0
 31 87  1  0  0  0  0
 32 67  2  0  0  0  0
 33 68  1  0  0  0  0
 33 71  1  0  0  0  0
 34 72  1  0  0  0  0
 34 78  2  0  0  0  0
 35 51  1  0  0  0  0
 35 73  1  0  0  0  0
 35 79  2  0  0  0  0
 36 61  1  0  0  0  0
 36 70  1  0  0  0  0
 36 80  2  0  0  0  0
 37 64  1  0  0  0  0
 37 69  1  0  0  0  0
 37 81  2  0  0  0  0
 38 65  1  0  0  0  0
 38 74  1  0  0  0  0
 38 82  2  0  0  0  0
 39 42  1  0  0  0  0
 40 51  1  0  0  0  0
 41 69  1  0  0  0  0
 42 44  1  0  0  0  0
 43 45  1  0  0  0  0
 43 46  1  0  0  0  0
 44 50  1  0  0  0  0
 45 53  1  0  0  0  0
 46 70  1  0  0  0  0
 47 53  1  0  0  0  0
 47 70  1  0  0  0  0
 48 52  1  0  0  0  0
 48 76  1  0  0  0  0
 49 52  1  0  0  0  0
 49 76  1  0  0  0  0
 50 73  1  0  0  0  0
 51 69  1  0  0  0  0
 52 62  1  0  0  0  0
 53 68  1  0  0  0  0
 54 65  1  0  0  0  0
 55 66  1  0  0  0  0
 56 66  1  0  0  0  0
 57 66  1  0  0  0  0
 58 75  1  0  0  0  0
 59 77  1  0  0  0  0
 60 76  1  0  0  0  0
 61 63  1  0  0  0  0
 62 84  1  0  0  0  0
 63 75  1  0  0  0  0
 64 66  1  0  0  0  0
 64 74  1  0  0  0  0
 65 77  1  0  0  0  0
 67 68  1  0  0  0  0
M  CHG  2  76   1  77   1
M  ISO  4  36 100  61 100  62 101  84 101
M  END
> <Batch ID>
0016

> <Smiles>
CNC(C)C(=O)NC(C(=O)N1Cc2cc([101O:1][101CH2:1]C3CN(Cc4ccc(N(C)C[100CH2:0][100C:0](=O)N5CCCC(n6nc(-c7ccc(Oc8ccc(F)cc8F)cc7)c(C(N)=O)c6N)C5)c(F)c4)C3)ccc2CC1C(=O)NC1CCCc2ccccc21)C(C)(C)C

> <Shape>
0.306

> <Color>
0.208

> <Negative vol penalty>
0.000

$$$$

  -OEChem-04042320573D

 84 92  0     1  0  0  0  0  0999 V2000
  -39.8173  -27.5812   21.7671 C   0  0  0  0  0  0  0  0  0  0  0  0
  -38.8081  -27.0230   20.9891 C   0  0  0  0  0  0  0  0  0  0  0  0
  -23.0741   -9.8788   19.9535 C   0  0  0  0  0  0  0  0  0  0  0  0
  -23.7533   -9.9483   22.2710 C   0  0  0  0  0  0  0  0  0  0  0  0
  -41.0733  -26.9778   21.8153 C   0  0  0  0  0  0  0  0  0  0  0  0
  -39.0547  -25.8616   20.2578 C   0  0  0  0  0  0  0  0  0  0  0  0
  -35.3074  -22.4793   20.6616 C   0  0  0  0  0  0  0  0  0  0  0  0
  -30.0474  -17.6448   18.9985 C   0  0  0  0  0  0  0  0  0  0  0  0
  -30.3111  -18.8466   18.3415 C   0  0  0  0  0  0  0  0  0  0  0  0
  -22.3252   -8.7297   20.2075 C   0  0  0  0  0  0  0  0  0  0  0  0
  -23.0044   -8.7993   22.5250 C   0  0  0  0  0  0  0  0  0  0  0  0
  -34.1607  -22.7057   19.9016 C   0  0  0  0  0  0  0  0  0  0  0  0
  -23.3240   -5.4650   22.0653 C   0  0  0  0  0  0  0  0  0  0  0  0
  -23.9170   -4.4611   22.8308 C   0  0  0  0  0  0  0  0  0  0  0  0
  -34.9325  -21.1043   18.2710 C   0  0  0  0  0  0  0  0  0  0  0  0
  -29.0355  -18.8639   20.8224 C   0  0  0  0  0  0  0  0  0  0  0  0
  -22.1565   -4.6727   24.4719 C   0  0  0  0  0  0  0  0  0  0  0  0
  -23.7882  -10.4880   20.9853 C   0  0  0  0  0  0  0  0  0  0  0  0
  -24.1269  -13.0105   20.8112 C   0  0  0  0  0  0  0  0  0  0  0  0
  -41.3325  -25.8030   21.0919 C   0  0  0  0  0  0  0  0  0  0  0  0
  -36.2821  -21.5702   20.2258 C   0  0  0  0  0  0  0  0  0  0  0  0
  -40.3157  -25.2426   20.2953 C   0  0  0  0  0  0  0  0  0  0  0  0
  -36.0895  -20.8662   19.0285 C   0  0  0  0  0  0  0  0  0  0  0  0
  -29.4095  -17.6534   20.2390 C   0  0  0  0  0  0  0  0  0  0  0  0
  -29.9371  -20.0571   18.9249 C   0  0  0  0  0  0  0  0  0  0  0  0
  -22.2903   -8.1900   21.4932 C   0  0  0  0  0  0  0  0  0  0  0  0
  -33.9745  -22.0203   18.7046 C   0  0  0  0  0  0  0  0  0  0  0  0
  -22.1474   -6.0729   22.5030 C   0  0  0  0  0  0  0  0  0  0  0  0
  -23.3332   -4.0649   24.0341 C   0  0  0  0  0  0  0  0  0  0  0  0
  -29.2993  -20.0658   20.1654 C   0  0  0  0  0  0  0  0  0  0  0  0
  -21.5636   -5.6767   23.7063 C   0  0  0  0  0  0  0  0  0  0  0  0
  -24.5625  -11.6747   20.7234 C   0  0  0  0  0  0  0  0  0  0  0  0
  -25.2289  -13.7543   20.4667 C   0  0  0  0  0  0  0  0  0  0  0  0
  -22.8411  -13.5323   21.1719 C   0  0  0  0  0  0  0  0  0  0  0  0
  -39.3498  -21.7848   19.4217 C   0  0  0  0  0  0  0  0  0  0  0  0
  -39.1278  -18.5533   19.2468 C   0  0  0  0  0  0  0  0  0  0  0  0
  -37.1514  -15.8039   18.8205 C   0  0  0  0  0  0  0  0  0  0  0  0
  -30.8078  -14.5040   21.2610 C   0  0  0  0  0  0  0  0  0  0  0  0
  -42.7199  -25.2133   21.1380 C   0  0  0  0  0  0  0  0  0  0  0  0
  -37.5008  -21.3175   21.0704 C   0  0  0  0  0  0  0  0  0  0  0  0
  -37.0962  -19.8647   18.5267 C   0  0  0  0  0  0  0  0  0  0  0  0
  -42.7879  -23.7758   20.6290 C   0  0  0  0  0  0  0  0  0  0  0  0
  -29.6528  -12.3813   18.4570 C   0  0  0  0  0  0  0  0  0  0  0  0
  -42.0220  -23.6371   19.3172 C   0  0  0  0  0  0  0  0  0  0  0  0
  -28.2108  -12.0656   18.8504 C   0  0  0  0  0  0  0  0  0  0  0  0
  -30.5325  -12.6300   19.6785 C   0  0  0  0  0  0  0  0  0  0  0  0
  -28.5673  -13.3648   20.9871 C   0  0  0  0  0  0  0  0  0  0  0  0
  -40.5371  -23.9697   19.5075 C   0  0  1  0  0  0  0  0  0  0  0  0
  -38.6721  -20.7500   20.2747 C   0  0  1  0  0  0  0  0  0  0  0  0
  -27.6440  -13.1548   19.7776 C   0  0  2  0  0  0  0  0  0  0  0  0
  -37.2611  -13.3003   18.6890 C   0  0  0  0  0  0  0  0  0  0  0  0
  -40.2580  -18.7537   16.4198 C   0  0  0  0  0  0  0  0  0  0  0  0
  -39.4648  -16.4144   16.0117 C   0  0  0  0  0  0  0  0  0  0  0  0
  -41.1705  -16.8612   17.7764 C   0  0  0  0  0  0  0  0  0  0  0  0
  -29.8129  -22.5353   18.8710 C   0  0  0  0  0  0  0  0  0  0  0  0
  -31.1837  -16.7285   22.2558 C   0  0  0  0  0  0  0  0  0  0  0  0
  -35.3898  -15.4871   21.1775 C   0  0  0  0  0  0  0  0  0  0  0  0
  -29.1274  -16.3685   20.9414 C   0  0  0  0  0  0  0  0  0  0  0  0
  -30.8746  -21.2869   16.9836 C   0  0  0  0  0  0  0  0  0  0  0  0
  -32.3762  -21.1511   17.1730 C   0  0  0  0  0  0  0  0  0  1  0  0
  -38.7727  -17.5631   18.1640 C   0  0  1  0  0  0  0  0  0  0  0  0
  -37.0545  -14.5029   19.5967 C   0  0  2  0  0  0  0  0  0  0  0  0
  -39.8983  -17.4183   17.1012 C   0  0  0  0  0  0  0  0  0  0  0  0
  -25.8414  -11.5727   20.3522 N   0  0  0  0  0  0  0  0  0  0  0  0
  -26.2189  -12.8539   20.2035 N   0  0  0  0  0  0  0  0  0  0  0  0
  -38.2743  -19.6571   19.3849 N   0  0  0  0  0  0  0  0  0  0  0  0
  -29.9489  -13.6382   20.5642 N   0  0  0  0  0  0  0  0  0  0  0  0
  -25.4380  -15.0842   20.3663 N   0  0  0  0  0  0  0  0  0  0  0  0
  -21.8206  -12.6284   21.4974 N   0  0  0  0  0  0  0  0  0  0  0  0
  -39.8468  -22.8613   20.1314 N   0  0  0  0  0  0  0  0  0  0  0  0
  -38.4302  -16.3191   18.8448 N   0  0  0  0  0  0  0  0  0  0  0  0
  -30.2033  -21.2630   18.2629 N   0  0  3  0  0  0  0  0  0  0  0  0
  -30.3259  -15.7906   21.5455 N   0  0  0  0  0  0  0  0  0  0  0  0
  -35.7155  -14.3819   20.2397 N   0  3  0  0  0  0  0  0  0  0  0  0
  -22.5995  -14.7631   21.1888 O   0  0  0  0  0  0  0  0  0  0  0  0
  -39.4182  -21.6182   18.2095 O   0  0  0  0  0  0  0  0  0  0  0  0
  -40.1215  -18.3510   19.9491 O   0  0  0  0  0  0  0  0  0  0  0  0
  -36.1898  -16.3104   18.2466 O   0  0  0  0  0  0  0  0  0  0  0  0
  -31.9443  -14.1504   21.6005 O   0  0  0  0  0  0  0  0  0  0  0  0
  -21.5595   -7.0690   21.7414 O   0  0  0  0  0  0  0  0  0  0  0  0
  -32.8564  -22.2399   17.9606 O   0  0  0  0  0  0  0  0  0  1  0  0
  -23.9018   -3.0997   24.7684 F   0  0  0  0  0  0  0  0  0  0  0  0
  -28.9354  -21.2234   20.7353 F   0  0  0  0  0  0  0  0  0  0  0  0
  -20.4325   -6.2562   24.1314 F   0  0  0  0  0  0  0  0  0  0  0  0
  1  2  1  0  0  0  0
  1  5  2  0  0  0  0
  2  6  2  0  0  0  0
  3 10  2  0  0  0  0
  3 18  1  0  0  0  0
  4 11  1  0  0  0  0
  4 18  2  0  0  0  0
  5 20  1  0  0  0  0
  6 22  1  0  0  0  0
  7 12  2  0  0  0  0
  7 21  1  0  0  0  0
  8  9  2  0  0  0  0
  8 24  1  0  0  0  0
  9 25  1  0  0  0  0
 10 26  1  0  0  0  0
 11 26  2  0  0  0  0
 12 27  1  0  0  0  0
 13 14  2  0  0  0  0
 13 28  1  0  0  0  0
 14 29  1  0  0  0  0
 15 23  1  0  0  0  0
 15 27  2  0  0  0  0
 16 24  2  0  0  0  0
 16 30  1  0  0  0  0
 17 29  2  0  0  0  0
 17 31  1  0  0  0  0
 18 32  1  0  0  0  0
 19 32  1  0  0  0  0
 19 33  2  0  0  0  0
 19 34  1  0  0  0  0
 20 22  2  0  0  0  0
 20 39  1  0  0  0  0
 21 23  2  0  0  0  0
 21 40  1  0  0  0  0
 22 48  1  0  0  0  0
 23 41  1  0  0  0  0
 24 58  1  0  0  0  0
 25 30  2  0  0  0  0
 25 72  1  0  0  0  0
 26 80  1  0  0  0  0
 27 81  1  0  0  0  0
 28 31  2  0  0  0  0
 28 80  1  0  0  0  0
 29 82  1  0  0  0  0
 30 83  1  0  0  0  0
 31 84  1  0  0  0  0
 32 64  2  0  0  0  0
 33 65  1  0  0  0  0
 33 68  1  0  0  0  0
 34 69  1  0  0  0  0
 34 75  2  0  0  0  0
 35 49  1  0  0  0  0
 35 70  1  0  0  0  0
 35 76  2  0  0  0  0
 36 61  1  0  0  0  0
 36 66  1  0  0  0  0
 36 77  2  0  0  0  0
 37 62  1  0  0  0  0
 37 71  1  0  0  0  0
 37 78  2  0  0  0  0
 38 67  1  0  0  0  0
 38 73  1  0  0  0  0
 38 79  2  0  0  0  0
 39 42  1  0  0  0  0
 40 49  1  0  0  0  0
 41 66  1  0  0  0  0
 42 44  1  0  0  0  0
 43 45  1  0  0  0  0
 43 46  1  0  0  0  0
 44 48  1  0  0  0  0
 45 50  1  0  0  0  0
 46 67  1  0  0  0  0
 47 50  1  0  0  0  0
 47 67  1  0  0  0  0
 48 70  1  0  0  0  0
 49 66  1  0  0  0  0
 50 65  1  0  0  0  0
 51 62  1  0  0  0  0
 52 63  1  0  0  0  0
 53 63  1  0  0  0  0
 54 63  1  0  0  0  0
 55 72  1  0  0  0  0
 56 73  1  0  0  0  0
 57 74  1  0  0  0  0
 58 73  1  0  0  0  0
 59 60  1  0  0  0  0
 59 72  1  0  0  0  0
 60 81  1  0  0  0  0
 61 63  1  0  0  0  0
 61 71  1  0  0  0  0
 62 74  1  0  0  0  0
 64 65  1  0  0  0  0
M  CHG  1  74   1
M  ISO  4  38 100  60 101  73 100  81 101
M  END
> <Batch ID>
0016

> <Smiles>
CNC(C)C(=O)NC(C(=O)N1Cc2cc([101O:1][101CH2:1]CN(C)c3ccc(C[100N:0](C)[100C:0](=O)N4CCCC(n5nc(-c6ccc(Oc7ccc(F)cc7F)cc6)c(C(N)=O)c5N)C4)cc3F)ccc2CC1C(=O)NC1CCCc2ccccc21)C(C)(C)C

> <Shape>
0.216

> <Color>
0.189

> <Negative vol penalty>
0.000

$$$$

  -OEChem-04042320573D

 91 99  0     1  0  0  0  0  0999 V2000
  -28.0768  -20.6765   18.4961 C   0  0  0  0  0  0  0  0  0  0  0  0
  -27.7867  -20.2902   19.8008 C   0  0  0  0  0  0  0  0  0  0  0  0
  -22.5557  -29.4216   21.8232 C   0  0  0  0  0  0  0  0  0  0  0  0
  -23.4125  -28.3017   23.7851 C   0  0  0  0  0  0  0  0  0  0  0  0
  -27.5992  -19.9229   17.4247 C   0  0  0  0  0  0  0  0  0  0  0  0
  -27.0177  -19.1507   20.0347 C   0  0  0  0  0  0  0  0  0  0  0  0
  -28.9353  -16.2323   23.7022 C   0  0  0  0  0  0  0  0  0  0  0  0
  -25.6349  -20.7456   23.7586 C   0  0  0  0  0  0  0  0  0  0  0  0
  -21.2683  -28.9859   22.1367 C   0  0  0  0  0  0  0  0  0  0  0  0
  -22.1250  -27.8661   24.0986 C   0  0  0  0  0  0  0  0  0  0  0  0
  -28.7194  -16.6393   25.0181 C   0  0  0  0  0  0  0  0  0  0  0  0
  -25.2186  -19.8348   24.7295 C   0  0  0  0  0  0  0  0  0  0  0  0
  -18.7929  -29.8595   24.2680 C   0  0  0  0  0  0  0  0  0  0  0  0
  -17.7548  -30.7865   24.1770 C   0  0  0  0  0  0  0  0  0  0  0  0
  -26.9138  -15.0508   25.2068 C   0  0  0  0  0  0  0  0  0  0  0  0
  -26.5196  -21.0113   26.3910 C   0  0  0  0  0  0  0  0  0  0  0  0
  -16.6618  -29.4005   22.5273 C   0  0  0  0  0  0  0  0  0  0  0  0
  -23.6278  -29.0794   22.6473 C   0  0  0  0  0  0  0  0  0  0  0  0
  -25.5755  -30.7244   22.7369 C   0  0  0  0  0  0  0  0  0  0  0  0
  -26.8322  -18.7682   17.6458 C   0  0  0  0  0  0  0  0  0  0  0  0
  -28.1336  -15.2375   23.1242 C   0  0  0  0  0  0  0  0  0  0  0  0
  -26.5283  -18.3818   18.9652 C   0  0  0  0  0  0  0  0  0  0  0  0
  -27.1232  -14.6312   23.8842 C   0  0  0  0  0  0  0  0  0  0  0  0
  -26.4936  -21.7892   24.1038 C   0  0  0  0  0  0  0  0  0  0  0  0
  -21.0529  -28.2082   23.2744 C   0  0  0  0  0  0  0  0  0  0  0  0
  -27.7067  -16.0506   25.7697 C   0  0  0  0  0  0  0  0  0  0  0  0
  -25.6609  -19.9677   26.0457 C   0  0  0  0  0  0  0  0  0  0  0  0
  -18.7656  -28.7029   23.4887 C   0  0  0  0  0  0  0  0  0  0  0  0
  -16.6892  -30.5570   23.3067 C   0  0  0  0  0  0  0  0  0  0  0  0
  -26.9359  -21.9221   25.4200 C   0  0  0  0  0  0  0  0  0  0  0  0
  -17.7000  -28.4734   22.6184 C   0  0  0  0  0  0  0  0  0  0  0  0
  -24.9581  -29.5287   22.3237 C   0  0  0  0  0  0  0  0  0  0  0  0
  -26.8246  -30.6804   22.1673 C   0  0  0  0  0  0  0  0  0  0  0  0
  -25.0657  -31.7805   23.5618 C   0  0  0  0  0  0  0  0  0  0  0  0
  -26.1300  -15.1223   20.6592 C   0  0  0  0  0  0  0  0  0  0  0  0
  -26.0594  -11.9570   21.3651 C   0  0  0  0  0  0  0  0  0  0  0  0
  -26.4879   -9.4972   23.6917 C   0  0  0  0  0  0  0  0  0  0  0  0
  -29.9591  -25.7823   20.2381 C   0  0  0  0  0  0  0  0  0  0  0  0
  -26.2982  -18.0124   16.4549 C   0  0  0  0  0  0  0  0  0  0  0  0
  -28.3966  -14.7909   21.7122 C   0  0  0  0  0  0  0  0  0  0  0  0
  -26.2480  -13.5446   23.3169 C   0  0  0  0  0  0  0  0  0  0  0  0
  -25.8053  -16.6084   16.7956 C   0  0  0  0  0  0  0  0  0  0  0  0
  -29.1780  -28.9031   18.4073 C   0  0  0  0  0  0  0  0  0  0  0  0
  -24.9290  -16.6385   18.0438 C   0  0  0  0  0  0  0  0  0  0  0  0
  -28.0094  -29.4754   19.2079 C   0  0  0  0  0  0  0  0  0  0  0  0
  -29.2391  -27.3816   18.5017 C   0  0  0  0  0  0  0  0  0  0  0  0
  -28.1040  -27.4377   20.6977 C   0  0  0  0  0  0  0  0  0  0  0  0
  -25.7182  -17.1381   19.2600 C   0  0  1  0  0  0  0  0  0  0  0  0
  -27.1861  -14.1311   21.0590 C   0  0  1  0  0  0  0  0  0  0  0  0
  -28.0416  -28.9721   20.6615 C   0  0  2  0  0  0  0  0  0  0  0  0
  -32.0964  -24.5677   22.4131 C   0  0  0  0  0  0  0  0  0  0  0  0
  -26.3201   -7.0104   23.9829 C   0  0  0  0  0  0  0  0  0  0  0  0
  -27.7476  -26.5239   24.5385 C   0  0  0  0  0  0  0  0  0  0  0  0
  -23.0184  -12.1782   21.4802 C   0  0  0  0  0  0  0  0  0  0  0  0
  -22.9734   -9.9797   22.6772 C   0  0  0  0  0  0  0  0  0  0  0  0
  -23.8724  -10.1149   20.3542 C   0  0  0  0  0  0  0  0  0  0  0  0
  -29.3628   -9.2642   24.3546 C   0  0  0  0  0  0  0  0  0  0  0  0
  -24.8526  -24.0558   22.6351 C   0  0  0  0  0  0  0  0  0  0  0  0
  -26.9363  -22.7614   23.0632 C   0  0  0  0  0  0  0  0  0  0  0  0
  -25.9272  -17.4170   28.6118 C   0  0  0  0  0  0  0  0  0  0  0  0
  -30.6853  -24.2095   21.9927 C   0  0  0  0  0  0  0  0  0  0  0  0
  -29.4260  -26.2187   22.6729 C   0  0  0  0  0  0  0  0  0  0  0  0
  -27.0669  -25.1907   22.5320 C   0  0  0  0  0  0  0  0  0  0  0  0
  -26.1581  -16.3544   27.5489 C   0  0  0  0  0  0  0  0  0  1  0  0
  -26.1499  -18.8206   28.0708 C   0  0  0  0  0  0  0  0  0  0  0  0
  -25.2202  -11.0804   22.2630 C   0  0  1  0  0  0  0  0  0  0  0  0
  -27.2330   -8.1758   23.6349 C   0  0  2  0  0  0  0  0  0  0  0  0
  -28.2446  -25.5902   23.4296 C   0  0  2  0  0  0  0  0  0  0  0  0
  -23.7862  -10.8601   21.7040 C   0  0  0  0  0  0  0  0  0  0  0  0
  -25.7496  -28.7798   21.5512 N   0  0  0  0  0  0  0  0  0  0  0  0
  -26.8772  -29.5069   21.4743 N   0  0  0  0  0  0  0  0  0  0  0  0
  -26.5402  -13.1469   21.9299 N   0  0  0  0  0  0  0  0  0  0  0  0
  -29.2248  -26.9289   19.8931 N   0  0  0  0  0  0  0  0  0  0  0  0
  -27.8721  -31.5315   22.1966 N   0  0  0  0  0  0  0  0  0  0  0  0
  -23.7624  -31.6657   24.0645 N   0  0  0  0  0  0  0  0  0  0  0  0
  -26.5709  -16.0883   19.7750 N   0  0  0  0  0  0  0  0  0  0  0  0
  -25.9804   -9.8507   22.4593 N   0  0  0  0  0  0  0  0  0  0  0  0
  -29.9305  -25.3854   21.5836 N   0  0  0  0  0  0  0  0  0  0  0  0
  -28.3732   -8.1824   24.5945 N   0  3  0  0  0  0  0  0  0  0  0  0
  -26.2626  -24.0853   23.1663 N   0  3  1  0  0  0  0  0  0  0  0  0
  -25.7397  -32.8035   23.8313 O   0  0  0  0  0  0  0  0  0  0  0  0
  -24.9985  -15.0176   21.1179 O   0  0  0  0  0  0  0  0  0  0  0  0
  -26.2862  -11.5958   20.2077 O   0  0  0  0  0  0  0  0  0  0  0  0
  -26.3650  -10.1487   24.7265 O   0  0  0  0  0  0  0  0  0  0  0  0
  -30.6112  -25.1550   19.3936 O   0  0  0  0  0  0  0  0  0  0  0  0
  -19.7967  -27.7831   23.5808 O   0  0  0  0  0  0  0  0  0  0  0  0
  -27.4934  -16.4464   27.0541 O   0  0  0  0  0  0  0  0  0  1  0  0
  -25.2506  -19.0731   26.9997 O   0  0  0  0  0  0  0  0  0  0  0  0
  -15.6915  -31.4466   23.2205 F   0  0  0  0  0  0  0  0  0  0  0  0
  -27.7622  -22.9210   25.7607 F   0  0  0  0  0  0  0  0  0  0  0  0
  -17.6676  -27.3636   21.8680 F   0  0  0  0  0  0  0  0  0  0  0  0
  1  2  1  0  0  0  0
  1  5  2  0  0  0  0
  2  6  2  0  0  0  0
  3  9  2  0  0  0  0
  3 18  1  0  0  0  0
  4 10  1  0  0  0  0
  4 18  2  0  0  0  0
  5 20  1  0  0  0  0
  6 22  1  0  0  0  0
  7 11  2  0  0  0  0
  7 21  1  0  0  0  0
  8 12  2  0  0  0  0
  8 24  1  0  0  0  0
  9 25  1  0  0  0  0
 10 25  2  0  0  0  0
 11 26  1  0  0  0  0
 12 27  1  0  0  0  0
 13 14  2  0  0  0  0
 13 28  1  0  0  0  0
 14 29  1  0  0  0  0
 15 23  1  0  0  0  0
 15 26  2  0  0  0  0
 16 27  2  0  0  0  0
 16 30  1  0  0  0  0
 17 29  2  0  0  0  0
 17 31  1  0  0  0  0
 18 32  1  0  0  0  0
 19 32  1  0  0  0  0
 19 33  2  0  0  0  0
 19 34  1  0  0  0  0
 20 22  2  0  0  0  0
 20 39  1  0  0  0  0
 21 23  2  0  0  0  0
 21 40  1  0  0  0  0
 22 48  1  0  0  0  0
 23 41  1  0  0  0  0
 24 30  2  0  0  0  0
 24 59  1  0  0  0  0
 25 86  1  0  0  0  0
 26 87  1  0  0  0  0
 27 88  1  0  0  0  0
 28 31  2  0  0  0  0
 28 86  1  0  0  0  0
 29 89  1  0  0  0  0
 30 90  1  0  0  0  0
 31 91  1  0  0  0  0
 32 70  2  0  0  0  0
 33 71  1  0  0  0  0
 33 74  1  0  0  0  0
 34 75  1  0  0  0  0
 34 81  2  0  0  0  0
 35 49  1  0  0  0  0
 35 76  1  0  0  0  0
 35 82  2  0  0  0  0
 36 66  1  0  0  0  0
 36 72  1  0  0  0  0
 36 83  2  0  0  0  0
 37 67  1  0  0  0  0
 37 77  1  0  0  0  0
 37 84  2  0  0  0  0
 38 73  1  0  0  0  0
 38 78  1  0  0  0  0
 38 85  2  0  0  0  0
 39 42  1  0  0  0  0
 40 49  1  0  0  0  0
 41 72  1  0  0  0  0
 42 44  1  0  0  0  0
 43 45  1  0  0  0  0
 43 46  1  0  0  0  0
 44 48  1  0  0  0  0
 45 50  1  0  0  0  0
 46 73  1  0  0  0  0
 47 50  1  0  0  0  0
 47 73  1  0  0  0  0
 48 76  1  0  0  0  0
 49 72  1  0  0  0  0
 50 71  1  0  0  0  0
 51 61  1  0  0  0  0
 52 67  1  0  0  0  0
 53 68  1  0  0  0  0
 54 69  1  0  0  0  0
 55 69  1  0  0  0  0
 56 69  1  0  0  0  0
 57 79  1  0  0  0  0
 58 80  1  0  0  0  0
 59 80  1  0  0  0  0
 60 64  1  0  0  0  0
 60 65  1  0  0  0  0
 61 78  1  0  0  0  0
 62 68  1  0  0  0  0
 62 78  1  0  0  0  0
 63 68  1  0  0  0  0
 63 80  1  0  0  0  0
 64 87  1  0  0  0  0
 65 88  1  0  0  0  0
 66 69  1  0  0  0  0
 66 77  1  0  0  0  0
 67 79  1  0  0  0  0
 70 71  1  0  0  0  0
M  CHG  2  79   1  80   1
M  ISO  4  38 100  64 101  78 100  87 101
M  END
> <Batch ID>
0016

> <Smiles>
CC[100N:0](CC(C)CN(C)Cc1ccc(OCC[101CH2:1][101O:1]c2ccc3c(c2)CN(C(=O)C(NC(=O)C(C)NC)C(C)(C)C)C(C(=O)NC2CCCc4ccccc42)C3)cc1F)[100C:0](=O)N1CCCC(n2nc(-c3ccc(Oc4ccc(F)cc4F)cc3)c(C(N)=O)c2N)C1

> <Shape>
0.224

> <Color>
0.061

> <Negative vol penalty>
0.000

$$$$

  -OEChem-04042320573D

 85 93  0     1  0  0  0  0  0999 V2000
  -25.4692  -28.4521   30.3853 C   0  0  0  0  0  0  0  0  0  0  0  0
  -26.5377  -27.7755   29.8056 C   0  0  0  0  0  0  0  0  0  0  0  0
  -23.2007   -9.7857   20.3137 C   0  0  0  0  0  0  0  0  0  0  0  0
  -24.1170  -10.0843   22.5292 C   0  0  0  0  0  0  0  0  0  0  0  0
  -24.3969  -28.8659   29.5960 C   0  0  0  0  0  0  0  0  0  0  0  0
  -26.5339  -27.5113   28.4364 C   0  0  0  0  0  0  0  0  0  0  0  0
  -30.9863  -26.8804   22.8602 C   0  0  0  0  0  0  0  0  0  0  0  0
  -28.6585  -19.1128   19.8182 C   0  0  0  0  0  0  0  0  0  0  0  0
  -28.7770  -20.2677   19.0451 C   0  0  0  0  0  0  0  0  0  0  0  0
  -22.5550   -8.6242   20.7373 C   0  0  0  0  0  0  0  0  0  0  0  0
  -23.4712   -8.9228   22.9528 C   0  0  0  0  0  0  0  0  0  0  0  0
  -31.3026  -25.9970   21.8290 C   0  0  0  0  0  0  0  0  0  0  0  0
  -20.3537   -8.0049   23.8798 C   0  0  0  0  0  0  0  0  0  0  0  0
  -19.6849   -8.0465   25.1031 C   0  0  0  0  0  0  0  0  0  0  0  0
  -29.4334  -26.8291   20.5511 C   0  0  0  0  0  0  0  0  0  0  0  0
  -29.5436  -17.8002   17.9932 C   0  0  0  0  0  0  0  0  0  0  0  0
  -21.1016   -6.2763   25.9378 C   0  0  0  0  0  0  0  0  0  0  0  0
  -23.9818  -10.5157   21.2096 C   0  0  0  0  0  0  0  0  0  0  0  0
  -24.1447  -13.0291   20.8045 C   0  0  0  0  0  0  0  0  0  0  0  0
  -24.3845  -28.6151   28.2149 C   0  0  0  0  0  0  0  0  0  0  0  0
  -29.8829  -27.7386   22.7489 C   0  0  0  0  0  0  0  0  0  0  0  0
  -25.4598  -27.9209   27.6282 C   0  0  0  0  0  0  0  0  0  0  0  0
  -29.1068  -27.7243   21.5812 C   0  0  0  0  0  0  0  0  0  0  0  0
  -29.0419  -17.8790   19.2923 C   0  0  0  0  0  0  0  0  0  0  0  0
  -29.2787  -20.1889   17.7460 C   0  0  0  0  0  0  0  0  0  0  0  0
  -22.6902   -8.1927   22.0568 C   0  0  0  0  0  0  0  0  0  0  0  0
  -30.5244  -25.9692   20.6754 C   0  0  0  0  0  0  0  0  0  0  0  0
  -21.3964   -7.0990   23.6854 C   0  0  0  0  0  0  0  0  0  0  0  0
  -20.0588   -7.1822   26.1321 C   0  0  0  0  0  0  0  0  0  0  0  0
  -29.6620  -18.9552   17.2200 C   0  0  0  0  0  0  0  0  0  0  0  0
  -21.7704   -6.2347   24.7144 C   0  0  0  0  0  0  0  0  0  0  0  0
  -24.6496  -11.7154   20.7725 C   0  0  0  0  0  0  0  0  0  0  0  0
  -25.1562  -13.7984   20.2834 C   0  0  0  0  0  0  0  0  0  0  0  0
  -22.8750  -13.5109   21.2642 C   0  0  0  0  0  0  0  0  0  0  0  0
  -27.1691  -28.1234   24.3586 C   0  0  0  0  0  0  0  0  0  0  0  0
  -26.8214  -30.6813   22.3944 C   0  0  0  0  0  0  0  0  0  0  0  0
  -27.6048  -32.1890   19.4346 C   0  0  0  0  0  0  0  0  0  0  0  0
  -30.7314  -14.9038   20.3934 C   0  0  0  0  0  0  0  0  0  0  0  0
  -23.1814  -29.0400   27.4107 C   0  0  0  0  0  0  0  0  0  0  0  0
  -29.5710  -28.7044   23.8590 C   0  0  0  0  0  0  0  0  0  0  0  0
  -27.9238  -28.6395   21.4039 C   0  0  0  0  0  0  0  0  0  0  0  0
  -23.4286  -29.0511   25.9044 C   0  0  0  0  0  0  0  0  0  0  0  0
  -29.4171  -12.4966   17.9075 C   0  0  0  0  0  0  0  0  0  0  0  0
  -24.1322  -27.7695   25.4695 C   0  0  0  0  0  0  0  0  0  0  0  0
  -28.0472  -12.1394   18.4817 C   0  0  0  0  0  0  0  0  0  0  0  0
  -30.4047  -12.8923   19.0010 C   0  0  0  0  0  0  0  0  0  0  0  0
  -28.5485  -13.6296   20.4587 C   0  0  0  0  0  0  0  0  0  0  0  0
  -25.5038  -27.6376   26.1423 C   0  0  1  0  0  0  0  0  0  0  0  0
  -28.1189  -29.1724   23.8535 C   0  0  1  0  0  0  0  0  0  0  0  0
  -27.5165  -13.2710   19.3790 C   0  0  2  0  0  0  0  0  0  0  0  0
  -27.1377  -34.2580   18.0936 C   0  0  0  0  0  0  0  0  0  0  0  0
  -24.0830  -29.5691   21.6367 C   0  0  0  0  0  0  0  0  0  0  0  0
  -24.0862  -31.1008   19.6562 C   0  0  0  0  0  0  0  0  0  0  0  0
  -24.1483  -32.0477   21.9632 C   0  0  0  0  0  0  0  0  0  0  0  0
  -29.9232  -21.2702   15.6069 C   0  0  0  0  0  0  0  0  0  0  0  0
  -31.0738  -17.2204   21.1653 C   0  0  0  0  0  0  0  0  0  0  0  0
  -30.4528  -32.9931   19.4670 C   0  0  0  0  0  0  0  0  0  0  0  0
  -28.9154  -16.6443   20.1189 C   0  0  0  0  0  0  0  0  0  0  0  0
  -30.1002  -23.2479   18.3381 C   0  0  0  0  0  0  0  0  0  0  0  0
  -28.9963  -22.6405   17.4809 C   0  0  0  0  0  0  0  0  0  0  0  0
  -29.7483  -24.6331   18.8676 C   0  0  0  0  0  0  0  0  0  1  0  0
  -26.2061  -30.9094   21.0348 C   0  0  1  0  0  0  0  0  0  0  0  0
  -28.0565  -33.6021   19.1126 C   0  0  2  0  0  0  0  0  0  0  0  0
  -24.6520  -30.8880   21.0766 C   0  0  0  0  0  0  0  0  0  0  0  0
  -25.8856  -11.6501   20.2706 N   0  0  0  0  0  0  0  0  0  0  0  0
  -26.1659  -12.9324   19.9824 N   0  0  0  0  0  0  0  0  0  0  0  0
  -27.6555  -29.5614   22.5200 N   0  0  0  0  0  0  0  0  0  0  0  0
  -29.8580  -13.9389   19.8653 N   0  0  0  0  0  0  0  0  0  0  0  0
  -25.2714  -15.1244   20.0578 N   0  0  0  0  0  0  0  0  0  0  0  0
  -21.9522  -12.5851   21.7698 N   0  0  0  0  0  0  0  0  0  0  0  0
  -26.4707  -28.4954   25.4914 N   0  0  0  0  0  0  0  0  0  0  0  0
  -26.7733  -32.1568   20.5341 N   0  0  0  0  0  0  0  0  0  0  0  0
  -29.3967  -21.3514   16.9708 N   0  0  3  0  0  0  0  0  0  0  0  0
  -30.2045  -16.1827   20.6292 N   0  0  0  0  0  0  0  0  0  0  0  0
  -29.4400  -33.5900   18.5587 N   0  3  0  0  0  0  0  0  0  0  0  0
  -22.5615  -14.7245   21.2124 O   0  0  0  0  0  0  0  0  0  0  0  0
  -27.0757  -27.0561   23.7638 O   0  0  0  0  0  0  0  0  0  0  0  0
  -26.5768  -31.4718   23.3092 O   0  0  0  0  0  0  0  0  0  0  0  0
  -27.9516  -31.2121   18.7745 O   0  0  0  0  0  0  0  0  0  0  0  0
  -31.9171  -14.6401   20.6311 O   0  0  0  0  0  0  0  0  0  0  0  0
  -22.0600   -7.0595   22.4706 O   0  0  0  0  0  0  0  0  0  0  0  0
  -30.8305  -25.1075   19.6677 O   0  0  0  0  0  0  0  0  0  1  0  0
  -19.4175   -7.2233   27.3074 F   0  0  0  0  0  0  0  0  0  0  0  0
  -30.1456  -18.8679   15.9727 F   0  0  0  0  0  0  0  0  0  0  0  0
  -22.7721   -5.3631   24.5340 F   0  0  0  0  0  0  0  0  0  0  0  0
  1  2  1  0  0  0  0
  1  5  2  0  0  0  0
  2  6  2  0  0  0  0
  3 10  2  0  0  0  0
  3 18  1  0  0  0  0
  4 11  1  0  0  0  0
  4 18  2  0  0  0  0
  5 20  1  0  0  0  0
  6 22  1  0  0  0  0
  7 12  2  0  0  0  0
  7 21  1  0  0  0  0
  8  9  2  0  0  0  0
  8 24  1  0  0  0  0
  9 25  1  0  0  0  0
 10 26  1  0  0  0  0
 11 26  2  0  0  0  0
 12 27  1  0  0  0  0
 13 14  2  0  0  0  0
 13 28  1  0  0  0  0
 14 29  1  0  0  0  0
 15 23  1  0  0  0  0
 15 27  2  0  0  0  0
 16 24  2  0  0  0  0
 16 30  1  0  0  0  0
 17 29  2  0  0  0  0
 17 31  1  0  0  0  0
 18 32  1  0  0  0  0
 19 32  1  0  0  0  0
 19 33  2  0  0  0  0
 19 34  1  0  0  0  0
 20 22  2  0  0  0  0
 20 39  1  0  0  0  0
 21 23  2  0  0  0  0
 21 40  1  0  0  0  0
 22 48  1  0  0  0  0
 23 41  1  0  0  0  0
 24 58  1  0  0  0  0
 25 30  2  0  0  0  0
 25 73  1  0  0  0  0
 26 81  1  0  0  0  0
 27 82  1  0  0  0  0
 28 31  2  0  0  0  0
 28 81  1  0  0  0  0
 29 83  1  0  0  0  0
 30 84  1  0  0  0  0
 31 85  1  0  0  0  0
 32 65  2  0  0  0  0
 33 66  1  0  0  0  0
 33 69  1  0  0  0  0
 34 70  1  0  0  0  0
 34 76  2  0  0  0  0
 35 49  1  0  0  0  0
 35 71  1  0  0  0  0
 35 77  2  0  0  0  0
 36 62  1  0  0  0  0
 36 67  1  0  0  0  0
 36 78  2  0  0  0  0
 37 63  1  0  0  0  0
 37 72  1  0  0  0  0
 37 79  2  0  0  0  0
 38 68  1  0  0  0  0
 38 74  1  0  0  0  0
 38 80  2  0  0  0  0
 39 42  1  0  0  0  0
 40 49  1  0  0  0  0
 41 67  1  0  0  0  0
 42 44  1  0  0  0  0
 43 45  1  0  0  0  0
 43 46  1  0  0  0  0
 44 48  1  0  0  0  0
 45 50  1  0  0  0  0
 46 68  1  0  0  0  0
 47 50  1  0  0  0  0
 47 68  1  0  0  0  0
 48 71  1  0  0  0  0
 49 67  1  0  0  0  0
 50 66  1  0  0  0  0
 51 63  1  0  0  0  0
 52 64  1  0  0  0  0
 53 64  1  0  0  0  0
 54 64  1  0  0  0  0
 55 73  1  0  0  0  0
 56 74  1  0  0  0  0
 57 75  1  0  0  0  0
 58 74  1  0  0  0  0
 59 60  1  0  0  0  0
 59 61  1  0  0  0  0
 60 73  1  0  0  0  0
 61 82  1  0  0  0  0
 62 64  1  0  0  0  0
 62 72  1  0  0  0  0
 63 75  1  0  0  0  0
 65 66  1  0  0  0  0
M  CHG  1  75   1
M  ISO  4  38 100  61 101  74 100  82 101
M  END
> <Batch ID>
0016

> <Smiles>
CNC(C)C(=O)NC(C(=O)N1Cc2cc([101O:1][101CH2:1]CCN(C)c3ccc(C[100N:0](C)[100C:0](=O)N4CCCC(n5nc(-c6ccc(Oc7ccc(F)cc7F)cc6)c(C(N)=O)c5N)C4)cc3F)ccc2CC1C(=O)NC1CCCc2ccccc21)C(C)(C)C

> <Shape>
0.309

> <Color>
0.194

> <Negative vol penalty>
0.000

$$$$

  -OEChem-04042320573D

 88 96  0     1  0  0  0  0  0999 V2000
  -31.3504  -24.4769   16.1134 C   0  0  0  0  0  0  0  0  0  0  0  0
  -30.0528  -24.4962   16.6121 C   0  0  0  0  0  0  0  0  0  0  0  0
  -29.4834  -17.3356   19.8108 C   0  0  0  0  0  0  0  0  0  0  0  0
  -28.5283  -18.0724   21.9041 C   0  0  0  0  0  0  0  0  0  0  0  0
  -32.3253  -25.2913   16.6857 C   0  0  0  0  0  0  0  0  0  0  0  0
  -29.7267  -25.3387   17.6755 C   0  0  0  0  0  0  0  0  0  0  0  0
  -24.9768  -25.6260   18.9240 C   0  0  0  0  0  0  0  0  0  0  0  0
  -22.1590  -15.8871   25.0793 C   0  0  0  0  0  0  0  0  0  0  0  0
  -22.5262  -17.2230   25.2412 C   0  0  0  0  0  0  0  0  0  0  0  0
  -29.7884  -18.6571   19.4848 C   0  0  0  0  0  0  0  0  0  0  0  0
  -28.8333  -19.3939   21.5781 C   0  0  0  0  0  0  0  0  0  0  0  0
  -24.3021  -24.5885   19.5658 C   0  0  0  0  0  0  0  0  0  0  0  0
  -31.5537  -21.3987   21.5993 C   0  0  0  0  0  0  0  0  0  0  0  0
  -32.1301  -22.1927   22.5907 C   0  0  0  0  0  0  0  0  0  0  0  0
  -24.4403  -25.7958   21.6497 C   0  0  0  0  0  0  0  0  0  0  0  0
  -21.8662  -16.2547   22.7095 C   0  0  0  0  0  0  0  0  0  0  0  0
  -30.2635  -23.7205   22.4524 C   0  0  0  0  0  0  0  0  0  0  0  0
  -28.8534  -17.0433   21.0204 C   0  0  0  0  0  0  0  0  0  0  0  0
  -29.3524  -14.7639   22.0514 C   0  0  0  0  0  0  0  0  0  0  0  0
  -32.0131  -26.1347   17.7647 C   0  0  0  0  0  0  0  0  0  0  0  0
  -25.3986  -26.7533   19.6435 C   0  0  0  0  0  0  0  0  0  0  0  0
  -30.6909  -26.1859   18.2511 C   0  0  0  0  0  0  0  0  0  0  0  0
  -25.1179  -26.8475   21.0141 C   0  0  0  0  0  0  0  0  0  0  0  0
  -21.8291  -15.4029   23.8135 C   0  0  0  0  0  0  0  0  0  0  0  0
  -22.5633  -18.0748   24.1373 C   0  0  0  0  0  0  0  0  0  0  0  0
  -29.4633  -19.6862   20.3684 C   0  0  0  0  0  0  0  0  0  0  0  0
  -24.0363  -24.6719   20.9294 C   0  0  0  0  0  0  0  0  0  0  0  0
  -30.3323  -21.7656   21.0343 C   0  0  0  0  0  0  0  0  0  0  0  0
  -31.4850  -23.3536   23.0173 C   0  0  0  0  0  0  0  0  0  0  0  0
  -22.2333  -17.5906   22.8714 C   0  0  0  0  0  0  0  0  0  0  0  0
  -29.6872  -22.9264   21.4609 C   0  0  0  0  0  0  0  0  0  0  0  0
  -28.5376  -15.6784   21.3575 C   0  0  0  0  0  0  0  0  0  0  0  0
  -28.6023  -13.6150   22.1145 C   0  0  0  0  0  0  0  0  0  0  0  0
  -30.6694  -14.9373   22.5908 C   0  0  0  0  0  0  0  0  0  0  0  0
  -28.2153  -28.0766   20.2907 C   0  0  0  0  0  0  0  0  0  0  0  0
  -26.3805  -30.4102   21.5982 C   0  0  0  0  0  0  0  0  0  0  0  0
  -22.0742  -21.3378   22.8404 C   0  0  0  0  0  0  0  0  0  0  0  0
  -23.3969  -31.3131   22.9874 C   0  0  0  0  0  0  0  0  0  0  0  0
  -22.5234  -13.0065   21.6504 C   0  0  0  0  0  0  0  0  0  0  0  0
  -33.1050  -27.0011   18.3411 C   0  0  0  0  0  0  0  0  0  0  0  0
  -26.1017  -27.8760   18.9311 C   0  0  0  0  0  0  0  0  0  0  0  0
  -25.5316  -28.0455   21.8278 C   0  0  0  0  0  0  0  0  0  0  0  0
  -32.7759  -27.5229   19.7360 C   0  0  0  0  0  0  0  0  0  0  0  0
  -25.1802  -11.2304   19.7826 C   0  0  0  0  0  0  0  0  0  0  0  0
  -31.3817  -28.1316   19.7477 C   0  0  0  0  0  0  0  0  0  0  0  0
  -26.3917  -12.1397   19.9812 C   0  0  0  0  0  0  0  0  0  0  0  0
  -23.8703  -12.0108   19.8377 C   0  0  0  0  0  0  0  0  0  0  0  0
  -24.9159  -13.7318   21.2726 C   0  0  0  0  0  0  0  0  0  0  0  0
  -30.3203  -27.0716   19.4269 C   0  0  1  0  0  0  0  0  0  0  0  0
  -26.9387  -28.7449   19.8649 C   0  0  1  0  0  0  0  0  0  0  0  0
  -26.2495  -12.9696   21.2690 C   0  0  2  0  0  0  0  0  0  0  0  0
  -22.5541  -11.1451   24.4346 C   0  0  0  0  0  0  0  0  0  0  0  0
  -21.6362  -32.8236   23.9444 C   0  0  0  0  0  0  0  0  0  0  0  0
  -28.0021  -30.0759   24.1612 C   0  0  0  0  0  0  0  0  0  0  0  0
  -26.2081  -31.3296   25.3771 C   0  0  0  0  0  0  0  0  0  0  0  0
  -27.4903  -32.4470   23.5522 C   0  0  0  0  0  0  0  0  0  0  0  0
  -20.6513  -20.3194   24.6317 C   0  0  0  0  0  0  0  0  0  0  0  0
  -22.2539  -31.8666   20.3142 C   0  0  0  0  0  0  0  0  0  0  0  0
  -21.4363  -13.9748   23.6404 C   0  0  0  0  0  0  0  0  0  0  0  0
  -22.9576  -19.5125   24.3147 C   0  0  0  0  0  0  0  0  0  0  0  0
  -23.4399  -21.3282   22.1615 C   0  0  0  0  0  0  0  0  0  0  0  0
  -23.2936  -12.3871   23.9797 C   0  0  0  0  0  0  0  0  0  0  0  0
  -23.5545  -22.3453   21.0330 C   0  0  0  0  0  0  0  0  0  1  0  0
  -25.7923  -30.6684   22.9644 C   0  0  1  0  0  0  0  0  0  0  0  0
  -22.4779  -32.4919   22.7220 C   0  0  2  0  0  0  0  0  0  0  0  0
  -26.8670  -31.1066   23.9990 C   0  0  0  0  0  0  0  0  0  0  0  0
  -27.3602  -15.1556   21.0049 N   0  0  0  0  0  0  0  0  0  0  0  0
  -27.4296  -13.9001   21.4790 N   0  0  0  0  0  0  0  0  0  0  0  0
  -26.2219  -29.1143   21.0871 N   0  0  0  0  0  0  0  0  0  0  0  0
  -23.7804  -12.8241   21.0508 N   0  0  0  0  0  0  0  0  0  0  0  0
  -28.8380  -12.3988   22.6510 N   0  0  0  0  0  0  0  0  0  0  0  0
  -31.2956  -16.1818   22.4376 N   0  0  0  0  0  0  0  0  0  0  0  0
  -29.0427  -27.7238   19.2417 N   0  0  0  0  0  0  0  0  0  0  0  0
  -24.7194  -31.6376   22.7704 N   0  0  0  0  0  0  0  0  0  0  0  0
  -21.9003  -20.4262   23.8877 N   0  0  0  0  0  0  0  0  0  0  0  0
  -22.4976  -13.1771   23.0428 N   0  0  0  0  0  0  0  0  0  0  0  0
  -21.5601  -32.1880   21.5879 N   0  3  0  0  0  0  0  0  0  0  0  0
  -31.2797  -14.0110   23.1764 O   0  0  0  0  0  0  0  0  0  0  0  0
  -28.4342  -27.8957   21.4828 O   0  0  0  0  0  0  0  0  0  0  0  0
  -26.9530  -31.3266   21.0033 O   0  0  0  0  0  0  0  0  0  0  0  0
  -21.1933  -22.1165   22.4663 O   0  0  0  0  0  0  0  0  0  0  0  0
  -22.9834  -30.2155   23.3544 O   0  0  0  0  0  0  0  0  0  0  0  0
  -21.4827  -13.0069   20.9804 O   0  0  0  0  0  0  0  0  0  0  0  0
  -29.7609  -20.9758   20.0507 O   0  0  0  0  0  0  0  0  0  0  0  0
  -23.3785  -23.6603   21.5585 O   0  0  0  0  0  0  0  0  0  1  0  0
  -32.0379  -24.1151   23.9704 F   0  0  0  0  0  0  0  0  0  0  0  0
  -22.2651  -18.4020   21.8049 F   0  0  0  0  0  0  0  0  0  0  0  0
  -28.5130  -23.2834   20.9227 F   0  0  0  0  0  0  0  0  0  0  0  0
  1  2  1  0  0  0  0
  1  5  2  0  0  0  0
  2  6  2  0  0  0  0
  3 10  2  0  0  0  0
  3 18  1  0  0  0  0
  4 11  1  0  0  0  0
  4 18  2  0  0  0  0
  5 20  1  0  0  0  0
  6 22  1  0  0  0  0
  7 12  2  0  0  0  0
  7 21  1  0  0  0  0
  8  9  2  0  0  0  0
  8 24  1  0  0  0  0
  9 25  1  0  0  0  0
 10 26  1  0  0  0  0
 11 26  2  0  0  0  0
 12 27  1  0  0  0  0
 13 14  2  0  0  0  0
 13 28  1  0  0  0  0
 14 29  1  0  0  0  0
 15 23  1  0  0  0  0
 15 27  2  0  0  0  0
 16 24  2  0  0  0  0
 16 30  1  0  0  0  0
 17 29  2  0  0  0  0
 17 31  1  0  0  0  0
 18 32  1  0  0  0  0
 19 32  1  0  0  0  0
 19 33  2  0  0  0  0
 19 34  1  0  0  0  0
 20 22  2  0  0  0  0
 20 40  1  0  0  0  0
 21 23  2  0  0  0  0
 21 41  1  0  0  0  0
 22 49  1  0  0  0  0
 23 42  1  0  0  0  0
 24 59  1  0  0  0  0
 25 30  2  0  0  0  0
 25 60  1  0  0  0  0
 26 84  1  0  0  0  0
 27 85  1  0  0  0  0
 28 31  2  0  0  0  0
 28 84  1  0  0  0  0
 29 86  1  0  0  0  0
 30 87  1  0  0  0  0
 31 88  1  0  0  0  0
 32 67  2  0  0  0  0
 33 68  1  0  0  0  0
 33 71  1  0  0  0  0
 34 72  1  0  0  0  0
 34 78  2  0  0  0  0
 35 50  1  0  0  0  0
 35 73  1  0  0  0  0
 35 79  2  0  0  0  0
 36 64  1  0  0  0  0
 36 69  1  0  0  0  0
 36 80  2  0  0  0  0
 37 61  1  0  0  0  0
 37 75  1  0  0  0  0
 37 81  2  0  0  0  0
 38 65  1  0  0  0  0
 38 74  1  0  0  0  0
 38 82  2  0  0  0  0
 39 70  1  0  0  0  0
 39 76  1  0  0  0  0
 39 83  2  0  0  0  0
 40 43  1  0  0  0  0
 41 50  1  0  0  0  0
 42 69  1  0  0  0  0
 43 45  1  0  0  0  0
 44 46  1  0  0  0  0
 44 47  1  0  0  0  0
 45 49  1  0  0  0  0
 46 51  1  0  0  0  0
 47 70  1  0  0  0  0
 48 51  1  0  0  0  0
 48 70  1  0  0  0  0
 49 73  1  0  0  0  0
 50 69  1  0  0  0  0
 51 68  1  0  0  0  0
 52 62  1  0  0  0  0
 53 65  1  0  0  0  0
 54 66  1  0  0  0  0
 55 66  1  0  0  0  0
 56 66  1  0  0  0  0
 57 75  1  0  0  0  0
 58 77  1  0  0  0  0
 59 76  1  0  0  0  0
 60 75  1  0  0  0  0
 61 63  1  0  0  0  0
 62 76  1  0  0  0  0
 63 85  1  0  0  0  0
 64 66  1  0  0  0  0
 64 74  1  0  0  0  0
 65 77  1  0  0  0  0
 67 68  1  0  0  0  0
M  CHG  1  77   1
M  ISO  4  39 100  63 101  76 100  85 101
M  END
> <Batch ID>
0016

> <Smiles>
CC[100N:0](Cc1ccc(CN(C)C(=O)C[101CH2:1][101O:1]c2ccc3c(c2)CN(C(=O)C(NC(=O)C(C)NC)C(C)(C)C)C(C(=O)NC2CCCc4ccccc42)C3)c(F)c1)[100C:0](=O)N1CCCC(n2nc(-c3ccc(Oc4ccc(F)cc4F)cc3)c(C(N)=O)c2N)C1

> <Shape>
0.252

> <Color>
0.054

> <Negative vol penalty>
0.000

$$$$

  -OEChem-04042320573D

 86 94  0     1  0  0  0  0  0999 V2000
  -32.4196  -26.2630   21.1551 C   0  0  0  0  0  0  0  0  0  0  0  0
  -31.4943  -26.4719   20.1374 C   0  0  0  0  0  0  0  0  0  0  0  0
  -26.7845  -15.0621   21.5783 C   0  0  0  0  0  0  0  0  0  0  0  0
  -26.5707  -14.9758   19.1734 C   0  0  0  0  0  0  0  0  0  0  0  0
  -31.9848  -25.8797   22.4231 C   0  0  0  0  0  0  0  0  0  0  0  0
  -30.1336  -26.2966   20.3870 C   0  0  0  0  0  0  0  0  0  0  0  0
  -27.3081  -30.0315   18.4602 C   0  0  0  0  0  0  0  0  0  0  0  0
  -25.6478  -24.2153   16.7118 C   0  0  0  0  0  0  0  0  0  0  0  0
  -26.0967  -25.2816   15.9327 C   0  0  0  0  0  0  0  0  0  0  0  0
  -26.4747  -13.7043   21.6547 C   0  0  0  0  0  0  0  0  0  0  0  0
  -26.2609  -13.6179   19.2497 C   0  0  0  0  0  0  0  0  0  0  0  0
  -27.0540  -29.9956   17.0898 C   0  0  0  0  0  0  0  0  0  0  0  0
  -26.0941  -10.1786   22.4543 C   0  0  0  0  0  0  0  0  0  0  0  0
  -26.8743   -9.3815   23.2918 C   0  0  0  0  0  0  0  0  0  0  0  0
  -24.8703  -29.0677   17.5252 C   0  0  0  0  0  0  0  0  0  0  0  0
  -25.6089  -22.8008   14.7535 C   0  0  0  0  0  0  0  0  0  0  0  0
  -28.8395   -9.9583   22.0103 C   0  0  0  0  0  0  0  0  0  0  0  0
  -26.8325  -15.6979   20.3377 C   0  0  0  0  0  0  0  0  0  0  0  0
  -28.4300  -17.6752   20.1237 C   0  0  0  0  0  0  0  0  0  0  0  0
  -30.6174  -25.7090   22.6910 C   0  0  0  0  0  0  0  0  0  0  0  0
  -26.3478  -29.5748   19.3744 C   0  0  0  0  0  0  0  0  0  0  0  0
  -29.6802  -25.9094   21.6595 C   0  0  0  0  0  0  0  0  0  0  0  0
  -25.1136  -29.1013   18.9068 C   0  0  0  0  0  0  0  0  0  0  0  0
  -25.4039  -22.9748   16.1222 C   0  0  0  0  0  0  0  0  0  0  0  0
  -26.3017  -25.1075   14.5640 C   0  0  0  0  0  0  0  0  0  0  0  0
  -26.2129  -12.9822   20.4904 C   0  0  0  0  0  0  0  0  0  0  0  0
  -25.8361  -29.5110   16.6220 C   0  0  0  0  0  0  0  0  0  0  0  0
  -26.6866  -10.8655   21.3946 C   0  0  0  0  0  0  0  0  0  0  0  0
  -28.2469   -9.2714   23.0699 C   0  0  0  0  0  0  0  0  0  0  0  0
  -26.0578  -23.8671   13.9744 C   0  0  0  0  0  0  0  0  0  0  0  0
  -28.0593  -10.7554   21.1727 C   0  0  0  0  0  0  0  0  0  0  0  0
  -27.1519  -17.1007   20.2582 C   0  0  0  0  0  0  0  0  0  0  0  0
  -28.1969  -19.0285   20.0950 C   0  0  0  0  0  0  0  0  0  0  0  0
  -29.7133  -17.0422   20.0328 C   0  0  0  0  0  0  0  0  0  0  0  0
  -26.2396  -27.2515   21.5409 C   0  0  0  0  0  0  0  0  0  0  0  0
  -23.3892  -28.6093   22.2850 C   0  0  0  0  0  0  0  0  0  0  0  0
  -20.7427  -30.5204   21.2898 C   0  0  0  0  0  0  0  0  0  0  0  0
  -23.0278  -21.9711   18.6253 C   0  0  0  0  0  0  0  0  0  0  0  0
  -30.1987  -25.2480   24.0646 C   0  0  0  0  0  0  0  0  0  0  0  0
  -26.6269  -29.6451   20.8507 C   0  0  0  0  0  0  0  0  0  0  0  0
  -24.0415  -28.6183   19.8479 C   0  0  0  0  0  0  0  0  0  0  0  0
  -28.7120  -25.4477   24.3473 C   0  0  0  0  0  0  0  0  0  0  0  0
  -25.1284  -22.3453   21.6501 C   0  0  0  0  0  0  0  0  0  0  0  0
  -27.8744  -24.9588   23.1698 C   0  0  0  0  0  0  0  0  0  0  0  0
  -25.9402  -21.0511   21.6541 C   0  0  0  0  0  0  0  0  0  0  0  0
  -23.7749  -22.1638   20.9697 C   0  0  0  0  0  0  0  0  0  0  0  0
  -24.6750  -20.3160   19.5951 C   0  0  0  0  0  0  0  0  0  0  0  0
  -28.1939  -25.7535   21.8979 C   0  0  1  0  0  0  0  0  0  0  0  0
  -25.7771  -28.6756   21.6663 C   0  0  1  0  0  0  0  0  0  0  0  0
  -26.0635  -20.4764   20.2321 C   0  0  2  0  0  0  0  0  0  0  0  0
  -18.5483  -31.4242   22.1055 C   0  0  0  0  0  0  0  0  0  0  0  0
  -27.4398  -28.4180   12.1663 C   0  0  0  0  0  0  0  0  0  0  0  0
  -22.1271  -25.8533   21.9361 C   0  0  0  0  0  0  0  0  0  0  0  0
  -19.8893  -26.9699   21.8183 C   0  0  0  0  0  0  0  0  0  0  0  0
  -21.2661  -27.1552   23.8902 C   0  0  0  0  0  0  0  0  0  0  0  0
  -22.6294  -22.3731   16.2255 C   0  0  0  0  0  0  0  0  0  0  0  0
  -21.6327  -33.3208   20.9368 C   0  0  0  0  0  0  0  0  0  0  0  0
  -24.7378  -26.7926   12.4133 C   0  0  0  0  0  0  0  0  0  0  0  0
  -24.9237  -21.8348   16.9551 C   0  0  0  0  0  0  0  0  0  0  0  0
  -26.7834  -26.2566   13.7282 C   0  0  0  0  0  0  0  0  0  0  0  0
  -26.7059  -29.2964   14.4190 C   0  0  0  0  0  0  0  0  0  1  0  0
  -21.9645  -28.4275   21.8200 C   0  0  1  0  0  0  0  0  0  0  0  0
  -20.0381  -31.6895   21.9541 C   0  0  2  0  0  0  0  0  0  0  0  0
  -26.2758  -28.6182   13.1232 C   0  0  2  0  0  0  0  0  0  0  0  0
  -21.3325  -27.1087   22.3481 C   0  0  0  0  0  0  0  0  0  0  0  0
  -26.1789  -18.0142   20.3114 N   0  0  0  0  0  0  0  0  0  0  0  0
  -26.8459  -19.1765   20.2099 N   0  0  0  0  0  0  0  0  0  0  0  0
  -24.3644  -28.7011   21.2819 N   0  0  0  0  0  0  0  0  0  0  0  0
  -23.9182  -21.5762   19.6373 N   0  0  0  0  0  0  0  0  0  0  0  0
  -29.0177  -20.0943   19.9830 N   0  0  0  0  0  0  0  0  0  0  0  0
  -29.7727  -15.6427   20.0785 N   0  0  0  0  0  0  0  0  0  0  0  0
  -27.5483  -27.0482   21.9352 N   0  0  0  0  0  0  0  0  0  0  0  0
  -21.2481  -29.6345   22.2177 N   0  0  0  0  0  0  0  0  0  0  0  0
  -23.5113  -21.9609   17.3082 N   0  0  0  0  0  0  0  0  0  0  0  0
  -20.2151  -32.9285   21.1450 N   0  3  0  0  0  0  0  0  0  0  0  0
  -25.7109  -27.2782   13.4552 N   0  3  1  0  0  0  0  0  0  0  0  0
  -30.7772  -17.6989   19.9310 O   0  0  0  0  0  0  0  0  0  0  0  0
  -25.4659  -26.3999   21.1192 O   0  0  0  0  0  0  0  0  0  0  0  0
  -23.6271  -28.6749   23.4936 O   0  0  0  0  0  0  0  0  0  0  0  0
  -20.8322  -30.4027   20.0697 O   0  0  0  0  0  0  0  0  0  0  0  0
  -21.8699  -22.3225   18.8854 O   0  0  0  0  0  0  0  0  0  0  0  0
  -25.9108  -11.6571   20.5644 O   0  0  0  0  0  0  0  0  0  0  0  0
  -25.5857  -29.4742   15.2849 O   0  0  0  0  0  0  0  0  0  1  0  0
  -28.9963   -8.5071   23.8753 F   0  0  0  0  0  0  0  0  0  0  0  0
  -26.2509  -23.6908   12.6598 F   0  0  0  0  0  0  0  0  0  0  0  0
  -28.6343  -11.4139   20.1571 F   0  0  0  0  0  0  0  0  0  0  0  0
  1  2  1  0  0  0  0
  1  5  2  0  0  0  0
  2  6  2  0  0  0  0
  3 10  2  0  0  0  0
  3 18  1  0  0  0  0
  4 11  1  0  0  0  0
  4 18  2  0  0  0  0
  5 20  1  0  0  0  0
  6 22  1  0  0  0  0
  7 12  2  0  0  0  0
  7 21  1  0  0  0  0
  8  9  2  0  0  0  0
  8 24  1  0  0  0  0
  9 25  1  0  0  0  0
 10 26  1  0  0  0  0
 11 26  2  0  0  0  0
 12 27  1  0  0  0  0
 13 14  2  0  0  0  0
 13 28  1  0  0  0  0
 14 29  1  0  0  0  0
 15 23  1  0  0  0  0
 15 27  2  0  0  0  0
 16 24  2  0  0  0  0
 16 30  1  0  0  0  0
 17 29  2  0  0  0  0
 17 31  1  0  0  0  0
 18 32  1  0  0  0  0
 19 32  1  0  0  0  0
 19 33  2  0  0  0  0
 19 34  1  0  0  0  0
 20 22  2  0  0  0  0
 20 39  1  0  0  0  0
 21 23  2  0  0  0  0
 21 40  1  0  0  0  0
 22 48  1  0  0  0  0
 23 41  1  0  0  0  0
 24 59  1  0  0  0  0
 25 30  2  0  0  0  0
 25 60  1  0  0  0  0
 26 82  1  0  0  0  0
 27 83  1  0  0  0  0
 28 31  2  0  0  0  0
 28 82  1  0  0  0  0
 29 84  1  0  0  0  0
 30 85  1  0  0  0  0
 31 86  1  0  0  0  0
 32 66  2  0  0  0  0
 33 67  1  0  0  0  0
 33 70  1  0  0  0  0
 34 71  1  0  0  0  0
 34 77  2  0  0  0  0
 35 49  1  0  0  0  0
 35 72  1  0  0  0  0
 35 78  2  0  0  0  0
 36 62  1  0  0  0  0
 36 68  1  0  0  0  0
 36 79  2  0  0  0  0
 37 63  1  0  0  0  0
 37 73  1  0  0  0  0
 37 80  2  0  0  0  0
 38 69  1  0  0  0  0
 38 74  1  0  0  0  0
 38 81  2  0  0  0  0
 39 42  1  0  0  0  0
 40 49  1  0  0  0  0
 41 68  1  0  0  0  0
 42 44  1  0  0  0  0
 43 45  1  0  0  0  0
 43 46  1  0  0  0  0
 44 48  1  0  0  0  0
 45 50  1  0  0  0  0
 46 69  1  0  0  0  0
 47 50  1  0  0  0  0
 47 69  1  0  0  0  0
 48 72  1  0  0  0  0
 49 68  1  0  0  0  0
 50 67  1  0  0  0  0
 51 63  1  0  0  0  0
 52 64  1  0  0  0  0
 53 65  1  0  0  0  0
 54 65  1  0  0  0  0
 55 65  1  0  0  0  0
 56 74  1  0  0  0  0
 57 75  1  0  0  0  0
 58 76  1  0  0  0  0
 59 74  1  0  0  0  0
 60 76  1  0  0  0  0
 61 64  1  0  0  0  0
 61 83  1  0  0  0  0
 62 65  1  0  0  0  0
 62 73  1  0  0  0  0
 63 75  1  0  0  0  0
 64 76  1  0  0  0  0
 66 67  1  0  0  0  0
M  CHG  2  75   1  76   1
M  ISO  4  38 100  61 101  74 100  83 101
M  END
> <Batch ID>
0016

> <Smiles>
CNC(C)C(=O)NC(C(=O)N1Cc2cc([101O:1][101CH2:1]C(C)N(C)Cc3ccc(C[100N:0](C)[100C:0](=O)N4CCCC(n5nc(-c6ccc(Oc7ccc(F)cc7F)cc6)c(C(N)=O)c5N)C4)cc3F)ccc2CC1C(=O)NC1CCCc2ccccc21)C(C)(C)C

> <Shape>
0.162

> <Color>
0.097

> <Negative vol penalty>
0.000

$$$$

  -OEChem-04042320573D

 84 92  0     1  0  0  0  0  0999 V2000
  -23.4344  -30.0928   21.4237 C   0  0  0  0  0  0  0  0  0  0  0  0
  -22.7479  -28.8829   21.4087 C   0  0  0  0  0  0  0  0  0  0  0  0
  -28.6507  -13.2227   20.8637 C   0  0  0  0  0  0  0  0  0  0  0  0
  -28.1532  -12.4739   18.6211 C   0  0  0  0  0  0  0  0  0  0  0  0
  -24.7755  -30.1367   21.0449 C   0  0  0  0  0  0  0  0  0  0  0  0
  -23.4018  -27.7163   21.0139 C   0  0  0  0  0  0  0  0  0  0  0  0
  -22.5005  -22.0690   23.2051 C   0  0  0  0  0  0  0  0  0  0  0  0
  -21.4396  -13.5054   24.8574 C   0  0  0  0  0  0  0  0  0  0  0  0
  -20.6807  -14.4801   24.2096 C   0  0  0  0  0  0  0  0  0  0  0  0
  -30.0148  -13.1780   20.5760 C   0  0  0  0  0  0  0  0  0  0  0  0
  -29.5174  -12.4293   18.3334 C   0  0  0  0  0  0  0  0  0  0  0  0
  -21.7547  -20.9887   22.7356 C   0  0  0  0  0  0  0  0  0  0  0  0
  -32.2820  -15.0900   18.9520 C   0  0  0  0  0  0  0  0  0  0  0  0
  -33.0655  -16.1707   19.3566 C   0  0  0  0  0  0  0  0  0  0  0  0
  -23.7360  -20.0763   21.7054 C   0  0  0  0  0  0  0  0  0  0  0  0
  -20.2345  -11.7792   23.6720 C   0  0  0  0  0  0  0  0  0  0  0  0
  -34.4003  -14.6914   20.7230 C   0  0  0  0  0  0  0  0  0  0  0  0
  -27.7199  -12.8706   19.8863 C   0  0  0  0  0  0  0  0  0  0  0  0
  -25.4404  -14.0091   20.0108 C   0  0  0  0  0  0  0  0  0  0  0  0
  -25.4488  -28.9685   20.6545 C   0  0  0  0  0  0  0  0  0  0  0  0
  -23.8697  -22.1668   22.9185 C   0  0  0  0  0  0  0  0  0  0  0  0
  -24.7528  -27.7449   20.6283 C   0  0  0  0  0  0  0  0  0  0  0  0
  -24.4975  -21.1576   22.1746 C   0  0  0  0  0  0  0  0  0  0  0  0
  -21.2166  -12.1550   24.5885 C   0  0  0  0  0  0  0  0  0  0  0  0
  -19.6986  -14.1044   23.2931 C   0  0  0  0  0  0  0  0  0  0  0  0
  -30.4481  -12.7814   19.3109 C   0  0  0  0  0  0  0  0  0  0  0  0
  -22.3718  -19.9936   21.9832 C   0  0  0  0  0  0  0  0  0  0  0  0
  -32.5575  -13.8099   19.4330 C   0  0  0  0  0  0  0  0  0  0  0  0
  -34.1247  -15.9714   20.2421 C   0  0  0  0  0  0  0  0  0  0  0  0
  -19.4755  -12.7539   23.0243 C   0  0  0  0  0  0  0  0  0  0  0  0
  -33.6167  -13.6106   20.3185 C   0  0  0  0  0  0  0  0  0  0  0  0
  -26.3106  -12.9160   20.1830 C   0  0  0  0  0  0  0  0  0  0  0  0
  -24.2191  -13.5459   20.4355 C   0  0  0  0  0  0  0  0  0  0  0  0
  -25.7117  -15.3254   19.5116 C   0  0  0  0  0  0  0  0  0  0  0  0
  -25.6886  -24.2422   21.3411 C   0  0  0  0  0  0  0  0  0  0  0  0
  -28.1021  -22.3990   22.4813 C   0  0  0  0  0  0  0  0  0  0  0  0
  -29.1200  -19.3624   23.6602 C   0  0  0  0  0  0  0  0  0  0  0  0
  -22.3107   -9.9000   24.6838 C   0  0  0  0  0  0  0  0  0  0  0  0
  -26.8857  -29.0735   20.2082 C   0  0  0  0  0  0  0  0  0  0  0  0
  -24.6658  -23.3249   23.4549 C   0  0  0  0  0  0  0  0  0  0  0  0
  -25.9689  -21.2054   21.8566 C   0  0  0  0  0  0  0  0  0  0  0  0
  -27.6088  -27.7299   20.1619 C   0  0  0  0  0  0  0  0  0  0  0  0
  -22.1714   -9.1020   21.0732 C   0  0  0  0  0  0  0  0  0  0  0  0
  -26.7448  -26.6823   19.4670 C   0  0  0  0  0  0  0  0  0  0  0  0
  -23.2087  -10.0509   20.4757 C   0  0  0  0  0  0  0  0  0  0  0  0
  -22.5083   -8.7289   22.5136 C   0  0  0  0  0  0  0  0  0  0  0  0
  -23.7323  -10.8633   22.8097 C   0  0  0  0  0  0  0  0  0  0  0  0
  -25.4343  -26.4538   20.2298 C   0  0  1  0  0  0  0  0  0  0  0  0
  -25.9463  -23.5853   22.6677 C   0  0  1  0  0  0  0  0  0  0  0  0
  -23.3939  -11.2862   21.3723 C   0  0  1  0  0  0  0  0  0  0  0  0
  -31.1596  -18.1487   24.4754 C   0  0  0  0  0  0  0  0  0  0  0  0
  -29.0907  -22.1346   19.6069 C   0  0  0  0  0  0  0  0  0  0  0  0
  -30.5014  -20.2018   20.3435 C   0  0  0  0  0  0  0  0  0  0  0  0
  -30.8964  -22.4697   21.3044 C   0  0  0  0  0  0  0  0  0  0  0  0
  -22.2663  -11.3227   26.6852 C   0  0  0  0  0  0  0  0  0  0  0  0
  -17.9052  -14.6936   21.6817 C   0  0  0  0  0  0  0  0  0  0  0  0
  -27.9172  -18.8904   26.3228 C   0  0  0  0  0  0  0  0  0  0  0  0
  -20.3016  -17.0356   22.0986 C   0  0  0  0  0  0  0  0  0  0  0  0
  -19.1331  -16.4907   22.9110 C   0  0  0  0  0  0  0  0  0  0  0  0
  -20.5268  -18.5285   22.3079 C   0  0  0  0  0  0  0  0  0  1  0  0
  -28.8361  -21.1747   21.9901 C   0  0  1  0  0  0  0  0  0  0  0  0
  -29.9490  -18.9790   24.8728 C   0  0  2  0  0  0  0  0  0  0  0  0
  -29.8030  -21.4950   20.8154 C   0  0  0  0  0  0  0  0  0  0  0  0
  -25.6945  -11.8395   20.6785 N   0  0  0  0  0  0  0  0  0  0  0  0
  -24.4241  -12.2539   20.8215 N   0  0  0  0  0  0  0  0  0  0  0  0
  -26.7030  -22.3610   22.3981 N   0  0  0  0  0  0  0  0  0  0  0  0
  -22.7409   -9.9137   23.3411 N   0  0  0  0  0  0  0  0  0  0  0  0
  -23.0006  -14.1218   20.5128 N   0  0  0  0  0  0  0  0  0  0  0  0
  -27.0212  -15.6343   19.1188 N   0  0  0  0  0  0  0  0  0  0  0  0
  -25.6645  -25.6229   21.3922 N   0  0  0  0  0  0  0  0  0  0  0  0
  -29.4876  -20.5931   23.1587 N   0  0  0  0  0  0  0  0  0  0  0  0
  -22.0015  -11.1473   25.2589 N   0  0  0  0  0  0  0  0  0  0  0  0
  -18.9364  -15.0863   22.6440 N   0  0  3  0  0  0  0  0  0  0  0  0
  -29.1288  -18.1853   25.8311 N   0  3  0  0  0  0  0  0  0  0  0  0
  -24.8229  -16.2070   19.4321 O   0  0  0  0  0  0  0  0  0  0  0  0
  -25.5254  -23.5478   20.3447 O   0  0  0  0  0  0  0  0  0  0  0  0
  -28.7460  -23.3510   22.9293 O   0  0  0  0  0  0  0  0  0  0  0  0
  -28.2374  -18.6406   23.2015 O   0  0  0  0  0  0  0  0  0  0  0  0
  -22.2588   -8.8547   25.3436 O   0  0  0  0  0  0  0  0  0  0  0  0
  -31.7792  -12.7379   19.0298 O   0  0  0  0  0  0  0  0  0  0  0  0
  -21.6460  -18.9384   21.5232 O   0  0  0  0  0  0  0  0  0  1  0  0
  -34.8780  -17.0091   20.6293 F   0  0  0  0  0  0  0  0  0  0  0  0
  -18.5330  -12.3818   22.1465 F   0  0  0  0  0  0  0  0  0  0  0  0
  -33.8870  -12.3831   20.7830 F   0  0  0  0  0  0  0  0  0  0  0  0
  1  2  1  0  0  0  0
  1  5  2  0  0  0  0
  2  6  2  0  0  0  0
  3 10  2  0  0  0  0
  3 18  1  0  0  0  0
  4 11  1  0  0  0  0
  4 18  2  0  0  0  0
  5 20  1  0  0  0  0
  6 22  1  0  0  0  0
  7 12  2  0  0  0  0
  7 21  1  0  0  0  0
  8  9  2  0  0  0  0
  8 24  1  0  0  0  0
  9 25  1  0  0  0  0
 10 26  1  0  0  0  0
 11 26  2  0  0  0  0
 12 27  1  0  0  0  0
 13 14  2  0  0  0  0
 13 28  1  0  0  0  0
 14 29  1  0  0  0  0
 15 23  1  0  0  0  0
 15 27  2  0  0  0  0
 16 24  2  0  0  0  0
 16 30  1  0  0  0  0
 17 29  2  0  0  0  0
 17 31  1  0  0  0  0
 18 32  1  0  0  0  0
 19 32  1  0  0  0  0
 19 33  2  0  0  0  0
 19 34  1  0  0  0  0
 20 22  2  0  0  0  0
 20 39  1  0  0  0  0
 21 23  2  0  0  0  0
 21 40  1  0  0  0  0
 22 48  1  0  0  0  0
 23 41  1  0  0  0  0
 24 72  1  0  0  0  0
 25 30  2  0  0  0  0
 25 73  1  0  0  0  0
 26 80  1  0  0  0  0
 27 81  1  0  0  0  0
 28 31  2  0  0  0  0
 28 80  1  0  0  0  0
 29 82  1  0  0  0  0
 30 83  1  0  0  0  0
 31 84  1  0  0  0  0
 32 64  2  0  0  0  0
 33 65  1  0  0  0  0
 33 68  1  0  0  0  0
 34 69  1  0  0  0  0
 34 75  2  0  0  0  0
 35 49  1  0  0  0  0
 35 70  1  0  0  0  0
 35 76  2  0  0  0  0
 36 61  1  0  0  0  0
 36 66  1  0  0  0  0
 36 77  2  0  0  0  0
 37 62  1  0  0  0  0
 37 71  1  0  0  0  0
 37 78  2  0  0  0  0
 38 67  1  0  0  0  0
 38 72  1  0  0  0  0
 38 79  2  0  0  0  0
 39 42  1  0  0  0  0
 40 49  1  0  0  0  0
 41 66  1  0  0  0  0
 42 44  1  0  0  0  0
 43 45  1  0  0  0  0
 43 46  1  0  0  0  0
 44 48  1  0  0  0  0
 45 50  1  0  0  0  0
 46 67  1  0  0  0  0
 47 50  1  0  0  0  0
 47 67  1  0  0  0  0
 48 70  1  0  0  0  0
 49 66  1  0  0  0  0
 50 65  1  0  0  0  0
 51 62  1  0  0  0  0
 52 63  1  0  0  0  0
 53 63  1  0  0  0  0
 54 63  1  0  0  0  0
 55 72  1  0  0  0  0
 56 73  1  0  0  0  0
 57 74  1  0  0  0  0
 58 59  1  0  0  0  0
 58 60  1  0  0  0  0
 59 73  1  0  0  0  0
 60 81  1  0  0  0  0
 61 63  1  0  0  0  0
 61 71  1  0  0  0  0
 62 74  1  0  0  0  0
 64 65  1  0  0  0  0
M  CHG  1  74   1
M  ISO  4  38 100  60 101  72 100  81 101
M  END
> <Batch ID>
0016

> <Smiles>
CNC(C)C(=O)NC(C(=O)N1Cc2cc([101O:1][101CH2:1]CCN(C)c3ccc([100N:0](C)[100C:0](=O)N4CCCC(n5nc(-c6ccc(Oc7ccc(F)cc7F)cc6)c(C(N)=O)c5N)C4)cc3F)ccc2CC1C(=O)NC1CCCc2ccccc21)C(C)(C)C

> <Shape>
0.187

> <Color>
0.098

> <Negative vol penalty>
0.000

$$$$

  -OEChem-04042320573D

 84 92  0     1  0  0  0  0  0999 V2000
  -21.8635   -8.8446   21.6555 C   0  0  0  0  0  0  0  0  0  0  0  0
  -22.6700   -9.6712   22.4312 C   0  0  0  0  0  0  0  0  0  0  0  0
  -22.3786  -29.7763   20.0563 C   0  0  0  0  0  0  0  0  0  0  0  0
  -23.0635  -29.0834   22.2671 C   0  0  0  0  0  0  0  0  0  0  0  0
  -22.3331   -8.3602   20.4353 C   0  0  0  0  0  0  0  0  0  0  0  0
  -23.9470  -10.0131   21.9876 C   0  0  0  0  0  0  0  0  0  0  0  0
  -24.9594  -14.9381   22.5908 C   0  0  0  0  0  0  0  0  0  0  0  0
  -28.7362  -22.2060   24.3487 C   0  0  0  0  0  0  0  0  0  0  0  0
  -28.9019  -20.5267   22.6196 C   0  0  0  0  0  0  0  0  0  0  0  0
  -28.5595  -23.1900   23.3761 C   0  0  0  0  0  0  0  0  0  0  0  0
  -28.7251  -21.5108   21.6470 C   0  0  0  0  0  0  0  0  0  0  0  0
  -21.0743  -29.9564   20.5168 C   0  0  0  0  0  0  0  0  0  0  0  0
  -21.7593  -29.2635   22.7276 C   0  0  0  0  0  0  0  0  0  0  0  0
  -25.2983  -15.3660   23.8737 C   0  0  0  0  0  0  0  0  0  0  0  0
  -19.7826  -31.8408   23.6608 C   0  0  0  0  0  0  0  0  0  0  0  0
  -19.6118  -32.5040   24.8760 C   0  0  0  0  0  0  0  0  0  0  0  0
  -27.6310  -15.3406   23.2594 C   0  0  0  0  0  0  0  0  0  0  0  0
  -18.5181  -30.5520   25.7875 C   0  0  0  0  0  0  0  0  0  0  0  0
  -23.3732  -29.3397   20.9314 C   0  0  0  0  0  0  0  0  0  0  0  0
  -25.7547  -30.1080   20.4353 C   0  0  0  0  0  0  0  0  0  0  0  0
  -23.6128   -8.7042   19.9720 C   0  0  0  0  0  0  0  0  0  0  0  0
  -25.9561  -14.6974   21.6343 C   0  0  0  0  0  0  0  0  0  0  0  0
  -24.4346   -9.5318   20.7606 C   0  0  0  0  0  0  0  0  0  0  0  0
  -27.3019  -14.9122   21.9643 C   0  0  0  0  0  0  0  0  0  0  0  0
  -28.9075  -20.8743   23.9705 C   0  0  0  0  0  0  0  0  0  0  0  0
  -28.5539  -22.8425   22.0253 C   0  0  0  0  0  0  0  0  0  0  0  0
  -20.7647  -29.7000   21.8524 C   0  0  0  0  0  0  0  0  0  0  0  0
  -26.6345  -15.5645   24.2091 C   0  0  0  0  0  0  0  0  0  0  0  0
  -19.3211  -30.5332   23.5090 C   0  0  0  0  0  0  0  0  0  0  0  0
  -18.9795  -31.8596   25.9393 C   0  0  0  0  0  0  0  0  0  0  0  0
  -18.6889  -29.8889   24.5723 C   0  0  0  0  0  0  0  0  0  0  0  0
  -24.7205  -29.1530   20.4562 C   0  0  0  0  0  0  0  0  0  0  0  0
  -26.8270  -29.4411   19.8950 C   0  0  0  0  0  0  0  0  0  0  0  0
  -25.7467  -31.4755   20.8659 C   0  0  0  0  0  0  0  0  0  0  0  0
  -26.9276  -12.1506   19.9992 C   0  0  0  0  0  0  0  0  0  0  0  0
  -28.8254  -14.3171   18.5070 C   0  0  0  0  0  0  0  0  0  0  0  0
  -30.4181  -17.3335   18.6140 C   0  0  0  0  0  0  0  0  0  0  0  0
  -27.5917  -18.1935   26.1616 C   0  0  0  0  0  0  0  0  0  0  0  0
  -28.3431  -23.6663   19.6540 C   0  0  0  0  0  0  0  0  0  0  0  0
  -24.0948   -8.1179   18.6687 C   0  0  0  0  0  0  0  0  0  0  0  0
  -25.5722  -14.2618   20.2467 C   0  0  0  0  0  0  0  0  0  0  0  0
  -28.4084  -14.6875   20.9675 C   0  0  0  0  0  0  0  0  0  0  0  0
  -25.3167   -8.8307   18.0951 C   0  0  0  0  0  0  0  0  0  0  0  0
  -27.8860  -25.8650   16.8910 C   0  0  0  0  0  0  0  0  0  0  0  0
  -26.3641   -9.0528   19.1816 C   0  0  0  0  0  0  0  0  0  0  0  0
  -27.1218  -27.0474   17.4911 C   0  0  0  0  0  0  0  0  0  0  0  0
  -27.4484  -24.5364   17.5051 C   0  0  0  0  0  0  0  0  0  0  0  0
  -26.7299  -25.6679   19.5721 C   0  0  0  0  0  0  0  0  0  0  0  0
  -25.8162   -9.9451   20.3019 C   0  0  1  0  0  0  0  0  0  0  0  0
  -26.7035  -13.5530   19.5085 C   0  0  1  0  0  0  0  0  0  0  0  0
  -27.1822  -27.0341   19.0312 C   0  0  2  0  0  0  0  0  0  0  0  0
  -30.4370  -19.0825   24.8883 C   0  0  0  0  0  0  0  0  0  0  0  0
  -31.7551  -19.2912   17.7911 C   0  0  0  0  0  0  0  0  0  0  0  0
  -25.5791  -17.0248   27.1261 C   0  0  0  0  0  0  0  0  0  0  0  0
  -31.1959  -12.5180   19.1806 C   0  0  0  0  0  0  0  0  0  0  0  0
  -32.7126  -14.4447   18.6751 C   0  0  0  0  0  0  0  0  0  0  0  0
  -31.2545  -13.5041   16.8830 C   0  0  0  0  0  0  0  0  0  0  0  0
  -27.9991  -18.7115   17.6096 C   0  0  0  0  0  0  0  0  0  0  0  0
  -29.0993  -19.8066   25.0259 C   0  0  2  0  0  0  0  0  0  0  0  0
  -30.2126  -14.8646   18.7419 C   0  0  1  0  0  0  0  0  0  0  0  0
  -30.4855  -18.4731   17.6134 C   0  0  2  0  0  0  0  0  0  0  0  0
  -26.4399  -17.2358   25.8898 C   0  0  2  0  0  0  0  0  0  1  0  0
  -31.3234  -13.8353   18.3898 C   0  0  0  0  0  0  0  0  0  0  0  0
  -25.1015  -27.9696   19.9677 N   0  0  0  0  0  0  0  0  0  0  0  0
  -26.3870  -28.1766   19.6348 N   0  0  0  0  0  0  0  0  0  0  0  0
  -27.9827  -14.2559   19.6259 N   0  0  0  0  0  0  0  0  0  0  0  0
  -27.5359  -24.5967   18.9658 N   0  0  0  0  0  0  0  0  0  0  0  0
  -28.0938  -29.8190   19.6217 N   0  0  0  0  0  0  0  0  0  0  0  0
  -24.5613  -32.0018   21.3973 N   0  0  0  0  0  0  0  0  0  0  0  0
  -28.3741  -23.8418   21.0370 N   0  0  0  0  0  0  0  0  0  0  0  0
  -25.8193  -11.3325   19.8901 N   0  0  0  0  0  0  0  0  0  0  0  0
  -28.0071  -18.8619   25.0203 N   0  0  0  0  0  0  0  0  0  0  0  0
  -30.2924  -16.1112   17.9884 N   0  0  0  0  0  0  0  0  0  0  0  0
  -29.3148  -19.3798   17.7813 N   0  3  0  0  0  0  0  0  0  0  0  0
  -26.7559  -32.2138   20.7668 O   0  0  0  0  0  0  0  0  0  0  0  0
  -28.0253  -11.8337   20.4424 O   0  0  0  0  0  0  0  0  0  0  0  0
  -28.4992  -13.9637   17.3711 O   0  0  0  0  0  0  0  0  0  0  0  0
  -30.4753  -17.5097   19.8290 O   0  0  0  0  0  0  0  0  0  0  0  0
  -28.0914  -18.3250   27.2769 O   0  0  0  0  0  0  0  0  0  0  0  0
  -28.9829  -22.7962   19.0577 O   0  0  0  0  0  0  0  0  0  0  0  0
  -19.4921  -29.8758   22.3022 O   0  0  0  0  0  0  0  0  0  0  0  0
  -26.9681  -15.9815   25.4607 O   0  0  0  0  0  0  0  0  0  1  0  0
  -18.8170  -32.4961   27.1067 F   0  0  0  0  0  0  0  0  0  0  0  0
  -18.2444  -28.6323   24.4328 F   0  0  0  0  0  0  0  0  0  0  0  0
  1  2  1  0  0  0  0
  1  5  2  0  0  0  0
  2  6  2  0  0  0  0
  3 12  2  0  0  0  0
  3 19  1  0  0  0  0
  4 13  1  0  0  0  0
  4 19  2  0  0  0  0
  5 21  1  0  0  0  0
  6 23  1  0  0  0  0
  7 14  2  0  0  0  0
  7 22  1  0  0  0  0
  8 10  2  0  0  0  0
  8 25  1  0  0  0  0
  9 11  1  0  0  0  0
  9 25  2  0  0  0  0
 10 26  1  0  0  0  0
 11 26  2  0  0  0  0
 12 27  1  0  0  0  0
 13 27  2  0  0  0  0
 14 28  1  0  0  0  0
 15 16  2  0  0  0  0
 15 29  1  0  0  0  0
 16 30  1  0  0  0  0
 17 24  1  0  0  0  0
 17 28  2  0  0  0  0
 18 30  2  0  0  0  0
 18 31  1  0  0  0  0
 19 32  1  0  0  0  0
 20 32  1  0  0  0  0
 20 33  2  0  0  0  0
 20 34  1  0  0  0  0
 21 23  2  0  0  0  0
 21 40  1  0  0  0  0
 22 24  2  0  0  0  0
 22 41  1  0  0  0  0
 23 49  1  0  0  0  0
 24 42  1  0  0  0  0
 25 59  1  0  0  0  0
 26 70  1  0  0  0  0
 27 81  1  0  0  0  0
 28 82  1  0  0  0  0
 29 31  2  0  0  0  0
 29 81  1  0  0  0  0
 30 83  1  0  0  0  0
 31 84  1  0  0  0  0
 32 64  2  0  0  0  0
 33 65  1  0  0  0  0
 33 68  1  0  0  0  0
 34 69  1  0  0  0  0
 34 75  2  0  0  0  0
 35 50  1  0  0  0  0
 35 71  1  0  0  0  0
 35 76  2  0  0  0  0
 36 60  1  0  0  0  0
 36 66  1  0  0  0  0
 36 77  2  0  0  0  0
 37 61  1  0  0  0  0
 37 73  1  0  0  0  0
 37 78  2  0  0  0  0
 38 62  1  0  0  0  0
 38 72  1  0  0  0  0
 38 79  2  0  0  0  0
 39 67  1  0  0  0  0
 39 70  1  0  0  0  0
 39 80  2  0  0  0  0
 40 43  1  0  0  0  0
 41 50  1  0  0  0  0
 42 66  1  0  0  0  0
 43 45  1  0  0  0  0
 44 46  1  0  0  0  0
 44 47  1  0  0  0  0
 45 49  1  0  0  0  0
 46 51  1  0  0  0  0
 47 67  1  0  0  0  0
 48 51  1  0  0  0  0
 48 67  1  0  0  0  0
 49 71  1  0  0  0  0
 50 66  1  0  0  0  0
 51 65  1  0  0  0  0
 52 59  1  0  0  0  0
 53 61  1  0  0  0  0
 54 62  1  0  0  0  0
 55 63  1  0  0  0  0
 56 63  1  0  0  0  0
 57 63  1  0  0  0  0
 58 74  1  0  0  0  0
 59 72  1  0  0  0  0
 60 63  1  0  0  0  0
 60 73  1  0  0  0  0
 61 74  1  0  0  0  0
 62 82  1  0  0  0  0
 64 65  1  0  0  0  0
M  CHG  1  74   1
M  ISO  4  39 100  62 101  70 100  82 101
M  END
> <Batch ID>
0016

> <Smiles>
CNC(C)C(=O)NC(C(=O)N1Cc2cc([101O:1][101CH:1](C)C(=O)NC(C)c3ccc([100NH:0][100C:0](=O)N4CCCC(n5nc(-c6ccc(Oc7ccc(F)cc7F)cc6)c(C(N)=O)c5N)C4)cc3)ccc2CC1C(=O)NC1CCCc2ccccc21)C(C)(C)C

> <Shape>
0.231

> <Color>
0.066

> <Negative vol penalty>
0.000

$$$$

  -OEChem-04042320573D

 89 97  0     1  0  0  0  0  0999 V2000
  -16.8819  -26.4532   22.1674 C   0  0  0  0  0  0  0  0  0  0  0  0
  -18.1548  -25.9301   21.9637 C   0  0  0  0  0  0  0  0  0  0  0  0
  -21.7673  -22.8217   20.6875 C   0  0  0  0  0  0  0  0  0  0  0  0
  -23.7041  -21.8467   19.6221 C   0  0  0  0  0  0  0  0  0  0  0  0
  -16.7316  -27.7719   22.5945 C   0  0  0  0  0  0  0  0  0  0  0  0
  -19.2782  -26.7257   22.1860 C   0  0  0  0  0  0  0  0  0  0  0  0
  -22.8998  -24.2975   24.7614 C   0  0  0  0  0  0  0  0  0  0  0  0
  -29.6313  -22.0597   19.3093 C   0  0  0  0  0  0  0  0  0  0  0  0
  -30.3233  -23.3075   21.2590 C   0  0  0  0  0  0  0  0  0  0  0  0
  -29.5070  -23.2495   18.5919 C   0  0  0  0  0  0  0  0  0  0  0  0
  -30.1991  -24.4973   20.5416 C   0  0  0  0  0  0  0  0  0  0  0  0
  -21.3376  -21.5508   21.0695 C   0  0  0  0  0  0  0  0  0  0  0  0
  -23.2745  -20.5758   20.0041 C   0  0  0  0  0  0  0  0  0  0  0  0
  -23.6892  -23.3940   24.0514 C   0  0  0  0  0  0  0  0  0  0  0  0
  -23.2990  -18.6754   22.7985 C   0  0  0  0  0  0  0  0  0  0  0  0
  -24.2479  -17.8071   23.3379 C   0  0  0  0  0  0  0  0  0  0  0  0
  -25.4324  -25.0535   23.8893 C   0  0  0  0  0  0  0  0  0  0  0  0
  -23.8265  -16.2364   21.5512 C   0  0  0  0  0  0  0  0  0  0  0  0
  -22.9505  -22.9696   19.9638 C   0  0  0  0  0  0  0  0  0  0  0  0
  -22.7090  -25.2013   18.7519 C   0  0  0  0  0  0  0  0  0  0  0  0
  -17.8540  -28.5811   22.8314 C   0  0  0  0  0  0  0  0  0  0  0  0
  -23.3672  -25.5917   25.0317 C   0  0  0  0  0  0  0  0  0  0  0  0
  -19.1427  -28.0569   22.6154 C   0  0  0  0  0  0  0  0  0  0  0  0
  -24.6480  -25.9708   24.6051 C   0  0  0  0  0  0  0  0  0  0  0  0
  -30.0394  -22.0887   20.6428 C   0  0  0  0  0  0  0  0  0  0  0  0
  -29.7909  -24.4683   19.2081 C   0  0  0  0  0  0  0  0  0  0  0  0
  -22.0912  -20.4279   20.7278 C   0  0  0  0  0  0  0  0  0  0  0  0
  -24.9545  -23.7728   23.6127 C   0  0  0  0  0  0  0  0  0  0  0  0
  -22.6137  -18.3242   21.6354 C   0  0  0  0  0  0  0  0  0  0  0  0
  -24.5117  -16.5876   22.7143 C   0  0  0  0  0  0  0  0  0  0  0  0
  -22.8774  -17.1047   21.0118 C   0  0  0  0  0  0  0  0  0  0  0  0
  -23.3946  -24.2821   19.5684 C   0  0  0  0  0  0  0  0  0  0  0  0
  -23.5466  -26.2875   18.6794 C   0  0  0  0  0  0  0  0  0  0  0  0
  -21.4294  -25.0840   18.1158 C   0  0  0  0  0  0  0  0  0  0  0  0
  -22.4157  -28.5260   24.2648 C   0  0  0  0  0  0  0  0  0  0  0  0
  -24.7998  -29.4055   26.2809 C   0  0  0  0  0  0  0  0  0  0  0  0
  -27.9613  -20.9885   22.5751 C   0  0  0  0  0  0  0  0  0  0  0  0
  -27.7491  -28.6090   27.8021 C   0  0  0  0  0  0  0  0  0  0  0  0
  -29.3212  -26.9097   19.1081 C   0  0  0  0  0  0  0  0  0  0  0  0
  -17.6403  -30.0151   23.2469 C   0  0  0  0  0  0  0  0  0  0  0  0
  -22.5141  -26.5458   25.8220 C   0  0  0  0  0  0  0  0  0  0  0  0
  -25.2043  -27.3417   24.8871 C   0  0  0  0  0  0  0  0  0  0  0  0
  -18.8912  -30.6760   23.8201 C   0  0  0  0  0  0  0  0  0  0  0  0
  -26.9339  -28.5847   21.1424 C   0  0  0  0  0  0  0  0  0  0  0  0
  -20.1006  -30.3860   22.9369 C   0  0  0  0  0  0  0  0  0  0  0  0
  -25.6814  -27.7450   20.8943 C   0  0  0  0  0  0  0  0  0  0  0  0
  -28.1918  -27.7210   21.2418 C   0  0  0  0  0  0  0  0  0  0  0  0
  -27.1392  -25.9756   19.8382 C   0  0  0  0  0  0  0  0  0  0  0  0
  -20.3863  -28.8809   22.8696 C   0  0  1  0  0  0  0  0  0  0  0  0
  -22.8853  -28.0079   25.5947 C   0  0  1  0  0  0  0  0  0  0  0  0
  -25.8672  -26.8226   19.6766 C   0  0  1  0  0  0  0  0  0  0  0  0
  -29.4751  -29.5448   29.3650 C   0  0  0  0  0  0  0  0  0  0  0  0
  -28.7418  -16.4082   21.6945 C   0  0  0  0  0  0  0  0  0  0  0  0
  -30.5577  -17.8964   22.5837 C   0  0  0  0  0  0  0  0  0  0  0  0
  -28.2784  -17.9522   23.6072 C   0  0  0  0  0  0  0  0  0  0  0  0
  -25.8969  -31.1428   24.0252 C   0  0  0  0  0  0  0  0  0  0  0  0
  -28.0594  -31.2832   25.2790 C   0  0  0  0  0  0  0  0  0  0  0  0
  -25.9721  -32.2026   26.2892 C   0  0  0  0  0  0  0  0  0  0  0  0
  -30.1282  -25.7307   17.0749 C   0  0  0  0  0  0  0  0  0  0  0  0
  -27.2808  -26.4655   29.7883 C   0  0  0  0  0  0  0  0  0  0  0  0
  -30.1731  -20.8080   21.4149 C   0  0  0  0  0  0  0  0  0  0  0  0
  -26.4870  -20.6832   22.3316 C   0  0  0  0  0  0  0  0  0  0  0  0
  -28.6006  -18.9135   21.3215 C   0  0  0  0  0  0  0  0  0  0  0  0
  -25.5524  -21.5067   23.2088 C   0  0  0  0  0  0  0  0  0  1  0  0
  -26.2734  -29.6974   26.1312 C   0  0  1  0  0  0  0  0  0  0  0  0
  -28.2004  -28.7238   29.2470 C   0  0  2  0  0  0  0  0  0  0  0  0
  -29.0523  -17.7937   22.2853 C   0  0  0  0  0  0  0  0  0  0  0  0
  -26.5395  -31.0562   25.4240 C   0  0  0  0  0  0  0  0  0  0  0  0
  -24.5767  -24.7439   19.9848 N   0  0  0  0  0  0  0  0  0  0  0  0
  -24.6405  -25.9652   19.4276 N   0  0  0  0  0  0  0  0  0  0  0  0
  -24.3296  -28.2408   25.6579 N   0  0  0  0  0  0  0  0  0  0  0  0
  -28.3049  -26.8295   20.0788 N   0  0  0  0  0  0  0  0  0  0  0  0
  -23.4467  -27.4772   18.0493 N   0  0  0  0  0  0  0  0  0  0  0  0
  -21.3729  -24.5464   16.8227 N   0  0  0  0  0  0  0  0  0  0  0  0
  -21.0495  -28.4378   24.0772 N   0  0  0  0  0  0  0  0  0  0  0  0
  -26.8473  -29.5974   27.4687 N   0  0  0  0  0  0  0  0  0  0  0  0
  -29.6626  -25.7002   18.4656 N   0  0  0  0  0  0  0  0  0  0  0  0
  -28.8762  -20.2659   21.8011 N   0  0  0  0  0  0  0  0  0  0  0  0
  -28.4577  -27.3717   29.8183 N   0  3  0  0  0  0  0  0  0  0  0  0
  -20.3694  -25.4602   18.6711 O   0  0  0  0  0  0  0  0  0  0  0  0
  -23.2322  -28.9741   23.4684 O   0  0  0  0  0  0  0  0  0  0  0  0
  -24.0934  -30.1785   26.9329 O   0  0  0  0  0  0  0  0  0  0  0  0
  -28.2976  -21.8299   23.4125 O   0  0  0  0  0  0  0  0  0  0  0  0
  -28.1586  -27.7327   27.0440 O   0  0  0  0  0  0  0  0  0  0  0  0
  -29.8635  -27.9831   18.8188 O   0  0  0  0  0  0  0  0  0  0  0  0
  -21.6724  -19.1877   21.1006 O   0  0  0  0  0  0  0  0  0  0  0  0
  -25.7268  -22.8930   22.9189 O   0  0  0  0  0  0  0  0  0  1  0  0
  -25.4242  -15.7546   23.2317 F   0  0  0  0  0  0  0  0  0  0  0  0
  -22.2231  -16.7623   19.8935 F   0  0  0  0  0  0  0  0  0  0  0  0
  1  2  1  0  0  0  0
  1  5  2  0  0  0  0
  2  6  2  0  0  0  0
  3 12  2  0  0  0  0
  3 19  1  0  0  0  0
  4 13  1  0  0  0  0
  4 19  2  0  0  0  0
  5 21  1  0  0  0  0
  6 23  1  0  0  0  0
  7 14  2  0  0  0  0
  7 22  1  0  0  0  0
  8 10  2  0  0  0  0
  8 25  1  0  0  0  0
  9 11  1  0  0  0  0
  9 25  2  0  0  0  0
 10 26  1  0  0  0  0
 11 26  2  0  0  0  0
 12 27  1  0  0  0  0
 13 27  2  0  0  0  0
 14 28  1  0  0  0  0
 15 16  2  0  0  0  0
 15 29  1  0  0  0  0
 16 30  1  0  0  0  0
 17 24  1  0  0  0  0
 17 28  2  0  0  0  0
 18 30  2  0  0  0  0
 18 31  1  0  0  0  0
 19 32  1  0  0  0  0
 20 32  1  0  0  0  0
 20 33  2  0  0  0  0
 20 34  1  0  0  0  0
 21 23  2  0  0  0  0
 21 40  1  0  0  0  0
 22 24  2  0  0  0  0
 22 41  1  0  0  0  0
 23 49  1  0  0  0  0
 24 42  1  0  0  0  0
 25 61  1  0  0  0  0
 26 77  1  0  0  0  0
 27 86  1  0  0  0  0
 28 87  1  0  0  0  0
 29 31  2  0  0  0  0
 29 86  1  0  0  0  0
 30 88  1  0  0  0  0
 31 89  1  0  0  0  0
 32 69  2  0  0  0  0
 33 70  1  0  0  0  0
 33 73  1  0  0  0  0
 34 74  1  0  0  0  0
 34 80  2  0  0  0  0
 35 50  1  0  0  0  0
 35 75  1  0  0  0  0
 35 81  2  0  0  0  0
 36 65  1  0  0  0  0
 36 71  1  0  0  0  0
 36 82  2  0  0  0  0
 37 62  1  0  0  0  0
 37 78  1  0  0  0  0
 37 83  2  0  0  0  0
 38 66  1  0  0  0  0
 38 76  1  0  0  0  0
 38 84  2  0  0  0  0
 39 72  1  0  0  0  0
 39 77  1  0  0  0  0
 39 85  2  0  0  0  0
 40 43  1  0  0  0  0
 41 50  1  0  0  0  0
 42 71  1  0  0  0  0
 43 45  1  0  0  0  0
 44 46  1  0  0  0  0
 44 47  1  0  0  0  0
 45 49  1  0  0  0  0
 46 51  1  0  0  0  0
 47 72  1  0  0  0  0
 48 51  1  0  0  0  0
 48 72  1  0  0  0  0
 49 75  1  0  0  0  0
 50 71  1  0  0  0  0
 51 70  1  0  0  0  0
 52 66  1  0  0  0  0
 53 67  1  0  0  0  0
 54 67  1  0  0  0  0
 55 67  1  0  0  0  0
 56 68  1  0  0  0  0
 57 68  1  0  0  0  0
 58 68  1  0  0  0  0
 59 77  1  0  0  0  0
 60 79  1  0  0  0  0
 61 78  1  0  0  0  0
 62 64  1  0  0  0  0
 63 67  1  0  0  0  0
 63 78  1  0  0  0  0
 64 87  1  0  0  0  0
 65 68  1  0  0  0  0
 65 76  1  0  0  0  0
 66 79  1  0  0  0  0
 69 70  1  0  0  0  0
M  CHG  1  79   1
M  ISO  4  39 100  64 101  77 100  87 101
M  END
> <Batch ID>
0016

> <Smiles>
CNC(C)C(=O)NC(C(=O)N1Cc2cc([101O:1][101CH2:1]CC(=O)N(Cc3ccc([100N:0](C)[100C:0](=O)N4CCCC(n5nc(-c6ccc(Oc7ccc(F)cc7F)cc6)c(C(N)=O)c5N)C4)cc3)CC(C)(C)C)ccc2CC1C(=O)NC1CCCc2ccccc21)C(C)(C)C

> <Shape>
0.204

> <Color>
0.046

> <Negative vol penalty>
0.000

$$$$

  -OEChem-04042320573D

 86 95  0     1  0  0  0  0  0999 V2000
  -14.0691  -26.2405   21.7254 C   0  0  0  0  0  0  0  0  0  0  0  0
  -15.0289  -25.2526   21.5297 C   0  0  0  0  0  0  0  0  0  0  0  0
  -23.2319   -9.8286   19.9073 C   0  0  0  0  0  0  0  0  0  0  0  0
  -23.7747   -9.9245   22.2596 C   0  0  0  0  0  0  0  0  0  0  0  0
  -14.0242  -27.3452   20.8760 C   0  0  0  0  0  0  0  0  0  0  0  0
  -15.9437  -25.3684   20.4837 C   0  0  0  0  0  0  0  0  0  0  0  0
  -21.7875  -23.5363   20.4843 C   0  0  0  0  0  0  0  0  0  0  0  0
  -26.9464  -16.4193   17.5015 C   0  0  0  0  0  0  0  0  0  0  0  0
  -28.0105  -15.5594   17.2299 C   0  0  0  0  0  0  0  0  0  0  0  0
  -22.5035   -8.6588   20.1231 C   0  0  0  0  0  0  0  0  0  0  0  0
  -23.0462   -8.7547   22.4754 C   0  0  0  0  0  0  0  0  0  0  0  0
  -22.4121  -22.3929   19.9881 C   0  0  0  0  0  0  0  0  0  0  0  0
  -19.4588   -7.8053   21.3206 C   0  0  0  0  0  0  0  0  0  0  0  0
  -18.2047   -7.7022   20.7187 C   0  0  0  0  0  0  0  0  0  0  0  0
  -22.9757  -23.5846   17.9679 C   0  0  0  0  0  0  0  0  0  0  0  0
  -26.6314  -14.3494   15.6580 C   0  0  0  0  0  0  0  0  0  0  0  0
  -18.9439   -5.7428   19.5140 C   0  0  0  0  0  0  0  0  0  0  0  0
  -23.8675  -10.4615   20.9756 C   0  0  0  0  0  0  0  0  0  0  0  0
  -24.1419  -12.9923   20.8099 C   0  0  0  0  0  0  0  0  0  0  0  0
  -14.9451  -27.4794   19.8250 C   0  0  0  0  0  0  0  0  0  0  0  0
  -21.7428  -24.7113   19.7201 C   0  0  0  0  0  0  0  0  0  0  0  0
  -15.9103  -26.4753   19.6186 C   0  0  0  0  0  0  0  0  0  0  0  0
  -22.3522  -24.7424   18.4577 C   0  0  0  0  0  0  0  0  0  0  0  0
  -25.7247  -16.2442   16.8515 C   0  0  0  0  0  0  0  0  0  0  0  0
  -27.8530  -14.5245   16.3081 C   0  0  0  0  0  0  0  0  0  0  0  0
  -22.4107   -8.1218   21.4071 C   0  0  0  0  0  0  0  0  0  0  0  0
  -23.0037  -22.4160   18.7286 C   0  0  0  0  0  0  0  0  0  0  0  0
  -20.4555   -6.8772   21.0191 C   0  0  0  0  0  0  0  0  0  0  0  0
  -17.9473   -6.6710   19.8155 C   0  0  0  0  0  0  0  0  0  0  0  0
  -25.5673  -15.2093   15.9297 C   0  0  0  0  0  0  0  0  0  0  0  0
  -20.1981   -5.8460   20.1158 C   0  0  0  0  0  0  0  0  0  0  0  0
  -24.6206  -11.6696   20.7532 C   0  0  0  0  0  0  0  0  0  0  0  0
  -25.2397  -13.7672   20.5259 C   0  0  0  0  0  0  0  0  0  0  0  0
  -24.7287  -18.4785   17.5184 C   0  0  0  0  0  0  0  0  0  0  0  0
  -22.8228  -13.4770   21.0940 C   0  0  0  0  0  0  0  0  0  0  0  0
  -19.4217  -26.4860   18.4685 C   0  0  0  0  0  0  0  0  0  0  0  0
  -21.8776  -28.4613   17.7010 C   0  0  0  0  0  0  0  0  0  0  0  0
  -25.2132  -28.8311   17.0812 C   0  0  0  0  0  0  0  0  0  0  0  0
  -29.9460  -13.3123   16.9725 C   0  0  0  0  0  0  0  0  0  0  0  0
  -14.8274  -28.6678   18.9039 C   0  0  0  0  0  0  0  0  0  0  0  0
  -21.0885  -25.9442   20.2807 C   0  0  0  0  0  0  0  0  0  0  0  0
  -22.3494  -25.9847   17.6061 C   0  0  0  0  0  0  0  0  0  0  0  0
  -16.0700  -28.9009   18.0485 C   0  0  0  0  0  0  0  0  0  0  0  0
  -30.1299  -13.1228   20.6635 C   0  0  0  0  0  0  0  0  0  0  0  0
  -16.5444  -27.5907   17.4279 C   0  0  0  0  0  0  0  0  0  0  0  0
  -28.6973  -12.7669   21.0567 C   0  0  0  0  0  0  0  0  0  0  0  0
  -22.4702  -17.7638   17.7480 C   0  0  0  0  0  0  0  0  0  0  0  0
  -30.4849  -12.5932   19.2774 C   0  0  0  0  0  0  0  0  0  0  0  0
  -23.2540  -16.7130   16.9875 C   0  0  0  0  0  0  0  0  0  0  0  0
  -28.1017  -12.6796   18.6033 C   0  0  0  0  0  0  0  0  0  0  0  0
  -16.9356  -26.5774   18.5103 C   0  0  1  0  0  0  0  0  0  0  0  0
  -23.3092  -19.0205   17.5673 C   0  0  1  0  0  0  0  0  0  0  0  0
  -20.6541  -26.9327   19.2029 C   0  0  1  0  0  0  0  0  0  0  0  0
  -27.7064  -13.2368   19.9790 C   0  0  1  0  0  0  0  0  0  0  0  0
  -26.9186  -30.5578   16.4430 C   0  0  0  0  0  0  0  0  0  0  0  0
  -20.8777  -28.3802   14.8194 C   0  0  0  0  0  0  0  0  0  0  0  0
  -23.0922  -29.2991   14.0986 C   0  0  0  0  0  0  0  0  0  0  0  0
  -21.6191  -30.6364   15.6033 C   0  0  0  0  0  0  0  0  0  0  0  0
  -29.1927  -13.2602   14.6355 C   0  0  0  0  0  0  0  0  0  0  0  0
  -26.7276  -28.4315   19.5923 C   0  0  0  0  0  0  0  0  0  0  0  0
  -23.1007  -20.0404   18.6709 C   0  0  0  0  0  0  0  0  0  1  0  0
  -22.8075  -28.6019   16.5201 C   0  0  1  0  0  0  0  0  0  0  0  0
  -26.2267  -29.8397   17.5911 C   0  0  2  0  0  0  0  0  0  0  0  0
  -22.0977  -29.2053   15.2753 C   0  0  0  0  0  0  0  0  0  0  0  0
  -25.9212  -11.6042   20.4563 N   0  0  0  0  0  0  0  0  0  0  0  0
  -26.2691  -12.8955   20.3238 N   0  0  0  0  0  0  0  0  0  0  0  0
  -24.6377  -17.1256   17.1314 N   0  0  0  0  0  0  0  0  0  0  0  0
  -21.6917  -27.1626   18.1955 N   0  0  0  0  0  0  0  0  0  0  0  0
  -29.5003  -12.9984   18.2729 N   0  0  0  0  0  0  0  0  0  0  0  0
  -25.4153  -15.1024   20.4316 N   0  0  0  0  0  0  0  0  0  0  0  0
  -21.8121  -12.5445   21.3645 N   0  0  0  0  0  0  0  0  0  0  0  0
  -18.2387  -26.8957   19.0534 N   0  0  0  0  0  0  0  0  0  0  0  0
  -23.9503  -29.3773   16.9906 N   0  0  0  0  0  0  0  0  0  0  0  0
  -28.9537  -13.6353   16.0274 N   0  0  0  0  0  0  0  0  0  0  0  0
  -27.2660  -29.1589   18.4141 N   0  3  0  0  0  0  0  0  0  0  0  0
  -25.7162  -19.1684   17.7264 O   0  0  0  0  0  0  0  0  0  0  0  0
  -22.5448  -14.7002   21.0915 O   0  0  0  0  0  0  0  0  0  0  0  0
  -19.5357  -25.8203   17.4460 O   0  0  0  0  0  0  0  0  0  0  0  0
  -21.3417  -29.4676   18.1719 O   0  0  0  0  0  0  0  0  0  0  0  0
  -25.5126  -27.6756   16.7888 O   0  0  0  0  0  0  0  0  0  0  0  0
  -31.1414  -13.2549   16.6588 O   0  0  0  0  0  0  0  0  0  0  0  0
  -21.6998   -6.9805   21.6180 O   0  0  0  0  0  0  0  0  0  0  0  0
  -23.6134  -21.3011   18.2417 O   0  0  0  0  0  0  0  0  0  1  0  0
  -16.7424   -6.5712   19.2388 F   0  0  0  0  0  0  0  0  0  0  0  0
  -24.3973  -15.0311   15.2993 F   0  0  0  0  0  0  0  0  0  0  0  0
  -21.1513   -4.9506   19.8232 F   0  0  0  0  0  0  0  0  0  0  0  0
  1  2  1  0  0  0  0
  1  5  2  0  0  0  0
  2  6  2  0  0  0  0
  3 10  2  0  0  0  0
  3 18  1  0  0  0  0
  4 11  1  0  0  0  0
  4 18  2  0  0  0  0
  5 20  1  0  0  0  0
  6 22  1  0  0  0  0
  7 12  2  0  0  0  0
  7 21  1  0  0  0  0
  8  9  2  0  0  0  0
  8 24  1  0  0  0  0
  9 25  1  0  0  0  0
 10 26  1  0  0  0  0
 11 26  2  0  0  0  0
 12 27  1  0  0  0  0
 13 14  2  0  0  0  0
 13 28  1  0  0  0  0
 14 29  1  0  0  0  0
 15 23  1  0  0  0  0
 15 27  2  0  0  0  0
 16 25  2  0  0  0  0
 16 30  1  0  0  0  0
 17 29  2  0  0  0  0
 17 31  1  0  0  0  0
 18 32  1  0  0  0  0
 19 32  1  0  0  0  0
 19 33  2  0  0  0  0
 19 35  1  0  0  0  0
 20 22  2  0  0  0  0
 20 40  1  0  0  0  0
 21 23  2  0  0  0  0
 21 41  1  0  0  0  0
 22 51  1  0  0  0  0
 23 42  1  0  0  0  0
 24 30  2  0  0  0  0
 24 67  1  0  0  0  0
 25 74  1  0  0  0  0
 26 82  1  0  0  0  0
 27 83  1  0  0  0  0
 28 31  2  0  0  0  0
 28 82  1  0  0  0  0
 29 84  1  0  0  0  0
 30 85  1  0  0  0  0
 31 86  1  0  0  0  0
 32 65  2  0  0  0  0
 33 66  1  0  0  0  0
 33 70  1  0  0  0  0
 34 52  1  0  0  0  0
 34 67  1  0  0  0  0
 34 76  2  0  0  0  0
 35 71  1  0  0  0  0
 35 77  2  0  0  0  0
 36 53  1  0  0  0  0
 36 72  1  0  0  0  0
 36 78  2  0  0  0  0
 37 62  1  0  0  0  0
 37 68  1  0  0  0  0
 37 79  2  0  0  0  0
 38 63  1  0  0  0  0
 38 73  1  0  0  0  0
 38 80  2  0  0  0  0
 39 69  1  0  0  0  0
 39 74  1  0  0  0  0
 39 81  2  0  0  0  0
 40 43  1  0  0  0  0
 41 53  1  0  0  0  0
 42 68  1  0  0  0  0
 43 45  1  0  0  0  0
 44 46  1  0  0  0  0
 44 48  1  0  0  0  0
 45 51  1  0  0  0  0
 46 54  1  0  0  0  0
 47 49  1  0  0  0  0
 47 52  1  0  0  0  0
 48 69  1  0  0  0  0
 49 67  1  0  0  0  0
 50 54  1  0  0  0  0
 50 69  1  0  0  0  0
 51 72  1  0  0  0  0
 52 61  1  0  0  0  0
 53 68  1  0  0  0  0
 54 66  1  0  0  0  0
 55 63  1  0  0  0  0
 56 64  1  0  0  0  0
 57 64  1  0  0  0  0
 58 64  1  0  0  0  0
 59 74  1  0  0  0  0
 60 75  1  0  0  0  0
 61 83  1  0  0  0  0
 62 64  1  0  0  0  0
 62 73  1  0  0  0  0
 63 75  1  0  0  0  0
 65 66  1  0  0  0  0
M  CHG  1  75   1
M  ISO  4  39 100  61 101  74 100  83 101
M  END
> <Batch ID>
0016

> <Smiles>
CNC(C)C(=O)NC(C(=O)N1Cc2cc([101O:1][101CH2:1]C3CCN(c4ccc([100N:0](C)[100C:0](=O)N5CCCC(n6nc(-c7ccc(Oc8ccc(F)cc8F)cc7)c(C(N)=O)c6N)C5)cc4F)C3=O)ccc2CC1C(=O)NC1CCCc2ccccc21)C(C)(C)C

> <Shape>
0.134

> <Color>
0.177

> <Negative vol penalty>
0.000

$$$$

  -OEChem-04042320573D

 85 93  0     1  0  0  0  0  0999 V2000
  -16.9296  -30.1130   23.3773 C   0  0  0  0  0  0  0  0  0  0  0  0
  -18.1527  -30.7012   23.0718 C   0  0  0  0  0  0  0  0  0  0  0  0
  -25.3237  -14.2040   21.2713 C   0  0  0  0  0  0  0  0  0  0  0  0
  -26.2884  -13.0407   19.3864 C   0  0  0  0  0  0  0  0  0  0  0  0
  -16.8553  -28.7394   23.6044 C   0  0  0  0  0  0  0  0  0  0  0  0
  -19.3026  -29.9163   22.9944 C   0  0  0  0  0  0  0  0  0  0  0  0
  -25.5236  -29.4595   19.4721 C   0  0  0  0  0  0  0  0  0  0  0  0
  -31.6802  -24.4572   22.1219 C   0  0  0  0  0  0  0  0  0  0  0  0
  -31.3206  -23.4602   21.2151 C   0  0  0  0  0  0  0  0  0  0  0  0
  -24.3271  -13.2323   21.3610 C   0  0  0  0  0  0  0  0  0  0  0  0
  -25.2919  -12.0688   19.4761 C   0  0  0  0  0  0  0  0  0  0  0  0
  -26.8921  -29.3459   19.7133 C   0  0  0  0  0  0  0  0  0  0  0  0
  -24.0144  -10.0888   22.5668 C   0  0  0  0  0  0  0  0  0  0  0  0
  -23.7057   -9.5918   23.8330 C   0  0  0  0  0  0  0  0  0  0  0  0
  -26.6300  -26.9712   20.0471 C   0  0  0  0  0  0  0  0  0  0  0  0
  -29.6119  -24.1116   23.3220 C   0  0  0  0  0  0  0  0  0  0  0  0
  -21.4305  -10.3647   23.5817 C   0  0  0  0  0  0  0  0  0  0  0  0
  -26.3043  -14.1083   20.2840 C   0  0  0  0  0  0  0  0  0  0  0  0
  -28.5860  -15.1081   20.8336 C   0  0  0  0  0  0  0  0  0  0  0  0
  -18.0032  -27.9357   23.5203 C   0  0  0  0  0  0  0  0  0  0  0  0
  -24.6949  -28.3296   19.5274 C   0  0  0  0  0  0  0  0  0  0  0  0
  -19.2439  -28.5308   23.2220 C   0  0  0  0  0  0  0  0  0  0  0  0
  -25.2518  -27.0727   19.8037 C   0  0  0  0  0  0  0  0  0  0  0  0
  -30.8259  -24.7829   23.1754 C   0  0  0  0  0  0  0  0  0  0  0  0
  -30.1067  -22.7889   21.3617 C   0  0  0  0  0  0  0  0  0  0  0  0
  -24.3112  -12.1647   20.4634 C   0  0  0  0  0  0  0  0  0  0  0  0
  -27.4450  -28.1021   20.0037 C   0  0  0  0  0  0  0  0  0  0  0  0
  -23.0312  -10.7239   21.8081 C   0  0  0  0  0  0  0  0  0  0  0  0
  -22.4138   -9.7297   24.3405 C   0  0  0  0  0  0  0  0  0  0  0  0
  -21.7392  -10.8618   22.3155 C   0  0  0  0  0  0  0  0  0  0  0  0
  -29.2523  -23.1146   22.4151 C   0  0  0  0  0  0  0  0  0  0  0  0
  -27.3337  -15.1121   20.1904 C   0  0  0  0  0  0  0  0  0  0  0  0
  -29.1872  -16.2723   20.4217 C   0  0  0  0  0  0  0  0  0  0  0  0
  -29.1549  -14.1387   21.7237 C   0  0  0  0  0  0  0  0  0  0  0  0
  -22.2183  -27.4495   21.3150 C   0  0  0  0  0  0  0  0  0  0  0  0
  -22.1216  -24.9439   19.2572 C   0  0  0  0  0  0  0  0  0  0  0  0
  -23.7835  -22.9452   17.0457 C   0  0  0  0  0  0  0  0  0  0  0  0
  -28.6056  -21.8575   19.6083 C   0  0  0  0  0  0  0  0  0  0  0  0
  -17.8816  -26.4627   23.8204 C   0  0  0  0  0  0  0  0  0  0  0  0
  -23.2250  -28.4646   19.2385 C   0  0  0  0  0  0  0  0  0  0  0  0
  -24.4086  -25.8257   19.8549 C   0  0  0  0  0  0  0  0  0  0  0  0
  -19.0816  -25.6443   23.3507 C   0  0  0  0  0  0  0  0  0  0  0  0
  -27.9087  -19.5589   16.8082 C   0  0  0  0  0  0  0  0  0  0  0  0
  -20.3845  -26.3263   23.7558 C   0  0  0  0  0  0  0  0  0  0  0  0
  -27.7362  -18.2120   17.5082 C   0  0  0  0  0  0  0  0  0  0  0  0
  -27.4970  -20.7214   17.7065 C   0  0  0  0  0  0  0  0  0  0  0  0
  -28.0192  -19.3885   19.7266 C   0  0  0  0  0  0  0  0  0  0  0  0
  -20.5091  -27.7090   23.1045 C   0  0  1  0  0  0  0  0  0  0  0  0
  -22.3935  -27.3293   19.8276 C   0  0  1  0  0  0  0  0  0  0  0  0
  -28.4664  -18.1998   18.8623 C   0  0  1  0  0  0  0  0  0  0  0  0
  -23.4489  -20.9578   15.5506 C   0  0  0  0  0  0  0  0  0  0  0  0
  -22.1961  -23.1041   21.6902 C   0  0  0  0  0  0  0  0  0  0  0  0
  -22.8137  -21.2210   20.1603 C   0  0  0  0  0  0  0  0  0  0  0  0
  -20.6235  -22.3826   19.8845 C   0  0  0  0  0  0  0  0  0  0  0  0
  -30.7665  -20.7344   20.0968 C   0  0  0  0  0  0  0  0  0  0  0  0
  -24.4548  -24.5082   14.6239 C   0  0  0  0  0  0  0  0  0  0  0  0
  -31.9338  -28.2144   24.4924 C   0  0  0  0  0  0  0  0  0  0  0  0
  -31.2131  -25.8556   24.1503 C   0  0  0  0  0  0  0  0  0  0  0  0
  -30.6152  -28.6248   21.6478 C   0  0  0  0  0  0  0  0  0  0  0  0
  -30.2211  -27.6733   22.7675 C   0  0  0  0  0  0  0  0  0  0  0  0
  -29.4360  -29.1168   20.8177 C   0  0  0  0  0  0  0  0  0  1  0  0
  -22.7507  -23.5723   19.2124 C   0  0  1  0  0  0  0  0  0  0  0  0
  -23.4259  -22.4753   15.6473 C   0  0  2  0  0  0  0  0  0  0  0  0
  -22.1118  -22.5936   20.2379 C   0  0  0  0  0  0  0  0  0  0  0  0
  -27.1491  -16.1932   19.4281 N   0  0  0  0  0  0  0  0  0  0  0  0
  -28.2933  -16.8794   19.5896 N   0  0  0  0  0  0  0  0  0  0  0  0
  -22.9758  -26.0104   19.5714 N   0  0  0  0  0  0  0  0  0  0  0  0
  -28.1711  -20.6608   19.0039 N   0  0  0  0  0  0  0  0  0  0  0  0
  -30.3881  -16.8257   20.6939 N   0  0  0  0  0  0  0  0  0  0  0  0
  -28.4015  -13.0003   22.0416 N   0  0  0  0  0  0  0  0  0  0  0  0
  -20.9030  -27.5808   21.7178 N   0  0  0  0  0  0  0  0  0  0  0  0
  -22.6612  -23.1273   17.8259 N   0  0  0  0  0  0  0  0  0  0  0  0
  -29.7664  -21.7616   20.4059 N   0  0  0  0  0  0  0  0  0  0  0  0
  -24.3914  -23.0242   14.6536 N   0  3  0  0  0  0  0  0  0  0  0  0
  -31.4208  -27.2011   23.4976 N   0  3  1  0  0  0  0  0  0  0  0  0
  -30.2907  -14.2857   22.2352 O   0  0  0  0  0  0  0  0  0  0  0  0
  -23.2034  -27.4236   22.0435 O   0  0  0  0  0  0  0  0  0  0  0  0
  -20.9182  -25.0655   19.0149 O   0  0  0  0  0  0  0  0  0  0  0  0
  -24.9426  -23.1287   17.4107 O   0  0  0  0  0  0  0  0  0  0  0  0
  -28.0196  -22.9312   19.4250 O   0  0  0  0  0  0  0  0  0  0  0  0
  -23.3390  -11.2161   20.5508 O   0  0  0  0  0  0  0  0  0  0  0  0
  -28.7803  -27.9885   20.2402 O   0  0  0  0  0  0  0  0  0  1  0  0
  -22.1171   -9.2510   25.5558 F   0  0  0  0  0  0  0  0  0  0  0  0
  -20.7901  -11.4699   21.5908 F   0  0  0  0  0  0  0  0  0  0  0  0
  -27.7398  -22.3087   22.6333 Cl  0  0  0  0  0  0  0  0  0  0  0  0
  1  2  1  0  0  0  0
  1  5  2  0  0  0  0
  2  6  2  0  0  0  0
  3 10  2  0  0  0  0
  3 18  1  0  0  0  0
  4 11  1  0  0  0  0
  4 18  2  0  0  0  0
  5 20  1  0  0  0  0
  6 22  1  0  0  0  0
  7 12  2  0  0  0  0
  7 21  1  0  0  0  0
  8  9  2  0  0  0  0
  8 24  1  0  0  0  0
  9 25  1  0  0  0  0
 10 26  1  0  0  0  0
 11 26  2  0  0  0  0
 12 27  1  0  0  0  0
 13 14  2  0  0  0  0
 13 28  1  0  0  0  0
 14 29  1  0  0  0  0
 15 23  1  0  0  0  0
 15 27  2  0  0  0  0
 16 24  2  0  0  0  0
 16 31  1  0  0  0  0
 17 29  2  0  0  0  0
 17 30  1  0  0  0  0
 18 32  1  0  0  0  0
 19 32  1  0  0  0  0
 19 33  2  0  0  0  0
 19 34  1  0  0  0  0
 20 22  2  0  0  0  0
 20 39  1  0  0  0  0
 21 23  2  0  0  0  0
 21 40  1  0  0  0  0
 22 48  1  0  0  0  0
 23 41  1  0  0  0  0
 24 58  1  0  0  0  0
 25 31  2  0  0  0  0
 25 73  1  0  0  0  0
 26 81  1  0  0  0  0
 27 82  1  0  0  0  0
 28 30  2  0  0  0  0
 28 81  1  0  0  0  0
 29 83  1  0  0  0  0
 30 84  1  0  0  0  0
 31 85  1  0  0  0  0
 32 65  2  0  0  0  0
 33 66  1  0  0  0  0
 33 69  1  0  0  0  0
 34 70  1  0  0  0  0
 34 76  2  0  0  0  0
 35 49  1  0  0  0  0
 35 71  1  0  0  0  0
 35 77  2  0  0  0  0
 36 62  1  0  0  0  0
 36 67  1  0  0  0  0
 36 78  2  0  0  0  0
 37 63  1  0  0  0  0
 37 72  1  0  0  0  0
 37 79  2  0  0  0  0
 38 68  1  0  0  0  0
 38 73  1  0  0  0  0
 38 80  2  0  0  0  0
 39 42  1  0  0  0  0
 40 49  1  0  0  0  0
 41 67  1  0  0  0  0
 42 44  1  0  0  0  0
 43 45  1  0  0  0  0
 43 46  1  0  0  0  0
 44 48  1  0  0  0  0
 45 50  1  0  0  0  0
 46 68  1  0  0  0  0
 47 50  1  0  0  0  0
 47 68  1  0  0  0  0
 48 71  1  0  0  0  0
 49 67  1  0  0  0  0
 50 66  1  0  0  0  0
 51 63  1  0  0  0  0
 52 64  1  0  0  0  0
 53 64  1  0  0  0  0
 54 64  1  0  0  0  0
 55 73  1  0  0  0  0
 56 74  1  0  0  0  0
 57 75  1  0  0  0  0
 58 75  1  0  0  0  0
 59 60  1  0  0  0  0
 59 61  1  0  0  0  0
 60 75  1  0  0  0  0
 61 82  1  0  0  0  0
 62 64  1  0  0  0  0
 62 72  1  0  0  0  0
 63 74  1  0  0  0  0
 65 66  1  0  0  0  0
M  CHG  2  74   1  75   1
M  ISO  4  38 100  61 101  73 100  82 101
M  END
> <Batch ID>
0016

> <Smiles>
CNC(C)C(=O)NC(C(=O)N1Cc2cc([101O:1][101CH2:1]CCN(C)Cc3ccc([100N:0](C)[100C:0](=O)N4CCCC(n5nc(-c6ccc(Oc7ccc(F)cc7F)cc6)c(C(N)=O)c5N)C4)c(Cl)c3)ccc2CC1C(=O)NC1CCCc2ccccc21)C(C)(C)C

> <Shape>
0.238

> <Color>
0.071

> <Negative vol penalty>
0.000

$$$$

  -OEChem-04042320573D

 86 94  0     1  0  0  0  0  0999 V2000
  -16.5730  -29.0336   23.5140 C   0  0  0  0  0  0  0  0  0  0  0  0
  -17.4787  -28.2672   22.7876 C   0  0  0  0  0  0  0  0  0  0  0  0
  -23.4357   -9.5578   20.0224 C   0  0  0  0  0  0  0  0  0  0  0  0
  -23.9250   -9.9064   22.3626 C   0  0  0  0  0  0  0  0  0  0  0  0
  -17.0093  -30.1726   24.1893 C   0  0  0  0  0  0  0  0  0  0  0  0
  -18.8214  -28.6401   22.7352 C   0  0  0  0  0  0  0  0  0  0  0  0
  -23.6724  -24.9089   22.5080 C   0  0  0  0  0  0  0  0  0  0  0  0
  -29.2634  -18.8777   20.5322 C   0  0  0  0  0  0  0  0  0  0  0  0
  -27.8417  -19.0063   22.4814 C   0  0  0  0  0  0  0  0  0  0  0  0
  -29.3311  -20.2702   20.4896 C   0  0  0  0  0  0  0  0  0  0  0  0
  -27.9094  -20.3989   22.4388 C   0  0  0  0  0  0  0  0  0  0  0  0
  -22.8125   -8.3492   20.3327 C   0  0  0  0  0  0  0  0  0  0  0  0
  -23.3017   -8.6977   22.6729 C   0  0  0  0  0  0  0  0  0  0  0  0
  -24.4673  -24.4673   21.4512 C   0  0  0  0  0  0  0  0  0  0  0  0
  -20.1456   -7.5479   23.0438 C   0  0  0  0  0  0  0  0  0  0  0  0
  -19.2714   -7.5316   24.1306 C   0  0  0  0  0  0  0  0  0  0  0  0
  -26.0616  -26.2136   21.9285 C   0  0  0  0  0  0  0  0  0  0  0  0
  -20.6454   -5.8636   25.2109 C   0  0  0  0  0  0  0  0  0  0  0  0
  -23.9921  -10.3364   21.0373 C   0  0  0  0  0  0  0  0  0  0  0  0
  -24.0391  -12.8579   20.6528 C   0  0  0  0  0  0  0  0  0  0  0  0
  -18.3598  -30.5543   24.1531 C   0  0  0  0  0  0  0  0  0  0  0  0
  -24.0614  -26.0149   23.2774 C   0  0  0  0  0  0  0  0  0  0  0  0
  -19.2760  -29.7861   23.4096 C   0  0  0  0  0  0  0  0  0  0  0  0
  -25.2711  -26.6657   22.9961 C   0  0  0  0  0  0  0  0  0  0  0  0
  -28.5186  -18.2457   21.5280 C   0  0  0  0  0  0  0  0  0  0  0  0
  -28.6541  -21.0308   21.4429 C   0  0  0  0  0  0  0  0  0  0  0  0
  -22.7454   -7.9191   21.6579 C   0  0  0  0  0  0  0  0  0  0  0  0
  -25.6607  -25.1214   21.1595 C   0  0  0  0  0  0  0  0  0  0  0  0
  -21.2697   -6.7220   23.0405 C   0  0  0  0  0  0  0  0  0  0  0  0
  -19.5213   -6.6895   25.2141 C   0  0  0  0  0  0  0  0  0  0  0  0
  -21.5196   -5.8799   24.1240 C   0  0  0  0  0  0  0  0  0  0  0  0
  -24.6365  -11.5848   20.7174 C   0  0  0  0  0  0  0  0  0  0  0  0
  -25.0673  -13.7028   20.3129 C   0  0  0  0  0  0  0  0  0  0  0  0
  -22.6767  -13.2423   20.8800 C   0  0  0  0  0  0  0  0  0  0  0  0
  -22.8323  -28.8885   23.8563 C   0  0  0  0  0  0  0  0  0  0  0  0
  -25.2993  -29.0918   25.9528 C   0  0  0  0  0  0  0  0  0  0  0  0
  -28.4140  -28.0429   26.8721 C   0  0  0  0  0  0  0  0  0  0  0  0
  -30.4407  -15.2115   21.3929 C   0  0  0  0  0  0  0  0  0  0  0  0
  -18.7756  -31.8200   24.8601 C   0  0  0  0  0  0  0  0  0  0  0  0
  -23.2058  -26.4623   24.4308 C   0  0  0  0  0  0  0  0  0  0  0  0
  -25.7436  -27.8453   23.8047 C   0  0  0  0  0  0  0  0  0  0  0  0
  -20.2842  -31.9373   25.0621 C   0  0  0  0  0  0  0  0  0  0  0  0
  -29.7625  -12.7329   18.7287 C   0  0  0  0  0  0  0  0  0  0  0  0
  -21.0238  -31.5912   23.7737 C   0  0  0  0  0  0  0  0  0  0  0  0
  -28.3429  -12.2725   19.0557 C   0  0  0  0  0  0  0  0  0  0  0  0
  -30.5114  -13.1918   19.9762 C   0  0  0  0  0  0  0  0  0  0  0  0
  -28.3794  -13.7809   21.0816 C   0  0  0  0  0  0  0  0  0  0  0  0
  -20.7451  -30.1443   23.3492 C   0  0  1  0  0  0  0  0  0  0  0  0
  -23.4461  -27.9166   24.8240 C   0  0  1  0  0  0  0  0  0  0  0  0
  -27.5817  -13.3558   19.8396 C   0  0  2  0  0  0  0  0  0  0  0  0
  -31.1242  -23.1739   23.0652 C   0  0  0  0  0  0  0  0  0  0  0  0
  -30.1859  -28.4176   28.6091 C   0  0  0  0  0  0  0  0  0  0  0  0
  -26.0755  -31.7105   24.5926 C   0  0  0  0  0  0  0  0  0  0  0  0
  -28.3160  -31.5390   25.6967 C   0  0  0  0  0  0  0  0  0  0  0  0
  -26.2544  -31.7375   27.0869 C   0  0  0  0  0  0  0  0  0  0  0  0
  -30.2392  -16.8012   23.2670 C   0  0  0  0  0  0  0  0  0  0  0  0
  -28.2715  -25.2331   27.7906 C   0  0  0  0  0  0  0  0  0  0  0  0
  -28.4453  -16.7569   21.5741 C   0  0  0  0  0  0  0  0  0  0  0  0
  -29.7406  -22.8727   23.6234 C   0  0  0  0  0  0  0  0  0  0  0  0
  -27.7329  -22.8889   19.2176 C   0  0  0  0  0  0  0  0  0  0  0  0
  -28.6240  -23.2045   22.6407 C   0  0  0  0  0  0  0  0  0  0  0  0
  -28.9058  -23.1392   20.1578 C   0  0  0  0  0  0  0  0  0  0  0  0
  -26.3928  -23.3012   19.8153 C   0  0  0  0  0  0  0  0  0  1  0  0
  -26.7297  -29.5688   25.8776 C   0  0  1  0  0  0  0  0  0  0  0  0
  -28.9713  -27.5937   28.2108 C   0  0  2  0  0  0  0  0  0  0  0  0
  -26.8343  -31.1179   25.7968 C   0  0  0  0  0  0  0  0  0  0  0  0
  -25.9429  -11.6136   20.4405 N   0  0  0  0  0  0  0  0  0  0  0  0
  -26.1748  -12.9150   20.1986 N   0  0  0  0  0  0  0  0  0  0  0  0
  -24.8691  -28.2490   24.9182 N   0  0  0  0  0  0  0  0  0  0  0  0
  -29.7465  -14.1893   20.7253 N   0  0  0  0  0  0  0  0  0  0  0  0
  -25.1229  -15.0352   20.1035 N   0  0  0  0  0  0  0  0  0  0  0  0
  -21.7498  -12.2479   21.2211 N   0  0  0  0  0  0  0  0  0  0  0  0
  -21.5242  -29.2238   24.1493 N   0  0  0  0  0  0  0  0  0  0  0  0
  -27.4162  -28.9824   27.0235 N   0  0  0  0  0  0  0  0  0  0  0  0
  -28.7234  -22.4308   21.4016 N   0  0  3  0  0  0  0  0  0  0  0  0
  -29.6729  -16.1559   22.0911 N   0  0  0  0  0  0  0  0  0  0  0  0
  -29.3753  -26.1605   28.1491 N   0  3  0  0  0  0  0  0  0  0  0  0
  -22.2892  -14.4300   20.7672 O   0  0  0  0  0  0  0  0  0  0  0  0
  -23.4969  -29.3047   22.9146 O   0  0  0  0  0  0  0  0  0  0  0  0
  -24.5920  -29.4480   26.8985 O   0  0  0  0  0  0  0  0  0  0  0  0
  -28.8255  -27.6069   25.7991 O   0  0  0  0  0  0  0  0  0  0  0  0
  -31.6760  -15.2819   21.3586 O   0  0  0  0  0  0  0  0  0  0  0  0
  -22.1370   -6.7399   21.9611 O   0  0  0  0  0  0  0  0  0  0  0  0
  -26.4382  -24.6928   20.1282 O   0  0  0  0  0  0  0  0  0  1  0  0
  -18.6826   -6.6751   26.2584 F   0  0  0  0  0  0  0  0  0  0  0  0
  -22.5985   -5.0851   24.1271 F   0  0  0  0  0  0  0  0  0  0  0  0
  1  2  1  0  0  0  0
  1  5  2  0  0  0  0
  2  6  2  0  0  0  0
  3 12  2  0  0  0  0
  3 19  1  0  0  0  0
  4 13  1  0  0  0  0
  4 19  2  0  0  0  0
  5 21  1  0  0  0  0
  6 23  1  0  0  0  0
  7 14  2  0  0  0  0
  7 22  1  0  0  0  0
  8 10  2  0  0  0  0
  8 25  1  0  0  0  0
  9 11  1  0  0  0  0
  9 25  2  0  0  0  0
 10 26  1  0  0  0  0
 11 26  2  0  0  0  0
 12 27  1  0  0  0  0
 13 27  2  0  0  0  0
 14 28  1  0  0  0  0
 15 16  2  0  0  0  0
 15 29  1  0  0  0  0
 16 30  1  0  0  0  0
 17 24  1  0  0  0  0
 17 28  2  0  0  0  0
 18 30  2  0  0  0  0
 18 31  1  0  0  0  0
 19 32  1  0  0  0  0
 20 32  1  0  0  0  0
 20 33  2  0  0  0  0
 20 34  1  0  0  0  0
 21 23  2  0  0  0  0
 21 39  1  0  0  0  0
 22 24  2  0  0  0  0
 22 40  1  0  0  0  0
 23 48  1  0  0  0  0
 24 41  1  0  0  0  0
 25 58  1  0  0  0  0
 26 75  1  0  0  0  0
 27 83  1  0  0  0  0
 28 84  1  0  0  0  0
 29 31  2  0  0  0  0
 29 83  1  0  0  0  0
 30 85  1  0  0  0  0
 31 86  1  0  0  0  0
 32 67  2  0  0  0  0
 33 68  1  0  0  0  0
 33 71  1  0  0  0  0
 34 72  1  0  0  0  0
 34 78  2  0  0  0  0
 35 49  1  0  0  0  0
 35 73  1  0  0  0  0
 35 79  2  0  0  0  0
 36 64  1  0  0  0  0
 36 69  1  0  0  0  0
 36 80  2  0  0  0  0
 37 65  1  0  0  0  0
 37 74  1  0  0  0  0
 37 81  2  0  0  0  0
 38 70  1  0  0  0  0
 38 76  1  0  0  0  0
 38 82  2  0  0  0  0
 39 42  1  0  0  0  0
 40 49  1  0  0  0  0
 41 69  1  0  0  0  0
 42 44  1  0  0  0  0
 43 45  1  0  0  0  0
 43 46  1  0  0  0  0
 44 48  1  0  0  0  0
 45 50  1  0  0  0  0
 46 70  1  0  0  0  0
 47 50  1  0  0  0  0
 47 70  1  0  0  0  0
 48 73  1  0  0  0  0
 49 69  1  0  0  0  0
 50 68  1  0  0  0  0
 51 59  1  0  0  0  0
 52 65  1  0  0  0  0
 53 66  1  0  0  0  0
 54 66  1  0  0  0  0
 55 66  1  0  0  0  0
 56 76  1  0  0  0  0
 57 77  1  0  0  0  0
 58 76  1  0  0  0  0
 59 61  1  0  0  0  0
 60 62  1  0  0  0  0
 60 63  1  0  0  0  0
 61 75  1  0  0  0  0
 62 75  1  0  0  0  0
 63 84  1  0  0  0  0
 64 66  1  0  0  0  0
 64 74  1  0  0  0  0
 65 77  1  0  0  0  0
 67 68  1  0  0  0  0
M  CHG  1  77   1
M  ISO  4  38 100  63 101  76 100  84 101
M  END
> <Batch ID>
0016

> <Smiles>
CCCN(CC[101CH2:1][101O:1]c1ccc2c(c1)CN(C(=O)C(NC(=O)C(C)NC)C(C)(C)C)C(C(=O)NC1CCCc3ccccc31)C2)c1ccc(C[100N:0](C)[100C:0](=O)N2CCCC(n3nc(-c4ccc(Oc5ccc(F)cc5F)cc4)c(C(N)=O)c3N)C2)cc1

> <Shape>
0.314

> <Color>
0.221

> <Negative vol penalty>
0.000

$$$$

  -OEChem-04042320573D

 83 91  0     1  0  0  0  0  0999 V2000
  -28.9071  -25.3191   22.9254 C   0  0  0  0  0  0  0  0  0  0  0  0
  -27.6790  -24.6685   22.8905 C   0  0  0  0  0  0  0  0  0  0  0  0
  -24.9715  -28.8989   19.4361 C   0  0  0  0  0  0  0  0  0  0  0  0
  -25.8861  -27.1833   20.8705 C   0  0  0  0  0  0  0  0  0  0  0  0
  -30.0013  -24.7706   22.2596 C   0  0  0  0  0  0  0  0  0  0  0  0
  -27.5475  -23.4631   22.2001 C   0  0  0  0  0  0  0  0  0  0  0  0
  -23.2646  -21.0847   22.6512 C   0  0  0  0  0  0  0  0  0  0  0  0
  -16.8344  -24.8964   21.5031 C   0  0  0  0  0  0  0  0  0  0  0  0
  -16.9705  -25.0601   19.0965 C   0  0  0  0  0  0  0  0  0  0  0  0
  -17.1224  -23.5338   21.4267 C   0  0  0  0  0  0  0  0  0  0  0  0
  -17.2585  -23.6975   19.0201 C   0  0  0  0  0  0  0  0  0  0  0  0
  -26.2124  -29.5353   19.4060 C   0  0  0  0  0  0  0  0  0  0  0  0
  -27.1270  -27.8197   20.8404 C   0  0  0  0  0  0  0  0  0  0  0  0
  -22.0873  -21.5322   22.0531 C   0  0  0  0  0  0  0  0  0  0  0  0
  -30.6289  -28.7969   20.8484 C   0  0  0  0  0  0  0  0  0  0  0  0
  -31.7601  -28.0049   20.6516 C   0  0  0  0  0  0  0  0  0  0  0  0
  -22.3144  -19.8370   20.3519 C   0  0  0  0  0  0  0  0  0  0  0  0
  -30.8801  -27.2770   18.5226 C   0  0  0  0  0  0  0  0  0  0  0  0
  -24.8084  -27.7229   20.1684 C   0  0  0  0  0  0  0  0  0  0  0  0
  -23.0567  -26.0756   19.3165 C   0  0  0  0  0  0  0  0  0  0  0  0
  -29.8791  -23.5643   21.5505 C   0  0  0  0  0  0  0  0  0  0  0  0
  -23.9826  -20.0153   22.0969 C   0  0  0  0  0  0  0  0  0  0  0  0
  -28.6460  -22.8812   21.5419 C   0  0  0  0  0  0  0  0  0  0  0  0
  -23.4991  -19.3763   20.9463 C   0  0  0  0  0  0  0  0  0  0  0  0
  -16.7584  -25.6596   20.3380 C   0  0  0  0  0  0  0  0  0  0  0  0
  -17.3344  -22.9343   20.1852 C   0  0  0  0  0  0  0  0  0  0  0  0
  -27.2901  -28.9957   20.1081 C   0  0  0  0  0  0  0  0  0  0  0  0
  -21.6136  -20.9102   20.9017 C   0  0  0  0  0  0  0  0  0  0  0  0
  -29.6232  -28.8289   19.8823 C   0  0  0  0  0  0  0  0  0  0  0  0
  -31.8857  -27.2450   19.4887 C   0  0  0  0  0  0  0  0  0  0  0  0
  -29.7489  -28.0689   18.7194 C   0  0  0  0  0  0  0  0  0  0  0  0
  -23.5267  -27.0654   20.2004 C   0  0  0  0  0  0  0  0  0  0  0  0
  -21.7944  -25.7811   19.7706 C   0  0  0  0  0  0  0  0  0  0  0  0
  -23.7035  -25.4759   18.1861 C   0  0  0  0  0  0  0  0  0  0  0  0
  -26.8963  -19.6627   20.8764 C   0  0  0  0  0  0  0  0  0  0  0  0
  -26.0511  -16.5327   20.7737 C   0  0  0  0  0  0  0  0  0  0  0  0
  -23.5553  -14.2080   20.6570 C   0  0  0  0  0  0  0  0  0  0  0  0
  -16.8155  -27.8732   21.5161 C   0  0  0  0  0  0  0  0  0  0  0  0
  -31.0977  -23.0115   20.8543 C   0  0  0  0  0  0  0  0  0  0  0  0
  -25.2365  -19.5273   22.7692 C   0  0  0  0  0  0  0  0  0  0  0  0
  -24.2219  -18.2109   20.3233 C   0  0  0  0  0  0  0  0  0  0  0  0
  -30.7550  -21.9743   19.7899 C   0  0  0  0  0  0  0  0  0  0  0  0
  -19.4064  -27.0575   24.0291 C   0  0  0  0  0  0  0  0  0  0  0  0
  -29.8008  -20.9372   20.3630 C   0  0  0  0  0  0  0  0  0  0  0  0
  -20.6822  -26.9907   23.1916 C   0  0  0  0  0  0  0  0  0  0  0  0
  -18.3822  -28.0137   23.4256 C   0  0  0  0  0  0  0  0  0  0  0  0
  -19.3217  -27.6369   21.1636 C   0  0  0  0  0  0  0  0  0  0  0  0
  -28.4717  -21.5848   20.7717 C   0  0  1  0  0  0  0  0  0  0  0  0
  -26.1604  -18.7616   21.8271 C   0  0  1  0  0  0  0  0  0  0  0  0
  -20.3536  -26.6494   21.7288 C   0  0  1  0  0  0  0  0  0  0  0  0
  -23.1749  -11.7302   20.5427 C   0  0  0  0  0  0  0  0  0  0  0  0
  -17.6017  -20.0258   18.2472 C   0  0  0  0  0  0  0  0  0  0  0  0
  -26.8000  -16.5566   17.8160 C   0  0  0  0  0  0  0  0  0  0  0  0
  -25.5343  -14.4129   17.5497 C   0  0  0  0  0  0  0  0  0  0  0  0
  -27.5192  -14.5083   19.0576 C   0  0  0  0  0  0  0  0  0  0  0  0
  -15.5253  -27.6257   19.4411 C   0  0  0  0  0  0  0  0  0  0  0  0
  -17.1003  -20.6442   21.1131 C   0  0  0  0  0  0  0  0  0  0  0  0
  -22.1059  -14.1943   23.2373 C   0  0  0  0  0  0  0  0  0  0  0  0
  -19.6860  -20.3766   19.6150 C   0  0  0  0  0  0  0  0  0  1  0  0
  -25.3717  -15.6414   19.7623 C   0  0  1  0  0  0  0  0  0  0  0  0
  -23.3238  -12.9376   21.4551 C   0  0  2  0  0  0  0  0  0  0  0  0
  -18.4337  -21.0298   19.0342 C   0  0  2  0  0  0  0  0  0  0  0  0
  -26.2935  -15.3030   18.5568 C   0  0  0  0  0  0  0  0  0  0  0  0
  -22.6353  -27.3789   21.1444 N   0  0  0  0  0  0  0  0  0  0  0  0
  -21.5926  -26.5815   20.8563 N   0  0  0  0  0  0  0  0  0  0  0  0
  -25.4467  -17.7748   21.0141 N   0  0  0  0  0  0  0  0  0  0  0  0
  -18.1242  -27.7141   22.0162 N   0  0  0  0  0  0  0  0  0  0  0  0
  -20.8483  -24.9182   19.3430 N   0  0  0  0  0  0  0  0  0  0  0  0
  -25.0004  -25.8945   17.8586 N   0  0  0  0  0  0  0  0  0  0  0  0
  -27.6787  -20.6173   21.4977 N   0  0  0  0  0  0  0  0  0  0  0  0
  -24.8989  -14.4743   20.4991 N   0  0  0  0  0  0  0  0  0  0  0  0
  -16.4590  -27.0685   20.4172 N   0  0  0  0  0  0  0  0  0  0  0  0
  -17.6241  -21.5677   20.1092 N   0  0  3  0  0  0  0  0  0  0  0  0
  -22.0870  -13.0606   22.2775 N   0  3  0  0  0  0  0  0  0  0  0  0
  -23.1416  -24.6068   17.4773 O   0  0  0  0  0  0  0  0  0  0  0  0
  -26.7652  -19.5029   19.6685 O   0  0  0  0  0  0  0  0  0  0  0  0
  -27.0761  -16.1383   21.3353 O   0  0  0  0  0  0  0  0  0  0  0  0
  -22.6361  -14.8934   20.2144 O   0  0  0  0  0  0  0  0  0  0  0  0
  -16.0354  -28.7139   21.9801 O   0  0  0  0  0  0  0  0  0  0  0  0
  -28.5011  -29.6162   20.0788 O   0  0  0  0  0  0  0  0  0  0  0  0
  -20.4651  -21.3454   20.3156 O   0  0  0  0  0  0  0  0  0  1  0  0
  -32.9728  -26.4857   19.2992 F   0  0  0  0  0  0  0  0  0  0  0  0
  -28.7866  -28.0965   17.7871 F   0  0  0  0  0  0  0  0  0  0  0  0
  1  2  1  0  0  0  0
  1  5  2  0  0  0  0
  2  6  2  0  0  0  0
  3 12  2  0  0  0  0
  3 19  1  0  0  0  0
  4 13  1  0  0  0  0
  4 19  2  0  0  0  0
  5 21  1  0  0  0  0
  6 23  1  0  0  0  0
  7 14  2  0  0  0  0
  7 22  1  0  0  0  0
  8 10  2  0  0  0  0
  8 25  1  0  0  0  0
  9 11  1  0  0  0  0
  9 25  2  0  0  0  0
 10 26  1  0  0  0  0
 11 26  2  0  0  0  0
 12 27  1  0  0  0  0
 13 27  2  0  0  0  0
 14 28  1  0  0  0  0
 15 16  2  0  0  0  0
 15 29  1  0  0  0  0
 16 30  1  0  0  0  0
 17 24  1  0  0  0  0
 17 28  2  0  0  0  0
 18 30  2  0  0  0  0
 18 31  1  0  0  0  0
 19 32  1  0  0  0  0
 20 32  1  0  0  0  0
 20 33  2  0  0  0  0
 20 34  1  0  0  0  0
 21 23  2  0  0  0  0
 21 39  1  0  0  0  0
 22 24  2  0  0  0  0
 22 40  1  0  0  0  0
 23 48  1  0  0  0  0
 24 41  1  0  0  0  0
 25 72  1  0  0  0  0
 26 73  1  0  0  0  0
 27 80  1  0  0  0  0
 28 81  1  0  0  0  0
 29 31  2  0  0  0  0
 29 80  1  0  0  0  0
 30 82  1  0  0  0  0
 31 83  1  0  0  0  0
 32 64  2  0  0  0  0
 33 65  1  0  0  0  0
 33 68  1  0  0  0  0
 34 69  1  0  0  0  0
 34 75  2  0  0  0  0
 35 49  1  0  0  0  0
 35 70  1  0  0  0  0
 35 76  2  0  0  0  0
 36 60  1  0  0  0  0
 36 66  1  0  0  0  0
 36 77  2  0  0  0  0
 37 61  1  0  0  0  0
 37 71  1  0  0  0  0
 37 78  2  0  0  0  0
 38 67  1  0  0  0  0
 38 72  1  0  0  0  0
 38 79  2  0  0  0  0
 39 42  1  0  0  0  0
 40 49  1  0  0  0  0
 41 66  1  0  0  0  0
 42 44  1  0  0  0  0
 43 45  1  0  0  0  0
 43 46  1  0  0  0  0
 44 48  1  0  0  0  0
 45 50  1  0  0  0  0
 46 67  1  0  0  0  0
 47 50  1  0  0  0  0
 47 67  1  0  0  0  0
 48 70  1  0  0  0  0
 49 66  1  0  0  0  0
 50 65  1  0  0  0  0
 51 61  1  0  0  0  0
 52 62  1  0  0  0  0
 53 63  1  0  0  0  0
 54 63  1  0  0  0  0
 55 63  1  0  0  0  0
 56 72  1  0  0  0  0
 57 73  1  0  0  0  0
 58 74  1  0  0  0  0
 59 62  1  0  0  0  0
 59 81  1  0  0  0  0
 60 63  1  0  0  0  0
 60 71  1  0  0  0  0
 61 74  1  0  0  0  0
 62 73  1  0  0  0  0
 64 65  1  0  0  0  0
M  CHG  1  74   1
M  ISO  4  38 100  59 101  72 100  81 101
M  END
> <Batch ID>
0016

> <Smiles>
CNC(C)C(=O)NC(C(=O)N1Cc2cc([101O:1][101CH2:1]C(C)N(C)c3ccc([100N:0](C)[100C:0](=O)N4CCCC(n5nc(-c6ccc(Oc7ccc(F)cc7F)cc6)c(C(N)=O)c5N)C4)cc3)ccc2CC1C(=O)NC1CCCc2ccccc21)C(C)(C)C

> <Shape>
0.178

> <Color>
0.080

> <Negative vol penalty>
0.000

$$$$

  -OEChem-04042320573D

 90 98  0     1  0  0  0  0  0999 V2000
  -14.6553  -12.6704   18.6598 C   0  0  0  0  0  0  0  0  0  0  0  0
  -16.0057  -12.9870   18.7678 C   0  0  0  0  0  0  0  0  0  0  0  0
  -23.1148   -9.9801   19.5772 C   0  0  0  0  0  0  0  0  0  0  0  0
  -23.6726   -9.7950   21.9207 C   0  0  0  0  0  0  0  0  0  0  0  0
  -14.2623  -11.5231   17.9719 C   0  0  0  0  0  0  0  0  0  0  0  0
  -16.9640  -12.1558   18.1888 C   0  0  0  0  0  0  0  0  0  0  0  0
  -20.5233  -14.7448   15.6842 C   0  0  0  0  0  0  0  0  0  0  0  0
  -22.3429   -8.8221   19.6695 C   0  0  0  0  0  0  0  0  0  0  0  0
  -22.9006   -8.6369   22.0129 C   0  0  0  0  0  0  0  0  0  0  0  0
  -21.5211  -15.3537   16.4441 C   0  0  0  0  0  0  0  0  0  0  0  0
  -23.2123   -5.3652   21.2192 C   0  0  0  0  0  0  0  0  0  0  0  0
  -23.7549   -4.2775   21.9033 C   0  0  0  0  0  0  0  0  0  0  0  0
  -23.0143  -13.5288   15.9348 C   0  0  0  0  0  0  0  0  0  0  0  0
  -28.0240  -18.8076   20.3952 C   0  0  0  0  0  0  0  0  0  0  0  0
  -29.6375  -18.2236   18.6944 C   0  0  0  0  0  0  0  0  0  0  0  0
  -21.9131   -4.3413   23.4656 C   0  0  0  0  0  0  0  0  0  0  0  0
  -23.7798  -10.4666   20.7028 C   0  0  0  0  0  0  0  0  0  0  0  0
  -24.1509  -12.9880   20.8146 C   0  0  0  0  0  0  0  0  0  0  0  0
  -15.2157  -10.6826   17.3759 C   0  0  0  0  0  0  0  0  0  0  0  0
  -20.7604  -13.5159   15.0517 C   0  0  0  0  0  0  0  0  0  0  0  0
  -16.5835  -10.9954   17.4934 C   0  0  0  0  0  0  0  0  0  0  0  0
  -22.0187  -12.9076   15.1653 C   0  0  0  0  0  0  0  0  0  0  0  0
  -27.0282  -18.8906   19.4220 C   0  0  0  0  0  0  0  0  0  0  0  0
  -29.3286  -18.4741   20.0314 C   0  0  0  0  0  0  0  0  0  0  0  0
  -27.3370  -18.6401   18.0850 C   0  0  0  0  0  0  0  0  0  0  0  0
  -22.2357   -8.1505   20.8873 C   0  0  0  0  0  0  0  0  0  0  0  0
  -22.7659  -14.7443   16.5719 C   0  0  0  0  0  0  0  0  0  0  0  0
  -22.0201   -5.9411   21.6584 C   0  0  0  0  0  0  0  0  0  0  0  0
  -23.1053   -3.7655   23.0264 C   0  0  0  0  0  0  0  0  0  0  0  0
  -28.6417  -18.3065   17.7212 C   0  0  0  0  0  0  0  0  0  0  0  0
  -21.3705   -5.4291   22.7816 C   0  0  0  0  0  0  0  0  0  0  0  0
  -24.5778  -11.6625   20.6081 C   0  0  0  0  0  0  0  0  0  0  0  0
  -25.2765  -13.7474   20.6076 C   0  0  0  0  0  0  0  0  0  0  0  0
  -22.8530  -13.4880   21.1626 C   0  0  0  0  0  0  0  0  0  0  0  0
  -19.5080  -10.6025   15.2695 C   0  0  0  0  0  0  0  0  0  0  0  0
  -21.4534  -10.0010   12.7445 C   0  0  0  0  0  0  0  0  0  0  0  0
  -25.5433  -17.5947   16.7045 C   0  0  0  0  0  0  0  0  0  0  0  0
  -24.2589  -10.8294   10.9867 C   0  0  0  0  0  0  0  0  0  0  0  0
  -30.7311  -14.6668   21.3473 C   0  0  0  0  0  0  0  0  0  0  0  0
  -14.7456   -9.4282   16.6830 C   0  0  0  0  0  0  0  0  0  0  0  0
  -19.6824  -12.8852   14.2136 C   0  0  0  0  0  0  0  0  0  0  0  0
  -22.3305  -11.5982   14.4895 C   0  0  0  0  0  0  0  0  0  0  0  0
  -15.8019   -8.8002   15.7774 C   0  0  0  0  0  0  0  0  0  0  0  0
  -29.7861  -12.4951   18.6889 C   0  0  0  0  0  0  0  0  0  0  0  0
  -17.1465   -8.7303   16.4944 C   0  0  0  0  0  0  0  0  0  0  0  0
  -28.3142  -12.1895   18.9718 C   0  0  0  0  0  0  0  0  0  0  0  0
  -30.5972  -12.6068   19.9780 C   0  0  0  0  0  0  0  0  0  0  0  0
  -28.5881  -13.2545   21.2499 C   0  0  0  0  0  0  0  0  0  0  0  0
  -17.6514  -10.1320   16.8577 C   0  0  1  0  0  0  0  0  0  0  0  0
  -19.8669  -11.3813   14.0357 C   0  0  1  0  0  0  0  0  0  0  0  0
  -27.7185  -13.1878   19.9827 C   0  0  2  0  0  0  0  0  0  0  0  0
  -25.6399  -19.2521   19.8404 C   0  0  0  0  0  0  0  0  0  0  0  0
  -25.6108  -10.1317    8.9910 C   0  0  0  0  0  0  0  0  0  0  0  0
  -30.3450  -19.1688   23.3141 C   0  0  0  0  0  0  0  0  0  0  0  0
  -22.5788   -7.6506   14.3316 C   0  0  0  0  0  0  0  0  0  0  0  0
  -24.5137   -7.5950   12.7438 C   0  0  0  0  0  0  0  0  0  0  0  0
  -22.2010   -7.1845   11.9037 C   0  0  0  0  0  0  0  0  0  0  0  0
  -26.0588  -20.0583   16.4976 C   0  0  0  0  0  0  0  0  0  0  0  0
  -31.7138  -18.6903   20.6830 C   0  0  0  0  0  0  0  0  0  0  0  0
  -23.8442  -13.4365    9.6489 C   0  0  0  0  0  0  0  0  0  0  0  0
  -25.9625  -16.2717   17.3460 C   0  0  0  0  0  0  0  0  0  0  0  0
  -30.7064  -16.7119   22.7531 C   0  0  0  0  0  0  0  0  0  0  0  0
  -25.0920  -15.0946   16.9216 C   0  0  0  0  0  0  0  0  0  1  0  0
  -22.8766   -9.5248   12.5810 C   0  0  1  0  0  0  0  0  0  0  0  0
  -24.4939  -11.0294    9.5004 C   0  0  2  0  0  0  0  0  0  0  0  0
  -30.0025  -18.0166   22.3760 C   0  0  2  0  0  0  0  0  0  0  0  0
  -23.0363   -8.0124   12.9045 C   0  0  0  0  0  0  0  0  0  0  0  0
  -25.8734  -11.5811   20.2937 N   0  0  0  0  0  0  0  0  0  0  0  0
  -26.2703  -12.8651   20.3012 N   0  0  0  0  0  0  0  0  0  0  0  0
  -21.2416  -11.0179   13.6862 N   0  0  0  0  0  0  0  0  0  0  0  0
  -29.9800  -13.5704   20.8926 N   0  0  0  0  0  0  0  0  0  0  0  0
  -25.5030  -15.0772   20.6594 N   0  0  0  0  0  0  0  0  0  0  0  0
  -21.8084  -12.5702   21.3380 N   0  0  0  0  0  0  0  0  0  0  0  0
  -18.2055  -10.7874   15.6925 N   0  0  0  0  0  0  0  0  0  0  0  0
  -23.2768   -9.8918   11.2269 N   0  0  0  0  0  0  0  0  0  0  0  0
  -30.0685  -15.5351   22.2062 N   0  0  0  0  0  0  0  0  0  0  0  0
  -26.3150  -18.7234   17.0609 N   0  0  0  0  0  0  0  0  0  0  0  0
  -30.3353  -18.3903   21.0155 N   0  0  3  0  0  0  0  0  0  0  0  0
  -24.8645  -12.4454    9.2205 N   0  3  0  0  0  0  0  0  0  0  0  0
  -22.6225  -14.7136   21.2975 O   0  0  0  0  0  0  0  0  0  0  0  0
  -20.3499   -9.8858   15.7978 O   0  0  0  0  0  0  0  0  0  0  0  0
  -20.5635   -9.4945   12.0566 O   0  0  0  0  0  0  0  0  0  0  0  0
  -24.6019  -17.6089   15.9075 O   0  0  0  0  0  0  0  0  0  0  0  0
  -24.8865  -11.4409   11.8485 O   0  0  0  0  0  0  0  0  0  0  0  0
  -31.9035  -14.8605   21.0085 O   0  0  0  0  0  0  0  0  0  0  0  0
  -21.4823   -7.0205   20.9777 O   0  0  0  0  0  0  0  0  0  0  0  0
  -23.7413  -15.3361   17.3136 O   0  0  0  0  0  0  0  0  0  1  0  0
  -23.6256   -2.7199   23.6823 F   0  0  0  0  0  0  0  0  0  0  0  0
  -28.9512  -18.0645   16.4393 F   0  0  0  0  0  0  0  0  0  0  0  0
  -20.2243   -5.9774   23.2075 F   0  0  0  0  0  0  0  0  0  0  0  0
  1  2  1  0  0  0  0
  1  5  2  0  0  0  0
  2  6  2  0  0  0  0
  3  8  2  0  0  0  0
  3 17  1  0  0  0  0
  4  9  1  0  0  0  0
  4 17  2  0  0  0  0
  5 19  1  0  0  0  0
  6 21  1  0  0  0  0
  7 10  2  0  0  0  0
  7 20  1  0  0  0  0
  8 26  1  0  0  0  0
  9 26  2  0  0  0  0
 10 27  1  0  0  0  0
 11 12  2  0  0  0  0
 11 28  1  0  0  0  0
 12 29  1  0  0  0  0
 13 22  1  0  0  0  0
 13 27  2  0  0  0  0
 14 23  2  0  0  0  0
 14 24  1  0  0  0  0
 15 24  2  0  0  0  0
 15 30  1  0  0  0  0
 16 29  2  0  0  0  0
 16 31  1  0  0  0  0
 17 32  1  0  0  0  0
 18 32  1  0  0  0  0
 18 33  2  0  0  0  0
 18 34  1  0  0  0  0
 19 21  2  0  0  0  0
 19 40  1  0  0  0  0
 20 22  2  0  0  0  0
 20 41  1  0  0  0  0
 21 49  1  0  0  0  0
 22 42  1  0  0  0  0
 23 25  1  0  0  0  0
 23 52  1  0  0  0  0
 24 78  1  0  0  0  0
 25 30  2  0  0  0  0
 25 77  1  0  0  0  0
 26 86  1  0  0  0  0
 27 87  1  0  0  0  0
 28 31  2  0  0  0  0
 28 86  1  0  0  0  0
 29 88  1  0  0  0  0
 30 89  1  0  0  0  0
 31 90  1  0  0  0  0
 32 68  2  0  0  0  0
 33 69  1  0  0  0  0
 33 72  1  0  0  0  0
 34 73  1  0  0  0  0
 34 80  2  0  0  0  0
 35 50  1  0  0  0  0
 35 74  1  0  0  0  0
 35 81  2  0  0  0  0
 36 64  1  0  0  0  0
 36 70  1  0  0  0  0
 36 82  2  0  0  0  0
 37 61  1  0  0  0  0
 37 77  1  0  0  0  0
 37 83  2  0  0  0  0
 38 65  1  0  0  0  0
 38 75  1  0  0  0  0
 38 84  2  0  0  0  0
 39 71  1  0  0  0  0
 39 76  1  0  0  0  0
 39 85  2  0  0  0  0
 40 43  1  0  0  0  0
 41 50  1  0  0  0  0
 42 70  1  0  0  0  0
 43 45  1  0  0  0  0
 44 46  1  0  0  0  0
 44 47  1  0  0  0  0
 45 49  1  0  0  0  0
 46 51  1  0  0  0  0
 47 71  1  0  0  0  0
 48 51  1  0  0  0  0
 48 71  1  0  0  0  0
 49 74  1  0  0  0  0
 50 70  1  0  0  0  0
 51 69  1  0  0  0  0
 53 65  1  0  0  0  0
 54 66  1  0  0  0  0
 55 67  1  0  0  0  0
 56 67  1  0  0  0  0
 57 67  1  0  0  0  0
 58 77  1  0  0  0  0
 59 78  1  0  0  0  0
 60 79  1  0  0  0  0
 61 63  1  0  0  0  0
 62 66  1  0  0  0  0
 62 76  1  0  0  0  0
 63 87  1  0  0  0  0
 64 67  1  0  0  0  0
 64 75  1  0  0  0  0
 65 79  1  0  0  0  0
 66 78  1  0  0  0  0
 68 69  1  0  0  0  0
M  CHG  1  79   1
M  ISO  4  39 100  63 101  76 100  87 101
M  END
> <Batch ID>
0016

> <Smiles>
CNC(C)C(=O)NC(C(=O)N1Cc2cc([101O:1][101CH2:1]CC(=O)N(C)c3c(C)cc(N(C)C(C)C[100NH:0][100C:0](=O)N4CCCC(n5nc(-c6ccc(Oc7ccc(F)cc7F)cc6)c(C(N)=O)c5N)C4)cc3F)ccc2CC1C(=O)NC1CCCc2ccccc21)C(C)(C)C

> <Shape>
0.198

> <Color>
0.165

> <Negative vol penalty>
0.000

$$$$

  -OEChem-04042320573D

 84 93  0     1  0  0  0  0  0999 V2000
  -19.3633  -13.2530   17.8040 C   0  0  0  0  0  0  0  0  0  0  0  0
  -20.6088  -13.4999   17.2356 C   0  0  0  0  0  0  0  0  0  0  0  0
  -22.3634  -29.3891   20.7635 C   0  0  0  0  0  0  0  0  0  0  0  0
  -23.6861  -30.4388   22.4914 C   0  0  0  0  0  0  0  0  0  0  0  0
  -19.2217  -13.2389   19.1910 C   0  0  0  0  0  0  0  0  0  0  0  0
  -21.7134  -13.7340   18.0539 C   0  0  0  0  0  0  0  0  0  0  0  0
  -29.9933  -19.4063   18.5421 C   0  0  0  0  0  0  0  0  0  0  0  0
  -28.7950  -12.6844   18.3084 C   0  0  0  0  0  0  0  0  0  0  0  0
  -30.9077  -18.4210   18.9137 C   0  0  0  0  0  0  0  0  0  0  0  0
  -21.1993  -29.8722   21.3610 C   0  0  0  0  0  0  0  0  0  0  0  0
  -22.5220  -30.9220   23.0889 C   0  0  0  0  0  0  0  0  0  0  0  0
  -29.9813  -13.3871   18.5153 C   0  0  0  0  0  0  0  0  0  0  0  0
  -17.8565  -30.5282   22.6334 C   0  0  0  0  0  0  0  0  0  0  0  0
  -16.7821  -29.6490   22.7687 C   0  0  0  0  0  0  0  0  0  0  0  0
  -30.3308  -18.7625   21.2318 C   0  0  0  0  0  0  0  0  0  0  0  0
  -29.6337  -13.2599   20.8991 C   0  0  0  0  0  0  0  0  0  0  0  0
  -18.1495  -28.1860   24.1204 C   0  0  0  0  0  0  0  0  0  0  0  0
  -23.6068  -29.6723   21.3287 C   0  0  0  0  0  0  0  0  0  0  0  0
  -25.5886  -29.8111   19.7285 C   0  0  0  0  0  0  0  0  0  0  0  0
  -20.3271  -13.4633   20.0268 C   0  0  0  0  0  0  0  0  0  0  0  0
  -28.0123  -12.2729   19.3968 C   0  0  0  0  0  0  0  0  0  0  0  0
  -29.2417  -20.0842   19.5128 C   0  0  0  0  0  0  0  0  0  0  0  0
  -21.5862  -13.7242   19.4533 C   0  0  0  0  0  0  0  0  0  0  0  0
  -29.4005  -19.7467   20.8685 C   0  0  0  0  0  0  0  0  0  0  0  0
  -28.4393  -12.5498   20.7033 C   0  0  0  0  0  0  0  0  0  0  0  0
  -31.0782  -18.1012   20.2579 C   0  0  0  0  0  0  0  0  0  0  0  0
  -21.2786  -30.6387   22.5237 C   0  0  0  0  0  0  0  0  0  0  0  0
  -30.3993  -13.6775   19.8107 C   0  0  0  0  0  0  0  0  0  0  0  0
  -19.0774  -30.2363   23.2416 C   0  0  0  0  0  0  0  0  0  0  0  0
  -16.9286  -28.4779   23.5122 C   0  0  0  0  0  0  0  0  0  0  0  0
  -19.2239  -29.0652   23.9851 C   0  0  0  0  0  0  0  0  0  0  0  0
  -24.8096  -29.1730   20.7123 C   0  0  0  0  0  0  0  0  0  0  0  0
  -26.6140  -28.9320   19.4789 C   0  0  0  0  0  0  0  0  0  0  0  0
  -25.4022  -31.0847   19.0969 C   0  0  0  0  0  0  0  0  0  0  0  0
  -25.0604  -12.8938   20.3987 C   0  0  0  0  0  0  0  0  0  0  0  0
  -25.7426  -10.6059   22.5947 C   0  0  0  0  0  0  0  0  0  0  0  0
  -28.1136   -8.8876   24.3475 C   0  0  0  0  0  0  0  0  0  0  0  0
  -27.1473  -23.1833   19.8742 C   0  0  0  0  0  0  0  0  0  0  0  0
  -20.1156  -13.4850   21.5199 C   0  0  0  0  0  0  0  0  0  0  0  0
  -26.7490  -11.4925   19.1575 C   0  0  0  0  0  0  0  0  0  0  0  0
  -28.6242  -20.4666   21.9411 C   0  0  0  0  0  0  0  0  0  0  0  0
  -28.2507  -21.1313   19.0750 C   0  0  0  0  0  0  0  0  0  0  0  0
  -27.6455  -12.1127   21.9064 C   0  0  0  0  0  0  0  0  0  0  0  0
  -21.4105  -13.3712   22.3203 C   0  0  0  0  0  0  0  0  0  0  0  0
  -29.1987  -25.4935   21.5576 C   0  0  0  0  0  0  0  0  0  0  0  0
  -22.4695  -14.3148   21.7591 C   0  0  0  0  0  0  0  0  0  0  0  0
  -28.3738  -26.7744   21.4399 C   0  0  0  0  0  0  0  0  0  0  0  0
  -27.3923  -21.1775   21.3910 C   0  0  0  0  0  0  0  0  0  0  0  0
  -28.3230  -24.2708   21.8371 C   0  0  0  0  0  0  0  0  0  0  0  0
  -26.3923  -25.3724   20.7523 C   0  0  0  0  0  0  0  0  0  0  0  0
  -22.8131  -13.9580   20.3078 C   0  0  1  0  0  0  0  0  0  0  0  0
  -25.7684  -11.5707   20.3236 C   0  0  1  0  0  0  0  0  0  0  0  0
  -27.2404  -26.6077   20.4123 C   0  0  1  0  0  0  0  0  0  0  0  0
  -28.3646   -7.1055   26.0963 C   0  0  0  0  0  0  0  0  0  0  0  0
  -24.9362  -12.6102   24.7493 C   0  0  0  0  0  0  0  0  0  0  0  0
  -26.0852  -11.1567   26.4332 C   0  0  0  0  0  0  0  0  0  0  0  0
  -24.1387  -10.2735   25.1472 C   0  0  0  0  0  0  0  0  0  0  0  0
  -32.1909  -16.7684   22.0316 C   0  0  0  0  0  0  0  0  0  0  0  0
  -29.6122   -7.1248   22.5020 C   0  0  0  0  0  0  0  0  0  0  0  0
  -32.7778  -16.4053   19.6290 C   0  0  0  0  0  0  0  0  0  0  0  0
  -31.9473  -15.2946   19.0080 C   0  0  0  0  0  0  0  0  0  1  0  0
  -26.3550  -10.5971   23.9745 C   0  0  1  0  0  0  0  0  0  0  0  0
  -28.2960   -7.4029   24.6065 C   0  0  2  0  0  0  0  0  0  0  0  0
  -25.3930  -11.1695   25.0535 C   0  0  0  0  0  0  0  0  0  0  0  0
  -25.2981  -27.9805   21.0635 N   0  0  0  0  0  0  0  0  0  0  0  0
  -26.3951  -27.8623   20.2962 N   0  0  0  0  0  0  0  0  0  0  0  0
  -26.4143  -11.3578   21.6204 N   0  0  0  0  0  0  0  0  0  0  0  0
  -27.7146  -21.9333   20.1757 N   0  0  0  0  0  0  0  0  0  0  0  0
  -27.2305  -24.1764   20.8605 N   0  0  0  0  0  0  0  0  0  0  0  0
  -27.6724  -28.9773   18.6422 N   0  0  0  0  0  0  0  0  0  0  0  0
  -24.2965  -31.8605   19.4709 N   0  0  0  0  0  0  0  0  0  0  0  0
  -23.6879  -12.8059   20.2642 N   0  0  0  0  0  0  0  0  0  0  0  0
  -26.7824   -9.2245   24.2226 N   0  0  0  0  0  0  0  0  0  0  0  0
  -32.0063  -17.1084   20.6347 N   0  0  3  0  0  0  0  0  0  0  0  0
  -29.5538   -6.9171   23.9718 N   0  3  0  0  0  0  0  0  0  0  0  0
  -26.1836  -31.5145   18.2148 O   0  0  0  0  0  0  0  0  0  0  0  0
  -25.7109  -13.9185   20.5678 O   0  0  0  0  0  0  0  0  0  0  0  0
  -24.7102   -9.9633   22.3872 O   0  0  0  0  0  0  0  0  0  0  0  0
  -29.0575   -9.6707   24.2678 O   0  0  0  0  0  0  0  0  0  0  0  0
  -26.5971  -23.3957   18.7861 O   0  0  0  0  0  0  0  0  0  0  0  0
  -20.1429  -31.1105   23.1069 O   0  0  0  0  0  0  0  0  0  0  0  0
  -31.5645  -14.3686   20.0169 O   0  0  0  0  0  0  0  0  0  1  0  0
  -15.8963  -27.6345   23.6434 F   0  0  0  0  0  0  0  0  0  0  0  0
  -20.3941  -28.7800   24.5726 F   0  0  0  0  0  0  0  0  0  0  0  0
  1  2  1  0  0  0  0
  1  5  2  0  0  0  0
  2  6  2  0  0  0  0
  3 10  2  0  0  0  0
  3 18  1  0  0  0  0
  4 11  1  0  0  0  0
  4 18  2  0  0  0  0
  5 20  1  0  0  0  0
  6 23  1  0  0  0  0
  7  9  2  0  0  0  0
  7 22  1  0  0  0  0
  8 12  2  0  0  0  0
  8 21  1  0  0  0  0
  9 26  1  0  0  0  0
 10 27  1  0  0  0  0
 11 27  2  0  0  0  0
 12 28  1  0  0  0  0
 13 14  2  0  0  0  0
 13 29  1  0  0  0  0
 14 30  1  0  0  0  0
 15 24  1  0  0  0  0
 15 26  2  0  0  0  0
 16 25  1  0  0  0  0
 16 28  2  0  0  0  0
 17 30  2  0  0  0  0
 17 31  1  0  0  0  0
 18 32  1  0  0  0  0
 19 32  1  0  0  0  0
 19 33  2  0  0  0  0
 19 34  1  0  0  0  0
 20 23  2  0  0  0  0
 20 39  1  0  0  0  0
 21 25  2  0  0  0  0
 21 40  1  0  0  0  0
 22 24  2  0  0  0  0
 22 42  1  0  0  0  0
 23 51  1  0  0  0  0
 24 41  1  0  0  0  0
 25 43  1  0  0  0  0
 26 74  1  0  0  0  0
 27 81  1  0  0  0  0
 28 82  1  0  0  0  0
 29 31  2  0  0  0  0
 29 81  1  0  0  0  0
 30 83  1  0  0  0  0
 31 84  1  0  0  0  0
 32 65  2  0  0  0  0
 33 66  1  0  0  0  0
 33 70  1  0  0  0  0
 34 71  1  0  0  0  0
 34 76  2  0  0  0  0
 35 52  1  0  0  0  0
 35 72  1  0  0  0  0
 35 77  2  0  0  0  0
 36 62  1  0  0  0  0
 36 67  1  0  0  0  0
 36 78  2  0  0  0  0
 37 63  1  0  0  0  0
 37 73  1  0  0  0  0
 37 79  2  0  0  0  0
 38 68  1  0  0  0  0
 38 69  1  0  0  0  0
 38 80  2  0  0  0  0
 39 44  1  0  0  0  0
 40 52  1  0  0  0  0
 41 48  1  0  0  0  0
 42 68  1  0  0  0  0
 43 67  1  0  0  0  0
 44 46  1  0  0  0  0
 45 47  1  0  0  0  0
 45 49  1  0  0  0  0
 46 51  1  0  0  0  0
 47 53  1  0  0  0  0
 48 68  1  0  0  0  0
 49 69  1  0  0  0  0
 50 53  1  0  0  0  0
 50 69  1  0  0  0  0
 51 72  1  0  0  0  0
 52 67  1  0  0  0  0
 53 66  1  0  0  0  0
 54 63  1  0  0  0  0
 55 64  1  0  0  0  0
 56 64  1  0  0  0  0
 57 64  1  0  0  0  0
 58 74  1  0  0  0  0
 59 75  1  0  0  0  0
 60 61  1  0  0  0  0
 60 74  1  0  0  0  0
 61 82  1  0  0  0  0
 62 64  1  0  0  0  0
 62 73  1  0  0  0  0
 63 75  1  0  0  0  0
 65 66  1  0  0  0  0
M  CHG  1  75   1
M  ISO  4  38 100  61 101  68 100  82 101
M  END
> <Batch ID>
0016

> <Smiles>
CNC(C)C(=O)NC(C(=O)N1Cc2cc([101O:1][101CH2:1]CN(C)c3ccc4c(c3)CC[100N:0]([100C:0](=O)N3CCCC(n5nc(-c6ccc(Oc7ccc(F)cc7F)cc6)c(C(N)=O)c5N)C3)C4)ccc2CC1C(=O)NC1CCCc2ccccc21)C(C)(C)C

> <Shape>
0.262

> <Color>
0.074

> <Negative vol penalty>
0.000

$$$$

  -OEChem-04042320573D

 87 96  0     1  0  0  0  0  0999 V2000
  -31.5288  -11.2573   21.2045 C   0  0  0  0  0  0  0  0  0  0  0  0
  -31.3314  -12.5957   20.8800 C   0  0  0  0  0  0  0  0  0  0  0  0
  -20.0920  -28.1910   22.0092 C   0  0  0  0  0  0  0  0  0  0  0  0
  -20.1700  -27.9833   24.4150 C   0  0  0  0  0  0  0  0  0  0  0  0
  -30.5614  -10.3103   20.8708 C   0  0  0  0  0  0  0  0  0  0  0  0
  -30.1669  -12.9877   20.2207 C   0  0  0  0  0  0  0  0  0  0  0  0
  -28.1212  -17.1703   22.2121 C   0  0  0  0  0  0  0  0  0  0  0  0
  -27.1849  -26.3949   17.7109 C   0  0  0  0  0  0  0  0  0  0  0  0
  -27.2582  -25.0520   17.3411 C   0  0  0  0  0  0  0  0  0  0  0  0
  -18.9794  -27.3507   21.9727 C   0  0  0  0  0  0  0  0  0  0  0  0
  -19.0573  -27.1429   24.3785 C   0  0  0  0  0  0  0  0  0  0  0  0
  -28.7114  -18.3886   21.8787 C   0  0  0  0  0  0  0  0  0  0  0  0
  -16.3362  -24.9709   21.2151 C   0  0  0  0  0  0  0  0  0  0  0  0
  -16.3145  -23.9626   20.2516 C   0  0  0  0  0  0  0  0  0  0  0  0
  -26.9836  -18.7702   20.2391 C   0  0  0  0  0  0  0  0  0  0  0  0
  -29.5248  -24.9472   18.1711 C   0  0  0  0  0  0  0  0  0  0  0  0
  -18.3332  -23.0231   21.1893 C   0  0  0  0  0  0  0  0  0  0  0  0
  -20.6874  -28.5073   23.2303 C   0  0  0  0  0  0  0  0  0  0  0  0
  -21.8401  -30.7775   23.3899 C   0  0  0  0  0  0  0  0  0  0  0  0
  -29.3801  -10.6924   20.2156 C   0  0  0  0  0  0  0  0  0  0  0  0
  -26.9619  -16.7371   21.5527 C   0  0  0  0  0  0  0  0  0  0  0  0
  -29.1834  -12.0448   19.8768 C   0  0  0  0  0  0  0  0  0  0  0  0
  -26.3792  -17.5472   20.5677 C   0  0  0  0  0  0  0  0  0  0  0  0
  -28.2816  -27.0140   18.3107 C   0  0  0  0  0  0  0  0  0  0  0  0
  -28.4281  -24.3281   17.5712 C   0  0  0  0  0  0  0  0  0  0  0  0
  -18.4620  -26.8266   23.1573 C   0  0  0  0  0  0  0  0  0  0  0  0
  -28.1443  -19.1875   20.8901 C   0  0  0  0  0  0  0  0  0  0  0  0
  -17.3564  -25.0054   22.1657 C   0  0  0  0  0  0  0  0  0  0  0  0
  -17.3129  -22.9887   20.2387 C   0  0  0  0  0  0  0  0  0  0  0  0
  -29.4515  -26.2901   18.5408 C   0  0  0  0  0  0  0  0  0  0  0  0
  -18.3549  -24.0315   22.1528 C   0  0  0  0  0  0  0  0  0  0  0  0
  -21.8371  -29.3749   23.2687 C   0  0  0  0  0  0  0  0  0  0  0  0
  -23.1700  -31.1204   23.3772 C   0  0  0  0  0  0  0  0  0  0  0  0
  -20.7391  -31.6888   23.5038 C   0  0  0  0  0  0  0  0  0  0  0  0
  -26.2215  -14.2482   19.7193 C   0  0  0  0  0  0  0  0  0  0  0  0
  -23.2268  -15.4758   19.9353 C   0  0  0  0  0  0  0  0  0  0  0  0
  -21.2446  -18.2002   20.4792 C   0  0  0  0  0  0  0  0  0  0  0  0
  -28.0362  -28.5499   21.1651 C   0  0  0  0  0  0  0  0  0  0  0  0
  -28.3846   -9.6259   19.8332 C   0  0  0  0  0  0  0  0  0  0  0  0
  -26.3223  -15.4327   21.9426 C   0  0  0  0  0  0  0  0  0  0  0  0
  -25.1235  -17.1370   19.8442 C   0  0  0  0  0  0  0  0  0  0  0  0
  -27.0092  -10.1790   19.4691 C   0  0  0  0  0  0  0  0  0  0  0  0
  -27.4925  -29.4394   24.5022 C   0  0  0  0  0  0  0  0  0  0  0  0
  -27.1452  -11.3677   18.5229 C   0  0  0  0  0  0  0  0  0  0  0  0
  -25.9819  -29.6458   24.5919 C   0  0  0  0  0  0  0  0  0  0  0  0
  -25.0581  -29.5567   20.4580 C   0  0  0  0  0  0  0  0  0  0  0  0
  -25.2525  -29.7100   18.9790 C   0  0  0  0  0  0  0  0  0  0  0  0
  -27.8258  -28.2490   23.6118 C   0  0  0  0  0  0  0  0  0  0  0  0
  -25.7569  -28.5779   22.2911 C   0  0  0  0  0  0  0  0  0  0  0  0
  -27.9221  -12.5127   19.1837 C   0  0  1  0  0  0  0  0  0  0  0  0
  -25.4334  -14.8521   20.8471 C   0  0  1  0  0  0  0  0  0  0  0  0
  -25.3619  -29.7677   23.1899 C   0  0  1  0  0  0  0  0  0  0  0  0
  -25.9681  -28.6136   19.7195 C   0  0  0  0  0  0  0  0  0  0  0  0
  -18.8361  -18.9008   20.5526 C   0  0  0  0  0  0  0  0  0  0  0  0
  -23.1226  -15.4290   16.8863 C   0  0  0  0  0  0  0  0  0  0  0  0
  -21.1588  -16.9777   16.9990 C   0  0  0  0  0  0  0  0  0  0  0  0
  -21.0113  -14.7036   18.0134 C   0  0  0  0  0  0  0  0  0  0  0  0
  -27.3488  -22.3297   16.5704 C   0  0  0  0  0  0  0  0  0  0  0  0
  -21.4459  -19.0085   23.3191 C   0  0  0  0  0  0  0  0  0  0  0  0
  -28.2000  -28.4501   18.7049 C   0  0  0  0  0  0  0  0  0  0  0  0
  -29.7623  -21.6847   18.8421 C   0  0  0  0  0  0  0  0  0  0  0  0
  -29.6997  -22.2027   17.4103 C   0  0  0  0  0  0  0  0  0  0  0  0
  -28.5605  -20.8257   19.2171 C   0  0  0  0  0  0  0  0  0  1  0  0
  -22.4207  -16.4744   19.1402 C   0  0  1  0  0  0  0  0  0  0  0  0
  -20.0234  -18.3978   21.3589 C   0  0  2  0  0  0  0  0  0  0  0  0
  -21.9531  -15.9033   17.7718 C   0  0  0  0  0  0  0  0  0  0  0  0
  -23.0676  -28.8620   23.1849 N   0  0  0  0  0  0  0  0  0  0  0  0
  -23.8561  -29.9481   23.2536 N   0  0  0  0  0  0  0  0  0  0  0  0
  -24.5392  -15.8501   20.2566 N   0  0  0  0  0  0  0  0  0  0  0  0
  -27.2142  -28.3827   22.2889 N   0  0  0  0  0  0  0  0  0  0  0  0
  -23.8078  -32.3073   23.4597 N   0  0  0  0  0  0  0  0  0  0  0  0
  -19.4378  -31.1683   23.5003 N   0  0  0  0  0  0  0  0  0  0  0  0
  -27.0728  -13.2319   20.1089 N   0  0  0  0  0  0  0  0  0  0  0  0
  -21.3326  -16.9063   20.0107 N   0  0  0  0  0  0  0  0  0  0  0  0
  -28.5010  -22.9779   17.1996 N   0  0  3  0  0  0  0  0  0  0  0  0
  -27.4065  -28.6495   19.9125 N   0  0  0  0  0  0  0  0  0  0  0  0
  -20.3144  -19.3877   22.4343 N   0  3  0  0  0  0  0  0  0  0  0  0
  -20.9039  -32.9294   23.5892 O   0  0  0  0  0  0  0  0  0  0  0  0
  -26.0675  -14.6719   18.5798 O   0  0  0  0  0  0  0  0  0  0  0  0
  -22.7085  -14.4062   20.2655 O   0  0  0  0  0  0  0  0  0  0  0  0
  -22.0389  -19.1042   20.2293 O   0  0  0  0  0  0  0  0  0  0  0  0
  -29.2694  -28.5869   21.2677 O   0  0  0  0  0  0  0  0  0  0  0  0
  -17.3761  -26.0067   23.1221 O   0  0  0  0  0  0  0  0  0  0  0  0
  -28.7188  -20.3768   20.5624 O   0  0  0  0  0  0  0  0  0  1  0  0
  -17.2911  -22.0195   19.3143 F   0  0  0  0  0  0  0  0  0  0  0  0
  -30.5109  -26.8767   19.1155 F   0  0  0  0  0  0  0  0  0  0  0  0
  -19.3370  -24.0588   23.0642 F   0  0  0  0  0  0  0  0  0  0  0  0
  1  2  1  0  0  0  0
  1  5  2  0  0  0  0
  2  6  2  0  0  0  0
  3 10  2  0  0  0  0
  3 18  1  0  0  0  0
  4 11  1  0  0  0  0
  4 18  2  0  0  0  0
  5 20  1  0  0  0  0
  6 22  1  0  0  0  0
  7 12  2  0  0  0  0
  7 21  1  0  0  0  0
  8  9  2  0  0  0  0
  8 24  1  0  0  0  0
  9 25  1  0  0  0  0
 10 26  1  0  0  0  0
 11 26  2  0  0  0  0
 12 27  1  0  0  0  0
 13 14  2  0  0  0  0
 13 28  1  0  0  0  0
 14 29  1  0  0  0  0
 15 23  1  0  0  0  0
 15 27  2  0  0  0  0
 16 25  2  0  0  0  0
 16 30  1  0  0  0  0
 17 29  2  0  0  0  0
 17 31  1  0  0  0  0
 18 32  1  0  0  0  0
 19 32  1  0  0  0  0
 19 33  2  0  0  0  0
 19 34  1  0  0  0  0
 20 22  2  0  0  0  0
 20 39  1  0  0  0  0
 21 23  2  0  0  0  0
 21 40  1  0  0  0  0
 22 50  1  0  0  0  0
 23 41  1  0  0  0  0
 24 30  2  0  0  0  0
 24 60  1  0  0  0  0
 25 75  1  0  0  0  0
 26 83  1  0  0  0  0
 27 84  1  0  0  0  0
 28 31  2  0  0  0  0
 28 83  1  0  0  0  0
 29 85  1  0  0  0  0
 30 86  1  0  0  0  0
 31 87  1  0  0  0  0
 32 67  2  0  0  0  0
 33 68  1  0  0  0  0
 33 71  1  0  0  0  0
 34 72  1  0  0  0  0
 34 78  2  0  0  0  0
 35 51  1  0  0  0  0
 35 73  1  0  0  0  0
 35 79  2  0  0  0  0
 36 64  1  0  0  0  0
 36 69  1  0  0  0  0
 36 80  2  0  0  0  0
 37 65  1  0  0  0  0
 37 74  1  0  0  0  0
 37 81  2  0  0  0  0
 38 70  1  0  0  0  0
 38 76  1  0  0  0  0
 38 82  2  0  0  0  0
 39 42  1  0  0  0  0
 40 51  1  0  0  0  0
 41 69  1  0  0  0  0
 42 44  1  0  0  0  0
 43 45  1  0  0  0  0
 43 48  1  0  0  0  0
 44 50  1  0  0  0  0
 45 52  1  0  0  0  0
 46 47  1  0  0  0  0
 46 53  1  0  0  0  0
 47 53  1  0  0  0  0
 48 70  1  0  0  0  0
 49 52  1  0  0  0  0
 49 70  1  0  0  0  0
 50 73  1  0  0  0  0
 51 69  1  0  0  0  0
 52 68  1  0  0  0  0
 53 76  1  0  0  0  0
 54 65  1  0  0  0  0
 55 66  1  0  0  0  0
 56 66  1  0  0  0  0
 57 66  1  0  0  0  0
 58 75  1  0  0  0  0
 59 77  1  0  0  0  0
 60 76  1  0  0  0  0
 61 62  1  0  0  0  0
 61 63  1  0  0  0  0
 62 75  1  0  0  0  0
 63 84  1  0  0  0  0
 64 66  1  0  0  0  0
 64 74  1  0  0  0  0
 65 77  1  0  0  0  0
 67 68  1  0  0  0  0
M  CHG  1  77   1
M  ISO  4  38 100  63 101  76 100  84 101
M  END
> <Batch ID>
0016

> <Smiles>
CNC(C)C(=O)NC(C(=O)N1Cc2cc([101O:1][101CH2:1]CCN(C)c3ccc(C[100N:0](C4CC4)[100C:0](=O)N4CCCC(n5nc(-c6ccc(Oc7ccc(F)cc7F)cc6)c(C(N)=O)c5N)C4)c(F)c3)ccc2CC1C(=O)NC1CCCc2ccccc21)C(C)(C)C

> <Shape>
0.243

> <Color>
0.073

> <Negative vol penalty>
0.000

$$$$

  -OEChem-04042320573D

 89 97  0     1  0  0  0  0  0999 V2000
  -32.5550  -18.1683   27.1301 C   0  0  0  0  0  0  0  0  0  0  0  0
  -32.5331  -19.1182   26.1138 C   0  0  0  0  0  0  0  0  0  0  0  0
  -23.0054   -9.8605   20.0009 C   0  0  0  0  0  0  0  0  0  0  0  0
  -23.7678   -9.9419   22.2920 C   0  0  0  0  0  0  0  0  0  0  0  0
  -31.3822  -17.8563   27.8164 C   0  0  0  0  0  0  0  0  0  0  0  0
  -31.3381  -19.7558   25.7827 C   0  0  0  0  0  0  0  0  0  0  0  0
  -31.9065  -24.7503   25.1687 C   0  0  0  0  0  0  0  0  0  0  0  0
  -22.2620   -8.7159   20.2889 C   0  0  0  0  0  0  0  0  0  0  0  0
  -23.0244   -8.7973   22.5800 C   0  0  0  0  0  0  0  0  0  0  0  0
  -32.4631  -25.1848   23.9665 C   0  0  0  0  0  0  0  0  0  0  0  0
  -23.3155   -5.4591   22.1302 C   0  0  0  0  0  0  0  0  0  0  0  0
  -23.9320   -4.4577   22.8803 C   0  0  0  0  0  0  0  0  0  0  0  0
  -30.2575  -25.7079   23.1414 C   0  0  0  0  0  0  0  0  0  0  0  0
  -31.2176  -21.0749   19.9593 C   0  0  0  0  0  0  0  0  0  0  0  0
  -32.7247  -19.2605   21.4491 C   0  0  0  0  0  0  0  0  0  0  0  0
  -22.2324   -4.6862   24.5822 C   0  0  0  0  0  0  0  0  0  0  0  0
  -23.7583  -10.4735   21.0024 C   0  0  0  0  0  0  0  0  0  0  0  0
  -24.0994  -12.9935   20.8003 C   0  0  0  0  0  0  0  0  0  0  0  0
  -30.1741  -18.4975   27.5000 C   0  0  0  0  0  0  0  0  0  0  0  0
  -30.5180  -24.7813   25.3625 C   0  0  0  0  0  0  0  0  0  0  0  0
  -30.1477  -19.4512   26.4646 C   0  0  0  0  0  0  0  0  0  0  0  0
  -29.6859  -25.2757   24.3479 C   0  0  0  0  0  0  0  0  0  0  0  0
  -30.9220  -19.7128   19.9053 C   0  0  0  0  0  0  0  0  0  0  0  0
  -32.2667  -21.5298   20.7581 C   0  0  0  0  0  0  0  0  0  0  0  0
  -22.2715   -8.1843   21.5784 C   0  0  0  0  0  0  0  0  0  0  0  0
  -31.6383  -25.6610   22.9516 C   0  0  0  0  0  0  0  0  0  0  0  0
  -22.1574   -6.0741   22.6061 C   0  0  0  0  0  0  0  0  0  0  0  0
  -31.6755  -18.8056   20.6502 C   0  0  0  0  0  0  0  0  0  0  0  0
  -23.3905   -4.0712   24.1063 C   0  0  0  0  0  0  0  0  0  0  0  0
  -33.0202  -20.6226   21.5030 C   0  0  0  0  0  0  0  0  0  0  0  0
  -21.6159   -5.6876   23.8321 C   0  0  0  0  0  0  0  0  0  0  0  0
  -24.5268  -11.6556   20.7054 C   0  0  0  0  0  0  0  0  0  0  0  0
  -25.1910  -13.7311   20.4117 C   0  0  0  0  0  0  0  0  0  0  0  0
  -22.8293  -13.5224   21.2037 C   0  0  0  0  0  0  0  0  0  0  0  0
  -28.2805  -22.5915   25.9126 C   0  0  0  0  0  0  0  0  0  0  0  0
  -30.6957  -14.6935   20.6600 C   0  0  0  0  0  0  0  0  0  0  0  0
  -26.3715  -25.1917   26.2547 C   0  0  0  0  0  0  0  0  0  0  0  0
  -25.7986  -28.4794   25.5407 C   0  0  0  0  0  0  0  0  0  0  0  0
  -28.9225  -18.0928   28.2379 C   0  0  0  0  0  0  0  0  0  0  0  0
  -29.9353  -24.3340   26.6751 C   0  0  0  0  0  0  0  0  0  0  0  0
  -28.1907  -25.3486   24.5136 C   0  0  0  0  0  0  0  0  0  0  0  0
  -27.7737  -19.0853   28.0785 C   0  0  0  0  0  0  0  0  0  0  0  0
  -29.5286  -12.3172   18.2452 C   0  0  0  0  0  0  0  0  0  0  0  0
  -27.6136  -19.4862   26.6155 C   0  0  0  0  0  0  0  0  0  0  0  0
  -28.0988  -12.0205   18.6955 C   0  0  0  0  0  0  0  0  0  0  0  0
  -30.4504  -12.5587   19.4365 C   0  0  0  0  0  0  0  0  0  0  0  0
  -28.5485  -13.3381   20.8137 C   0  0  0  0  0  0  0  0  0  0  0  0
  -28.8760  -20.1824   26.0929 C   0  0  1  0  0  0  0  0  0  0  0  0
  -28.4681  -23.9293   26.5706 C   0  0  1  0  0  0  0  0  0  0  0  0
  -27.5777  -13.1182   19.6400 C   0  0  2  0  0  0  0  0  0  0  0  0
  -29.7963  -19.2433   19.0441 C   0  0  0  0  0  0  0  0  0  0  0  0
  -24.1363  -30.3188   25.9288 C   0  0  0  0  0  0  0  0  0  0  0  0
  -24.5060  -23.9380   24.1911 C   0  0  0  0  0  0  0  0  0  0  0  0
  -23.4153  -26.1753   23.9206 C   0  0  0  0  0  0  0  0  0  0  0  0
  -23.3464  -25.0148   26.1277 C   0  0  0  0  0  0  0  0  0  0  0  0
  -31.4270  -25.1578   18.2212 C   0  0  0  0  0  0  0  0  0  0  0  0
  -32.7232  -27.1886   18.8831 C   0  0  0  0  0  0  0  0  0  0  0  0
  -27.8002  -30.1505   26.9407 C   0  0  0  0  0  0  0  0  0  0  0  0
  -34.5300  -22.6954   19.2934 C   0  0  0  0  0  0  0  0  0  0  0  0
  -32.5817  -22.9956   20.8148 C   0  0  0  0  0  0  0  0  0  0  0  0
  -30.0684  -15.7175   21.5721 C   0  0  0  0  0  0  0  0  0  0  0  0
  -33.5419  -24.9579   19.6199 C   0  0  0  0  0  0  0  0  0  0  0  0
  -31.0497  -16.8446   21.8413 C   0  0  0  0  0  0  0  0  0  0  0  0
  -31.3809  -25.9360   20.6034 C   0  0  0  0  0  0  0  0  0  1  0  0
  -25.5213  -26.0236   25.3250 C   0  0  1  0  0  0  0  0  0  0  0  0
  -25.4080  -29.6492   26.4258 C   0  0  2  0  0  0  0  0  0  0  0  0
  -24.2253  -25.2849   24.8869 C   0  0  0  0  0  0  0  0  0  0  0  0
  -32.2674  -25.7888   19.3468 C   0  0  0  0  0  0  0  0  0  0  0  0
  -25.7912  -11.5465   20.2890 N   0  0  0  0  0  0  0  0  0  0  0  0
  -26.1677  -12.8253   20.1188 N   0  0  0  0  0  0  0  0  0  0  0  0
  -27.6683  -24.8938   25.8128 N   0  0  0  0  0  0  0  0  0  0  0  0
  -29.9094  -13.5922   20.3211 N   0  0  0  0  0  0  0  0  0  0  0  0
  -25.4010  -15.0595   20.2954 N   0  0  0  0  0  0  0  0  0  0  0  0
  -21.8179  -12.6244   21.5714 N   0  0  0  0  0  0  0  0  0  0  0  0
  -28.9258  -21.5527   26.5559 N   0  0  0  0  0  0  0  0  0  0  0  0
  -25.2849  -27.2893   26.0109 N   0  0  0  0  0  0  0  0  0  0  0  0
  -26.4966  -30.6667   26.4497 N   0  3  0  0  0  0  0  0  0  0  0  0
  -33.2837  -23.4980   19.5768 N   0  3  1  0  0  0  0  0  0  0  0  0
  -22.5928  -14.7542   21.2214 O   0  0  0  0  0  0  0  0  0  0  0  0
  -27.5995  -22.5078   24.8973 O   0  0  0  0  0  0  0  0  0  0  0  0
  -31.8491  -14.8704   20.2593 O   0  0  0  0  0  0  0  0  0  0  0  0
  -25.9047  -24.8260   27.3363 O   0  0  0  0  0  0  0  0  0  0  0  0
  -26.4871  -28.6089   24.5309 O   0  0  0  0  0  0  0  0  0  0  0  0
  -21.5461   -7.0676   21.8599 O   0  0  0  0  0  0  0  0  0  0  0  0
  -32.1789  -26.0850   21.7769 O   0  0  0  0  0  0  0  0  0  1  0  0
  -31.3998  -17.4720   20.6093 O   0  0  0  0  0  0  0  0  0  0  0  0
  -23.9818   -3.1085   24.8258 F   0  0  0  0  0  0  0  0  0  0  0  0
  -34.0320  -21.0498   22.2714 F   0  0  0  0  0  0  0  0  0  0  0  0
  -20.5030   -6.2740   24.2939 F   0  0  0  0  0  0  0  0  0  0  0  0
  1  2  1  0  0  0  0
  1  5  2  0  0  0  0
  2  6  2  0  0  0  0
  3  8  2  0  0  0  0
  3 17  1  0  0  0  0
  4  9  1  0  0  0  0
  4 17  2  0  0  0  0
  5 19  1  0  0  0  0
  6 21  1  0  0  0  0
  7 10  2  0  0  0  0
  7 20  1  0  0  0  0
  8 25  1  0  0  0  0
  9 25  2  0  0  0  0
 10 26  1  0  0  0  0
 11 12  2  0  0  0  0
 11 27  1  0  0  0  0
 12 29  1  0  0  0  0
 13 22  1  0  0  0  0
 13 26  2  0  0  0  0
 14 23  2  0  0  0  0
 14 24  1  0  0  0  0
 15 28  2  0  0  0  0
 15 30  1  0  0  0  0
 16 29  2  0  0  0  0
 16 31  1  0  0  0  0
 17 32  1  0  0  0  0
 18 32  1  0  0  0  0
 18 33  2  0  0  0  0
 18 34  1  0  0  0  0
 19 21  2  0  0  0  0
 19 39  1  0  0  0  0
 20 22  2  0  0  0  0
 20 40  1  0  0  0  0
 21 48  1  0  0  0  0
 22 41  1  0  0  0  0
 23 28  1  0  0  0  0
 23 51  1  0  0  0  0
 24 30  2  0  0  0  0
 24 60  1  0  0  0  0
 25 84  1  0  0  0  0
 26 85  1  0  0  0  0
 27 31  2  0  0  0  0
 27 84  1  0  0  0  0
 28 86  1  0  0  0  0
 29 87  1  0  0  0  0
 30 88  1  0  0  0  0
 31 89  1  0  0  0  0
 32 69  2  0  0  0  0
 33 70  1  0  0  0  0
 33 73  1  0  0  0  0
 34 74  1  0  0  0  0
 34 79  2  0  0  0  0
 35 49  1  0  0  0  0
 35 75  1  0  0  0  0
 35 80  2  0  0  0  0
 36 61  1  0  0  0  0
 36 72  1  0  0  0  0
 36 81  2  0  0  0  0
 37 65  1  0  0  0  0
 37 71  1  0  0  0  0
 37 82  2  0  0  0  0
 38 66  1  0  0  0  0
 38 76  1  0  0  0  0
 38 83  2  0  0  0  0
 39 42  1  0  0  0  0
 40 49  1  0  0  0  0
 41 71  1  0  0  0  0
 42 44  1  0  0  0  0
 43 45  1  0  0  0  0
 43 46  1  0  0  0  0
 44 48  1  0  0  0  0
 45 50  1  0  0  0  0
 46 72  1  0  0  0  0
 47 50  1  0  0  0  0
 47 72  1  0  0  0  0
 48 75  1  0  0  0  0
 49 71  1  0  0  0  0
 50 70  1  0  0  0  0
 52 66  1  0  0  0  0
 53 67  1  0  0  0  0
 54 67  1  0  0  0  0
 55 67  1  0  0  0  0
 56 68  1  0  0  0  0
 57 68  1  0  0  0  0
 58 77  1  0  0  0  0
 59 78  1  0  0  0  0
 60 78  1  0  0  0  0
 61 63  1  0  0  0  0
 62 68  1  0  0  0  0
 62 78  1  0  0  0  0
 63 86  1  0  0  0  0
 64 68  1  0  0  0  0
 64 85  1  0  0  0  0
 65 67  1  0  0  0  0
 65 76  1  0  0  0  0
 66 77  1  0  0  0  0
 69 70  1  0  0  0  0
M  CHG  2  77   1  78   1
M  ISO  4  36 100  61 100  64 101  85 101
M  END
> <Batch ID>
0016

> <Smiles>
CNC(C)C(=O)NC(C(=O)N1Cc2cc([101O:1][101CH2:1]C(C)(C)CN(C)Cc3cc(C)c(OC[100CH2:0][100C:0](=O)N4CCCC(n5nc(-c6ccc(Oc7ccc(F)cc7F)cc6)c(C(N)=O)c5N)C4)cc3F)ccc2CC1C(=O)NC1CCCc2ccccc21)C(C)(C)C

> <Shape>
0.211

> <Color>
0.196

> <Negative vol penalty>
0.000

$$$$

  -OEChem-04042320573D

 82 90  0     1  0  0  0  0  0999 V2000
  -23.0835  -27.2072   22.6722 C   0  0  0  0  0  0  0  0  0  0  0  0
  -23.0715  -25.9834   22.0108 C   0  0  0  0  0  0  0  0  0  0  0  0
  -22.9473  -16.6054   25.3922 C   0  0  0  0  0  0  0  0  0  0  0  0
  -22.3239  -18.5067   24.0382 C   0  0  0  0  0  0  0  0  0  0  0  0
  -27.9921  -13.7457   18.1118 C   0  0  0  0  0  0  0  0  0  0  0  0
  -29.1113  -15.8788   17.9265 C   0  0  0  0  0  0  0  0  0  0  0  0
  -23.9757  -28.2031   22.2773 C   0  0  0  0  0  0  0  0  0  0  0  0
  -23.9512  -25.7551   20.9532 C   0  0  0  0  0  0  0  0  0  0  0  0
  -26.6536  -20.4576   19.4906 C   0  0  0  0  0  0  0  0  0  0  0  0
  -28.6419  -13.5099   19.3232 C   0  0  0  0  0  0  0  0  0  0  0  0
  -29.7612  -15.6430   19.1380 C   0  0  0  0  0  0  0  0  0  0  0  0
  -22.0391  -17.0055   26.3723 C   0  0  0  0  0  0  0  0  0  0  0  0
  -21.4156  -18.9068   25.0182 C   0  0  0  0  0  0  0  0  0  0  0  0
  -26.3507  -19.4801   18.5437 C   0  0  0  0  0  0  0  0  0  0  0  0
  -19.1924  -20.6282   27.3213 C   0  0  0  0  0  0  0  0  0  0  0  0
  -19.1667  -21.9788   27.6689 C   0  0  0  0  0  0  0  0  0  0  0  0
  -27.9128  -20.4914   17.0087 C   0  0  0  0  0  0  0  0  0  0  0  0
  -21.4813  -21.8477   28.3490 C   0  0  0  0  0  0  0  0  0  0  0  0
  -23.0898  -17.3560   24.2252 C   0  0  0  0  0  0  0  0  0  0  0  0
  -28.2268  -14.9302   17.4134 C   0  0  0  0  0  0  0  0  0  0  0  0
  -23.7815  -16.0869   22.1231 C   0  0  0  0  0  0  0  0  0  0  0  0
  -24.8735  -27.9835   21.2206 C   0  0  0  0  0  0  0  0  0  0  0  0
  -27.5820  -21.4674   19.1991 C   0  0  0  0  0  0  0  0  0  0  0  0
  -24.8555  -26.7494   20.5429 C   0  0  0  0  0  0  0  0  0  0  0  0
  -28.2277  -21.4790   17.9545 C   0  0  0  0  0  0  0  0  0  0  0  0
  -29.5265  -14.4585   19.8364 C   0  0  0  0  0  0  0  0  0  0  0  0
  -21.2732  -18.1561   26.1853 C   0  0  0  0  0  0  0  0  0  0  0  0
  -26.9781  -19.4986   17.3015 C   0  0  0  0  0  0  0  0  0  0  0  0
  -20.3625  -19.8873   27.4876 C   0  0  0  0  0  0  0  0  0  0  0  0
  -20.3112  -22.5885   28.1827 C   0  0  0  0  0  0  0  0  0  0  0  0
  -21.5069  -20.4970   28.0014 C   0  0  0  0  0  0  0  0  0  0  0  0
  -24.0283  -16.9435   23.2127 C   0  0  0  0  0  0  0  0  0  0  0  0
  -24.9847  -16.0136   21.4646 C   0  0  0  0  0  0  0  0  0  0  0  0
  -27.5431  -15.1794   16.1400 C   0  0  0  0  0  0  0  0  0  0  0  0
  -22.5728  -15.4175   21.7404 C   0  0  0  0  0  0  0  0  0  0  0  0
  -26.7122  -16.2058   15.8732 C   0  0  0  0  0  0  0  0  0  0  0  0
  -27.4564  -24.6364   18.9862 C   0  0  0  0  0  0  0  0  0  0  0  0
  -30.6665  -24.3495   18.6187 C   0  0  0  0  0  0  0  0  0  0  0  0
  -33.3153  -22.4018   17.7036 C   0  0  0  0  0  0  0  0  0  0  0  0
  -30.5852  -15.2442   21.9702 C   0  0  0  0  0  0  0  0  0  0  0  0
  -25.7870  -29.1069   20.7988 C   0  0  0  0  0  0  0  0  0  0  0  0
  -27.9176  -22.4989   20.2411 C   0  0  0  0  0  0  0  0  0  0  0  0
  -29.2468  -22.5297   17.5997 C   0  0  0  0  0  0  0  0  0  0  0  0
  -26.9435  -28.6514   19.9126 C   0  0  0  0  0  0  0  0  0  0  0  0
  -29.2323  -18.6884   21.9837 C   0  0  0  0  0  0  0  0  0  0  0  0
  -26.4396  -27.7216   18.8134 C   0  0  0  0  0  0  0  0  0  0  0  0
  -27.7537  -18.4709   22.2999 C   0  0  0  0  0  0  0  0  0  0  0  0
  -30.1071  -17.5924   22.5847 C   0  0  0  0  0  0  0  0  0  0  0  0
  -28.2145  -15.9950   22.4971 C   0  0  0  0  0  0  0  0  0  0  0  0
  -25.8113  -26.4550   19.4072 C   0  0  1  0  0  0  0  0  0  0  0  0
  -28.4978  -23.7796   19.6489 C   0  0  1  0  0  0  0  0  0  0  0  0
  -27.3081  -17.0639   21.8686 C   0  0  1  0  0  0  0  0  0  0  0  0
  -26.0916  -16.3364   14.5063 C   0  0  0  0  0  0  0  0  0  0  0  0
  -35.8137  -22.4554   17.4747 C   0  0  0  0  0  0  0  0  0  0  0  0
  -30.3946  -25.9920   16.0617 C   0  0  0  0  0  0  0  0  0  0  0  0
  -32.6817  -25.2157   15.4026 C   0  0  0  0  0  0  0  0  0  0  0  0
  -32.3763  -26.5761   17.4711 C   0  0  0  0  0  0  0  0  0  0  0  0
  -30.7249  -12.8757   21.3360 C   0  0  0  0  0  0  0  0  0  0  0  0
  -33.6589  -20.2231   19.6770 C   0  0  0  0  0  0  0  0  0  0  0  0
  -26.2976  -17.2622   16.8641 C   0  0  0  0  0  0  0  0  0  1  0  0
  -31.5963  -24.1714   17.4428 C   0  0  1  0  0  0  0  0  0  0  0  0
  -34.6423  -22.1213   18.3852 C   0  0  2  0  0  0  0  0  0  0  0  0
  -31.7416  -25.4700   16.6002 C   0  0  0  0  0  0  0  0  0  0  0  0
  -25.2892  -17.3828   23.2480 N   0  0  0  0  0  0  0  0  0  0  0  0
  -25.8455  -16.7998   22.1724 N   0  0  0  0  0  0  0  0  0  0  0  0
  -29.5363  -23.5203   18.6497 N   0  0  0  0  0  0  0  0  0  0  0  0
  -29.6352  -16.2572   22.2146 N   0  0  0  0  0  0  0  0  0  0  0  0
  -25.3796  -15.3538   20.3551 N   0  0  0  0  0  0  0  0  0  0  0  0
  -21.4285  -15.6023   22.5282 N   0  0  0  0  0  0  0  0  0  0  0  0
  -26.8413  -25.5341   19.8379 N   0  0  0  0  0  0  0  0  0  0  0  0
  -32.8527  -23.6692   17.9882 N   0  0  0  0  0  0  0  0  0  0  0  0
  -30.1972  -14.2159   21.0902 N   0  0  0  0  0  0  0  0  0  0  0  0
  -34.7365  -20.6829   18.7635 N   0  3  0  0  0  0  0  0  0  0  0  0
  -22.5137  -14.6642   20.7391 O   0  0  0  0  0  0  0  0  0  0  0  0
  -27.2288  -24.4946   17.7905 O   0  0  0  0  0  0  0  0  0  0  0  0
  -30.9369  -25.1883   19.4818 O   0  0  0  0  0  0  0  0  0  0  0  0
  -32.7477  -21.5802   16.9871 O   0  0  0  0  0  0  0  0  0  0  0  0
  -31.6834  -15.2260   22.5394 O   0  0  0  0  0  0  0  0  0  0  0  0
  -20.3866  -18.5467   27.1413 O   0  0  0  0  0  0  0  0  0  0  0  0
  -26.6838  -18.5461   16.3753 O   0  0  0  0  0  0  0  0  0  1  0  0
  -20.2868  -23.8859   28.5150 F   0  0  0  0  0  0  0  0  0  0  0  0
  -22.6343  -19.7907   28.1624 F   0  0  0  0  0  0  0  0  0  0  0  0
  1  2  1  0  0  0  0
  1  7  2  0  0  0  0
  2  8  2  0  0  0  0
  3 12  2  0  0  0  0
  3 19  1  0  0  0  0
  4 13  1  0  0  0  0
  4 19  2  0  0  0  0
  5 10  2  0  0  0  0
  5 20  1  0  0  0  0
  6 11  1  0  0  0  0
  6 20  2  0  0  0  0
  7 22  1  0  0  0  0
  8 24  1  0  0  0  0
  9 14  2  0  0  0  0
  9 23  1  0  0  0  0
 10 26  1  0  0  0  0
 11 26  2  0  0  0  0
 12 27  1  0  0  0  0
 13 27  2  0  0  0  0
 14 28  1  0  0  0  0
 15 16  2  0  0  0  0
 15 29  1  0  0  0  0
 16 30  1  0  0  0  0
 17 25  1  0  0  0  0
 17 28  2  0  0  0  0
 18 30  2  0  0  0  0
 18 31  1  0  0  0  0
 19 32  1  0  0  0  0
 20 34  1  0  0  0  0
 21 32  1  0  0  0  0
 21 33  2  0  0  0  0
 21 35  1  0  0  0  0
 22 24  2  0  0  0  0
 22 41  1  0  0  0  0
 23 25  2  0  0  0  0
 23 42  1  0  0  0  0
 24 50  1  0  0  0  0
 25 43  1  0  0  0  0
 26 72  1  0  0  0  0
 27 79  1  0  0  0  0
 28 80  1  0  0  0  0
 29 31  2  0  0  0  0
 29 79  1  0  0  0  0
 30 81  1  0  0  0  0
 31 82  1  0  0  0  0
 32 64  2  0  0  0  0
 33 65  1  0  0  0  0
 33 68  1  0  0  0  0
 34 36  2  0  0  0  0
 35 69  1  0  0  0  0
 35 74  2  0  0  0  0
 36 53  1  0  0  0  0
 36 60  1  0  0  0  0
 37 51  1  0  0  0  0
 37 70  1  0  0  0  0
 37 75  2  0  0  0  0
 38 61  1  0  0  0  0
 38 66  1  0  0  0  0
 38 76  2  0  0  0  0
 39 62  1  0  0  0  0
 39 71  1  0  0  0  0
 39 77  2  0  0  0  0
 40 67  1  0  0  0  0
 40 72  1  0  0  0  0
 40 78  2  0  0  0  0
 41 44  1  0  0  0  0
 42 51  1  0  0  0  0
 43 66  1  0  0  0  0
 44 46  1  0  0  0  0
 45 47  1  0  0  0  0
 45 48  1  0  0  0  0
 46 50  1  0  0  0  0
 47 52  1  0  0  0  0
 48 67  1  0  0  0  0
 49 52  1  0  0  0  0
 49 67  1  0  0  0  0
 50 70  1  0  0  0  0
 51 66  1  0  0  0  0
 52 65  1  0  0  0  0
 54 62  1  0  0  0  0
 55 63  1  0  0  0  0
 56 63  1  0  0  0  0
 57 63  1  0  0  0  0
 58 72  1  0  0  0  0
 59 73  1  0  0  0  0
 60 80  1  0  0  0  0
 61 63  1  0  0  0  0
 61 71  1  0  0  0  0
 62 73  1  0  0  0  0
 64 65  1  0  0  0  0
M  CHG  1  73   1
M  ISO  4  40 100  60 101  72 100  80 101
M  END
> <Batch ID>
0016

> <Smiles>
CNC(C)C(=O)NC(C(=O)N1Cc2cc([101O:1][101CH2:1]C(C)=Cc3ccc([100N:0](C)[100C:0](=O)N4CCCC(n5nc(-c6ccc(Oc7ccc(F)cc7F)cc6)c(C(N)=O)c5N)C4)cc3)ccc2CC1C(=O)NC1CCCc2ccccc21)C(C)(C)C

> <Shape>
0.144

> <Color>
0.094

> <Negative vol penalty>
0.000

$$$$

  -OEChem-04042320573D

 90 99  0     1  0  0  0  0  0999 V2000
  -27.6232  -25.5853   15.4249 C   0  0  0  0  0  0  0  0  0  0  0  0
  -26.5149  -25.6108   16.2655 C   0  0  0  0  0  0  0  0  0  0  0  0
  -24.4245   -9.0755   21.6545 C   0  0  0  0  0  0  0  0  0  0  0  0
  -23.1906  -10.4962   20.1392 C   0  0  0  0  0  0  0  0  0  0  0  0
  -28.8463  -26.0846   15.8705 C   0  0  0  0  0  0  0  0  0  0  0  0
  -26.6295  -26.1347   17.5527 C   0  0  0  0  0  0  0  0  0  0  0  0
  -22.7785  -29.1961   18.7539 C   0  0  0  0  0  0  0  0  0  0  0  0
  -22.2607  -21.6493   21.0792 C   0  0  0  0  0  0  0  0  0  0  0  0
  -23.2600  -20.8660   20.5020 C   0  0  0  0  0  0  0  0  0  0  0  0
  -23.2313   -8.4898   22.0771 C   0  0  0  0  0  0  0  0  0  0  0  0
  -21.9973   -9.9104   20.5618 C   0  0  0  0  0  0  0  0  0  0  0  0
  -21.5743  -28.5931   19.1143 C   0  0  0  0  0  0  0  0  0  0  0  0
  -21.0625   -6.1572   20.9420 C   0  0  0  0  0  0  0  0  0  0  0  0
  -21.0278   -4.7676   21.0574 C   0  0  0  0  0  0  0  0  0  0  0  0
  -22.0992  -28.9496   21.4417 C   0  0  0  0  0  0  0  0  0  0  0  0
  -23.9092  -23.3105   21.6790 C   0  0  0  0  0  0  0  0  0  0  0  0
  -20.5059   -4.9759   23.4072 C   0  0  0  0  0  0  0  0  0  0  0  0
  -24.4042  -10.0788   20.6856 C   0  0  0  0  0  0  0  0  0  0  0  0
  -26.4596  -10.2664   19.1863 C   0  0  0  0  0  0  0  0  0  0  0  0
  -28.9735  -26.6237   17.1604 C   0  0  0  0  0  0  0  0  0  0  0  0
  -23.6587  -29.6714   19.7367 C   0  0  0  0  0  0  0  0  0  0  0  0
  -27.8558  -26.6405   18.0165 C   0  0  0  0  0  0  0  0  0  0  0  0
  -23.3128  -29.5605   21.0911 C   0  0  0  0  0  0  0  0  0  0  0  0
  -22.5852  -22.8717   21.6677 C   0  0  0  0  0  0  0  0  0  0  0  0
  -24.5840  -21.3048   20.5133 C   0  0  0  0  0  0  0  0  0  0  0  0
  -22.0177   -8.9072   21.5308 C   0  0  0  0  0  0  0  0  0  0  0  0
  -21.2357  -28.4671   20.4584 C   0  0  0  0  0  0  0  0  0  0  0  0
  -20.8190   -6.9562   22.0592 C   0  0  0  0  0  0  0  0  0  0  0  0
  -20.7495   -4.1769   22.2900 C   0  0  0  0  0  0  0  0  0  0  0  0
  -20.5407   -6.3655   23.2917 C   0  0  0  0  0  0  0  0  0  0  0  0
  -24.9086  -22.5271   21.1018 C   0  0  0  0  0  0  0  0  0  0  0  0
  -25.6364  -10.6846   20.2490 C   0  0  0  0  0  0  0  0  0  0  0  0
  -27.4980  -11.1653   19.1820 C   0  0  0  0  0  0  0  0  0  0  0  0
  -26.2997   -9.1640   18.2836 C   0  0  0  0  0  0  0  0  0  0  0  0
  -26.6376  -28.9801   20.6039 C   0  0  0  0  0  0  0  0  0  0  0  0
  -26.2395  -31.5244   22.5763 C   0  0  0  0  0  0  0  0  0  0  0  0
  -25.8345  -19.1532   20.3712 C   0  0  0  0  0  0  0  0  0  0  0  0
  -24.0969  -33.5600   24.2828 C   0  0  0  0  0  0  0  0  0  0  0  0
  -28.0113  -16.8115   21.1078 C   0  0  0  0  0  0  0  0  0  0  0  0
  -30.3277  -27.1084   17.6143 C   0  0  0  0  0  0  0  0  0  0  0  0
  -24.9416  -30.3434   19.3307 C   0  0  0  0  0  0  0  0  0  0  0  0
  -24.2136  -30.0728   22.1841 C   0  0  0  0  0  0  0  0  0  0  0  0
  -30.2733  -27.9891   18.8600 C   0  0  0  0  0  0  0  0  0  0  0  0
  -29.9891  -14.0226   22.1012 C   0  0  0  0  0  0  0  0  0  0  0  0
  -29.3742  -27.3601   19.9197 C   0  0  0  0  0  0  0  0  0  0  0  0
  -29.1721  -12.8131   21.6433 C   0  0  0  0  0  0  0  0  0  0  0  0
  -25.8677  -20.6389   17.3437 C   0  0  0  0  0  0  0  0  0  0  0  0
  -25.7090  -22.0457   17.8381 C   0  0  0  0  0  0  0  0  0  0  0  0
  -29.0921  -15.1541   22.5982 C   0  0  0  0  0  0  0  0  0  0  0  0
  -27.2279  -14.3670   21.1915 C   0  0  0  0  0  0  0  0  0  0  0  0
  -27.9341  -27.2234   19.4108 C   0  0  1  0  0  0  0  0  0  0  0  0
  -25.9981  -30.3288   20.4312 C   0  0  1  0  0  0  0  0  0  0  0  0
  -28.0865  -13.2212   20.6293 C   0  0  2  0  0  0  0  0  0  0  0  0
  -26.2994  -20.9963   18.7396 C   0  0  0  0  0  0  0  0  0  0  0  0
  -24.0688  -35.5287   25.8388 C   0  0  0  0  0  0  0  0  0  0  0  0
  -27.0903  -29.7130   24.8796 C   0  0  0  0  0  0  0  0  0  0  0  0
  -26.1455  -31.4037   26.4662 C   0  0  0  0  0  0  0  0  0  0  0  0
  -28.0389  -32.0254   24.9658 C   0  0  0  0  0  0  0  0  0  0  0  0
  -22.5660  -35.2066   22.3583 C   0  0  0  0  0  0  0  0  0  0  0  0
  -21.5098  -23.7136   22.2886 C   0  0  0  0  0  0  0  0  0  0  0  0
  -26.8384  -18.3501   19.5535 C   0  0  0  0  0  0  0  0  0  0  0  0
  -18.7422  -25.8756   20.7632 C   0  0  0  0  0  0  0  0  0  0  0  0
  -19.5453  -25.1959   21.8619 C   0  0  0  0  0  0  0  0  0  0  0  0
  -19.5499  -26.8718   19.9402 C   0  0  0  0  0  0  0  0  0  1  0  0
  -25.7296  -31.7162   23.9842 C   0  0  1  0  0  0  0  0  0  0  0  0
  -24.0137  -35.0720   24.3892 C   0  0  2  0  0  0  0  0  0  0  0  0
  -26.7347  -31.2031   25.0537 C   0  0  0  0  0  0  0  0  0  0  0  0
  -26.1112  -11.7650   20.8746 N   0  0  0  0  0  0  0  0  0  0  0  0
  -27.2439  -12.0333   20.2029 N   0  0  0  0  0  0  0  0  0  0  0  0
  -25.4598  -30.7165   21.7366 N   0  0  0  0  0  0  0  0  0  0  0  0
  -28.0857  -15.4941   21.5895 N   0  0  0  0  0  0  0  0  0  0  0  0
  -28.5947  -11.2900   18.4047 N   0  0  0  0  0  0  0  0  0  0  0  0
  -25.1752   -8.3400   18.4279 N   0  0  0  0  0  0  0  0  0  0  0  0
  -27.2556  -28.5005   19.4648 N   0  0  0  0  0  0  0  0  0  0  0  0
  -25.3956  -33.1310   24.1082 N   0  0  0  0  0  0  0  0  0  0  0  0
  -27.0337  -17.0470   20.1489 N   0  0  0  0  0  0  0  0  0  0  0  0
  -25.5611  -20.4962   19.9250 N   0  0  0  0  0  0  0  0  0  0  0  0
  -22.7413  -35.5643   23.7895 N   0  3  0  0  0  0  0  0  0  0  0  0
  -20.6572  -24.4059   21.2831 N   0  3  0  0  0  0  0  0  0  0  0  0
  -27.1379   -8.9073   17.3863 O   0  0  0  0  0  0  0  0  0  0  0  0
  -26.5762  -28.4170   21.6906 O   0  0  0  0  0  0  0  0  0  0  0  0
  -27.2872  -32.0771   22.2321 O   0  0  0  0  0  0  0  0  0  0  0  0
  -25.2810  -18.6343   21.3434 O   0  0  0  0  0  0  0  0  0  0  0  0
  -23.1090  -32.8321   24.3518 O   0  0  0  0  0  0  0  0  0  0  0  0
  -28.7641  -17.7099   21.4991 O   0  0  0  0  0  0  0  0  0  0  0  0
  -20.8531   -8.3357   21.9427 O   0  0  0  0  0  0  0  0  0  0  0  0
  -20.0612  -27.8784   20.8129 O   0  0  0  0  0  0  0  0  0  1  0  0
  -20.7146   -2.8424   22.4004 F   0  0  0  0  0  0  0  0  0  0  0  0
  -20.3048   -7.1279   24.3683 F   0  0  0  0  0  0  0  0  0  0  0  0
  -26.5353  -23.1082   21.1381 Cl  0  0  0  0  0  0  0  0  0  0  0  0
  1  2  1  0  0  0  0
  1  5  2  0  0  0  0
  2  6  2  0  0  0  0
  3 10  2  0  0  0  0
  3 18  1  0  0  0  0
  4 11  1  0  0  0  0
  4 18  2  0  0  0  0
  5 20  1  0  0  0  0
  6 22  1  0  0  0  0
  7 12  2  0  0  0  0
  7 21  1  0  0  0  0
  8  9  2  0  0  0  0
  8 24  1  0  0  0  0
  9 25  1  0  0  0  0
 10 26  1  0  0  0  0
 11 26  2  0  0  0  0
 12 27  1  0  0  0  0
 13 14  2  0  0  0  0
 13 28  1  0  0  0  0
 14 29  1  0  0  0  0
 15 23  1  0  0  0  0
 15 27  2  0  0  0  0
 16 24  2  0  0  0  0
 16 31  1  0  0  0  0
 17 29  2  0  0  0  0
 17 30  1  0  0  0  0
 18 32  1  0  0  0  0
 19 32  1  0  0  0  0
 19 33  2  0  0  0  0
 19 34  1  0  0  0  0
 20 22  2  0  0  0  0
 20 40  1  0  0  0  0
 21 23  2  0  0  0  0
 21 41  1  0  0  0  0
 22 51  1  0  0  0  0
 23 42  1  0  0  0  0
 24 60  1  0  0  0  0
 25 31  2  0  0  0  0
 25 77  1  0  0  0  0
 26 86  1  0  0  0  0
 27 87  1  0  0  0  0
 28 30  2  0  0  0  0
 28 86  1  0  0  0  0
 29 88  1  0  0  0  0
 30 89  1  0  0  0  0
 31 90  1  0  0  0  0
 32 68  2  0  0  0  0
 33 69  1  0  0  0  0
 33 72  1  0  0  0  0
 34 73  1  0  0  0  0
 34 80  2  0  0  0  0
 35 52  1  0  0  0  0
 35 74  1  0  0  0  0
 35 81  2  0  0  0  0
 36 65  1  0  0  0  0
 36 70  1  0  0  0  0
 36 82  2  0  0  0  0
 37 61  1  0  0  0  0
 37 77  1  0  0  0  0
 37 83  2  0  0  0  0
 38 66  1  0  0  0  0
 38 75  1  0  0  0  0
 38 84  2  0  0  0  0
 39 71  1  0  0  0  0
 39 76  1  0  0  0  0
 39 85  2  0  0  0  0
 40 43  1  0  0  0  0
 41 52  1  0  0  0  0
 42 70  1  0  0  0  0
 43 45  1  0  0  0  0
 44 46  1  0  0  0  0
 44 49  1  0  0  0  0
 45 51  1  0  0  0  0
 46 53  1  0  0  0  0
 47 48  1  0  0  0  0
 47 54  1  0  0  0  0
 48 54  1  0  0  0  0
 49 71  1  0  0  0  0
 50 53  1  0  0  0  0
 50 71  1  0  0  0  0
 51 74  1  0  0  0  0
 52 70  1  0  0  0  0
 53 69  1  0  0  0  0
 54 77  1  0  0  0  0
 55 66  1  0  0  0  0
 56 67  1  0  0  0  0
 57 67  1  0  0  0  0
 58 67  1  0  0  0  0
 59 78  1  0  0  0  0
 60 79  1  0  0  0  0
 61 76  1  0  0  0  0
 62 63  1  0  0  0  0
 62 64  1  0  0  0  0
 63 79  1  0  0  0  0
 64 87  1  0  0  0  0
 65 67  1  0  0  0  0
 65 75  1  0  0  0  0
 66 78  1  0  0  0  0
 68 69  1  0  0  0  0
M  CHG  2  78   1  79   1
M  ISO  4  39 100  64 101  76 100  87 101
M  END
> <Batch ID>
0016

> <Smiles>
CNC(C)C(=O)NC(C(=O)N1Cc2cc([101O:1][101CH2:1]CCNCc3ccc(N(C(=O)C[100NH:0][100C:0](=O)N4CCCC(n5nc(-c6ccc(Oc7ccc(F)cc7F)cc6)c(C(N)=O)c5N)C4)C4CC4)c(Cl)c3)ccc2CC1C(=O)NC1CCCc2ccccc21)C(C)(C)C

> <Shape>
0.286

> <Color>
0.086

> <Negative vol penalty>
0.000

$$$$

  -OEChem-04042320573D

 91100  0     1  0  0  0  0  0999 V2000
  -24.3482  -31.0766   20.9939 C   0  0  0  0  0  0  0  0  0  0  0  0
  -25.5850  -30.4443   20.9171 C   0  0  0  0  0  0  0  0  0  0  0  0
  -22.9616  -10.0870   19.9166 C   0  0  0  0  0  0  0  0  0  0  0  0
  -23.8247   -9.8833   22.1640 C   0  0  0  0  0  0  0  0  0  0  0  0
  -23.1772  -30.3203   20.9692 C   0  0  0  0  0  0  0  0  0  0  0  0
  -25.6515  -29.0551   20.8166 C   0  0  0  0  0  0  0  0  0  0  0  0
  -28.9783  -27.5169   17.3221 C   0  0  0  0  0  0  0  0  0  0  0  0
  -31.7045  -18.7989   20.8146 C   0  0  0  0  0  0  0  0  0  0  0  0
  -31.4443  -17.4306   20.7390 C   0  0  0  0  0  0  0  0  0  0  0  0
  -22.1734   -8.9538   20.1166 C   0  0  0  0  0  0  0  0  0  0  0  0
  -23.0363   -8.7501   22.3640 C   0  0  0  0  0  0  0  0  0  0  0  0
  -30.3279  -27.5491   17.6701 C   0  0  0  0  0  0  0  0  0  0  0  0
  -19.8032   -8.0588   23.0637 C   0  0  0  0  0  0  0  0  0  0  0  0
  -19.0994   -7.9645   24.2643 C   0  0  0  0  0  0  0  0  0  0  0  0
  -30.2629  -25.1795   18.1173 C   0  0  0  0  0  0  0  0  0  0  0  0
  -30.1791  -18.9860   22.6788 C   0  0  0  0  0  0  0  0  0  0  0  0
  -20.2749   -5.9210   24.7929 C   0  0  0  0  0  0  0  0  0  0  0  0
  -23.7874  -10.5518   20.9403 C   0  0  0  0  0  0  0  0  0  0  0  0
  -24.2489  -13.0601   20.9913 C   0  0  0  0  0  0  0  0  0  0  0  0
  -23.2291  -28.9219   20.8586 C   0  0  0  0  0  0  0  0  0  0  0  0
  -28.2568  -26.3158   17.3796 C   0  0  0  0  0  0  0  0  0  0  0  0
  -24.4801  -28.2793   20.7918 C   0  0  0  0  0  0  0  0  0  0  0  0
  -28.9048  -25.1342   17.7670 C   0  0  0  0  0  0  0  0  0  0  0  0
  -31.0719  -19.5766   21.7846 C   0  0  0  0  0  0  0  0  0  0  0  0
  -30.5514  -16.8400   21.6333 C   0  0  0  0  0  0  0  0  0  0  0  0
  -22.2107   -8.2853   21.3402 C   0  0  0  0  0  0  0  0  0  0  0  0
  -30.9698  -26.3808   18.0706 C   0  0  0  0  0  0  0  0  0  0  0  0
  -20.7429   -7.0842   22.7277 C   0  0  0  0  0  0  0  0  0  0  0  0
  -19.3352   -6.8956   25.1289 C   0  0  0  0  0  0  0  0  0  0  0  0
  -20.9787   -6.0153   23.5923 C   0  0  0  0  0  0  0  0  0  0  0  0
  -29.9188  -17.6177   22.6032 C   0  0  0  0  0  0  0  0  0  0  0  0
  -24.6023  -11.7220   20.7341 C   0  0  0  0  0  0  0  0  0  0  0  0
  -25.3594  -13.7838   20.6314 C   0  0  0  0  0  0  0  0  0  0  0  0
  -23.0261  -13.6007   21.5094 C   0  0  0  0  0  0  0  0  0  0  0  0
  -25.7393  -25.2879   19.0257 C   0  0  0  0  0  0  0  0  0  0  0  0
  -34.3009  -22.6390   21.1034 C   0  0  0  0  0  0  0  0  0  0  0  0
  -26.0400  -22.6865   17.1113 C   0  0  0  0  0  0  0  0  0  0  0  0
  -28.0510  -20.7527   15.1458 C   0  0  0  0  0  0  0  0  0  0  0  0
  -30.8732  -14.5588   20.6140 C   0  0  0  0  0  0  0  0  0  0  0  0
  -21.9376  -28.1433   20.8835 C   0  0  0  0  0  0  0  0  0  0  0  0
  -26.8082  -26.2927   16.9753 C   0  0  0  0  0  0  0  0  0  0  0  0
  -28.1803  -23.8151   17.8261 C   0  0  0  0  0  0  0  0  0  0  0  0
  -22.0849  -26.7036   20.3977 C   0  0  0  0  0  0  0  0  0  0  0  0
  -29.5330  -12.3875   18.1308 C   0  0  0  0  0  0  0  0  0  0  0  0
  -33.8998  -22.0936   24.3521 C   0  0  0  0  0  0  0  0  0  0  0  0
  -23.3008  -26.0448   21.0413 C   0  0  0  0  0  0  0  0  0  0  0  0
  -33.7283  -23.3054   23.4529 C   0  0  0  0  0  0  0  0  0  0  0  0
  -28.1017  -12.1308   18.6079 C   0  0  0  0  0  0  0  0  0  0  0  0
  -30.5122  -12.4810   19.2996 C   0  0  0  0  0  0  0  0  0  0  0  0
  -28.7087  -13.1852   20.8230 C   0  0  0  0  0  0  0  0  0  0  0  0
  -32.7283  -21.2186   23.9667 C   0  0  0  0  0  0  0  0  0  0  0  0
  -24.5927  -26.7762   20.6570 C   0  0  1  0  0  0  0  0  0  0  0  0
  -26.0422  -25.1122   17.5645 C   0  0  1  0  0  0  0  0  0  0  0  0
  -33.2190  -22.7450   22.1279 C   0  0  2  0  0  0  0  0  0  0  0  0
  -27.6758  -13.1478   19.6849 C   0  0  2  0  0  0  0  0  0  0  0  0
  -28.0228  -18.6709   13.7449 C   0  0  0  0  0  0  0  0  0  0  0  0
  -26.0929  -20.9848   19.6434 C   0  0  0  0  0  0  0  0  0  0  0  0
  -27.0027  -19.0977   18.2725 C   0  0  0  0  0  0  0  0  0  0  0  0
  -24.7424  -20.0255   17.7698 C   0  0  0  0  0  0  0  0  0  0  0  0
  -35.9490  -23.9074   19.6886 C   0  0  0  0  0  0  0  0  0  0  0  0
  -28.7633  -22.2524   12.6958 C   0  0  0  0  0  0  0  0  0  0  0  0
  -31.3521  -21.0483   21.8651 C   0  0  0  0  0  0  0  0  0  0  0  0
  -33.9105  -26.0515   20.1417 C   0  0  0  0  0  0  0  0  0  0  0  0
  -34.4457  -25.1201   21.2210 C   0  0  0  0  0  0  0  0  0  0  0  0
  -32.7270  -25.4625   19.3838 C   0  0  0  0  0  0  0  0  0  1  0  0
  -26.7958  -21.3821   17.1910 C   0  0  1  0  0  0  0  0  0  0  0  0
  -27.8506  -20.1818   13.7535 C   0  0  2  0  0  0  0  0  0  0  0  0
  -26.1719  -20.3976   18.2200 C   0  0  0  0  0  0  0  0  0  0  0  0
  -25.8405  -11.6000   20.2481 N   0  0  0  0  0  0  0  0  0  0  0  0
  -26.2747  -12.8708   20.1970 N   0  0  0  0  0  0  0  0  0  0  0  0
  -26.7634  -23.8453   17.4272 N   0  0  0  0  0  0  0  0  0  0  0  0
  -30.0459  -13.4665   20.2776 N   0  0  0  0  0  0  0  0  0  0  0  0
  -25.6324  -15.1058   20.6472 N   0  0  0  0  0  0  0  0  0  0  0  0
  -21.9866  -12.7162   21.8277 N   0  0  0  0  0  0  0  0  0  0  0  0
  -30.3108  -15.4475   21.5297 N   0  0  0  0  0  0  0  0  0  0  0  0
  -24.9966  -26.4168   19.3145 N   0  0  0  0  0  0  0  0  0  0  0  0
  -26.8584  -20.8628   15.8292 N   0  0  0  0  0  0  0  0  0  0  0  0
  -34.8761  -23.8569   20.6888 N   0  0  0  0  0  0  0  0  0  0  0  0
  -32.6868  -21.3588   22.4636 N   0  3  2  0  0  0  0  0  0  0  0  0
  -28.8364  -20.7726   12.8047 N   0  3  0  0  0  0  0  0  0  0  0  0
  -22.8544  -14.8329   21.6695 O   0  0  0  0  0  0  0  0  0  0  0  0
  -26.1479  -24.4598   19.8312 O   0  0  0  0  0  0  0  0  0  0  0  0
  -34.6263  -21.5248   20.6848 O   0  0  0  0  0  0  0  0  0  0  0  0
  -24.8535  -22.6783   16.7741 O   0  0  0  0  0  0  0  0  0  0  0  0
  -29.1554  -21.0659   15.5848 O   0  0  0  0  0  0  0  0  0  0  0  0
  -31.9868  -14.7104   20.1052 O   0  0  0  0  0  0  0  0  0  0  0  0
  -21.4414   -7.1797   21.5358 O   0  0  0  0  0  0  0  0  0  0  0  0
  -32.2869  -26.4096   18.4114 O   0  0  0  0  0  0  0  0  0  1  0  0
  -18.6603   -6.8060   26.2824 F   0  0  0  0  0  0  0  0  0  0  0  0
  -21.8810   -5.0766   23.2755 F   0  0  0  0  0  0  0  0  0  0  0  0
  -28.8060  -16.9269   23.7300 Cl  0  0  0  0  0  0  0  0  0  0  0  0
  1  2  1  0  0  0  0
  1  5  2  0  0  0  0
  2  6  2  0  0  0  0
  3 10  2  0  0  0  0
  3 18  1  0  0  0  0
  4 11  1  0  0  0  0
  4 18  2  0  0  0  0
  5 20  1  0  0  0  0
  6 22  1  0  0  0  0
  7 12  2  0  0  0  0
  7 21  1  0  0  0  0
  8  9  2  0  0  0  0
  8 24  1  0  0  0  0
  9 25  1  0  0  0  0
 10 26  1  0  0  0  0
 11 26  2  0  0  0  0
 12 27  1  0  0  0  0
 13 14  2  0  0  0  0
 13 28  1  0  0  0  0
 14 29  1  0  0  0  0
 15 23  1  0  0  0  0
 15 27  2  0  0  0  0
 16 24  2  0  0  0  0
 16 31  1  0  0  0  0
 17 29  2  0  0  0  0
 17 30  1  0  0  0  0
 18 32  1  0  0  0  0
 19 32  1  0  0  0  0
 19 33  2  0  0  0  0
 19 34  1  0  0  0  0
 20 22  2  0  0  0  0
 20 40  1  0  0  0  0
 21 23  2  0  0  0  0
 21 41  1  0  0  0  0
 22 52  1  0  0  0  0
 23 42  1  0  0  0  0
 24 62  1  0  0  0  0
 25 31  2  0  0  0  0
 25 75  1  0  0  0  0
 26 87  1  0  0  0  0
 27 88  1  0  0  0  0
 28 30  2  0  0  0  0
 28 87  1  0  0  0  0
 29 89  1  0  0  0  0
 30 90  1  0  0  0  0
 31 91  1  0  0  0  0
 32 69  2  0  0  0  0
 33 70  1  0  0  0  0
 33 73  1  0  0  0  0
 34 74  1  0  0  0  0
 34 81  2  0  0  0  0
 35 53  1  0  0  0  0
 35 76  1  0  0  0  0
 35 82  2  0  0  0  0
 36 54  1  0  0  0  0
 36 78  1  0  0  0  0
 36 83  2  0  0  0  0
 37 66  1  0  0  0  0
 37 71  1  0  0  0  0
 37 84  2  0  0  0  0
 38 67  1  0  0  0  0
 38 77  1  0  0  0  0
 38 85  2  0  0  0  0
 39 72  1  0  0  0  0
 39 75  1  0  0  0  0
 39 86  2  0  0  0  0
 40 43  1  0  0  0  0
 41 53  1  0  0  0  0
 42 71  1  0  0  0  0
 43 46  1  0  0  0  0
 44 48  1  0  0  0  0
 44 49  1  0  0  0  0
 45 47  1  0  0  0  0
 45 51  1  0  0  0  0
 46 52  1  0  0  0  0
 47 54  1  0  0  0  0
 48 55  1  0  0  0  0
 49 72  1  0  0  0  0
 50 55  1  0  0  0  0
 50 72  1  0  0  0  0
 51 79  1  0  0  0  0
 52 76  1  0  0  0  0
 53 71  1  0  0  0  0
 54 79  1  0  0  0  0
 55 70  1  0  0  0  0
 56 67  1  0  0  0  0
 57 68  1  0  0  0  0
 58 68  1  0  0  0  0
 59 68  1  0  0  0  0
 60 78  1  0  0  0  0
 61 80  1  0  0  0  0
 62 79  1  0  0  0  0
 63 64  1  0  0  0  0
 63 65  1  0  0  0  0
 64 78  1  0  0  0  0
 65 88  1  0  0  0  0
 66 68  1  0  0  0  0
 66 77  1  0  0  0  0
 67 80  1  0  0  0  0
 69 70  1  0  0  0  0
M  CHG  2  79   1  80   1
M  ISO  4  39 100  65 101  75 100  88 101
M  END
> <Batch ID>
0016

> <Smiles>
CNC(C)C(=O)NC(C(=O)N1Cc2cc([101O:1][101CH2:1]CCN(C)C(=O)C3CCCN3Cc3ccc([100NH:0][100C:0](=O)N4CCCC(n5nc(-c6ccc(Oc7ccc(F)cc7F)cc6)c(C(N)=O)c5N)C4)c(Cl)c3)ccc2CC1C(=O)NC1CCCc2ccccc21)C(C)(C)C

> <Shape>
0.261

> <Color>
0.193

> <Negative vol penalty>
0.000

$$$$

  -OEChem-04042320573D

 86 94  0     1  0  0  0  0  0999 V2000
  -23.5575  -27.3851    7.9158 C   0  0  0  0  0  0  0  0  0  0  0  0
  -24.1173  -26.4444    8.7743 C   0  0  0  0  0  0  0  0  0  0  0  0
  -23.0473   -9.8988   19.9697 C   0  0  0  0  0  0  0  0  0  0  0  0
  -23.9243   -9.8765   22.2207 C   0  0  0  0  0  0  0  0  0  0  0  0
  -23.0949  -28.5997    8.4204 C   0  0  0  0  0  0  0  0  0  0  0  0
  -24.2159  -26.7183   10.1380 C   0  0  0  0  0  0  0  0  0  0  0  0
  -23.6814  -22.7182   14.7445 C   0  0  0  0  0  0  0  0  0  0  0  0
  -28.7708  -19.9060   17.5802 C   0  0  0  0  0  0  0  0  0  0  0  0
  -29.6744  -19.3630   18.4936 C   0  0  0  0  0  0  0  0  0  0  0  0
  -22.3251   -8.7363   20.2394 C   0  0  0  0  0  0  0  0  0  0  0  0
  -23.2021   -8.7140   22.4906 C   0  0  0  0  0  0  0  0  0  0  0  0
  -24.6271  -22.0423   15.5143 C   0  0  0  0  0  0  0  0  0  0  0  0
  -19.4611   -7.8953   21.8278 C   0  0  0  0  0  0  0  0  0  0  0  0
  -18.1313   -7.8466   21.4097 C   0  0  0  0  0  0  0  0  0  0  0  0
  -24.4520  -23.7454   17.2137 C   0  0  0  0  0  0  0  0  0  0  0  0
  -27.0130  -19.7578   19.2310 C   0  0  0  0  0  0  0  0  0  0  0  0
  -18.6352   -5.9283   20.0302 C   0  0  0  0  0  0  0  0  0  0  0  0
  -23.8469  -10.4688   20.9603 C   0  0  0  0  0  0  0  0  0  0  0  0
  -24.1650  -12.9980   20.8624 C   0  0  0  0  0  0  0  0  0  0  0  0
  -23.1791  -28.8847    9.7924 C   0  0  0  0  0  0  0  0  0  0  0  0
  -23.1211  -23.9205   15.1994 C   0  0  0  0  0  0  0  0  0  0  0  0
  -23.7553  -27.9384   10.6613 C   0  0  0  0  0  0  0  0  0  0  0  0
  -23.4976  -24.4333   16.4489 C   0  0  0  0  0  0  0  0  0  0  0  0
  -27.4401  -20.1035   17.9489 C   0  0  0  0  0  0  0  0  0  0  0  0
  -29.2473  -19.0173   19.7757 C   0  0  0  0  0  0  0  0  0  0  0  0
  -22.4025   -8.1440   21.4999 C   0  0  0  0  0  0  0  0  0  0  0  0
  -25.0147  -22.5574   16.7479 C   0  0  0  0  0  0  0  0  0  0  0  0
  -20.3780   -6.9606   21.3470 C   0  0  0  0  0  0  0  0  0  0  0  0
  -27.9166  -19.2147   20.1444 C   0  0  0  0  0  0  0  0  0  0  0  0
  -17.7183   -6.8631   20.5110 C   0  0  0  0  0  0  0  0  0  0  0  0
  -19.9651   -5.9771   20.4482 C   0  0  0  0  0  0  0  0  0  0  0  0
  -24.5936  -11.6693   20.6820 C   0  0  0  0  0  0  0  0  0  0  0  0
  -25.2318  -13.7612   20.4552 C   0  0  0  0  0  0  0  0  0  0  0  0
  -22.9143  -13.4977   21.3541 C   0  0  0  0  0  0  0  0  0  0  0  0
  -23.0963  -26.9215   14.1520 C   0  0  0  0  0  0  0  0  0  0  0  0
  -21.0340  -27.3540   16.6181 C   0  0  0  0  0  0  0  0  0  0  0  0
  -30.7373  -14.7511   20.4719 C   0  0  0  0  0  0  0  0  0  0  0  0
  -19.8898  -26.3024   19.6565 C   0  0  0  0  0  0  0  0  0  0  0  0
  -22.7089  -30.2306   10.2845 C   0  0  0  0  0  0  0  0  0  0  0  0
  -22.0824  -24.6235   14.3691 C   0  0  0  0  0  0  0  0  0  0  0  0
  -22.9109  -25.7099   16.9917 C   0  0  0  0  0  0  0  0  0  0  0  0
  -22.5081  -30.2902   11.7966 C   0  0  0  0  0  0  0  0  0  0  0  0
  -29.4611  -12.4841   18.0077 C   0  0  0  0  0  0  0  0  0  0  0  0
  -23.6999  -29.6690   12.5182 C   0  0  0  0  0  0  0  0  0  0  0  0
  -28.0574  -12.1558   18.5147 C   0  0  0  0  0  0  0  0  0  0  0  0
  -30.4408  -12.6754   19.1613 C   0  0  0  0  0  0  0  0  0  0  0  0
  -28.6073  -13.3742   20.6683 C   0  0  0  0  0  0  0  0  0  0  0  0
  -23.8571  -28.1886   12.1503 C   0  0  1  0  0  0  0  0  0  0  0  0
  -21.9579  -26.1077   14.6991 C   0  0  1  0  0  0  0  0  0  0  0  0
  -27.5794  -13.2034   19.5358 C   0  0  2  0  0  0  0  0  0  0  0  0
  -25.9949  -17.4937   22.6546 C   0  0  0  0  0  0  0  0  0  0  0  0
  -18.2229  -26.8798   21.4413 C   0  0  0  0  0  0  0  0  0  0  0  0
  -29.7581  -16.0054   22.3464 C   0  0  0  0  0  0  0  0  0  0  0  0
  -22.8375  -29.6262   17.5639 C   0  0  0  0  0  0  0  0  0  0  0  0
  -21.6857  -29.5230   19.7845 C   0  0  0  0  0  0  0  0  0  0  0  0
  -20.3876  -30.0992   17.7337 C   0  0  0  0  0  0  0  0  0  0  0  0
  -30.4469  -19.1369   21.9452 C   0  0  0  0  0  0  0  0  0  0  0  0
  -18.4756  -23.7228   19.3329 C   0  0  0  0  0  0  0  0  0  0  0  0
  -26.4686  -20.6881   16.9662 C   0  0  0  0  0  0  0  0  0  1  0  0
  -30.8476  -17.2221   20.3892 C   0  0  0  0  0  0  0  0  0  0  0  0
  -26.1166  -18.4846   21.5166 C   0  0  0  0  0  0  0  0  0  0  0  0
  -21.1727  -27.7204   18.0760 C   0  0  1  0  0  0  0  0  0  0  0  0
  -18.4830  -26.0729   20.1787 C   0  0  2  0  0  0  0  0  0  0  0  0
  -30.0180  -16.0227   20.8456 C   0  0  1  0  0  0  0  0  0  0  0  0
  -21.5335  -29.2191   18.2787 C   0  0  0  0  0  0  0  0  0  0  0  0
  -25.8358  -11.5895   20.1978 N   0  0  0  0  0  0  0  0  0  0  0  0
  -26.1969  -12.8777   20.0704 N   0  0  0  0  0  0  0  0  0  0  0  0
  -21.9037  -26.3638   16.1398 N   0  0  0  0  0  0  0  0  0  0  0  0
  -29.9403  -13.6614   20.1206 N   0  0  0  0  0  0  0  0  0  0  0  0
  -25.4292  -15.0952   20.3923 N   0  0  0  0  0  0  0  0  0  0  0  0
  -21.9273  -12.5759   21.7287 N   0  0  0  0  0  0  0  0  0  0  0  0
  -22.8902  -27.3844   12.8664 N   0  0  0  0  0  0  0  0  0  0  0  0
  -19.9282  -27.3131   18.7194 N   0  0  0  0  0  0  0  0  0  0  0  0
  -30.1726  -18.4680   20.6900 N   0  0  3  0  0  0  0  0  0  0  0  0
  -18.2754  -24.6307   20.4916 N   0  3  0  0  0  0  0  0  0  0  0  0
  -22.6730  -14.7255   21.4428 O   0  0  0  0  0  0  0  0  0  0  0  0
  -24.0878  -27.1163   14.8454 O   0  0  0  0  0  0  0  0  0  0  0  0
  -20.1804  -27.9203   15.9308 O   0  0  0  0  0  0  0  0  0  0  0  0
  -31.9707  -14.7297   20.4894 O   0  0  0  0  0  0  0  0  0  0  0  0
  -20.8584  -25.6526   20.0440 O   0  0  0  0  0  0  0  0  0  0  0  0
  -21.6978   -7.0098   21.7636 O   0  0  0  0  0  0  0  0  0  0  0  0
  -25.9380  -21.9001   17.5010 O   0  0  0  0  0  0  0  0  0  1  0  0
  -27.4799  -18.8839   21.3924 O   0  0  0  0  0  0  0  0  0  0  0  0
  -16.4409   -6.8155   20.1108 F   0  0  0  0  0  0  0  0  0  0  0  0
  -20.8411   -5.0756   19.9838 F   0  0  0  0  0  0  0  0  0  0  0  0
  -28.8128  -16.0648   20.2090 F   0  0  0  0  0  0  0  0  0  0  0  0
  1  2  1  0  0  0  0
  1  5  2  0  0  0  0
  2  6  2  0  0  0  0
  3 10  2  0  0  0  0
  3 18  1  0  0  0  0
  4 11  1  0  0  0  0
  4 18  2  0  0  0  0
  5 20  1  0  0  0  0
  6 22  1  0  0  0  0
  7 12  2  0  0  0  0
  7 21  1  0  0  0  0
  8  9  2  0  0  0  0
  8 24  1  0  0  0  0
  9 25  1  0  0  0  0
 10 26  1  0  0  0  0
 11 26  2  0  0  0  0
 12 27  1  0  0  0  0
 13 14  2  0  0  0  0
 13 28  1  0  0  0  0
 14 30  1  0  0  0  0
 15 23  1  0  0  0  0
 15 27  2  0  0  0  0
 16 24  2  0  0  0  0
 16 29  1  0  0  0  0
 17 30  2  0  0  0  0
 17 31  1  0  0  0  0
 18 32  1  0  0  0  0
 19 32  1  0  0  0  0
 19 33  2  0  0  0  0
 19 34  1  0  0  0  0
 20 22  2  0  0  0  0
 20 39  1  0  0  0  0
 21 23  2  0  0  0  0
 21 40  1  0  0  0  0
 22 48  1  0  0  0  0
 23 41  1  0  0  0  0
 24 59  1  0  0  0  0
 25 29  2  0  0  0  0
 25 74  1  0  0  0  0
 26 81  1  0  0  0  0
 27 82  1  0  0  0  0
 28 31  2  0  0  0  0
 28 81  1  0  0  0  0
 29 83  1  0  0  0  0
 30 84  1  0  0  0  0
 31 85  1  0  0  0  0
 32 66  2  0  0  0  0
 33 67  1  0  0  0  0
 33 70  1  0  0  0  0
 34 71  1  0  0  0  0
 34 76  2  0  0  0  0
 35 49  1  0  0  0  0
 35 72  1  0  0  0  0
 35 77  2  0  0  0  0
 36 62  1  0  0  0  0
 36 68  1  0  0  0  0
 36 78  2  0  0  0  0
 37 64  1  0  0  0  0
 37 69  1  0  0  0  0
 37 79  2  0  0  0  0
 38 63  1  0  0  0  0
 38 73  1  0  0  0  0
 38 80  2  0  0  0  0
 39 42  1  0  0  0  0
 40 49  1  0  0  0  0
 41 68  1  0  0  0  0
 42 44  1  0  0  0  0
 43 45  1  0  0  0  0
 43 46  1  0  0  0  0
 44 48  1  0  0  0  0
 45 50  1  0  0  0  0
 46 69  1  0  0  0  0
 47 50  1  0  0  0  0
 47 69  1  0  0  0  0
 48 72  1  0  0  0  0
 49 68  1  0  0  0  0
 50 67  1  0  0  0  0
 51 61  1  0  0  0  0
 52 63  1  0  0  0  0
 53 64  1  0  0  0  0
 54 65  1  0  0  0  0
 55 65  1  0  0  0  0
 56 65  1  0  0  0  0
 57 74  1  0  0  0  0
 58 75  1  0  0  0  0
 59 82  1  0  0  0  0
 60 64  1  0  0  0  0
 60 74  1  0  0  0  0
 61 83  1  0  0  0  0
 62 65  1  0  0  0  0
 62 73  1  0  0  0  0
 63 75  1  0  0  0  0
 64 86  1  0  0  0  0
 66 67  1  0  0  0  0
M  CHG  1  75   1
M  ISO  4  37 100  59 101  64 100  82 101
M  END
> <Batch ID>
0016

> <Smiles>
CCOc1cc([101CH2:1][101O:1]c2ccc3c(c2)CN(C(=O)C(NC(=O)C(C)NC)C(C)(C)C)C(C(=O)NC2CCCc4ccccc42)C3)ccc1N(C)C[100C:0](C)(F)[100C:0](=O)N1CCCC(n2nc(-c3ccc(Oc4ccc(F)cc4F)cc3)c(C(N)=O)c2N)C1

> <Shape>
0.201

> <Color>
0.193

> <Negative vol penalty>
0.000

$$$$

  -OEChem-04042320573D

 83 91  0     1  0  0  0  0  0999 V2000
  -16.6306  -29.6430   23.9562 C   0  0  0  0  0  0  0  0  0  0  0  0
  -17.7209  -30.2688   24.5521 C   0  0  0  0  0  0  0  0  0  0  0  0
  -31.3922  -23.4175   16.5672 C   0  0  0  0  0  0  0  0  0  0  0  0
  -29.2301  -22.9944   15.5757 C   0  0  0  0  0  0  0  0  0  0  0  0
  -16.8335  -28.5843   23.0719 C   0  0  0  0  0  0  0  0  0  0  0  0
  -19.0148  -29.8355   24.2648 C   0  0  0  0  0  0  0  0  0  0  0  0
  -25.7019  -32.3057   23.5595 C   0  0  0  0  0  0  0  0  0  0  0  0
  -31.3318  -25.0024   24.3452 C   0  0  0  0  0  0  0  0  0  0  0  0
  -31.4562  -23.6427   24.0601 C   0  0  0  0  0  0  0  0  0  0  0  0
  -32.0128  -23.0281   15.3803 C   0  0  0  0  0  0  0  0  0  0  0  0
  -29.8506  -22.6050   14.3887 C   0  0  0  0  0  0  0  0  0  0  0  0
  -26.9942  -32.0631   24.0230 C   0  0  0  0  0  0  0  0  0  0  0  0
  -32.6427  -24.3712   12.3418 C   0  0  0  0  0  0  0  0  0  0  0  0
  -33.6811  -25.1689   11.8613 C   0  0  0  0  0  0  0  0  0  0  0  0
  -27.2276  -30.2766   22.4190 C   0  0  0  0  0  0  0  0  0  0  0  0
  -29.0733  -24.6334   25.1198 C   0  0  0  0  0  0  0  0  0  0  0  0
  -35.1929  -23.2901   12.0095 C   0  0  0  0  0  0  0  0  0  0  0  0
  -30.0009  -23.4006   16.6650 C   0  0  0  0  0  0  0  0  0  0  0  0
  -28.9420  -25.0987   18.2471 C   0  0  0  0  0  0  0  0  0  0  0  0
  -18.1310  -28.1442   22.7662 C   0  0  0  0  0  0  0  0  0  0  0  0
  -25.1578  -31.5271   22.5279 C   0  0  0  0  0  0  0  0  0  0  0  0
  -19.2352  -28.7691   23.3766 C   0  0  0  0  0  0  0  0  0  0  0  0
  -25.9291  -30.5130   21.9424 C   0  0  0  0  0  0  0  0  0  0  0  0
  -30.1403  -25.4978   24.8752 C   0  0  0  0  0  0  0  0  0  0  0  0
  -30.3892  -22.7783   24.3048 C   0  0  0  0  0  0  0  0  0  0  0  0
  -31.2420  -22.6219   14.2910 C   0  0  0  0  0  0  0  0  0  0  0  0
  -27.7562  -31.0465   23.4547 C   0  0  0  0  0  0  0  0  0  0  0  0
  -32.8794  -23.0330   12.6563 C   0  0  0  0  0  0  0  0  0  0  0  0
  -34.9562  -24.6284   11.6951 C   0  0  0  0  0  0  0  0  0  0  0  0
  -29.1977  -23.2736   24.8347 C   0  0  0  0  0  0  0  0  0  0  0  0
  -34.1545  -22.4925   12.4901 C   0  0  0  0  0  0  0  0  0  0  0  0
  -29.3593  -23.8022   17.8910 C   0  0  0  0  0  0  0  0  0  0  0  0
  -28.3958  -24.9520   19.4987 C   0  0  0  0  0  0  0  0  0  0  0  0
  -29.0394  -26.3259   17.5121 C   0  0  0  0  0  0  0  0  0  0  0  0
  -22.6699  -29.5654   22.2714 C   0  0  0  0  0  0  0  0  0  0  0  0
  -23.5192  -29.5268   19.1410 C   0  0  0  0  0  0  0  0  0  0  0  0
  -25.9625  -29.9513   16.7964 C   0  0  0  0  0  0  0  0  0  0  0  0
  -29.4362  -20.5579   23.6319 C   0  0  0  0  0  0  0  0  0  0  0  0
  -18.2983  -26.9651   21.8407 C   0  0  0  0  0  0  0  0  0  0  0  0
  -23.7720  -31.8190   22.0211 C   0  0  0  0  0  0  0  0  0  0  0  0
  -25.3987  -29.6620   20.8186 C   0  0  0  0  0  0  0  0  0  0  0  0
  -19.7179  -26.8112   21.3009 C   0  0  0  0  0  0  0  0  0  0  0  0
  -26.2002  -21.7630   22.3018 C   0  0  0  0  0  0  0  0  0  0  0  0
  -20.7360  -26.9544   22.4278 C   0  0  0  0  0  0  0  0  0  0  0  0
  -26.6052  -22.4604   21.0045 C   0  0  0  0  0  0  0  0  0  0  0  0
  -27.1616  -20.6344   22.6621 C   0  0  0  0  0  0  0  0  0  0  0  0
  -28.9954  -21.7692   21.4411 C   0  0  0  0  0  0  0  0  0  0  0  0
  -20.6551  -28.3440   23.0711 C   0  0  1  0  0  0  0  0  0  0  0  0
  -23.1310  -30.6284   21.3148 C   0  0  1  0  0  0  0  0  0  0  0  0
  -28.0655  -22.9364   21.0776 C   0  0  1  0  0  0  0  0  0  0  0  0
  -26.3649  -29.8128   14.3233 C   0  0  0  0  0  0  0  0  0  0  0  0
  -23.5768  -26.4816   19.3234 C   0  0  0  0  0  0  0  0  0  0  0  0
  -24.8726  -26.4473   17.1814 C   0  0  0  0  0  0  0  0  0  0  0  0
  -22.5601  -27.3818   17.2233 C   0  0  0  0  0  0  0  0  0  0  0  0
  -31.7759  -20.7133   24.3624 C   0  0  0  0  0  0  0  0  0  0  0  0
  -26.6800  -32.8180   16.6353 C   0  0  0  0  0  0  0  0  0  0  0  0
  -30.5065  -29.2302   24.9331 C   0  0  0  0  0  0  0  0  0  0  0  0
  -31.0675  -27.8133   24.9386 C   0  0  0  0  0  0  0  0  0  0  0  0
  -29.4953  -29.4654   23.8172 C   0  0  0  0  0  0  0  0  0  1  0  0
  -24.4432  -28.6853   18.2942 C   0  0  1  0  0  0  0  0  0  0  0  0
  -25.9780  -30.7152   15.4847 C   0  0  2  0  0  0  0  0  0  0  0  0
  -23.8727  -27.2636   18.0280 C   0  0  0  0  0  0  0  0  0  0  0  0
  -29.1004  -22.8985   18.8398 N   0  0  0  0  0  0  0  0  0  0  0  0
  -28.5148  -23.6282   19.8045 N   0  0  0  0  0  0  0  0  0  0  0  0
  -24.0361  -29.9820   20.3622 N   0  0  0  0  0  0  0  0  0  0  0  0
  -28.5532  -21.0883   22.6690 N   0  0  0  0  0  0  0  0  0  0  0  0
  -27.8303  -25.8276   20.3566 N   0  0  0  0  0  0  0  0  0  0  0  0
  -29.6287  -26.2983   16.2407 N   0  0  0  0  0  0  0  0  0  0  0  0
  -30.0170  -26.8489   25.1590 N   0  0  0  0  0  0  0  0  0  0  0  0
  -21.3093  -29.3271   22.2344 N   0  0  0  0  0  0  0  0  0  0  0  0
  -24.7075  -29.4589   17.0859 N   0  0  0  0  0  0  0  0  0  0  0  0
  -30.5209  -21.3728   24.0084 N   0  0  0  0  0  0  0  0  0  0  0  0
  -26.9538  -31.8395   15.5516 N   0  3  0  0  0  0  0  0  0  0  0  0
  -28.6313  -27.4176   17.9760 O   0  0  0  0  0  0  0  0  0  0  0  0
  -23.4882  -29.0021   22.9889 O   0  0  0  0  0  0  0  0  0  0  0  0
  -22.3831  -29.7771   18.7306 O   0  0  0  0  0  0  0  0  0  0  0  0
  -26.9643  -29.8028   17.4927 O   0  0  0  0  0  0  0  0  0  0  0  0
  -29.3005  -19.4146   24.0848 O   0  0  0  0  0  0  0  0  0  0  0  0
  -31.8472  -22.2421   13.1325 O   0  0  0  0  0  0  0  0  0  0  0  0
  -29.0176  -30.8072   23.9057 O   0  0  0  0  0  0  0  0  0  1  0  0
  -35.9530  -25.3941   11.2321 F   0  0  0  0  0  0  0  0  0  0  0  0
  -28.1656  -22.4519   25.0734 F   0  0  0  0  0  0  0  0  0  0  0  0
  -34.3876  -21.2072   12.7893 F   0  0  0  0  0  0  0  0  0  0  0  0
  1  2  1  0  0  0  0
  1  5  2  0  0  0  0
  2  6  2  0  0  0  0
  3 10  2  0  0  0  0
  3 18  1  0  0  0  0
  4 11  1  0  0  0  0
  4 18  2  0  0  0  0
  5 20  1  0  0  0  0
  6 22  1  0  0  0  0
  7 12  2  0  0  0  0
  7 21  1  0  0  0  0
  8  9  2  0  0  0  0
  8 24  1  0  0  0  0
  9 25  1  0  0  0  0
 10 26  1  0  0  0  0
 11 26  2  0  0  0  0
 12 27  1  0  0  0  0
 13 14  2  0  0  0  0
 13 28  1  0  0  0  0
 14 29  1  0  0  0  0
 15 23  1  0  0  0  0
 15 27  2  0  0  0  0
 16 24  2  0  0  0  0
 16 30  1  0  0  0  0
 17 29  2  0  0  0  0
 17 31  1  0  0  0  0
 18 32  1  0  0  0  0
 19 32  1  0  0  0  0
 19 33  2  0  0  0  0
 19 34  1  0  0  0  0
 20 22  2  0  0  0  0
 20 39  1  0  0  0  0
 21 23  2  0  0  0  0
 21 40  1  0  0  0  0
 22 48  1  0  0  0  0
 23 41  1  0  0  0  0
 24 69  1  0  0  0  0
 25 30  2  0  0  0  0
 25 72  1  0  0  0  0
 26 79  1  0  0  0  0
 27 80  1  0  0  0  0
 28 31  2  0  0  0  0
 28 79  1  0  0  0  0
 29 81  1  0  0  0  0
 30 82  1  0  0  0  0
 31 83  1  0  0  0  0
 32 63  2  0  0  0  0
 33 64  1  0  0  0  0
 33 67  1  0  0  0  0
 34 68  1  0  0  0  0
 34 74  2  0  0  0  0
 35 49  1  0  0  0  0
 35 70  1  0  0  0  0
 35 75  2  0  0  0  0
 36 60  1  0  0  0  0
 36 65  1  0  0  0  0
 36 76  2  0  0  0  0
 37 61  1  0  0  0  0
 37 71  1  0  0  0  0
 37 77  2  0  0  0  0
 38 66  1  0  0  0  0
 38 72  1  0  0  0  0
 38 78  2  0  0  0  0
 39 42  1  0  0  0  0
 40 49  1  0  0  0  0
 41 65  1  0  0  0  0
 42 44  1  0  0  0  0
 43 45  1  0  0  0  0
 43 46  1  0  0  0  0
 44 48  1  0  0  0  0
 45 50  1  0  0  0  0
 46 66  1  0  0  0  0
 47 50  1  0  0  0  0
 47 66  1  0  0  0  0
 48 70  1  0  0  0  0
 49 65  1  0  0  0  0
 50 64  1  0  0  0  0
 51 61  1  0  0  0  0
 52 62  1  0  0  0  0
 53 62  1  0  0  0  0
 54 62  1  0  0  0  0
 55 72  1  0  0  0  0
 56 73  1  0  0  0  0
 57 58  1  0  0  0  0
 57 59  1  0  0  0  0
 58 69  1  0  0  0  0
 59 80  1  0  0  0  0
 60 62  1  0  0  0  0
 60 71  1  0  0  0  0
 61 73  1  0  0  0  0
 63 64  1  0  0  0  0
M  CHG  1  73   1
M  ISO  4  38 100  59 101  72 100  80 101
M  END
> <Batch ID>
0016

> <Smiles>
CNC(C)C(=O)NC(C(=O)N1Cc2cc([101O:1][101CH2:1]CCNc3ccc([100N:0](C)[100C:0](=O)N4CCCC(n5nc(-c6ccc(Oc7ccc(F)cc7F)cc6)c(C(N)=O)c5N)C4)c(F)c3)ccc2CC1C(=O)NC1CCCc2ccccc21)C(C)(C)C

> <Shape>
0.202

> <Color>
0.115

> <Negative vol penalty>
0.000

$$$$

  -OEChem-04042320573D

 85 93  0     1  0  0  0  0  0999 V2000
  -34.4172  -15.3127   20.4648 C   0  0  0  0  0  0  0  0  0  0  0  0
  -33.3504  -16.1395   20.1273 C   0  0  0  0  0  0  0  0  0  0  0  0
  -27.0924  -28.0689   21.4664 C   0  0  0  0  0  0  0  0  0  0  0  0
  -25.9165  -27.9016   19.3625 C   0  0  0  0  0  0  0  0  0  0  0  0
  -34.3177  -13.9353   20.2735 C   0  0  0  0  0  0  0  0  0  0  0  0
  -32.1839  -15.5893   19.5972 C   0  0  0  0  0  0  0  0  0  0  0  0
  -27.9981  -17.5215   21.6925 C   0  0  0  0  0  0  0  0  0  0  0  0
  -28.0047  -22.6213   15.5949 C   0  0  0  0  0  0  0  0  0  0  0  0
  -27.1741  -24.8592   15.2217 C   0  0  0  0  0  0  0  0  0  0  0  0
  -29.2517  -23.0014   15.0990 C   0  0  0  0  0  0  0  0  0  0  0  0
  -28.4212  -25.2393   14.7258 C   0  0  0  0  0  0  0  0  0  0  0  0
  -26.2666  -29.1278   21.8438 C   0  0  0  0  0  0  0  0  0  0  0  0
  -25.0906  -28.9605   19.7399 C   0  0  0  0  0  0  0  0  0  0  0  0
  -27.5923  -18.7825   21.2579 C   0  0  0  0  0  0  0  0  0  0  0  0
  -26.0142  -32.4380   21.2088 C   0  0  0  0  0  0  0  0  0  0  0  0
  -26.6174  -33.5558   21.7852 C   0  0  0  0  0  0  0  0  0  0  0  0
  -25.9515  -17.7524   19.8205 C   0  0  0  0  0  0  0  0  0  0  0  0
  -25.3060  -33.2307   23.7881 C   0  0  0  0  0  0  0  0  0  0  0  0
  -26.9174  -27.4559   20.2257 C   0  0  0  0  0  0  0  0  0  0  0  0
  -27.5535  -24.9907   20.0652 C   0  0  0  0  0  0  0  0  0  0  0  0
  -33.1458  -13.3669   19.7498 C   0  0  0  0  0  0  0  0  0  0  0  0
  -27.3900  -16.3641   21.1855 C   0  0  0  0  0  0  0  0  0  0  0  0
  -32.0692  -14.2031   19.3975 C   0  0  0  0  0  0  0  0  0  0  0  0
  -26.3497  -16.4780   20.2523 C   0  0  0  0  0  0  0  0  0  0  0  0
  -26.9658  -23.5502   15.6563 C   0  0  0  0  0  0  0  0  0  0  0  0
  -29.4600  -24.3104   14.6644 C   0  0  0  0  0  0  0  0  0  0  0  0
  -25.2656  -29.5735   20.9806 C   0  0  0  0  0  0  0  0  0  0  0  0
  -26.5708  -18.8980   20.3196 C   0  0  0  0  0  0  0  0  0  0  0  0
  -25.0568  -31.7165   21.9220 C   0  0  0  0  0  0  0  0  0  0  0  0
  -26.2634  -33.9521   23.0748 C   0  0  0  0  0  0  0  0  0  0  0  0
  -24.7028  -32.1129   23.2116 C   0  0  0  0  0  0  0  0  0  0  0  0
  -27.7706  -26.3624   19.8351 C   0  0  0  0  0  0  0  0  0  0  0  0
  -28.6437  -24.3717   19.5042 C   0  0  0  0  0  0  0  0  0  0  0  0
  -26.4639  -24.3346   20.7270 C   0  0  0  0  0  0  0  0  0  0  0  0
  -28.3935  -13.8475   19.5231 C   0  0  0  0  0  0  0  0  0  0  0  0
  -25.3745  -12.7851   20.0514 C   0  0  0  0  0  0  0  0  0  0  0  0
  -32.4156  -26.0645   15.1430 C   0  0  0  0  0  0  0  0  0  0  0  0
  -22.1184  -13.5366   20.7441 C   0  0  0  0  0  0  0  0  0  0  0  0
  -33.1027  -11.8775   19.5168 C   0  0  0  0  0  0  0  0  0  0  0  0
  -27.8211  -15.0122   21.6845 C   0  0  0  0  0  0  0  0  0  0  0  0
  -25.6508  -15.2671   19.6922 C   0  0  0  0  0  0  0  0  0  0  0  0
  -31.6923  -11.3355   19.2997 C   0  0  0  0  0  0  0  0  0  0  0  0
  -33.2555  -25.0900   18.4874 C   0  0  0  0  0  0  0  0  0  0  0  0
  -30.9302  -12.2115   18.3104 C   0  0  0  0  0  0  0  0  0  0  0  0
  -31.9305  -25.2085   19.2393 C   0  0  0  0  0  0  0  0  0  0  0  0
  -33.3870  -26.1665   17.4146 C   0  0  0  0  0  0  0  0  0  0  0  0
  -30.9274  -26.3145   17.1910 C   0  0  0  0  0  0  0  0  0  0  0  0
  -30.7780  -13.6414   18.8430 C   0  0  1  0  0  0  0  0  0  0  0  0
  -27.4822  -13.8823   20.7172 C   0  0  1  0  0  0  0  0  0  0  0  0
  -30.7407  -25.2266   18.2634 C   0  0  2  0  0  0  0  0  0  0  0  0
  -31.4687  -26.6452   12.9167 C   0  0  0  0  0  0  0  0  0  0  0  0
  -19.8762  -12.4600   21.0776 C   0  0  0  0  0  0  0  0  0  0  0  0
  -25.1244  -12.3778   17.0378 C   0  0  0  0  0  0  0  0  0  0  0  0
  -22.6429  -12.2286   17.3341 C   0  0  0  0  0  0  0  0  0  0  0  0
  -24.1306  -10.5487   18.4237 C   0  0  0  0  0  0  0  0  0  0  0  0
  -24.6219  -24.1427   16.2175 C   0  0  0  0  0  0  0  0  0  0  0  0
  -31.5698  -23.7303   13.4931 C   0  0  0  0  0  0  0  0  0  0  0  0
  -21.9143  -14.5512   23.5168 C   0  0  0  0  0  0  0  0  0  0  0  0
  -25.9483  -21.6185   18.0261 C   0  0  0  0  0  0  0  0  0  0  0  0
  -25.4579  -21.8177   16.5970 C   0  0  0  0  0  0  0  0  0  0  0  0
  -25.6645  -20.2206   18.5631 C   0  0  0  0  0  0  0  0  0  1  0  0
  -24.0556  -12.9088   19.3273 C   0  0  1  0  0  0  0  0  0  0  0  0
  -31.1732  -26.0667   14.2884 C   0  0  1  0  0  0  0  0  0  0  0  0
  -21.1440  -12.9580   21.7541 C   0  0  2  0  0  0  0  0  0  0  0  0
  -24.0027  -12.0389   18.0396 C   0  0  0  0  0  0  0  0  0  0  0  0
  -28.9092  -26.6014   19.1791 N   0  0  0  0  0  0  0  0  0  0  0  0
  -29.4175  -25.3714   18.9923 N   0  0  0  0  0  0  0  0  0  0  0  0
  -26.1124  -13.9672   20.2066 N   0  0  0  0  0  0  0  0  0  0  0  0
  -32.2271  -26.1658   16.5215 N   0  0  0  0  0  0  0  0  0  0  0  0
  -29.0064  -23.0753   19.4037 N   0  0  0  0  0  0  0  0  0  0  0  0
  -25.4260  -25.1211   21.2453 N   0  0  0  0  0  0  0  0  0  0  0  0
  -29.7305  -13.7006   19.8399 N   0  0  0  0  0  0  0  0  0  0  0  0
  -23.0213  -12.5911   20.3059 N   0  0  0  0  0  0  0  0  0  0  0  0
  -25.7118  -23.1672   16.1534 N   0  0  3  0  0  0  0  0  0  0  0  0
  -30.7206  -24.6952   14.1631 N   0  0  3  0  0  0  0  0  0  0  0  0
  -20.7656  -13.9910   22.7594 N   0  3  0  0  0  0  0  0  0  0  0  0
  -26.4201  -23.0891   20.8692 O   0  0  0  0  0  0  0  0  0  0  0  0
  -27.9187  -13.9452   18.3976 O   0  0  0  0  0  0  0  0  0  0  0  0
  -25.7333  -11.6818   20.4702 O   0  0  0  0  0  0  0  0  0  0  0  0
  -33.5196  -25.9725   14.6001 O   0  0  0  0  0  0  0  0  0  0  0  0
  -22.0798  -14.7090   20.3775 O   0  0  0  0  0  0  0  0  0  0  0  0
  -24.4594  -30.6065   21.3487 O   0  0  0  0  0  0  0  0  0  0  0  0
  -26.1732  -20.1276   19.8931 O   0  0  0  0  0  0  0  0  0  1  0  0
  -26.8439  -35.0246   23.6288 F   0  0  0  0  0  0  0  0  0  0  0  0
  -23.7846  -31.4231   23.9022 F   0  0  0  0  0  0  0  0  0  0  0  0
  1  2  1  0  0  0  0
  1  5  2  0  0  0  0
  2  6  2  0  0  0  0
  3 12  2  0  0  0  0
  3 19  1  0  0  0  0
  4 13  1  0  0  0  0
  4 19  2  0  0  0  0
  5 21  1  0  0  0  0
  6 23  1  0  0  0  0
  7 14  2  0  0  0  0
  7 22  1  0  0  0  0
  8 10  2  0  0  0  0
  8 25  1  0  0  0  0
  9 11  1  0  0  0  0
  9 25  2  0  0  0  0
 10 26  1  0  0  0  0
 11 26  2  0  0  0  0
 12 27  1  0  0  0  0
 13 27  2  0  0  0  0
 14 28  1  0  0  0  0
 15 16  2  0  0  0  0
 15 29  1  0  0  0  0
 16 30  1  0  0  0  0
 17 24  1  0  0  0  0
 17 28  2  0  0  0  0
 18 30  2  0  0  0  0
 18 31  1  0  0  0  0
 19 32  1  0  0  0  0
 20 32  1  0  0  0  0
 20 33  2  0  0  0  0
 20 34  1  0  0  0  0
 21 23  2  0  0  0  0
 21 39  1  0  0  0  0
 22 24  2  0  0  0  0
 22 40  1  0  0  0  0
 23 48  1  0  0  0  0
 24 41  1  0  0  0  0
 25 74  1  0  0  0  0
 26 75  1  0  0  0  0
 27 82  1  0  0  0  0
 28 83  1  0  0  0  0
 29 31  2  0  0  0  0
 29 82  1  0  0  0  0
 30 84  1  0  0  0  0
 31 85  1  0  0  0  0
 32 66  2  0  0  0  0
 33 67  1  0  0  0  0
 33 70  1  0  0  0  0
 34 71  1  0  0  0  0
 34 77  2  0  0  0  0
 35 49  1  0  0  0  0
 35 72  1  0  0  0  0
 35 78  2  0  0  0  0
 36 62  1  0  0  0  0
 36 68  1  0  0  0  0
 36 79  2  0  0  0  0
 37 63  1  0  0  0  0
 37 69  1  0  0  0  0
 37 80  2  0  0  0  0
 38 64  1  0  0  0  0
 38 73  1  0  0  0  0
 38 81  2  0  0  0  0
 39 42  1  0  0  0  0
 40 49  1  0  0  0  0
 41 68  1  0  0  0  0
 42 44  1  0  0  0  0
 43 45  1  0  0  0  0
 43 46  1  0  0  0  0
 44 48  1  0  0  0  0
 45 50  1  0  0  0  0
 46 69  1  0  0  0  0
 47 50  1  0  0  0  0
 47 69  1  0  0  0  0
 48 72  1  0  0  0  0
 49 68  1  0  0  0  0
 50 67  1  0  0  0  0
 51 63  1  0  0  0  0
 52 64  1  0  0  0  0
 53 65  1  0  0  0  0
 54 65  1  0  0  0  0
 55 65  1  0  0  0  0
 56 74  1  0  0  0  0
 57 75  1  0  0  0  0
 58 76  1  0  0  0  0
 59 60  1  0  0  0  0
 59 61  1  0  0  0  0
 60 74  1  0  0  0  0
 61 83  1  0  0  0  0
 62 65  1  0  0  0  0
 62 73  1  0  0  0  0
 63 75  1  0  0  0  0
 64 76  1  0  0  0  0
 66 67  1  0  0  0  0
M  CHG  1  76   1
M  ISO  4  37 100  61 101  63 100  83 101
M  END
> <Batch ID>
0016

> <Smiles>
CNC(C)C(=O)NC(C(=O)N1Cc2cc([101O:1][101CH2:1]CCN(C)c3ccc(N(C)[100CH:0](C)[100C:0](=O)N4CCCC(n5nc(-c6ccc(Oc7ccc(F)cc7F)cc6)c(C(N)=O)c5N)C4)cc3)ccc2CC1C(=O)NC1CCCc2ccccc21)C(C)(C)C

> <Shape>
0.214

> <Color>
0.075

> <Negative vol penalty>
0.000

$$$$

  -OEChem-04042320573D

 83 91  0     1  0  0  0  0  0999 V2000
  -26.8598  -19.1699   17.8141 C   0  0  0  0  0  0  0  0  0  0  0  0
  -27.5548  -19.5668   18.9520 C   0  0  0  0  0  0  0  0  0  0  0  0
  -23.0835   -9.9116   19.8944 C   0  0  0  0  0  0  0  0  0  0  0  0
  -23.8455   -9.8531   22.1863 C   0  0  0  0  0  0  0  0  0  0  0  0
  -27.0585  -19.8404   16.6080 C   0  0  0  0  0  0  0  0  0  0  0  0
  -28.4499  -20.6339   18.8841 C   0  0  0  0  0  0  0  0  0  0  0  0
  -27.9549  -23.8356   22.7763 C   0  0  0  0  0  0  0  0  0  0  0  0
  -30.3569  -18.3489   24.2730 C   0  0  0  0  0  0  0  0  0  0  0  0
  -32.5522  -17.5516   23.6549 C   0  0  0  0  0  0  0  0  0  0  0  0
  -29.7810  -17.4873   23.3394 C   0  0  0  0  0  0  0  0  0  0  0  0
  -31.9763  -16.6899   22.7213 C   0  0  0  0  0  0  0  0  0  0  0  0
  -22.3564   -8.7403   20.1062 C   0  0  0  0  0  0  0  0  0  0  0  0
  -23.1184   -8.6818   22.3982 C   0  0  0  0  0  0  0  0  0  0  0  0
  -28.5171  -23.4508   23.9927 C   0  0  0  0  0  0  0  0  0  0  0  0
  -23.4560   -5.3847   21.7304 C   0  0  0  0  0  0  0  0  0  0  0  0
  -24.0868   -4.3450   22.4135 C   0  0  0  0  0  0  0  0  0  0  0  0
  -30.4222  -24.8636   23.5522 C   0  0  0  0  0  0  0  0  0  0  0  0
  -22.3848   -4.4374   24.1257 C   0  0  0  0  0  0  0  0  0  0  0  0
  -23.8281  -10.4680   20.9344 C   0  0  0  0  0  0  0  0  0  0  0  0
  -24.1338  -13.0004   20.8983 C   0  0  0  0  0  0  0  0  0  0  0  0
  -27.9493  -20.9224   16.5275 C   0  0  0  0  0  0  0  0  0  0  0  0
  -28.6284  -24.7304   21.9323 C   0  0  0  0  0  0  0  0  0  0  0  0
  -28.6618  -21.3187   17.6754 C   0  0  0  0  0  0  0  0  0  0  0  0
  -29.8652  -25.2601   22.3268 C   0  0  0  0  0  0  0  0  0  0  0  0
  -31.7424  -18.3811   24.4307 C   0  0  0  0  0  0  0  0  0  0  0  0
  -30.5907  -16.6578   22.5636 C   0  0  0  0  0  0  0  0  0  0  0  0
  -22.3738   -8.1254   21.3581 C   0  0  0  0  0  0  0  0  0  0  0  0
  -29.7523  -23.9626   24.3795 C   0  0  0  0  0  0  0  0  0  0  0  0
  -22.2897   -5.9509   22.2450 C   0  0  0  0  0  0  0  0  0  0  0  0
  -23.5512   -3.8713   23.6111 C   0  0  0  0  0  0  0  0  0  0  0  0
  -21.7541   -5.4772   23.4426 C   0  0  0  0  0  0  0  0  0  0  0  0
  -24.5799  -11.6777   20.7161 C   0  0  0  0  0  0  0  0  0  0  0  0
  -25.2148  -13.7771   20.5596 C   0  0  0  0  0  0  0  0  0  0  0  0
  -22.8566  -13.4838   21.3349 C   0  0  0  0  0  0  0  0  0  0  0  0
  -29.8126  -24.5759   18.9865 C   0  0  0  0  0  0  0  0  0  0  0  0
  -30.3507  -27.7401   19.4559 C   0  0  0  0  0  0  0  0  0  0  0  0
  -30.8365  -30.3008   21.6590 C   0  0  0  0  0  0  0  0  0  0  0  0
  -30.6657  -14.8942   20.7662 C   0  0  0  0  0  0  0  0  0  0  0  0
  -28.1664  -21.5861   15.1907 C   0  0  0  0  0  0  0  0  0  0  0  0
  -27.9961  -25.1561   20.6356 C   0  0  0  0  0  0  0  0  0  0  0  0
  -30.6193  -26.2394   21.4661 C   0  0  0  0  0  0  0  0  0  0  0  0
  -28.8524  -22.9461   15.2901 C   0  0  0  0  0  0  0  0  0  0  0  0
  -29.5835  -12.5449   18.3195 C   0  0  0  0  0  0  0  0  0  0  0  0
  -30.0540  -22.8707   16.2268 C   0  0  0  0  0  0  0  0  0  0  0  0
  -28.1486  -12.2186   18.7398 C   0  0  0  0  0  0  0  0  0  0  0  0
  -30.4964  -12.7466   19.5276 C   0  0  0  0  0  0  0  0  0  0  0  0
  -28.5807  -13.3974   20.9332 C   0  0  0  0  0  0  0  0  0  0  0  0
  -29.6228  -22.4874   17.6475 C   0  0  1  0  0  0  0  0  0  0  0  0
  -29.0084  -25.6759   19.6195 C   0  0  1  0  0  0  0  0  0  0  0  0
  -27.6093  -13.2496   19.7508 C   0  0  2  0  0  0  0  0  0  0  0  0
  -31.2881  -32.7678   21.7435 C   0  0  0  0  0  0  0  0  0  0  0  0
  -33.2598  -27.2315   18.6886 C   0  0  0  0  0  0  0  0  0  0  0  0
  -33.8393  -29.4516   19.6903 C   0  0  0  0  0  0  0  0  0  0  0  0
  -32.2836  -29.3313   17.7440 C   0  0  0  0  0  0  0  0  0  0  0  0
  -28.3174  -30.8295   23.1195 C   0  0  0  0  0  0  0  0  0  0  0  0
  -33.4109  -20.9884   23.9262 C   0  0  0  0  0  0  0  0  0  0  0  0
  -32.3617  -19.3080   25.4349 C   0  0  0  0  0  0  0  0  0  0  0  0
  -31.1551  -21.7727   26.8821 C   0  0  0  0  0  0  0  0  0  0  0  0
  -32.4692  -21.6998   26.1192 C   0  0  0  0  0  0  0  0  0  0  0  0
  -29.9878  -22.2818   26.0454 C   0  0  0  0  0  0  0  0  0  1  0  0
  -31.4879  -28.5596   20.0164 C   0  0  1  0  0  0  0  0  0  0  0  0
  -30.2200  -31.6853   21.7461 C   0  0  2  0  0  0  0  0  0  0  0  0
  -32.7046  -28.6236   19.0504 C   0  0  0  0  0  0  0  0  0  0  0  0
  -25.8456  -11.6139   20.2941 N   0  0  0  0  0  0  0  0  0  0  0  0
  -26.2040  -12.9063   20.2084 N   0  0  0  0  0  0  0  0  0  0  0  0
  -29.9626  -26.6201   20.2046 N   0  0  0  0  0  0  0  0  0  0  0  0
  -29.9237  -13.7396   20.4391 N   0  0  0  0  0  0  0  0  0  0  0  0
  -25.4062  -15.1131   20.5309 N   0  0  0  0  0  0  0  0  0  0  0  0
  -21.8580  -12.5496   21.6422 N   0  0  0  0  0  0  0  0  0  0  0  0
  -30.0061  -15.7821   21.6153 N   0  0  0  0  0  0  0  0  0  0  0  0
  -29.0510  -23.6297   18.3277 N   0  0  0  0  0  0  0  0  0  0  0  0
  -30.9245  -29.8621   20.3548 N   0  0  0  0  0  0  0  0  0  0  0  0
  -29.4194  -31.8180   22.9961 N   0  3  0  0  0  0  0  0  0  0  0  0
  -32.3632  -20.7499   24.9870 N   0  3  1  0  0  0  0  0  0  0  0  0
  -22.6028  -14.7083   21.4333 O   0  0  0  0  0  0  0  0  0  0  0  0
  -31.0339  -24.5856   19.0871 O   0  0  0  0  0  0  0  0  0  0  0  0
  -29.8214  -28.0853   18.3965 O   0  0  0  0  0  0  0  0  0  0  0  0
  -31.2067  -29.6730   22.6486 O   0  0  0  0  0  0  0  0  0  0  0  0
  -31.7919  -15.0945   20.3038 O   0  0  0  0  0  0  0  0  0  0  0  0
  -21.6642   -6.9825   21.5652 O   0  0  0  0  0  0  0  0  0  0  0  0
  -30.3035  -23.5882   25.5660 O   0  0  0  0  0  0  0  0  0  1  0  0
  -24.1562   -2.8717   24.2662 F   0  0  0  0  0  0  0  0  0  0  0  0
  -20.6331   -6.0163   23.9413 F   0  0  0  0  0  0  0  0  0  0  0  0
  1  2  1  0  0  0  0
  1  5  2  0  0  0  0
  2  6  2  0  0  0  0
  3 12  2  0  0  0  0
  3 19  1  0  0  0  0
  4 13  1  0  0  0  0
  4 19  2  0  0  0  0
  5 21  1  0  0  0  0
  6 23  1  0  0  0  0
  7 14  2  0  0  0  0
  7 22  1  0  0  0  0
  8 10  2  0  0  0  0
  8 25  1  0  0  0  0
  9 11  1  0  0  0  0
  9 25  2  0  0  0  0
 10 26  1  0  0  0  0
 11 26  2  0  0  0  0
 12 27  1  0  0  0  0
 13 27  2  0  0  0  0
 14 28  1  0  0  0  0
 15 16  2  0  0  0  0
 15 29  1  0  0  0  0
 16 30  1  0  0  0  0
 17 24  1  0  0  0  0
 17 28  2  0  0  0  0
 18 30  2  0  0  0  0
 18 31  1  0  0  0  0
 19 32  1  0  0  0  0
 20 32  1  0  0  0  0
 20 33  2  0  0  0  0
 20 34  1  0  0  0  0
 21 23  2  0  0  0  0
 21 39  1  0  0  0  0
 22 24  2  0  0  0  0
 22 40  1  0  0  0  0
 23 48  1  0  0  0  0
 24 41  1  0  0  0  0
 25 57  1  0  0  0  0
 26 70  1  0  0  0  0
 27 80  1  0  0  0  0
 28 81  1  0  0  0  0
 29 31  2  0  0  0  0
 29 80  1  0  0  0  0
 30 82  1  0  0  0  0
 31 83  1  0  0  0  0
 32 64  2  0  0  0  0
 33 65  1  0  0  0  0
 33 68  1  0  0  0  0
 34 69  1  0  0  0  0
 34 75  2  0  0  0  0
 35 49  1  0  0  0  0
 35 71  1  0  0  0  0
 35 76  2  0  0  0  0
 36 61  1  0  0  0  0
 36 66  1  0  0  0  0
 36 77  2  0  0  0  0
 37 62  1  0  0  0  0
 37 72  1  0  0  0  0
 37 78  2  0  0  0  0
 38 67  1  0  0  0  0
 38 70  1  0  0  0  0
 38 79  2  0  0  0  0
 39 42  1  0  0  0  0
 40 49  1  0  0  0  0
 41 66  1  0  0  0  0
 42 44  1  0  0  0  0
 43 45  1  0  0  0  0
 43 46  1  0  0  0  0
 44 48  1  0  0  0  0
 45 50  1  0  0  0  0
 46 67  1  0  0  0  0
 47 50  1  0  0  0  0
 47 67  1  0  0  0  0
 48 71  1  0  0  0  0
 49 66  1  0  0  0  0
 50 65  1  0  0  0  0
 51 62  1  0  0  0  0
 52 63  1  0  0  0  0
 53 63  1  0  0  0  0
 54 63  1  0  0  0  0
 55 73  1  0  0  0  0
 56 74  1  0  0  0  0
 57 74  1  0  0  0  0
 58 59  1  0  0  0  0
 58 60  1  0  0  0  0
 59 74  1  0  0  0  0
 60 81  1  0  0  0  0
 61 63  1  0  0  0  0
 61 72  1  0  0  0  0
 62 73  1  0  0  0  0
 64 65  1  0  0  0  0
M  CHG  2  73   1  74   1
M  ISO  4  38 100  60 101  70 100  81 101
M  END
> <Batch ID>
0016

> <Smiles>
CNC(C)C(=O)NC(C(=O)N1Cc2cc([101O:1][101CH2:1]CCN(C)Cc3ccc([100NH:0][100C:0](=O)N4CCCC(n5nc(-c6ccc(Oc7ccc(F)cc7F)cc6)c(C(N)=O)c5N)C4)cc3)ccc2CC1C(=O)NC1CCCc2ccccc21)C(C)(C)C

> <Shape>
0.252

> <Color>
0.203

> <Negative vol penalty>
0.000

$$$$

  -OEChem-04042320573D

 85 93  0     1  0  0  0  0  0999 V2000
  -20.7737  -16.9865   22.7617 C   0  0  0  0  0  0  0  0  0  0  0  0
  -22.0919  -17.3648   22.5277 C   0  0  0  0  0  0  0  0  0  0  0  0
  -28.3463  -18.4624   21.0799 C   0  0  0  0  0  0  0  0  0  0  0  0
  -29.2711  -17.8316   18.9389 C   0  0  0  0  0  0  0  0  0  0  0  0
  -19.7327  -17.8581   22.4446 C   0  0  0  0  0  0  0  0  0  0  0  0
  -22.3698  -18.6146   21.9754 C   0  0  0  0  0  0  0  0  0  0  0  0
  -27.2892  -23.8195   22.1342 C   0  0  0  0  0  0  0  0  0  0  0  0
  -28.6648  -17.2032   21.5885 C   0  0  0  0  0  0  0  0  0  0  0  0
  -29.5896  -16.5724   19.4475 C   0  0  0  0  0  0  0  0  0  0  0  0
  -28.0820  -24.5788   21.2747 C   0  0  0  0  0  0  0  0  0  0  0  0
  -27.9809  -13.6737   20.1112 C   0  0  0  0  0  0  0  0  0  0  0  0
  -27.6799  -12.5620   19.3246 C   0  0  0  0  0  0  0  0  0  0  0  0
  -26.2072  -26.0334   20.8403 C   0  0  0  0  0  0  0  0  0  0  0  0
  -30.0179  -11.9541   19.2889 C   0  0  0  0  0  0  0  0  0  0  0  0
  -28.6493  -18.7766   19.7551 C   0  0  0  0  0  0  0  0  0  0  0  0
  -27.0411  -20.6581   19.1378 C   0  0  0  0  0  0  0  0  0  0  0  0
  -19.9985  -19.1231   21.8971 C   0  0  0  0  0  0  0  0  0  0  0  0
  -25.9443  -24.1555   22.3451 C   0  0  0  0  0  0  0  0  0  0  0  0
  -21.3313  -19.5035   21.6494 C   0  0  0  0  0  0  0  0  0  0  0  0
  -25.4002  -25.2782   21.7049 C   0  0  0  0  0  0  0  0  0  0  0  0
  -29.2865  -16.2583   20.7723 C   0  0  0  0  0  0  0  0  0  0  0  0
  -27.5402  -25.6842   20.6253 C   0  0  0  0  0  0  0  0  0  0  0  0
  -29.3005  -13.9258   20.4867 C   0  0  0  0  0  0  0  0  0  0  0  0
  -28.6983  -11.7021   18.9134 C   0  0  0  0  0  0  0  0  0  0  0  0
  -30.3190  -13.0659   20.0755 C   0  0  0  0  0  0  0  0  0  0  0  0
  -28.3200  -20.0769   19.2290 C   0  0  0  0  0  0  0  0  0  0  0  0
  -27.2632  -21.8896   18.5718 C   0  0  0  0  0  0  0  0  0  0  0  0
  -33.0163  -28.1664   14.6391 C   0  0  0  0  0  0  0  0  0  0  0  0
  -31.7230  -27.8810   14.4709 C   0  0  0  0  0  0  0  0  0  0  0  0
  -25.7663  -20.1318   19.5298 C   0  0  0  0  0  0  0  0  0  0  0  0
  -23.1624  -22.7080   21.8257 C   0  0  0  0  0  0  0  0  0  0  0  0
  -21.9727  -25.2814   23.4022 C   0  0  0  0  0  0  0  0  0  0  0  0
  -22.3706  -28.5345   24.3536 C   0  0  0  0  0  0  0  0  0  0  0  0
  -31.7896  -25.5114   18.5352 C   0  0  0  0  0  0  0  0  0  0  0  0
  -18.8379  -20.0123   21.5268 C   0  0  0  0  0  0  0  0  0  0  0  0
  -25.1098  -23.3420   23.2960 C   0  0  0  0  0  0  0  0  0  0  0  0
  -23.9674  -25.6931   21.9132 C   0  0  0  0  0  0  0  0  0  0  0  0
  -33.4786  -27.7289   15.9924 C   0  0  0  0  0  0  0  0  0  0  0  0
  -19.2359  -21.4673   21.2924 C   0  0  0  0  0  0  0  0  0  0  0  0
  -30.2526  -24.1909   15.6428 C   0  0  0  0  0  0  0  0  0  0  0  0
  -20.4757  -21.5456   20.4072 C   0  0  0  0  0  0  0  0  0  0  0  0
  -29.4564  -23.0256   16.2285 C   0  0  0  0  0  0  0  0  0  0  0  0
  -31.6297  -24.3308   16.2942 C   0  0  0  0  0  0  0  0  0  0  0  0
  -30.7902  -23.2527   18.3571 C   0  0  0  0  0  0  0  0  0  0  0  0
  -21.6743  -20.8608   21.0747 C   0  0  1  0  0  0  0  0  0  0  0  0
  -31.0973  -27.2042   15.6455 C   0  0  1  0  0  0  0  0  0  0  0  0
  -23.6118  -23.4728   23.0385 C   0  0  1  0  0  0  0  0  0  0  0  0
  -29.3794  -23.1274   17.7617 C   0  0  2  0  0  0  0  0  0  0  0  0
  -32.3647  -26.7562   16.4081 C   0  0  2  0  0  0  0  0  0  0  0  0
  -21.2127  -30.3772   25.6031 C   0  0  0  0  0  0  0  0  0  0  0  0
  -20.1097  -25.7188   21.0257 C   0  0  0  0  0  0  0  0  0  0  0  0
  -19.6831  -28.0348   21.8755 C   0  0  0  0  0  0  0  0  0  0  0  0
  -19.0454  -26.0621   23.2626 C   0  0  0  0  0  0  0  0  0  0  0  0
  -32.7962  -27.7604   18.6198 C   0  0  0  0  0  0  0  0  0  0  0  0
  -24.5539  -28.7145   26.3436 C   0  0  0  0  0  0  0  0  0  0  0  0
  -30.2955  -29.9086   13.3333 C   0  0  0  0  0  0  0  0  0  0  0  0
  -28.7103  -28.2833   18.2928 C   0  0  0  0  0  0  0  0  0  0  0  0
  -29.2803  -27.3801   17.2038 C   0  0  0  0  0  0  0  0  0  0  0  0
  -27.6919  -27.5459   19.1533 C   0  0  0  0  0  0  0  0  0  1  0  0
  -21.4893  -26.6532   22.9979 C   0  0  1  0  0  0  0  0  0  0  0  0
  -22.1949  -29.2199   25.6967 C   0  0  2  0  0  0  0  0  0  0  0  0
  -20.1084  -26.6085   22.2848 C   0  0  0  0  0  0  0  0  0  0  0  0
  -29.2832  -20.8737   18.7584 N   0  0  0  0  0  0  0  0  0  0  0  0
  -28.6091  -21.9681   18.3660 N   0  0  0  0  0  0  0  0  0  0  0  0
  -23.1903  -24.8621   22.8476 N   0  0  0  0  0  0  0  0  0  0  0  0
  -31.5144  -24.3765   17.7582 N   0  0  0  0  0  0  0  0  0  0  0  0
  -26.4364  -22.9023   18.2348 N   0  0  0  0  0  0  0  0  0  0  0  0
  -25.3149  -20.3763   20.8339 N   0  0  0  0  0  0  0  0  0  0  0  0
  -22.2401  -21.7153   22.0965 N   0  0  0  0  0  0  0  0  0  0  0  0
  -21.5105  -27.4667   24.2087 N   0  0  0  0  0  0  0  0  0  0  0  0
  -30.2352  -28.1162   16.3840 N   0  0  0  0  0  0  0  0  0  0  0  0
  -32.2090  -26.6667   17.8586 N   0  0  0  0  0  0  0  0  0  0  0  0
  -23.5003  -29.7495   26.1827 N   0  3  0  0  0  0  0  0  0  0  0  0
  -25.0562  -19.4505   18.7519 O   0  0  0  0  0  0  0  0  0  0  0  0
  -23.6175  -22.9982   20.7256 O   0  0  0  0  0  0  0  0  0  0  0  0
  -21.2986  -24.6095   24.1869 O   0  0  0  0  0  0  0  0  0  0  0  0
  -23.1866  -28.9112   23.5153 O   0  0  0  0  0  0  0  0  0  0  0  0
  -31.6751  -25.4926   19.7676 O   0  0  0  0  0  0  0  0  0  0  0  0
  -31.8764  -28.3860   11.9329 O   0  0  0  0  0  0  0  0  0  0  0  0
  -29.7469  -27.4078   12.8612 O   0  0  0  0  0  0  0  0  0  0  0  0
  -29.5977  -15.0296   21.2684 O   0  0  0  0  0  0  0  0  0  0  0  0
  -28.3116  -26.4267   19.7854 O   0  0  0  0  0  0  0  0  0  1  0  0
  -28.4088  -10.6336   18.1593 F   0  0  0  0  0  0  0  0  0  0  0  0
  -31.5884  -13.3022   20.4341 F   0  0  0  0  0  0  0  0  0  0  0  0
  -30.9155  -28.2678   13.0264 S   0  0  0  0  0  0  0  0  0  0  0  0
  1  2  1  0  0  0  0
  1  5  2  0  0  0  0
  2  6  2  0  0  0  0
  3  8  2  0  0  0  0
  3 15  1  0  0  0  0
  4  9  1  0  0  0  0
  4 15  2  0  0  0  0
  5 17  1  0  0  0  0
  6 19  1  0  0  0  0
  7 10  2  0  0  0  0
  7 18  1  0  0  0  0
  8 21  1  0  0  0  0
  9 21  2  0  0  0  0
 10 22  1  0  0  0  0
 11 12  2  0  0  0  0
 11 23  1  0  0  0  0
 12 24  1  0  0  0  0
 13 20  1  0  0  0  0
 13 22  2  0  0  0  0
 14 24  2  0  0  0  0
 14 25  1  0  0  0  0
 15 26  1  0  0  0  0
 16 26  1  0  0  0  0
 16 27  2  0  0  0  0
 16 30  1  0  0  0  0
 17 19  2  0  0  0  0
 17 35  1  0  0  0  0
 18 20  2  0  0  0  0
 18 36  1  0  0  0  0
 19 45  1  0  0  0  0
 20 37  1  0  0  0  0
 21 81  1  0  0  0  0
 22 82  1  0  0  0  0
 23 25  2  0  0  0  0
 23 81  1  0  0  0  0
 24 83  1  0  0  0  0
 25 84  1  0  0  0  0
 26 63  2  0  0  0  0
 27 64  1  0  0  0  0
 27 67  1  0  0  0  0
 28 29  2  0  0  0  0
 28 38  1  0  0  0  0
 29 46  1  0  0  0  0
 29 85  1  0  0  0  0
 30 68  1  0  0  0  0
 30 74  2  0  0  0  0
 31 47  1  0  0  0  0
 31 69  1  0  0  0  0
 31 75  2  0  0  0  0
 32 60  1  0  0  0  0
 32 65  1  0  0  0  0
 32 76  2  0  0  0  0
 33 61  1  0  0  0  0
 33 70  1  0  0  0  0
 33 77  2  0  0  0  0
 34 66  1  0  0  0  0
 34 72  1  0  0  0  0
 34 78  2  0  0  0  0
 35 39  1  0  0  0  0
 36 47  1  0  0  0  0
 37 65  1  0  0  0  0
 38 49  1  0  0  0  0
 39 41  1  0  0  0  0
 40 42  1  0  0  0  0
 40 43  1  0  0  0  0
 41 45  1  0  0  0  0
 42 48  1  0  0  0  0
 43 66  1  0  0  0  0
 44 48  1  0  0  0  0
 44 66  1  0  0  0  0
 45 69  1  0  0  0  0
 46 49  1  0  0  0  0
 46 71  1  0  0  0  0
 47 65  1  0  0  0  0
 48 64  1  0  0  0  0
 49 72  1  0  0  0  0
 50 61  1  0  0  0  0
 51 62  1  0  0  0  0
 52 62  1  0  0  0  0
 53 62  1  0  0  0  0
 54 72  1  0  0  0  0
 55 73  1  0  0  0  0
 56 85  1  0  0  0  0
 57 58  1  0  0  0  0
 57 59  1  0  0  0  0
 58 71  1  0  0  0  0
 59 82  1  0  0  0  0
 60 62  1  0  0  0  0
 60 70  1  0  0  0  0
 61 73  1  0  0  0  0
 63 64  1  0  0  0  0
 79 85  2  0  0  0  0
 80 85  2  0  0  0  0
M  CHG  1  73   1
M  ISO  4  34 100  59 101  72 100  82 101
M  END
> <Batch ID>
0016

> <Smiles>
CNC(C)C(=O)NC(C(=O)N1Cc2cc([101O:1][101CH2:1]CCNC3C(S(C)(=O)=O)=CCC3[100N:0](C)[100C:0](=O)N3CCCC(n4nc(-c5ccc(Oc6ccc(F)cc6F)cc5)c(C(N)=O)c4N)C3)ccc2CC1C(=O)NC1CCCc2ccccc21)C(C)(C)C

> <Shape>
0.177

> <Color>
0.062

> <Negative vol penalty>
0.000

$$$$

  -OEChem-04042320573D

 87 95  0     1  0  0  0  0  0999 V2000
  -28.0225  -31.6616   21.2840 C   0  0  0  0  0  0  0  0  0  0  0  0
  -28.0438  -30.8512   22.4145 C   0  0  0  0  0  0  0  0  0  0  0  0
  -26.2675  -17.7398   28.8113 C   0  0  0  0  0  0  0  0  0  0  0  0
  -27.9415  -12.1265   18.7113 C   0  0  0  0  0  0  0  0  0  0  0  0
  -28.6709  -12.8915   20.8839 C   0  0  0  0  0  0  0  0  0  0  0  0
  -27.4570  -31.1899   20.1001 C   0  0  0  0  0  0  0  0  0  0  0  0
  -27.4986  -29.5689   22.3622 C   0  0  0  0  0  0  0  0  0  0  0  0
  -29.5001  -24.5939   25.3201 C   0  0  0  0  0  0  0  0  0  0  0  0
  -25.4934  -18.0078   27.6824 C   0  0  0  0  0  0  0  0  0  0  0  0
  -26.7438  -18.7902   29.5959 C   0  0  0  0  0  0  0  0  0  0  0  0
  -29.2710  -11.9633   18.3224 C   0  0  0  0  0  0  0  0  0  0  0  0
  -30.0005  -12.7282   20.4949 C   0  0  0  0  0  0  0  0  0  0  0  0
  -29.0876  -23.9741   26.4988 C   0  0  0  0  0  0  0  0  0  0  0  0
  -32.2781  -14.4050   18.6425 C   0  0  0  0  0  0  0  0  0  0  0  0
  -33.1740  -15.4286   18.9512 C   0  0  0  0  0  0  0  0  0  0  0  0
  -27.7363  -22.4436   25.2140 C   0  0  0  0  0  0  0  0  0  0  0  0
  -25.6719  -20.3767   28.1224 C   0  0  0  0  0  0  0  0  0  0  0  0
  -34.4895  -13.8822   20.2609 C   0  0  0  0  0  0  0  0  0  0  0  0
  -27.6414  -12.5907   19.9921 C   0  0  0  0  0  0  0  0  0  0  0  0
  -25.4385  -11.8037   21.0097 C   0  0  0  0  0  0  0  0  0  0  0  0
  -26.9133  -29.8975   20.0304 C   0  0  0  0  0  0  0  0  0  0  0  0
  -29.0245  -24.1494   24.0781 C   0  0  0  0  0  0  0  0  0  0  0  0
  -26.9241  -29.0799   21.1766 C   0  0  0  0  0  0  0  0  0  0  0  0
  -28.1463  -23.0578   24.0208 C   0  0  0  0  0  0  0  0  0  0  0  0
  -25.1956  -19.3262   27.3379 C   0  0  0  0  0  0  0  0  0  0  0  0
  -26.4460  -20.1087   29.2514 C   0  0  0  0  0  0  0  0  0  0  0  0
  -30.3005  -12.2641   19.2142 C   0  0  0  0  0  0  0  0  0  0  0  0
  -28.2033  -22.9006   26.4461 C   0  0  0  0  0  0  0  0  0  0  0  0
  -32.4879  -13.1200   19.1431 C   0  0  0  0  0  0  0  0  0  0  0  0
  -34.2797  -15.1672   19.7604 C   0  0  0  0  0  0  0  0  0  0  0  0
  -33.5936  -12.8586   19.9522 C   0  0  0  0  0  0  0  0  0  0  0  0
  -26.2682  -12.7600   20.3942 C   0  0  0  0  0  0  0  0  0  0  0  0
  -24.2399  -12.4510   21.1852 C   0  0  0  0  0  0  0  0  0  0  0  0
  -25.7257  -10.4512   21.3891 C   0  0  0  0  0  0  0  0  0  0  0  0
  -27.3113  -25.4482   21.7367 C   0  0  0  0  0  0  0  0  0  0  0  0
  -27.9941  -22.6635   20.2196 C   0  0  0  0  0  0  0  0  0  0  0  0
  -24.4082  -18.7437   25.0438 C   0  0  0  0  0  0  0  0  0  0  0  0
  -28.4441  -19.0853   20.1141 C   0  0  0  0  0  0  0  0  0  0  0  0
  -22.7650  -18.2310   21.7028 C   0  0  0  0  0  0  0  0  0  0  0  0
  -26.2705  -29.4489   18.7419 C   0  0  0  0  0  0  0  0  0  0  0  0
  -29.5000  -24.8116   22.8140 C   0  0  0  0  0  0  0  0  0  0  0  0
  -27.6224  -22.5293   22.7114 C   0  0  0  0  0  0  0  0  0  0  0  0
  -26.0505  -27.9403   18.6640 C   0  0  0  0  0  0  0  0  0  0  0  0
  -21.5437  -15.9179   19.2873 C   0  0  0  0  0  0  0  0  0  0  0  0
  -25.4339  -27.4231   19.9599 C   0  0  0  0  0  0  0  0  0  0  0  0
  -22.5412  -14.7600   19.3526 C   0  0  0  0  0  0  0  0  0  0  0  0
  -22.2315  -17.2671   19.4841 C   0  0  0  0  0  0  0  0  0  0  0  0
  -24.0509  -16.2131   20.7696 C   0  0  0  0  0  0  0  0  0  0  0  0
  -26.3649  -27.6738   21.1523 C   0  0  1  0  0  0  0  0  0  0  0  0
  -28.5509  -24.6047   21.6377 C   0  0  1  0  0  0  0  0  0  0  0  0
  -23.3961  -14.8279   20.6323 C   0  0  2  0  0  0  0  0  0  0  0  0
  -29.1463  -17.5841   18.2298 C   0  0  0  0  0  0  0  0  0  0  0  0
  -24.9972  -22.3268   19.7554 C   0  0  0  0  0  0  0  0  0  0  0  0
  -25.4211  -19.9176   19.2224 C   0  0  0  0  0  0  0  0  0  0  0  0
  -26.4316  -21.7035   17.8039 C   0  0  0  0  0  0  0  0  0  0  0  0
  -23.4875  -20.7621   26.2470 C   0  0  0  0  0  0  0  0  0  0  0  0
  -27.7376  -20.8844   31.2237 C   0  0  0  0  0  0  0  0  0  0  0  0
  -30.6727  -17.9492   21.6957 C   0  0  0  0  0  0  0  0  0  0  0  0
  -23.4059  -19.0745   23.9471 C   0  0  0  0  0  0  0  0  0  0  0  0
  -26.6463  -22.5410   29.7028 C   0  0  0  0  0  0  0  0  0  0  0  0
  -27.3390  -21.3063   20.1300 C   0  0  1  0  0  0  0  0  0  0  0  0
  -29.5969  -18.3328   19.4744 C   0  0  2  0  0  0  0  0  0  0  0  0
  -27.7268  -23.0896   28.7823 C   0  0  2  0  0  0  0  0  0  1  0  0
  -26.0554  -21.3245   19.2529 C   0  0  0  0  0  0  0  0  0  0  0  0
  -25.6490  -13.9261   20.1921 N   0  0  0  0  0  0  0  0  0  0  0  0
  -24.4175  -13.7067   20.6833 N   0  0  0  0  0  0  0  0  0  0  0  0
  -28.1116  -23.2143   21.5035 N   0  0  0  0  0  0  0  0  0  0  0  0
  -23.0244  -17.2658   20.7158 N   0  0  0  0  0  0  0  0  0  0  0  0
  -23.0619  -12.0629   21.7182 N   0  0  0  0  0  0  0  0  0  0  0  0
  -27.0076   -9.9442   21.1363 N   0  0  0  0  0  0  0  0  0  0  0  0
  -27.4371  -26.7019   21.1695 N   0  0  0  0  0  0  0  0  0  0  0  0
  -28.3696  -20.3858   19.6620 N   0  0  0  0  0  0  0  0  0  0  0  0
  -23.5576  -18.1550   22.8416 N   0  0  0  0  0  0  0  0  0  0  0  0
  -24.4214  -19.5938   26.2084 N   0  0  0  0  0  0  0  0  0  0  0  0
  -26.9250  -21.1636   30.0394 N   0  0  3  0  0  0  0  0  0  0  0  0
  -30.1684  -17.3469   20.4348 N   0  3  0  0  0  0  0  0  0  0  0  0
  -24.8657   -9.7088   21.9210 O   0  0  0  0  0  0  0  0  0  0  0  0
  -26.3141  -24.9945   22.2857 O   0  0  0  0  0  0  0  0  0  0  0  0
  -28.3933  -23.2114   19.1890 O   0  0  0  0  0  0  0  0  0  0  0  0
  -25.1409  -17.7587   24.9216 O   0  0  0  0  0  0  0  0  0  0  0  0
  -27.6833  -18.5697   20.9302 O   0  0  0  0  0  0  0  0  0  0  0  0
  -21.8880  -19.0930   21.5807 O   0  0  0  0  0  0  0  0  0  0  0  0
  -31.5980  -12.1047   18.8350 O   0  0  0  0  0  0  0  0  0  0  0  0
  -27.7985  -22.2943   27.5952 O   0  0  0  0  0  0  0  0  0  1  0  0
  -35.1408  -16.1499   20.0555 F   0  0  0  0  0  0  0  0  0  0  0  0
  -33.8010  -11.6259   20.4351 F   0  0  0  0  0  0  0  0  0  0  0  0
  -28.9246  -23.0278   29.4234 F   0  0  0  0  0  0  0  0  0  0  0  0
  1  2  1  0  0  0  0
  1  6  2  0  0  0  0
  2  7  2  0  0  0  0
  3  9  1  0  0  0  0
  3 10  2  0  0  0  0
  4 11  2  0  0  0  0
  4 19  1  0  0  0  0
  5 12  1  0  0  0  0
  5 19  2  0  0  0  0
  6 21  1  0  0  0  0
  7 23  1  0  0  0  0
  8 13  2  0  0  0  0
  8 22  1  0  0  0  0
  9 25  2  0  0  0  0
 10 26  1  0  0  0  0
 11 27  1  0  0  0  0
 12 27  2  0  0  0  0
 13 28  1  0  0  0  0
 14 15  2  0  0  0  0
 14 29  1  0  0  0  0
 15 30  1  0  0  0  0
 16 24  1  0  0  0  0
 16 28  2  0  0  0  0
 17 25  1  0  0  0  0
 17 26  2  0  0  0  0
 18 30  2  0  0  0  0
 18 31  1  0  0  0  0
 19 32  1  0  0  0  0
 20 32  1  0  0  0  0
 20 33  2  0  0  0  0
 20 34  1  0  0  0  0
 21 23  2  0  0  0  0
 21 40  1  0  0  0  0
 22 24  2  0  0  0  0
 22 41  1  0  0  0  0
 23 49  1  0  0  0  0
 24 42  1  0  0  0  0
 25 74  1  0  0  0  0
 26 75  1  0  0  0  0
 27 83  1  0  0  0  0
 28 84  1  0  0  0  0
 29 31  2  0  0  0  0
 29 83  1  0  0  0  0
 30 85  1  0  0  0  0
 31 86  1  0  0  0  0
 32 65  2  0  0  0  0
 33 66  1  0  0  0  0
 33 69  1  0  0  0  0
 34 70  1  0  0  0  0
 34 77  2  0  0  0  0
 35 50  1  0  0  0  0
 35 71  1  0  0  0  0
 35 78  2  0  0  0  0
 36 61  1  0  0  0  0
 36 67  1  0  0  0  0
 36 79  2  0  0  0  0
 37 59  1  0  0  0  0
 37 74  1  0  0  0  0
 37 80  2  0  0  0  0
 38 62  1  0  0  0  0
 38 72  1  0  0  0  0
 38 81  2  0  0  0  0
 39 68  1  0  0  0  0
 39 73  1  0  0  0  0
 39 82  2  0  0  0  0
 40 43  1  0  0  0  0
 41 50  1  0  0  0  0
 42 67  1  0  0  0  0
 43 45  1  0  0  0  0
 44 46  1  0  0  0  0
 44 47  1  0  0  0  0
 45 49  1  0  0  0  0
 46 51  1  0  0  0  0
 47 68  1  0  0  0  0
 48 51  1  0  0  0  0
 48 68  1  0  0  0  0
 49 71  1  0  0  0  0
 50 67  1  0  0  0  0
 51 66  1  0  0  0  0
 52 62  1  0  0  0  0
 53 64  1  0  0  0  0
 54 64  1  0  0  0  0
 55 64  1  0  0  0  0
 56 74  1  0  0  0  0
 57 75  1  0  0  0  0
 58 76  1  0  0  0  0
 59 73  1  0  0  0  0
 60 63  1  0  0  0  0
 60 75  1  0  0  0  0
 61 64  1  0  0  0  0
 61 72  1  0  0  0  0
 62 76  1  0  0  0  0
 63 84  1  0  0  0  0
 63 87  1  0  0  0  0
 65 66  1  0  0  0  0
M  CHG  1  76   1
M  ISO  4  39 100  63 101  73 100  84 101
M  END
> <Batch ID>
0016

> <Smiles>
CNC(C)C(=O)NC(C(=O)N1Cc2cc([101O:1][101CH:1](F)CN(C)c3cccc(N(C)C(=O)C[100NH:0][100C:0](=O)N4CCCC(n5nc(-c6ccc(Oc7ccc(F)cc7F)cc6)c(C(N)=O)c5N)C4)c3)ccc2CC1C(=O)NC1CCCc2ccccc21)C(C)(C)C

> <Shape>
0.189

> <Color>
0.070

> <Negative vol penalty>
0.000

$$$$

  -OEChem-04042320573D

 83 91  0     1  0  0  0  0  0999 V2000
  -29.8956  -11.4048   19.3779 C   0  0  0  0  0  0  0  0  0  0  0  0
  -30.2276  -12.6821   18.9378 C   0  0  0  0  0  0  0  0  0  0  0  0
  -22.7236  -28.0434   22.1280 C   0  0  0  0  0  0  0  0  0  0  0  0
  -22.3014  -27.8511   19.7569 C   0  0  0  0  0  0  0  0  0  0  0  0
  -28.6732  -11.1825   20.0105 C   0  0  0  0  0  0  0  0  0  0  0  0
  -29.3368  -13.7377   19.1291 C   0  0  0  0  0  0  0  0  0  0  0  0
  -30.7494  -19.5811   20.2977 C   0  0  0  0  0  0  0  0  0  0  0  0
  -31.3848  -30.0731   19.4132 C   0  0  0  0  0  0  0  0  0  0  0  0
  -31.5351  -28.3040   21.0518 C   0  0  0  0  0  0  0  0  0  0  0  0
  -31.6228  -29.1501   18.3948 C   0  0  0  0  0  0  0  0  0  0  0  0
  -31.7731  -27.3810   20.0334 C   0  0  0  0  0  0  0  0  0  0  0  0
  -21.3538  -27.9637   22.3784 C   0  0  0  0  0  0  0  0  0  0  0  0
  -20.9315  -27.7713   20.0074 C   0  0  0  0  0  0  0  0  0  0  0  0
  -30.8330  -20.7074   19.4802 C   0  0  0  0  0  0  0  0  0  0  0  0
  -17.9410  -28.1721   23.6165 C   0  0  0  0  0  0  0  0  0  0  0  0
  -17.3939  -29.0722   24.5309 C   0  0  0  0  0  0  0  0  0  0  0  0
  -28.5830  -21.3172   20.1003 C   0  0  0  0  0  0  0  0  0  0  0  0
  -18.1227  -30.9168   23.1513 C   0  0  0  0  0  0  0  0  0  0  0  0
  -23.1975  -27.9872   20.8172 C   0  0  0  0  0  0  0  0  0  0  0  0
  -25.5266  -27.0023   20.4814 C   0  0  0  0  0  0  0  0  0  0  0  0
  -27.7711  -12.2378   20.2183 C   0  0  0  0  0  0  0  0  0  0  0  0
  -29.5760  -19.3080   21.0153 C   0  0  0  0  0  0  0  0  0  0  0  0
  -28.1006  -13.5290   19.7640 C   0  0  0  0  0  0  0  0  0  0  0  0
  -28.4878  -20.1881   20.9282 C   0  0  0  0  0  0  0  0  0  0  0  0
  -31.3410  -29.6501   20.7417 C   0  0  0  0  0  0  0  0  0  0  0  0
  -31.8169  -27.8041   18.7049 C   0  0  0  0  0  0  0  0  0  0  0  0
  -20.4577  -27.8276   21.3182 C   0  0  0  0  0  0  0  0  0  0  0  0
  -29.7487  -21.5741   19.3792 C   0  0  0  0  0  0  0  0  0  0  0  0
  -18.5790  -28.6444   22.4695 C   0  0  0  0  0  0  0  0  0  0  0  0
  -17.4847  -30.4445   24.2983 C   0  0  0  0  0  0  0  0  0  0  0  0
  -18.6698  -30.0167   22.2369 C   0  0  0  0  0  0  0  0  0  0  0  0
  -24.6124  -28.0701   20.5578 C   0  0  0  0  0  0  0  0  0  0  0  0
  -26.7336  -27.6020   20.2170 C   0  0  0  0  0  0  0  0  0  0  0  0
  -25.3046  -25.5942   20.6356 C   0  0  0  0  0  0  0  0  0  0  0  0
  -27.4561  -16.9395   21.0312 C   0  0  0  0  0  0  0  0  0  0  0  0
  -26.2437  -18.5627   23.5645 C   0  0  0  0  0  0  0  0  0  0  0  0
  -25.9153  -21.5319   25.2147 C   0  0  0  0  0  0  0  0  0  0  0  0
  -30.3237  -31.7687   21.6179 C   0  0  0  0  0  0  0  0  0  0  0  0
  -26.4415  -11.9395   20.8647 C   0  0  0  0  0  0  0  0  0  0  0  0
  -29.5112  -18.1033   21.9135 C   0  0  0  0  0  0  0  0  0  0  0  0
  -27.2127  -19.9509   21.6938 C   0  0  0  0  0  0  0  0  0  0  0  0
  -25.7139  -13.1851   21.3640 C   0  0  0  0  0  0  0  0  0  0  0  0
  -27.8806  -32.3358   18.8971 C   0  0  0  0  0  0  0  0  0  0  0  0
  -25.7347  -14.2780   20.3000 C   0  0  0  0  0  0  0  0  0  0  0  0
  -26.8452  -31.2385   19.1367 C   0  0  0  0  0  0  0  0  0  0  0  0
  -28.5629  -32.7634   20.1930 C   0  0  0  0  0  0  0  0  0  0  0  0
  -28.1479  -30.5291   21.1815 C   0  0  0  0  0  0  0  0  0  0  0  0
  -27.1714  -14.7046   19.9754 C   0  0  1  0  0  0  0  0  0  0  0  0
  -28.0838  -17.6468   22.1989 C   0  0  1  0  0  0  0  0  0  0  0  0
  -27.4752  -30.0525   19.8855 C   0  0  1  0  0  0  0  0  0  0  0  0
  -24.8344  -22.5532   27.2360 C   0  0  0  0  0  0  0  0  0  0  0  0
  -23.5467  -18.5251   22.1383 C   0  0  0  0  0  0  0  0  0  0  0  0
  -22.7758  -20.3263   23.6970 C   0  0  0  0  0  0  0  0  0  0  0  0
  -23.4314  -18.0950   24.5992 C   0  0  0  0  0  0  0  0  0  0  0  0
  -31.8914  -30.4961   23.0158 C   0  0  0  0  0  0  0  0  0  0  0  0
  -32.1002  -27.3220   16.2868 C   0  0  0  0  0  0  0  0  0  0  0  0
  -28.5296  -22.3104   26.3629 C   0  0  0  0  0  0  0  0  0  0  0  0
  -30.9471  -24.7518   18.1485 C   0  0  0  0  0  0  0  0  0  0  0  0
  -32.2739  -25.4790   17.9665 C   0  0  0  0  0  0  0  0  0  0  0  0
  -31.1172  -23.2597   18.4086 C   0  0  0  0  0  0  0  0  0  1  0  0
  -25.2222  -19.6601   23.7415 C   0  0  1  0  0  0  0  0  0  0  0  0
  -26.0870  -21.8951   26.6786 C   0  0  2  0  0  0  0  0  0  0  0  0
  -23.7672  -19.1554   23.5279 C   0  0  0  0  0  0  0  0  0  0  0  0
  -25.1892  -29.2581   20.3582 N   0  0  0  0  0  0  0  0  0  0  0  0
  -26.4790  -28.9404   20.1539 N   0  0  0  0  0  0  0  0  0  0  0  0
  -27.1960  -18.7560   22.5537 N   0  0  0  0  0  0  0  0  0  0  0  0
  -29.1052  -31.6175   20.9247 N   0  0  0  0  0  0  0  0  0  0  0  0
  -27.9773  -27.1097   20.0347 N   0  0  0  0  0  0  0  0  0  0  0  0
  -24.0033  -25.1485   20.9043 N   0  0  0  0  0  0  0  0  0  0  0  0
  -27.6854  -15.5770   21.0094 N   0  0  0  0  0  0  0  0  0  0  0  0
  -25.4672  -20.2373   25.0588 N   0  0  0  0  0  0  0  0  0  0  0  0
  -31.0964  -30.6051   21.7947 N   0  0  0  0  0  0  0  0  0  0  0  0
  -32.0554  -26.8764   17.6807 N   0  0  3  0  0  0  0  0  0  0  0  0
  -27.2284  -22.8382   26.8479 N   0  3  0  0  0  0  0  0  0  0  0  0
  -26.2356  -24.7575   20.5543 O   0  0  0  0  0  0  0  0  0  0  0  0
  -26.8104  -17.5822   20.2116 O   0  0  0  0  0  0  0  0  0  0  0  0
  -26.2028  -17.5740   24.3009 O   0  0  0  0  0  0  0  0  0  0  0  0
  -26.1514  -22.3193   24.3009 O   0  0  0  0  0  0  0  0  0  0  0  0
  -30.6742  -32.8547   22.0959 O   0  0  0  0  0  0  0  0  0  0  0  0
  -19.1210  -27.7495   21.5622 O   0  0  0  0  0  0  0  0  0  0  0  0
  -29.8275  -22.6738   18.5815 O   0  0  0  0  0  0  0  0  0  1  0  0
  -16.9579  -31.3086   25.1758 F   0  0  0  0  0  0  0  0  0  0  0  0
  -19.2805  -30.4764   21.1362 F   0  0  0  0  0  0  0  0  0  0  0  0
  1  2  1  0  0  0  0
  1  5  2  0  0  0  0
  2  6  2  0  0  0  0
  3 12  2  0  0  0  0
  3 19  1  0  0  0  0
  4 13  1  0  0  0  0
  4 19  2  0  0  0  0
  5 21  1  0  0  0  0
  6 23  1  0  0  0  0
  7 14  2  0  0  0  0
  7 22  1  0  0  0  0
  8 10  2  0  0  0  0
  8 25  1  0  0  0  0
  9 11  1  0  0  0  0
  9 25  2  0  0  0  0
 10 26  1  0  0  0  0
 11 26  2  0  0  0  0
 12 27  1  0  0  0  0
 13 27  2  0  0  0  0
 14 28  1  0  0  0  0
 15 16  2  0  0  0  0
 15 29  1  0  0  0  0
 16 30  1  0  0  0  0
 17 24  1  0  0  0  0
 17 28  2  0  0  0  0
 18 30  2  0  0  0  0
 18 31  1  0  0  0  0
 19 32  1  0  0  0  0
 20 32  1  0  0  0  0
 20 33  2  0  0  0  0
 20 34  1  0  0  0  0
 21 23  2  0  0  0  0
 21 39  1  0  0  0  0
 22 24  2  0  0  0  0
 22 40  1  0  0  0  0
 23 48  1  0  0  0  0
 24 41  1  0  0  0  0
 25 72  1  0  0  0  0
 26 73  1  0  0  0  0
 27 80  1  0  0  0  0
 28 81  1  0  0  0  0
 29 31  2  0  0  0  0
 29 80  1  0  0  0  0
 30 82  1  0  0  0  0
 31 83  1  0  0  0  0
 32 64  2  0  0  0  0
 33 65  1  0  0  0  0
 33 68  1  0  0  0  0
 34 69  1  0  0  0  0
 34 75  2  0  0  0  0
 35 49  1  0  0  0  0
 35 70  1  0  0  0  0
 35 76  2  0  0  0  0
 36 61  1  0  0  0  0
 36 66  1  0  0  0  0
 36 77  2  0  0  0  0
 37 62  1  0  0  0  0
 37 71  1  0  0  0  0
 37 78  2  0  0  0  0
 38 67  1  0  0  0  0
 38 72  1  0  0  0  0
 38 79  2  0  0  0  0
 39 42  1  0  0  0  0
 40 49  1  0  0  0  0
 41 66  1  0  0  0  0
 42 44  1  0  0  0  0
 43 45  1  0  0  0  0
 43 46  1  0  0  0  0
 44 48  1  0  0  0  0
 45 50  1  0  0  0  0
 46 67  1  0  0  0  0
 47 50  1  0  0  0  0
 47 67  1  0  0  0  0
 48 70  1  0  0  0  0
 49 66  1  0  0  0  0
 50 65  1  0  0  0  0
 51 62  1  0  0  0  0
 52 63  1  0  0  0  0
 53 63  1  0  0  0  0
 54 63  1  0  0  0  0
 55 72  1  0  0  0  0
 56 73  1  0  0  0  0
 57 74  1  0  0  0  0
 58 59  1  0  0  0  0
 58 60  1  0  0  0  0
 59 73  1  0  0  0  0
 60 81  1  0  0  0  0
 61 63  1  0  0  0  0
 61 71  1  0  0  0  0
 62 74  1  0  0  0  0
 64 65  1  0  0  0  0
M  CHG  1  74   1
M  ISO  4  38 100  60 101  72 100  81 101
M  END
> <Batch ID>
0016

> <Smiles>
CNC(C)C(=O)NC(C(=O)N1Cc2cc([101O:1][101CH2:1]CCN(C)c3ccc([100N:0](C)[100C:0](=O)N4CCCC(n5nc(-c6ccc(Oc7ccc(F)cc7F)cc6)c(C(N)=O)c5N)C4)cc3)ccc2CC1C(=O)NC1CCCc2ccccc21)C(C)(C)C

> <Shape>
0.220

> <Color>
0.079

> <Negative vol penalty>
0.000

$$$$

  -OEChem-04042320573D

 81 89  0     1  0  0  0  0  0999 V2000
  -22.3915  -28.8478   16.3570 C   0  0  0  0  0  0  0  0  0  0  0  0
  -23.1182  -28.3091   17.4139 C   0  0  0  0  0  0  0  0  0  0  0  0
  -32.3706  -18.5607   22.0128 C   0  0  0  0  0  0  0  0  0  0  0  0
  -23.0723   -9.8713   19.9416 C   0  0  0  0  0  0  0  0  0  0  0  0
  -23.8310   -9.8778   22.2354 C   0  0  0  0  0  0  0  0  0  0  0  0
  -21.4531  -28.0643   15.6866 C   0  0  0  0  0  0  0  0  0  0  0  0
  -22.9060  -26.9866   17.8019 C   0  0  0  0  0  0  0  0  0  0  0  0
  -27.0912  -23.0614   19.9426 C   0  0  0  0  0  0  0  0  0  0  0  0
  -31.8720  -17.3380   21.5633 C   0  0  0  0  0  0  0  0  0  0  0  0
  -31.5877  -19.3746   22.8315 C   0  0  0  0  0  0  0  0  0  0  0  0
  -22.3267   -8.7192   20.1914 C   0  0  0  0  0  0  0  0  0  0  0  0
  -23.0853   -8.7258   22.4853 C   0  0  0  0  0  0  0  0  0  0  0  0
  -27.4281  -22.6622   21.2352 C   0  0  0  0  0  0  0  0  0  0  0  0
  -19.3766   -7.9272   21.6414 C   0  0  0  0  0  0  0  0  0  0  0  0
  -18.0699   -7.8826   21.1555 C   0  0  0  0  0  0  0  0  0  0  0  0
  -26.0004  -20.7315   21.0046 C   0  0  0  0  0  0  0  0  0  0  0  0
  -29.8075  -17.7432   22.7510 C   0  0  0  0  0  0  0  0  0  0  0  0
  -18.6276   -5.9384   19.8340 C   0  0  0  0  0  0  0  0  0  0  0  0
  -23.8245  -10.4506   20.9635 C   0  0  0  0  0  0  0  0  0  0  0  0
  -24.1700  -12.9752   20.8430 C   0  0  0  0  0  0  0  0  0  0  0  0
  -21.2363  -26.7286   16.0603 C   0  0  0  0  0  0  0  0  0  0  0  0
  -26.1963  -22.3032   19.1740 C   0  0  0  0  0  0  0  0  0  0  0  0
  -21.9629  -26.1848   17.1368 C   0  0  0  0  0  0  0  0  0  0  0  0
  -25.6557  -21.1219   19.7016 C   0  0  0  0  0  0  0  0  0  0  0  0
  -30.5905  -16.9293   21.9323 C   0  0  0  0  0  0  0  0  0  0  0  0
  -30.3061  -18.9659   23.2005 C   0  0  0  0  0  0  0  0  0  0  0  0
  -22.3332   -8.1465   21.4633 C   0  0  0  0  0  0  0  0  0  0  0  0
  -26.8805  -21.4986   21.7675 C   0  0  0  0  0  0  0  0  0  0  0  0
  -20.3088   -6.9774   21.2236 C   0  0  0  0  0  0  0  0  0  0  0  0
  -17.6954   -6.8883   20.2518 C   0  0  0  0  0  0  0  0  0  0  0  0
  -19.9343   -5.9830   20.3199 C   0  0  0  0  0  0  0  0  0  0  0  0
  -24.5954  -11.6403   20.7059 C   0  0  0  0  0  0  0  0  0  0  0  0
  -25.2633  -13.7230   20.4801 C   0  0  0  0  0  0  0  0  0  0  0  0
  -22.9000  -13.4929   21.2611 C   0  0  0  0  0  0  0  0  0  0  0  0
  -23.3469  -22.8384   17.8710 C   0  0  0  0  0  0  0  0  0  0  0  0
  -23.8214  -19.9031   16.5745 C   0  0  0  0  0  0  0  0  0  0  0  0
  -25.3850  -16.8749   16.7541 C   0  0  0  0  0  0  0  0  0  0  0  0
  -30.7309  -14.7610   20.6574 C   0  0  0  0  0  0  0  0  0  0  0  0
  -20.1775  -25.9350   15.3365 C   0  0  0  0  0  0  0  0  0  0  0  0
  -25.8638  -22.7332   17.7715 C   0  0  0  0  0  0  0  0  0  0  0  0
  -24.7060  -20.2617   18.9100 C   0  0  0  0  0  0  0  0  0  0  0  0
  -20.2805  -24.4296   15.5672 C   0  0  0  0  0  0  0  0  0  0  0  0
  -29.6144  -12.3481   18.2892 C   0  0  0  0  0  0  0  0  0  0  0  0
  -20.4759  -24.1288   17.0499 C   0  0  0  0  0  0  0  0  0  0  0  0
  -28.1741  -12.0587   18.7181 C   0  0  0  0  0  0  0  0  0  0  0  0
  -30.5292  -12.5760   19.4913 C   0  0  0  0  0  0  0  0  0  0  0  0
  -28.6225  -13.3035   20.8713 C   0  0  0  0  0  0  0  0  0  0  0  0
  -21.7789  -24.7469   17.5711 C   0  0  1  0  0  0  0  0  0  0  0  0
  -24.5434  -22.1587   17.2677 C   0  0  1  0  0  0  0  0  0  0  0  0
  -27.6501  -13.1313   19.6930 C   0  0  2  0  0  0  0  0  0  0  0  0
  -25.5441  -14.6669   15.5722 C   0  0  0  0  0  0  0  0  0  0  0  0
  -21.1136  -19.0948   17.7253 C   0  0  0  0  0  0  0  0  0  0  0  0
  -21.7486  -16.7016   17.3545 C   0  0  0  0  0  0  0  0  0  0  0  0
  -21.5567  -18.2546   15.4118 C   0  0  0  0  0  0  0  0  0  0  0  0
  -30.0410  -21.0671   24.4946 C   0  0  0  0  0  0  0  0  0  0  0  0
  -28.2762  -17.2313   16.2319 C   0  0  0  0  0  0  0  0  0  0  0  0
  -28.1832  -19.3967   24.4121 C   0  0  0  0  0  0  0  0  0  0  0  0
  -27.1982  -19.7054   23.2970 C   0  0  0  0  0  0  0  0  0  1  0  0
  -23.5142  -18.4862   16.9952 C   0  0  1  0  0  0  0  0  0  0  0  0
  -26.1310  -16.0630   15.7106 C   0  0  2  0  0  0  0  0  0  0  0  0
  -21.9996  -18.1513   16.8876 C   0  0  0  0  0  0  0  0  0  0  0  0
  -25.8604  -11.5426   20.2883 N   0  0  0  0  0  0  0  0  0  0  0  0
  -26.2391  -12.8256   20.1598 N   0  0  0  0  0  0  0  0  0  0  0  0
  -24.4068  -20.7276   17.5458 N   0  0  0  0  0  0  0  0  0  0  0  0
  -29.9712  -13.6078   20.3681 N   0  0  0  0  0  0  0  0  0  0  0  0
  -25.4757  -15.0542   20.4068 N   0  0  0  0  0  0  0  0  0  0  0  0
  -21.8866  -12.5852   21.5981 N   0  0  0  0  0  0  0  0  0  0  0  0
  -30.0844  -15.6872   21.4752 N   0  0  0  0  0  0  0  0  0  0  0  0
  -22.9149  -23.9464   17.1673 N   0  0  0  0  0  0  0  0  0  0  0  0
  -24.3750  -17.6258   16.1908 N   0  0  0  0  0  0  0  0  0  0  0  0
  -29.5197  -19.7840   24.0225 N   0  0  3  0  0  0  0  0  0  0  0  0
  -27.5678  -15.9339   16.0847 N   0  3  0  0  0  0  0  0  0  0  0  0
  -22.6654  -14.7239   21.3180 O   0  0  0  0  0  0  0  0  0  0  0  0
  -22.8513  -22.3899   18.8981 O   0  0  0  0  0  0  0  0  0  0  0  0
  -23.5585  -20.2630   15.4243 O   0  0  0  0  0  0  0  0  0  0  0  0
  -25.6674  -16.8431   17.9498 O   0  0  0  0  0  0  0  0  0  0  0  0
  -31.8605  -14.9280   20.1903 O   0  0  0  0  0  0  0  0  0  0  0  0
  -21.6055   -7.0225   21.7075 O   0  0  0  0  0  0  0  0  0  0  0  0
  -27.2072  -21.1070   23.0292 O   0  0  0  0  0  0  0  0  0  1  0  0
  -16.4401   -6.8447   19.7864 F   0  0  0  0  0  0  0  0  0  0  0  0
  -20.8252   -5.0671   19.9158 F   0  0  0  0  0  0  0  0  0  0  0  0
  1  2  1  0  0  0  0
  1  6  2  0  0  0  0
  2  7  2  0  0  0  0
  3  9  1  0  0  0  0
  3 10  2  0  0  0  0
  4 11  2  0  0  0  0
  4 19  1  0  0  0  0
  5 12  1  0  0  0  0
  5 19  2  0  0  0  0
  6 21  1  0  0  0  0
  7 23  1  0  0  0  0
  8 13  2  0  0  0  0
  8 22  1  0  0  0  0
  9 25  2  0  0  0  0
 10 26  1  0  0  0  0
 11 27  1  0  0  0  0
 12 27  2  0  0  0  0
 13 28  1  0  0  0  0
 14 15  2  0  0  0  0
 14 29  1  0  0  0  0
 15 30  1  0  0  0  0
 16 24  1  0  0  0  0
 16 28  2  0  0  0  0
 17 25  1  0  0  0  0
 17 26  2  0  0  0  0
 18 30  2  0  0  0  0
 18 31  1  0  0  0  0
 19 32  1  0  0  0  0
 20 32  1  0  0  0  0
 20 33  2  0  0  0  0
 20 34  1  0  0  0  0
 21 23  2  0  0  0  0
 21 39  1  0  0  0  0
 22 24  2  0  0  0  0
 22 40  1  0  0  0  0
 23 48  1  0  0  0  0
 24 41  1  0  0  0  0
 25 68  1  0  0  0  0
 26 71  1  0  0  0  0
 27 78  1  0  0  0  0
 28 79  1  0  0  0  0
 29 31  2  0  0  0  0
 29 78  1  0  0  0  0
 30 80  1  0  0  0  0
 31 81  1  0  0  0  0
 32 62  2  0  0  0  0
 33 63  1  0  0  0  0
 33 66  1  0  0  0  0
 34 67  1  0  0  0  0
 34 73  2  0  0  0  0
 35 49  1  0  0  0  0
 35 69  1  0  0  0  0
 35 74  2  0  0  0  0
 36 59  1  0  0  0  0
 36 64  1  0  0  0  0
 36 75  2  0  0  0  0
 37 60  1  0  0  0  0
 37 70  1  0  0  0  0
 37 76  2  0  0  0  0
 38 65  1  0  0  0  0
 38 68  1  0  0  0  0
 38 77  2  0  0  0  0
 39 42  1  0  0  0  0
 40 49  1  0  0  0  0
 41 64  1  0  0  0  0
 42 44  1  0  0  0  0
 43 45  1  0  0  0  0
 43 46  1  0  0  0  0
 44 48  1  0  0  0  0
 45 50  1  0  0  0  0
 46 65  1  0  0  0  0
 47 50  1  0  0  0  0
 47 65  1  0  0  0  0
 48 69  1  0  0  0  0
 49 64  1  0  0  0  0
 50 63  1  0  0  0  0
 51 60  1  0  0  0  0
 52 61  1  0  0  0  0
 53 61  1  0  0  0  0
 54 61  1  0  0  0  0
 55 71  1  0  0  0  0
 56 72  1  0  0  0  0
 57 58  1  0  0  0  0
 57 71  1  0  0  0  0
 58 79  1  0  0  0  0
 59 61  1  0  0  0  0
 59 70  1  0  0  0  0
 60 72  1  0  0  0  0
 62 63  1  0  0  0  0
M  CHG  1  72   1
M  ISO  4  38 100  58 101  68 100  79 101
M  END
> <Batch ID>
0016

> <Smiles>
CNC(C)C(=O)NC(C(=O)N1Cc2cc([101O:1][101CH2:1]CN(C)c3cccc([100NH:0][100C:0](=O)N4CCCC(n5nc(-c6ccc(Oc7ccc(F)cc7F)cc6)c(C(N)=O)c5N)C4)c3)ccc2CC1C(=O)NC1CCCc2ccccc21)C(C)(C)C

> <Shape>
0.162

> <Color>
0.200

> <Negative vol penalty>
0.000

$$$$

  -OEChem-04042320573D

 85 93  0     1  0  0  0  0  0999 V2000
  -34.1083  -31.6303   17.6705 C   0  0  0  0  0  0  0  0  0  0  0  0
  -34.0274  -30.2697   17.9492 C   0  0  0  0  0  0  0  0  0  0  0  0
  -23.1790   -9.8002   19.8810 C   0  0  0  0  0  0  0  0  0  0  0  0
  -23.5904   -9.8630   22.2608 C   0  0  0  0  0  0  0  0  0  0  0  0
  -33.0023  -32.4517   17.8853 C   0  0  0  0  0  0  0  0  0  0  0  0
  -32.8407  -29.7299   18.4439 C   0  0  0  0  0  0  0  0  0  0  0  0
  -30.5522  -24.1725   17.2672 C   0  0  0  0  0  0  0  0  0  0  0  0
  -30.5565  -15.6363   21.9145 C   0  0  0  0  0  0  0  0  0  0  0  0
  -31.0282  -16.9475   21.8528 C   0  0  0  0  0  0  0  0  0  0  0  0
  -22.4194   -8.6416   20.0428 C   0  0  0  0  0  0  0  0  0  0  0  0
  -22.8308   -8.7044   22.4227 C   0  0  0  0  0  0  0  0  0  0  0  0
  -30.5867  -22.9740   17.9786 C   0  0  0  0  0  0  0  0  0  0  0  0
  -23.2388   -5.3767   21.9861 C   0  0  0  0  0  0  0  0  0  0  0  0
  -23.7527   -4.3746   22.8092 C   0  0  0  0  0  0  0  0  0  0  0  0
  -28.4172  -23.4708   18.9090 C   0  0  0  0  0  0  0  0  0  0  0  0
  -31.1884  -17.0032   24.2629 C   0  0  0  0  0  0  0  0  0  0  0  0
  -21.8153   -4.5571   24.2410 C   0  0  0  0  0  0  0  0  0  0  0  0
  -23.7645  -10.4109   20.9900 C   0  0  0  0  0  0  0  0  0  0  0  0
  -24.0917  -12.9379   20.8676 C   0  0  0  0  0  0  0  0  0  0  0  0
  -31.7985  -31.9200   18.3738 C   0  0  0  0  0  0  0  0  0  0  0  0
  -29.4529  -25.0358   17.3800 C   0  0  0  0  0  0  0  0  0  0  0  0
  -31.7180  -30.5452   18.6667 C   0  0  0  0  0  0  0  0  0  0  0  0
  -28.3700  -24.6784   18.1960 C   0  0  0  0  0  0  0  0  0  0  0  0
  -30.4007  -15.0085   23.1503 C   0  0  0  0  0  0  0  0  0  0  0  0
  -31.3442  -17.6309   23.0270 C   0  0  0  0  0  0  0  0  0  0  0  0
  -22.2453   -8.0937   21.3137 C   0  0  0  0  0  0  0  0  0  0  0  0
  -29.5204  -22.6243   18.8019 C   0  0  0  0  0  0  0  0  0  0  0  0
  -22.0132   -5.9690   22.2906 C   0  0  0  0  0  0  0  0  0  0  0  0
  -23.0409   -3.9648   23.9366 C   0  0  0  0  0  0  0  0  0  0  0  0
  -30.7167  -15.6919   24.3245 C   0  0  0  0  0  0  0  0  0  0  0  0
  -21.3014   -5.5592   23.4180 C   0  0  0  0  0  0  0  0  0  0  0  0
  -24.5498  -11.6075   20.8233 C   0  0  0  0  0  0  0  0  0  0  0  0
  -25.2170  -13.6958   20.6539 C   0  0  0  0  0  0  0  0  0  0  0  0
  -22.7674  -13.4435   21.0827 C   0  0  0  0  0  0  0  0  0  0  0  0
  -29.0370  -28.0161   18.4038 C   0  0  0  0  0  0  0  0  0  0  0  0
  -26.0212  -27.5606   17.2992 C   0  0  0  0  0  0  0  0  0  0  0  0
  -23.5293  -25.3711   16.4974 C   0  0  0  0  0  0  0  0  0  0  0  0
  -31.0783  -12.1383   21.5247 C   0  0  0  0  0  0  0  0  0  0  0  0
  -30.6446  -32.8555   18.6347 C   0  0  0  0  0  0  0  0  0  0  0  0
  -29.4191  -26.3123   16.5852 C   0  0  0  0  0  0  0  0  0  0  0  0
  -27.1574  -25.5607   18.3359 C   0  0  0  0  0  0  0  0  0  0  0  0
  -29.3073  -32.1400   18.8069 C   0  0  0  0  0  0  0  0  0  0  0  0
  -29.4826  -13.5632   18.5039 C   0  0  0  0  0  0  0  0  0  0  0  0
  -29.4565  -30.9486   19.7478 C   0  0  0  0  0  0  0  0  0  0  0  0
  -28.0023  -13.2663   18.7377 C   0  0  0  0  0  0  0  0  0  0  0  0
  -30.3817  -12.5400   19.1913 C   0  0  0  0  0  0  0  0  0  0  0  0
  -28.6338  -12.0876   20.8807 C   0  0  0  0  0  0  0  0  0  0  0  0
  -30.4404  -29.9180   19.1811 C   0  0  1  0  0  0  0  0  0  0  0  0
  -28.4774  -27.3581   17.1743 C   0  0  1  0  0  0  0  0  0  0  0  0
  -27.7014  -13.1268   20.2401 C   0  0  2  0  0  0  0  0  0  0  0  0
  -21.1660  -25.2983   15.6565 C   0  0  0  0  0  0  0  0  0  0  0  0
  -25.0182  -28.4160   20.0509 C   0  0  0  0  0  0  0  0  0  0  0  0
  -22.7915  -27.4305   19.4687 C   0  0  0  0  0  0  0  0  0  0  0  0
  -23.7016  -29.3289   18.1305 C   0  0  0  0  0  0  0  0  0  0  0  0
  -32.1502  -19.6659   24.1972 C   0  0  0  0  0  0  0  0  0  0  0  0
  -31.9631  -12.4003   23.8112 C   0  0  0  0  0  0  0  0  0  0  0  0
  -24.3100  -23.8345   14.0916 C   0  0  0  0  0  0  0  0  0  0  0  0
  -29.8960  -13.6064   23.2127 C   0  0  0  0  0  0  0  0  0  0  0  0
  -30.6877  -20.2039   21.2017 C   0  0  0  0  0  0  0  0  0  0  0  0
  -32.0047  -19.6231   21.7021 C   0  0  0  0  0  0  0  0  0  0  0  0
  -30.8341  -20.9677   19.8909 C   0  0  0  0  0  0  0  0  0  1  0  0
  -24.7350  -27.0341   17.8885 C   0  0  1  0  0  0  0  0  0  0  0  0
  -22.6374  -25.2642   15.2736 C   0  0  2  0  0  0  0  0  0  0  0  0
  -24.0851  -28.0365   18.8837 C   0  0  0  0  0  0  0  0  0  0  0  0
  -25.8636  -11.5217   20.5990 N   0  0  0  0  0  0  0  0  0  0  0  0
  -26.2408  -12.8078   20.5002 N   0  0  0  0  0  0  0  0  0  0  0  0
  -27.1744  -26.8014   17.5435 N   0  0  0  0  0  0  0  0  0  0  0  0
  -30.0456  -12.3958   20.6081 N   0  0  0  0  0  0  0  0  0  0  0  0
  -25.4208  -15.0285   20.5842 N   0  0  0  0  0  0  0  0  0  0  0  0
  -21.7270  -12.5266   21.2860 N   0  0  0  0  0  0  0  0  0  0  0  0
  -29.8077  -29.1330   18.1428 N   0  0  0  0  0  0  0  0  0  0  0  0
  -23.8840  -26.6777   16.7583 N   0  0  0  0  0  0  0  0  0  0  0  0
  -31.8187  -18.9490   22.9644 N   0  0  3  0  0  0  0  0  0  0  0  0
  -30.9145  -12.6318   22.8279 N   0  0  0  0  0  0  0  0  0  0  0  0
  -22.9048  -23.9904   14.5476 N   0  3  0  0  0  0  0  0  0  0  0  0
  -22.5113  -14.6714   21.0780 O   0  0  0  0  0  0  0  0  0  0  0  0
  -28.7867  -27.5463   19.5075 O   0  0  0  0  0  0  0  0  0  0  0  0
  -26.0023  -28.6032   16.6401 O   0  0  0  0  0  0  0  0  0  0  0  0
  -23.8735  -24.3936   17.1582 O   0  0  0  0  0  0  0  0  0  0  0  0
  -32.0933  -11.5117   21.1943 O   0  0  0  0  0  0  0  0  0  0  0  0
  -21.5040   -6.9632   21.4721 O   0  0  0  0  0  0  0  0  0  0  0  0
  -29.5519  -21.4554   19.4979 O   0  0  0  0  0  0  0  0  0  1  0  0
  -23.5338   -3.0014   24.7260 F   0  0  0  0  0  0  0  0  0  0  0  0
  -30.5691  -15.0974   25.5168 F   0  0  0  0  0  0  0  0  0  0  0  0
  -20.1229   -6.1237   23.7149 F   0  0  0  0  0  0  0  0  0  0  0  0
  1  2  1  0  0  0  0
  1  5  2  0  0  0  0
  2  6  2  0  0  0  0
  3 10  2  0  0  0  0
  3 18  1  0  0  0  0
  4 11  1  0  0  0  0
  4 18  2  0  0  0  0
  5 20  1  0  0  0  0
  6 22  1  0  0  0  0
  7 12  2  0  0  0  0
  7 21  1  0  0  0  0
  8  9  2  0  0  0  0
  8 24  1  0  0  0  0
  9 25  1  0  0  0  0
 10 26  1  0  0  0  0
 11 26  2  0  0  0  0
 12 27  1  0  0  0  0
 13 14  2  0  0  0  0
 13 28  1  0  0  0  0
 14 29  1  0  0  0  0
 15 23  1  0  0  0  0
 15 27  2  0  0  0  0
 16 25  2  0  0  0  0
 16 30  1  0  0  0  0
 17 29  2  0  0  0  0
 17 31  1  0  0  0  0
 18 32  1  0  0  0  0
 19 32  1  0  0  0  0
 19 33  2  0  0  0  0
 19 34  1  0  0  0  0
 20 22  2  0  0  0  0
 20 39  1  0  0  0  0
 21 23  2  0  0  0  0
 21 40  1  0  0  0  0
 22 48  1  0  0  0  0
 23 41  1  0  0  0  0
 24 30  2  0  0  0  0
 24 58  1  0  0  0  0
 25 73  1  0  0  0  0
 26 81  1  0  0  0  0
 27 82  1  0  0  0  0
 28 31  2  0  0  0  0
 28 81  1  0  0  0  0
 29 83  1  0  0  0  0
 30 84  1  0  0  0  0
 31 85  1  0  0  0  0
 32 65  2  0  0  0  0
 33 66  1  0  0  0  0
 33 69  1  0  0  0  0
 34 70  1  0  0  0  0
 34 76  2  0  0  0  0
 35 49  1  0  0  0  0
 35 71  1  0  0  0  0
 35 77  2  0  0  0  0
 36 62  1  0  0  0  0
 36 67  1  0  0  0  0
 36 78  2  0  0  0  0
 37 63  1  0  0  0  0
 37 72  1  0  0  0  0
 37 79  2  0  0  0  0
 38 68  1  0  0  0  0
 38 74  1  0  0  0  0
 38 80  2  0  0  0  0
 39 42  1  0  0  0  0
 40 49  1  0  0  0  0
 41 67  1  0  0  0  0
 42 44  1  0  0  0  0
 43 45  1  0  0  0  0
 43 46  1  0  0  0  0
 44 48  1  0  0  0  0
 45 50  1  0  0  0  0
 46 68  1  0  0  0  0
 47 50  1  0  0  0  0
 47 68  1  0  0  0  0
 48 71  1  0  0  0  0
 49 67  1  0  0  0  0
 50 66  1  0  0  0  0
 51 63  1  0  0  0  0
 52 64  1  0  0  0  0
 53 64  1  0  0  0  0
 54 64  1  0  0  0  0
 55 73  1  0  0  0  0
 56 74  1  0  0  0  0
 57 75  1  0  0  0  0
 58 74  1  0  0  0  0
 59 60  1  0  0  0  0
 59 61  1  0  0  0  0
 60 73  1  0  0  0  0
 61 82  1  0  0  0  0
 62 64  1  0  0  0  0
 62 72  1  0  0  0  0
 63 75  1  0  0  0  0
 65 66  1  0  0  0  0
M  CHG  1  75   1
M  ISO  4  38 100  61 101  74 100  82 101
M  END
> <Batch ID>
0016

> <Smiles>
CNC(C)C(=O)NC(C(=O)N1Cc2cc([101O:1][101CH2:1]CCN(C)c3ccc(C[100N:0](C)[100C:0](=O)N4CCCC(n5nc(-c6ccc(Oc7ccc(F)cc7F)cc6)c(C(N)=O)c5N)C4)c(F)c3)ccc2CC1C(=O)NC1CCCc2ccccc21)C(C)(C)C

> <Shape>
0.238

> <Color>
0.207

> <Negative vol penalty>
0.000

$$$$

  -OEChem-04042320573D

 81 89  0     1  0  0  0  0  0999 V2000
  -16.5674  -29.6096   24.2249 C   0  0  0  0  0  0  0  0  0  0  0  0
  -17.3613  -28.4723   24.1158 C   0  0  0  0  0  0  0  0  0  0  0  0
  -23.0843  -15.8619   22.1463 C   0  0  0  0  0  0  0  0  0  0  0  0
  -22.2563  -15.3288   19.9401 C   0  0  0  0  0  0  0  0  0  0  0  0
  -28.5582  -19.1256   22.1553 C   0  0  0  0  0  0  0  0  0  0  0  0
  -29.3638  -19.2883   19.8834 C   0  0  0  0  0  0  0  0  0  0  0  0
  -16.9111  -30.7676   23.5285 C   0  0  0  0  0  0  0  0  0  0  0  0
  -18.4987  -28.4921   23.3094 C   0  0  0  0  0  0  0  0  0  0  0  0
  -23.7785  -25.5576   24.3186 C   0  0  0  0  0  0  0  0  0  0  0  0
  -29.1784  -17.8831   22.2862 C   0  0  0  0  0  0  0  0  0  0  0  0
  -29.9841  -18.0458   20.0143 C   0  0  0  0  0  0  0  0  0  0  0  0
  -22.0206  -16.7448   22.3321 C   0  0  0  0  0  0  0  0  0  0  0  0
  -21.1925  -16.2117   20.1260 C   0  0  0  0  0  0  0  0  0  0  0  0
  -24.2939  -24.3586   23.8282 C   0  0  0  0  0  0  0  0  0  0  0  0
  -19.7211  -19.4093   23.2468 C   0  0  0  0  0  0  0  0  0  0  0  0
  -20.0030  -20.6604   23.7952 C   0  0  0  0  0  0  0  0  0  0  0  0
  -25.5054  -25.5785   22.1361 C   0  0  0  0  0  0  0  0  0  0  0  0
  -21.4787  -21.1396   21.9432 C   0  0  0  0  0  0  0  0  0  0  0  0
  -23.2022  -15.1539   20.9502 C   0  0  0  0  0  0  0  0  0  0  0  0
  -28.6509  -19.8282   20.9538 C   0  0  0  0  0  0  0  0  0  0  0  0
  -24.3342  -12.8713   21.0759 C   0  0  0  0  0  0  0  0  0  0  0  0
  -18.0586  -30.8045   22.7208 C   0  0  0  0  0  0  0  0  0  0  0  0
  -24.1147  -26.7772   23.7137 C   0  0  0  0  0  0  0  0  0  0  0  0
  -18.8573  -29.6513   22.6006 C   0  0  0  0  0  0  0  0  0  0  0  0
  -24.9950  -26.7918   22.6224 C   0  0  0  0  0  0  0  0  0  0  0  0
  -29.8913  -17.3432   21.2157 C   0  0  0  0  0  0  0  0  0  0  0  0
  -21.0747  -16.9197   21.3220 C   0  0  0  0  0  0  0  0  0  0  0  0
  -25.1552  -24.3687   22.7349 C   0  0  0  0  0  0  0  0  0  0  0  0
  -20.3180  -19.0232   22.0467 C   0  0  0  0  0  0  0  0  0  0  0  0
  -20.8818  -21.5256   23.1434 C   0  0  0  0  0  0  0  0  0  0  0  0
  -21.1968  -19.8884   21.3949 C   0  0  0  0  0  0  0  0  0  0  0  0
  -24.3011  -14.2422   20.7573 C   0  0  0  0  0  0  0  0  0  0  0  0
  -25.5910  -12.4622   20.7022 C   0  0  0  0  0  0  0  0  0  0  0  0
  -27.9973  -21.1404   20.8150 C   0  0  0  0  0  0  0  0  0  0  0  0
  -27.6221  -21.9299   21.8334 C   0  0  0  0  0  0  0  0  0  0  0  0
  -23.3197  -12.0419   21.6576 C   0  0  0  0  0  0  0  0  0  0  0  0
  -22.4871  -29.0686   22.2291 C   0  0  0  0  0  0  0  0  0  0  0  0
  -25.3567  -30.5810   22.2486 C   0  0  0  0  0  0  0  0  0  0  0  0
  -28.7576  -30.3402   22.3987 C   0  0  0  0  0  0  0  0  0  0  0  0
  -30.7080  -15.2047   20.2405 C   0  0  0  0  0  0  0  0  0  0  0  0
  -18.3635  -32.0645   21.9500 C   0  0  0  0  0  0  0  0  0  0  0  0
  -23.5715  -28.0642   24.2714 C   0  0  0  0  0  0  0  0  0  0  0  0
  -25.4032  -28.0762   21.9499 C   0  0  0  0  0  0  0  0  0  0  0  0
  -19.7911  -32.1192   21.4122 C   0  0  0  0  0  0  0  0  0  0  0  0
  -29.0918  -13.4478   17.6053 C   0  0  0  0  0  0  0  0  0  0  0  0
  -20.1625  -30.7969   20.7486 C   0  0  0  0  0  0  0  0  0  0  0  0
  -27.6683  -13.3285   18.1484 C   0  0  0  0  0  0  0  0  0  0  0  0
  -29.7160  -14.8056   17.9289 C   0  0  0  0  0  0  0  0  0  0  0  0
  -28.2522  -15.0387   19.9106 C   0  0  0  0  0  0  0  0  0  0  0  0
  -20.1125  -29.6412   21.7554 C   0  0  1  0  0  0  0  0  0  0  0  0
  -23.5747  -29.2036   23.2570 C   0  0  1  0  0  0  0  0  0  0  0  0
  -27.6203  -13.6625   19.6499 C   0  0  1  0  0  0  0  0  0  0  0  0
  -30.8359  -31.7459   22.3541 C   0  0  0  0  0  0  0  0  0  0  0  0
  -25.0503  -30.9339   19.2334 C   0  0  0  0  0  0  0  0  0  0  0  0
  -27.4958  -31.4574   19.1164 C   0  0  0  0  0  0  0  0  0  0  0  0
  -25.9685  -32.9292   20.4293 C   0  0  0  0  0  0  0  0  0  0  0  0
  -31.2260  -15.7507   22.6088 C   0  0  0  0  0  0  0  0  0  0  0  0
  -29.5593  -29.4472   25.1040 C   0  0  0  0  0  0  0  0  0  0  0  0
  -26.9477  -23.2506   21.6428 C   0  0  0  0  0  0  0  0  0  1  0  0
  -26.5440  -30.6332   21.3177 C   0  0  1  0  0  0  0  0  0  0  0  0
  -29.7844  -31.0855   23.2321 C   0  0  2  0  0  0  0  0  0  0  0  0
  -26.2556  -31.4639   20.0355 C   0  0  0  0  0  0  0  0  0  0  0  0
  -25.4459  -14.6751   20.2225 N   0  0  0  0  0  0  0  0  0  0  0  0
  -26.2102  -13.5698   20.2023 N   0  0  0  0  0  0  0  0  0  0  0  0
  -24.8405  -29.3077   22.5281 N   0  0  0  0  0  0  0  0  0  0  0  0
  -29.6105  -15.0985   19.3653 N   0  0  0  0  0  0  0  0  0  0  0  0
  -26.2158  -11.2668   20.7558 N   0  0  0  0  0  0  0  0  0  0  0  0
  -22.0859  -12.6229   21.9811 N   0  0  0  0  0  0  0  0  0  0  0  0
  -21.2899  -29.6526   22.5968 N   0  0  0  0  0  0  0  0  0  0  0  0
  -27.6635  -31.1285   22.1114 N   0  0  0  0  0  0  0  0  0  0  0  0
  -30.5353  -16.0579   21.3516 N   0  0  0  0  0  0  0  0  0  0  0  0
  -30.4722  -30.1492   24.1655 N   0  3  0  0  0  0  0  0  0  0  0  0
  -23.5075  -10.8253   21.8990 O   0  0  0  0  0  0  0  0  0  0  0  0
  -22.7174  -28.4796   21.1795 O   0  0  0  0  0  0  0  0  0  0  0  0
  -24.9084  -31.6307   22.7164 O   0  0  0  0  0  0  0  0  0  0  0  0
  -28.9125  -29.1763   22.0355 O   0  0  0  0  0  0  0  0  0  0  0  0
  -31.7517  -14.5666   20.0580 O   0  0  0  0  0  0  0  0  0  0  0  0
  -20.0365  -17.7810   21.5032 O   0  0  0  0  0  0  0  0  0  0  0  0
  -25.6591  -23.1997   22.2538 O   0  0  0  0  0  0  0  0  0  1  0  0
  -21.1512  -22.7277   23.6693 F   0  0  0  0  0  0  0  0  0  0  0  0
  -21.7724  -19.5235   20.2410 F   0  0  0  0  0  0  0  0  0  0  0  0
  1  2  1  0  0  0  0
  1  7  2  0  0  0  0
  2  8  2  0  0  0  0
  3 12  2  0  0  0  0
  3 19  1  0  0  0  0
  4 13  1  0  0  0  0
  4 19  2  0  0  0  0
  5 10  2  0  0  0  0
  5 20  1  0  0  0  0
  6 11  1  0  0  0  0
  6 20  2  0  0  0  0
  7 22  1  0  0  0  0
  8 24  1  0  0  0  0
  9 14  2  0  0  0  0
  9 23  1  0  0  0  0
 10 26  1  0  0  0  0
 11 26  2  0  0  0  0
 12 27  1  0  0  0  0
 13 27  2  0  0  0  0
 14 28  1  0  0  0  0
 15 16  2  0  0  0  0
 15 29  1  0  0  0  0
 16 30  1  0  0  0  0
 17 25  1  0  0  0  0
 17 28  2  0  0  0  0
 18 30  2  0  0  0  0
 18 31  1  0  0  0  0
 19 32  1  0  0  0  0
 20 34  1  0  0  0  0
 21 32  1  0  0  0  0
 21 33  2  0  0  0  0
 21 36  1  0  0  0  0
 22 24  2  0  0  0  0
 22 41  1  0  0  0  0
 23 25  2  0  0  0  0
 23 42  1  0  0  0  0
 24 50  1  0  0  0  0
 25 43  1  0  0  0  0
 26 71  1  0  0  0  0
 27 78  1  0  0  0  0
 28 79  1  0  0  0  0
 29 31  2  0  0  0  0
 29 78  1  0  0  0  0
 30 80  1  0  0  0  0
 31 81  1  0  0  0  0
 32 63  2  0  0  0  0
 33 64  1  0  0  0  0
 33 67  1  0  0  0  0
 34 35  2  0  0  0  0
 35 59  1  0  0  0  0
 36 68  1  0  0  0  0
 36 73  2  0  0  0  0
 37 51  1  0  0  0  0
 37 69  1  0  0  0  0
 37 74  2  0  0  0  0
 38 60  1  0  0  0  0
 38 65  1  0  0  0  0
 38 75  2  0  0  0  0
 39 61  1  0  0  0  0
 39 70  1  0  0  0  0
 39 76  2  0  0  0  0
 40 66  1  0  0  0  0
 40 71  1  0  0  0  0
 40 77  2  0  0  0  0
 41 44  1  0  0  0  0
 42 51  1  0  0  0  0
 43 65  1  0  0  0  0
 44 46  1  0  0  0  0
 45 47  1  0  0  0  0
 45 48  1  0  0  0  0
 46 50  1  0  0  0  0
 47 52  1  0  0  0  0
 48 66  1  0  0  0  0
 49 52  1  0  0  0  0
 49 66  1  0  0  0  0
 50 69  1  0  0  0  0
 51 65  1  0  0  0  0
 52 64  1  0  0  0  0
 53 61  1  0  0  0  0
 54 62  1  0  0  0  0
 55 62  1  0  0  0  0
 56 62  1  0  0  0  0
 57 71  1  0  0  0  0
 58 72  1  0  0  0  0
 59 79  1  0  0  0  0
 60 62  1  0  0  0  0
 60 70  1  0  0  0  0
 61 72  1  0  0  0  0
 63 64  1  0  0  0  0
M  CHG  1  72   1
M  ISO  4  40 100  59 101  71 100  79 101
M  END
> <Batch ID>
0016

> <Smiles>
CNC(C)C(=O)NC(C(=O)N1Cc2cc([101O:1][101CH2:1]C=Cc3ccc([100N:0](C)[100C:0](=O)N4CCCC(n5nc(-c6ccc(Oc7ccc(F)cc7F)cc6)c(C(N)=O)c5N)C4)cc3)ccc2CC1C(=O)NC1CCCc2ccccc21)C(C)(C)C

> <Shape>
0.234

> <Color>
0.122

> <Negative vol penalty>
0.000

$$$$

  -OEChem-04042320573D

 92101  0     1  0  0  0  0  0999 V2000
  -29.8765  -34.9719   21.7382 C   0  0  0  0  0  0  0  0  0  0  0  0
  -29.4295  -33.6599   21.8570 C   0  0  0  0  0  0  0  0  0  0  0  0
  -24.7535   -8.9164   21.7452 C   0  0  0  0  0  0  0  0  0  0  0  0
  -23.1693  -10.2058   20.4550 C   0  0  0  0  0  0  0  0  0  0  0  0
  -29.3528  -35.9633   22.5669 C   0  0  0  0  0  0  0  0  0  0  0  0
  -28.4591  -33.3383   22.8054 C   0  0  0  0  0  0  0  0  0  0  0  0
  -24.8463  -30.3187   20.9415 C   0  0  0  0  0  0  0  0  0  0  0  0
  -23.7068   -8.3829   22.4972 C   0  0  0  0  0  0  0  0  0  0  0  0
  -22.1226   -9.6723   21.2070 C   0  0  0  0  0  0  0  0  0  0  0  0
  -25.1538  -28.9654   20.8079 C   0  0  0  0  0  0  0  0  0  0  0  0
  -21.4218   -6.4066   24.5191 C   0  0  0  0  0  0  0  0  0  0  0  0
  -21.4357   -5.0341   24.7676 C   0  0  0  0  0  0  0  0  0  0  0  0
  -23.9692  -28.5000   22.8571 C   0  0  0  0  0  0  0  0  0  0  0  0
  -24.1175  -18.9190   17.7226 C   0  0  0  0  0  0  0  0  0  0  0  0
  -26.4518  -19.0079   19.2476 C   0  0  0  0  0  0  0  0  0  0  0  0
  -21.3716   -4.6031   22.3912 C   0  0  0  0  0  0  0  0  0  0  0  0
  -24.4847   -9.8279   20.7241 C   0  0  0  0  0  0  0  0  0  0  0  0
  -26.1100   -9.8591   18.7581 C   0  0  0  0  0  0  0  0  0  0  0  0
  -28.3686  -35.6555   23.5194 C   0  0  0  0  0  0  0  0  0  0  0  0
  -24.1059  -30.7751   22.0415 C   0  0  0  0  0  0  0  0  0  0  0  0
  -27.9227  -34.3263   23.6486 C   0  0  0  0  0  0  0  0  0  0  0  0
  -23.6514  -29.8592   23.0010 C   0  0  0  0  0  0  0  0  0  0  0  0
  -24.8713  -17.7608   17.9121 C   0  0  0  0  0  0  0  0  0  0  0  0
  -26.0384  -17.8052   18.6746 C   0  0  0  0  0  0  0  0  0  0  0  0
  -25.6981  -20.1662   19.0581 C   0  0  0  0  0  0  0  0  0  0  0  0
  -22.3914   -8.7608   22.2281 C   0  0  0  0  0  0  0  0  0  0  0  0
  -24.7177  -28.0562   21.7672 C   0  0  0  0  0  0  0  0  0  0  0  0
  -21.3828   -6.8773   23.2066 C   0  0  0  0  0  0  0  0  0  0  0  0
  -21.4106   -4.1324   23.7037 C   0  0  0  0  0  0  0  0  0  0  0  0
  -24.5310  -20.1218   18.2955 C   0  0  0  0  0  0  0  0  0  0  0  0
  -21.3577   -5.9756   22.1427 C   0  0  0  0  0  0  0  0  0  0  0  0
  -25.5655  -10.3798   19.9474 C   0  0  0  0  0  0  0  0  0  0  0  0
  -27.1045  -10.7439   18.4196 C   0  0  0  0  0  0  0  0  0  0  0  0
  -25.8857  -14.9394   15.9514 C   0  0  0  0  0  0  0  0  0  0  0  0
  -25.6158  -23.7970   19.9742 C   0  0  0  0  0  0  0  0  0  0  0  0
  -24.7727  -24.7840   20.3070 C   0  0  0  0  0  0  0  0  0  0  0  0
  -25.7489   -8.6811   18.0249 C   0  0  0  0  0  0  0  0  0  0  0  0
  -25.1644  -22.3746   20.0252 C   0  0  0  0  0  0  0  0  0  0  0  0
  -24.6648  -32.7765   24.4468 C   0  0  0  0  0  0  0  0  0  0  0  0
  -21.5300  -32.2542   25.0968 C   0  0  0  0  0  0  0  0  0  0  0  0
  -18.8120  -30.2112   24.8050 C   0  0  0  0  0  0  0  0  0  0  0  0
  -27.9995  -16.5306   19.6106 C   0  0  0  0  0  0  0  0  0  0  0  0
  -27.8666  -36.7522   24.4249 C   0  0  0  0  0  0  0  0  0  0  0  0
  -23.7597  -32.2342   22.1572 C   0  0  0  0  0  0  0  0  0  0  0  0
  -22.8361  -30.2953   24.1900 C   0  0  0  0  0  0  0  0  0  0  0  0
  -26.4382  -14.9486   14.5453 C   0  0  0  0  0  0  0  0  0  0  0  0
  -26.5703  -36.3983   25.1492 C   0  0  0  0  0  0  0  0  0  0  0  0
  -26.3739  -16.4195   14.1516 C   0  0  0  0  0  0  0  0  0  0  0  0
  -30.1939  -13.8342   20.3793 C   0  0  0  0  0  0  0  0  0  0  0  0
  -26.6569  -34.9967   25.7447 C   0  0  0  0  0  0  0  0  0  0  0  0
  -29.3071  -12.5945   20.2416 C   0  0  0  0  0  0  0  0  0  0  0  0
  -25.1920  -16.9546   14.9350 C   0  0  0  0  0  0  0  0  0  0  0  0
  -29.4276  -15.0170   20.9687 C   0  0  0  0  0  0  0  0  0  0  0  0
  -27.2910  -14.1149   20.1378 C   0  0  0  0  0  0  0  0  0  0  0  0
  -26.8535  -33.9427   24.6484 C   0  0  1  0  0  0  0  0  0  0  0  0
  -23.4386  -32.6607   23.5863 C   0  0  1  0  0  0  0  0  0  0  0  0
  -28.0016  -12.9164   19.4881 C   0  0  2  0  0  0  0  0  0  0  0  0
  -16.3994  -30.0349   25.4727 C   0  0  0  0  0  0  0  0  0  0  0  0
  -22.3721  -31.5021   27.9315 C   0  0  0  0  0  0  0  0  0  0  0  0
  -20.1221  -30.4499   28.2459 C   0  0  0  0  0  0  0  0  0  0  0  0
  -20.3006  -32.8966   27.7939 C   0  0  0  0  0  0  0  0  0  0  0  0
  -27.5685  -21.6583   19.8606 C   0  0  0  0  0  0  0  0  0  0  0  0
  -17.9143  -30.1697   21.9852 C   0  0  0  0  0  0  0  0  0  0  0  0
  -24.4045  -16.4868   17.2859 C   0  0  0  0  0  0  0  0  0  0  0  0
  -25.1620  -26.2269   20.3139 C   0  0  0  0  0  0  0  0  0  1  0  0
  -20.7627  -31.2545   25.9279 C   0  0  1  0  0  0  0  0  0  0  0  0
  -17.3763  -30.4961   24.4023 C   0  0  2  0  0  0  0  0  0  0  0  0
  -20.9064  -31.5175   27.4535 C   0  0  0  0  0  0  0  0  0  0  0  0
  -26.1646  -11.5078   20.3382 N   0  0  0  0  0  0  0  0  0  0  0  0
  -27.0959  -11.7032   19.3891 N   0  0  0  0  0  0  0  0  0  0  0  0
  -25.1851  -16.1312   16.1209 N   0  0  0  0  0  0  0  0  0  0  0  0
  -22.5288  -31.7333   24.2620 N   0  0  0  0  0  0  0  0  0  0  0  0
  -28.2053  -15.2659   20.2012 N   0  0  0  0  0  0  0  0  0  0  0  0
  -27.9769  -10.7871   17.3903 N   0  0  0  0  0  0  0  0  0  0  0  0
  -24.7042   -7.8844   18.5128 N   0  0  0  0  0  0  0  0  0  0  0  0
  -26.8177  -16.6395   18.8783 N   0  0  0  0  0  0  0  0  0  0  0  0
  -25.6014  -33.6757   23.9737 N   0  0  0  0  0  0  0  0  0  0  0  0
  -19.3874  -31.2901   25.4423 N   0  0  0  0  0  0  0  0  0  0  0  0
  -26.1305  -21.4176   19.6552 N   0  0  0  0  0  0  0  0  0  0  0  0
  -17.0459  -29.7935   23.1303 N   0  3  0  0  0  0  0  0  0  0  0  0
  -26.0132  -14.0171   16.7427 O   0  0  0  0  0  0  0  0  0  0  0  0
  -26.3463   -8.3361   16.9772 O   0  0  0  0  0  0  0  0  0  0  0  0
  -24.0136  -22.1287   20.3873 O   0  0  0  0  0  0  0  0  0  0  0  0
  -24.7541  -32.1012   25.4655 O   0  0  0  0  0  0  0  0  0  0  0  0
  -21.2487  -33.4523   25.1798 O   0  0  0  0  0  0  0  0  0  0  0  0
  -19.3663  -29.1375   24.5802 O   0  0  0  0  0  0  0  0  0  0  0  0
  -28.8247  -17.4409   19.7218 O   0  0  0  0  0  0  0  0  0  0  0  0
  -21.3698   -8.2402   22.9615 O   0  0  0  0  0  0  0  0  0  0  0  0
  -25.0171  -26.7349   21.6395 O   0  0  0  0  0  0  0  0  0  1  0  0
  -21.4255   -2.8145   23.9425 F   0  0  0  0  0  0  0  0  0  0  0  0
  -23.7986  -21.2288   18.1068 F   0  0  0  0  0  0  0  0  0  0  0  0
  -21.3213   -6.4219   20.8796 F   0  0  0  0  0  0  0  0  0  0  0  0
  1  2  1  0  0  0  0
  1  5  2  0  0  0  0
  2  6  2  0  0  0  0
  3  8  2  0  0  0  0
  3 17  1  0  0  0  0
  4  9  1  0  0  0  0
  4 17  2  0  0  0  0
  5 19  1  0  0  0  0
  6 21  1  0  0  0  0
  7 10  2  0  0  0  0
  7 20  1  0  0  0  0
  8 26  1  0  0  0  0
  9 26  2  0  0  0  0
 10 27  1  0  0  0  0
 11 12  2  0  0  0  0
 11 28  1  0  0  0  0
 12 29  1  0  0  0  0
 13 22  1  0  0  0  0
 13 27  2  0  0  0  0
 14 23  2  0  0  0  0
 14 30  1  0  0  0  0
 15 24  2  0  0  0  0
 15 25  1  0  0  0  0
 16 29  2  0  0  0  0
 16 31  1  0  0  0  0
 17 32  1  0  0  0  0
 18 32  1  0  0  0  0
 18 33  2  0  0  0  0
 18 37  1  0  0  0  0
 19 21  2  0  0  0  0
 19 43  1  0  0  0  0
 20 22  2  0  0  0  0
 20 44  1  0  0  0  0
 21 55  1  0  0  0  0
 22 45  1  0  0  0  0
 23 24  1  0  0  0  0
 23 64  1  0  0  0  0
 24 76  1  0  0  0  0
 25 30  2  0  0  0  0
 25 79  1  0  0  0  0
 26 88  1  0  0  0  0
 27 89  1  0  0  0  0
 28 31  2  0  0  0  0
 28 88  1  0  0  0  0
 29 90  1  0  0  0  0
 30 91  1  0  0  0  0
 31 92  1  0  0  0  0
 32 69  2  0  0  0  0
 33 70  1  0  0  0  0
 33 74  1  0  0  0  0
 34 46  1  0  0  0  0
 34 71  1  0  0  0  0
 34 81  2  0  0  0  0
 35 36  2  0  0  0  0
 35 38  1  0  0  0  0
 36 65  1  0  0  0  0
 37 75  1  0  0  0  0
 37 82  2  0  0  0  0
 38 79  1  0  0  0  0
 38 83  2  0  0  0  0
 39 56  1  0  0  0  0
 39 77  1  0  0  0  0
 39 84  2  0  0  0  0
 40 66  1  0  0  0  0
 40 72  1  0  0  0  0
 40 85  2  0  0  0  0
 41 67  1  0  0  0  0
 41 78  1  0  0  0  0
 41 86  2  0  0  0  0
 42 73  1  0  0  0  0
 42 76  1  0  0  0  0
 42 87  2  0  0  0  0
 43 47  1  0  0  0  0
 44 56  1  0  0  0  0
 45 72  1  0  0  0  0
 46 48  1  0  0  0  0
 47 50  1  0  0  0  0
 48 52  1  0  0  0  0
 49 51  1  0  0  0  0
 49 53  1  0  0  0  0
 50 55  1  0  0  0  0
 51 57  1  0  0  0  0
 52 71  1  0  0  0  0
 53 73  1  0  0  0  0
 54 57  1  0  0  0  0
 54 73  1  0  0  0  0
 55 77  1  0  0  0  0
 56 72  1  0  0  0  0
 57 70  1  0  0  0  0
 58 67  1  0  0  0  0
 59 68  1  0  0  0  0
 60 68  1  0  0  0  0
 61 68  1  0  0  0  0
 62 79  1  0  0  0  0
 63 80  1  0  0  0  0
 64 71  1  0  0  0  0
 65 89  1  0  0  0  0
 66 68  1  0  0  0  0
 66 78  1  0  0  0  0
 67 80  1  0  0  0  0
 69 70  1  0  0  0  0
M  CHG  1  80   1
M  ISO  4  42 100  65 101  76 100  89 101
M  END
> <Batch ID>
0016

> <Smiles>
CNC(C)C(=O)NC(C(=O)N1Cc2cc([101O:1][101CH2:1]C=CC(=O)N(C)c3cc([100NH:0][100C:0](=O)N4CCCC(n5nc(-c6ccc(Oc7ccc(F)cc7F)cc6)c(C(N)=O)c5N)C4)c(CN4CCCC4=O)cc3F)ccc2CC1C(=O)NC1CCCc2ccccc21)C(C)(C)C

> <Shape>
0.241

> <Color>
0.075

> <Negative vol penalty>
0.000

$$$$

  -OEChem-04042320573D

 87 95  0     1  0  0  0  0  0999 V2000
  -24.3737  -36.6523   16.2694 C   0  0  0  0  0  0  0  0  0  0  0  0
  -24.9715  -35.3965   16.2400 C   0  0  0  0  0  0  0  0  0  0  0  0
  -26.4051  -14.3431   21.1044 C   0  0  0  0  0  0  0  0  0  0  0  0
  -26.6719  -14.0481   18.7214 C   0  0  0  0  0  0  0  0  0  0  0  0
  -24.2541  -37.3380   17.4775 C   0  0  0  0  0  0  0  0  0  0  0  0
  -25.4511  -34.8260   17.4185 C   0  0  0  0  0  0  0  0  0  0  0  0
  -25.4497  -28.8834   18.8985 C   0  0  0  0  0  0  0  0  0  0  0  0
  -29.4863  -23.0381   19.8390 C   0  0  0  0  0  0  0  0  0  0  0  0
  -28.4553  -22.9762   20.7765 C   0  0  0  0  0  0  0  0  0  0  0  0
  -26.1176  -12.9851   21.2404 C   0  0  0  0  0  0  0  0  0  0  0  0
  -26.3844  -12.6899   18.8574 C   0  0  0  0  0  0  0  0  0  0  0  0
  -26.4363  -27.9004   18.8341 C   0  0  0  0  0  0  0  0  0  0  0  0
  -23.4745  -10.9373   20.7453 C   0  0  0  0  0  0  0  0  0  0  0  0
  -22.3945  -10.5820   21.5534 C   0  0  0  0  0  0  0  0  0  0  0  0
  -26.9689  -28.2914   21.1542 C   0  0  0  0  0  0  0  0  0  0  0  0
  -26.8414  -23.4009   19.0295 C   0  0  0  0  0  0  0  0  0  0  0  0
  -23.8769   -9.3100   22.9753 C   0  0  0  0  0  0  0  0  0  0  0  0
  -26.6822  -14.8747   19.8449 C   0  0  0  0  0  0  0  0  0  0  0  0
  -28.2448  -16.8897   19.7694 C   0  0  0  0  0  0  0  0  0  0  0  0
  -24.7237  -36.7715   18.6730 C   0  0  0  0  0  0  0  0  0  0  0  0
  -25.2222  -29.5865   20.0903 C   0  0  0  0  0  0  0  0  0  0  0  0
  -25.3389  -35.5054   18.6435 C   0  0  0  0  0  0  0  0  0  0  0  0
  -25.9770  -29.2810   21.2318 C   0  0  0  0  0  0  0  0  0  0  0  0
  -29.1949  -23.2815   18.4968 C   0  0  0  0  0  0  0  0  0  0  0  0
  -27.1329  -23.1576   20.3717 C   0  0  0  0  0  0  0  0  0  0  0  0
  -26.1073  -12.1584   20.1169 C   0  0  0  0  0  0  0  0  0  0  0  0
  -27.1981  -27.6063   19.9612 C   0  0  0  0  0  0  0  0  0  0  0  0
  -24.7557  -10.4789   21.0521 C   0  0  0  0  0  0  0  0  0  0  0  0
  -22.5957   -9.7684   22.6684 C   0  0  0  0  0  0  0  0  0  0  0  0
  -27.8724  -23.4629   18.0920 C   0  0  0  0  0  0  0  0  0  0  0  0
  -24.9569   -9.6652   22.1671 C   0  0  0  0  0  0  0  0  0  0  0  0
  -26.9787  -16.2776   19.7037 C   0  0  0  0  0  0  0  0  0  0  0  0
  -27.9909  -18.2254   19.5748 C   0  0  0  0  0  0  0  0  0  0  0  0
  -29.5349  -16.3034   19.9869 C   0  0  0  0  0  0  0  0  0  0  0  0
  -25.4198  -32.6349   20.9688 C   0  0  0  0  0  0  0  0  0  0  0  0
  -24.1378  -31.5171   23.7310 C   0  0  0  0  0  0  0  0  0  0  0  0
  -23.6367  -28.8743   25.8313 C   0  0  0  0  0  0  0  0  0  0  0  0
  -24.7640  -22.6618   21.0304 C   0  0  0  0  0  0  0  0  0  0  0  0
  -24.6148  -37.5711   19.9471 C   0  0  0  0  0  0  0  0  0  0  0  0
  -24.1361  -30.6252   20.1508 C   0  0  0  0  0  0  0  0  0  0  0  0
  -25.7584  -29.9929   22.5410 C   0  0  0  0  0  0  0  0  0  0  0  0
  -24.8112  -36.7353   21.2094 C   0  0  0  0  0  0  0  0  0  0  0  0
  -23.8175  -20.6376   18.0809 C   0  0  0  0  0  0  0  0  0  0  0  0
  -26.0295  -35.8288   21.0652 C   0  0  0  0  0  0  0  0  0  0  0  0
  -24.5966  -19.3411   18.2950 C   0  0  0  0  0  0  0  0  0  0  0  0
  -23.4742  -21.3170   19.4031 C   0  0  0  0  0  0  0  0  0  0  0  0
  -25.4469  -20.2755   20.4826 C   0  0  0  0  0  0  0  0  0  0  0  0
  -25.8491  -34.8427   19.9048 C   0  0  1  0  0  0  0  0  0  0  0  0
  -24.3388  -31.6370   21.2744 C   0  0  1  0  0  0  0  0  0  0  0  0
  -25.8399  -19.5927   19.1640 C   0  0  1  0  0  0  0  0  0  0  0  0
  -22.5851  -28.2775   28.0303 C   0  0  0  0  0  0  0  0  0  0  0  0
  -30.0432  -23.8829   14.4816 C   0  0  0  0  0  0  0  0  0  0  0  0
  -32.3060  -23.7075   15.5876 C   0  0  0  0  0  0  0  0  0  0  0  0
  -26.4623  -32.8407   25.1990 C   0  0  0  0  0  0  0  0  0  0  0  0
  -25.9019  -31.4449   27.2005 C   0  0  0  0  0  0  0  0  0  0  0  0
  -24.2421  -33.0876   26.3234 C   0  0  0  0  0  0  0  0  0  0  0  0
  -26.2754  -23.7509   22.6308 C   0  0  0  0  0  0  0  0  0  0  0  0
  -21.7901  -26.9446   24.5564 C   0  0  0  0  0  0  0  0  0  0  0  0
  -30.3066  -23.3453   17.4914 C   0  0  0  0  0  0  0  0  0  0  0  0
  -30.2238  -25.9572   18.8879 C   0  0  0  0  0  0  0  0  0  0  0  0
  -31.0218  -25.7274   17.6133 C   0  0  0  0  0  0  0  0  0  0  0  0
  -28.8030  -26.4496   18.6413 C   0  0  0  0  0  0  0  0  0  1  0  0
  -24.6942  -30.9676   25.0223 C   0  0  1  0  0  0  0  0  0  0  0  0
  -22.3874  -28.3616   26.5247 C   0  0  2  0  0  0  0  0  0  0  0  0
  -31.0392  -24.5328   15.4286 C   0  0  0  0  0  0  0  0  0  0  0  0
  -25.3308  -32.0729   25.9113 C   0  0  0  0  0  0  0  0  0  0  0  0
  -25.9937  -17.1526   19.4846 N   0  0  0  0  0  0  0  0  0  0  0  0
  -26.6407  -18.3282   19.4110 N   0  0  0  0  0  0  0  0  0  0  0  0
  -24.6890  -31.0048   22.5479 N   0  0  0  0  0  0  0  0  0  0  0  0
  -24.6582  -21.4955   20.2452 N   0  0  0  0  0  0  0  0  0  0  0  0
  -28.7930  -19.3103   19.5295 N   0  0  0  0  0  0  0  0  0  0  0  0
  -29.6163  -14.9160   20.1686 N   0  0  0  0  0  0  0  0  0  0  0  0
  -24.9757  -33.7569   20.2954 N   0  0  0  0  0  0  0  0  0  0  0  0
  -23.6016  -30.2422   25.6615 N   0  0  0  0  0  0  0  0  0  0  0  0
  -26.0668  -23.0956   21.3415 N   0  0  0  0  0  0  0  0  0  0  0  0
  -22.0352  -27.0041   26.0205 N   0  3  0  0  0  0  0  0  0  0  0  0
  -30.3881  -24.6763   16.7832 N   0  3  1  0  0  0  0  0  0  0  0  0
  -30.5827  -16.9914   20.0356 O   0  0  0  0  0  0  0  0  0  0  0  0
  -26.5712  -32.4047   21.3194 O   0  0  0  0  0  0  0  0  0  0  0  0
  -23.2422  -32.3643   23.7704 O   0  0  0  0  0  0  0  0  0  0  0  0
  -24.5537  -28.1357   25.4791 O   0  0  0  0  0  0  0  0  0  0  0  0
  -23.7669  -23.2462   21.4718 O   0  0  0  0  0  0  0  0  0  0  0  0
  -25.8270  -10.8331   20.2493 O   0  0  0  0  0  0  0  0  0  0  0  0
  -28.1622  -26.6479   19.9008 O   0  0  0  0  0  0  0  0  0  1  0  0
  -21.5588   -9.4285   23.4452 F   0  0  0  0  0  0  0  0  0  0  0  0
  -27.5824  -23.6971   16.8046 F   0  0  0  0  0  0  0  0  0  0  0  0
  -26.1856   -9.2227   22.4676 F   0  0  0  0  0  0  0  0  0  0  0  0
  1  2  1  0  0  0  0
  1  5  2  0  0  0  0
  2  6  2  0  0  0  0
  3 10  2  0  0  0  0
  3 18  1  0  0  0  0
  4 11  1  0  0  0  0
  4 18  2  0  0  0  0
  5 20  1  0  0  0  0
  6 22  1  0  0  0  0
  7 12  2  0  0  0  0
  7 21  1  0  0  0  0
  8  9  2  0  0  0  0
  8 24  1  0  0  0  0
  9 25  1  0  0  0  0
 10 26  1  0  0  0  0
 11 26  2  0  0  0  0
 12 27  1  0  0  0  0
 13 14  2  0  0  0  0
 13 28  1  0  0  0  0
 14 29  1  0  0  0  0
 15 23  1  0  0  0  0
 15 27  2  0  0  0  0
 16 25  2  0  0  0  0
 16 30  1  0  0  0  0
 17 29  2  0  0  0  0
 17 31  1  0  0  0  0
 18 32  1  0  0  0  0
 19 32  1  0  0  0  0
 19 33  2  0  0  0  0
 19 34  1  0  0  0  0
 20 22  2  0  0  0  0
 20 39  1  0  0  0  0
 21 23  2  0  0  0  0
 21 40  1  0  0  0  0
 22 48  1  0  0  0  0
 23 41  1  0  0  0  0
 24 30  2  0  0  0  0
 24 59  1  0  0  0  0
 25 75  1  0  0  0  0
 26 83  1  0  0  0  0
 27 84  1  0  0  0  0
 28 31  2  0  0  0  0
 28 83  1  0  0  0  0
 29 85  1  0  0  0  0
 30 86  1  0  0  0  0
 31 87  1  0  0  0  0
 32 67  2  0  0  0  0
 33 68  1  0  0  0  0
 33 71  1  0  0  0  0
 34 72  1  0  0  0  0
 34 78  2  0  0  0  0
 35 49  1  0  0  0  0
 35 73  1  0  0  0  0
 35 79  2  0  0  0  0
 36 63  1  0  0  0  0
 36 69  1  0  0  0  0
 36 80  2  0  0  0  0
 37 64  1  0  0  0  0
 37 74  1  0  0  0  0
 37 81  2  0  0  0  0
 38 70  1  0  0  0  0
 38 75  1  0  0  0  0
 38 82  2  0  0  0  0
 39 42  1  0  0  0  0
 40 49  1  0  0  0  0
 41 69  1  0  0  0  0
 42 44  1  0  0  0  0
 43 45  1  0  0  0  0
 43 46  1  0  0  0  0
 44 48  1  0  0  0  0
 45 50  1  0  0  0  0
 46 70  1  0  0  0  0
 47 50  1  0  0  0  0
 47 70  1  0  0  0  0
 48 73  1  0  0  0  0
 49 69  1  0  0  0  0
 50 68  1  0  0  0  0
 51 64  1  0  0  0  0
 52 65  1  0  0  0  0
 53 65  1  0  0  0  0
 54 66  1  0  0  0  0
 55 66  1  0  0  0  0
 56 66  1  0  0  0  0
 57 75  1  0  0  0  0
 58 76  1  0  0  0  0
 59 77  1  0  0  0  0
 60 61  1  0  0  0  0
 60 62  1  0  0  0  0
 61 77  1  0  0  0  0
 62 84  1  0  0  0  0
 63 66  1  0  0  0  0
 63 74  1  0  0  0  0
 64 76  1  0  0  0  0
 65 77  1  0  0  0  0
 67 68  1  0  0  0  0
M  CHG  2  76   1  77   1
M  ISO  4  38 100  62 101  75 100  84 101
M  END
> <Batch ID>
0016

> <Smiles>
CNC(C)C(=O)NC(C(=O)N1Cc2cc([101O:1][101CH2:1]CCN(Cc3ccc([100N:0](C)[100C:0](=O)N4CCCC(n5nc(-c6ccc(Oc7ccc(F)cc7F)cc6)c(C(N)=O)c5N)C4)cc3F)C(C)C)ccc2CC1C(=O)NC1CCCc2ccccc21)C(C)(C)C

> <Shape>
0.242

> <Color>
0.099

> <Negative vol penalty>
0.000

$$$$

  -OEChem-04042320573D

 84 92  0     1  0  0  0  0  0999 V2000
  -32.8267  -30.2929   21.7039 C   0  0  0  0  0  0  0  0  0  0  0  0
  -32.0349  -29.5218   20.8590 C   0  0  0  0  0  0  0  0  0  0  0  0
  -26.6923  -12.5242   21.6972 C   0  0  0  0  0  0  0  0  0  0  0  0
  -26.1744  -13.8438   19.7408 C   0  0  0  0  0  0  0  0  0  0  0  0
  -32.4362  -30.5007   23.0261 C   0  0  0  0  0  0  0  0  0  0  0  0
  -30.8525  -28.9573   21.3362 C   0  0  0  0  0  0  0  0  0  0  0  0
  -26.9917  -29.5151   18.1069 C   0  0  0  0  0  0  0  0  0  0  0  0
  -25.3861  -12.0352   21.7132 C   0  0  0  0  0  0  0  0  0  0  0  0
  -24.8681  -13.3549   19.7568 C   0  0  0  0  0  0  0  0  0  0  0  0
  -26.9504  -28.6562   17.0095 C   0  0  0  0  0  0  0  0  0  0  0  0
  -23.5797   -9.7010   20.0636 C   0  0  0  0  0  0  0  0  0  0  0  0
  -23.4023   -8.3321   20.2637 C   0  0  0  0  0  0  0  0  0  0  0  0
  -25.3187  -27.2912   18.1468 C   0  0  0  0  0  0  0  0  0  0  0  0
  -29.2859  -21.2825   18.6699 C   0  0  0  0  0  0  0  0  0  0  0  0
  -28.8539  -23.6573   18.7721 C   0  0  0  0  0  0  0  0  0  0  0  0
  -29.8499  -22.5283   20.6617 C   0  0  0  0  0  0  0  0  0  0  0  0
  -22.1116   -8.7903   22.2540 C   0  0  0  0  0  0  0  0  0  0  0  0
  -27.0865  -13.4285   20.7110 C   0  0  0  0  0  0  0  0  0  0  0  0
  -29.5434  -13.3792   20.0262 C   0  0  0  0  0  0  0  0  0  0  0  0
  -31.2436  -29.9465   23.5171 C   0  0  0  0  0  0  0  0  0  0  0  0
  -26.2036  -29.2620   19.2388 C   0  0  0  0  0  0  0  0  0  0  0  0
  -30.4464  -29.1568   22.6666 C   0  0  0  0  0  0  0  0  0  0  0  0
  -25.3499  -28.1498   19.2562 C   0  0  0  0  0  0  0  0  0  0  0  0
  -28.8099  -22.4504   18.0742 C   0  0  0  0  0  0  0  0  0  0  0  0
  -29.8059  -21.3214   19.9637 C   0  0  0  0  0  0  0  0  0  0  0  0
  -24.4740  -12.4505   20.7430 C   0  0  0  0  0  0  0  0  0  0  0  0
  -26.1160  -27.5425   17.0304 C   0  0  0  0  0  0  0  0  0  0  0  0
  -23.0231  -10.6147   20.9587 C   0  0  0  0  0  0  0  0  0  0  0  0
  -22.6683   -7.8767   21.3589 C   0  0  0  0  0  0  0  0  0  0  0  0
  -22.2890  -10.1593   22.0539 C   0  0  0  0  0  0  0  0  0  0  0  0
  -29.3739  -23.6963   20.0659 C   0  0  0  0  0  0  0  0  0  0  0  0
  -28.4355  -13.9344   20.6942 C   0  0  0  0  0  0  0  0  0  0  0  0
  -30.5828  -14.2270   20.3219 C   0  0  0  0  0  0  0  0  0  0  0  0
  -29.6255  -12.2024   19.2113 C   0  0  0  0  0  0  0  0  0  0  0  0
  -26.8048  -28.6499   22.2995 C   0  0  0  0  0  0  0  0  0  0  0  0
  -23.5791  -28.8581   22.5715 C   0  0  0  0  0  0  0  0  0  0  0  0
  -20.5244  -28.6378   21.0658 C   0  0  0  0  0  0  0  0  0  0  0  0
  -30.8357  -19.9995   21.8448 C   0  0  0  0  0  0  0  0  0  0  0  0
  -30.8869  -30.1596   24.9669 C   0  0  0  0  0  0  0  0  0  0  0  0
  -26.2397  -30.2129   20.4037 C   0  0  0  0  0  0  0  0  0  0  0  0
  -24.4687  -27.8449   20.4391 C   0  0  0  0  0  0  0  0  0  0  0  0
  -29.4302  -29.8368   25.2895 C   0  0  0  0  0  0  0  0  0  0  0  0
  -32.1035  -17.2467   23.7135 C   0  0  0  0  0  0  0  0  0  0  0  0
  -29.0290  -28.5024   24.6687 C   0  0  0  0  0  0  0  0  0  0  0  0
  -31.4122  -16.0338   23.0865 C   0  0  0  0  0  0  0  0  0  0  0  0
  -31.1791  -18.4618   23.7664 C   0  0  0  0  0  0  0  0  0  0  0  0
  -29.8704  -17.6155   21.8585 C   0  0  0  0  0  0  0  0  0  0  0  0
  -29.1443  -28.5482   23.1403 C   0  0  1  0  0  0  0  0  0  0  0  0
  -25.7777  -29.5749   21.7103 C   0  0  1  0  0  0  0  0  0  0  0  0
  -30.7830  -16.3856   21.7242 C   0  0  2  0  0  0  0  0  0  0  0  0
  -18.0698  -28.8224   21.5537 C   0  0  0  0  0  0  0  0  0  0  0  0
  -23.6392  -26.1121   23.9002 C   0  0  0  0  0  0  0  0  0  0  0  0
  -21.1740  -25.9407   23.4983 C   0  0  0  0  0  0  0  0  0  0  0  0
  -22.0748  -27.7500   24.9605 C   0  0  0  0  0  0  0  0  0  0  0  0
  -20.1992  -30.8895   19.1728 C   0  0  0  0  0  0  0  0  0  0  0  0
  -26.1079  -21.2036   17.0839 C   0  0  0  0  0  0  0  0  0  0  0  0
  -28.2499  -22.4083   16.6829 C   0  0  0  0  0  0  0  0  0  0  0  0
  -26.4852  -24.4714   15.1812 C   0  0  0  0  0  0  0  0  0  0  0  0
  -26.2303  -22.9804   15.3433 C   0  0  0  0  0  0  0  0  0  0  0  0
  -25.7801  -25.3307   16.2234 C   0  0  0  0  0  0  0  0  0  1  0  0
  -22.4318  -27.8832   22.4611 C   0  0  1  0  0  0  0  0  0  0  0  0
  -19.3184  -29.5593   21.0946 C   0  0  2  0  0  0  0  0  0  0  0  0
  -22.3479  -26.9259   23.6834 C   0  0  0  0  0  0  0  0  0  0  0  0
  -28.7424  -15.0485   21.3639 N   0  0  0  0  0  0  0  0  0  0  0  0
  -30.0550  -15.2003   21.1183 N   0  0  0  0  0  0  0  0  0  0  0  0
  -24.5443  -28.8009   21.5562 N   0  0  0  0  0  0  0  0  0  0  0  0
  -30.6236  -18.7378   22.4397 N   0  0  0  0  0  0  0  0  0  0  0  0
  -31.8876  -14.2273   19.9758 N   0  0  0  0  0  0  0  0  0  0  0  0
  -28.4626  -11.4465   19.0101 N   0  0  0  0  0  0  0  0  0  0  0  0
  -30.2886  -20.1348   20.5692 N   0  0  0  0  0  0  0  0  0  0  0  0
  -28.0176  -29.2546   22.5693 N   0  0  0  0  0  0  0  0  0  0  0  0
  -21.2327  -28.6864   22.2478 N   0  0  0  0  0  0  0  0  0  0  0  0
  -19.0615  -30.1190   19.7375 N   0  3  0  0  0  0  0  0  0  0  0  0
  -26.7434  -22.5021   16.6485 N   0  3  1  0  0  0  0  0  0  0  0  0
  -30.7020  -11.8232   18.6907 O   0  0  0  0  0  0  0  0  0  0  0  0
  -26.5176  -27.4750   22.4962 O   0  0  0  0  0  0  0  0  0  0  0  0
  -23.6138  -29.6464   23.5197 O   0  0  0  0  0  0  0  0  0  0  0  0
  -20.8076  -27.9416   20.0934 O   0  0  0  0  0  0  0  0  0  0  0  0
  -31.4803  -20.8848   22.4129 O   0  0  0  0  0  0  0  0  0  0  0  0
  -23.1994  -11.9735   20.7582 O   0  0  0  0  0  0  0  0  0  0  0  0
  -26.0742  -26.7022   15.9608 O   0  0  0  0  0  0  0  0  0  1  0  0
  -22.4968   -6.5621   21.5501 F   0  0  0  0  0  0  0  0  0  0  0  0
  -21.7509  -11.0322   22.9166 F   0  0  0  0  0  0  0  0  0  0  0  0
  -29.4265  -25.1849   20.9279 Cl  0  0  0  0  0  0  0  0  0  0  0  0
  1  2  1  0  0  0  0
  1  5  2  0  0  0  0
  2  6  2  0  0  0  0
  3  8  2  0  0  0  0
  3 18  1  0  0  0  0
  4  9  1  0  0  0  0
  4 18  2  0  0  0  0
  5 20  1  0  0  0  0
  6 22  1  0  0  0  0
  7 10  2  0  0  0  0
  7 21  1  0  0  0  0
  8 26  1  0  0  0  0
  9 26  2  0  0  0  0
 10 27  1  0  0  0  0
 11 12  2  0  0  0  0
 11 28  1  0  0  0  0
 12 29  1  0  0  0  0
 13 23  1  0  0  0  0
 13 27  2  0  0  0  0
 14 24  2  0  0  0  0
 14 25  1  0  0  0  0
 15 24  1  0  0  0  0
 15 31  2  0  0  0  0
 16 25  2  0  0  0  0
 16 31  1  0  0  0  0
 17 29  2  0  0  0  0
 17 30  1  0  0  0  0
 18 32  1  0  0  0  0
 19 32  1  0  0  0  0
 19 33  2  0  0  0  0
 19 34  1  0  0  0  0
 20 22  2  0  0  0  0
 20 39  1  0  0  0  0
 21 23  2  0  0  0  0
 21 40  1  0  0  0  0
 22 48  1  0  0  0  0
 23 41  1  0  0  0  0
 24 57  1  0  0  0  0
 25 70  1  0  0  0  0
 26 80  1  0  0  0  0
 27 81  1  0  0  0  0
 28 30  2  0  0  0  0
 28 80  1  0  0  0  0
 29 82  1  0  0  0  0
 30 83  1  0  0  0  0
 31 84  1  0  0  0  0
 32 64  2  0  0  0  0
 33 65  1  0  0  0  0
 33 68  1  0  0  0  0
 34 69  1  0  0  0  0
 34 75  2  0  0  0  0
 35 49  1  0  0  0  0
 35 71  1  0  0  0  0
 35 76  2  0  0  0  0
 36 61  1  0  0  0  0
 36 66  1  0  0  0  0
 36 77  2  0  0  0  0
 37 62  1  0  0  0  0
 37 72  1  0  0  0  0
 37 78  2  0  0  0  0
 38 67  1  0  0  0  0
 38 70  1  0  0  0  0
 38 79  2  0  0  0  0
 39 42  1  0  0  0  0
 40 49  1  0  0  0  0
 41 66  1  0  0  0  0
 42 44  1  0  0  0  0
 43 45  1  0  0  0  0
 43 46  1  0  0  0  0
 44 48  1  0  0  0  0
 45 50  1  0  0  0  0
 46 67  1  0  0  0  0
 47 50  1  0  0  0  0
 47 67  1  0  0  0  0
 48 71  1  0  0  0  0
 49 66  1  0  0  0  0
 50 65  1  0  0  0  0
 51 62  1  0  0  0  0
 52 63  1  0  0  0  0
 53 63  1  0  0  0  0
 54 63  1  0  0  0  0
 55 73  1  0  0  0  0
 56 74  1  0  0  0  0
 57 74  1  0  0  0  0
 58 59  1  0  0  0  0
 58 60  1  0  0  0  0
 59 74  1  0  0  0  0
 60 81  1  0  0  0  0
 61 63  1  0  0  0  0
 61 72  1  0  0  0  0
 62 73  1  0  0  0  0
 64 65  1  0  0  0  0
M  CHG  2  73   1  74   1
M  ISO  4  38 100  60 101  70 100  81 101
M  END
> <Batch ID>
0016

> <Smiles>
CNC(C)C(=O)NC(C(=O)N1Cc2cc([101O:1][101CH2:1]CCN(C)Cc3cc(Cl)cc([100NH:0][100C:0](=O)N4CCCC(n5nc(-c6ccc(Oc7ccc(F)cc7F)cc6)c(C(N)=O)c5N)C4)c3)ccc2CC1C(=O)NC1CCCc2ccccc21)C(C)(C)C

> <Shape>
0.254

> <Color>
0.077

> <Negative vol penalty>
0.000

$$$$

  -OEChem-04042320573D

 84 92  0     1  0  0  0  0  0999 V2000
  -29.8678   -2.0832   36.8256 C   0  0  0  0  0  0  0  0  0  0  0  0
  -29.8000   -2.9386   35.7306 C   0  0  0  0  0  0  0  0  0  0  0  0
  -23.2846   -9.7975   19.9080 C   0  0  0  0  0  0  0  0  0  0  0  0
  -23.7225   -9.9368   22.2799 C   0  0  0  0  0  0  0  0  0  0  0  0
  -28.6956   -1.5915   37.3984 C   0  0  0  0  0  0  0  0  0  0  0  0
  -28.5597   -3.3021   35.2070 C   0  0  0  0  0  0  0  0  0  0  0  0
  -27.0427   -8.6994   32.7426 C   0  0  0  0  0  0  0  0  0  0  0  0
  -28.4291  -11.5084   25.2454 C   0  0  0  0  0  0  0  0  0  0  0  0
  -28.4860  -10.3588   23.1212 C   0  0  0  0  0  0  0  0  0  0  0  0
  -27.7612  -10.4241   25.8143 C   0  0  0  0  0  0  0  0  0  0  0  0
  -27.8181   -9.2744   23.6902 C   0  0  0  0  0  0  0  0  0  0  0  0
  -22.5525   -8.6278   20.1119 C   0  0  0  0  0  0  0  0  0  0  0  0
  -22.9904   -8.7671   22.4838 C   0  0  0  0  0  0  0  0  0  0  0  0
  -26.9560   -9.1361   31.4214 C   0  0  0  0  0  0  0  0  0  0  0  0
  -19.7387   -7.8687   22.6830 C   0  0  0  0  0  0  0  0  0  0  0  0
  -18.8303   -7.8507   23.7413 C   0  0  0  0  0  0  0  0  0  0  0  0
  -24.5870   -8.6809   31.4327 C   0  0  0  0  0  0  0  0  0  0  0  0
  -20.0233   -5.9990   24.7339 C   0  0  0  0  0  0  0  0  0  0  0  0
  -23.8696  -10.4519   20.9921 C   0  0  0  0  0  0  0  0  0  0  0  0
  -24.1400  -12.9809   20.7945 C   0  0  0  0  0  0  0  0  0  0  0  0
  -27.4401   -1.9568   36.8876 C   0  0  0  0  0  0  0  0  0  0  0  0
  -25.9022   -8.2391   33.4164 C   0  0  0  0  0  0  0  0  0  0  0  0
  -27.3696   -2.8138   35.7726 C   0  0  0  0  0  0  0  0  0  0  0  0
  -24.6614   -8.2413   32.7633 C   0  0  0  0  0  0  0  0  0  0  0  0
  -28.7915  -11.4758   23.8987 C   0  0  0  0  0  0  0  0  0  0  0  0
  -27.4557   -9.3071   25.0368 C   0  0  0  0  0  0  0  0  0  0  0  0
  -22.4054   -8.1126   21.3998 C   0  0  0  0  0  0  0  0  0  0  0  0
  -25.7286   -9.1242   30.7653 C   0  0  0  0  0  0  0  0  0  0  0  0
  -20.7894   -6.9518   22.6500 C   0  0  0  0  0  0  0  0  0  0  0  0
  -18.9726   -6.9159   24.7667 C   0  0  0  0  0  0  0  0  0  0  0  0
  -20.9317   -6.0170   23.6755 C   0  0  0  0  0  0  0  0  0  0  0  0
  -24.6265  -11.6599   20.7821 C   0  0  0  0  0  0  0  0  0  0  0  0
  -25.2459  -13.7565   20.5456 C   0  0  0  0  0  0  0  0  0  0  0  0
  -22.8075  -13.4637   21.0117 C   0  0  0  0  0  0  0  0  0  0  0  0
  -25.0315   -5.4755   34.7233 C   0  0  0  0  0  0  0  0  0  0  0  0
  -22.4723   -7.2006   35.7218 C   0  0  0  0  0  0  0  0  0  0  0  0
  -20.4424   -9.9047   35.2594 C   0  0  0  0  0  0  0  0  0  0  0  0
  -31.1496  -12.3509   21.3872 C   0  0  0  0  0  0  0  0  0  0  0  0
  -26.2020   -1.3624   37.5107 C   0  0  0  0  0  0  0  0  0  0  0  0
  -26.0076   -7.7965   34.8501 C   0  0  0  0  0  0  0  0  0  0  0  0
  -23.4036   -7.7759   33.4487 C   0  0  0  0  0  0  0  0  0  0  0  0
  -24.9172   -2.0935   37.1297 C   0  0  0  0  0  0  0  0  0  0  0  0
  -29.4877  -13.6547   18.3475 C   0  0  0  0  0  0  0  0  0  0  0  0
  -24.8769   -2.3545   35.6274 C   0  0  0  0  0  0  0  0  0  0  0  0
  -28.0171  -13.3328   18.6079 C   0  0  0  0  0  0  0  0  0  0  0  0
  -30.4170  -12.6711   19.0522 C   0  0  0  0  0  0  0  0  0  0  0  0
  -28.6994  -12.2294   20.7753 C   0  0  0  0  0  0  0  0  0  0  0  0
  -26.0424   -3.2508   35.1916 C   0  0  1  0  0  0  0  0  0  0  0  0
  -24.8755   -6.8653   35.2727 C   0  0  1  0  0  0  0  0  0  0  0  0
  -27.7370  -13.2295   20.1172 C   0  0  2  0  0  0  0  0  0  0  0  0
  -18.4121  -11.0298   36.2130 C   0  0  0  0  0  0  0  0  0  0  0  0
  -20.6974   -5.0672   34.4536 C   0  0  0  0  0  0  0  0  0  0  0  0
  -18.7849   -6.6772   34.5889 C   0  0  0  0  0  0  0  0  0  0  0  0
  -19.9058   -5.8966   36.6762 C   0  0  0  0  0  0  0  0  0  0  0  0
  -26.4659   -7.0444   24.7913 C   0  0  0  0  0  0  0  0  0  0  0  0
  -31.8627  -12.0559   23.7290 C   0  0  0  0  0  0  0  0  0  0  0  0
  -21.9521  -12.3786   35.8592 C   0  0  0  0  0  0  0  0  0  0  0  0
  -29.5053  -12.6348   23.2894 C   0  0  0  0  0  0  0  0  0  0  0  0
  -25.1026   -8.9645   27.2113 C   0  0  0  0  0  0  0  0  0  0  0  0
  -26.4098   -8.2097   27.0020 C   0  0  0  0  0  0  0  0  0  0  0  0
  -24.6335   -8.9512   28.6614 C   0  0  0  0  0  0  0  0  0  1  0  0
  -21.1096   -7.5176   35.1547 C   0  0  1  0  0  0  0  0  0  0  0  0
  -19.9311  -10.9575   36.2262 C   0  0  2  0  0  0  0  0  0  0  0  0
  -20.1483   -6.2967   35.2045 C   0  0  0  0  0  0  0  0  0  0  0  0
  -25.9392  -11.5961   20.5439 N   0  0  0  0  0  0  0  0  0  0  0  0
  -26.2869  -12.8867   20.4044 N   0  0  0  0  0  0  0  0  0  0  0  0
  -23.5593   -7.3469   34.8484 N   0  0  0  0  0  0  0  0  0  0  0  0
  -30.1009  -12.5599   20.4766 N   0  0  0  0  0  0  0  0  0  0  0  0
  -25.4196  -15.0907   20.4359 N   0  0  0  0  0  0  0  0  0  0  0  0
  -21.7900  -12.5308   21.2536 N   0  0  0  0  0  0  0  0  0  0  0  0
  -25.7716   -4.6317   35.5293 N   0  0  0  0  0  0  0  0  0  0  0  0
  -20.6276   -8.6877   35.8806 N   0  0  0  0  0  0  0  0  0  0  0  0
  -26.7858   -8.2161   25.6089 N   0  0  3  0  0  0  0  0  0  0  0  0
  -30.8090  -12.2608   22.7454 N   0  0  0  0  0  0  0  0  0  0  0  0
  -20.4686  -12.2991   35.8629 N   0  3  0  0  0  0  0  0  0  0  0  0
  -22.5246  -14.6852   20.9756 O   0  0  0  0  0  0  0  0  0  0  0  0
  -24.5171   -5.1895   33.6485 O   0  0  0  0  0  0  0  0  0  0  0  0
  -22.5694   -6.8434   36.8985 O   0  0  0  0  0  0  0  0  0  0  0  0
  -20.6527  -10.1376   34.0711 O   0  0  0  0  0  0  0  0  0  0  0  0
  -32.3246  -12.2600   21.0088 O   0  0  0  0  0  0  0  0  0  0  0  0
  -21.6909   -6.9715   21.5991 O   0  0  0  0  0  0  0  0  0  0  0  0
  -25.6413   -9.5493   29.4756 O   0  0  0  0  0  0  0  0  0  1  0  0
  -18.1010   -6.8998   25.7838 F   0  0  0  0  0  0  0  0  0  0  0  0
  -21.9398   -5.1344   23.6500 F   0  0  0  0  0  0  0  0  0  0  0  0
  1  2  1  0  0  0  0
  1  5  2  0  0  0  0
  2  6  2  0  0  0  0
  3 12  2  0  0  0  0
  3 19  1  0  0  0  0
  4 13  1  0  0  0  0
  4 19  2  0  0  0  0
  5 21  1  0  0  0  0
  6 23  1  0  0  0  0
  7 14  2  0  0  0  0
  7 22  1  0  0  0  0
  8 10  2  0  0  0  0
  8 25  1  0  0  0  0
  9 11  1  0  0  0  0
  9 25  2  0  0  0  0
 10 26  1  0  0  0  0
 11 26  2  0  0  0  0
 12 27  1  0  0  0  0
 13 27  2  0  0  0  0
 14 28  1  0  0  0  0
 15 16  2  0  0  0  0
 15 29  1  0  0  0  0
 16 30  1  0  0  0  0
 17 24  1  0  0  0  0
 17 28  2  0  0  0  0
 18 30  2  0  0  0  0
 18 31  1  0  0  0  0
 19 32  1  0  0  0  0
 20 32  1  0  0  0  0
 20 33  2  0  0  0  0
 20 34  1  0  0  0  0
 21 23  2  0  0  0  0
 21 39  1  0  0  0  0
 22 24  2  0  0  0  0
 22 40  1  0  0  0  0
 23 48  1  0  0  0  0
 24 41  1  0  0  0  0
 25 58  1  0  0  0  0
 26 73  1  0  0  0  0
 27 81  1  0  0  0  0
 28 82  1  0  0  0  0
 29 31  2  0  0  0  0
 29 81  1  0  0  0  0
 30 83  1  0  0  0  0
 31 84  1  0  0  0  0
 32 65  2  0  0  0  0
 33 66  1  0  0  0  0
 33 69  1  0  0  0  0
 34 70  1  0  0  0  0
 34 76  2  0  0  0  0
 35 49  1  0  0  0  0
 35 71  1  0  0  0  0
 35 77  2  0  0  0  0
 36 62  1  0  0  0  0
 36 67  1  0  0  0  0
 36 78  2  0  0  0  0
 37 63  1  0  0  0  0
 37 72  1  0  0  0  0
 37 79  2  0  0  0  0
 38 68  1  0  0  0  0
 38 74  1  0  0  0  0
 38 80  2  0  0  0  0
 39 42  1  0  0  0  0
 40 49  1  0  0  0  0
 41 67  1  0  0  0  0
 42 44  1  0  0  0  0
 43 45  1  0  0  0  0
 43 46  1  0  0  0  0
 44 48  1  0  0  0  0
 45 50  1  0  0  0  0
 46 68  1  0  0  0  0
 47 50  1  0  0  0  0
 47 68  1  0  0  0  0
 48 71  1  0  0  0  0
 49 67  1  0  0  0  0
 50 66  1  0  0  0  0
 51 63  1  0  0  0  0
 52 64  1  0  0  0  0
 53 64  1  0  0  0  0
 54 64  1  0  0  0  0
 55 73  1  0  0  0  0
 56 74  1  0  0  0  0
 57 75  1  0  0  0  0
 58 74  1  0  0  0  0
 59 60  1  0  0  0  0
 59 61  1  0  0  0  0
 60 73  1  0  0  0  0
 61 82  1  0  0  0  0
 62 64  1  0  0  0  0
 62 72  1  0  0  0  0
 63 75  1  0  0  0  0
 65 66  1  0  0  0  0
M  CHG  1  75   1
M  ISO  4  38 100  61 101  74 100  82 101
M  END
> <Batch ID>
0016

> <Smiles>
CNC(C)C(=O)NC(C(=O)N1Cc2cc([101O:1][101CH2:1]CCN(C)c3ccc(C[100N:0](C)[100C:0](=O)N4CCCC(n5nc(-c6ccc(Oc7ccc(F)cc7F)cc6)c(C(N)=O)c5N)C4)cc3)ccc2CC1C(=O)NC1CCCc2ccccc21)C(C)(C)C

> <Shape>
0.132

> <Color>
0.185

> <Negative vol penalty>
0.000

$$$$

  -OEChem-04042320573D

 86 95  0     1  0  0  0  0  0999 V2000
  -32.1004  -32.9693   20.3792 C   0  0  0  0  0  0  0  0  0  0  0  0
  -31.4747  -31.7671   20.0650 C   0  0  0  0  0  0  0  0  0  0  0  0
  -22.9675  -10.1236   19.8903 C   0  0  0  0  0  0  0  0  0  0  0  0
  -24.1849   -9.6932   21.9323 C   0  0  0  0  0  0  0  0  0  0  0  0
  -31.7102  -33.6815   21.5125 C   0  0  0  0  0  0  0  0  0  0  0  0
  -30.4591  -31.2759   20.8846 C   0  0  0  0  0  0  0  0  0  0  0  0
  -26.4829  -29.5800   18.2466 C   0  0  0  0  0  0  0  0  0  0  0  0
  -29.0890  -20.3094   21.0510 C   0  0  0  0  0  0  0  0  0  0  0  0
  -28.9871  -18.9751   21.4445 C   0  0  0  0  0  0  0  0  0  0  0  0
  -22.2987   -8.9079   20.0327 C   0  0  0  0  0  0  0  0  0  0  0  0
  -23.5160   -8.4774   22.0748 C   0  0  0  0  0  0  0  0  0  0  0  0
  -26.6015  -28.3240   17.6531 C   0  0  0  0  0  0  0  0  0  0  0  0
  -20.4871   -7.4114   23.1284 C   0  0  0  0  0  0  0  0  0  0  0  0
  -19.9888   -7.0918   24.3914 C   0  0  0  0  0  0  0  0  0  0  0  0
  -25.3420  -27.3543   19.4677 C   0  0  0  0  0  0  0  0  0  0  0  0
  -29.6299  -19.6056   18.8040 C   0  0  0  0  0  0  0  0  0  0  0  0
  -21.3678   -5.1085   24.4336 C   0  0  0  0  0  0  0  0  0  0  0  0
  -23.9107  -10.5162   20.8400 C   0  0  0  0  0  0  0  0  0  0  0  0
  -24.2043  -13.0253   21.1948 C   0  0  0  0  0  0  0  0  0  0  0  0
  -30.6827  -33.2037   22.3411 C   0  0  0  0  0  0  0  0  0  0  0  0
  -25.8012  -29.7311   19.4627 C   0  0  0  0  0  0  0  0  0  0  0  0
  -30.0557  -31.9818   22.0308 C   0  0  0  0  0  0  0  0  0  0  0  0
  -25.2140  -28.6137   20.0733 C   0  0  0  0  0  0  0  0  0  0  0  0
  -29.4103  -20.6247   19.7308 C   0  0  0  0  0  0  0  0  0  0  0  0
  -29.2067  -17.9560   20.5177 C   0  0  0  0  0  0  0  0  0  0  0  0
  -22.5729   -8.0848   21.1250 C   0  0  0  0  0  0  0  0  0  0  0  0
  -26.0334  -27.2105   18.2651 C   0  0  0  0  0  0  0  0  0  0  0  0
  -21.4258   -6.5795   22.5180 C   0  0  0  0  0  0  0  0  0  0  0  0
  -20.4291   -5.9403   25.0440 C   0  0  0  0  0  0  0  0  0  0  0  0
  -29.5280  -18.2712   19.1974 C   0  0  0  0  0  0  0  0  0  0  0  0
  -21.8661   -5.4281   23.1706 C   0  0  0  0  0  0  0  0  0  0  0  0
  -24.6023  -11.7716   20.6931 C   0  0  0  0  0  0  0  0  0  0  0  0
  -25.1931  -13.8875   20.7881 C   0  0  0  0  0  0  0  0  0  0  0  0
  -23.0446  -13.3788   21.9602 C   0  0  0  0  0  0  0  0  0  0  0  0
  -26.6062  -30.7042   22.3797 C   0  0  0  0  0  0  0  0  0  0  0  0
  -23.4225  -30.4171   22.9310 C   0  0  0  0  0  0  0  0  0  0  0  0
  -20.4510  -28.9776   22.0681 C   0  0  0  0  0  0  0  0  0  0  0  0
  -30.8011  -14.7367   20.4065 C   0  0  0  0  0  0  0  0  0  0  0  0
  -30.3278  -33.9849   23.5814 C   0  0  0  0  0  0  0  0  0  0  0  0
  -25.6592  -31.0969   20.0765 C   0  0  0  0  0  0  0  0  0  0  0  0
  -24.4544  -28.7257   21.3690 C   0  0  0  0  0  0  0  0  0  0  0  0
  -28.9873  -33.5834   24.1914 C   0  0  0  0  0  0  0  0  0  0  0  0
  -28.9993  -13.2590   17.5304 C   0  0  0  0  0  0  0  0  0  0  0  0
  -28.8727  -32.0646   24.2756 C   0  0  0  0  0  0  0  0  0  0  0  0
  -27.6935  -12.7828   18.1645 C   0  0  0  0  0  0  0  0  0  0  0  0
  -30.1478  -13.2665   18.5347 C   0  0  0  0  0  0  0  0  0  0  0  0
  -28.5574  -13.5710   20.4035 C   0  0  0  0  0  0  0  0  0  0  0  0
  -28.5243  -23.8809   18.0071 C   0  0  0  0  0  0  0  0  0  0  0  0
  -27.1752  -22.4546   18.7211 C   0  0  0  0  0  0  0  0  0  0  0  0
  -28.9331  -31.4287   22.8816 C   0  0  1  0  0  0  0  0  0  0  0  0
  -25.3850  -31.0523   21.5766 C   0  0  1  0  0  0  0  0  0  0  0  0
  -26.9889  -23.7557   17.9119 C   0  0  0  0  0  0  0  0  0  0  0  0
  -27.3695  -13.5959   19.4299 C   0  0  2  0  0  0  0  0  0  0  0  0
  -18.0303  -28.9100   22.7261 C   0  0  0  0  0  0  0  0  0  0  0  0
  -24.1220  -28.6427   25.3127 C   0  0  0  0  0  0  0  0  0  0  0  0
  -21.7448  -27.8575   25.3369 C   0  0  0  0  0  0  0  0  0  0  0  0
  -22.2652  -30.2652   25.7303 C   0  0  0  0  0  0  0  0  0  0  0  0
  -31.4114  -16.6885   21.7839 C   0  0  0  0  0  0  0  0  0  0  0  0
  -19.5864  -30.0154   19.4348 C   0  0  0  0  0  0  0  0  0  0  0  0
  -29.0982  -16.5301   20.9415 C   0  0  0  0  0  0  0  0  0  0  0  0
  -29.5203  -22.0599   19.3076 C   0  0  0  0  0  0  0  0  0  0  0  0
  -26.1705  -24.8548   18.5613 C   0  0  0  0  0  0  0  0  0  1  0  0
  -22.5153  -29.3071   23.4040 C   0  0  1  0  0  0  0  0  0  0  0  0
  -19.0730  -29.5717   21.8386 C   0  0  2  0  0  0  0  0  0  0  0  0
  -22.6777  -29.0154   24.9226 C   0  0  0  0  0  0  0  0  0  0  0  0
  -25.7540  -11.8281   20.0190 N   0  0  0  0  0  0  0  0  0  0  0  0
  -26.0881  -13.1276   20.0942 N   0  0  0  0  0  0  0  0  0  0  0  0
  -24.3484  -30.0815   21.9331 N   0  0  0  0  0  0  0  0  0  0  0  0
  -29.7974  -14.0096   19.7456 N   0  0  0  0  0  0  0  0  0  0  0  0
  -25.3754  -15.2140   20.9599 N   0  0  0  0  0  0  0  0  0  0  0  0
  -22.1300  -12.3699   22.2919 N   0  0  0  0  0  0  0  0  0  0  0  0
  -27.6633  -31.5765   22.2032 N   0  0  0  0  0  0  0  0  0  0  0  0
  -21.1635  -29.6890   23.0102 N   0  0  0  0  0  0  0  0  0  0  0  0
  -30.4054  -15.8947   21.0929 N   0  0  0  0  0  0  0  0  0  0  0  0
  -28.5694  -22.4221   18.2341 N   0  3  0  0  0  0  0  0  0  0  0  0
  -18.6621  -29.3930   20.4173 N   0  3  0  0  0  0  0  0  0  0  0  0
  -22.8175  -14.5574   22.3247 O   0  0  0  0  0  0  0  0  0  0  0  0
  -26.5902  -29.7180   23.1069 O   0  0  0  0  0  0  0  0  0  0  0  0
  -23.3090  -31.5423   23.4237 O   0  0  0  0  0  0  0  0  0  0  0  0
  -20.8536  -27.9798   21.4740 O   0  0  0  0  0  0  0  0  0  0  0  0
  -31.9850  -14.3768   20.3762 O   0  0  0  0  0  0  0  0  0  0  0  0
  -21.9202   -6.8986   21.2644 O   0  0  0  0  0  0  0  0  0  0  0  0
  -26.1482  -25.9833   17.6882 O   0  0  0  0  0  0  0  0  0  1  0  0
  -19.9516   -5.6344   26.2575 F   0  0  0  0  0  0  0  0  0  0  0  0
  -29.7417  -17.2987   18.3001 F   0  0  0  0  0  0  0  0  0  0  0  0
  -22.7686   -4.6256   22.5898 F   0  0  0  0  0  0  0  0  0  0  0  0
  1  2  1  0  0  0  0
  1  5  2  0  0  0  0
  2  6  2  0  0  0  0
  3 10  2  0  0  0  0
  3 18  1  0  0  0  0
  4 11  1  0  0  0  0
  4 18  2  0  0  0  0
  5 20  1  0  0  0  0
  6 22  1  0  0  0  0
  7 12  2  0  0  0  0
  7 21  1  0  0  0  0
  8  9  2  0  0  0  0
  8 24  1  0  0  0  0
  9 25  1  0  0  0  0
 10 26  1  0  0  0  0
 11 26  2  0  0  0  0
 12 27  1  0  0  0  0
 13 14  2  0  0  0  0
 13 28  1  0  0  0  0
 14 29  1  0  0  0  0
 15 23  1  0  0  0  0
 15 27  2  0  0  0  0
 16 24  2  0  0  0  0
 16 30  1  0  0  0  0
 17 29  2  0  0  0  0
 17 31  1  0  0  0  0
 18 32  1  0  0  0  0
 19 32  1  0  0  0  0
 19 33  2  0  0  0  0
 19 34  1  0  0  0  0
 20 22  2  0  0  0  0
 20 39  1  0  0  0  0
 21 23  2  0  0  0  0
 21 40  1  0  0  0  0
 22 50  1  0  0  0  0
 23 41  1  0  0  0  0
 24 61  1  0  0  0  0
 25 30  2  0  0  0  0
 25 60  1  0  0  0  0
 26 82  1  0  0  0  0
 27 83  1  0  0  0  0
 28 31  2  0  0  0  0
 28 82  1  0  0  0  0
 29 84  1  0  0  0  0
 30 85  1  0  0  0  0
 31 86  1  0  0  0  0
 32 66  2  0  0  0  0
 33 67  1  0  0  0  0
 33 70  1  0  0  0  0
 34 71  1  0  0  0  0
 34 77  2  0  0  0  0
 35 51  1  0  0  0  0
 35 72  1  0  0  0  0
 35 78  2  0  0  0  0
 36 63  1  0  0  0  0
 36 68  1  0  0  0  0
 36 79  2  0  0  0  0
 37 64  1  0  0  0  0
 37 73  1  0  0  0  0
 37 80  2  0  0  0  0
 38 69  1  0  0  0  0
 38 74  1  0  0  0  0
 38 81  2  0  0  0  0
 39 42  1  0  0  0  0
 40 51  1  0  0  0  0
 41 68  1  0  0  0  0
 42 44  1  0  0  0  0
 43 45  1  0  0  0  0
 43 46  1  0  0  0  0
 44 50  1  0  0  0  0
 45 53  1  0  0  0  0
 46 69  1  0  0  0  0
 47 53  1  0  0  0  0
 47 69  1  0  0  0  0
 48 52  1  0  0  0  0
 48 75  1  0  0  0  0
 49 52  1  0  0  0  0
 49 75  1  0  0  0  0
 50 72  1  0  0  0  0
 51 68  1  0  0  0  0
 52 62  1  0  0  0  0
 53 67  1  0  0  0  0
 54 64  1  0  0  0  0
 55 65  1  0  0  0  0
 56 65  1  0  0  0  0
 57 65  1  0  0  0  0
 58 74  1  0  0  0  0
 59 76  1  0  0  0  0
 60 74  1  0  0  0  0
 61 75  1  0  0  0  0
 62 83  1  0  0  0  0
 63 65  1  0  0  0  0
 63 73  1  0  0  0  0
 64 76  1  0  0  0  0
 66 67  1  0  0  0  0
M  CHG  2  75   1  76   1
M  ISO  4  38 100  62 101  74 100  83 101
M  END
> <Batch ID>
0016

> <Smiles>
CNC(C)C(=O)NC(C(=O)N1Cc2cc([101O:1][101CH2:1]C3CN(Cc4ccc(C[100N:0](C)[100C:0](=O)N5CCCC(n6nc(-c7ccc(Oc8ccc(F)cc8F)cc7)c(C(N)=O)c6N)C5)c(F)c4)C3)ccc2CC1C(=O)NC1CCCc2ccccc21)C(C)(C)C

> <Shape>
0.357

> <Color>
0.199

> <Negative vol penalty>
0.000

$$$$

  -OEChem-04042320573D

 89 98  0     1  0  0  0  0  0999 V2000
  -24.8785  -38.0859   23.3031 C   0  0  0  0  0  0  0  0  0  0  0  0
  -25.6353  -37.3487   22.3979 C   0  0  0  0  0  0  0  0  0  0  0  0
  -24.4304   -9.2290   22.2201 C   0  0  0  0  0  0  0  0  0  0  0  0
  -23.0172  -10.1042   20.4668 C   0  0  0  0  0  0  0  0  0  0  0  0
  -24.3341  -37.4626   24.4251 C   0  0  0  0  0  0  0  0  0  0  0  0
  -25.8489  -35.9879   22.6148 C   0  0  0  0  0  0  0  0  0  0  0  0
  -26.7130  -29.8345   19.0504 C   0  0  0  0  0  0  0  0  0  0  0  0
  -28.7020  -21.5219   17.5937 C   0  0  0  0  0  0  0  0  0  0  0  0
  -28.1760  -20.2810   17.2343 C   0  0  0  0  0  0  0  0  0  0  0  0
  -23.7603   -8.0076   22.1505 C   0  0  0  0  0  0  0  0  0  0  0  0
  -22.3471   -8.8828   20.3971 C   0  0  0  0  0  0  0  0  0  0  0  0
  -27.5858  -28.7503   18.9690 C   0  0  0  0  0  0  0  0  0  0  0  0
  -20.8380   -6.7047   23.2400 C   0  0  0  0  0  0  0  0  0  0  0  0
  -20.4662   -6.1009   24.4412 C   0  0  0  0  0  0  0  0  0  0  0  0
  -26.5300  -27.7630   20.9003 C   0  0  0  0  0  0  0  0  0  0  0  0
  -29.5700  -20.5630   19.6343 C   0  0  0  0  0  0  0  0  0  0  0  0
  -21.8104   -4.1712   23.8873 C   0  0  0  0  0  0  0  0  0  0  0  0
  -24.0588  -10.2773   21.3783 C   0  0  0  0  0  0  0  0  0  0  0  0
  -24.8510  -12.3912   22.5664 C   0  0  0  0  0  0  0  0  0  0  0  0
  -24.5331  -36.0914   24.6509 C   0  0  0  0  0  0  0  0  0  0  0  0
  -25.7476  -29.8964   20.0657 C   0  0  0  0  0  0  0  0  0  0  0  0
  -25.3077  -35.3460   23.7416 C   0  0  0  0  0  0  0  0  0  0  0  0
  -25.6444  -28.8478   20.9909 C   0  0  0  0  0  0  0  0  0  0  0  0
  -29.3990  -21.6629   18.7937 C   0  0  0  0  0  0  0  0  0  0  0  0
  -28.3470  -19.1811   18.0749 C   0  0  0  0  0  0  0  0  0  0  0  0
  -29.0440  -19.3221   19.2749 C   0  0  0  0  0  0  0  0  0  0  0  0
  -22.7187   -7.8345   21.2390 C   0  0  0  0  0  0  0  0  0  0  0  0
  -27.4963  -27.7158   19.8958 C   0  0  0  0  0  0  0  0  0  0  0  0
  -21.6960   -6.0417   22.3624 C   0  0  0  0  0  0  0  0  0  0  0  0
  -20.9524   -4.8342   24.7648 C   0  0  0  0  0  0  0  0  0  0  0  0
  -22.1822   -4.7750   22.6861 C   0  0  0  0  0  0  0  0  0  0  0  0
  -24.7502  -11.5394   21.4501 C   0  0  0  0  0  0  0  0  0  0  0  0
  -25.6042  -13.4507   22.1230 C   0  0  0  0  0  0  0  0  0  0  0  0
  -29.3203  -24.1427   18.7482 C   0  0  0  0  0  0  0  0  0  0  0  0
  -24.3120  -12.2383   23.8862 C   0  0  0  0  0  0  0  0  0  0  0  0
  -25.1570  -31.8757   22.4817 C   0  0  0  0  0  0  0  0  0  0  0  0
  -22.5090  -30.0350   22.8315 C   0  0  0  0  0  0  0  0  0  0  0  0
  -20.9806  -27.0287   22.3091 C   0  0  0  0  0  0  0  0  0  0  0  0
  -26.8332  -17.2480   18.4782 C   0  0  0  0  0  0  0  0  0  0  0  0
  -23.9642  -35.4717   25.9027 C   0  0  0  0  0  0  0  0  0  0  0  0
  -24.7961  -31.0598   20.1237 C   0  0  0  0  0  0  0  0  0  0  0  0
  -24.6122  -28.8567   22.0877 C   0  0  0  0  0  0  0  0  0  0  0  0
  -23.9237  -33.9463   25.8630 C   0  0  0  0  0  0  0  0  0  0  0  0
  -31.8811  -24.2124   20.1721 C   0  0  0  0  0  0  0  0  0  0  0  0
  -28.2789  -14.0546   17.8820 C   0  0  0  0  0  0  0  0  0  0  0  0
  -25.2517  -33.3899   25.3592 C   0  0  0  0  0  0  0  0  0  0  0  0
  -31.0055  -25.4461   20.1311 C   0  0  0  0  0  0  0  0  0  0  0  0
  -27.4844  -13.1767   18.8483 C   0  0  0  0  0  0  0  0  0  0  0  0
  -31.0156  -22.9643   20.1770 C   0  0  0  0  0  0  0  0  0  0  0  0
  -27.3990  -15.1111   17.2131 C   0  0  0  0  0  0  0  0  0  0  0  0
  -25.8384  -15.0689   19.1334 C   0  0  0  0  0  0  0  0  0  0  0  0
  -25.5409  -33.8626   23.9294 C   0  0  1  0  0  0  0  0  0  0  0  0
  -30.1711  -25.4122   18.8595 C   0  0  2  0  0  0  0  0  0  0  0  0
  -24.1886  -31.2664   21.5078 C   0  0  1  0  0  0  0  0  0  0  0  0
  -26.7091  -14.0346   19.8637 C   0  0  1  0  0  0  0  0  0  0  0  0
  -18.8294  -25.8111   22.7414 C   0  0  0  0  0  0  0  0  0  0  0  0
  -23.3205  -29.6413   25.7464 C   0  0  0  0  0  0  0  0  0  0  0  0
  -21.7269  -27.7135   25.8570 C   0  0  0  0  0  0  0  0  0  0  0  0
  -20.8734  -30.0096   25.3854 C   0  0  0  0  0  0  0  0  0  0  0  0
  -28.0586  -17.4187   16.3231 C   0  0  0  0  0  0  0  0  0  0  0  0
  -28.7162  -18.2611   21.4946 C   0  0  0  0  0  0  0  0  0  0  0  0
  -29.9216  -17.0359   19.6795 C   0  0  0  0  0  0  0  0  0  0  0  0
  -20.4605  -26.6824   19.4163 C   0  0  0  0  0  0  0  0  0  0  0  0
  -29.3076  -26.6704   18.7635 C   0  0  0  0  0  0  0  0  0  1  0  0
  -22.1736  -28.7795   23.5998 C   0  0  1  0  0  0  0  0  0  0  0  0
  -19.6079  -26.6779   21.7640 C   0  0  2  0  0  0  0  0  0  0  0  0
  -22.0444  -29.0365   25.1278 C   0  0  0  0  0  0  0  0  0  0  0  0
  -25.3882  -12.0167   20.3781 N   0  0  0  0  0  0  0  0  0  0  0  0
  -25.8970  -13.1799   20.8187 N   0  0  0  0  0  0  0  0  0  0  0  0
  -29.9448  -22.9504   19.1662 N   0  0  0  0  0  0  0  0  0  0  0  0
  -23.7089  -30.0191   22.1064 N   0  0  0  0  0  0  0  0  0  0  0  0
  -26.6486  -15.8768   18.2186 N   0  0  0  0  0  0  0  0  0  0  0  0
  -26.0378  -14.5783   22.7253 N   0  0  0  0  0  0  0  0  0  0  0  0
  -23.0339  -12.7497   24.1493 N   0  0  0  0  0  0  0  0  0  0  0  0
  -24.7590  -33.1024   22.9779 N   0  0  0  0  0  0  0  0  0  0  0  0
  -20.9706  -28.2322   22.9821 N   0  0  0  0  0  0  0  0  0  0  0  0
  -27.7935  -17.9069   17.6808 N   0  0  0  0  0  0  0  0  0  0  0  0
  -29.2292  -18.2211   20.1411 N   0  0  0  0  0  0  0  0  0  0  0  0
  -19.7354  -25.9370   20.4772 N   0  3  0  0  0  0  0  0  0  0  0  0
  -28.1925  -24.2064   18.2518 O   0  0  0  0  0  0  0  0  0  0  0  0
  -24.9518  -11.6797   24.8093 O   0  0  0  0  0  0  0  0  0  0  0  0
  -26.1882  -31.2765   22.7633 O   0  0  0  0  0  0  0  0  0  0  0  0
  -21.7315  -30.9920   22.8676 O   0  0  0  0  0  0  0  0  0  0  0  0
  -21.9627  -26.3057   22.1565 O   0  0  0  0  0  0  0  0  0  0  0  0
  -26.1727  -17.8436   19.3378 O   0  0  0  0  0  0  0  0  0  0  0  0
  -22.0648   -6.6428   21.1706 O   0  0  0  0  0  0  0  0  0  0  0  0
  -28.3474  -26.6567   19.8190 O   0  0  0  0  0  0  0  0  0  1  0  0
  -20.5965   -4.2552   25.9191 F   0  0  0  0  0  0  0  0  0  0  0  0
  -23.0076   -4.1337   21.8476 F   0  0  0  0  0  0  0  0  0  0  0  0
  1  2  1  0  0  0  0
  1  5  2  0  0  0  0
  2  6  2  0  0  0  0
  3 10  2  0  0  0  0
  3 18  1  0  0  0  0
  4 11  1  0  0  0  0
  4 18  2  0  0  0  0
  5 20  1  0  0  0  0
  6 22  1  0  0  0  0
  7 12  2  0  0  0  0
  7 21  1  0  0  0  0
  8  9  2  0  0  0  0
  8 24  1  0  0  0  0
  9 25  1  0  0  0  0
 10 27  1  0  0  0  0
 11 27  2  0  0  0  0
 12 28  1  0  0  0  0
 13 14  2  0  0  0  0
 13 29  1  0  0  0  0
 14 30  1  0  0  0  0
 15 23  1  0  0  0  0
 15 28  2  0  0  0  0
 16 24  2  0  0  0  0
 16 26  1  0  0  0  0
 17 30  2  0  0  0  0
 17 31  1  0  0  0  0
 18 32  1  0  0  0  0
 19 32  1  0  0  0  0
 19 33  2  0  0  0  0
 19 35  1  0  0  0  0
 20 22  2  0  0  0  0
 20 40  1  0  0  0  0
 21 23  2  0  0  0  0
 21 41  1  0  0  0  0
 22 52  1  0  0  0  0
 23 42  1  0  0  0  0
 24 70  1  0  0  0  0
 25 26  2  0  0  0  0
 25 77  1  0  0  0  0
 26 78  1  0  0  0  0
 27 86  1  0  0  0  0
 28 87  1  0  0  0  0
 29 31  2  0  0  0  0
 29 86  1  0  0  0  0
 30 88  1  0  0  0  0
 31 89  1  0  0  0  0
 32 68  2  0  0  0  0
 33 69  1  0  0  0  0
 33 73  1  0  0  0  0
 34 53  1  0  0  0  0
 34 70  1  0  0  0  0
 34 80  2  0  0  0  0
 35 74  1  0  0  0  0
 35 81  2  0  0  0  0
 36 54  1  0  0  0  0
 36 75  1  0  0  0  0
 36 82  2  0  0  0  0
 37 65  1  0  0  0  0
 37 71  1  0  0  0  0
 37 83  2  0  0  0  0
 38 66  1  0  0  0  0
 38 76  1  0  0  0  0
 38 84  2  0  0  0  0
 39 72  1  0  0  0  0
 39 77  1  0  0  0  0
 39 85  2  0  0  0  0
 40 43  1  0  0  0  0
 41 54  1  0  0  0  0
 42 71  1  0  0  0  0
 43 46  1  0  0  0  0
 44 47  1  0  0  0  0
 44 49  1  0  0  0  0
 45 48  1  0  0  0  0
 45 50  1  0  0  0  0
 46 52  1  0  0  0  0
 47 53  1  0  0  0  0
 48 55  1  0  0  0  0
 49 70  1  0  0  0  0
 50 72  1  0  0  0  0
 51 55  1  0  0  0  0
 51 72  1  0  0  0  0
 52 75  1  0  0  0  0
 53 64  1  0  0  0  0
 54 71  1  0  0  0  0
 55 69  1  0  0  0  0
 56 66  1  0  0  0  0
 57 67  1  0  0  0  0
 58 67  1  0  0  0  0
 59 67  1  0  0  0  0
 60 77  1  0  0  0  0
 61 78  1  0  0  0  0
 62 78  1  0  0  0  0
 63 79  1  0  0  0  0
 64 87  1  0  0  0  0
 65 67  1  0  0  0  0
 65 76  1  0  0  0  0
 66 79  1  0  0  0  0
 68 69  1  0  0  0  0
M  CHG  1  79   1
M  ISO  4  39 100  64 101  77 100  87 101
M  END
> <Batch ID>
0016

> <Smiles>
CNC(C)C(=O)NC(C(=O)N1Cc2cc([101O:1][101CH2:1]C3CCCN(c4ccc([100N:0](C)[100C:0](=O)N5CCCC(n6nc(-c7ccc(Oc8ccc(F)cc8F)cc7)c(C(N)=O)c6N)C5)c(N(C)C)c4)C3=O)ccc2CC1C(=O)NC1CCCc2ccccc21)C(C)(C)C

> <Shape>
0.386

> <Color>
0.132

> <Negative vol penalty>
0.000

$$$$

  -OEChem-04042320573D

 91 99  0     1  0  0  0  0  0999 V2000
  -23.9608  -38.4905   21.2593 C   0  0  0  0  0  0  0  0  0  0  0  0
  -24.7740  -37.6531   20.5024 C   0  0  0  0  0  0  0  0  0  0  0  0
  -24.6781   -8.7774   21.5220 C   0  0  0  0  0  0  0  0  0  0  0  0
  -23.1535   -9.5277   19.8045 C   0  0  0  0  0  0  0  0  0  0  0  0
  -23.4997  -38.0715   22.5066 C   0  0  0  0  0  0  0  0  0  0  0  0
  -25.1275  -36.3965   20.9930 C   0  0  0  0  0  0  0  0  0  0  0  0
  -26.5539  -29.7362   18.7746 C   0  0  0  0  0  0  0  0  0  0  0  0
  -28.1508  -22.0506   18.1962 C   0  0  0  0  0  0  0  0  0  0  0  0
  -27.2539  -20.9870   18.2949 C   0  0  0  0  0  0  0  0  0  0  0  0
  -23.7960   -7.7499   21.8562 C   0  0  0  0  0  0  0  0  0  0  0  0
  -22.2714   -8.5002   20.1387 C   0  0  0  0  0  0  0  0  0  0  0  0
  -27.5305  -28.7481   18.8913 C   0  0  0  0  0  0  0  0  0  0  0  0
  -20.9323   -7.4006   23.6174 C   0  0  0  0  0  0  0  0  0  0  0  0
  -20.6810   -7.1780   24.9712 C   0  0  0  0  0  0  0  0  0  0  0  0
  -26.6101  -28.0988   21.0245 C   0  0  0  0  0  0  0  0  0  0  0  0
  -29.9777  -20.5587   18.7192 C   0  0  0  0  0  0  0  0  0  0  0  0
  -21.5292   -4.9259   24.7584 C   0  0  0  0  0  0  0  0  0  0  0  0
  -24.3568   -9.6663   20.4961 C   0  0  0  0  0  0  0  0  0  0  0  0
  -26.3092  -10.6809   19.2051 C   0  0  0  0  0  0  0  0  0  0  0  0
  -23.8398  -36.8054   23.0085 C   0  0  0  0  0  0  0  0  0  0  0  0
  -25.6032  -29.9205   19.7887 C   0  0  0  0  0  0  0  0  0  0  0  0
  -24.6716  -35.9608   22.2488 C   0  0  0  0  0  0  0  0  0  0  0  0
  -25.6210  -29.0883   20.9171 C   0  0  0  0  0  0  0  0  0  0  0  0
  -29.5127  -21.8365   18.4083 C   0  0  0  0  0  0  0  0  0  0  0  0
  -27.7188  -19.7092   18.6059 C   0  0  0  0  0  0  0  0  0  0  0  0
  -22.5926   -7.6113   21.1646 C   0  0  0  0  0  0  0  0  0  0  0  0
  -27.5605  -27.9311   20.0176 C   0  0  0  0  0  0  0  0  0  0  0  0
  -21.4820   -6.3858   22.8340 C   0  0  0  0  0  0  0  0  0  0  0  0
  -20.9794   -5.9407   25.5417 C   0  0  0  0  0  0  0  0  0  0  0  0
  -29.0807  -19.4950   18.8180 C   0  0  0  0  0  0  0  0  0  0  0  0
  -21.7805   -5.1485   23.4045 C   0  0  0  0  0  0  0  0  0  0  0  0
  -25.2674  -10.7283   20.1508 C   0  0  0  0  0  0  0  0  0  0  0  0
  -26.8720  -11.9329   19.2512 C   0  0  0  0  0  0  0  0  0  0  0  0
  -26.7304   -9.6017   18.3604 C   0  0  0  0  0  0  0  0  0  0  0  0
  -24.8531  -32.3036   21.7539 C   0  0  0  0  0  0  0  0  0  0  0  0
  -22.4106  -30.3354   22.5803 C   0  0  0  0  0  0  0  0  0  0  0  0
  -25.4258  -18.6688   18.5269 C   0  0  0  0  0  0  0  0  0  0  0  0
  -21.1861  -27.1549   22.7588 C   0  0  0  0  0  0  0  0  0  0  0  0
  -24.3609  -17.1661   21.2126 C   0  0  0  0  0  0  0  0  0  0  0  0
  -23.3561  -36.4153   24.3827 C   0  0  0  0  0  0  0  0  0  0  0  0
  -24.5399  -30.9733   19.6354 C   0  0  0  0  0  0  0  0  0  0  0  0
  -24.6104  -29.2321   22.0245 C   0  0  0  0  0  0  0  0  0  0  0  0
  -23.4695  -34.9197   24.6666 C   0  0  0  0  0  0  0  0  0  0  0  0
  -27.5795  -15.6269   22.1990 C   0  0  0  0  0  0  0  0  0  0  0  0
  -24.8389  -34.3982   24.2428 C   0  0  0  0  0  0  0  0  0  0  0  0
  -27.4006  -14.1732   21.7644 C   0  0  0  0  0  0  0  0  0  0  0  0
  -26.2461  -16.2852   22.5399 C   0  0  0  0  0  0  0  0  0  0  0  0
  -25.0560  -14.7430   21.0169 C   0  0  0  0  0  0  0  0  0  0  0  0
  -25.0566  -34.5807   22.7359 C   0  0  1  0  0  0  0  0  0  0  0  0
  -23.9362  -31.4111   20.9663 C   0  0  1  0  0  0  0  0  0  0  0  0
  -26.3762  -14.0644   20.6216 C   0  0  2  0  0  0  0  0  0  0  0  0
  -19.1761  -25.8576   23.5163 C   0  0  0  0  0  0  0  0  0  0  0  0
  -23.4344  -15.4054   17.6353 C   0  0  0  0  0  0  0  0  0  0  0  0
  -25.0563  -16.7354   16.2610 C   0  0  0  0  0  0  0  0  0  0  0  0
  -23.3029  -30.6513   25.4809 C   0  0  0  0  0  0  0  0  0  0  0  0
  -21.9144  -28.6482   26.0533 C   0  0  0  0  0  0  0  0  0  0  0  0
  -20.8258  -30.6987   25.1405 C   0  0  0  0  0  0  0  0  0  0  0  0
  -31.8438  -22.6798   18.5312 C   0  0  0  0  0  0  0  0  0  0  0  0
  -22.5962  -17.8803   19.6457 C   0  0  0  0  0  0  0  0  0  0  0  0
  -20.6587  -26.1520   20.0248 C   0  0  0  0  0  0  0  0  0  0  0  0
  -29.4445  -24.9562   19.2116 C   0  0  0  0  0  0  0  0  0  0  0  0
  -29.9695  -24.2373   17.9748 C   0  0  0  0  0  0  0  0  0  0  0  0
  -29.0016  -26.3863   18.9255 C   0  0  0  0  0  0  0  0  0  1  0  0
  -22.2158  -29.2463   23.6074 C   0  0  1  0  0  0  0  0  0  0  0  0
  -24.8051  -17.2826   18.7242 C   0  0  2  0  0  0  0  0  0  0  0  0
  -19.8477  -26.5665   22.3505 C   0  0  2  0  0  0  0  0  0  0  0  0
  -24.0930  -16.7768   17.4513 C   0  0  0  0  0  0  0  0  0  0  0  0
  -22.0851  -29.8094   25.0507 C   0  0  0  0  0  0  0  0  0  0  0  0
  -25.1720  -11.9163   20.7537 N   0  0  0  0  0  0  0  0  0  0  0  0
  -26.1610  -12.6270   20.1856 N   0  0  0  0  0  0  0  0  0  0  0  0
  -23.5945  -30.2800   21.8312 N   0  0  0  0  0  0  0  0  0  0  0  0
  -25.2773  -16.1295   21.4543 N   0  0  0  0  0  0  0  0  0  0  0  0
  -27.9007  -12.4969   18.5834 N   0  0  0  0  0  0  0  0  0  0  0  0
  -26.0423   -8.3832   18.4399 N   0  0  0  0  0  0  0  0  0  0  0  0
  -26.8190  -18.6474   18.7043 N   0  0  0  0  0  0  0  0  0  0  0  0
  -24.3409  -33.5641   21.9951 N   0  0  0  0  0  0  0  0  0  0  0  0
  -21.0649  -28.4675   23.1633 N   0  0  0  0  0  0  0  0  0  0  0  0
  -30.4144  -22.9058   18.3084 N   0  0  3  0  0  0  0  0  0  0  0  0
  -23.9258  -17.3396   19.8900 N   0  0  0  0  0  0  0  0  0  0  0  0
  -20.0294  -25.5840   21.2447 N   0  3  0  0  0  0  0  0  0  0  0  0
  -27.6990   -9.7093   17.5706 O   0  0  0  0  0  0  0  0  0  0  0  0
  -25.9438  -31.8795   22.1173 O   0  0  0  0  0  0  0  0  0  0  0  0
  -21.5409  -31.1993   22.4426 O   0  0  0  0  0  0  0  0  0  0  0  0
  -24.7460  -19.6432   18.2167 O   0  0  0  0  0  0  0  0  0  0  0  0
  -22.2338  -26.5132   22.7259 O   0  0  0  0  0  0  0  0  0  0  0  0
  -23.9623  -17.9011   22.1251 O   0  0  0  0  0  0  0  0  0  0  0  0
  -21.7317   -6.6086   21.4903 O   0  0  0  0  0  0  0  0  0  0  0  0
  -28.5131  -26.9662   20.1343 O   0  0  0  0  0  0  0  0  0  1  0  0
  -20.7394   -5.7276   26.8422 F   0  0  0  0  0  0  0  0  0  0  0  0
  -29.5385  -18.2711   19.1178 F   0  0  0  0  0  0  0  0  0  0  0  0
  -22.3098   -4.1701   22.6573 F   0  0  0  0  0  0  0  0  0  0  0  0
  1  2  1  0  0  0  0
  1  5  2  0  0  0  0
  2  6  2  0  0  0  0
  3 10  2  0  0  0  0
  3 18  1  0  0  0  0
  4 11  1  0  0  0  0
  4 18  2  0  0  0  0
  5 20  1  0  0  0  0
  6 22  1  0  0  0  0
  7 12  2  0  0  0  0
  7 21  1  0  0  0  0
  8  9  2  0  0  0  0
  8 24  1  0  0  0  0
  9 25  1  0  0  0  0
 10 26  1  0  0  0  0
 11 26  2  0  0  0  0
 12 27  1  0  0  0  0
 13 14  2  0  0  0  0
 13 28  1  0  0  0  0
 14 29  1  0  0  0  0
 15 23  1  0  0  0  0
 15 27  2  0  0  0  0
 16 24  2  0  0  0  0
 16 30  1  0  0  0  0
 17 29  2  0  0  0  0
 17 31  1  0  0  0  0
 18 32  1  0  0  0  0
 19 32  1  0  0  0  0
 19 33  2  0  0  0  0
 19 34  1  0  0  0  0
 20 22  2  0  0  0  0
 20 40  1  0  0  0  0
 21 23  2  0  0  0  0
 21 41  1  0  0  0  0
 22 49  1  0  0  0  0
 23 42  1  0  0  0  0
 24 78  1  0  0  0  0
 25 30  2  0  0  0  0
 25 75  1  0  0  0  0
 26 87  1  0  0  0  0
 27 88  1  0  0  0  0
 28 31  2  0  0  0  0
 28 87  1  0  0  0  0
 29 89  1  0  0  0  0
 30 90  1  0  0  0  0
 31 91  1  0  0  0  0
 32 69  2  0  0  0  0
 33 70  1  0  0  0  0
 33 73  1  0  0  0  0
 34 74  1  0  0  0  0
 34 81  2  0  0  0  0
 35 50  1  0  0  0  0
 35 76  1  0  0  0  0
 35 82  2  0  0  0  0
 36 64  1  0  0  0  0
 36 71  1  0  0  0  0
 36 83  2  0  0  0  0
 37 65  1  0  0  0  0
 37 75  1  0  0  0  0
 37 84  2  0  0  0  0
 38 66  1  0  0  0  0
 38 77  1  0  0  0  0
 38 85  2  0  0  0  0
 39 72  1  0  0  0  0
 39 79  1  0  0  0  0
 39 86  2  0  0  0  0
 40 43  1  0  0  0  0
 41 50  1  0  0  0  0
 42 71  1  0  0  0  0
 43 45  1  0  0  0  0
 44 46  1  0  0  0  0
 44 47  1  0  0  0  0
 45 49  1  0  0  0  0
 46 51  1  0  0  0  0
 47 72  1  0  0  0  0
 48 51  1  0  0  0  0
 48 72  1  0  0  0  0
 49 76  1  0  0  0  0
 50 71  1  0  0  0  0
 51 70  1  0  0  0  0
 52 66  1  0  0  0  0
 53 67  1  0  0  0  0
 54 67  1  0  0  0  0
 55 68  1  0  0  0  0
 56 68  1  0  0  0  0
 57 68  1  0  0  0  0
 58 78  1  0  0  0  0
 59 79  1  0  0  0  0
 60 80  1  0  0  0  0
 61 62  1  0  0  0  0
 61 63  1  0  0  0  0
 62 78  1  0  0  0  0
 63 88  1  0  0  0  0
 64 68  1  0  0  0  0
 64 77  1  0  0  0  0
 65 67  1  0  0  0  0
 65 79  1  0  0  0  0
 66 80  1  0  0  0  0
 69 70  1  0  0  0  0
M  CHG  1  80   1
M  ISO  4  39 100  63 101  79 100  88 101
M  END
> <Batch ID>
0016

> <Smiles>
CNC(C)C(=O)NC(C(=O)N1Cc2cc([101O:1][101CH2:1]CCN(C)c3ccc(NC(=O)C(C(C)C)[100N:0](C)[100C:0](=O)N4CCCC(n5nc(-c6ccc(Oc7ccc(F)cc7F)cc6)c(C(N)=O)c5N)C4)c(F)c3)ccc2CC1C(=O)NC1CCCc2ccccc21)C(C)(C)C

> <Shape>
0.327

> <Color>
0.096

> <Negative vol penalty>
0.000

$$$$

  -OEChem-04042320573D

 85 93  0     1  0  0  0  0  0999 V2000
  -28.8796  -23.4062   15.7383 C   0  0  0  0  0  0  0  0  0  0  0  0
  -27.6374  -23.8361   16.1937 C   0  0  0  0  0  0  0  0  0  0  0  0
  -24.0572  -12.0630   19.8272 C   0  0  0  0  0  0  0  0  0  0  0  0
  -25.2181  -13.9034   20.8770 C   0  0  0  0  0  0  0  0  0  0  0  0
  -29.9637  -23.3594   16.6138 C   0  0  0  0  0  0  0  0  0  0  0  0
  -27.4782  -24.2183   17.5253 C   0  0  0  0  0  0  0  0  0  0  0  0
  -24.8295  -28.5069   18.0121 C   0  0  0  0  0  0  0  0  0  0  0  0
  -25.2062  -11.7532   19.0997 C   0  0  0  0  0  0  0  0  0  0  0  0
  -26.3672  -13.5936   20.1495 C   0  0  0  0  0  0  0  0  0  0  0  0
  -23.4444  -28.4184   17.8795 C   0  0  0  0  0  0  0  0  0  0  0  0
  -28.8779  -11.3368   20.3037 C   0  0  0  0  0  0  0  0  0  0  0  0
  -30.0932  -11.3261   20.9881 C   0  0  0  0  0  0  0  0  0  0  0  0
  -19.5809  -21.5141   21.1505 C   0  0  0  0  0  0  0  0  0  0  0  0
  -23.2191  -28.4417   20.2811 C   0  0  0  0  0  0  0  0  0  0  0  0
  -30.9330  -13.0546   19.5237 C   0  0  0  0  0  0  0  0  0  0  0  0
  -21.8615  -22.2527   22.5773 C   0  0  0  0  0  0  0  0  0  0  0  0
  -24.0631  -13.1382   20.7159 C   0  0  0  0  0  0  0  0  0  0  0  0
  -19.9881  -22.8480   21.1727 C   0  0  0  0  0  0  0  0  0  0  0  0
  -22.5132  -12.9655   22.7347 C   0  0  0  0  0  0  0  0  0  0  0  0
  -29.8201  -23.7504   17.9543 C   0  0  0  0  0  0  0  0  0  0  0  0
  -25.4214  -28.5526   19.2825 C   0  0  0  0  0  0  0  0  0  0  0  0
  -28.5611  -24.1754   18.4198 C   0  0  0  0  0  0  0  0  0  0  0  0
  -24.6117  -28.5334   20.4271 C   0  0  0  0  0  0  0  0  0  0  0  0
  -20.3140  -20.5495   21.8417 C   0  0  0  0  0  0  0  0  0  0  0  0
  -26.3612  -12.5184   19.2608 C   0  0  0  0  0  0  0  0  0  0  0  0
  -22.6392  -28.3828   19.0141 C   0  0  0  0  0  0  0  0  0  0  0  0
  -28.6901  -12.2063   19.2292 C   0  0  0  0  0  0  0  0  0  0  0  0
  -31.1208  -12.1850   20.5982 C   0  0  0  0  0  0  0  0  0  0  0  0
  -21.1284  -23.2174   21.8861 C   0  0  0  0  0  0  0  0  0  0  0  0
  -21.4543  -20.9188   22.5551 C   0  0  0  0  0  0  0  0  0  0  0  0
  -29.7177  -13.0652   18.8393 C   0  0  0  0  0  0  0  0  0  0  0  0
  -22.8763  -13.4591   21.4673 C   0  0  0  0  0  0  0  0  0  0  0  0
  -21.3103  -13.5701   23.0069 C   0  0  0  0  0  0  0  0  0  0  0  0
  -19.2042  -23.8725   20.4357 C   0  0  0  0  0  0  0  0  0  0  0  0
  -23.2017  -12.0430   23.5895 C   0  0  0  0  0  0  0  0  0  0  0  0
  -27.4505  -26.6990   20.8796 C   0  0  0  0  0  0  0  0  0  0  0  0
  -27.3373  -29.1092   23.0477 C   0  0  0  0  0  0  0  0  0  0  0  0
  -25.6227  -31.7576   24.3488 C   0  0  0  0  0  0  0  0  0  0  0  0
  -18.7906  -18.6631   21.1583 C   0  0  0  0  0  0  0  0  0  0  0  0
  -31.0095  -23.6377   18.8748 C   0  0  0  0  0  0  0  0  0  0  0  0
  -26.9153  -28.6750   19.4082 C   0  0  0  0  0  0  0  0  0  0  0  0
  -25.1966  -28.6002   21.8134 C   0  0  0  0  0  0  0  0  0  0  0  0
  -30.8471  -24.4159   20.1780 C   0  0  0  0  0  0  0  0  0  0  0  0
  -17.4509  -15.3811   20.8253 C   0  0  0  0  0  0  0  0  0  0  0  0
  -29.4741  -24.1536   20.7887 C   0  0  0  0  0  0  0  0  0  0  0  0
  -18.6558  -14.4708   21.0735 C   0  0  0  0  0  0  0  0  0  0  0  0
  -17.8426  -16.6448   20.0616 C   0  0  0  0  0  0  0  0  0  0  0  0
  -20.1548  -16.4980   20.8992 C   0  0  0  0  0  0  0  0  0  0  0  0
  -28.3547  -24.6217   19.8510 C   0  0  1  0  0  0  0  0  0  0  0  0
  -27.4426  -28.1966   20.7574 C   0  0  1  0  0  0  0  0  0  0  0  0
  -19.8214  -15.2429   21.7222 C   0  0  2  0  0  0  0  0  0  0  0  0
  -25.7672  -33.5099   26.1393 C   0  0  0  0  0  0  0  0  0  0  0  0
  -26.6216  -27.0167   25.1500 C   0  0  0  0  0  0  0  0  0  0  0  0
  -25.8615  -28.8775   26.6426 C   0  0  0  0  0  0  0  0  0  0  0  0
  -28.2459  -28.7556   25.9196 C   0  0  0  0  0  0  0  0  0  0  0  0
  -25.5587  -33.9541   22.3664 C   0  0  0  0  0  0  0  0  0  0  0  0
  -19.3170  -27.0049   19.3468 C   0  0  0  0  0  0  0  0  0  0  0  0
  -18.4951  -26.2495   20.3824 C   0  0  0  0  0  0  0  0  0  0  0  0
  -20.5786  -27.6285   19.9312 C   0  0  0  0  0  0  0  0  0  1  0  0
  -26.4759  -29.4304   24.2452 C   0  0  1  0  0  0  0  0  0  0  0  0
  -26.0584  -33.1723   24.6854 C   0  0  2  0  0  0  0  0  0  0  0  0
  -26.7900  -28.5168   25.4634 C   0  0  0  0  0  0  0  0  0  0  0  0
  -21.9769  -14.3114   20.9688 N   0  0  0  0  0  0  0  0  0  0  0  0
  -21.0366  -14.3581   21.9279 N   0  0  0  0  0  0  0  0  0  0  0  0
  -26.6628  -28.7128   21.8842 N   0  0  0  0  0  0  0  0  0  0  0  0
  -18.9494  -17.3260   20.7368 N   0  0  0  0  0  0  0  0  0  0  0  0
  -20.4706  -13.4991   24.0615 N   0  0  0  0  0  0  0  0  0  0  0  0
  -24.4262  -11.5168   23.1560 N   0  0  0  0  0  0  0  0  0  0  0  0
  -19.8982  -19.1952   21.8177 N   0  0  0  0  0  0  0  0  0  0  0  0
  -19.2226  -25.1572   20.9670 N   0  0  0  0  0  0  0  0  0  0  0  0
  -28.2084  -26.0600   19.9170 N   0  0  0  0  0  0  0  0  0  0  0  0
  -26.6533  -30.8550   24.5052 N   0  0  0  0  0  0  0  0  0  0  0  0
  -25.3423  -34.1539   23.8225 N   0  3  0  0  0  0  0  0  0  0  0  0
  -18.5780  -23.5415   19.4322 O   0  0  0  0  0  0  0  0  0  0  0  0
  -22.7365  -11.6830   24.6974 O   0  0  0  0  0  0  0  0  0  0  0  0
  -26.8171  -26.1631   21.7815 O   0  0  0  0  0  0  0  0  0  0  0  0
  -28.5631  -29.2132   23.1392 O   0  0  0  0  0  0  0  0  0  0  0  0
  -24.4812  -31.4804   23.9872 O   0  0  0  0  0  0  0  0  0  0  0  0
  -17.7389  -19.2811   20.9739 O   0  0  0  0  0  0  0  0  0  0  0  0
  -27.4827  -12.2162   18.5512 O   0  0  0  0  0  0  0  0  0  0  0  0
  -21.2871  -28.2958   18.8875 O   0  0  0  0  0  0  0  0  0  1  0  0
  -32.2873  -12.1758   21.2565 F   0  0  0  0  0  0  0  0  0  0  0  0
  -21.5285  -24.4964   21.9145 F   0  0  0  0  0  0  0  0  0  0  0  0
  -22.1663  -20.0002   23.2233 F   0  0  0  0  0  0  0  0  0  0  0  0
  -29.5428  -13.9036   17.8086 F   0  0  0  0  0  0  0  0  0  0  0  0
  1  2  1  0  0  0  0
  1  5  2  0  0  0  0
  2  6  2  0  0  0  0
  3  8  2  0  0  0  0
  3 17  1  0  0  0  0
  4  9  1  0  0  0  0
  4 17  2  0  0  0  0
  5 20  1  0  0  0  0
  6 22  1  0  0  0  0
  7 10  2  0  0  0  0
  7 21  1  0  0  0  0
  8 25  1  0  0  0  0
  9 25  2  0  0  0  0
 10 26  1  0  0  0  0
 11 12  2  0  0  0  0
 11 27  1  0  0  0  0
 12 28  1  0  0  0  0
 13 18  1  0  0  0  0
 13 24  2  0  0  0  0
 14 23  1  0  0  0  0
 14 26  2  0  0  0  0
 15 28  2  0  0  0  0
 15 31  1  0  0  0  0
 16 29  1  0  0  0  0
 16 30  2  0  0  0  0
 17 32  1  0  0  0  0
 18 29  2  0  0  0  0
 18 34  1  0  0  0  0
 19 32  1  0  0  0  0
 19 33  2  0  0  0  0
 19 35  1  0  0  0  0
 20 22  2  0  0  0  0
 20 40  1  0  0  0  0
 21 23  2  0  0  0  0
 21 41  1  0  0  0  0
 22 49  1  0  0  0  0
 23 42  1  0  0  0  0
 24 30  1  0  0  0  0
 24 69  1  0  0  0  0
 25 80  1  0  0  0  0
 26 81  1  0  0  0  0
 27 31  2  0  0  0  0
 27 80  1  0  0  0  0
 28 82  1  0  0  0  0
 29 83  1  0  0  0  0
 30 84  1  0  0  0  0
 31 85  1  0  0  0  0
 32 63  2  0  0  0  0
 33 64  1  0  0  0  0
 33 67  1  0  0  0  0
 34 70  1  0  0  0  0
 34 74  2  0  0  0  0
 35 68  1  0  0  0  0
 35 75  2  0  0  0  0
 36 50  1  0  0  0  0
 36 71  1  0  0  0  0
 36 76  2  0  0  0  0
 37 60  1  0  0  0  0
 37 65  1  0  0  0  0
 37 77  2  0  0  0  0
 38 61  1  0  0  0  0
 38 72  1  0  0  0  0
 38 78  2  0  0  0  0
 39 66  1  0  0  0  0
 39 69  1  0  0  0  0
 39 79  2  0  0  0  0
 40 43  1  0  0  0  0
 41 50  1  0  0  0  0
 42 65  1  0  0  0  0
 43 45  1  0  0  0  0
 44 46  1  0  0  0  0
 44 47  1  0  0  0  0
 45 49  1  0  0  0  0
 46 51  1  0  0  0  0
 47 66  1  0  0  0  0
 48 51  1  0  0  0  0
 48 66  1  0  0  0  0
 49 71  1  0  0  0  0
 50 65  1  0  0  0  0
 51 64  1  0  0  0  0
 52 61  1  0  0  0  0
 53 62  1  0  0  0  0
 54 62  1  0  0  0  0
 55 62  1  0  0  0  0
 56 73  1  0  0  0  0
 57 58  1  0  0  0  0
 57 59  1  0  0  0  0
 58 70  1  0  0  0  0
 59 81  1  0  0  0  0
 60 62  1  0  0  0  0
 60 72  1  0  0  0  0
 61 73  1  0  0  0  0
 63 64  1  0  0  0  0
M  CHG  1  73   1
M  ISO  4  39 100  59 101  69 100  81 101
M  END
> <Batch ID>
0016

> <Smiles>
CNC(C)C(=O)NC(C(=O)N1Cc2cc([101O:1][101CH2:1]CCNC(=O)c3cc([100NH:0][100C:0](=O)N4CCCC(n5nc(-c6ccc(Oc7ccc(F)cc7F)cc6)c(C(N)=O)c5N)C4)c(F)cc3F)ccc2CC1C(=O)NC1CCCc2ccccc21)C(C)(C)C

> <Shape>
0.231

> <Color>
0.065

> <Negative vol penalty>
0.000

$$$$

  -OEChem-04042320573D

 93101  0     1  0  0  0  0  0999 V2000
  -32.1653  -15.2255   20.5687 C   0  0  0  0  0  0  0  0  0  0  0  0
  -31.1643  -16.1592   20.8170 C   0  0  0  0  0  0  0  0  0  0  0  0
  -26.0824  -28.7149   25.9733 C   0  0  0  0  0  0  0  0  0  0  0  0
  -29.8284  -23.5352   21.4462 C   0  0  0  0  0  0  0  0  0  0  0  0
  -30.4538  -23.7811   19.1256 C   0  0  0  0  0  0  0  0  0  0  0  0
  -31.8348  -13.9681   20.0653 C   0  0  0  0  0  0  0  0  0  0  0  0
  -29.8322  -15.8364   20.5609 C   0  0  0  0  0  0  0  0  0  0  0  0
  -26.7345  -17.2552   24.3074 C   0  0  0  0  0  0  0  0  0  0  0  0
  -26.3861  -29.6653   24.9985 C   0  0  0  0  0  0  0  0  0  0  0  0
  -24.8838  -28.0047   25.9054 C   0  0  0  0  0  0  0  0  0  0  0  0
  -30.1130  -22.1714   21.3784 C   0  0  0  0  0  0  0  0  0  0  0  0
  -30.7384  -22.4173   19.0577 C   0  0  0  0  0  0  0  0  0  0  0  0
  -26.3879  -18.6041   24.3706 C   0  0  0  0  0  0  0  0  0  0  0  0
  -31.2866  -18.9350   18.1726 C   0  0  0  0  0  0  0  0  0  0  0  0
  -30.8221  -18.2302   17.0622 C   0  0  0  0  0  0  0  0  0  0  0  0
  -24.2780  -18.1052   23.3130 C   0  0  0  0  0  0  0  0  0  0  0  0
  -24.2926  -29.1952   23.8880 C   0  0  0  0  0  0  0  0  0  0  0  0
  -28.5509  -18.8189   17.6386 C   0  0  0  0  0  0  0  0  0  0  0  0
  -29.9988  -24.3401   20.3198 C   0  0  0  0  0  0  0  0  0  0  0  0
  -30.5901  -26.7862   20.7374 C   0  0  0  0  0  0  0  0  0  0  0  0
  -30.4970  -13.6262   19.8120 C   0  0  0  0  0  0  0  0  0  0  0  0
  -25.8586  -16.3212   23.7357 C   0  0  0  0  0  0  0  0  0  0  0  0
  -29.4836  -14.5736   20.0523 C   0  0  0  0  0  0  0  0  0  0  0  0
  -24.6148  -16.7447   23.2461 C   0  0  0  0  0  0  0  0  0  0  0  0
  -25.4912  -29.9054   23.9559 C   0  0  0  0  0  0  0  0  0  0  0  0
  -23.9889  -28.2448   24.8628 C   0  0  0  0  0  0  0  0  0  0  0  0
  -30.5680  -21.6124   20.1842 C   0  0  0  0  0  0  0  0  0  0  0  0
  -25.1607  -19.0298   23.8708 C   0  0  0  0  0  0  0  0  0  0  0  0
  -30.3832  -19.5817   19.0161 C   0  0  0  0  0  0  0  0  0  0  0  0
  -29.4543  -18.1722   16.7951 C   0  0  0  0  0  0  0  0  0  0  0  0
  -29.0154  -19.5237   18.7491 C   0  0  0  0  0  0  0  0  0  0  0  0
  -29.7045  -25.7489   20.3890 C   0  0  0  0  0  0  0  0  0  0  0  0
  -29.8315  -27.9281   20.6531 C   0  0  0  0  0  0  0  0  0  0  0  0
  -31.9747  -26.7233   21.1043 C   0  0  0  0  0  0  0  0  0  0  0  0
  -25.9925  -14.3537   21.2428 C   0  0  0  0  0  0  0  0  0  0  0  0
  -23.1488  -13.3134   22.4061 C   0  0  0  0  0  0  0  0  0  0  0  0
  -20.3662  -13.9698   24.2697 C   0  0  0  0  0  0  0  0  0  0  0  0
  -21.5809  -25.5614   24.1693 C   0  0  0  0  0  0  0  0  0  0  0  0
  -25.3310  -30.7594   21.6243 C   0  0  0  0  0  0  0  0  0  0  0  0
  -30.1929  -12.2713   19.2234 C   0  0  0  0  0  0  0  0  0  0  0  0
  -26.2361  -14.8657   23.6993 C   0  0  0  0  0  0  0  0  0  0  0  0
  -23.6302  -15.7788   22.6409 C   0  0  0  0  0  0  0  0  0  0  0  0
  -28.7225  -11.8760   19.3322 C   0  0  0  0  0  0  0  0  0  0  0  0
  -25.2262  -28.6981   18.7289 C   0  0  0  0  0  0  0  0  0  0  0  0
  -27.8256  -13.0326   18.9025 C   0  0  0  0  0  0  0  0  0  0  0  0
  -26.4579  -27.8179   18.9383 C   0  0  0  0  0  0  0  0  0  0  0  0
  -24.4794  -28.9583   20.0376 C   0  0  0  0  0  0  0  0  0  0  0  0
  -26.5649  -28.6248   21.3276 C   0  0  0  0  0  0  0  0  0  0  0  0
  -28.0247  -14.2520   19.8107 C   0  0  1  0  0  0  0  0  0  0  0  0
  -25.4838  -14.0798   22.6298 C   0  0  1  0  0  0  0  0  0  0  0  0
  -27.3677  -28.3938   20.0378 C   0  0  1  0  0  0  0  0  0  0  0  0
  -18.1994  -12.9393   25.0048 C   0  0  0  0  0  0  0  0  0  0  0  0
  -20.5924  -29.5727   24.8122 C   0  0  0  0  0  0  0  0  0  0  0  0
  -20.3672  -29.1612   27.2829 C   0  0  0  0  0  0  0  0  0  0  0  0
  -21.7058  -27.5527   22.6188 C   0  0  0  0  0  0  0  0  0  0  0  0
  -23.7674  -26.1657   23.0477 C   0  0  0  0  0  0  0  0  0  0  0  0
  -21.9758  -13.8074   19.6331 C   0  0  0  0  0  0  0  0  0  0  0  0
  -19.6927  -13.6846   20.6533 C   0  0  0  0  0  0  0  0  0  0  0  0
  -21.2011  -11.6993   20.7330 C   0  0  0  0  0  0  0  0  0  0  0  0
  -26.4223  -32.1520   23.3693 C   0  0  0  0  0  0  0  0  0  0  0  0
  -21.1180  -14.1456   27.1268 C   0  0  0  0  0  0  0  0  0  0  0  0
  -21.7745  -22.3263   24.9527 C   0  0  0  0  0  0  0  0  0  0  0  0
  -23.2523  -21.9692   24.7903 C   0  0  0  0  0  0  0  0  0  0  0  0
  -21.5683  -23.6210   25.7324 C   0  0  0  0  0  0  0  0  0  0  0  0
  -21.8152  -27.6148   25.8817 C   0  0  0  0  0  0  0  0  0  0  0  0
  -23.4312  -20.6529   24.0443 C   0  0  0  0  0  0  0  0  0  1  0  0
  -21.7037  -13.6974   22.1982 C   0  0  1  0  0  0  0  0  0  0  0  0
  -19.6635  -13.1655   25.3484 C   0  0  2  0  0  0  0  0  0  0  0  0
  -21.2874  -29.0427   26.0672 C   0  0  0  0  0  0  0  0  0  0  0  0
  -22.4668  -26.7084   23.6451 C   0  0  0  0  0  0  0  0  0  0  0  0
  -21.1625  -13.2409   20.8140 C   0  0  0  0  0  0  0  0  0  0  0  0
  -28.4771  -26.1924   20.1047 N   0  0  0  0  0  0  0  0  0  0  0  0
  -28.5861  -27.5211   20.2744 N   0  0  0  0  0  0  0  0  0  0  0  0
  -24.0479  -14.3672   22.6224 N   0  0  0  0  0  0  0  0  0  0  0  0
  -25.3955  -29.4680   21.0677 N   0  0  0  0  0  0  0  0  0  0  0  0
  -30.1150  -29.2306   20.8667 N   0  0  0  0  0  0  0  0  0  0  0  0
  -32.5999  -25.4694   21.1407 N   0  0  0  0  0  0  0  0  0  0  0  0
  -27.3324  -14.0645   21.0677 N   0  0  0  0  0  0  0  0  0  0  0  0
  -22.2072  -24.7478   25.1097 N   0  0  0  0  0  0  0  0  0  0  0  0
  -20.9693  -13.1542   23.3357 N   0  0  0  0  0  0  0  0  0  0  0  0
  -25.8060  -30.8896   22.9471 N   0  0  0  0  0  0  0  0  0  0  0  0
  -22.7875  -27.5332   24.7954 N   0  0  3  0  0  0  0  0  0  0  0  0
  -19.7349  -13.8782   26.6553 N   0  3  0  0  0  0  0  0  0  0  0  0
  -32.6335  -27.7468   21.4073 O   0  0  0  0  0  0  0  0  0  0  0  0
  -25.2259  -14.7933   20.3938 O   0  0  0  0  0  0  0  0  0  0  0  0
  -23.4669  -12.1217   22.3847 O   0  0  0  0  0  0  0  0  0  0  0  0
  -20.3758  -15.1987   24.2549 O   0  0  0  0  0  0  0  0  0  0  0  0
  -20.4236  -25.3907   23.7849 O   0  0  0  0  0  0  0  0  0  0  0  0
  -24.9065  -31.7265   20.9805 O   0  0  0  0  0  0  0  0  0  0  0  0
  -30.8460  -20.2817   20.1178 O   0  0  0  0  0  0  0  0  0  0  0  0
  -24.8202  -20.3459   23.9306 O   0  0  0  0  0  0  0  0  0  1  0  0
  -29.0085  -17.4966   15.7279 F   0  0  0  0  0  0  0  0  0  0  0  0
  -28.1428  -20.1439   19.5551 F   0  0  0  0  0  0  0  0  0  0  0  0
  1  2  1  0  0  0  0
  1  6  2  0  0  0  0
  2  7  2  0  0  0  0
  3  9  1  0  0  0  0
  3 10  2  0  0  0  0
  4 11  2  0  0  0  0
  4 19  1  0  0  0  0
  5 12  1  0  0  0  0
  5 19  2  0  0  0  0
  6 21  1  0  0  0  0
  7 23  1  0  0  0  0
  8 13  2  0  0  0  0
  8 22  1  0  0  0  0
  9 25  2  0  0  0  0
 10 26  1  0  0  0  0
 11 27  1  0  0  0  0
 12 27  2  0  0  0  0
 13 28  1  0  0  0  0
 14 15  2  0  0  0  0
 14 29  1  0  0  0  0
 15 30  1  0  0  0  0
 16 24  1  0  0  0  0
 16 28  2  0  0  0  0
 17 25  1  0  0  0  0
 17 26  2  0  0  0  0
 18 30  2  0  0  0  0
 18 31  1  0  0  0  0
 19 32  1  0  0  0  0
 20 32  1  0  0  0  0
 20 33  2  0  0  0  0
 20 34  1  0  0  0  0
 21 23  2  0  0  0  0
 21 40  1  0  0  0  0
 22 24  2  0  0  0  0
 22 41  1  0  0  0  0
 23 49  1  0  0  0  0
 24 42  1  0  0  0  0
 25 81  1  0  0  0  0
 26 82  1  0  0  0  0
 27 90  1  0  0  0  0
 28 91  1  0  0  0  0
 29 31  2  0  0  0  0
 29 90  1  0  0  0  0
 30 92  1  0  0  0  0
 31 93  1  0  0  0  0
 32 72  2  0  0  0  0
 33 73  1  0  0  0  0
 33 76  1  0  0  0  0
 34 77  1  0  0  0  0
 34 84  2  0  0  0  0
 35 50  1  0  0  0  0
 35 78  1  0  0  0  0
 35 85  2  0  0  0  0
 36 67  1  0  0  0  0
 36 74  1  0  0  0  0
 36 86  2  0  0  0  0
 37 68  1  0  0  0  0
 37 80  1  0  0  0  0
 37 87  2  0  0  0  0
 38 70  1  0  0  0  0
 38 79  1  0  0  0  0
 38 88  2  0  0  0  0
 39 75  1  0  0  0  0
 39 81  1  0  0  0  0
 39 89  2  0  0  0  0
 40 43  1  0  0  0  0
 41 50  1  0  0  0  0
 42 74  1  0  0  0  0
 43 45  1  0  0  0  0
 44 46  1  0  0  0  0
 44 47  1  0  0  0  0
 45 49  1  0  0  0  0
 46 51  1  0  0  0  0
 47 75  1  0  0  0  0
 48 51  1  0  0  0  0
 48 75  1  0  0  0  0
 49 78  1  0  0  0  0
 50 74  1  0  0  0  0
 51 73  1  0  0  0  0
 52 68  1  0  0  0  0
 53 69  1  0  0  0  0
 54 69  1  0  0  0  0
 55 70  1  0  0  0  0
 56 70  1  0  0  0  0
 57 71  1  0  0  0  0
 58 71  1  0  0  0  0
 59 71  1  0  0  0  0
 60 81  1  0  0  0  0
 61 83  1  0  0  0  0
 62 63  1  0  0  0  0
 62 64  1  0  0  0  0
 63 66  1  0  0  0  0
 64 79  1  0  0  0  0
 65 69  1  0  0  0  0
 65 82  1  0  0  0  0
 66 91  1  0  0  0  0
 67 71  1  0  0  0  0
 67 80  1  0  0  0  0
 68 83  1  0  0  0  0
 70 82  1  0  0  0  0
 72 73  1  0  0  0  0
M  CHG  1  83   1
M  ISO  4  39 100  66 101  81 100  91 101
M  END
> <Batch ID>
0016

> <Smiles>
CNC(C)C(=O)NC(C(=O)N1Cc2cc([101O:1][101CH2:1]CCCNC(=O)C(C)(C)N(CC(C)C)c3cccc([100N:0](C)[100C:0](=O)N4CCCC(n5nc(-c6ccc(Oc7ccc(F)cc7F)cc6)c(C(N)=O)c5N)C4)c3)ccc2CC1C(=O)NC1CCCc2ccccc21)C(C)(C)C

> <Shape>
0.251

> <Color>
0.062

> <Negative vol penalty>
0.000

$$$$

  -OEChem-04042320573D

 84 93  0     1  0  0  0  0  0999 V2000
  -29.4184  -30.8908   26.6115 C   0  0  0  0  0  0  0  0  0  0  0  0
  -29.2135  -30.0287   25.5391 C   0  0  0  0  0  0  0  0  0  0  0  0
  -24.2455   -8.8599   21.3885 C   0  0  0  0  0  0  0  0  0  0  0  0
  -23.9153  -10.6993   22.9197 C   0  0  0  0  0  0  0  0  0  0  0  0
  -28.3310  -31.3475   27.3551 C   0  0  0  0  0  0  0  0  0  0  0  0
  -27.9209  -29.6218   25.2103 C   0  0  0  0  0  0  0  0  0  0  0  0
  -27.0305  -29.8178   20.2290 C   0  0  0  0  0  0  0  0  0  0  0  0
  -27.2658  -20.0587   18.4370 C   0  0  0  0  0  0  0  0  0  0  0  0
  -27.3195  -18.6654   18.4716 C   0  0  0  0  0  0  0  0  0  0  0  0
  -23.7133   -7.9799   22.3308 C   0  0  0  0  0  0  0  0  0  0  0  0
  -23.3830   -9.8193   23.8620 C   0  0  0  0  0  0  0  0  0  0  0  0
  -27.5466  -28.7841   19.4487 C   0  0  0  0  0  0  0  0  0  0  0  0
  -20.6518   -7.0847   23.4529 C   0  0  0  0  0  0  0  0  0  0  0  0
  -19.7239   -6.1428   23.0087 C   0  0  0  0  0  0  0  0  0  0  0  0
  -25.3769  -27.7302   19.4205 C   0  0  0  0  0  0  0  0  0  0  0  0
  -29.6629  -18.7699   19.0501 C   0  0  0  0  0  0  0  0  0  0  0  0
  -21.1771   -4.3611   23.7510 C   0  0  0  0  0  0  0  0  0  0  0  0
  -24.3465  -10.2196   21.6829 C   0  0  0  0  0  0  0  0  0  0  0  0
  -24.1958  -11.8334   19.7130 C   0  0  0  0  0  0  0  0  0  0  0  0
  -27.0236  -30.9536   27.0293 C   0  0  0  0  0  0  0  0  0  0  0  0
  -25.6840  -29.8099   20.6207 C   0  0  0  0  0  0  0  0  0  0  0  0
  -26.8151  -30.0725   25.9511 C   0  0  0  0  0  0  0  0  0  0  0  0
  -24.8455  -28.7663   20.2036 C   0  0  0  0  0  0  0  0  0  0  0  0
  -28.4108  -20.8078   18.7088 C   0  0  0  0  0  0  0  0  0  0  0  0
  -28.5180  -18.0210   18.7782 C   0  0  0  0  0  0  0  0  0  0  0  0
  -23.2820   -8.4596   23.5675 C   0  0  0  0  0  0  0  0  0  0  0  0
  -26.7205  -27.7386   19.0468 C   0  0  0  0  0  0  0  0  0  0  0  0
  -21.8425   -6.6649   24.0460 C   0  0  0  0  0  0  0  0  0  0  0  0
  -19.9865   -4.7810   23.1578 C   0  0  0  0  0  0  0  0  0  0  0  0
  -29.6093  -20.1633   19.0154 C   0  0  0  0  0  0  0  0  0  0  0  0
  -22.1051   -5.3031   24.1951 C   0  0  0  0  0  0  0  0  0  0  0  0
  -24.8968  -11.1290   20.7101 C   0  0  0  0  0  0  0  0  0  0  0  0
  -25.1636  -12.5543   19.0571 C   0  0  0  0  0  0  0  0  0  0  0  0
  -22.7950  -11.8360   19.4071 C   0  0  0  0  0  0  0  0  0  0  0  0
  -24.1592  -29.7096   23.4079 C   0  0  0  0  0  0  0  0  0  0  0  0
  -21.5376  -30.1385   21.5464 C   0  0  0  0  0  0  0  0  0  0  0  0
  -20.0825  -29.8264   18.4752 C   0  0  0  0  0  0  0  0  0  0  0  0
  -29.6807  -15.8095   19.1000 C   0  0  0  0  0  0  0  0  0  0  0  0
  -25.8840  -31.4358   27.8915 C   0  0  0  0  0  0  0  0  0  0  0  0
  -25.1362  -30.9461   21.4400 C   0  0  0  0  0  0  0  0  0  0  0  0
  -23.3879  -28.7213   20.5804 C   0  0  0  0  0  0  0  0  0  0  0  0
  -24.5127  -31.2546   27.2458 C   0  0  0  0  0  0  0  0  0  0  0  0
  -30.2117  -12.2959   19.3242 C   0  0  0  0  0  0  0  0  0  0  0  0
  -24.3839  -29.8564   26.6498 C   0  0  0  0  0  0  0  0  0  0  0  0
  -28.8186  -11.7371   19.6227 C   0  0  0  0  0  0  0  0  0  0  0  0
  -28.8759  -24.4469   19.0690 C   0  0  0  0  0  0  0  0  0  0  0  0
  -30.4479  -13.6336   20.0231 C   0  0  0  0  0  0  0  0  0  0  0  0
  -29.4956  -23.0570   18.9411 C   0  0  0  0  0  0  0  0  0  0  0  0
  -27.1466  -22.9484   18.3685 C   0  0  0  0  0  0  0  0  0  0  0  0
  -28.0284  -14.0950   20.0727 C   0  0  0  0  0  0  0  0  0  0  0  0
  -25.4257  -29.6282   25.5480 C   0  0  1  0  0  0  0  0  0  0  0  0
  -23.8741  -30.5724   22.2113 C   0  0  1  0  0  0  0  0  0  0  0  0
  -27.6631  -24.3743   18.1458 C   0  0  1  0  0  0  0  0  0  0  0  0
  -27.7201  -12.7801   19.3382 C   0  0  2  0  0  0  0  0  0  0  0  0
  -17.9176  -30.2275   17.2712 C   0  0  0  0  0  0  0  0  0  0  0  0
  -20.3417  -27.6675   22.8784 C   0  0  0  0  0  0  0  0  0  0  0  0
  -18.6651  -27.5639   21.0220 C   0  0  0  0  0  0  0  0  0  0  0  0
  -18.7306  -29.5486   22.5318 C   0  0  0  0  0  0  0  0  0  0  0  0
  -21.3477  -31.7273   16.5925 C   0  0  0  0  0  0  0  0  0  0  0  0
  -26.6231  -25.4417   18.4380 C   0  0  0  0  0  0  0  0  0  1  0  0
  -20.5729  -29.2237   20.8312 C   0  0  1  0  0  0  0  0  0  0  0  0
  -19.2763  -30.8034   17.6386 C   0  0  2  0  0  0  0  0  0  0  0  0
  -19.6055  -28.5005   21.8102 C   0  0  0  0  0  0  0  0  0  0  0  0
  -26.2086  -11.3796   20.6929 N   0  0  0  0  0  0  0  0  0  0  0  0
  -26.3396  -12.2494   19.6769 N   0  0  0  0  0  0  0  0  0  0  0  0
  -28.3550  -22.1849   18.6724 N   0  0  3  0  0  0  0  0  0  0  0  0
  -22.9009  -29.8520   21.3877 N   0  0  0  0  0  0  0  0  0  0  0  0
  -29.3703  -14.5727   19.7040 N   0  0  0  0  0  0  0  0  0  0  0  0
  -25.1148  -13.4128   18.0164 N   0  0  0  0  0  0  0  0  0  0  0  0
  -21.9408  -11.0380   20.1804 N   0  0  0  0  0  0  0  0  0  0  0  0
  -28.5722  -16.6055   18.8134 N   0  0  0  0  0  0  0  0  0  0  0  0
  -25.0191  -30.2847   24.3241 N   0  0  0  0  0  0  0  0  0  0  0  0
  -19.9039  -30.0418   19.8254 N   0  0  0  0  0  0  0  0  0  0  0  0
  -20.0039  -31.1308   16.3799 N   0  3  0  0  0  0  0  0  0  0  0  0
  -22.3174  -12.5129   18.4652 O   0  0  0  0  0  0  0  0  0  0  0  0
  -23.6366  -28.6045   23.4943 O   0  0  0  0  0  0  0  0  0  0  0  0
  -21.0979  -31.0771   22.2152 O   0  0  0  0  0  0  0  0  0  0  0  0
  -20.7961  -28.9566   17.9805 O   0  0  0  0  0  0  0  0  0  0  0  0
  -30.8421  -16.1266   18.8302 O   0  0  0  0  0  0  0  0  0  0  0  0
  -22.7624   -7.6012   24.4872 O   0  0  0  0  0  0  0  0  0  0  0  0
  -27.2219  -26.7280   18.2857 O   0  0  0  0  0  0  0  0  0  1  0  0
  -19.0946   -3.8766   22.7326 F   0  0  0  0  0  0  0  0  0  0  0  0
  -30.7157  -20.8738   19.2768 F   0  0  0  0  0  0  0  0  0  0  0  0
  -23.2467   -4.8937   24.7652 F   0  0  0  0  0  0  0  0  0  0  0  0
  1  2  1  0  0  0  0
  1  5  2  0  0  0  0
  2  6  2  0  0  0  0
  3 10  2  0  0  0  0
  3 18  1  0  0  0  0
  4 11  1  0  0  0  0
  4 18  2  0  0  0  0
  5 20  1  0  0  0  0
  6 22  1  0  0  0  0
  7 12  2  0  0  0  0
  7 21  1  0  0  0  0
  8  9  2  0  0  0  0
  8 24  1  0  0  0  0
  9 25  1  0  0  0  0
 10 26  1  0  0  0  0
 11 26  2  0  0  0  0
 12 27  1  0  0  0  0
 13 14  2  0  0  0  0
 13 28  1  0  0  0  0
 14 29  1  0  0  0  0
 15 23  1  0  0  0  0
 15 27  2  0  0  0  0
 16 25  2  0  0  0  0
 16 30  1  0  0  0  0
 17 29  2  0  0  0  0
 17 31  1  0  0  0  0
 18 32  1  0  0  0  0
 19 32  1  0  0  0  0
 19 33  2  0  0  0  0
 19 34  1  0  0  0  0
 20 22  2  0  0  0  0
 20 39  1  0  0  0  0
 21 23  2  0  0  0  0
 21 40  1  0  0  0  0
 22 51  1  0  0  0  0
 23 41  1  0  0  0  0
 24 30  2  0  0  0  0
 24 66  1  0  0  0  0
 25 71  1  0  0  0  0
 26 80  1  0  0  0  0
 27 81  1  0  0  0  0
 28 31  2  0  0  0  0
 28 80  1  0  0  0  0
 29 82  1  0  0  0  0
 30 83  1  0  0  0  0
 31 84  1  0  0  0  0
 32 64  2  0  0  0  0
 33 65  1  0  0  0  0
 33 69  1  0  0  0  0
 34 70  1  0  0  0  0
 34 75  2  0  0  0  0
 35 52  1  0  0  0  0
 35 72  1  0  0  0  0
 35 76  2  0  0  0  0
 36 61  1  0  0  0  0
 36 67  1  0  0  0  0
 36 77  2  0  0  0  0
 37 62  1  0  0  0  0
 37 73  1  0  0  0  0
 37 78  2  0  0  0  0
 38 68  1  0  0  0  0
 38 71  1  0  0  0  0
 38 79  2  0  0  0  0
 39 42  1  0  0  0  0
 40 52  1  0  0  0  0
 41 67  1  0  0  0  0
 42 44  1  0  0  0  0
 43 45  1  0  0  0  0
 43 47  1  0  0  0  0
 44 51  1  0  0  0  0
 45 54  1  0  0  0  0
 46 48  1  0  0  0  0
 46 53  1  0  0  0  0
 47 68  1  0  0  0  0
 48 66  1  0  0  0  0
 49 53  1  0  0  0  0
 49 66  1  0  0  0  0
 50 54  1  0  0  0  0
 50 68  1  0  0  0  0
 51 72  1  0  0  0  0
 52 67  1  0  0  0  0
 53 60  1  0  0  0  0
 54 65  1  0  0  0  0
 55 62  1  0  0  0  0
 56 63  1  0  0  0  0
 57 63  1  0  0  0  0
 58 63  1  0  0  0  0
 59 74  1  0  0  0  0
 60 81  1  0  0  0  0
 61 63  1  0  0  0  0
 61 73  1  0  0  0  0
 62 74  1  0  0  0  0
 64 65  1  0  0  0  0
M  CHG  1  74   1
M  ISO  4  38 100  60 101  71 100  81 101
M  END
> <Batch ID>
0016

> <Smiles>
CNC(C)C(=O)NC(C(=O)N1Cc2cc([101O:1][101CH2:1]C3CCN(c4ccc([100NH:0][100C:0](=O)N5CCCC(n6nc(-c7ccc(Oc8ccc(F)cc8F)cc7)c(C(N)=O)c6N)C5)cc4F)C3)ccc2CC1C(=O)NC1CCCc2ccccc21)C(C)(C)C

> <Shape>
0.307

> <Color>
0.097

> <Negative vol penalty>
0.000

$$$$

  -OEChem-04042320573D

 88 96  0     1  0  0  0  0  0999 V2000
  -15.9109  -27.2616   23.9204 C   0  0  0  0  0  0  0  0  0  0  0  0
  -16.5898  -26.0547   23.7863 C   0  0  0  0  0  0  0  0  0  0  0  0
  -23.3580  -15.5717   20.8511 C   0  0  0  0  0  0  0  0  0  0  0  0
  -22.7318  -14.1448   19.0049 C   0  0  0  0  0  0  0  0  0  0  0  0
  -16.3811  -28.4008   23.2684 C   0  0  0  0  0  0  0  0  0  0  0  0
  -17.7388  -25.9861   22.9991 C   0  0  0  0  0  0  0  0  0  0  0  0
  -24.0393  -22.6007   22.6011 C   0  0  0  0  0  0  0  0  0  0  0  0
  -30.6657  -16.1741   19.0824 C   0  0  0  0  0  0  0  0  0  0  0  0
  -30.2155  -17.2544   18.3236 C   0  0  0  0  0  0  0  0  0  0  0  0
  -22.3927  -16.5000   20.4611 C   0  0  0  0  0  0  0  0  0  0  0  0
  -21.7664  -15.0730   18.6149 C   0  0  0  0  0  0  0  0  0  0  0  0
  -24.8115  -21.8642   21.7038 C   0  0  0  0  0  0  0  0  0  0  0  0
  -22.0631  -18.9163   18.1209 C   0  0  0  0  0  0  0  0  0  0  0  0
  -22.4304  -20.2618   18.0987 C   0  0  0  0  0  0  0  0  0  0  0  0
  -25.5758  -23.9145   20.6882 C   0  0  0  0  0  0  0  0  0  0  0  0
  -29.5932  -17.1012   21.0387 C   0  0  0  0  0  0  0  0  0  0  0  0
  -20.7066  -20.7590   19.7168 C   0  0  0  0  0  0  0  0  0  0  0  0
  -23.5276  -14.3941   20.1229 C   0  0  0  0  0  0  0  0  0  0  0  0
  -24.3580  -12.3570   21.4146 C   0  0  0  0  0  0  0  0  0  0  0  0
  -17.5419  -28.3483   22.4806 C   0  0  0  0  0  0  0  0  0  0  0  0
  -24.0211  -24.0016   22.5416 C   0  0  0  0  0  0  0  0  0  0  0  0
  -18.2242  -27.1253   22.3349 C   0  0  0  0  0  0  0  0  0  0  0  0
  -24.8046  -24.6665   21.5875 C   0  0  0  0  0  0  0  0  0  0  0  0
  -30.3545  -16.0975   20.4400 C   0  0  0  0  0  0  0  0  0  0  0  0
  -29.4542  -18.2582   18.9223 C   0  0  0  0  0  0  0  0  0  0  0  0
  -21.5968  -16.2506   19.3431 C   0  0  0  0  0  0  0  0  0  0  0  0
  -25.5777  -22.5210   20.7453 C   0  0  0  0  0  0  0  0  0  0  0  0
  -21.0175  -18.4922   18.9410 C   0  0  0  0  0  0  0  0  0  0  0  0
  -21.7522  -21.1831   18.8967 C   0  0  0  0  0  0  0  0  0  0  0  0
  -29.1430  -18.1816   20.2799 C   0  0  0  0  0  0  0  0  0  0  0  0
  -20.3393  -19.4136   19.7389 C   0  0  0  0  0  0  0  0  0  0  0  0
  -24.5251  -13.4352   20.5249 C   0  0  0  0  0  0  0  0  0  0  0  0
  -25.5917  -11.7551   21.4602 C   0  0  0  0  0  0  0  0  0  0  0  0
  -23.1918  -11.9372   22.1353 C   0  0  0  0  0  0  0  0  0  0  0  0
  -21.7846  -26.1949   22.0019 C   0  0  0  0  0  0  0  0  0  0  0  0
  -24.1754  -28.2548   22.7523 C   0  0  0  0  0  0  0  0  0  0  0  0
  -28.7929  -20.6529   18.7121 C   0  0  0  0  0  0  0  0  0  0  0  0
  -27.5297  -28.8489   22.9583 C   0  0  0  0  0  0  0  0  0  0  0  0
  -31.0176  -13.7080   20.6452 C   0  0  0  0  0  0  0  0  0  0  0  0
  -17.9851  -29.5951   21.7569 C   0  0  0  0  0  0  0  0  0  0  0  0
  -23.2036  -24.7823   23.5339 C   0  0  0  0  0  0  0  0  0  0  0  0
  -24.8356  -26.1694   21.4949 C   0  0  0  0  0  0  0  0  0  0  0  0
  -19.4210  -29.5237   21.2440 C   0  0  0  0  0  0  0  0  0  0  0  0
  -29.5177  -11.0407   18.8345 C   0  0  0  0  0  0  0  0  0  0  0  0
  -19.6719  -28.1924   20.5429 C   0  0  0  0  0  0  0  0  0  0  0  0
  -28.0371  -11.2579   19.1450 C   0  0  0  0  0  0  0  0  0  0  0  0
  -30.2577  -12.3616   18.6213 C   0  0  0  0  0  0  0  0  0  0  0  0
  -28.6138  -13.5453   20.0429 C   0  0  0  0  0  0  0  0  0  0  0  0
  -19.4881  -27.0165   21.5098 C   0  0  1  0  0  0  0  0  0  0  0  0
  -22.8604  -26.1881   23.0508 C   0  0  1  0  0  0  0  0  0  0  0  0
  -27.8569  -12.2368   20.3187 C   0  0  1  0  0  0  0  0  0  0  0  0
  -29.1794  -30.6382   23.5699 C   0  0  0  0  0  0  0  0  0  0  0  0
  -26.3752  -18.5381   16.9161 C   0  0  0  0  0  0  0  0  0  0  0  0
  -27.6686  -17.7631   14.9034 C   0  0  0  0  0  0  0  0  0  0  0  0
  -23.6161  -29.6709   20.1081 C   0  0  0  0  0  0  0  0  0  0  0  0
  -25.8391  -30.8021   20.3238 C   0  0  0  0  0  0  0  0  0  0  0  0
  -24.0682  -31.1996   22.0350 C   0  0  0  0  0  0  0  0  0  0  0  0
  -31.3211  -15.2367   22.5808 C   0  0  0  0  0  0  0  0  0  0  0  0
  -28.6859  -27.2029   25.1292 C   0  0  0  0  0  0  0  0  0  0  0  0
  -27.8157  -21.5749   17.9823 C   0  0  0  0  0  0  0  0  0  0  0  0
  -28.8353  -19.1446   16.6871 C   0  0  0  0  0  0  0  0  0  0  0  0
  -27.0925  -22.5422   18.9121 C   0  0  0  0  0  0  0  0  0  1  0  0
  -25.2552  -28.9682   21.9751 C   0  0  1  0  0  0  0  0  0  0  0  0
  -28.3814  -29.4424   24.0659 C   0  0  2  0  0  0  0  0  0  0  0  0
  -27.7456  -18.1068   16.3916 C   0  0  0  0  0  0  0  0  0  0  0  0
  -24.6928  -30.1318   21.1107 C   0  0  0  0  0  0  0  0  0  0  0  0
  -25.7671  -13.5161   20.0403 N   0  0  0  0  0  0  0  0  0  0  0  0
  -26.3917  -12.4812   20.6277 N   0  0  0  0  0  0  0  0  0  0  0  0
  -24.0145  -26.8882   22.4832 N   0  0  0  0  0  0  0  0  0  0  0  0
  -30.0233  -13.2777   19.7465 N   0  0  0  0  0  0  0  0  0  0  0  0
  -26.0595  -10.6810   22.1308 N   0  0  0  0  0  0  0  0  0  0  0  0
  -22.0070  -12.6681   21.9732 N   0  0  0  0  0  0  0  0  0  0  0  0
  -20.6445  -26.8837   22.3698 N   0  0  0  0  0  0  0  0  0  0  0  0
  -26.2572  -29.3799   22.9522 N   0  0  0  0  0  0  0  0  0  0  0  0
  -28.9884  -19.3796   18.1314 N   0  0  0  0  0  0  0  0  0  0  0  0
  -30.8210  -14.9794   21.2259 N   0  0  0  0  0  0  0  0  0  0  0  0
  -29.3361  -28.4239   24.5875 N   0  3  0  0  0  0  0  0  0  0  0  0
  -23.2045  -10.9530   22.9130 O   0  0  0  0  0  0  0  0  0  0  0  0
  -21.9752  -25.6191   20.9371 O   0  0  0  0  0  0  0  0  0  0  0  0
  -23.5044  -28.8852   23.5732 O   0  0  0  0  0  0  0  0  0  0  0  0
  -29.3701  -21.0617   19.7227 O   0  0  0  0  0  0  0  0  0  0  0  0
  -27.9522  -28.0018   22.1744 O   0  0  0  0  0  0  0  0  0  0  0  0
  -31.9920  -13.0004   20.9275 O   0  0  0  0  0  0  0  0  0  0  0  0
  -20.6546  -17.1560   18.9624 O   0  0  0  0  0  0  0  0  0  0  0  0
  -26.3318  -21.8046   19.8679 O   0  0  0  0  0  0  0  0  0  1  0  0
  -22.1060  -22.4748   18.8765 F   0  0  0  0  0  0  0  0  0  0  0  0
  -28.4132  -19.1414   20.8664 F   0  0  0  0  0  0  0  0  0  0  0  0
  -19.3347  -19.0119   20.5297 F   0  0  0  0  0  0  0  0  0  0  0  0
  1  2  1  0  0  0  0
  1  5  2  0  0  0  0
  2  6  2  0  0  0  0
  3 10  2  0  0  0  0
  3 18  1  0  0  0  0
  4 11  1  0  0  0  0
  4 18  2  0  0  0  0
  5 20  1  0  0  0  0
  6 22  1  0  0  0  0
  7 12  2  0  0  0  0
  7 21  1  0  0  0  0
  8  9  2  0  0  0  0
  8 24  1  0  0  0  0
  9 25  1  0  0  0  0
 10 26  1  0  0  0  0
 11 26  2  0  0  0  0
 12 27  1  0  0  0  0
 13 14  2  0  0  0  0
 13 28  1  0  0  0  0
 14 29  1  0  0  0  0
 15 23  1  0  0  0  0
 15 27  2  0  0  0  0
 16 24  2  0  0  0  0
 16 30  1  0  0  0  0
 17 29  2  0  0  0  0
 17 31  1  0  0  0  0
 18 32  1  0  0  0  0
 19 32  1  0  0  0  0
 19 33  2  0  0  0  0
 19 34  1  0  0  0  0
 20 22  2  0  0  0  0
 20 40  1  0  0  0  0
 21 23  2  0  0  0  0
 21 41  1  0  0  0  0
 22 49  1  0  0  0  0
 23 42  1  0  0  0  0
 24 76  1  0  0  0  0
 25 30  2  0  0  0  0
 25 75  1  0  0  0  0
 26 84  1  0  0  0  0
 27 85  1  0  0  0  0
 28 31  2  0  0  0  0
 28 84  1  0  0  0  0
 29 86  1  0  0  0  0
 30 87  1  0  0  0  0
 31 88  1  0  0  0  0
 32 67  2  0  0  0  0
 33 68  1  0  0  0  0
 33 71  1  0  0  0  0
 34 72  1  0  0  0  0
 34 78  2  0  0  0  0
 35 50  1  0  0  0  0
 35 73  1  0  0  0  0
 35 79  2  0  0  0  0
 36 63  1  0  0  0  0
 36 69  1  0  0  0  0
 36 80  2  0  0  0  0
 37 60  1  0  0  0  0
 37 75  1  0  0  0  0
 37 81  2  0  0  0  0
 38 64  1  0  0  0  0
 38 74  1  0  0  0  0
 38 82  2  0  0  0  0
 39 70  1  0  0  0  0
 39 76  1  0  0  0  0
 39 83  2  0  0  0  0
 40 43  1  0  0  0  0
 41 50  1  0  0  0  0
 42 69  1  0  0  0  0
 43 45  1  0  0  0  0
 44 46  1  0  0  0  0
 44 47  1  0  0  0  0
 45 49  1  0  0  0  0
 46 51  1  0  0  0  0
 47 70  1  0  0  0  0
 48 51  1  0  0  0  0
 48 70  1  0  0  0  0
 49 73  1  0  0  0  0
 50 69  1  0  0  0  0
 51 68  1  0  0  0  0
 52 64  1  0  0  0  0
 53 65  1  0  0  0  0
 54 65  1  0  0  0  0
 55 66  1  0  0  0  0
 56 66  1  0  0  0  0
 57 66  1  0  0  0  0
 58 76  1  0  0  0  0
 59 77  1  0  0  0  0
 60 62  1  0  0  0  0
 61 65  1  0  0  0  0
 61 75  1  0  0  0  0
 62 85  1  0  0  0  0
 63 66  1  0  0  0  0
 63 74  1  0  0  0  0
 64 77  1  0  0  0  0
 67 68  1  0  0  0  0
M  CHG  1  77   1
M  ISO  4  39 100  62 101  76 100  85 101
M  END
> <Batch ID>
0016

> <Smiles>
CNC(C)C(=O)NC(C(=O)N1Cc2cc([101O:1][101CH2:1]CC(=O)N(CC(C)C)c3ccc([100N:0](C)[100C:0](=O)N4CCCC(n5nc(-c6ccc(Oc7ccc(F)cc7F)cc6)c(C(N)=O)c5N)C4)cc3F)ccc2CC1C(=O)NC1CCCc2ccccc21)C(C)(C)C

> <Shape>
0.254

> <Color>
0.092

> <Negative vol penalty>
0.000

$$$$

  -OEChem-04042320573D

 83 91  0     1  0  0  0  0  0999 V2000
  -17.4048  -11.4590   22.9787 C   0  0  0  0  0  0  0  0  0  0  0  0
  -17.8097  -12.7294   22.5818 C   0  0  0  0  0  0  0  0  0  0  0  0
  -28.6058  -28.2756   20.6917 C   0  0  0  0  0  0  0  0  0  0  0  0
  -27.3373  -26.7674   19.2940 C   0  0  0  0  0  0  0  0  0  0  0  0
  -18.3307  -10.5737   23.5290 C   0  0  0  0  0  0  0  0  0  0  0  0
  -19.1407  -13.1156   22.7359 C   0  0  0  0  0  0  0  0  0  0  0  0
  -22.3674  -16.7678   19.0271 C   0  0  0  0  0  0  0  0  0  0  0  0
  -21.9060  -24.8222   19.6584 C   0  0  0  0  0  0  0  0  0  0  0  0
  -23.3037  -25.3068   21.5685 C   0  0  0  0  0  0  0  0  0  0  0  0
  -22.8105  -23.8442   19.2446 C   0  0  0  0  0  0  0  0  0  0  0  0
  -24.2082  -24.3288   21.1548 C   0  0  0  0  0  0  0  0  0  0  0  0
  -29.7399  -27.4822   20.5186 C   0  0  0  0  0  0  0  0  0  0  0  0
  -28.4715  -25.9740   19.1209 C   0  0  0  0  0  0  0  0  0  0  0  0
  -22.6865  -18.1235   19.0908 C   0  0  0  0  0  0  0  0  0  0  0  0
  -30.1679  -23.6357   20.8774 C   0  0  0  0  0  0  0  0  0  0  0  0
  -30.0168  -22.2543   20.9975 C   0  0  0  0  0  0  0  0  0  0  0  0
  -24.8094  -17.5706   20.0942 C   0  0  0  0  0  0  0  0  0  0  0  0
  -30.7885  -21.9724   18.7254 C   0  0  0  0  0  0  0  0  0  0  0  0
  -27.4045  -27.9182   20.0794 C   0  0  0  0  0  0  0  0  0  0  0  0
  -25.8231  -29.8214   19.4594 C   0  0  0  0  0  0  0  0  0  0  0  0
  -19.6757  -10.9457   23.6810 C   0  0  0  0  0  0  0  0  0  0  0  0
  -23.2639  -15.8023   19.5073 C   0  0  0  0  0  0  0  0  0  0  0  0
  -20.0852  -12.2348   23.2899 C   0  0  0  0  0  0  0  0  0  0  0  0
  -24.5004  -16.2032   20.0331 C   0  0  0  0  0  0  0  0  0  0  0  0
  -22.1527  -25.5535   20.8203 C   0  0  0  0  0  0  0  0  0  0  0  0
  -23.9615  -23.5975   19.9928 C   0  0  0  0  0  0  0  0  0  0  0  0
  -29.6727  -26.3315   19.7332 C   0  0  0  0  0  0  0  0  0  0  0  0
  -23.9063  -18.5253   19.6271 C   0  0  0  0  0  0  0  0  0  0  0  0
  -30.6291  -24.1856   19.6813 C   0  0  0  0  0  0  0  0  0  0  0  0
  -30.3272  -21.4227   19.9215 C   0  0  0  0  0  0  0  0  0  0  0  0
  -30.9394  -23.3539   18.6053 C   0  0  0  0  0  0  0  0  0  0  0  0
  -26.2325  -28.7370   20.2583 C   0  0  0  0  0  0  0  0  0  0  0  0
  -24.6590  -30.2579   20.0434 C   0  0  0  0  0  0  0  0  0  0  0  0
  -26.4398  -30.3839   18.2937 C   0  0  0  0  0  0  0  0  0  0  0  0
  -23.1777  -13.6065   21.8039 C   0  0  0  0  0  0  0  0  0  0  0  0
  -26.0382  -12.7388   20.5443 C   0  0  0  0  0  0  0  0  0  0  0  0
  -28.8011  -13.6246   18.7475 C   0  0  0  0  0  0  0  0  0  0  0  0
  -20.8438  -27.1644   23.7058 C   0  0  0  0  0  0  0  0  0  0  0  0
  -20.6302   -9.9713   24.3245 C   0  0  0  0  0  0  0  0  0  0  0  0
  -22.9161  -14.3424   19.4068 C   0  0  0  0  0  0  0  0  0  0  0  0
  -25.5063  -15.2050   20.5434 C   0  0  0  0  0  0  0  0  0  0  0  0
  -22.0994  -10.3247   24.1080 C   0  0  0  0  0  0  0  0  0  0  0  0
  -22.4207  -30.4671   24.2602 C   0  0  0  0  0  0  0  0  0  0  0  0
  -22.3378  -11.8065   24.3801 C   0  0  0  0  0  0  0  0  0  0  0  0
  -23.5860  -30.4499   23.2723 C   0  0  0  0  0  0  0  0  0  0  0  0
  -22.0497  -29.0619   24.7242 C   0  0  0  0  0  0  0  0  0  0  0  0
  -22.9293  -28.0987   22.6235 C   0  0  0  0  0  0  0  0  0  0  0  0
  -21.5254  -12.6818   23.4181 C   0  0  1  0  0  0  0  0  0  0  0  0
  -23.6875  -13.4749   20.3967 C   0  0  1  0  0  0  0  0  0  0  0  0
  -23.2978  -29.4952   22.1006 C   0  0  2  0  0  0  0  0  0  0  0  0
  -30.9860  -12.7124   17.9160 C   0  0  0  0  0  0  0  0  0  0  0  0
  -27.2097  -12.9935   23.3502 C   0  0  0  0  0  0  0  0  0  0  0  0
  -29.4915  -13.0139   22.3202 C   0  0  0  0  0  0  0  0  0  0  0  0
  -28.0235  -11.0145   22.0556 C   0  0  0  0  0  0  0  0  0  0  0  0
  -26.0774  -22.3538   20.3622 C   0  0  0  0  0  0  0  0  0  0  0  0
  -19.6353  -25.2862   22.6612 C   0  0  0  0  0  0  0  0  0  0  0  0
  -28.0370  -14.0531   15.9206 C   0  0  0  0  0  0  0  0  0  0  0  0
  -21.1865  -26.5996   21.2632 C   0  0  0  0  0  0  0  0  0  0  0  0
  -24.6363  -21.8279   18.3886 C   0  0  0  0  0  0  0  0  0  0  0  0
  -23.6670  -20.6959   18.6854 C   0  0  0  0  0  0  0  0  0  1  0  0
  -27.4759  -13.1310   20.7858 C   0  0  1  0  0  0  0  0  0  0  0  0
  -29.5166  -12.9399   17.5970 C   0  0  2  0  0  0  0  0  0  0  0  0
  -28.0306  -12.5574   22.1202 C   0  0  0  0  0  0  0  0  0  0  0  0
  -25.3966  -28.4993   21.2726 N   0  0  0  0  0  0  0  0  0  0  0  0
  -24.4503  -29.4405   21.1150 N   0  0  0  0  0  0  0  0  0  0  0  0
  -25.1173  -13.7897   20.4293 N   0  0  0  0  0  0  0  0  0  0  0  0
  -21.8235  -28.1643   23.5908 N   0  0  0  0  0  0  0  0  0  0  0  0
  -23.8040  -31.2574   19.7397 N   0  0  0  0  0  0  0  0  0  0  0  0
  -27.6324  -29.8138   17.8278 N   0  0  0  0  0  0  0  0  0  0  0  0
  -22.1594  -12.7267   22.1179 N   0  0  0  0  0  0  0  0  0  0  0  0
  -28.2176  -12.7125   19.6013 N   0  0  0  0  0  0  0  0  0  0  0  0
  -24.8694  -22.6139   19.5785 N   0  0  3  0  0  0  0  0  0  0  0  0
  -20.6477  -26.3304   22.5946 N   0  0  0  0  0  0  0  0  0  0  0  0
  -29.4268  -13.7709   16.3632 N   0  3  0  0  0  0  0  0  0  0  0  0
  -25.9566  -31.3733   17.6928 O   0  0  0  0  0  0  0  0  0  0  0  0
  -23.6725  -14.4432   22.5501 O   0  0  0  0  0  0  0  0  0  0  0  0
  -25.7444  -11.5441   20.4537 O   0  0  0  0  0  0  0  0  0  0  0  0
  -28.7667  -14.8462   18.8780 O   0  0  0  0  0  0  0  0  0  0  0  0
  -20.1756  -27.0312   24.7390 O   0  0  0  0  0  0  0  0  0  0  0  0
  -30.7792  -25.5572   19.5639 O   0  0  0  0  0  0  0  0  0  0  0  0
  -24.2200  -19.8479   19.6911 O   0  0  0  0  0  0  0  0  0  1  0  0
  -30.1836  -20.0960   20.0375 F   0  0  0  0  0  0  0  0  0  0  0  0
  -31.3841  -23.8762   17.4541 F   0  0  0  0  0  0  0  0  0  0  0  0
  1  2  1  0  0  0  0
  1  5  2  0  0  0  0
  2  6  2  0  0  0  0
  3 12  2  0  0  0  0
  3 19  1  0  0  0  0
  4 13  1  0  0  0  0
  4 19  2  0  0  0  0
  5 21  1  0  0  0  0
  6 23  1  0  0  0  0
  7 14  2  0  0  0  0
  7 22  1  0  0  0  0
  8 10  2  0  0  0  0
  8 25  1  0  0  0  0
  9 11  1  0  0  0  0
  9 25  2  0  0  0  0
 10 26  1  0  0  0  0
 11 26  2  0  0  0  0
 12 27  1  0  0  0  0
 13 27  2  0  0  0  0
 14 28  1  0  0  0  0
 15 16  2  0  0  0  0
 15 29  1  0  0  0  0
 16 30  1  0  0  0  0
 17 24  1  0  0  0  0
 17 28  2  0  0  0  0
 18 30  2  0  0  0  0
 18 31  1  0  0  0  0
 19 32  1  0  0  0  0
 20 32  1  0  0  0  0
 20 33  2  0  0  0  0
 20 34  1  0  0  0  0
 21 23  2  0  0  0  0
 21 39  1  0  0  0  0
 22 24  2  0  0  0  0
 22 40  1  0  0  0  0
 23 48  1  0  0  0  0
 24 41  1  0  0  0  0
 25 58  1  0  0  0  0
 26 72  1  0  0  0  0
 27 80  1  0  0  0  0
 28 81  1  0  0  0  0
 29 31  2  0  0  0  0
 29 80  1  0  0  0  0
 30 82  1  0  0  0  0
 31 83  1  0  0  0  0
 32 64  2  0  0  0  0
 33 65  1  0  0  0  0
 33 68  1  0  0  0  0
 34 69  1  0  0  0  0
 34 75  2  0  0  0  0
 35 49  1  0  0  0  0
 35 70  1  0  0  0  0
 35 76  2  0  0  0  0
 36 61  1  0  0  0  0
 36 66  1  0  0  0  0
 36 77  2  0  0  0  0
 37 62  1  0  0  0  0
 37 71  1  0  0  0  0
 37 78  2  0  0  0  0
 38 67  1  0  0  0  0
 38 73  1  0  0  0  0
 38 79  2  0  0  0  0
 39 42  1  0  0  0  0
 40 49  1  0  0  0  0
 41 66  1  0  0  0  0
 42 44  1  0  0  0  0
 43 45  1  0  0  0  0
 43 46  1  0  0  0  0
 44 48  1  0  0  0  0
 45 50  1  0  0  0  0
 46 67  1  0  0  0  0
 47 50  1  0  0  0  0
 47 67  1  0  0  0  0
 48 70  1  0  0  0  0
 49 66  1  0  0  0  0
 50 65  1  0  0  0  0
 51 62  1  0  0  0  0
 52 63  1  0  0  0  0
 53 63  1  0  0  0  0
 54 63  1  0  0  0  0
 55 72  1  0  0  0  0
 56 73  1  0  0  0  0
 57 74  1  0  0  0  0
 58 73  1  0  0  0  0
 59 60  1  0  0  0  0
 59 72  1  0  0  0  0
 60 81  1  0  0  0  0
 61 63  1  0  0  0  0
 61 71  1  0  0  0  0
 62 74  1  0  0  0  0
 64 65  1  0  0  0  0
M  CHG  1  74   1
M  ISO  4  38 100  60 101  73 100  81 101
M  END
> <Batch ID>
0016

> <Smiles>
CNC(C)C(=O)NC(C(=O)N1Cc2cc([101O:1][101CH2:1]CN(C)c3ccc(C[100N:0](C)[100C:0](=O)N4CCCC(n5nc(-c6ccc(Oc7ccc(F)cc7F)cc6)c(C(N)=O)c5N)C4)cc3)ccc2CC1C(=O)NC1CCCc2ccccc21)C(C)(C)C

> <Shape>
0.241

> <Color>
0.066

> <Negative vol penalty>
0.000

$$$$

  -OEChem-04042320573D

 88 97  0     1  0  0  0  0  0999 V2000
  -26.6337  -35.1586   23.1662 C   0  0  0  0  0  0  0  0  0  0  0  0
  -27.0634  -33.8524   22.9551 C   0  0  0  0  0  0  0  0  0  0  0  0
  -22.4069  -16.1832   20.5091 C   0  0  0  0  0  0  0  0  0  0  0  0
  -22.6818  -14.4117   18.8894 C   0  0  0  0  0  0  0  0  0  0  0  0
  -25.3461  -35.3990   23.6440 C   0  0  0  0  0  0  0  0  0  0  0  0
  -26.2061  -32.7857   23.2227 C   0  0  0  0  0  0  0  0  0  0  0  0
  -26.2487  -29.2921   19.5569 C   0  0  0  0  0  0  0  0  0  0  0  0
  -30.0524  -23.9695   21.6707 C   0  0  0  0  0  0  0  0  0  0  0  0
  -31.2328  -23.2295   21.6019 C   0  0  0  0  0  0  0  0  0  0  0  0
  -21.2252  -16.5751   19.8800 C   0  0  0  0  0  0  0  0  0  0  0  0
  -21.5001  -14.8036   18.2603 C   0  0  0  0  0  0  0  0  0  0  0  0
  -27.3274  -28.4092   19.5313 C   0  0  0  0  0  0  0  0  0  0  0  0
  -18.0023  -15.5579   19.7773 C   0  0  0  0  0  0  0  0  0  0  0  0
  -16.8999  -15.8374   20.5848 C   0  0  0  0  0  0  0  0  0  0  0  0
  -25.9706  -26.7297   20.6072 C   0  0  0  0  0  0  0  0  0  0  0  0
  -29.7121  -23.6471   19.3006 C   0  0  0  0  0  0  0  0  0  0  0  0
  -16.8421  -18.0944   19.7246 C   0  0  0  0  0  0  0  0  0  0  0  0
  -23.1352  -15.1016   20.0138 C   0  0  0  0  0  0  0  0  0  0  0  0
  -24.4945  -13.7629   21.7072 C   0  0  0  0  0  0  0  0  0  0  0  0
  -24.4692  -34.3352   23.9084 C   0  0  0  0  0  0  0  0  0  0  0  0
  -25.0240  -28.9034   20.1187 C   0  0  0  0  0  0  0  0  0  0  0  0
  -24.9060  -33.0121   23.7057 C   0  0  0  0  0  0  0  0  0  0  0  0
  -24.8771  -27.6086   20.6364 C   0  0  0  0  0  0  0  0  0  0  0  0
  -29.2920  -24.1783   20.5201 C   0  0  0  0  0  0  0  0  0  0  0  0
  -31.6529  -22.6984   20.3825 C   0  0  0  0  0  0  0  0  0  0  0  0
  -20.7718  -15.8852   18.7557 C   0  0  0  0  0  0  0  0  0  0  0  0
  -27.1893  -27.1288   20.0591 C   0  0  0  0  0  0  0  0  0  0  0  0
  -18.5247  -16.5465   18.9434 C   0  0  0  0  0  0  0  0  0  0  0  0
  -16.3198  -17.1057   20.5585 C   0  0  0  0  0  0  0  0  0  0  0  0
  -30.8925  -22.9071   19.2318 C   0  0  0  0  0  0  0  0  0  0  0  0
  -17.9446  -17.8148   18.9170 C   0  0  0  0  0  0  0  0  0  0  0  0
  -24.3562  -14.6967   20.6628 C   0  0  0  0  0  0  0  0  0  0  0  0
  -25.8431  -13.7345   21.9660 C   0  0  0  0  0  0  0  0  0  0  0  0
  -23.4935  -12.9903   22.3830 C   0  0  0  0  0  0  0  0  0  0  0  0
  -23.2565  -29.9101   22.5613 C   0  0  0  0  0  0  0  0  0  0  0  0
  -21.1348  -27.7408   21.4148 C   0  0  0  0  0  0  0  0  0  0  0  0
  -20.5888  -24.8973   19.6082 C   0  0  0  0  0  0  0  0  0  0  0  0
  -30.1234  -17.5697   21.3658 C   0  0  0  0  0  0  0  0  0  0  0  0
  -23.1031  -34.6426   24.4686 C   0  0  0  0  0  0  0  0  0  0  0  0
  -23.8620  -29.8585   20.1145 C   0  0  0  0  0  0  0  0  0  0  0  0
  -23.5773  -27.1356   21.2324 C   0  0  0  0  0  0  0  0  0  0  0  0
  -22.1276  -33.4724   24.3717 C   0  0  0  0  0  0  0  0  0  0  0  0
  -30.0829  -14.3974   19.8611 C   0  0  0  0  0  0  0  0  0  0  0  0
  -22.7926  -32.1827   24.8421 C   0  0  0  0  0  0  0  0  0  0  0  0
  -28.6092  -14.0158   19.9973 C   0  0  0  0  0  0  0  0  0  0  0  0
  -31.9768  -19.8574   19.4372 C   0  0  0  0  0  0  0  0  0  0  0  0
  -32.3224  -20.1904   21.9146 C   0  0  0  0  0  0  0  0  0  0  0  0
  -30.2616  -15.8708   19.4902 C   0  0  0  0  0  0  0  0  0  0  0  0
  -31.8441  -18.3504   19.6758 C   0  0  0  0  0  0  0  0  0  0  0  0
  -32.2116  -18.6796   22.0998 C   0  0  0  0  0  0  0  0  0  0  0  0
  -28.0895  -16.4257   20.5354 C   0  0  0  0  0  0  0  0  0  0  0  0
  -23.9967  -31.8296   23.9608 C   0  0  1  0  0  0  0  0  0  0  0  0
  -22.8159  -29.5314   21.1756 C   0  0  1  0  0  0  0  0  0  0  0  0
  -27.8799  -14.9652   20.9646 C   0  0  1  0  0  0  0  0  0  0  0  0
  -32.8389  -20.5232   20.5124 C   0  0  0  0  0  0  0  0  0  0  0  0
  -18.7540  -23.3479   18.8801 C   0  0  0  0  0  0  0  0  0  0  0  0
  -34.6896  -22.0525   18.7437 C   0  0  0  0  0  0  0  0  0  0  0  0
  -35.0473  -22.4169   21.2105 C   0  0  0  0  0  0  0  0  0  0  0  0
  -21.0458  -26.5338   24.2157 C   0  0  0  0  0  0  0  0  0  0  0  0
  -19.9899  -24.4907   23.2262 C   0  0  0  0  0  0  0  0  0  0  0  0
  -18.8249  -26.6915   23.0767 C   0  0  0  0  0  0  0  0  0  0  0  0
  -21.1094  -25.4388   16.7456 C   0  0  0  0  0  0  0  0  0  0  0  0
  -28.0299  -24.9693   20.5937 C   0  0  0  0  0  0  0  0  0  1  0  0
  -20.8719  -26.2734   21.6529 C   0  0  1  0  0  0  0  0  0  0  0  0
  -19.5805  -24.5728   18.5208 C   0  0  2  0  0  0  0  0  0  0  0  0
  -34.1085  -22.6205   20.0303 C   0  0  0  0  0  0  0  0  0  0  0  0
  -20.2083  -26.0066   23.0335 C   0  0  0  0  0  0  0  0  0  0  0  0
  -25.5237  -15.2234   20.2841 N   0  0  0  0  0  0  0  0  0  0  0  0
  -26.4085  -14.6187   21.0950 N   0  0  0  0  0  0  0  0  0  0  0  0
  -22.4723  -28.1083   21.2108 N   0  0  0  0  0  0  0  0  0  0  0  0
  -29.5160  -16.7345   20.4162 N   0  0  0  0  0  0  0  0  0  0  0  0
  -31.3915  -18.0784   21.0476 N   0  0  0  0  0  0  0  0  0  0  0  0
  -26.5886  -13.0397   22.8514 N   0  0  0  0  0  0  0  0  0  0  0  0
  -22.1561  -13.1413   21.9921 N   0  0  0  0  0  0  0  0  0  0  0  0
  -23.5551  -31.2511   22.7099 N   0  0  0  0  0  0  0  0  0  0  0  0
  -20.0881  -25.8089   20.5135 N   0  0  0  0  0  0  0  0  0  0  0  0
  -32.8379  -21.9562   20.3161 N   0  0  3  0  0  0  0  0  0  0  0  0
  -20.2776  -24.3075   17.2306 N   0  3  0  0  0  0  0  0  0  0  0  0
  -23.7748  -12.2020   23.3174 O   0  0  0  0  0  0  0  0  0  0  0  0
  -23.3194  -29.0497   23.4316 O   0  0  0  0  0  0  0  0  0  0  0  0
  -20.1874  -28.5307   21.4028 O   0  0  0  0  0  0  0  0  0  0  0  0
  -21.7073  -24.3898   19.6525 O   0  0  0  0  0  0  0  0  0  0  0  0
  -29.5655  -17.8451   22.4354 O   0  0  0  0  0  0  0  0  0  0  0  0
  -19.6187  -16.2672   18.1417 O   0  0  0  0  0  0  0  0  0  0  0  0
  -28.2481  -26.2593   20.0357 O   0  0  0  0  0  0  0  0  0  1  0  0
  -15.2602  -17.3736   21.3329 F   0  0  0  0  0  0  0  0  0  0  0  0
  -31.2868  -22.4011   18.0546 F   0  0  0  0  0  0  0  0  0  0  0  0
  -18.4413  -18.7683   18.1171 F   0  0  0  0  0  0  0  0  0  0  0  0
  1  2  1  0  0  0  0
  1  5  2  0  0  0  0
  2  6  2  0  0  0  0
  3 10  2  0  0  0  0
  3 18  1  0  0  0  0
  4 11  1  0  0  0  0
  4 18  2  0  0  0  0
  5 20  1  0  0  0  0
  6 22  1  0  0  0  0
  7 12  2  0  0  0  0
  7 21  1  0  0  0  0
  8  9  2  0  0  0  0
  8 24  1  0  0  0  0
  9 25  1  0  0  0  0
 10 26  1  0  0  0  0
 11 26  2  0  0  0  0
 12 27  1  0  0  0  0
 13 14  2  0  0  0  0
 13 28  1  0  0  0  0
 14 29  1  0  0  0  0
 15 23  1  0  0  0  0
 15 27  2  0  0  0  0
 16 24  2  0  0  0  0
 16 30  1  0  0  0  0
 17 29  2  0  0  0  0
 17 31  1  0  0  0  0
 18 32  1  0  0  0  0
 19 32  1  0  0  0  0
 19 33  2  0  0  0  0
 19 34  1  0  0  0  0
 20 22  2  0  0  0  0
 20 39  1  0  0  0  0
 21 23  2  0  0  0  0
 21 40  1  0  0  0  0
 22 52  1  0  0  0  0
 23 41  1  0  0  0  0
 24 63  1  0  0  0  0
 25 30  2  0  0  0  0
 25 77  1  0  0  0  0
 26 84  1  0  0  0  0
 27 85  1  0  0  0  0
 28 31  2  0  0  0  0
 28 84  1  0  0  0  0
 29 86  1  0  0  0  0
 30 87  1  0  0  0  0
 31 88  1  0  0  0  0
 32 68  2  0  0  0  0
 33 69  1  0  0  0  0
 33 73  1  0  0  0  0
 34 74  1  0  0  0  0
 34 79  2  0  0  0  0
 35 53  1  0  0  0  0
 35 75  1  0  0  0  0
 35 80  2  0  0  0  0
 36 64  1  0  0  0  0
 36 70  1  0  0  0  0
 36 81  2  0  0  0  0
 37 65  1  0  0  0  0
 37 76  1  0  0  0  0
 37 82  2  0  0  0  0
 38 71  1  0  0  0  0
 38 72  1  0  0  0  0
 38 83  2  0  0  0  0
 39 42  1  0  0  0  0
 40 53  1  0  0  0  0
 41 70  1  0  0  0  0
 42 44  1  0  0  0  0
 43 45  1  0  0  0  0
 43 48  1  0  0  0  0
 44 52  1  0  0  0  0
 45 54  1  0  0  0  0
 46 49  1  0  0  0  0
 46 55  1  0  0  0  0
 47 50  1  0  0  0  0
 47 55  1  0  0  0  0
 48 71  1  0  0  0  0
 49 72  1  0  0  0  0
 50 72  1  0  0  0  0
 51 54  1  0  0  0  0
 51 71  1  0  0  0  0
 52 75  1  0  0  0  0
 53 70  1  0  0  0  0
 54 69  1  0  0  0  0
 55 77  1  0  0  0  0
 56 65  1  0  0  0  0
 57 66  1  0  0  0  0
 58 66  1  0  0  0  0
 59 67  1  0  0  0  0
 60 67  1  0  0  0  0
 61 67  1  0  0  0  0
 62 78  1  0  0  0  0
 63 85  1  0  0  0  0
 64 67  1  0  0  0  0
 64 76  1  0  0  0  0
 65 78  1  0  0  0  0
 66 77  1  0  0  0  0
 68 69  1  0  0  0  0
M  CHG  1  78   1
M  ISO  4  38 100  63 101  72 100  85 101
M  END
> <Batch ID>
0016

> <Smiles>
CNC(C)C(=O)NC(C(=O)N1Cc2cc([101O:1][101CH2:1]c3ccc(N(C(C)C)C4CC[100N:0]([100C:0](=O)N5CCCC(n6nc(-c7ccc(Oc8ccc(F)cc8F)cc7)c(C(N)=O)c6N)C5)CC4)c(F)c3)ccc2CC1C(=O)NC1CCCc2ccccc21)C(C)(C)C

> <Shape>
0.237

> <Color>
0.090

> <Negative vol penalty>
0.000

$$$$

  -OEChem-04042320573D

 86 94  0     1  0  0  0  0  0999 V2000
  -18.8528  -16.2296   23.7057 C   0  0  0  0  0  0  0  0  0  0  0  0
  -19.9746  -16.9262   24.1436 C   0  0  0  0  0  0  0  0  0  0  0  0
  -22.6708  -10.1963   20.4929 C   0  0  0  0  0  0  0  0  0  0  0  0
  -23.9650  -10.0134   22.5249 C   0  0  0  0  0  0  0  0  0  0  0  0
  -18.2715  -16.5471   22.4788 C   0  0  0  0  0  0  0  0  0  0  0  0
  -20.5165  -17.9400   23.3543 C   0  0  0  0  0  0  0  0  0  0  0  0
  -23.1585  -23.1095   25.3040 C   0  0  0  0  0  0  0  0  0  0  0  0
  -29.3880  -18.4349   23.6628 C   0  0  0  0  0  0  0  0  0  0  0  0
  -30.5340  -20.2310   22.5236 C   0  0  0  0  0  0  0  0  0  0  0  0
  -29.0929  -19.2943   24.7210 C   0  0  0  0  0  0  0  0  0  0  0  0
  -30.2389  -21.0904   23.5819 C   0  0  0  0  0  0  0  0  0  0  0  0
  -21.8742   -9.1277   20.9041 C   0  0  0  0  0  0  0  0  0  0  0  0
  -23.1683   -8.9448   22.9360 C   0  0  0  0  0  0  0  0  0  0  0  0
  -24.4932  -23.4741   25.4749 C   0  0  0  0  0  0  0  0  0  0  0  0
  -20.1135   -8.5024   24.3119 C   0  0  0  0  0  0  0  0  0  0  0  0
  -19.6680   -8.4991   25.6337 C   0  0  0  0  0  0  0  0  0  0  0  0
  -24.4811  -24.5156   23.2991 C   0  0  0  0  0  0  0  0  0  0  0  0
  -20.8025   -6.3997   26.0109 C   0  0  0  0  0  0  0  0  0  0  0  0
  -23.7162  -10.6391   21.3033 C   0  0  0  0  0  0  0  0  0  0  0  0
  -24.3280  -13.1101   21.1372 C   0  0  0  0  0  0  0  0  0  0  0  0
  -18.8008  -17.5718   21.6785 C   0  0  0  0  0  0  0  0  0  0  0  0
  -22.4770  -23.4363   24.1228 C   0  0  0  0  0  0  0  0  0  0  0  0
  -19.9425  -18.2706   22.1149 C   0  0  0  0  0  0  0  0  0  0  0  0
  -23.1370  -24.1562   23.1167 C   0  0  0  0  0  0  0  0  0  0  0  0
  -30.1086  -18.9032   22.5641 C   0  0  0  0  0  0  0  0  0  0  0  0
  -29.5183  -20.6221   24.6806 C   0  0  0  0  0  0  0  0  0  0  0  0
  -22.1229   -8.5019   22.1256 C   0  0  0  0  0  0  0  0  0  0  0  0
  -25.1556  -24.1747   24.4712 C   0  0  0  0  0  0  0  0  0  0  0  0
  -20.9034   -7.4542   23.8395 C   0  0  0  0  0  0  0  0  0  0  0  0
  -20.0125   -7.4478   26.4832 C   0  0  0  0  0  0  0  0  0  0  0  0
  -21.2480   -6.4029   24.6890 C   0  0  0  0  0  0  0  0  0  0  0  0
  -24.5399  -11.7426   20.8789 C   0  0  0  0  0  0  0  0  0  0  0  0
  -25.3817  -13.7427   20.5240 C   0  0  0  0  0  0  0  0  0  0  0  0
  -23.2730  -13.7513   21.8663 C   0  0  0  0  0  0  0  0  0  0  0  0
  -21.0886  -21.7692   21.7997 C   0  0  0  0  0  0  0  0  0  0  0  0
  -30.8623  -14.0344   19.4435 C   0  0  0  0  0  0  0  0  0  0  0  0
  -20.1597  -24.7049   20.7794 C   0  0  0  0  0  0  0  0  0  0  0  0
  -20.7188  -28.0713   20.7456 C   0  0  0  0  0  0  0  0  0  0  0  0
  -18.1663  -17.8472   20.3382 C   0  0  0  0  0  0  0  0  0  0  0  0
  -21.0295  -23.0591   23.9650 C   0  0  0  0  0  0  0  0  0  0  0  0
  -22.4444  -24.5489   21.8382 C   0  0  0  0  0  0  0  0  0  0  0  0
  -18.5774  -19.1872   19.7335 C   0  0  0  0  0  0  0  0  0  0  0  0
  -28.8468  -12.0014   17.2884 C   0  0  0  0  0  0  0  0  0  0  0  0
  -20.0875  -19.3777   19.8348 C   0  0  0  0  0  0  0  0  0  0  0  0
  -27.5407  -11.8402   18.0651 C   0  0  0  0  0  0  0  0  0  0  0  0
  -30.0512  -12.0423   18.2236 C   0  0  0  0  0  0  0  0  0  0  0  0
  -28.6555  -12.9310   20.0631 C   0  0  0  0  0  0  0  0  0  0  0  0
  -20.5446  -19.3935   21.2985 C   0  0  1  0  0  0  0  0  0  0  0  0
  -20.5843  -22.9950   22.5073 C   0  0  1  0  0  0  0  0  0  0  0  0
  -27.4110  -12.9160   19.1579 C   0  0  2  0  0  0  0  0  0  0  0  0
  -19.8127  -30.2092   19.7938 C   0  0  0  0  0  0  0  0  0  0  0  0
  -21.3701  -24.0074   18.0668 C   0  0  0  0  0  0  0  0  0  0  0  0
  -21.2966  -26.4417   17.4862 C   0  0  0  0  0  0  0  0  0  0  0  0
  -19.1793  -25.2083   17.9538 C   0  0  0  0  0  0  0  0  0  0  0  0
  -28.4621  -20.9950   26.8954 C   0  0  0  0  0  0  0  0  0  0  0  0
  -20.1886  -29.1808   23.4376 C   0  0  0  0  0  0  0  0  0  0  0  0
  -32.7846  -17.6957   22.1736 C   0  0  0  0  0  0  0  0  0  0  0  0
  -30.4250  -17.9849   21.4324 C   0  0  0  0  0  0  0  0  0  0  0  0
  -30.6131  -15.0521   20.5280 C   0  0  0  0  0  0  0  0  0  0  0  0
  -28.7014  -23.7292   24.9284 C   0  0  0  0  0  0  0  0  0  0  0  0
  -29.6565  -22.8623   25.7400 C   0  0  0  0  0  0  0  0  0  0  0  0
  -31.7572  -16.0458   20.6166 C   0  0  0  0  0  0  0  0  0  0  0  0
  -27.2682  -23.6793   25.4447 C   0  0  0  0  0  0  0  0  0  1  0  0
  -20.7443  -25.7528   19.8634 C   0  0  1  0  0  0  0  0  0  0  0  0
  -19.7886  -29.2492   20.9731 C   0  0  2  0  0  0  0  0  0  0  0  0
  -20.6615  -25.3436   18.3657 C   0  0  0  0  0  0  0  0  0  0  0  0
  -25.6415  -11.5187   20.1577 N   0  0  0  0  0  0  0  0  0  0  0  0
  -26.1313  -12.7541   19.9575 N   0  0  0  0  0  0  0  0  0  0  0  0
  -21.0310  -24.1517   21.7284 N   0  0  0  0  0  0  0  0  0  0  0  0
  -29.8796  -13.0614   19.2606 N   0  0  0  0  0  0  0  0  0  0  0  0
  -25.7309  -15.0425   20.4195 N   0  0  0  0  0  0  0  0  0  0  0  0
  -22.2703  -12.9521   22.4321 N   0  0  0  0  0  0  0  0  0  0  0  0
  -20.2522  -20.6743   21.9055 N   0  0  0  0  0  0  0  0  0  0  0  0
  -20.0584  -27.0007   20.1807 N   0  0  0  0  0  0  0  0  0  0  0  0
  -29.2202  -21.4869   25.7434 N   0  0  3  0  0  0  0  0  0  0  0  0
  -20.1909  -29.9981   22.1971 N   0  3  0  0  0  0  0  0  0  0  0  0
  -31.5106  -17.0147   21.7443 N   0  3  1  0  0  0  0  0  0  0  0  0
  -23.2122  -14.9973   21.9978 O   0  0  0  0  0  0  0  0  0  0  0  0
  -22.1568  -21.8138   21.2008 O   0  0  0  0  0  0  0  0  0  0  0  0
  -31.8987  -14.1055   18.7779 O   0  0  0  0  0  0  0  0  0  0  0  0
  -18.9717  -24.3938   20.6620 O   0  0  0  0  0  0  0  0  0  0  0  0
  -21.9126  -28.0995   21.0363 O   0  0  0  0  0  0  0  0  0  0  0  0
  -21.3456   -7.4593   22.5272 O   0  0  0  0  0  0  0  0  0  0  0  0
  -26.4587  -24.5312   24.6352 O   0  0  0  0  0  0  0  0  0  1  0  0
  -19.5859   -7.4456   27.7529 F   0  0  0  0  0  0  0  0  0  0  0  0
  -22.0076   -5.3938   24.2413 F   0  0  0  0  0  0  0  0  0  0  0  0
  1  2  1  0  0  0  0
  1  5  2  0  0  0  0
  2  6  2  0  0  0  0
  3 12  2  0  0  0  0
  3 19  1  0  0  0  0
  4 13  1  0  0  0  0
  4 19  2  0  0  0  0
  5 21  1  0  0  0  0
  6 23  1  0  0  0  0
  7 14  2  0  0  0  0
  7 22  1  0  0  0  0
  8 10  2  0  0  0  0
  8 25  1  0  0  0  0
  9 11  1  0  0  0  0
  9 25  2  0  0  0  0
 10 26  1  0  0  0  0
 11 26  2  0  0  0  0
 12 27  1  0  0  0  0
 13 27  2  0  0  0  0
 14 28  1  0  0  0  0
 15 16  2  0  0  0  0
 15 29  1  0  0  0  0
 16 30  1  0  0  0  0
 17 24  1  0  0  0  0
 17 28  2  0  0  0  0
 18 30  2  0  0  0  0
 18 31  1  0  0  0  0
 19 32  1  0  0  0  0
 20 32  1  0  0  0  0
 20 33  2  0  0  0  0
 20 34  1  0  0  0  0
 21 23  2  0  0  0  0
 21 39  1  0  0  0  0
 22 24  2  0  0  0  0
 22 40  1  0  0  0  0
 23 48  1  0  0  0  0
 24 41  1  0  0  0  0
 25 58  1  0  0  0  0
 26 75  1  0  0  0  0
 27 83  1  0  0  0  0
 28 84  1  0  0  0  0
 29 31  2  0  0  0  0
 29 83  1  0  0  0  0
 30 85  1  0  0  0  0
 31 86  1  0  0  0  0
 32 67  2  0  0  0  0
 33 68  1  0  0  0  0
 33 71  1  0  0  0  0
 34 72  1  0  0  0  0
 34 78  2  0  0  0  0
 35 49  1  0  0  0  0
 35 73  1  0  0  0  0
 35 79  2  0  0  0  0
 36 59  1  0  0  0  0
 36 70  1  0  0  0  0
 36 80  2  0  0  0  0
 37 64  1  0  0  0  0
 37 69  1  0  0  0  0
 37 81  2  0  0  0  0
 38 65  1  0  0  0  0
 38 74  1  0  0  0  0
 38 82  2  0  0  0  0
 39 42  1  0  0  0  0
 40 49  1  0  0  0  0
 41 69  1  0  0  0  0
 42 44  1  0  0  0  0
 43 45  1  0  0  0  0
 43 46  1  0  0  0  0
 44 48  1  0  0  0  0
 45 50  1  0  0  0  0
 46 70  1  0  0  0  0
 47 50  1  0  0  0  0
 47 70  1  0  0  0  0
 48 73  1  0  0  0  0
 49 69  1  0  0  0  0
 50 68  1  0  0  0  0
 51 65  1  0  0  0  0
 52 66  1  0  0  0  0
 53 66  1  0  0  0  0
 54 66  1  0  0  0  0
 55 75  1  0  0  0  0
 56 76  1  0  0  0  0
 57 77  1  0  0  0  0
 58 77  1  0  0  0  0
 59 62  1  0  0  0  0
 60 61  1  0  0  0  0
 60 63  1  0  0  0  0
 61 75  1  0  0  0  0
 62 77  1  0  0  0  0
 63 84  1  0  0  0  0
 64 66  1  0  0  0  0
 64 74  1  0  0  0  0
 65 76  1  0  0  0  0
 67 68  1  0  0  0  0
M  CHG  2  76   1  77   1
M  ISO  4  36 100  59 100  63 101  84 101
M  END
> <Batch ID>
0016

> <Smiles>
CNC(C)C(=O)NC(C(=O)N1Cc2cc([101O:1][101CH2:1]CCN(C)c3ccc(CN(C)C[100CH2:0][100C:0](=O)N4CCCC(n5nc(-c6ccc(Oc7ccc(F)cc7F)cc6)c(C(N)=O)c5N)C4)cc3)ccc2CC1C(=O)NC1CCCc2ccccc21)C(C)(C)C

> <Shape>
0.186

> <Color>
0.118

> <Negative vol penalty>
0.000

$$$$

  -OEChem-04042320573D

 84 92  0     1  0  0  0  0  0999 V2000
  -21.7850  -12.5017   19.3097 C   0  0  0  0  0  0  0  0  0  0  0  0
  -21.7564  -13.8699   19.5595 C   0  0  0  0  0  0  0  0  0  0  0  0
  -29.7513  -27.2658   20.4635 C   0  0  0  0  0  0  0  0  0  0  0  0
  -28.4083  -25.6990   21.7199 C   0  0  0  0  0  0  0  0  0  0  0  0
  -22.9075  -11.7533   19.6616 C   0  0  0  0  0  0  0  0  0  0  0  0
  -22.8499  -14.4905   20.1623 C   0  0  0  0  0  0  0  0  0  0  0  0
  -24.1041  -18.8439   17.8996 C   0  0  0  0  0  0  0  0  0  0  0  0
  -22.3849  -25.0084   19.5871 C   0  0  0  0  0  0  0  0  0  0  0  0
  -21.4632  -26.0395   19.7686 C   0  0  0  0  0  0  0  0  0  0  0  0
  -30.9103  -26.6874   20.9810 C   0  0  0  0  0  0  0  0  0  0  0  0
  -29.5673  -25.1205   22.2373 C   0  0  0  0  0  0  0  0  0  0  0  0
  -23.3206  -19.9604   18.1883 C   0  0  0  0  0  0  0  0  0  0  0  0
  -34.2140  -25.8539   22.2515 C   0  0  0  0  0  0  0  0  0  0  0  0
  -35.2179  -26.7072   22.7093 C   0  0  0  0  0  0  0  0  0  0  0  0
  -24.9916  -20.7209   19.7531 C   0  0  0  0  0  0  0  0  0  0  0  0
  -21.7392  -24.0570   21.7119 C   0  0  0  0  0  0  0  0  0  0  0  0
  -33.6828  -27.6493   24.3196 C   0  0  0  0  0  0  0  0  0  0  0  0
  -28.5003  -26.7716   20.8330 C   0  0  0  0  0  0  0  0  0  0  0  0
  -26.6238  -27.0057   19.1208 C   0  0  0  0  0  0  0  0  0  0  0  0
  -24.0193  -12.3667   20.2602 C   0  0  0  0  0  0  0  0  0  0  0  0
  -25.3343  -18.6516   18.5446 C   0  0  0  0  0  0  0  0  0  0  0  0
  -23.9879  -13.7494   20.5238 C   0  0  0  0  0  0  0  0  0  0  0  0
  -25.7900  -19.6025   19.4689 C   0  0  0  0  0  0  0  0  0  0  0  0
  -22.5228  -24.0171   20.5587 C   0  0  0  0  0  0  0  0  0  0  0  0
  -20.6795  -26.0794   20.9218 C   0  0  0  0  0  0  0  0  0  0  0  0
  -30.8183  -25.6147   21.8678 C   0  0  0  0  0  0  0  0  0  0  0  0
  -23.7629  -20.8976   19.1173 C   0  0  0  0  0  0  0  0  0  0  0  0
  -32.9444  -25.8983   22.8278 C   0  0  0  0  0  0  0  0  0  0  0  0
  -34.9523  -27.6049   23.7433 C   0  0  0  0  0  0  0  0  0  0  0  0
  -20.8175  -25.0882   21.8935 C   0  0  0  0  0  0  0  0  0  0  0  0
  -32.6789  -26.7960   23.8618 C   0  0  0  0  0  0  0  0  0  0  0  0
  -27.3027  -27.3691   20.2993 C   0  0  0  0  0  0  0  0  0  0  0  0
  -25.5572  -27.8689   19.0589 C   0  0  0  0  0  0  0  0  0  0  0  0
  -26.9299  -25.9796   18.1674 C   0  0  0  0  0  0  0  0  0  0  0  0
  -26.5299  -16.4306   20.4788 C   0  0  0  0  0  0  0  0  0  0  0  0
  -29.2641  -18.1367   20.1097 C   0  0  0  0  0  0  0  0  0  0  0  0
  -30.7368  -21.1246   19.3681 C   0  0  0  0  0  0  0  0  0  0  0  0
  -21.7689  -30.5480   22.5209 C   0  0  0  0  0  0  0  0  0  0  0  0
  -25.1911  -11.5082   20.6659 C   0  0  0  0  0  0  0  0  0  0  0  0
  -26.1800  -17.4558   18.2023 C   0  0  0  0  0  0  0  0  0  0  0  0
  -27.1126  -19.4529   20.1738 C   0  0  0  0  0  0  0  0  0  0  0  0
  -26.4585  -12.3068   20.9595 C   0  0  0  0  0  0  0  0  0  0  0  0
  -24.5175  -32.2713   21.0539 C   0  0  0  0  0  0  0  0  0  0  0  0
  -26.1404  -13.5055   21.8477 C   0  0  0  0  0  0  0  0  0  0  0  0
  -25.4528  -31.1491   20.6002 C   0  0  0  0  0  0  0  0  0  0  0  0
  -23.8204  -31.9281   22.3685 C   0  0  0  0  0  0  0  0  0  0  0  0
  -24.0421  -29.5152   21.9189 C   0  0  0  0  0  0  0  0  0  0  0  0
  -25.1645  -14.4631   21.1534 C   0  0  1  0  0  0  0  0  0  0  0  0
  -27.1785  -17.0967   19.2984 C   0  0  1  0  0  0  0  0  0  0  0  0
  -24.7255  -29.7914   20.5687 C   0  0  2  0  0  0  0  0  0  0  0  0
  -32.9871  -22.2202   19.1859 C   0  0  0  0  0  0  0  0  0  0  0  0
  -17.9161  -27.3287   22.6809 C   0  0  0  0  0  0  0  0  0  0  0  0
  -29.4394  -18.2770   23.1527 C   0  0  0  0  0  0  0  0  0  0  0  0
  -31.1052  -20.1291   22.9017 C   0  0  0  0  0  0  0  0  0  0  0  0
  -31.6195  -17.8607   22.0002 C   0  0  0  0  0  0  0  0  0  0  0  0
  -19.1162  -27.7495   19.9592 C   0  0  0  0  0  0  0  0  0  0  0  0
  -30.3394  -21.7285   16.4982 C   0  0  0  0  0  0  0  0  0  0  0  0
  -23.5142  -22.9079   20.3634 C   0  0  0  0  0  0  0  0  0  1  0  0
  -19.8017  -29.0383   22.6206 C   0  0  0  0  0  0  0  0  0  0  0  0
  -29.9033  -19.3004   20.8282 C   0  0  1  0  0  0  0  0  0  0  0  0
  -31.8870  -21.4785   18.4427 C   0  0  2  0  0  0  0  0  0  0  0  0
  -19.4011  -27.5735   22.4363 C   0  0  2  0  0  0  0  0  0  0  0  0
  -30.4910  -18.8939   22.2090 C   0  0  0  0  0  0  0  0  0  0  0  0
  -26.7167  -28.3842   20.9398 N   0  0  0  0  0  0  0  0  0  0  0  0
  -25.6584  -28.6660   20.1609 N   0  0  0  0  0  0  0  0  0  0  0  0
  -27.9003  -18.2635   19.8099 N   0  0  0  0  0  0  0  0  0  0  0  0
  -23.1488  -30.6299   22.2715 N   0  0  0  0  0  0  0  0  0  0  0  0
  -24.5522  -28.0163   18.1698 N   0  0  0  0  0  0  0  0  0  0  0  0
  -28.0627  -25.1831   18.3835 N   0  0  0  0  0  0  0  0  0  0  0  0
  -25.8578  -15.2641   20.1675 N   0  0  0  0  0  0  0  0  0  0  0  0
  -30.8823  -19.8626   19.9042 N   0  0  0  0  0  0  0  0  0  0  0  0
  -21.2101  -29.2815   22.4011 N   0  0  0  0  0  0  0  0  0  0  0  0
  -19.7484  -27.1231   21.1031 N   0  0  3  0  0  0  0  0  0  0  0  0
  -31.4075  -22.3433   17.3277 N   0  3  0  0  0  0  0  0  0  0  0  0
  -26.2291  -25.7858   17.1452 O   0  0  0  0  0  0  0  0  0  0  0  0
  -26.6330  -16.9367   21.5901 O   0  0  0  0  0  0  0  0  0  0  0  0
  -29.9512  -17.1544   19.8188 O   0  0  0  0  0  0  0  0  0  0  0  0
  -29.8045  -21.8925   19.5957 O   0  0  0  0  0  0  0  0  0  0  0  0
  -21.0846  -31.5318   22.8224 O   0  0  0  0  0  0  0  0  0  0  0  0
  -31.9491  -25.0498   22.3727 O   0  0  0  0  0  0  0  0  0  0  0  0
  -22.9998  -21.9879   19.4014 O   0  0  0  0  0  0  0  0  0  1  0  0
  -35.9169  -28.4233   24.1838 F   0  0  0  0  0  0  0  0  0  0  0  0
  -20.0693  -25.1167   23.0056 F   0  0  0  0  0  0  0  0  0  0  0  0
  -31.4615  -26.8424   24.4201 F   0  0  0  0  0  0  0  0  0  0  0  0
  1  2  1  0  0  0  0
  1  5  2  0  0  0  0
  2  6  2  0  0  0  0
  3 10  2  0  0  0  0
  3 18  1  0  0  0  0
  4 11  1  0  0  0  0
  4 18  2  0  0  0  0
  5 20  1  0  0  0  0
  6 22  1  0  0  0  0
  7 12  2  0  0  0  0
  7 21  1  0  0  0  0
  8  9  2  0  0  0  0
  8 24  1  0  0  0  0
  9 25  1  0  0  0  0
 10 26  1  0  0  0  0
 11 26  2  0  0  0  0
 12 27  1  0  0  0  0
 13 14  2  0  0  0  0
 13 28  1  0  0  0  0
 14 29  1  0  0  0  0
 15 23  1  0  0  0  0
 15 27  2  0  0  0  0
 16 24  2  0  0  0  0
 16 30  1  0  0  0  0
 17 29  2  0  0  0  0
 17 31  1  0  0  0  0
 18 32  1  0  0  0  0
 19 32  1  0  0  0  0
 19 33  2  0  0  0  0
 19 34  1  0  0  0  0
 20 22  2  0  0  0  0
 20 39  1  0  0  0  0
 21 23  2  0  0  0  0
 21 40  1  0  0  0  0
 22 48  1  0  0  0  0
 23 41  1  0  0  0  0
 24 58  1  0  0  0  0
 25 30  2  0  0  0  0
 25 73  1  0  0  0  0
 26 80  1  0  0  0  0
 27 81  1  0  0  0  0
 28 31  2  0  0  0  0
 28 80  1  0  0  0  0
 29 82  1  0  0  0  0
 30 83  1  0  0  0  0
 31 84  1  0  0  0  0
 32 64  2  0  0  0  0
 33 65  1  0  0  0  0
 33 68  1  0  0  0  0
 34 69  1  0  0  0  0
 34 75  2  0  0  0  0
 35 49  1  0  0  0  0
 35 70  1  0  0  0  0
 35 76  2  0  0  0  0
 36 60  1  0  0  0  0
 36 66  1  0  0  0  0
 36 77  2  0  0  0  0
 37 61  1  0  0  0  0
 37 71  1  0  0  0  0
 37 78  2  0  0  0  0
 38 67  1  0  0  0  0
 38 72  1  0  0  0  0
 38 79  2  0  0  0  0
 39 42  1  0  0  0  0
 40 49  1  0  0  0  0
 41 66  1  0  0  0  0
 42 44  1  0  0  0  0
 43 45  1  0  0  0  0
 43 46  1  0  0  0  0
 44 48  1  0  0  0  0
 45 50  1  0  0  0  0
 46 67  1  0  0  0  0
 47 50  1  0  0  0  0
 47 67  1  0  0  0  0
 48 70  1  0  0  0  0
 49 66  1  0  0  0  0
 50 65  1  0  0  0  0
 51 61  1  0  0  0  0
 52 62  1  0  0  0  0
 53 63  1  0  0  0  0
 54 63  1  0  0  0  0
 55 63  1  0  0  0  0
 56 73  1  0  0  0  0
 57 74  1  0  0  0  0
 58 81  1  0  0  0  0
 59 62  1  0  0  0  0
 59 72  1  0  0  0  0
 60 63  1  0  0  0  0
 60 71  1  0  0  0  0
 61 74  1  0  0  0  0
 62 73  1  0  0  0  0
 64 65  1  0  0  0  0
M  CHG  1  74   1
M  ISO  4  38 100  58 101  72 100  81 101
M  END
> <Batch ID>
0016

> <Smiles>
CNC(C)C(=O)NC(C(=O)N1Cc2cc([101O:1][101CH2:1]c3ccc(N(C)C(C)C[100NH:0][100C:0](=O)N4CCCC(n5nc(-c6ccc(Oc7ccc(F)cc7F)cc6)c(C(N)=O)c5N)C4)c(F)c3)ccc2CC1C(=O)NC1CCCc2ccccc21)C(C)(C)C

> <Shape>
0.233

> <Color>
0.090

> <Negative vol penalty>
0.000

$$$$

  -OEChem-04042320573D

 84 92  0     1  0  0  0  0  0999 V2000
  -19.6184  -27.8933   26.7386 C   0  0  0  0  0  0  0  0  0  0  0  0
  -20.8690  -27.4891   26.2825 C   0  0  0  0  0  0  0  0  0  0  0  0
  -26.3661  -15.0878   21.9149 C   0  0  0  0  0  0  0  0  0  0  0  0
  -24.7040  -15.1016   20.1616 C   0  0  0  0  0  0  0  0  0  0  0  0
  -18.6311  -28.2632   25.8263 C   0  0  0  0  0  0  0  0  0  0  0  0
  -21.1327  -27.4536   24.9137 C   0  0  0  0  0  0  0  0  0  0  0  0
  -26.4594  -28.6919   22.1572 C   0  0  0  0  0  0  0  0  0  0  0  0
  -27.3218  -22.7003   23.7837 C   0  0  0  0  0  0  0  0  0  0  0  0
  -26.4924  -13.7049   21.7844 C   0  0  0  0  0  0  0  0  0  0  0  0
  -24.8303  -13.7186   20.0310 C   0  0  0  0  0  0  0  0  0  0  0  0
  -27.4789  -27.8721   21.6750 C   0  0  0  0  0  0  0  0  0  0  0  0
  -27.8258  -22.8685   22.4940 C   0  0  0  0  0  0  0  0  0  0  0  0
  -24.4522  -10.1456   19.4828 C   0  0  0  0  0  0  0  0  0  0  0  0
  -23.2814   -9.3943   19.3816 C   0  0  0  0  0  0  0  0  0  0  0  0
  -26.5173  -27.9862   19.4656 C   0  0  0  0  0  0  0  0  0  0  0  0
  -25.6272  -23.5006   21.7172 C   0  0  0  0  0  0  0  0  0  0  0  0
  -22.5762  -10.2016   21.5468 C   0  0  0  0  0  0  0  0  0  0  0  0
  -25.4718  -15.7862   21.1035 C   0  0  0  0  0  0  0  0  0  0  0  0
  -26.0711  -18.2040   20.5531 C   0  0  0  0  0  0  0  0  0  0  0  0
  -18.8859  -28.2414   24.4460 C   0  0  0  0  0  0  0  0  0  0  0  0
  -25.4535  -29.1568   21.2980 C   0  0  0  0  0  0  0  0  0  0  0  0
  -20.1474  -27.8223   23.9820 C   0  0  0  0  0  0  0  0  0  0  0  0
  -25.4876  -28.8138   19.9388 C   0  0  0  0  0  0  0  0  0  0  0  0
  -25.9704  -22.9322   24.0401 C   0  0  0  0  0  0  0  0  0  0  0  0
  -25.7245  -13.0202   20.8424 C   0  0  0  0  0  0  0  0  0  0  0  0
  -27.5063  -27.5168   20.3296 C   0  0  0  0  0  0  0  0  0  0  0  0
  -26.9785  -23.2686   21.4608 C   0  0  0  0  0  0  0  0  0  0  0  0
  -24.6852  -10.9248   20.6160 C   0  0  0  0  0  0  0  0  0  0  0  0
  -22.3434   -9.4223   20.4136 C   0  0  0  0  0  0  0  0  0  0  0  0
  -25.1231  -23.3324   23.0069 C   0  0  0  0  0  0  0  0  0  0  0  0
  -23.7472  -10.9529   21.6480 C   0  0  0  0  0  0  0  0  0  0  0  0
  -25.3405  -17.2147   21.2383 C   0  0  0  0  0  0  0  0  0  0  0  0
  -25.5742  -19.3914   21.0323 C   0  0  0  0  0  0  0  0  0  0  0  0
  -27.1063  -18.0622   19.5713 C   0  0  0  0  0  0  0  0  0  0  0  0
  -22.2976  -28.8094   21.1439 C   0  0  0  0  0  0  0  0  0  0  0  0
  -22.5673  -30.9758   18.7447 C   0  0  0  0  0  0  0  0  0  0  0  0
  -24.5249  -32.4183   16.3501 C   0  0  0  0  0  0  0  0  0  0  0  0
  -24.1267  -22.3665   25.6439 C   0  0  0  0  0  0  0  0  0  0  0  0
  -17.7720  -28.6048   23.4964 C   0  0  0  0  0  0  0  0  0  0  0  0
  -24.3757  -30.0621   21.8283 C   0  0  0  0  0  0  0  0  0  0  0  0
  -24.4426  -29.3032   18.9709 C   0  0  0  0  0  0  0  0  0  0  0  0
  -18.2526  -28.8979   22.0774 C   0  0  0  0  0  0  0  0  0  0  0  0
  -21.5334  -20.4014   23.8815 C   0  0  0  0  0  0  0  0  0  0  0  0
  -19.2329  -27.8252   21.6136 C   0  0  0  0  0  0  0  0  0  0  0  0
  -22.3578  -19.4234   23.0466 C   0  0  0  0  0  0  0  0  0  0  0  0
  -22.2637  -20.8136   25.1560 C   0  0  0  0  0  0  0  0  0  0  0  0
  -24.4520  -20.3972   24.0700 C   0  0  0  0  0  0  0  0  0  0  0  0
  -20.4796  -27.7942   22.5059 C   0  0  1  0  0  0  0  0  0  0  0  0
  -23.1153  -30.0578   20.9688 C   0  0  1  0  0  0  0  0  0  0  0  0
  -23.7550  -19.9980   22.7607 C   0  0  1  0  0  0  0  0  0  0  0  0
  -26.1214  -24.7548   26.6523 C   0  0  0  0  0  0  0  0  0  0  0  0
  -24.4558  -34.1325   14.5187 C   0  0  0  0  0  0  0  0  0  0  0  0
  -21.0365  -29.0186   16.9738 C   0  0  0  0  0  0  0  0  0  0  0  0
  -21.8168  -30.3189   14.9817 C   0  0  0  0  0  0  0  0  0  0  0  0
  -20.3738  -31.4141   16.6967 C   0  0  0  0  0  0  0  0  0  0  0  0
  -26.6151  -34.0611   17.6505 C   0  0  0  0  0  0  0  0  0  0  0  0
  -29.0404  -24.6166   18.7976 C   0  0  0  0  0  0  0  0  0  0  0  0
  -26.2543  -23.2540   26.4910 C   0  0  0  0  0  0  0  0  0  0  0  0
  -28.1822  -25.8711   18.7514 C   0  0  0  0  0  0  0  0  0  1  0  0
  -28.8340  -23.8331   20.0844 C   0  0  0  0  0  0  0  0  0  0  0  0
  -22.7853  -30.8974   17.2529 C   0  0  1  0  0  0  0  0  0  0  0  0
  -24.7631  -33.8724   15.9852 C   0  0  2  0  0  0  0  0  0  0  0  0
  -21.5219  -30.4013   16.4947 C   0  0  0  0  0  0  0  0  0  0  0  0
  -24.4476  -17.7290   22.0881 N   0  0  0  0  0  0  0  0  0  0  0  0
  -24.6139  -19.0544   21.9402 N   0  0  0  0  0  0  0  0  0  0  0  0
  -23.4058  -30.1808   19.5388 N   0  0  0  0  0  0  0  0  0  0  0  0
  -23.6144  -21.3023   24.8738 N   0  0  0  0  0  0  0  0  0  0  0  0
  -25.8696  -20.6805   20.7614 N   0  0  0  0  0  0  0  0  0  0  0  0
  -27.4958  -16.7701   19.1929 N   0  0  0  0  0  0  0  0  0  0  0  0
  -21.3712  -28.8825   22.1665 N   0  0  0  0  0  0  0  0  0  0  0  0
  -23.2514  -32.2163   16.8386 N   0  0  0  0  0  0  0  0  0  0  0  0
  -25.4523  -22.7574   25.3750 N   0  0  0  0  0  0  0  0  0  0  0  0
  -26.1833  -34.2447   16.2410 N   0  3  0  0  0  0  0  0  0  0  0  0
  -27.6805  -19.0518   19.0572 O   0  0  0  0  0  0  0  0  0  0  0  0
  -22.4919  -27.8513   20.4050 O   0  0  0  0  0  0  0  0  0  0  0  0
  -21.6903  -31.7206   19.1894 O   0  0  0  0  0  0  0  0  0  0  0  0
  -25.3816  -31.5479   16.2119 O   0  0  0  0  0  0  0  0  0  0  0  0
  -23.4687  -22.8963   26.5477 O   0  0  0  0  0  0  0  0  0  0  0  0
  -25.8477  -11.6708   20.7146 O   0  0  0  0  0  0  0  0  0  0  0  0
  -28.4998  -26.7162   19.8564 O   0  0  0  0  0  0  0  0  0  1  0  0
  -27.4741  -23.4349   20.1937 O   0  0  0  0  0  0  0  0  0  0  0  0
  -21.2183   -8.7020   20.3156 F   0  0  0  0  0  0  0  0  0  0  0  0
  -23.8226  -23.5576   23.2418 F   0  0  0  0  0  0  0  0  0  0  0  0
  -23.9648  -11.7006   22.7386 F   0  0  0  0  0  0  0  0  0  0  0  0
  1  2  1  0  0  0  0
  1  5  2  0  0  0  0
  2  6  2  0  0  0  0
  3  9  2  0  0  0  0
  3 18  1  0  0  0  0
  4 10  1  0  0  0  0
  4 18  2  0  0  0  0
  5 20  1  0  0  0  0
  6 22  1  0  0  0  0
  7 11  2  0  0  0  0
  7 21  1  0  0  0  0
  8 12  2  0  0  0  0
  8 24  1  0  0  0  0
  9 25  1  0  0  0  0
 10 25  2  0  0  0  0
 11 26  1  0  0  0  0
 12 27  1  0  0  0  0
 13 14  2  0  0  0  0
 13 28  1  0  0  0  0
 14 29  1  0  0  0  0
 15 23  1  0  0  0  0
 15 26  2  0  0  0  0
 16 27  2  0  0  0  0
 16 30  1  0  0  0  0
 17 29  2  0  0  0  0
 17 31  1  0  0  0  0
 18 32  1  0  0  0  0
 19 32  1  0  0  0  0
 19 33  2  0  0  0  0
 19 34  1  0  0  0  0
 20 22  2  0  0  0  0
 20 39  1  0  0  0  0
 21 23  2  0  0  0  0
 21 40  1  0  0  0  0
 22 48  1  0  0  0  0
 23 41  1  0  0  0  0
 24 30  2  0  0  0  0
 24 72  1  0  0  0  0
 25 79  1  0  0  0  0
 26 80  1  0  0  0  0
 27 81  1  0  0  0  0
 28 31  2  0  0  0  0
 28 79  1  0  0  0  0
 29 82  1  0  0  0  0
 30 83  1  0  0  0  0
 31 84  1  0  0  0  0
 32 64  2  0  0  0  0
 33 65  1  0  0  0  0
 33 68  1  0  0  0  0
 34 69  1  0  0  0  0
 34 74  2  0  0  0  0
 35 49  1  0  0  0  0
 35 70  1  0  0  0  0
 35 75  2  0  0  0  0
 36 61  1  0  0  0  0
 36 66  1  0  0  0  0
 36 76  2  0  0  0  0
 37 62  1  0  0  0  0
 37 71  1  0  0  0  0
 37 77  2  0  0  0  0
 38 67  1  0  0  0  0
 38 72  1  0  0  0  0
 38 78  2  0  0  0  0
 39 42  1  0  0  0  0
 40 49  1  0  0  0  0
 41 66  1  0  0  0  0
 42 44  1  0  0  0  0
 43 45  1  0  0  0  0
 43 46  1  0  0  0  0
 44 48  1  0  0  0  0
 45 50  1  0  0  0  0
 46 67  1  0  0  0  0
 47 50  1  0  0  0  0
 47 67  1  0  0  0  0
 48 70  1  0  0  0  0
 49 66  1  0  0  0  0
 50 65  1  0  0  0  0
 51 58  1  0  0  0  0
 52 62  1  0  0  0  0
 53 63  1  0  0  0  0
 54 63  1  0  0  0  0
 55 63  1  0  0  0  0
 56 73  1  0  0  0  0
 57 59  1  0  0  0  0
 57 60  1  0  0  0  0
 58 72  1  0  0  0  0
 59 80  1  0  0  0  0
 60 81  1  0  0  0  0
 61 63  1  0  0  0  0
 61 71  1  0  0  0  0
 62 73  1  0  0  0  0
 64 65  1  0  0  0  0
M  CHG  1  73   1
M  ISO  4  38 100  59 101  72 100  80 101
M  END
> <Batch ID>
0016

> <Smiles>
CC[100N:0](c1ccc(OCC[101CH2:1][101O:1]c2ccc3c(c2)CN(C(=O)C(NC(=O)C(C)NC)C(C)(C)C)C(C(=O)NC2CCCc4ccccc42)C3)cc1F)[100C:0](=O)N1CCCC(n2nc(-c3ccc(Oc4ccc(F)cc4F)cc3)c(C(N)=O)c2N)C1

> <Shape>
0.188

> <Color>
0.093

> <Negative vol penalty>
0.000

$$$$

  -OEChem-04042320573D

 87 96  0     1  0  0  0  0  0999 V2000
  -36.8258  -27.6450   22.5640 C   0  0  0  0  0  0  0  0  0  0  0  0
  -36.9175  -26.6072   21.6420 C   0  0  0  0  0  0  0  0  0  0  0  0
  -23.2092  -10.1575   22.1200 C   0  0  0  0  0  0  0  0  0  0  0  0
  -23.6133   -9.5326   19.8215 C   0  0  0  0  0  0  0  0  0  0  0  0
  -36.4369  -14.3029   20.1278 C   0  0  0  0  0  0  0  0  0  0  0  0
  -35.0859  -14.1323   18.1321 C   0  0  0  0  0  0  0  0  0  0  0  0
  -37.3940  -27.5041   23.8293 C   0  0  0  0  0  0  0  0  0  0  0  0
  -37.5785  -25.4282   21.9846 C   0  0  0  0  0  0  0  0  0  0  0  0
  -36.1500  -19.7508   20.1868 C   0  0  0  0  0  0  0  0  0  0  0  0
  -35.2886  -14.2053   20.9135 C   0  0  0  0  0  0  0  0  0  0  0  0
  -33.9376  -14.0345   18.9179 C   0  0  0  0  0  0  0  0  0  0  0  0
  -22.4590   -8.9960   22.3039 C   0  0  0  0  0  0  0  0  0  0  0  0
  -22.8632   -8.3711   20.0054 C   0  0  0  0  0  0  0  0  0  0  0  0
  -36.6571  -18.9301   19.1802 C   0  0  0  0  0  0  0  0  0  0  0  0
  -20.7389   -6.0172   23.4800 C   0  0  0  0  0  0  0  0  0  0  0  0
  -20.9645   -5.2764   24.6401 C   0  0  0  0  0  0  0  0  0  0  0  0
  -38.1032  -17.8616   20.7884 C   0  0  0  0  0  0  0  0  0  0  0  0
  -23.2718   -4.9668   23.9937 C   0  0  0  0  0  0  0  0  0  0  0  0
  -23.7863  -10.4258   20.8788 C   0  0  0  0  0  0  0  0  0  0  0  0
  -36.3356  -14.2665   18.7370 C   0  0  0  0  0  0  0  0  0  0  0  0
  -24.1208  -12.9545   20.8386 C   0  0  0  0  0  0  0  0  0  0  0  0
  -38.0539  -26.3191   24.1910 C   0  0  0  0  0  0  0  0  0  0  0  0
  -36.6243  -19.6403   21.5018 C   0  0  0  0  0  0  0  0  0  0  0  0
  -38.1572  -25.2718   23.2556 C   0  0  0  0  0  0  0  0  0  0  0  0
  -37.5986  -18.6803   21.8103 C   0  0  0  0  0  0  0  0  0  0  0  0
  -34.0390  -14.0710   20.3086 C   0  0  0  0  0  0  0  0  0  0  0  0
  -22.2860   -8.1028   21.2466 C   0  0  0  0  0  0  0  0  0  0  0  0
  -37.6359  -17.9873   19.4804 C   0  0  0  0  0  0  0  0  0  0  0  0
  -21.7797   -6.2328   22.5767 C   0  0  0  0  0  0  0  0  0  0  0  0
  -22.2309   -4.7512   24.8970 C   0  0  0  0  0  0  0  0  0  0  0  0
  -23.0461   -5.7076   22.8335 C   0  0  0  0  0  0  0  0  0  0  0  0
  -24.5608  -11.6257   20.6880 C   0  0  0  0  0  0  0  0  0  0  0  0
  -25.2253  -13.7170   20.5468 C   0  0  0  0  0  0  0  0  0  0  0  0
  -38.5173  -13.4398   18.0451 C   0  0  0  0  0  0  0  0  0  0  0  0
  -37.5536  -14.3702   17.9033 C   0  0  0  0  0  0  0  0  0  0  0  0
  -22.8292  -13.4547   21.2091 C   0  0  0  0  0  0  0  0  0  0  0  0
  -38.1307  -21.5859   23.5139 C   0  0  0  0  0  0  0  0  0  0  0  0
  -37.6629  -19.1510   25.6054 C   0  0  0  0  0  0  0  0  0  0  0  0
  -37.1236  -15.8171   26.0968 C   0  0  0  0  0  0  0  0  0  0  0  0
  -30.4628  -14.8852   20.9535 C   0  0  0  0  0  0  0  0  0  0  0  0
  -38.6935  -26.2313   25.5540 C   0  0  0  0  0  0  0  0  0  0  0  0
  -36.0478  -20.5147   22.5813 C   0  0  0  0  0  0  0  0  0  0  0  0
  -38.1267  -18.5079   23.2102 C   0  0  0  0  0  0  0  0  0  0  0  0
  -39.7467  -13.3744   17.1893 C   0  0  0  0  0  0  0  0  0  0  0  0
  -39.0513  -24.8063   25.9683 C   0  0  0  0  0  0  0  0  0  0  0  0
  -39.6336  -14.2192   15.9235 C   0  0  0  0  0  0  0  0  0  0  0  0
  -29.6727  -12.4515   18.5194 C   0  0  0  0  0  0  0  0  0  0  0  0
  -39.7556  -24.0795   24.8270 C   0  0  0  0  0  0  0  0  0  0  0  0
  -39.0520  -15.5900   16.2428 C   0  0  0  0  0  0  0  0  0  0  0  0
  -28.2273  -12.1164   18.8845 C   0  0  0  0  0  0  0  0  0  0  0  0
  -30.5478  -12.6476   19.7588 C   0  0  0  0  0  0  0  0  0  0  0  0
  -28.5641  -13.3009   21.0858 C   0  0  0  0  0  0  0  0  0  0  0  0
  -38.8447  -23.9680   23.5985 C   0  0  1  0  0  0  0  0  0  0  0  0
  -37.6422  -15.4808   16.8642 C   0  0  2  0  0  0  0  0  0  0  0  0
  -36.9732  -20.6670   23.7846 C   0  0  1  0  0  0  0  0  0  0  0  0
  -27.6503  -13.1580   19.8588 C   0  0  2  0  0  0  0  0  0  0  0  0
  -32.7123  -16.9416   22.1711 C   0  0  0  0  0  0  0  0  0  0  0  0
  -36.8214  -14.1181   27.9187 C   0  0  0  0  0  0  0  0  0  0  0  0
  -40.6613  -19.2223   26.1659 C   0  0  0  0  0  0  0  0  0  0  0  0
  -40.4480  -16.9602   27.2173 C   0  0  0  0  0  0  0  0  0  0  0  0
  -39.2286  -18.9063   28.1913 C   0  0  0  0  0  0  0  0  0  0  0  0
  -34.4101  -15.1121   25.1485 C   0  0  0  0  0  0  0  0  0  0  0  0
  -32.8119  -13.9643   21.1494 C   0  0  0  0  0  0  0  0  0  0  0  0
  -37.2574  -16.8591   17.4214 C   0  0  0  0  0  0  0  0  0  1  0  0
  -32.4213  -16.3744   20.7964 C   0  0  0  0  0  0  0  0  0  0  0  0
  -38.4390  -17.9184   26.0021 C   0  0  1  0  0  0  0  0  0  0  0  0
  -36.1235  -15.0758   26.9656 C   0  0  2  0  0  0  0  0  0  0  0  0
  -39.6859  -18.2561   26.8673 C   0  0  0  0  0  0  0  0  0  0  0  0
  -25.8446  -11.5453   20.3284 N   0  0  0  0  0  0  0  0  0  0  0  0
  -26.2208  -12.8331   20.2505 N   0  0  0  0  0  0  0  0  0  0  0  0
  -37.5362  -19.3907   24.2298 N   0  0  0  0  0  0  0  0  0  0  0  0
  -29.9377  -13.6129   20.6833 N   0  0  0  0  0  0  0  0  0  0  0  0
  -25.4323  -15.0507   20.5174 N   0  0  0  0  0  0  0  0  0  0  0  0
  -21.8966  -13.7127   20.1952 N   0  0  0  0  0  0  0  0  0  0  0  0
  -37.8695  -22.9152   23.7863 N   0  0  0  0  0  0  0  0  0  0  0  0
  -37.4845  -17.0266   26.6519 N   0  0  0  0  0  0  0  0  0  0  0  0
  -31.8555  -15.0350   20.8753 N   0  0  0  0  0  0  0  0  0  0  0  0
  -35.1816  -14.2919   26.1176 N   0  3  0  0  0  0  0  0  0  0  0  0
  -22.5172  -13.6822   22.4026 O   0  0  0  0  0  0  0  0  0  0  0  0
  -39.1835  -21.1230   23.0908 O   0  0  0  0  0  0  0  0  0  0  0  0
  -37.1805  -19.8705   26.4836 O   0  0  0  0  0  0  0  0  0  0  0  0
  -37.5454  -15.3665   25.0340 O   0  0  0  0  0  0  0  0  0  0  0  0
  -29.7289  -15.8348   21.2564 O   0  0  0  0  0  0  0  0  0  0  0  0
  -21.5543   -6.9692   21.4258 O   0  0  0  0  0  0  0  0  0  0  0  0
  -38.1331  -17.1855   18.4997 O   0  0  0  0  0  0  0  0  0  1  0  0
  -22.4479   -4.0411   26.0118 F   0  0  0  0  0  0  0  0  0  0  0  0
  -24.0502   -5.9124   21.9700 F   0  0  0  0  0  0  0  0  0  0  0  0
  1  2  1  0  0  0  0
  1  7  2  0  0  0  0
  2  8  2  0  0  0  0
  3 12  2  0  0  0  0
  3 19  1  0  0  0  0
  4 13  1  0  0  0  0
  4 19  2  0  0  0  0
  5 10  2  0  0  0  0
  5 20  1  0  0  0  0
  6 11  1  0  0  0  0
  6 20  2  0  0  0  0
  7 22  1  0  0  0  0
  8 24  1  0  0  0  0
  9 14  2  0  0  0  0
  9 23  1  0  0  0  0
 10 26  1  0  0  0  0
 11 26  2  0  0  0  0
 12 27  1  0  0  0  0
 13 27  2  0  0  0  0
 14 28  1  0  0  0  0
 15 16  2  0  0  0  0
 15 29  1  0  0  0  0
 16 30  1  0  0  0  0
 17 25  1  0  0  0  0
 17 28  2  0  0  0  0
 18 30  2  0  0  0  0
 18 31  1  0  0  0  0
 19 32  1  0  0  0  0
 20 35  1  0  0  0  0
 21 32  1  0  0  0  0
 21 33  2  0  0  0  0
 21 36  1  0  0  0  0
 22 24  2  0  0  0  0
 22 41  1  0  0  0  0
 23 25  2  0  0  0  0
 23 42  1  0  0  0  0
 24 53  1  0  0  0  0
 25 43  1  0  0  0  0
 26 63  1  0  0  0  0
 27 84  1  0  0  0  0
 28 85  1  0  0  0  0
 29 31  2  0  0  0  0
 29 84  1  0  0  0  0
 30 86  1  0  0  0  0
 31 87  1  0  0  0  0
 32 69  2  0  0  0  0
 33 70  1  0  0  0  0
 33 73  1  0  0  0  0
 34 35  2  0  0  0  0
 34 44  1  0  0  0  0
 35 54  1  0  0  0  0
 36 74  1  0  0  0  0
 36 79  2  0  0  0  0
 37 55  1  0  0  0  0
 37 75  1  0  0  0  0
 37 80  2  0  0  0  0
 38 66  1  0  0  0  0
 38 71  1  0  0  0  0
 38 81  2  0  0  0  0
 39 67  1  0  0  0  0
 39 76  1  0  0  0  0
 39 82  2  0  0  0  0
 40 72  1  0  0  0  0
 40 77  1  0  0  0  0
 40 83  2  0  0  0  0
 41 45  1  0  0  0  0
 42 55  1  0  0  0  0
 43 71  1  0  0  0  0
 44 46  1  0  0  0  0
 45 48  1  0  0  0  0
 46 49  1  0  0  0  0
 47 50  1  0  0  0  0
 47 51  1  0  0  0  0
 48 53  1  0  0  0  0
 49 54  1  0  0  0  0
 50 56  1  0  0  0  0
 51 72  1  0  0  0  0
 52 56  1  0  0  0  0
 52 72  1  0  0  0  0
 53 75  1  0  0  0  0
 54 64  1  0  0  0  0
 55 71  1  0  0  0  0
 56 70  1  0  0  0  0
 57 65  1  0  0  0  0
 58 67  1  0  0  0  0
 59 68  1  0  0  0  0
 60 68  1  0  0  0  0
 61 68  1  0  0  0  0
 62 78  1  0  0  0  0
 63 77  1  0  0  0  0
 64 85  1  0  0  0  0
 65 77  1  0  0  0  0
 66 68  1  0  0  0  0
 66 76  1  0  0  0  0
 67 78  1  0  0  0  0
 69 70  1  0  0  0  0
M  CHG  1  78   1
M  ISO  4  40 100  64 101  77 100  85 101
M  END
> <Batch ID>
0016

> <Smiles>
CC[100N:0](Cc1ccc(C2=CCCCC2[101CH2:1][101O:1]c2ccc3c(c2)CN(C(=O)C(NC(=O)C(C)NC)C(C)(C)C)C(C(=O)NC2CCCc4ccccc42)C3)cc1)[100C:0](=O)N1CCCC(n2nc(-c3ccc(Oc4ccc(F)cc4F)cc3)c(C(N)=O)c2N)C1

> <Shape>
0.155

> <Color>
0.162

> <Negative vol penalty>
0.000

$$$$

  -OEChem-04042320573D

 83 91  0     1  0  0  0  0  0999 V2000
  -20.8351  -29.2693   29.8431 C   0  0  0  0  0  0  0  0  0  0  0  0
  -21.7668  -28.2391   29.7646 C   0  0  0  0  0  0  0  0  0  0  0  0
  -23.2128   -9.6723   20.5548 C   0  0  0  0  0  0  0  0  0  0  0  0
  -23.8853  -10.2036   22.8136 C   0  0  0  0  0  0  0  0  0  0  0  0
  -20.2430  -29.7621   28.6810 C   0  0  0  0  0  0  0  0  0  0  0  0
  -22.1060  -27.7004   28.5240 C   0  0  0  0  0  0  0  0  0  0  0  0
  -27.5916  -25.5913   26.8018 C   0  0  0  0  0  0  0  0  0  0  0  0
  -32.3178  -18.3294   22.5970 C   0  0  0  0  0  0  0  0  0  0  0  0
  -31.7744  -17.2563   21.8909 C   0  0  0  0  0  0  0  0  0  0  0  0
  -22.5151   -8.5594   21.0242 C   0  0  0  0  0  0  0  0  0  0  0  0
  -23.1876   -9.0907   23.2831 C   0  0  0  0  0  0  0  0  0  0  0  0
  -28.1225  -24.3039   26.7339 C   0  0  0  0  0  0  0  0  0  0  0  0
  -23.2314   -5.4127   22.0287 C   0  0  0  0  0  0  0  0  0  0  0  0
  -23.3815   -4.2134   21.3325 C   0  0  0  0  0  0  0  0  0  0  0  0
  -27.5489  -24.1975   24.3931 C   0  0  0  0  0  0  0  0  0  0  0  0
  -30.0987  -19.2112   22.9647 C   0  0  0  0  0  0  0  0  0  0  0  0
  -21.0066   -4.1728   20.8904 C   0  0  0  0  0  0  0  0  0  0  0  0
  -23.8980  -10.4943   21.4495 C   0  0  0  0  0  0  0  0  0  0  0  0
  -24.1251  -12.9520   20.8047 C   0  0  0  0  0  0  0  0  0  0  0  0
  -20.5822  -29.2357   27.4247 C   0  0  0  0  0  0  0  0  0  0  0  0
  -27.0246  -26.1882   25.6667 C   0  0  0  0  0  0  0  0  0  0  0  0
  -21.5168  -28.1857   27.3441 C   0  0  0  0  0  0  0  0  0  0  0  0
  -27.0138  -25.4936   24.4487 C   0  0  0  0  0  0  0  0  0  0  0  0
  -31.4799  -19.3069   23.1340 C   0  0  0  0  0  0  0  0  0  0  0  0
  -30.3931  -17.1605   21.7216 C   0  0  0  0  0  0  0  0  0  0  0  0
  -22.5025   -8.2687   22.3884 C   0  0  0  0  0  0  0  0  0  0  0  0
  -28.0986  -23.6057   25.5301 C   0  0  0  0  0  0  0  0  0  0  0  0
  -21.9688   -5.9920   22.1560 C   0  0  0  0  0  0  0  0  0  0  0  0
  -22.2692   -3.5935   20.7633 C   0  0  0  0  0  0  0  0  0  0  0  0
  -20.8565   -5.3720   21.5867 C   0  0  0  0  0  0  0  0  0  0  0  0
  -29.5553  -18.1380   22.2585 C   0  0  0  0  0  0  0  0  0  0  0  0
  -24.6194  -11.6437   20.9651 C   0  0  0  0  0  0  0  0  0  0  0  0
  -25.1936  -13.6657   20.3196 C   0  0  0  0  0  0  0  0  0  0  0  0
  -22.8170  -13.4755   21.0706 C   0  0  0  0  0  0  0  0  0  0  0  0
  -24.1293  -27.2547   24.9027 C   0  0  0  0  0  0  0  0  0  0  0  0
  -25.6424  -28.2873   22.2256 C   0  0  0  0  0  0  0  0  0  0  0  0
  -28.2681  -27.9553   20.0710 C   0  0  0  0  0  0  0  0  0  0  0  0
  -30.5943  -15.0173   20.4132 C   0  0  0  0  0  0  0  0  0  0  0  0
  -19.8805  -29.7688   26.2007 C   0  0  0  0  0  0  0  0  0  0  0  0
  -26.4802  -27.5879   25.7501 C   0  0  0  0  0  0  0  0  0  0  0  0
  -26.4350  -26.0976   23.1963 C   0  0  0  0  0  0  0  0  0  0  0  0
  -20.5729  -29.3979   24.8917 C   0  0  0  0  0  0  0  0  0  0  0  0
  -29.6837  -12.1019   18.5832 C   0  0  0  0  0  0  0  0  0  0  0  0
  -20.9448  -27.9186   24.8850 C   0  0  0  0  0  0  0  0  0  0  0  0
  -28.2443  -11.8305   19.0265 C   0  0  0  0  0  0  0  0  0  0  0  0
  -30.5416  -12.6279   19.7326 C   0  0  0  0  0  0  0  0  0  0  0  0
  -28.5525  -13.5236   20.8773 C   0  0  0  0  0  0  0  0  0  0  0  0
  -21.9292  -27.5921   26.0146 C   0  0  1  0  0  0  0  0  0  0  0  0
  -25.4637  -27.8999   24.6561 C   0  0  1  0  0  0  0  0  0  0  0  0
  -27.6335  -13.0538   19.7378 C   0  0  2  0  0  0  0  0  0  0  0  0
  -29.2137  -28.9173   17.9549 C   0  0  0  0  0  0  0  0  0  0  0  0
  -23.5248  -26.8021   20.6069 C   0  0  0  0  0  0  0  0  0  0  0  0
  -25.0214  -26.9888   18.6086 C   0  0  0  0  0  0  0  0  0  0  0  0
  -24.1419  -29.0507   19.7029 C   0  0  0  0  0  0  0  0  0  0  0  0
  -33.4635  -20.5016   24.0273 C   0  0  0  0  0  0  0  0  0  0  0  0
  -30.7622  -28.7902   21.4280 C   0  0  0  0  0  0  0  0  0  0  0  0
  -30.5761  -20.9633   25.7259 C   0  0  0  0  0  0  0  0  0  0  0  0
  -31.1685  -21.4208   24.3968 C   0  0  0  0  0  0  0  0  0  0  0  0
  -29.6934  -22.0404   26.3440 C   0  0  0  0  0  0  0  0  0  1  0  0
  -25.9325  -27.6974   20.8666 C   0  0  1  0  0  0  0  0  0  0  0  0
  -29.2172  -28.9789   19.4744 C   0  0  2  0  0  0  0  0  0  0  0  0
  -24.6644  -27.6224   19.9701 C   0  0  0  0  0  0  0  0  0  0  0  0
  -25.9021  -11.5300   20.6104 N   0  0  0  0  0  0  0  0  0  0  0  0
  -26.2228  -12.7761   20.2223 N   0  0  0  0  0  0  0  0  0  0  0  0
  -25.9092  -27.4662   23.3303 N   0  0  0  0  0  0  0  0  0  0  0  0
  -29.9024  -13.7889   20.3558 N   0  0  0  0  0  0  0  0  0  0  0  0
  -25.3438  -14.9612   19.9709 N   0  0  0  0  0  0  0  0  0  0  0  0
  -21.8370  -12.6047   21.5664 N   0  0  0  0  0  0  0  0  0  0  0  0
  -29.8741  -16.0579   20.9988 N   0  0  0  0  0  0  0  0  0  0  0  0
  -23.2651  -28.0216   25.6606 N   0  0  0  0  0  0  0  0  0  0  0  0
  -27.0183  -28.4906   20.3006 N   0  0  0  0  0  0  0  0  0  0  0  0
  -32.0239  -20.3801   23.8389 N   0  0  3  0  0  0  0  0  0  0  0  0
  -30.6080  -28.7354   19.9514 N   0  3  0  0  0  0  0  0  0  0  0  0
  -22.5212  -14.6760   20.8588 O   0  0  0  0  0  0  0  0  0  0  0  0
  -23.9002  -26.1441   24.4383 O   0  0  0  0  0  0  0  0  0  0  0  0
  -25.2022  -29.4369   22.3043 O   0  0  0  0  0  0  0  0  0  0  0  0
  -28.6009  -26.7957   20.3060 O   0  0  0  0  0  0  0  0  0  0  0  0
  -31.7309  -15.1441   19.9505 O   0  0  0  0  0  0  0  0  0  0  0  0
  -21.8215   -7.1830   22.8469 O   0  0  0  0  0  0  0  0  0  0  0  0
  -28.6155  -22.3488   25.4611 O   0  0  0  0  0  0  0  0  0  1  0  0
  -22.4137   -2.4426   20.0933 F   0  0  0  0  0  0  0  0  0  0  0  0
  -19.6412   -5.9244   21.7046 F   0  0  0  0  0  0  0  0  0  0  0  0
  -27.8394  -18.0583   22.0719 Cl  0  0  0  0  0  0  0  0  0  0  0  0
  1  2  1  0  0  0  0
  1  5  2  0  0  0  0
  2  6  2  0  0  0  0
  3 10  2  0  0  0  0
  3 18  1  0  0  0  0
  4 11  1  0  0  0  0
  4 18  2  0  0  0  0
  5 20  1  0  0  0  0
  6 22  1  0  0  0  0
  7 12  2  0  0  0  0
  7 21  1  0  0  0  0
  8  9  2  0  0  0  0
  8 24  1  0  0  0  0
  9 25  1  0  0  0  0
 10 26  1  0  0  0  0
 11 26  2  0  0  0  0
 12 27  1  0  0  0  0
 13 14  2  0  0  0  0
 13 28  1  0  0  0  0
 14 29  1  0  0  0  0
 15 23  1  0  0  0  0
 15 27  2  0  0  0  0
 16 24  2  0  0  0  0
 16 31  1  0  0  0  0
 17 29  2  0  0  0  0
 17 30  1  0  0  0  0
 18 32  1  0  0  0  0
 19 32  1  0  0  0  0
 19 33  2  0  0  0  0
 19 34  1  0  0  0  0
 20 22  2  0  0  0  0
 20 39  1  0  0  0  0
 21 23  2  0  0  0  0
 21 40  1  0  0  0  0
 22 48  1  0  0  0  0
 23 41  1  0  0  0  0
 24 72  1  0  0  0  0
 25 31  2  0  0  0  0
 25 69  1  0  0  0  0
 26 79  1  0  0  0  0
 27 80  1  0  0  0  0
 28 30  2  0  0  0  0
 28 79  1  0  0  0  0
 29 81  1  0  0  0  0
 30 82  1  0  0  0  0
 31 83  1  0  0  0  0
 32 63  2  0  0  0  0
 33 64  1  0  0  0  0
 33 67  1  0  0  0  0
 34 68  1  0  0  0  0
 34 74  2  0  0  0  0
 35 49  1  0  0  0  0
 35 70  1  0  0  0  0
 35 75  2  0  0  0  0
 36 60  1  0  0  0  0
 36 65  1  0  0  0  0
 36 76  2  0  0  0  0
 37 61  1  0  0  0  0
 37 71  1  0  0  0  0
 37 77  2  0  0  0  0
 38 66  1  0  0  0  0
 38 69  1  0  0  0  0
 38 78  2  0  0  0  0
 39 42  1  0  0  0  0
 40 49  1  0  0  0  0
 41 65  1  0  0  0  0
 42 44  1  0  0  0  0
 43 45  1  0  0  0  0
 43 46  1  0  0  0  0
 44 48  1  0  0  0  0
 45 50  1  0  0  0  0
 46 66  1  0  0  0  0
 47 50  1  0  0  0  0
 47 66  1  0  0  0  0
 48 70  1  0  0  0  0
 49 65  1  0  0  0  0
 50 64  1  0  0  0  0
 51 61  1  0  0  0  0
 52 62  1  0  0  0  0
 53 62  1  0  0  0  0
 54 62  1  0  0  0  0
 55 72  1  0  0  0  0
 56 73  1  0  0  0  0
 57 58  1  0  0  0  0
 57 59  1  0  0  0  0
 58 72  1  0  0  0  0
 59 80  1  0  0  0  0
 60 62  1  0  0  0  0
 60 71  1  0  0  0  0
 61 73  1  0  0  0  0
 63 64  1  0  0  0  0
M  CHG  1  73   1
M  ISO  4  38 100  59 101  69 100  80 101
M  END
> <Batch ID>
0016

> <Smiles>
CNC(C)C(=O)NC(C(=O)N1Cc2cc([101O:1][101CH2:1]CCN(C)c3ccc([100NH:0][100C:0](=O)N4CCCC(n5nc(-c6ccc(Oc7ccc(F)cc7F)cc6)c(C(N)=O)c5N)C4)c(Cl)c3)ccc2CC1C(=O)NC1CCCc2ccccc21)C(C)(C)C

> <Shape>
0.229

> <Color>
0.189

> <Negative vol penalty>
0.000

$$$$

  -OEChem-04042320573D

 84 92  0     1  0  0  0  0  0999 V2000
  -21.7814  -12.4374   19.2903 C   0  0  0  0  0  0  0  0  0  0  0  0
  -21.7011  -13.7935   19.5901 C   0  0  0  0  0  0  0  0  0  0  0  0
  -27.5065  -28.2389   21.3527 C   0  0  0  0  0  0  0  0  0  0  0  0
  -25.8227  -27.7829   23.0242 C   0  0  0  0  0  0  0  0  0  0  0  0
  -22.9384  -11.7235   19.5999 C   0  0  0  0  0  0  0  0  0  0  0  0
  -22.7774  -14.4364   20.2007 C   0  0  0  0  0  0  0  0  0  0  0  0
  -23.8211  -18.9158   18.0817 C   0  0  0  0  0  0  0  0  0  0  0  0
  -18.9741  -27.1805   21.3540 C   0  0  0  0  0  0  0  0  0  0  0  0
  -19.2617  -25.8509   21.6620 C   0  0  0  0  0  0  0  0  0  0  0  0
  -28.3119  -27.2348   21.8901 C   0  0  0  0  0  0  0  0  0  0  0  0
  -26.6280  -26.7788   23.5615 C   0  0  0  0  0  0  0  0  0  0  0  0
  -22.9974  -19.9882   18.4212 C   0  0  0  0  0  0  0  0  0  0  0  0
  -27.4224  -23.5736   22.8431 C   0  0  0  0  0  0  0  0  0  0  0  0
  -26.8151  -22.3591   23.1622 C   0  0  0  0  0  0  0  0  0  0  0  0
  -24.6589  -20.7599   19.9906 C   0  0  0  0  0  0  0  0  0  0  0  0
  -19.7850  -27.8593   23.5262 C   0  0  0  0  0  0  0  0  0  0  0  0
  -27.4756  -22.6352   25.4697 C   0  0  0  0  0  0  0  0  0  0  0  0
  -26.2619  -28.5130   21.9198 C   0  0  0  0  0  0  0  0  0  0  0  0
  -25.7431  -30.9175   21.2439 C   0  0  0  0  0  0  0  0  0  0  0  0
  -24.0330  -12.3601   20.2058 C   0  0  0  0  0  0  0  0  0  0  0  0
  -25.0674  -18.7511   18.7031 C   0  0  0  0  0  0  0  0  0  0  0  0
  -23.9495  -13.7300   20.5199 C   0  0  0  0  0  0  0  0  0  0  0  0
  -25.4977  -19.6861   19.6554 C   0  0  0  0  0  0  0  0  0  0  0  0
  -20.0726  -26.5297   23.8343 C   0  0  0  0  0  0  0  0  0  0  0  0
  -19.2358  -28.1848   22.2860 C   0  0  0  0  0  0  0  0  0  0  0  0
  -19.8110  -25.5255   22.9022 C   0  0  0  0  0  0  0  0  0  0  0  0
  -27.8727  -26.5047   22.9945 C   0  0  0  0  0  0  0  0  0  0  0  0
  -23.4149  -20.9088   19.3778 C   0  0  0  0  0  0  0  0  0  0  0  0
  -28.0564  -24.3188   23.8372 C   0  0  0  0  0  0  0  0  0  0  0  0
  -26.8417  -21.8899   24.4756 C   0  0  0  0  0  0  0  0  0  0  0  0
  -28.0830  -23.8497   25.1506 C   0  0  0  0  0  0  0  0  0  0  0  0
  -25.4297  -29.5505   21.3654 C   0  0  0  0  0  0  0  0  0  0  0  0
  -24.6317  -31.4739   20.6593 C   0  0  0  0  0  0  0  0  0  0  0  0
  -26.9325  -31.6215   21.6254 C   0  0  0  0  0  0  0  0  0  0  0  0
  -26.3801  -16.5130   20.5393 C   0  0  0  0  0  0  0  0  0  0  0  0
  -29.0372  -18.3418   20.1967 C   0  0  0  0  0  0  0  0  0  0  0  0
  -30.3769  -21.4122   19.5450 C   0  0  0  0  0  0  0  0  0  0  0  0
  -18.9893  -30.0317   20.6369 C   0  0  0  0  0  0  0  0  0  0  0  0
  -25.2444  -11.5363   20.5646 C   0  0  0  0  0  0  0  0  0  0  0  0
  -25.9557  -17.6040   18.3064 C   0  0  0  0  0  0  0  0  0  0  0  0
  -26.8354  -19.5656   20.3369 C   0  0  0  0  0  0  0  0  0  0  0  0
  -26.4826  -12.3752   20.8704 C   0  0  0  0  0  0  0  0  0  0  0  0
  -21.0056  -30.4198   17.7340 C   0  0  0  0  0  0  0  0  0  0  0  0
  -26.1293  -13.5272   21.8057 C   0  0  0  0  0  0  0  0  0  0  0  0
  -22.4112  -30.3624   18.3309 C   0  0  0  0  0  0  0  0  0  0  0  0
  -20.0574  -29.4259   18.4055 C   0  0  0  0  0  0  0  0  0  0  0  0
  -21.4083  -29.4931   20.4779 C   0  0  0  0  0  0  0  0  0  0  0  0
  -25.1054  -14.4683   21.1596 C   0  0  1  0  0  0  0  0  0  0  0  0
  -26.9839  -17.2470   19.3755 C   0  0  1  0  0  0  0  0  0  0  0  0
  -22.3684  -30.5221   19.8609 C   0  0  1  0  0  0  0  0  0  0  0  0
  -20.6595  -26.2090   25.1705 C   0  0  0  0  0  0  0  0  0  0  0  0
  -32.5781  -22.6049   19.3733 C   0  0  0  0  0  0  0  0  0  0  0  0
  -29.2512  -18.3800   23.2401 C   0  0  0  0  0  0  0  0  0  0  0  0
  -30.8369  -20.3066   23.0349 C   0  0  0  0  0  0  0  0  0  0  0  0
  -31.4293  -18.0950   22.0447 C   0  0  0  0  0  0  0  0  0  0  0  0
  -18.3424  -30.4076   23.0066 C   0  0  0  0  0  0  0  0  0  0  0  0
  -19.0756  -23.3425   23.8263 C   0  0  0  0  0  0  0  0  0  0  0  0
  -29.9134  -22.1018   16.7045 C   0  0  0  0  0  0  0  0  0  0  0  0
  -21.3736  -23.0483   21.4525 C   0  0  0  0  0  0  0  0  0  0  0  0
  -21.3729  -23.5967   22.8743 C   0  0  0  0  0  0  0  0  0  0  0  0
  -22.7171  -22.4555   21.0441 C   0  0  0  0  0  0  0  0  0  1  0  0
  -29.6393  -19.5042   20.9485 C   0  0  1  0  0  0  0  0  0  0  0  0
  -31.4981  -21.8459   18.6181 C   0  0  2  0  0  0  0  0  0  0  0  0
  -30.2631  -19.0729   22.3058 C   0  0  0  0  0  0  0  0  0  0  0  0
  -24.2144  -29.2563   20.8959 N   0  0  0  0  0  0  0  0  0  0  0  0
  -23.7543  -30.4463   20.4737 N   0  0  0  0  0  0  0  0  0  0  0  0
  -27.6652  -18.4233   19.9196 N   0  0  0  0  0  0  0  0  0  0  0  0
  -20.0808  -29.5889   19.8660 N   0  0  0  0  0  0  0  0  0  0  0  0
  -24.3292  -32.7369   20.2911 N   0  0  0  0  0  0  0  0  0  0  0  0
  -27.0053  -32.1590   22.9177 N   0  0  0  0  0  0  0  0  0  0  0  0
  -25.7512  -15.3319   20.1945 N   0  0  0  0  0  0  0  0  0  0  0  0
  -30.5812  -20.1388   20.0328 N   0  0  0  0  0  0  0  0  0  0  0  0
  -18.9371  -29.5611   21.9666 N   0  0  0  0  0  0  0  0  0  0  0  0
  -20.0941  -24.1835   23.1946 N   0  0  3  0  0  0  0  0  0  0  0  0
  -30.9678  -22.7297   17.5417 N   0  3  0  0  0  0  0  0  0  0  0  0
  -27.8953  -31.7837   20.8378 O   0  0  0  0  0  0  0  0  0  0  0  0
  -26.4789  -16.9827   21.6668 O   0  0  0  0  0  0  0  0  0  0  0  0
  -29.7592  -17.3996   19.8611 O   0  0  0  0  0  0  0  0  0  0  0  0
  -29.4177  -22.1326   19.8127 O   0  0  0  0  0  0  0  0  0  0  0  0
  -18.1413  -30.8082   20.1810 O   0  0  0  0  0  0  0  0  0  0  0  0
  -28.6582  -25.5247   23.5189 O   0  0  0  0  0  0  0  0  0  0  0  0
  -22.6126  -21.9560   19.7115 O   0  0  0  0  0  0  0  0  0  1  0  0
  -26.2571  -20.7244   24.7822 F   0  0  0  0  0  0  0  0  0  0  0  0
  -28.6895  -24.5618   26.1102 F   0  0  0  0  0  0  0  0  0  0  0  0
  1  2  1  0  0  0  0
  1  5  2  0  0  0  0
  2  6  2  0  0  0  0
  3 10  2  0  0  0  0
  3 18  1  0  0  0  0
  4 11  1  0  0  0  0
  4 18  2  0  0  0  0
  5 20  1  0  0  0  0
  6 22  1  0  0  0  0
  7 12  2  0  0  0  0
  7 21  1  0  0  0  0
  8  9  2  0  0  0  0
  8 25  1  0  0  0  0
  9 26  1  0  0  0  0
 10 27  1  0  0  0  0
 11 27  2  0  0  0  0
 12 28  1  0  0  0  0
 13 14  2  0  0  0  0
 13 29  1  0  0  0  0
 14 30  1  0  0  0  0
 15 23  1  0  0  0  0
 15 28  2  0  0  0  0
 16 24  1  0  0  0  0
 16 25  2  0  0  0  0
 17 30  2  0  0  0  0
 17 31  1  0  0  0  0
 18 32  1  0  0  0  0
 19 32  1  0  0  0  0
 19 33  2  0  0  0  0
 19 34  1  0  0  0  0
 20 22  2  0  0  0  0
 20 39  1  0  0  0  0
 21 23  2  0  0  0  0
 21 40  1  0  0  0  0
 22 48  1  0  0  0  0
 23 41  1  0  0  0  0
 24 26  2  0  0  0  0
 24 51  1  0  0  0  0
 25 73  1  0  0  0  0
 26 74  1  0  0  0  0
 27 81  1  0  0  0  0
 28 82  1  0  0  0  0
 29 31  2  0  0  0  0
 29 81  1  0  0  0  0
 30 83  1  0  0  0  0
 31 84  1  0  0  0  0
 32 65  2  0  0  0  0
 33 66  1  0  0  0  0
 33 69  1  0  0  0  0
 34 70  1  0  0  0  0
 34 76  2  0  0  0  0
 35 49  1  0  0  0  0
 35 71  1  0  0  0  0
 35 77  2  0  0  0  0
 36 62  1  0  0  0  0
 36 67  1  0  0  0  0
 36 78  2  0  0  0  0
 37 63  1  0  0  0  0
 37 72  1  0  0  0  0
 37 79  2  0  0  0  0
 38 68  1  0  0  0  0
 38 73  1  0  0  0  0
 38 80  2  0  0  0  0
 39 42  1  0  0  0  0
 40 49  1  0  0  0  0
 41 67  1  0  0  0  0
 42 44  1  0  0  0  0
 43 45  1  0  0  0  0
 43 46  1  0  0  0  0
 44 48  1  0  0  0  0
 45 50  1  0  0  0  0
 46 68  1  0  0  0  0
 47 50  1  0  0  0  0
 47 68  1  0  0  0  0
 48 71  1  0  0  0  0
 49 67  1  0  0  0  0
 50 66  1  0  0  0  0
 52 63  1  0  0  0  0
 53 64  1  0  0  0  0
 54 64  1  0  0  0  0
 55 64  1  0  0  0  0
 56 73  1  0  0  0  0
 57 74  1  0  0  0  0
 58 75  1  0  0  0  0
 59 60  1  0  0  0  0
 59 61  1  0  0  0  0
 60 74  1  0  0  0  0
 61 82  1  0  0  0  0
 62 64  1  0  0  0  0
 62 72  1  0  0  0  0
 63 75  1  0  0  0  0
 65 66  1  0  0  0  0
M  CHG  1  75   1
M  ISO  4  38 100  61 101  73 100  82 101
M  END
> <Batch ID>
0016

> <Smiles>
CNC(C)C(=O)NC(C(=O)N1Cc2cc([101O:1][101CH2:1]CCN(C)c3ccc([100N:0](C)[100C:0](=O)N4CCCC(n5nc(-c6ccc(Oc7ccc(F)cc7F)cc6)c(C(N)=O)c5N)C4)cc3C)ccc2CC1C(=O)NC1CCCc2ccccc21)C(C)(C)C

> <Shape>
0.201

> <Color>
0.082

> <Negative vol penalty>
0.000

$$$$

  -OEChem-04042320573D

 83 91  0     1  0  0  0  0  0999 V2000
  -25.3772  -21.9735   15.9085 C   0  0  0  0  0  0  0  0  0  0  0  0
  -24.5872  -21.0718   15.9765 C   0  0  0  0  0  0  0  0  0  0  0  0
  -18.2849  -24.9975   20.9544 C   0  0  0  0  0  0  0  0  0  0  0  0
  -19.3192  -25.4934   20.1672 C   0  0  0  0  0  0  0  0  0  0  0  0
  -29.1883  -17.0768   20.2100 C   0  0  0  0  0  0  0  0  0  0  0  0
  -31.2641  -18.1964   20.7340 C   0  0  0  0  0  0  0  0  0  0  0  0
  -17.8445  -25.7213   22.0616 C   0  0  0  0  0  0  0  0  0  0  0  0
  -19.9130  -26.7141   20.4861 C   0  0  0  0  0  0  0  0  0  0  0  0
  -23.4031  -24.4100   23.1348 C   0  0  0  0  0  0  0  0  0  0  0  0
  -29.8652  -15.8599   20.1286 C   0  0  0  0  0  0  0  0  0  0  0  0
  -31.9410  -16.9796   20.6526 C   0  0  0  0  0  0  0  0  0  0  0  0
  -23.5074  -23.1994   22.4511 C   0  0  0  0  0  0  0  0  0  0  0  0
  -31.8209  -14.2426   17.8961 C   0  0  0  0  0  0  0  0  0  0  0  0
  -31.5268  -13.4092   16.8169 C   0  0  0  0  0  0  0  0  0  0  0  0
  -24.6160  -24.3298   20.6311 C   0  0  0  0  0  0  0  0  0  0  0  0
  -23.9592  -19.7756   18.9057 C   0  0  0  0  0  0  0  0  0  0  0  0
  -24.0889  -18.3652   20.8629 C   0  0  0  0  0  0  0  0  0  0  0  0
  -24.3505  -17.4040   18.6618 C   0  0  0  0  0  0  0  0  0  0  0  0
  -30.8121  -11.6810   18.3464 C   0  0  0  0  0  0  0  0  0  0  0  0
  -29.8877  -18.2451   20.5127 C   0  0  0  0  0  0  0  0  0  0  0  0
  -28.5947  -20.0702   21.7392 C   0  0  0  0  0  0  0  0  0  0  0  0
  -18.4397  -26.9469   22.4000 C   0  0  0  0  0  0  0  0  0  0  0  0
  -23.8956  -25.5934   22.5661 C   0  0  0  0  0  0  0  0  0  0  0  0
  -19.4792  -27.4557   21.5982 C   0  0  0  0  0  0  0  0  0  0  0  0
  -24.5190  -25.5536   21.3107 C   0  0  0  0  0  0  0  0  0  0  0  0
  -23.9152  -19.6259   20.2917 C   0  0  0  0  0  0  0  0  0  0  0  0
  -24.1768  -18.6647   18.0906 C   0  0  0  0  0  0  0  0  0  0  0  0
  -31.2416  -15.8113   20.3499 C   0  0  0  0  0  0  0  0  0  0  0  0
  -24.1114  -23.1596   21.1978 C   0  0  0  0  0  0  0  0  0  0  0  0
  -31.6106  -13.7952   19.2004 C   0  0  0  0  0  0  0  0  0  0  0  0
  -31.0224  -12.1284   17.0421 C   0  0  0  0  0  0  0  0  0  0  0  0
  -31.1062  -12.5143   19.4256 C   0  0  0  0  0  0  0  0  0  0  0  0
  -24.3066  -17.2543   20.0479 C   0  0  0  0  0  0  0  0  0  0  0  0
  -29.1892  -19.5025   20.5964 C   0  0  0  0  0  0  0  0  0  0  0  0
  -28.0663  -21.2584   21.2970 C   0  0  0  0  0  0  0  0  0  0  0  0
  -26.3292  -23.0590   15.8271 C   0  0  0  0  0  0  0  0  0  0  0  0
  -28.5262  -19.5685   23.0806 C   0  0  0  0  0  0  0  0  0  0  0  0
  -22.6049  -28.3538   21.6617 C   0  0  0  0  0  0  0  0  0  0  0  0
  -25.6989  -29.1886   21.1590 C   0  0  0  0  0  0  0  0  0  0  0  0
  -28.9025  -28.1944   20.5298 C   0  0  0  0  0  0  0  0  0  0  0  0
  -17.8979  -27.7161   23.5787 C   0  0  0  0  0  0  0  0  0  0  0  0
  -23.7992  -26.8866   23.3281 C   0  0  0  0  0  0  0  0  0  0  0  0
  -25.0820  -26.7925   20.6653 C   0  0  0  0  0  0  0  0  0  0  0  0
  -18.8317  -28.8208   24.0663 C   0  0  0  0  0  0  0  0  0  0  0  0
  -28.7050  -24.6581   18.0041 C   0  0  0  0  0  0  0  0  0  0  0  0
  -19.3521  -29.6385   22.8885 C   0  0  0  0  0  0  0  0  0  0  0  0
  -29.0715  -23.5546   18.9960 C   0  0  0  0  0  0  0  0  0  0  0  0
  -28.4380  -24.0927   16.6129 C   0  0  0  0  0  0  0  0  0  0  0  0
  -27.7577  -21.9130   17.5805 C   0  0  0  0  0  0  0  0  0  0  0  0
  -20.1652  -28.7641   21.9262 C   0  0  1  0  0  0  0  0  0  0  0  0
  -23.8748  -28.1169   22.4292 C   0  0  1  0  0  0  0  0  0  0  0  0
  -28.0071  -22.4431   19.0034 C   0  0  1  0  0  0  0  0  0  0  0  0
  -31.2061  -29.1068   20.1325 C   0  0  0  0  0  0  0  0  0  0  0  0
  -24.8943  -29.9788   18.3238 C   0  0  0  0  0  0  0  0  0  0  0  0
  -27.3207  -29.9665   17.7065 C   0  0  0  0  0  0  0  0  0  0  0  0
  -26.4835  -31.5577   19.4356 C   0  0  0  0  0  0  0  0  0  0  0  0
  -24.8561  -17.8107   15.8614 C   0  0  0  0  0  0  0  0  0  0  0  0
  -29.9865  -26.8127   22.9120 C   0  0  0  0  0  0  0  0  0  0  0  0
  -23.6203  -19.9747   16.0573 C   0  0  0  0  0  0  0  0  0  0  0  0
  -23.6813  -20.8208   21.1685 C   0  0  0  0  0  0  0  0  0  1  0  0
  -26.6550  -29.0979   19.9942 C   0  0  1  0  0  0  0  0  0  0  0  0
  -30.2226  -28.5860   21.1689 C   0  0  2  0  0  0  0  0  0  0  0  0
  -26.3261  -30.1270   18.8761 C   0  0  0  0  0  0  0  0  0  0  0  0
  -29.0516  -20.2670   19.5098 N   0  0  0  0  0  0  0  0  0  0  0  0
  -28.3646  -21.3273   19.9679 N   0  0  0  0  0  0  0  0  0  0  0  0
  -27.4488  -23.0161   16.6606 N   0  0  0  0  0  0  0  0  0  0  0  0
  -24.9579  -28.0338   21.4473 N   0  0  0  0  0  0  0  0  0  0  0  0
  -27.3803  -22.2405   21.9193 N   0  0  0  0  0  0  0  0  0  0  0  0
  -29.1215  -18.3313   23.3623 N   0  0  0  0  0  0  0  0  0  0  0  0
  -21.4889  -28.5224   22.4589 N   0  0  0  0  0  0  0  0  0  0  0  0
  -27.9952  -29.2324   20.5547 N   0  0  0  0  0  0  0  0  0  0  0  0
  -24.2212  -18.8169   16.6890 N   0  0  3  0  0  0  0  0  0  0  0  0
  -30.8364  -27.4117   21.8510 N   0  3  0  0  0  0  0  0  0  0  0  0
  -26.0822  -23.9515   15.0219 O   0  0  0  0  0  0  0  0  0  0  0  0
  -27.9398  -20.1908   23.9983 O   0  0  0  0  0  0  0  0  0  0  0  0
  -22.6357  -28.3831   20.4370 O   0  0  0  0  0  0  0  0  0  0  0  0
  -25.6179  -30.2429   21.7942 O   0  0  0  0  0  0  0  0  0  0  0  0
  -28.6979  -27.0804   20.0527 O   0  0  0  0  0  0  0  0  0  0  0  0
  -31.9024  -14.6240   20.2707 O   0  0  0  0  0  0  0  0  0  0  0  0
  -24.2139  -21.9795   20.5281 O   0  0  0  0  0  0  0  0  0  1  0  0
  -30.7386  -11.3288   16.0056 F   0  0  0  0  0  0  0  0  0  0  0  0
  -30.9010  -12.0793   20.6764 F   0  0  0  0  0  0  0  0  0  0  0  0
  -24.5210  -15.6983   20.7518 Cl  0  0  0  0  0  0  0  0  0  0  0  0
  1  2  3  0  0  0  0
  1 36  1  0  0  0  0
  2 59  1  0  0  0  0
  3  4  1  0  0  0  0
  3  7  2  0  0  0  0
  4  8  2  0  0  0  0
  5 10  2  0  0  0  0
  5 20  1  0  0  0  0
  6 11  1  0  0  0  0
  6 20  2  0  0  0  0
  7 22  1  0  0  0  0
  8 24  1  0  0  0  0
  9 12  2  0  0  0  0
  9 23  1  0  0  0  0
 10 28  1  0  0  0  0
 11 28  2  0  0  0  0
 12 29  1  0  0  0  0
 13 14  2  0  0  0  0
 13 30  1  0  0  0  0
 14 31  1  0  0  0  0
 15 25  1  0  0  0  0
 15 29  2  0  0  0  0
 16 26  2  0  0  0  0
 16 27  1  0  0  0  0
 17 26  1  0  0  0  0
 17 33  2  0  0  0  0
 18 27  2  0  0  0  0
 18 33  1  0  0  0  0
 19 31  2  0  0  0  0
 19 32  1  0  0  0  0
 20 34  1  0  0  0  0
 21 34  1  0  0  0  0
 21 35  2  0  0  0  0
 21 37  1  0  0  0  0
 22 24  2  0  0  0  0
 22 41  1  0  0  0  0
 23 25  2  0  0  0  0
 23 42  1  0  0  0  0
 24 50  1  0  0  0  0
 25 43  1  0  0  0  0
 26 60  1  0  0  0  0
 27 72  1  0  0  0  0
 28 79  1  0  0  0  0
 29 80  1  0  0  0  0
 30 32  2  0  0  0  0
 30 79  1  0  0  0  0
 31 81  1  0  0  0  0
 32 82  1  0  0  0  0
 33 83  1  0  0  0  0
 34 64  2  0  0  0  0
 35 65  1  0  0  0  0
 35 68  1  0  0  0  0
 36 66  1  0  0  0  0
 36 74  2  0  0  0  0
 37 69  1  0  0  0  0
 37 75  2  0  0  0  0
 38 51  1  0  0  0  0
 38 70  1  0  0  0  0
 38 76  2  0  0  0  0
 39 61  1  0  0  0  0
 39 67  1  0  0  0  0
 39 77  2  0  0  0  0
 40 62  1  0  0  0  0
 40 71  1  0  0  0  0
 40 78  2  0  0  0  0
 41 44  1  0  0  0  0
 42 51  1  0  0  0  0
 43 67  1  0  0  0  0
 44 46  1  0  0  0  0
 45 47  1  0  0  0  0
 45 48  1  0  0  0  0
 46 50  1  0  0  0  0
 47 52  1  0  0  0  0
 48 66  1  0  0  0  0
 49 52  1  0  0  0  0
 49 66  1  0  0  0  0
 50 70  1  0  0  0  0
 51 67  1  0  0  0  0
 52 65  1  0  0  0  0
 53 62  1  0  0  0  0
 54 63  1  0  0  0  0
 55 63  1  0  0  0  0
 56 63  1  0  0  0  0
 57 72  1  0  0  0  0
 58 73  1  0  0  0  0
 59 72  1  0  0  0  0
 60 80  1  0  0  0  0
 61 63  1  0  0  0  0
 61 71  1  0  0  0  0
 62 73  1  0  0  0  0
 64 65  1  0  0  0  0
M  CHG  1  73   1
M  ISO  4   1 100  36 100  60 101  80 101
M  END
> <Batch ID>
0016

> <Smiles>
CNC(C)C(=O)NC(C(=O)N1Cc2cc([101O:1][101CH2:1]c3cc(Cl)cc(N(C)CC#[100C:0][100C:0](=O)N4CCCC(n5nc(-c6ccc(Oc7ccc(F)cc7F)cc6)c(C(N)=O)c5N)C4)c3)ccc2CC1C(=O)NC1CCCc2ccccc21)C(C)(C)C

> <Shape>
0.214

> <Color>
0.074

> <Negative vol penalty>
0.000

$$$$

  -OEChem-04042320573D

 85 93  0     1  0  0  0  0  0999 V2000
  -28.7443  -30.2160   19.7836 C   0  0  0  0  0  0  0  0  0  0  0  0
  -28.4293  -29.0494   20.4730 C   0  0  0  0  0  0  0  0  0  0  0  0
  -22.4020  -10.2761   20.1562 C   0  0  0  0  0  0  0  0  0  0  0  0
  -24.3217   -9.4640   21.3777 C   0  0  0  0  0  0  0  0  0  0  0  0
  -27.8537  -31.2888   19.7877 C   0  0  0  0  0  0  0  0  0  0  0  0
  -27.2240  -28.9553   21.1679 C   0  0  0  0  0  0  0  0  0  0  0  0
  -24.8717  -24.5390   20.3883 C   0  0  0  0  0  0  0  0  0  0  0  0
  -21.7335   -9.0786   20.4105 C   0  0  0  0  0  0  0  0  0  0  0  0
  -23.6532   -8.2664   21.6321 C   0  0  0  0  0  0  0  0  0  0  0  0
  -25.3514  -23.4305   21.0846 C   0  0  0  0  0  0  0  0  0  0  0  0
  -22.3166   -5.1363   22.9105 C   0  0  0  0  0  0  0  0  0  0  0  0
  -22.3746   -4.6229   24.2060 C   0  0  0  0  0  0  0  0  0  0  0  0
  -23.5676  -23.6747   22.6902 C   0  0  0  0  0  0  0  0  0  0  0  0
  -25.9429  -17.5124   17.7377 C   0  0  0  0  0  0  0  0  0  0  0  0
  -21.3284   -6.6310   25.0487 C   0  0  0  0  0  0  0  0  0  0  0  0
  -24.4255  -18.8004   16.6845 C   0  0  0  0  0  0  0  0  0  0  0  0
  -23.6961  -10.4688   20.6398 C   0  0  0  0  0  0  0  0  0  0  0  0
  -24.3770  -12.8699   21.1679 C   0  0  0  0  0  0  0  0  0  0  0  0
  -26.6326  -31.2043   20.4750 C   0  0  0  0  0  0  0  0  0  0  0  0
  -23.7409  -25.2315   20.8445 C   0  0  0  0  0  0  0  0  0  0  0  0
  -26.3169  -30.0285   21.1823 C   0  0  0  0  0  0  0  0  0  0  0  0
  -23.0741  -24.7902   21.9964 C   0  0  0  0  0  0  0  0  0  0  0  0
  -24.9816  -18.5378   17.9170 C   0  0  0  0  0  0  0  0  0  0  0  0
  -22.3591   -8.0738   21.1485 C   0  0  0  0  0  0  0  0  0  0  0  0
  -24.7011  -22.9999   22.2373 C   0  0  0  0  0  0  0  0  0  0  0  0
  -21.7646   -6.3972   22.6840 C   0  0  0  0  0  0  0  0  0  0  0  0
  -21.8805   -5.3702   25.2752 C   0  0  0  0  0  0  0  0  0  0  0  0
  -21.2704   -7.1445   23.7531 C   0  0  0  0  0  0  0  0  0  0  0  0
  -24.3874  -11.7054   20.3769 C   0  0  0  0  0  0  0  0  0  0  0  0
  -25.9445  -17.1793   16.4012 C   0  0  0  0  0  0  0  0  0  0  0  0
  -25.1825  -13.7523   20.4904 C   0  0  0  0  0  0  0  0  0  0  0  0
  -23.6998  -13.1306   22.4045 C   0  0  0  0  0  0  0  0  0  0  0  0
  -26.7731  -16.1682   15.7320 C   0  0  0  0  0  0  0  0  0  0  0  0
  -23.1782  -28.1953   21.8459 C   0  0  0  0  0  0  0  0  0  0  0  0
  -20.0955  -27.1860   21.8685 C   0  0  0  0  0  0  0  0  0  0  0  0
  -17.9021  -24.5779   22.0537 C   0  0  0  0  0  0  0  0  0  0  0  0
  -25.7232  -32.4074   20.4900 C   0  0  0  0  0  0  0  0  0  0  0  0
  -23.2203  -26.4092   20.0671 C   0  0  0  0  0  0  0  0  0  0  0  0
  -21.8441  -25.4866   22.5165 C   0  0  0  0  0  0  0  0  0  0  0  0
  -24.2997  -32.0894   20.9404 C   0  0  0  0  0  0  0  0  0  0  0  0
  -28.2912  -13.0466   16.5642 C   0  0  0  0  0  0  0  0  0  0  0  0
  -24.3180  -31.2220   22.1950 C   0  0  0  0  0  0  0  0  0  0  0  0
  -27.4002  -12.5029   17.6825 C   0  0  0  0  0  0  0  0  0  0  0  0
  -27.4813  -13.8096   15.5190 C   0  0  0  0  0  0  0  0  0  0  0  0
  -25.7417  -14.3485   17.1888 C   0  0  0  0  0  0  0  0  0  0  0  0
  -25.0082  -29.8791   21.9273 C   0  0  1  0  0  0  0  0  0  0  0  0
  -22.3631  -27.3492   20.9091 C   0  0  1  0  0  0  0  0  0  0  0  0
  -26.5258  -13.6160   18.2899 C   0  0  1  0  0  0  0  0  0  0  0  0
  -15.4450  -24.0688   22.0847 C   0  0  0  0  0  0  0  0  0  0  0  0
  -19.9392  -28.1287   24.7663 C   0  0  0  0  0  0  0  0  0  0  0  0
  -17.8547  -26.7661   25.0241 C   0  0  0  0  0  0  0  0  0  0  0  0
  -17.9174  -28.6493   23.3894 C   0  0  0  0  0  0  0  0  0  0  0  0
  -25.9994  -19.5362   24.3830 C   0  0  0  0  0  0  0  0  0  0  0  0
  -23.5955  -18.8652   24.4957 C   0  0  0  0  0  0  0  0  0  0  0  0
  -24.7032  -17.9423   14.3594 C   0  0  0  0  0  0  0  0  0  0  0  0
  -18.0874  -22.9629   19.5805 C   0  0  0  0  0  0  0  0  0  0  0  0
  -22.5464  -17.8736   19.4243 C   0  0  0  0  0  0  0  0  0  0  0  0
  -24.6341  -19.2138   19.2106 C   0  0  0  0  0  0  0  0  0  0  0  0
  -24.7859  -19.0418   22.2521 C   0  0  0  0  0  0  0  0  0  0  0  0
  -23.5067  -19.0099   21.4214 C   0  0  0  0  0  0  0  0  0  0  0  0
  -24.2088  -21.1348   23.6283 C   0  0  0  0  0  0  0  0  0  1  0  0
  -19.1939  -26.5263   22.8840 C   0  0  1  0  0  0  0  0  0  0  0  0
  -16.6851  -24.2241   21.2181 C   0  0  2  0  0  0  0  0  0  0  0  0
  -18.7506  -27.5054   24.0075 C   0  0  0  0  0  0  0  0  0  0  0  0
  -24.6330  -19.6510   23.6739 C   0  0  0  0  0  0  0  0  0  0  0  0
  -25.1397  -11.8334   19.2807 N   0  0  0  0  0  0  0  0  0  0  0  0
  -25.0186  -17.9689   15.7706 N   0  0  0  0  0  0  0  0  0  0  0  0
  -25.6094  -13.0887   19.3780 N   0  0  0  0  0  0  0  0  0  0  0  0
  -26.6602  -14.8408   16.1523 N   0  0  0  0  0  0  0  0  0  0  0  0
  -21.3776  -26.6370   21.7250 N   0  0  0  0  0  0  0  0  0  0  0  0
  -25.5600  -15.0234   20.7436 N   0  0  0  0  0  0  0  0  0  0  0  0
  -22.9134  -12.1137   22.9628 N   0  0  0  0  0  0  0  0  0  0  0  0
  -24.1188  -28.9869   21.2150 N   0  0  0  0  0  0  0  0  0  0  0  0
  -18.0897  -25.9418   22.1307 N   0  0  0  0  0  0  0  0  0  0  0  0
  -16.9119  -22.9445   20.4887 N   0  3  0  0  0  0  0  0  0  0  0  0
  -23.7956  -18.3519   20.1212 N   0  3  1  0  0  0  0  0  0  0  0  0
  -23.7763  -14.2382   22.9883 O   0  0  0  0  0  0  0  0  0  0  0  0
  -27.5226  -16.5787   14.8472 O   0  0  0  0  0  0  0  0  0  0  0  0
  -22.9681  -28.1355   23.0517 O   0  0  0  0  0  0  0  0  0  0  0  0
  -19.6750  -28.1482   21.2213 O   0  0  0  0  0  0  0  0  0  0  0  0
  -18.6130  -23.7295   22.5878 O   0  0  0  0  0  0  0  0  0  0  0  0
  -21.7070   -6.9052   21.3970 O   0  0  0  0  0  0  0  0  0  0  0  0
  -25.1675  -21.9186   22.9193 O   0  0  0  0  0  0  0  0  0  1  0  0
  -21.9349   -4.8763   26.5191 F   0  0  0  0  0  0  0  0  0  0  0  0
  -20.7378   -8.3558   23.5416 F   0  0  0  0  0  0  0  0  0  0  0  0
  1  2  1  0  0  0  0
  1  5  2  0  0  0  0
  2  6  2  0  0  0  0
  3  8  2  0  0  0  0
  3 17  1  0  0  0  0
  4  9  1  0  0  0  0
  4 17  2  0  0  0  0
  5 19  1  0  0  0  0
  6 21  1  0  0  0  0
  7 10  2  0  0  0  0
  7 20  1  0  0  0  0
  8 24  1  0  0  0  0
  9 24  2  0  0  0  0
 10 25  1  0  0  0  0
 11 12  2  0  0  0  0
 11 26  1  0  0  0  0
 12 27  1  0  0  0  0
 13 22  1  0  0  0  0
 13 25  2  0  0  0  0
 14 23  1  0  0  0  0
 14 30  2  0  0  0  0
 15 27  2  0  0  0  0
 15 28  1  0  0  0  0
 16 23  2  0  0  0  0
 16 67  1  0  0  0  0
 17 29  1  0  0  0  0
 18 29  1  0  0  0  0
 18 31  2  0  0  0  0
 18 32  1  0  0  0  0
 19 21  2  0  0  0  0
 19 37  1  0  0  0  0
 20 22  2  0  0  0  0
 20 38  1  0  0  0  0
 21 46  1  0  0  0  0
 22 39  1  0  0  0  0
 23 58  1  0  0  0  0
 24 82  1  0  0  0  0
 25 83  1  0  0  0  0
 26 28  2  0  0  0  0
 26 82  1  0  0  0  0
 27 84  1  0  0  0  0
 28 85  1  0  0  0  0
 29 66  2  0  0  0  0
 30 33  1  0  0  0  0
 30 67  1  0  0  0  0
 31 68  1  0  0  0  0
 31 71  1  0  0  0  0
 32 72  1  0  0  0  0
 32 77  2  0  0  0  0
 33 69  1  0  0  0  0
 33 78  2  0  0  0  0
 34 47  1  0  0  0  0
 34 73  1  0  0  0  0
 34 79  2  0  0  0  0
 35 62  1  0  0  0  0
 35 70  1  0  0  0  0
 35 80  2  0  0  0  0
 36 63  1  0  0  0  0
 36 74  1  0  0  0  0
 36 81  2  0  0  0  0
 37 40  1  0  0  0  0
 38 47  1  0  0  0  0
 39 70  1  0  0  0  0
 40 42  1  0  0  0  0
 41 43  1  0  0  0  0
 41 44  1  0  0  0  0
 42 46  1  0  0  0  0
 43 48  1  0  0  0  0
 44 69  1  0  0  0  0
 45 48  1  0  0  0  0
 45 69  1  0  0  0  0
 46 73  1  0  0  0  0
 47 70  1  0  0  0  0
 48 68  1  0  0  0  0
 49 63  1  0  0  0  0
 50 64  1  0  0  0  0
 51 64  1  0  0  0  0
 52 64  1  0  0  0  0
 53 65  1  0  0  0  0
 54 65  1  0  0  0  0
 55 67  1  0  0  0  0
 56 75  1  0  0  0  0
 57 76  1  0  0  0  0
 58 76  1  0  0  0  0
 59 60  1  0  0  0  0
 59 65  1  0  0  0  0
 60 76  1  0  0  0  0
 61 65  1  0  0  0  0
 61 83  1  0  0  0  0
 62 64  1  0  0  0  0
 62 74  1  0  0  0  0
 63 75  1  0  0  0  0
 66 68  1  0  0  0  0
M  CHG  2  75   1  76   1
M  ISO  4  30 100  33 100  61 101  83 101
M  END
> <Batch ID>
0016

> <Smiles>
CNC(C)C(=O)NC(C(=O)N1Cc2cc([101O:1][101CH2:1]C(C)(C)CCN(C)Cc3c[100c:0]([100C:0](=O)N4CCCC(n5nc(-c6ccc(Oc7ccc(F)cc7F)cc6)c(C(N)=O)c5N)C4)n(C)c3)ccc2CC1C(=O)NC1CCCc2ccccc21)C(C)(C)C

> <Shape>
0.214

> <Color>
0.114

> <Negative vol penalty>
0.000

$$$$

  -OEChem-04042320573D

 85 93  0     1  0  0  0  0  0999 V2000
  -29.0414  -36.2425   19.7401 C   0  0  0  0  0  0  0  0  0  0  0  0
  -29.4776  -35.0786   19.1152 C   0  0  0  0  0  0  0  0  0  0  0  0
  -23.1632   -9.9514   19.8761 C   0  0  0  0  0  0  0  0  0  0  0  0
  -24.2321   -9.6330   22.0192 C   0  0  0  0  0  0  0  0  0  0  0  0
  -28.3605  -36.1671   20.9544 C   0  0  0  0  0  0  0  0  0  0  0  0
  -29.2341  -33.8387   19.7049 C   0  0  0  0  0  0  0  0  0  0  0  0
  -27.8771  -27.0150   17.9984 C   0  0  0  0  0  0  0  0  0  0  0  0
  -30.2906  -17.6802   21.0884 C   0  0  0  0  0  0  0  0  0  0  0  0
  -30.5949  -19.0317   21.2514 C   0  0  0  0  0  0  0  0  0  0  0  0
  -22.5543   -8.7020   19.9941 C   0  0  0  0  0  0  0  0  0  0  0  0
  -23.6232   -8.3836   22.1373 C   0  0  0  0  0  0  0  0  0  0  0  0
  -28.3364  -25.7260   18.2659 C   0  0  0  0  0  0  0  0  0  0  0  0
  -20.5832   -7.1648   22.9700 C   0  0  0  0  0  0  0  0  0  0  0  0
  -20.0022   -6.8420   24.1963 C   0  0  0  0  0  0  0  0  0  0  0  0
  -27.0810  -25.7127   20.3258 C   0  0  0  0  0  0  0  0  0  0  0  0
  -30.0067  -17.4559   23.4772 C   0  0  0  0  0  0  0  0  0  0  0  0
  -21.4824   -4.9433   24.3979 C   0  0  0  0  0  0  0  0  0  0  0  0
  -24.0021  -10.4169   20.8886 C   0  0  0  0  0  0  0  0  0  0  0  0
  -24.1243  -12.9453   21.2042 C   0  0  0  0  0  0  0  0  0  0  0  0
  -28.1001  -34.9251   21.5545 C   0  0  0  0  0  0  0  0  0  0  0  0
  -27.0236  -27.6677   18.8995 C   0  0  0  0  0  0  0  0  0  0  0  0
  -28.5503  -33.7467   20.9291 C   0  0  0  0  0  0  0  0  0  0  0  0
  -26.6103  -27.0089   20.0662 C   0  0  0  0  0  0  0  0  0  0  0  0
  -29.9964  -16.8923   22.2013 C   0  0  0  0  0  0  0  0  0  0  0  0
  -30.3111  -18.8073   23.6402 C   0  0  0  0  0  0  0  0  0  0  0  0
  -30.6052  -19.5952   22.5274 C   0  0  0  0  0  0  0  0  0  0  0  0
  -22.7843   -7.9181   21.1247 C   0  0  0  0  0  0  0  0  0  0  0  0
  -27.9407  -25.0758   19.4311 C   0  0  0  0  0  0  0  0  0  0  0  0
  -21.6138   -6.3768   22.4576 C   0  0  0  0  0  0  0  0  0  0  0  0
  -20.4518   -5.7313   24.9103 C   0  0  0  0  0  0  0  0  0  0  0  0
  -22.0634   -5.2661   23.1715 C   0  0  0  0  0  0  0  0  0  0  0  0
  -24.6318  -11.7071   20.7670 C   0  0  0  0  0  0  0  0  0  0  0  0
  -25.0929  -13.8552   20.8572 C   0  0  0  0  0  0  0  0  0  0  0  0
  -22.8880  -13.2461   21.8650 C   0  0  0  0  0  0  0  0  0  0  0  0
  -27.2101  -30.3147   20.6494 C   0  0  0  0  0  0  0  0  0  0  0  0
  -24.1149  -29.6193   21.3261 C   0  0  0  0  0  0  0  0  0  0  0  0
  -21.6565  -27.2625   21.5471 C   0  0  0  0  0  0  0  0  0  0  0  0
  -31.0110  -13.8313   20.6139 C   0  0  0  0  0  0  0  0  0  0  0  0
  -27.4020  -34.8968   22.8912 C   0  0  0  0  0  0  0  0  0  0  0  0
  -26.5157  -29.0478   18.5834 C   0  0  0  0  0  0  0  0  0  0  0  0
  -25.6791  -27.6582   21.0560 C   0  0  0  0  0  0  0  0  0  0  0  0
  -26.8553  -33.5211   23.2638 C   0  0  0  0  0  0  0  0  0  0  0  0
  -28.8252  -13.9348   17.6285 C   0  0  0  0  0  0  0  0  0  0  0  0
  -27.9041  -32.4431   23.0096 C   0  0  0  0  0  0  0  0  0  0  0  0
  -27.4951  -13.4149   18.1713 C   0  0  0  0  0  0  0  0  0  0  0  0
  -30.0128  -13.3726   18.4038 C   0  0  0  0  0  0  0  0  0  0  0  0
  -28.6051  -13.0796   20.4154 C   0  0  0  0  0  0  0  0  0  0  0  0
  -28.2835  -32.3816   21.5251 C   0  0  1  0  0  0  0  0  0  0  0  0
  -26.0606  -29.8150   19.8209 C   0  0  1  0  0  0  0  0  0  0  0  0
  -27.3859  -13.6634   19.6858 C   0  0  2  0  0  0  0  0  0  0  0  0
  -30.3149  -19.3851   25.0182 C   0  0  0  0  0  0  0  0  0  0  0  0
  -19.2395  -26.9890   22.1639 C   0  0  0  0  0  0  0  0  0  0  0  0
  -24.8513  -29.7984   24.2817 C   0  0  0  0  0  0  0  0  0  0  0  0
  -22.7124  -28.6116   24.8149 C   0  0  0  0  0  0  0  0  0  0  0  0
  -22.6548  -30.8368   23.6891 C   0  0  0  0  0  0  0  0  0  0  0  0
  -32.3032  -21.3734   22.8666 C   0  0  0  0  0  0  0  0  0  0  0  0
  -32.0211  -14.9347   22.5740 C   0  0  0  0  0  0  0  0  0  0  0  0
  -20.9493  -26.3249   18.8306 C   0  0  0  0  0  0  0  0  0  0  0  0
  -29.6710  -15.4475   22.0264 C   0  0  0  0  0  0  0  0  0  0  0  0
  -29.6401  -22.4143   21.1853 C   0  0  0  0  0  0  0  0  0  0  0  0
  -29.8880  -21.9695   22.6216 C   0  0  0  0  0  0  0  0  0  0  0  0
  -28.5323  -23.4545   21.0673 C   0  0  0  0  0  0  0  0  0  1  0  0
  -23.4084  -28.8067   22.3842 C   0  0  1  0  0  0  0  0  0  0  0  0
  -20.2270  -27.2471   21.0366 C   0  0  2  0  0  0  0  0  0  0  0  0
  -23.4258  -29.5016   23.7750 C   0  0  0  0  0  0  0  0  0  0  0  0
  -25.8297  -11.8168   20.1864 N   0  0  0  0  0  0  0  0  0  0  0  0
  -26.0830  -13.1348   20.2563 N   0  0  0  0  0  0  0  0  0  0  0  0
  -25.2149  -29.0106   20.7053 N   0  0  0  0  0  0  0  0  0  0  0  0
  -29.8627  -13.5841   19.8439 N   0  0  0  0  0  0  0  0  0  0  0  0
  -25.1858  -15.1932   21.0105 N   0  0  0  0  0  0  0  0  0  0  0  0
  -22.0075  -12.1927   22.1468 N   0  0  0  0  0  0  0  0  0  0  0  0
  -27.2604  -31.6904   20.7702 N   0  0  0  0  0  0  0  0  0  0  0  0
  -22.0708  -28.5381   21.8672 N   0  0  0  0  0  0  0  0  0  0  0  0
  -30.9135  -20.9555   22.6724 N   0  0  3  0  0  0  0  0  0  0  0  0
  -30.8574  -14.6403   21.7500 N   0  0  0  0  0  0  0  0  0  0  0  0
  -20.0555  -26.1819   20.0086 N   0  3  0  0  0  0  0  0  0  0  0  0
  -22.5660  -14.4166   22.1811 O   0  0  0  0  0  0  0  0  0  0  0  0
  -27.9927  -29.5117   21.1438 O   0  0  0  0  0  0  0  0  0  0  0  0
  -23.7015  -30.7495   21.0552 O   0  0  0  0  0  0  0  0  0  0  0  0
  -22.3363  -26.2442   21.6550 O   0  0  0  0  0  0  0  0  0  0  0  0
  -32.1128  -13.3639   20.2983 O   0  0  0  0  0  0  0  0  0  0  0  0
  -22.1901   -6.6990   21.2404 O   0  0  0  0  0  0  0  0  0  0  0  0
  -28.3880  -23.8180   19.6950 O   0  0  0  0  0  0  0  0  0  1  0  0
  -19.8948   -5.4223   26.0886 F   0  0  0  0  0  0  0  0  0  0  0  0
  -23.0540   -4.5059   22.6849 F   0  0  0  0  0  0  0  0  0  0  0  0
  1  2  1  0  0  0  0
  1  5  2  0  0  0  0
  2  6  2  0  0  0  0
  3 10  2  0  0  0  0
  3 18  1  0  0  0  0
  4 11  1  0  0  0  0
  4 18  2  0  0  0  0
  5 20  1  0  0  0  0
  6 22  1  0  0  0  0
  7 12  2  0  0  0  0
  7 21  1  0  0  0  0
  8  9  2  0  0  0  0
  8 24  1  0  0  0  0
  9 26  1  0  0  0  0
 10 27  1  0  0  0  0
 11 27  2  0  0  0  0
 12 28  1  0  0  0  0
 13 14  2  0  0  0  0
 13 29  1  0  0  0  0
 14 30  1  0  0  0  0
 15 23  1  0  0  0  0
 15 28  2  0  0  0  0
 16 24  2  0  0  0  0
 16 25  1  0  0  0  0
 17 30  2  0  0  0  0
 17 31  1  0  0  0  0
 18 32  1  0  0  0  0
 19 32  1  0  0  0  0
 19 33  2  0  0  0  0
 19 34  1  0  0  0  0
 20 22  2  0  0  0  0
 20 39  1  0  0  0  0
 21 23  2  0  0  0  0
 21 40  1  0  0  0  0
 22 48  1  0  0  0  0
 23 41  1  0  0  0  0
 24 59  1  0  0  0  0
 25 26  2  0  0  0  0
 25 51  1  0  0  0  0
 26 74  1  0  0  0  0
 27 82  1  0  0  0  0
 28 83  1  0  0  0  0
 29 31  2  0  0  0  0
 29 82  1  0  0  0  0
 30 84  1  0  0  0  0
 31 85  1  0  0  0  0
 32 66  2  0  0  0  0
 33 67  1  0  0  0  0
 33 70  1  0  0  0  0
 34 71  1  0  0  0  0
 34 77  2  0  0  0  0
 35 49  1  0  0  0  0
 35 72  1  0  0  0  0
 35 78  2  0  0  0  0
 36 63  1  0  0  0  0
 36 68  1  0  0  0  0
 36 79  2  0  0  0  0
 37 64  1  0  0  0  0
 37 73  1  0  0  0  0
 37 80  2  0  0  0  0
 38 69  1  0  0  0  0
 38 75  1  0  0  0  0
 38 81  2  0  0  0  0
 39 42  1  0  0  0  0
 40 49  1  0  0  0  0
 41 68  1  0  0  0  0
 42 44  1  0  0  0  0
 43 45  1  0  0  0  0
 43 46  1  0  0  0  0
 44 48  1  0  0  0  0
 45 50  1  0  0  0  0
 46 69  1  0  0  0  0
 47 50  1  0  0  0  0
 47 69  1  0  0  0  0
 48 72  1  0  0  0  0
 49 68  1  0  0  0  0
 50 67  1  0  0  0  0
 52 64  1  0  0  0  0
 53 65  1  0  0  0  0
 54 65  1  0  0  0  0
 55 65  1  0  0  0  0
 56 74  1  0  0  0  0
 57 75  1  0  0  0  0
 58 76  1  0  0  0  0
 59 75  1  0  0  0  0
 60 61  1  0  0  0  0
 60 62  1  0  0  0  0
 61 74  1  0  0  0  0
 62 83  1  0  0  0  0
 63 65  1  0  0  0  0
 63 73  1  0  0  0  0
 64 76  1  0  0  0  0
 66 67  1  0  0  0  0
M  CHG  1  76   1
M  ISO  4  38 100  62 101  75 100  83 101
M  END
> <Batch ID>
0016

> <Smiles>
CNC(C)C(=O)NC(C(=O)N1Cc2cc([101O:1][101CH2:1]CCN(C)c3ccc(C[100N:0](C)[100C:0](=O)N4CCCC(n5nc(-c6ccc(Oc7ccc(F)cc7F)cc6)c(C(N)=O)c5N)C4)cc3C)ccc2CC1C(=O)NC1CCCc2ccccc21)C(C)(C)C

> <Shape>
0.338

> <Color>
0.170

> <Negative vol penalty>
0.000

$$$$

  -OEChem-04042320573D

 85 93  0     1  0  0  0  0  0999 V2000
  -28.9675  -32.0871   21.2395 C   0  0  0  0  0  0  0  0  0  0  0  0
  -27.7629  -32.2279   20.5597 C   0  0  0  0  0  0  0  0  0  0  0  0
  -24.6539  -13.4006   19.5542 C   0  0  0  0  0  0  0  0  0  0  0  0
  -26.0077  -13.9058   21.4905 C   0  0  0  0  0  0  0  0  0  0  0  0
  -29.8272  -31.0393   20.9167 C   0  0  0  0  0  0  0  0  0  0  0  0
  -27.4122  -31.3142   19.5653 C   0  0  0  0  0  0  0  0  0  0  0  0
  -24.6917  -24.1558   18.7825 C   0  0  0  0  0  0  0  0  0  0  0  0
  -28.3723  -23.8356   20.9755 C   0  0  0  0  0  0  0  0  0  0  0  0
  -24.7032  -12.0437   19.8737 C   0  0  0  0  0  0  0  0  0  0  0  0
  -26.0570  -12.5489   21.8101 C   0  0  0  0  0  0  0  0  0  0  0  0
  -24.9067  -23.0450   19.5971 C   0  0  0  0  0  0  0  0  0  0  0  0
  -24.1710   -8.4836   20.3809 C   0  0  0  0  0  0  0  0  0  0  0  0
  -28.5392  -24.4864   19.7532 C   0  0  0  0  0  0  0  0  0  0  0  0
  -22.9823   -7.7572   20.3105 C   0  0  0  0  0  0  0  0  0  0  0  0
  -24.6122  -24.4284   21.5512 C   0  0  0  0  0  0  0  0  0  0  0  0
  -29.2771  -22.4155   18.7512 C   0  0  0  0  0  0  0  0  0  0  0  0
  -21.9961   -9.2102   21.9698 C   0  0  0  0  0  0  0  0  0  0  0  0
  -25.3062  -14.3316   20.3626 C   0  0  0  0  0  0  0  0  0  0  0  0
  -24.2979  -16.6729   20.4577 C   0  0  0  0  0  0  0  0  0  0  0  0
  -29.4918  -30.1200   19.9091 C   0  0  0  0  0  0  0  0  0  0  0  0
  -24.4457  -25.4156   19.3472 C   0  0  0  0  0  0  0  0  0  0  0  0
  -28.2556  -30.2360   19.2415 C   0  0  0  0  0  0  0  0  0  0  0  0
  -24.3918  -25.5531   20.7416 C   0  0  0  0  0  0  0  0  0  0  0  0
  -29.1103  -21.7646   19.9736 C   0  0  0  0  0  0  0  0  0  0  0  0
  -28.6579  -22.4747   21.0858 C   0  0  0  0  0  0  0  0  0  0  0  0
  -25.4047  -11.6179   21.0017 C   0  0  0  0  0  0  0  0  0  0  0  0
  -24.8698  -23.1817   20.9816 C   0  0  0  0  0  0  0  0  0  0  0  0
  -24.2723   -9.5733   21.2458 C   0  0  0  0  0  0  0  0  0  0  0  0
  -28.9916  -23.7764   18.6410 C   0  0  0  0  0  0  0  0  0  0  0  0
  -21.8949   -8.1205   21.1049 C   0  0  0  0  0  0  0  0  0  0  0  0
  -23.1848   -9.9366   22.0402 C   0  0  0  0  0  0  0  0  0  0  0  0
  -25.2561  -15.7333   20.0327 C   0  0  0  0  0  0  0  0  0  0  0  0
  -24.6921  -17.8528   19.8754 C   0  0  0  0  0  0  0  0  0  0  0  0
  -23.1538  -16.4952   21.3034 C   0  0  0  0  0  0  0  0  0  0  0  0
  -25.9239  -28.2290   19.2852 C   0  0  0  0  0  0  0  0  0  0  0  0
  -23.2868  -29.2114   20.8986 C   0  0  0  0  0  0  0  0  0  0  0  0
  -20.6474  -28.3995   22.9039 C   0  0  0  0  0  0  0  0  0  0  0  0
  -30.2542  -19.4232   17.8421 C   0  0  0  0  0  0  0  0  0  0  0  0
  -30.4559  -29.0003   19.6057 C   0  0  0  0  0  0  0  0  0  0  0  0
  -24.1893  -26.5988   18.4546 C   0  0  0  0  0  0  0  0  0  0  0  0
  -24.1115  -26.8797   21.3974 C   0  0  0  0  0  0  0  0  0  0  0  0
  -30.2059  -28.3522   18.2478 C   0  0  0  0  0  0  0  0  0  0  0  0
  -27.0099  -19.5710   16.0661 C   0  0  0  0  0  0  0  0  0  0  0  0
  -28.7319  -28.0056   18.1008 C   0  0  0  0  0  0  0  0  0  0  0  0
  -26.1375  -18.6225   16.8867 C   0  0  0  0  0  0  0  0  0  0  0  0
  -28.4852  -19.1889   16.1370 C   0  0  0  0  0  0  0  0  0  0  0  0
  -28.1405  -18.1300   18.3447 C   0  0  0  0  0  0  0  0  0  0  0  0
  -27.8671  -29.2720   18.1350 C   0  0  1  0  0  0  0  0  0  0  0  0
  -24.4575  -27.9345   19.1412 C   0  0  1  0  0  0  0  0  0  0  0  0
  -26.6535  -18.5148   18.3322 C   0  0  2  0  0  0  0  0  0  0  0  0
  -18.6861  -29.4223   24.0890 C   0  0  0  0  0  0  0  0  0  0  0  0
  -25.1613  -30.3294   23.0309 C   0  0  0  0  0  0  0  0  0  0  0  0
  -23.2013  -30.4667   24.5826 C   0  0  0  0  0  0  0  0  0  0  0  0
  -23.2173  -31.8013   22.4752 C   0  0  0  0  0  0  0  0  0  0  0  0
  -29.2410  -22.2920   23.4913 C   0  0  0  0  0  0  0  0  0  0  0  0
  -31.8290  -20.3204   19.5138 C   0  0  0  0  0  0  0  0  0  0  0  0
  -18.7183  -26.7605   21.3706 C   0  0  0  0  0  0  0  0  0  0  0  0
  -29.4241  -20.3066   20.0631 C   0  0  0  0  0  0  0  0  0  0  0  0
  -26.4597  -21.1008   23.4698 C   0  0  0  0  0  0  0  0  0  0  0  0
  -27.5621  -20.7395   22.4817 C   0  0  0  0  0  0  0  0  0  0  0  0
  -25.6714  -22.3378   23.0556 C   0  0  0  0  0  0  0  0  0  1  0  0
  -22.8939  -29.2968   22.3537 C   0  0  1  0  0  0  0  0  0  0  0  0
  -19.1720  -28.7460   22.8165 C   0  0  2  0  0  0  0  0  0  0  0  0
  -23.6257  -30.4488   23.0986 C   0  0  0  0  0  0  0  0  0  0  0  0
  -26.1888  -16.2699   19.2413 N   0  0  0  0  0  0  0  0  0  0  0  0
  -25.8184  -17.5594   19.1643 N   0  0  0  0  0  0  0  0  0  0  0  0
  -23.8736  -28.0080   20.4821 N   0  0  0  0  0  0  0  0  0  0  0  0
  -28.9383  -19.0511   17.5215 N   0  0  0  0  0  0  0  0  0  0  0  0
  -24.1816  -19.1021   19.9072 N   0  0  0  0  0  0  0  0  0  0  0  0
  -22.8947  -15.2172   21.8171 N   0  0  0  0  0  0  0  0  0  0  0  0
  -26.4737  -28.8904   18.2037 N   0  0  0  0  0  0  0  0  0  0  0  0
  -21.4387  -29.3989   22.3782 N   0  0  0  0  0  0  0  0  0  0  0  0
  -28.4853  -21.8370   22.3227 N   0  0  3  0  0  0  0  0  0  0  0  0
  -30.4834  -19.9109   19.1376 N   0  0  0  0  0  0  0  0  0  0  0  0
  -18.3624  -27.5135   22.6007 N   0  3  0  0  0  0  0  0  0  0  0  0
  -22.3748  -17.4382   21.5816 O   0  0  0  0  0  0  0  0  0  0  0  0
  -26.5125  -27.8830   20.3028 O   0  0  0  0  0  0  0  0  0  0  0  0
  -23.0743  -30.1741   20.1573 O   0  0  0  0  0  0  0  0  0  0  0  0
  -21.0571  -27.3491   23.3932 O   0  0  0  0  0  0  0  0  0  0  0  0
  -31.1701  -19.3341   17.0143 O   0  0  0  0  0  0  0  0  0  0  0  0
  -25.4528  -10.2939   21.3139 O   0  0  0  0  0  0  0  0  0  0  0  0
  -25.0800  -22.0991   21.7790 O   0  0  0  0  0  0  0  0  0  1  0  0
  -29.1516  -24.4013   17.4671 F   0  0  0  0  0  0  0  0  0  0  0  0
  -20.7529   -7.4237   21.0361 F   0  0  0  0  0  0  0  0  0  0  0  0
  -23.2758  -10.9833   22.8721 F   0  0  0  0  0  0  0  0  0  0  0  0
  1  2  1  0  0  0  0
  1  5  2  0  0  0  0
  2  6  2  0  0  0  0
  3  9  2  0  0  0  0
  3 18  1  0  0  0  0
  4 10  1  0  0  0  0
  4 18  2  0  0  0  0
  5 20  1  0  0  0  0
  6 22  1  0  0  0  0
  7 11  2  0  0  0  0
  7 21  1  0  0  0  0
  8 13  2  0  0  0  0
  8 25  1  0  0  0  0
  9 26  1  0  0  0  0
 10 26  2  0  0  0  0
 11 27  1  0  0  0  0
 12 14  2  0  0  0  0
 12 28  1  0  0  0  0
 13 29  1  0  0  0  0
 14 30  1  0  0  0  0
 15 23  1  0  0  0  0
 15 27  2  0  0  0  0
 16 24  1  0  0  0  0
 16 29  2  0  0  0  0
 17 30  2  0  0  0  0
 17 31  1  0  0  0  0
 18 32  1  0  0  0  0
 19 32  1  0  0  0  0
 19 33  2  0  0  0  0
 19 34  1  0  0  0  0
 20 22  2  0  0  0  0
 20 39  1  0  0  0  0
 21 23  2  0  0  0  0
 21 40  1  0  0  0  0
 22 48  1  0  0  0  0
 23 41  1  0  0  0  0
 24 25  2  0  0  0  0
 24 58  1  0  0  0  0
 25 73  1  0  0  0  0
 26 81  1  0  0  0  0
 27 82  1  0  0  0  0
 28 31  2  0  0  0  0
 28 81  1  0  0  0  0
 29 83  1  0  0  0  0
 30 84  1  0  0  0  0
 31 85  1  0  0  0  0
 32 65  2  0  0  0  0
 33 66  1  0  0  0  0
 33 69  1  0  0  0  0
 34 70  1  0  0  0  0
 34 76  2  0  0  0  0
 35 49  1  0  0  0  0
 35 71  1  0  0  0  0
 35 77  2  0  0  0  0
 36 62  1  0  0  0  0
 36 67  1  0  0  0  0
 36 78  2  0  0  0  0
 37 63  1  0  0  0  0
 37 72  1  0  0  0  0
 37 79  2  0  0  0  0
 38 68  1  0  0  0  0
 38 74  1  0  0  0  0
 38 80  2  0  0  0  0
 39 42  1  0  0  0  0
 40 49  1  0  0  0  0
 41 67  1  0  0  0  0
 42 44  1  0  0  0  0
 43 45  1  0  0  0  0
 43 46  1  0  0  0  0
 44 48  1  0  0  0  0
 45 50  1  0  0  0  0
 46 68  1  0  0  0  0
 47 50  1  0  0  0  0
 47 68  1  0  0  0  0
 48 71  1  0  0  0  0
 49 67  1  0  0  0  0
 50 66  1  0  0  0  0
 51 63  1  0  0  0  0
 52 64  1  0  0  0  0
 53 64  1  0  0  0  0
 54 64  1  0  0  0  0
 55 73  1  0  0  0  0
 56 74  1  0  0  0  0
 57 75  1  0  0  0  0
 58 74  1  0  0  0  0
 59 60  1  0  0  0  0
 59 61  1  0  0  0  0
 60 73  1  0  0  0  0
 61 82  1  0  0  0  0
 62 64  1  0  0  0  0
 62 72  1  0  0  0  0
 63 75  1  0  0  0  0
 65 66  1  0  0  0  0
M  CHG  1  75   1
M  ISO  4  38 100  61 101  74 100  82 101
M  END
> <Batch ID>
0016

> <Smiles>
CNC(C)C(=O)NC(C(=O)N1Cc2cc([101O:1][101CH2:1]CCN(C)c3ccc(F)cc3C[100N:0](C)[100C:0](=O)N3CCCC(n4nc(-c5ccc(Oc6ccc(F)cc6F)cc5)c(C(N)=O)c4N)C3)ccc2CC1C(=O)NC1CCCc2ccccc21)C(C)(C)C

> <Shape>
0.242

> <Color>
0.057

> <Negative vol penalty>
0.000

$$$$

  -OEChem-04042320573D

 84 92  0     1  0  0  0  0  0999 V2000
  -32.4701  -27.0926   16.6096 C   0  0  0  0  0  0  0  0  0  0  0  0
  -31.2149  -26.5157   16.7743 C   0  0  0  0  0  0  0  0  0  0  0  0
  -27.2471  -17.5434   19.2245 C   0  0  0  0  0  0  0  0  0  0  0  0
  -28.2331  -17.0402   21.3720 C   0  0  0  0  0  0  0  0  0  0  0  0
  -33.0194  -27.8670   17.6306 C   0  0  0  0  0  0  0  0  0  0  0  0
  -30.5088  -26.7120   17.9606 C   0  0  0  0  0  0  0  0  0  0  0  0
  -24.4395  -27.2369   18.5886 C   0  0  0  0  0  0  0  0  0  0  0  0
  -20.8253  -17.5107   19.1699 C   0  0  0  0  0  0  0  0  0  0  0  0
  -21.0180  -18.8607   19.4632 C   0  0  0  0  0  0  0  0  0  0  0  0
  -27.9690  -18.7357   19.1723 C   0  0  0  0  0  0  0  0  0  0  0  0
  -28.9551  -18.2325   21.3198 C   0  0  0  0  0  0  0  0  0  0  0  0
  -23.4526  -26.3247   18.9595 C   0  0  0  0  0  0  0  0  0  0  0  0
  -29.2804  -22.0855   18.6405 C   0  0  0  0  0  0  0  0  0  0  0  0
  -28.6048  -23.2374   18.2380 C   0  0  0  0  0  0  0  0  0  0  0  0
  -23.5742  -27.1263   21.2315 C   0  0  0  0  0  0  0  0  0  0  0  0
  -20.0435  -17.1324   21.4244 C   0  0  0  0  0  0  0  0  0  0  0  0
  -27.0796  -22.9919   20.0956 C   0  0  0  0  0  0  0  0  0  0  0  0
  -27.3790  -16.6957   20.3244 C   0  0  0  0  0  0  0  0  0  0  0  0
  -27.0365  -14.2038   19.8988 C   0  0  0  0  0  0  0  0  0  0  0  0
  -32.3155  -28.0809   18.8262 C   0  0  0  0  0  0  0  0  0  0  0  0
  -25.0100  -28.0945   19.5401 C   0  0  0  0  0  0  0  0  0  0  0  0
  -31.0498  -27.4889   18.9991 C   0  0  0  0  0  0  0  0  0  0  0  0
  -24.5664  -28.0502   20.8695 C   0  0  0  0  0  0  0  0  0  0  0  0
  -20.3380  -16.6466   20.1505 C   0  0  0  0  0  0  0  0  0  0  0  0
  -20.7235  -19.3465   20.7371 C   0  0  0  0  0  0  0  0  0  0  0  0
  -28.8231  -19.0803   20.2199 C   0  0  0  0  0  0  0  0  0  0  0  0
  -23.0218  -26.2673   20.2817 C   0  0  0  0  0  0  0  0  0  0  0  0
  -28.8556  -21.3866   19.7705 C   0  0  0  0  0  0  0  0  0  0  0  0
  -27.5044  -23.6907   18.9655 C   0  0  0  0  0  0  0  0  0  0  0  0
  -27.7552  -21.8398   20.4980 C   0  0  0  0  0  0  0  0  0  0  0  0
  -20.2363  -18.4824   21.7177 C   0  0  0  0  0  0  0  0  0  0  0  0
  -26.6331  -15.4641   20.3791 C   0  0  0  0  0  0  0  0  0  0  0  0
  -25.9824  -13.3724   20.1889 C   0  0  0  0  0  0  0  0  0  0  0  0
  -28.2550  -13.8191   19.2486 C   0  0  0  0  0  0  0  0  0  0  0  0
  -27.9381  -28.5303   20.6977 C   0  0  0  0  0  0  0  0  0  0  0  0
  -26.5434  -31.0343   22.2166 C   0  0  0  0  0  0  0  0  0  0  0  0
  -21.4066  -21.6923   20.1248 C   0  0  0  0  0  0  0  0  0  0  0  0
  -23.6931  -32.4583   23.4393 C   0  0  0  0  0  0  0  0  0  0  0  0
  -20.2635  -14.2578   20.8429 C   0  0  0  0  0  0  0  0  0  0  0  0
  -32.9706  -28.8865   19.9201 C   0  0  0  0  0  0  0  0  0  0  0  0
  -26.0546  -29.0912   19.1185 C   0  0  0  0  0  0  0  0  0  0  0  0
  -25.1323  -28.9633   21.9252 C   0  0  0  0  0  0  0  0  0  0  0  0
  -31.9966  -29.3549   20.9981 C   0  0  0  0  0  0  0  0  0  0  0  0
  -22.3943  -12.8047   23.2907 C   0  0  0  0  0  0  0  0  0  0  0  0
  -31.0903  -28.2079   21.4337 C   0  0  0  0  0  0  0  0  0  0  0  0
  -23.7732  -13.2134   22.7737 C   0  0  0  0  0  0  0  0  0  0  0  0
  -21.3634  -13.9202   23.1151 C   0  0  0  0  0  0  0  0  0  0  0  0
  -22.6474  -14.8470   21.2133 C   0  0  0  0  0  0  0  0  0  0  0  0
  -30.2424  -27.6992   20.2616 C   0  0  1  0  0  0  0  0  0  0  0  0
  -26.9317  -29.5626   20.2743 C   0  0  1  0  0  0  0  0  0  0  0  0
  -23.6905  -13.7242   21.3244 C   0  0  1  0  0  0  0  0  0  0  0  0
  -22.8747  -34.4910   24.6623 C   0  0  0  0  0  0  0  0  0  0  0  0
  -27.6546  -29.9089   24.8260 C   0  0  0  0  0  0  0  0  0  0  0  0
  -26.0555  -31.3858   26.0628 C   0  0  0  0  0  0  0  0  0  0  0  0
  -27.8144  -32.3954   24.6105 C   0  0  0  0  0  0  0  0  0  0  0  0
  -19.5646  -14.8918   18.5440 C   0  0  0  0  0  0  0  0  0  0  0  0
  -21.9497  -33.2556   21.1846 C   0  0  0  0  0  0  0  0  0  0  0  0
  -21.4758  -23.0486   20.8173 C   0  0  0  0  0  0  0  0  0  0  0  0
  -21.9905  -24.1566   19.9110 C   0  0  0  0  0  0  0  0  0  1  0  0
  -25.8442  -31.2267   23.5407 C   0  0  1  0  0  0  0  0  0  0  0  0
  -23.1287  -33.8608   23.3017 C   0  0  2  0  0  0  0  0  0  0  0  0
  -26.8327  -31.2105   24.7407 C   0  0  0  0  0  0  0  0  0  0  0  0
  -25.4175  -15.4403   20.9322 N   0  0  0  0  0  0  0  0  0  0  0  0
  -25.0480  -14.1548   20.8012 N   0  0  0  0  0  0  0  0  0  0  0  0
  -26.1559  -29.9161   21.4648 N   0  0  0  0  0  0  0  0  0  0  0  0
  -21.3493  -14.4029   21.7270 N   0  0  0  0  0  0  0  0  0  0  0  0
  -25.7729  -12.0556   19.9774 N   0  0  0  0  0  0  0  0  0  0  0  0
  -29.2329  -14.7987   19.0283 N   0  0  0  0  0  0  0  0  0  0  0  0
  -20.9299  -20.7214   21.0016 N   0  0  0  0  0  0  0  0  0  0  0  0
  -29.1355  -28.5973   20.0113 N   0  0  0  0  0  0  0  0  0  0  0  0
  -25.0719  -32.4584   23.4193 N   0  0  0  0  0  0  0  0  0  0  0  0
  -20.1380  -15.2492   19.8461 N   0  0  0  0  0  0  0  0  0  0  0  0
  -21.8421  -33.8300   22.5504 N   0  3  0  0  0  0  0  0  0  0  0  0
  -28.4636  -12.6450   18.8594 O   0  0  0  0  0  0  0  0  0  0  0  0
  -27.6501  -27.7331   21.5827 O   0  0  0  0  0  0  0  0  0  0  0  0
  -27.3967  -31.8503   21.8592 O   0  0  0  0  0  0  0  0  0  0  0  0
  -21.7394  -21.5391   18.9543 O   0  0  0  0  0  0  0  0  0  0  0  0
  -22.9821  -31.4627   23.5568 O   0  0  0  0  0  0  0  0  0  0  0  0
  -19.4819  -13.3023   20.9214 O   0  0  0  0  0  0  0  0  0  0  0  0
  -29.5279  -20.2435   20.1693 O   0  0  0  0  0  0  0  0  0  0  0  0
  -22.0590  -25.3775   20.6467 O   0  0  0  0  0  0  0  0  0  1  0  0
  -26.8566  -24.7978   18.5798 F   0  0  0  0  0  0  0  0  0  0  0  0
  -27.3431  -21.1734   21.5851 F   0  0  0  0  0  0  0  0  0  0  0  0
  -19.8587  -19.0429   23.3078 Cl  0  0  0  0  0  0  0  0  0  0  0  0
  1  2  1  0  0  0  0
  1  5  2  0  0  0  0
  2  6  2  0  0  0  0
  3 10  2  0  0  0  0
  3 18  1  0  0  0  0
  4 11  1  0  0  0  0
  4 18  2  0  0  0  0
  5 20  1  0  0  0  0
  6 22  1  0  0  0  0
  7 12  2  0  0  0  0
  7 21  1  0  0  0  0
  8  9  2  0  0  0  0
  8 24  1  0  0  0  0
  9 25  1  0  0  0  0
 10 26  1  0  0  0  0
 11 26  2  0  0  0  0
 12 27  1  0  0  0  0
 13 14  2  0  0  0  0
 13 28  1  0  0  0  0
 14 29  1  0  0  0  0
 15 23  1  0  0  0  0
 15 27  2  0  0  0  0
 16 24  2  0  0  0  0
 16 31  1  0  0  0  0
 17 29  2  0  0  0  0
 17 30  1  0  0  0  0
 18 32  1  0  0  0  0
 19 32  1  0  0  0  0
 19 33  2  0  0  0  0
 19 34  1  0  0  0  0
 20 22  2  0  0  0  0
 20 40  1  0  0  0  0
 21 23  2  0  0  0  0
 21 41  1  0  0  0  0
 22 49  1  0  0  0  0
 23 42  1  0  0  0  0
 24 72  1  0  0  0  0
 25 31  2  0  0  0  0
 25 69  1  0  0  0  0
 26 80  1  0  0  0  0
 27 81  1  0  0  0  0
 28 30  2  0  0  0  0
 28 80  1  0  0  0  0
 29 82  1  0  0  0  0
 30 83  1  0  0  0  0
 31 84  1  0  0  0  0
 32 63  2  0  0  0  0
 33 64  1  0  0  0  0
 33 67  1  0  0  0  0
 34 68  1  0  0  0  0
 34 74  2  0  0  0  0
 35 50  1  0  0  0  0
 35 70  1  0  0  0  0
 35 75  2  0  0  0  0
 36 60  1  0  0  0  0
 36 65  1  0  0  0  0
 36 76  2  0  0  0  0
 37 58  1  0  0  0  0
 37 69  1  0  0  0  0
 37 77  2  0  0  0  0
 38 61  1  0  0  0  0
 38 71  1  0  0  0  0
 38 78  2  0  0  0  0
 39 66  1  0  0  0  0
 39 72  1  0  0  0  0
 39 79  2  0  0  0  0
 40 43  1  0  0  0  0
 41 50  1  0  0  0  0
 42 65  1  0  0  0  0
 43 45  1  0  0  0  0
 44 46  1  0  0  0  0
 44 47  1  0  0  0  0
 45 49  1  0  0  0  0
 46 51  1  0  0  0  0
 47 66  1  0  0  0  0
 48 51  1  0  0  0  0
 48 66  1  0  0  0  0
 49 70  1  0  0  0  0
 50 65  1  0  0  0  0
 51 64  1  0  0  0  0
 52 61  1  0  0  0  0
 53 62  1  0  0  0  0
 54 62  1  0  0  0  0
 55 62  1  0  0  0  0
 56 72  1  0  0  0  0
 57 73  1  0  0  0  0
 58 59  1  0  0  0  0
 59 81  1  0  0  0  0
 60 62  1  0  0  0  0
 60 71  1  0  0  0  0
 61 73  1  0  0  0  0
 63 64  1  0  0  0  0
M  CHG  1  73   1
M  ISO  4  39 100  59 101  72 100  81 101
M  END
> <Batch ID>
0016

> <Smiles>
CNC(C)C(=O)NC(C(=O)N1Cc2cc([101O:1][101CH2:1]CC(=O)Nc3ccc([100N:0](C)[100C:0](=O)N4CCCC(n5nc(-c6ccc(Oc7ccc(F)cc7F)cc6)c(C(N)=O)c5N)C4)cc3Cl)ccc2CC1C(=O)NC1CCCc2ccccc21)C(C)(C)C

> <Shape>
0.254

> <Color>
0.077

> <Negative vol penalty>
0.000

$$$$

  -OEChem-04042320573D

 84 92  0     1  0  0  0  0  0999 V2000
  -21.9747  -11.5647   21.4604 C   0  0  0  0  0  0  0  0  0  0  0  0
  -21.9381  -12.8102   22.0791 C   0  0  0  0  0  0  0  0  0  0  0  0
  -26.4909  -27.3442   23.5702 C   0  0  0  0  0  0  0  0  0  0  0  0
  -27.3377  -25.5950   22.1349 C   0  0  0  0  0  0  0  0  0  0  0  0
  -23.1265  -11.1538   20.7907 C   0  0  0  0  0  0  0  0  0  0  0  0
  -23.0538  -13.6451   22.0294 C   0  0  0  0  0  0  0  0  0  0  0  0
  -21.8430  -18.4435   20.9548 C   0  0  0  0  0  0  0  0  0  0  0  0
  -19.3589  -27.1406   21.1225 C   0  0  0  0  0  0  0  0  0  0  0  0
  -20.2676  -28.6882   22.7401 C   0  0  0  0  0  0  0  0  0  0  0  0
  -19.2276  -26.1748   22.1203 C   0  0  0  0  0  0  0  0  0  0  0  0
  -20.1361  -27.7224   23.7379 C   0  0  0  0  0  0  0  0  0  0  0  0
  -26.9409  -26.6439   24.6894 C   0  0  0  0  0  0  0  0  0  0  0  0
  -27.7878  -24.8946   23.2541 C   0  0  0  0  0  0  0  0  0  0  0  0
  -21.3202  -19.2157   21.9912 C   0  0  0  0  0  0  0  0  0  0  0  0
  -28.8404  -22.4737   25.7523 C   0  0  0  0  0  0  0  0  0  0  0  0
  -28.5897  -21.1025   25.8031 C   0  0  0  0  0  0  0  0  0  0  0  0
  -23.4858  -20.2253   22.3231 C   0  0  0  0  0  0  0  0  0  0  0  0
  -26.2146  -21.5330   25.6978 C   0  0  0  0  0  0  0  0  0  0  0  0
  -26.6892  -26.8198   22.2930 C   0  0  0  0  0  0  0  0  0  0  0  0
  -26.9359  -28.5000   20.3894 C   0  0  0  0  0  0  0  0  0  0  0  0
  -24.2535  -11.9882   20.7245 C   0  0  0  0  0  0  0  0  0  0  0  0
  -23.1960  -18.5486   20.6013 C   0  0  0  0  0  0  0  0  0  0  0  0
  -24.2223  -13.2445   21.3594 C   0  0  0  0  0  0  0  0  0  0  0  0
  -24.0227  -19.4552   21.2802 C   0  0  0  0  0  0  0  0  0  0  0  0
  -19.8790  -28.3973   21.4324 C   0  0  0  0  0  0  0  0  0  0  0  0
  -19.6161  -26.4657   23.4280 C   0  0  0  0  0  0  0  0  0  0  0  0
  -27.5894  -25.4191   24.5313 C   0  0  0  0  0  0  0  0  0  0  0  0
  -22.1423  -20.1046   22.6775 C   0  0  0  0  0  0  0  0  0  0  0  0
  -27.7783  -23.3745   25.6743 C   0  0  0  0  0  0  0  0  0  0  0  0
  -27.2768  -20.6321   25.7758 C   0  0  0  0  0  0  0  0  0  0  0  0
  -26.4654  -22.9042   25.6470 C   0  0  0  0  0  0  0  0  0  0  0  0
  -26.2240  -27.5426   21.1366 C   0  0  0  0  0  0  0  0  0  0  0  0
  -26.0615  -28.8851   19.4027 C   0  0  0  0  0  0  0  0  0  0  0  0
  -28.2686  -28.9968   20.5710 C   0  0  0  0  0  0  0  0  0  0  0  0
  -25.6700  -16.5531   20.5784 C   0  0  0  0  0  0  0  0  0  0  0  0
  -27.1693  -19.0469   19.1447 C   0  0  0  0  0  0  0  0  0  0  0  0
  -27.3301  -22.4145   18.6154 C   0  0  0  0  0  0  0  0  0  0  0  0
  -20.2498  -29.0321   19.0553 C   0  0  0  0  0  0  0  0  0  0  0  0
  -25.4923  -11.4812   20.0294 C   0  0  0  0  0  0  0  0  0  0  0  0
  -23.7382  -17.7281   19.4633 C   0  0  0  0  0  0  0  0  0  0  0  0
  -25.4772  -19.6204   20.9261 C   0  0  0  0  0  0  0  0  0  0  0  0
  -26.5006  -12.5800   19.7033 C   0  0  0  0  0  0  0  0  0  0  0  0
  -22.3822  -27.2798   16.8135 C   0  0  0  0  0  0  0  0  0  0  0  0
  -26.7092  -13.4885   20.9107 C   0  0  0  0  0  0  0  0  0  0  0  0
  -23.6863  -27.2333   17.6091 C   0  0  0  0  0  0  0  0  0  0  0  0
  -21.1589  -27.0720   17.7070 C   0  0  0  0  0  0  0  0  0  0  0  0
  -22.4006  -27.9480   19.6602 C   0  0  0  0  0  0  0  0  0  0  0  0
  -25.4036  -14.1888   21.3063 C   0  0  1  0  0  0  0  0  0  0  0  0
  -25.2511  -17.5427   19.5282 C   0  0  1  0  0  0  0  0  0  0  0  0
  -23.6440  -28.2112   18.7965 C   0  0  1  0  0  0  0  0  0  0  0  0
  -28.6881  -24.1594   17.4285 C   0  0  0  0  0  0  0  0  0  0  0  0
  -29.3358  -18.8100   21.2801 C   0  0  0  0  0  0  0  0  0  0  0  0
  -30.1218  -21.0985   20.6374 C   0  0  0  0  0  0  0  0  0  0  0  0
  -30.1907  -19.2441   18.9704 C   0  0  0  0  0  0  0  0  0  0  0  0
  -19.6692  -30.7855   20.7178 C   0  0  0  0  0  0  0  0  0  0  0  0
  -19.8908  -25.7999   25.8032 C   0  0  0  0  0  0  0  0  0  0  0  0
  -25.0194  -23.2605   16.9711 C   0  0  0  0  0  0  0  0  0  0  0  0
  -20.0013  -23.2643   23.5658 C   0  0  0  0  0  0  0  0  0  0  0  0
  -21.2029  -23.0941   24.4965 C   0  0  0  0  0  0  0  0  0  0  0  0
  -18.9355  -24.1897   24.1470 C   0  0  0  0  0  0  0  0  0  0  0  0
  -22.2326  -22.1358   23.9113 C   0  0  0  0  0  0  0  0  0  1  0  0
  -27.9609  -20.2387   19.6265 C   0  0  1  0  0  0  0  0  0  0  0  0
  -27.4890  -23.2278   17.3435 C   0  0  2  0  0  0  0  0  0  0  0  0
  -29.3754  -19.8435   20.1368 C   0  0  0  0  0  0  0  0  0  0  0  0
  -24.9922  -27.3324   20.6650 N   0  0  0  0  0  0  0  0  0  0  0  0
  -24.9232  -28.1633   19.6110 N   0  0  0  0  0  0  0  0  0  0  0  0
  -25.9620  -18.7914   19.8102 N   0  0  0  0  0  0  0  0  0  0  0  0
  -21.1830  -27.9989   18.8473 N   0  0  0  0  0  0  0  0  0  0  0  0
  -26.1629  -29.7674   18.3861 N   0  0  0  0  0  0  0  0  0  0  0  0
  -29.0301  -28.4938   21.6346 N   0  0  0  0  0  0  0  0  0  0  0  0
  -25.1304  -15.2922   20.4106 N   0  0  0  0  0  0  0  0  0  0  0  0
  -27.9686  -21.1957   18.5254 N   0  0  0  0  0  0  0  0  0  0  0  0
  -20.0164  -29.3964   20.3989 N   0  0  0  0  0  0  0  0  0  0  0  0
  -19.4831  -25.4949   24.4307 N   0  0  3  0  0  0  0  0  0  0  0  0
  -26.2708  -24.0508   17.0993 N   0  3  0  0  0  0  0  0  0  0  0  0
  -28.7634  -29.8733   19.8223 O   0  0  0  0  0  0  0  0  0  0  0  0
  -26.4281  -16.9071   21.4739 O   0  0  0  0  0  0  0  0  0  0  0  0
  -27.6026  -18.3720   18.2075 O   0  0  0  0  0  0  0  0  0  0  0  0
  -26.7055  -22.8214   19.5925 O   0  0  0  0  0  0  0  0  0  0  0  0
  -19.6882  -29.6032   18.1127 O   0  0  0  0  0  0  0  0  0  0  0  0
  -28.0289  -24.7355   25.6231 O   0  0  0  0  0  0  0  0  0  0  0  0
  -21.6348  -20.8591   23.6900 O   0  0  0  0  0  0  0  0  0  1  0  0
  -27.0362  -19.3153   25.8230 F   0  0  0  0  0  0  0  0  0  0  0  0
  -25.4410  -23.7647   25.5710 F   0  0  0  0  0  0  0  0  0  0  0  0
  1  2  1  0  0  0  0
  1  5  2  0  0  0  0
  2  6  2  0  0  0  0
  3 12  2  0  0  0  0
  3 19  1  0  0  0  0
  4 13  1  0  0  0  0
  4 19  2  0  0  0  0
  5 21  1  0  0  0  0
  6 23  1  0  0  0  0
  7 14  2  0  0  0  0
  7 22  1  0  0  0  0
  8 10  2  0  0  0  0
  8 25  1  0  0  0  0
  9 11  1  0  0  0  0
  9 25  2  0  0  0  0
 10 26  1  0  0  0  0
 11 26  2  0  0  0  0
 12 27  1  0  0  0  0
 13 27  2  0  0  0  0
 14 28  1  0  0  0  0
 15 16  2  0  0  0  0
 15 29  1  0  0  0  0
 16 30  1  0  0  0  0
 17 24  1  0  0  0  0
 17 28  2  0  0  0  0
 18 30  2  0  0  0  0
 18 31  1  0  0  0  0
 19 32  1  0  0  0  0
 20 32  1  0  0  0  0
 20 33  2  0  0  0  0
 20 34  1  0  0  0  0
 21 23  2  0  0  0  0
 21 39  1  0  0  0  0
 22 24  2  0  0  0  0
 22 40  1  0  0  0  0
 23 48  1  0  0  0  0
 24 41  1  0  0  0  0
 25 73  1  0  0  0  0
 26 74  1  0  0  0  0
 27 81  1  0  0  0  0
 28 82  1  0  0  0  0
 29 31  2  0  0  0  0
 29 81  1  0  0  0  0
 30 83  1  0  0  0  0
 31 84  1  0  0  0  0
 32 65  2  0  0  0  0
 33 66  1  0  0  0  0
 33 69  1  0  0  0  0
 34 70  1  0  0  0  0
 34 76  2  0  0  0  0
 35 49  1  0  0  0  0
 35 71  1  0  0  0  0
 35 77  2  0  0  0  0
 36 62  1  0  0  0  0
 36 67  1  0  0  0  0
 36 78  2  0  0  0  0
 37 63  1  0  0  0  0
 37 72  1  0  0  0  0
 37 79  2  0  0  0  0
 38 68  1  0  0  0  0
 38 73  1  0  0  0  0
 38 80  2  0  0  0  0
 39 42  1  0  0  0  0
 40 49  1  0  0  0  0
 41 67  1  0  0  0  0
 42 44  1  0  0  0  0
 43 45  1  0  0  0  0
 43 46  1  0  0  0  0
 44 48  1  0  0  0  0
 45 50  1  0  0  0  0
 46 68  1  0  0  0  0
 47 50  1  0  0  0  0
 47 68  1  0  0  0  0
 48 71  1  0  0  0  0
 49 67  1  0  0  0  0
 50 66  1  0  0  0  0
 51 63  1  0  0  0  0
 52 64  1  0  0  0  0
 53 64  1  0  0  0  0
 54 64  1  0  0  0  0
 55 73  1  0  0  0  0
 56 74  1  0  0  0  0
 57 75  1  0  0  0  0
 58 59  1  0  0  0  0
 58 60  1  0  0  0  0
 59 61  1  0  0  0  0
 60 74  1  0  0  0  0
 61 82  1  0  0  0  0
 62 64  1  0  0  0  0
 62 72  1  0  0  0  0
 63 75  1  0  0  0  0
 65 66  1  0  0  0  0
M  CHG  1  75   1
M  ISO  4  38 100  61 101  73 100  82 101
M  END
> <Batch ID>
0016

> <Smiles>
CNC(C)C(=O)NC(C(=O)N1Cc2cc([101O:1][101CH2:1]CCCN(C)c3ccc([100N:0](C)[100C:0](=O)N4CCCC(n5nc(-c6ccc(Oc7ccc(F)cc7F)cc6)c(C(N)=O)c5N)C4)cc3)ccc2CC1C(=O)NC1CCCc2ccccc21)C(C)(C)C

> <Shape>
0.174

> <Color>
0.073

> <Negative vol penalty>
0.000

$$$$

  -OEChem-04042320573D

 88 97  0     1  0  0  0  0  0999 V2000
  -35.0190  -33.6364   24.7896 C   0  0  0  0  0  0  0  0  0  0  0  0
  -34.4404  -32.4829   24.2699 C   0  0  0  0  0  0  0  0  0  0  0  0
  -22.6100  -10.2301   20.2413 C   0  0  0  0  0  0  0  0  0  0  0  0
  -24.4676   -9.3317   21.4980 C   0  0  0  0  0  0  0  0  0  0  0  0
  -34.2218  -34.5937   25.4157 C   0  0  0  0  0  0  0  0  0  0  0  0
  -33.0641  -32.2855   24.3772 C   0  0  0  0  0  0  0  0  0  0  0  0
  -29.4147  -29.5157   20.3133 C   0  0  0  0  0  0  0  0  0  0  0  0
  -28.9129  -18.8626   21.5041 C   0  0  0  0  0  0  0  0  0  0  0  0
  -29.0348  -20.1886   21.0888 C   0  0  0  0  0  0  0  0  0  0  0  0
  -21.9344   -9.0169   20.3726 C   0  0  0  0  0  0  0  0  0  0  0  0
  -23.7919   -8.1184   21.6293 C   0  0  0  0  0  0  0  0  0  0  0  0
  -28.8988  -28.2223   20.2446 C   0  0  0  0  0  0  0  0  0  0  0  0
  -21.3078   -6.8462   23.5349 C   0  0  0  0  0  0  0  0  0  0  0  0
  -21.3010   -6.2427   24.7924 C   0  0  0  0  0  0  0  0  0  0  0  0
  -26.8595  -28.9871   21.2817 C   0  0  0  0  0  0  0  0  0  0  0  0
  -29.6958  -19.4388   18.8892 C   0  0  0  0  0  0  0  0  0  0  0  0
  -22.3978   -4.2996   23.8658 C   0  0  0  0  0  0  0  0  0  0  0  0
  -23.8766  -10.3875   20.8040 C   0  0  0  0  0  0  0  0  0  0  0  0
  -24.1507  -12.9038   21.1210 C   0  0  0  0  0  0  0  0  0  0  0  0
  -32.8339  -34.4124   25.5221 C   0  0  0  0  0  0  0  0  0  0  0  0
  -28.6598  -30.5540   20.8775 C   0  0  0  0  0  0  0  0  0  0  0  0
  -32.2478  -33.2406   25.0065 C   0  0  0  0  0  0  0  0  0  0  0  0
  -27.3671  -30.2933   21.3540 C   0  0  0  0  0  0  0  0  0  0  0  0
  -29.1825  -17.8247   20.6120 C   0  0  0  0  0  0  0  0  0  0  0  0
  -29.4262  -20.4767   19.7813 C   0  0  0  0  0  0  0  0  0  0  0  0
  -22.5253   -7.9610   21.0666 C   0  0  0  0  0  0  0  0  0  0  0  0
  -27.6222  -27.9572   20.7314 C   0  0  0  0  0  0  0  0  0  0  0  0
  -21.8595   -6.1763   22.4428 C   0  0  0  0  0  0  0  0  0  0  0  0
  -21.8460   -4.9695   24.9579 C   0  0  0  0  0  0  0  0  0  0  0  0
  -29.5739  -18.1128   19.3046 C   0  0  0  0  0  0  0  0  0  0  0  0
  -22.4045   -4.9031   22.6083 C   0  0  0  0  0  0  0  0  0  0  0  0
  -24.5753  -11.6403   20.6683 C   0  0  0  0  0  0  0  0  0  0  0  0
  -25.1601  -13.7584   20.7504 C   0  0  0  0  0  0  0  0  0  0  0  0
  -22.9512  -13.2721   21.8147 C   0  0  0  0  0  0  0  0  0  0  0  0
  -29.0193  -32.4877   23.3746 C   0  0  0  0  0  0  0  0  0  0  0  0
  -26.3443  -33.8840   22.1842 C   0  0  0  0  0  0  0  0  0  0  0  0
  -23.5196  -33.5897   20.2918 C   0  0  0  0  0  0  0  0  0  0  0  0
  -30.7806  -14.6055   20.6556 C   0  0  0  0  0  0  0  0  0  0  0  0
  -32.0195  -35.4528   26.2494 C   0  0  0  0  0  0  0  0  0  0  0  0
  -29.2203  -31.9492   20.9199 C   0  0  0  0  0  0  0  0  0  0  0  0
  -26.5083  -31.3772   21.9507 C   0  0  0  0  0  0  0  0  0  0  0  0
  -30.5192  -35.3429   25.9899 C   0  0  0  0  0  0  0  0  0  0  0  0
  -29.1375  -13.0653   17.7180 C   0  0  0  0  0  0  0  0  0  0  0  0
  -30.0602  -33.8938   26.1171 C   0  0  0  0  0  0  0  0  0  0  0  0
  -27.7992  -12.6011   18.2903 C   0  0  0  0  0  0  0  0  0  0  0  0
  -27.8709  -23.4949   18.8455 C   0  0  0  0  0  0  0  0  0  0  0  0
  -29.6257  -23.8834   20.6266 C   0  0  0  0  0  0  0  0  0  0  0  0
  -27.0567  -24.6627   19.3970 C   0  0  0  0  0  0  0  0  0  0  0  0
  -28.8081  -25.0511   21.1735 C   0  0  0  0  0  0  0  0  0  0  0  0
  -30.2298  -13.0954   18.7827 C   0  0  0  0  0  0  0  0  0  0  0  0
  -28.5403  -13.4376   20.5556 C   0  0  0  0  0  0  0  0  0  0  0  0
  -30.7553  -33.0020   25.0813 C   0  0  1  0  0  0  0  0  0  0  0  0
  -28.5640  -32.8248   21.9829 C   0  0  1  0  0  0  0  0  0  0  0  0
  -27.4070  -13.4405   19.5187 C   0  0  2  0  0  0  0  0  0  0  0  0
  -28.7278  -22.8521   19.9392 C   0  0  0  0  0  0  0  0  0  0  0  0
  -27.9463  -25.6940   20.0879 C   0  0  0  0  0  0  0  0  0  1  0  0
  -21.5102  -34.8895   19.5365 C   0  0  0  0  0  0  0  0  0  0  0  0
  -25.0895  -33.5437   24.9446 C   0  0  0  0  0  0  0  0  0  0  0  0
  -22.8515  -33.9582   23.9017 C   0  0  0  0  0  0  0  0  0  0  0  0
  -24.6024  -35.7340   23.8401 C   0  0  0  0  0  0  0  0  0  0  0  0
  -30.5254  -22.1737   18.3418 C   0  0  0  0  0  0  0  0  0  0  0  0
  -31.3154  -16.5868   22.0225 C   0  0  0  0  0  0  0  0  0  0  0  0
  -24.2717  -33.3196   17.4422 C   0  0  0  0  0  0  0  0  0  0  0  0
  -29.0513  -16.4080   21.0594 C   0  0  0  0  0  0  0  0  0  0  0  0
  -24.8599  -33.6882   22.3771 C   0  0  1  0  0  0  0  0  0  0  0  0
  -22.9367  -34.4777   19.2072 C   0  0  2  0  0  0  0  0  0  0  0  0
  -24.3675  -34.2100   23.7564 C   0  0  0  0  0  0  0  0  0  0  0  0
  -25.7619  -11.6837   20.0566 N   0  0  0  0  0  0  0  0  0  0  0  0
  -26.0915  -12.9849   20.1223 N   0  0  0  0  0  0  0  0  0  0  0  0
  -27.1032  -32.7237   21.9754 N   0  0  0  0  0  0  0  0  0  0  0  0
  -29.8142  -13.8635   19.9568 N   0  0  0  0  0  0  0  0  0  0  0  0
  -25.3329  -15.0884   20.9036 N   0  0  0  0  0  0  0  0  0  0  0  0
  -22.9551  -13.2466   23.2160 N   0  0  0  0  0  0  0  0  0  0  0  0
  -30.1489  -33.1736   23.7785 N   0  0  0  0  0  0  0  0  0  0  0  0
  -24.2126  -34.3212   21.2330 N   0  0  0  0  0  0  0  0  0  0  0  0
  -29.5480  -21.8073   19.3650 N   0  0  3  0  0  0  0  0  0  0  0  0
  -30.3483  -15.7773   21.2949 N   0  0  0  0  0  0  0  0  0  0  0  0
  -22.9294  -33.7619   17.9001 N   0  3  0  0  0  0  0  0  0  0  0  0
  -21.9018  -13.5979   21.2095 O   0  0  0  0  0  0  0  0  0  0  0  0
  -28.3914  -31.6674   24.0337 O   0  0  0  0  0  0  0  0  0  0  0  0
  -26.8122  -35.0250   22.2106 O   0  0  0  0  0  0  0  0  0  0  0  0
  -23.3715  -32.3697   20.3049 O   0  0  0  0  0  0  0  0  0  0  0  0
  -31.9644  -14.2464   20.6973 O   0  0  0  0  0  0  0  0  0  0  0  0
  -21.8662   -6.7771   21.1951 O   0  0  0  0  0  0  0  0  0  0  0  0
  -27.1164  -26.6955   20.6662 O   0  0  0  0  0  0  0  0  0  1  0  0
  -21.8408   -4.3907   26.1659 F   0  0  0  0  0  0  0  0  0  0  0  0
  -29.8363  -17.1222   18.4405 F   0  0  0  0  0  0  0  0  0  0  0  0
  -22.9371   -4.2551   21.5631 F   0  0  0  0  0  0  0  0  0  0  0  0
  1  2  1  0  0  0  0
  1  5  2  0  0  0  0
  2  6  2  0  0  0  0
  3 10  2  0  0  0  0
  3 18  1  0  0  0  0
  4 11  1  0  0  0  0
  4 18  2  0  0  0  0
  5 20  1  0  0  0  0
  6 22  1  0  0  0  0
  7 12  2  0  0  0  0
  7 21  1  0  0  0  0
  8  9  2  0  0  0  0
  8 24  1  0  0  0  0
  9 25  1  0  0  0  0
 10 26  1  0  0  0  0
 11 26  2  0  0  0  0
 12 27  1  0  0  0  0
 13 14  2  0  0  0  0
 13 28  1  0  0  0  0
 14 29  1  0  0  0  0
 15 23  1  0  0  0  0
 15 27  2  0  0  0  0
 16 25  2  0  0  0  0
 16 30  1  0  0  0  0
 17 29  2  0  0  0  0
 17 31  1  0  0  0  0
 18 32  1  0  0  0  0
 19 32  1  0  0  0  0
 19 33  2  0  0  0  0
 19 34  1  0  0  0  0
 20 22  2  0  0  0  0
 20 39  1  0  0  0  0
 21 23  2  0  0  0  0
 21 40  1  0  0  0  0
 22 52  1  0  0  0  0
 23 41  1  0  0  0  0
 24 30  2  0  0  0  0
 24 64  1  0  0  0  0
 25 76  1  0  0  0  0
 26 84  1  0  0  0  0
 27 85  1  0  0  0  0
 28 31  2  0  0  0  0
 28 84  1  0  0  0  0
 29 86  1  0  0  0  0
 30 87  1  0  0  0  0
 31 88  1  0  0  0  0
 32 68  2  0  0  0  0
 33 69  1  0  0  0  0
 33 72  1  0  0  0  0
 34 73  1  0  0  0  0
 34 79  2  0  0  0  0
 35 53  1  0  0  0  0
 35 74  1  0  0  0  0
 35 80  2  0  0  0  0
 36 65  1  0  0  0  0
 36 70  1  0  0  0  0
 36 81  2  0  0  0  0
 37 66  1  0  0  0  0
 37 75  1  0  0  0  0
 37 82  2  0  0  0  0
 38 71  1  0  0  0  0
 38 77  1  0  0  0  0
 38 83  2  0  0  0  0
 39 42  1  0  0  0  0
 40 53  1  0  0  0  0
 41 70  1  0  0  0  0
 42 44  1  0  0  0  0
 43 45  1  0  0  0  0
 43 50  1  0  0  0  0
 44 52  1  0  0  0  0
 45 54  1  0  0  0  0
 46 48  1  0  0  0  0
 46 55  1  0  0  0  0
 47 49  1  0  0  0  0
 47 55  1  0  0  0  0
 48 56  1  0  0  0  0
 49 56  1  0  0  0  0
 50 71  1  0  0  0  0
 51 54  1  0  0  0  0
 51 71  1  0  0  0  0
 52 74  1  0  0  0  0
 53 70  1  0  0  0  0
 54 69  1  0  0  0  0
 55 76  1  0  0  0  0
 56 85  1  0  0  0  0
 57 66  1  0  0  0  0
 58 67  1  0  0  0  0
 59 67  1  0  0  0  0
 60 67  1  0  0  0  0
 61 76  1  0  0  0  0
 62 77  1  0  0  0  0
 63 78  1  0  0  0  0
 64 77  1  0  0  0  0
 65 67  1  0  0  0  0
 65 75  1  0  0  0  0
 66 78  1  0  0  0  0
 68 69  1  0  0  0  0
M  CHG  1  78   1
M  ISO  4  38 100  56 101  77 100  85 101
M  END
> <Batch ID>
0016

> <Smiles>
CNC(C)C(=O)NC(C(=O)N1Cc2cc([101O:1][101CH:1]3CCC(N(C)c4ccc(C[100N:0](C)[100C:0](=O)N5CCCC(n6nc(-c7ccc(Oc8ccc(F)cc8F)cc7)c(C(N)=O)c6N)C5)c(F)c4)CC3)ccc2CC1C(=O)NC1CCCc2ccccc21)C(C)(C)C

> <Shape>
0.341

> <Color>
0.183

> <Negative vol penalty>
0.000

$$$$

  -OEChem-04042320573D

 85 94  0     1  0  0  0  0  0999 V2000
  -16.8251  -29.2499   24.3567 C   0  0  0  0  0  0  0  0  0  0  0  0
  -17.1674  -28.3023   23.3975 C   0  0  0  0  0  0  0  0  0  0  0  0
  -26.0289  -13.3273   19.9243 C   0  0  0  0  0  0  0  0  0  0  0  0
  -26.2898  -14.0684   22.2090 C   0  0  0  0  0  0  0  0  0  0  0  0
  -17.5949  -30.4034   24.5011 C   0  0  0  0  0  0  0  0  0  0  0  0
  -18.2791  -28.5081   22.5813 C   0  0  0  0  0  0  0  0  0  0  0  0
  -22.1082  -24.2397   20.4308 C   0  0  0  0  0  0  0  0  0  0  0  0
  -27.9028  -20.0832   16.2007 C   0  0  0  0  0  0  0  0  0  0  0  0
  -27.0910  -18.2141   14.9027 C   0  0  0  0  0  0  0  0  0  0  0  0
  -29.1908  -19.5490   16.1644 C   0  0  0  0  0  0  0  0  0  0  0  0
  -28.3791  -17.6800   14.8664 C   0  0  0  0  0  0  0  0  0  0  0  0
  -25.6509  -12.0635   20.3773 C   0  0  0  0  0  0  0  0  0  0  0  0
  -25.9118  -12.8045   22.6621 C   0  0  0  0  0  0  0  0  0  0  0  0
  -22.1892  -23.5854   19.2023 C   0  0  0  0  0  0  0  0  0  0  0  0
  -22.8796  -10.5971   21.6432 C   0  0  0  0  0  0  0  0  0  0  0  0
  -21.7730   -9.9973   21.0422 C   0  0  0  0  0  0  0  0  0  0  0  0
  -23.8443  -25.1798   18.4690 C   0  0  0  0  0  0  0  0  0  0  0  0
  -23.1585   -8.1480   20.3367 C   0  0  0  0  0  0  0  0  0  0  0  0
  -26.3484  -14.3298   20.8401 C   0  0  0  0  0  0  0  0  0  0  0  0
  -25.8971  -16.7330   20.1131 C   0  0  0  0  0  0  0  0  0  0  0  0
  -18.7222  -30.6189   23.6928 C   0  0  0  0  0  0  0  0  0  0  0  0
  -22.8881  -25.3773   20.6840 C   0  0  0  0  0  0  0  0  0  0  0  0
  -19.0639  -29.6662   22.7141 C   0  0  0  0  0  0  0  0  0  0  0  0
  -23.7733  -25.8452   19.7024 C   0  0  0  0  0  0  0  0  0  0  0  0
  -26.8529  -19.4157   15.5699 C   0  0  0  0  0  0  0  0  0  0  0  0
  -29.4289  -18.3474   15.4972 C   0  0  0  0  0  0  0  0  0  0  0  0
  -25.5923  -11.8020   21.7462 C   0  0  0  0  0  0  0  0  0  0  0  0
  -23.0551  -24.0571   18.2201 C   0  0  0  0  0  0  0  0  0  0  0  0
  -24.1257   -9.9725   21.5909 C   0  0  0  0  0  0  0  0  0  0  0  0
  -21.9124   -8.7727   20.3890 C   0  0  0  0  0  0  0  0  0  0  0  0
  -24.2652   -8.7479   20.9377 C   0  0  0  0  0  0  0  0  0  0  0  0
  -26.7396  -15.6354   20.3727 C   0  0  0  0  0  0  0  0  0  0  0  0
  -26.7475  -17.7271   19.6945 C   0  0  0  0  0  0  0  0  0  0  0  0
  -25.1371  -21.1592   16.2371 C   0  0  0  0  0  0  0  0  0  0  0  0
  -24.4733  -16.8441   20.2392 C   0  0  0  0  0  0  0  0  0  0  0  0
  -22.2637  -28.4226   21.3475 C   0  0  0  0  0  0  0  0  0  0  0  0
  -25.4781  -28.5885   21.7510 C   0  0  0  0  0  0  0  0  0  0  0  0
  -28.5578  -27.3035   21.0363 C   0  0  0  0  0  0  0  0  0  0  0  0
  -31.7074  -17.9902   16.4832 C   0  0  0  0  0  0  0  0  0  0  0  0
  -19.4960  -31.9034   23.8538 C   0  0  0  0  0  0  0  0  0  0  0  0
  -22.8088  -26.0559   22.0240 C   0  0  0  0  0  0  0  0  0  0  0  0
  -24.6469  -27.0504   19.9319 C   0  0  0  0  0  0  0  0  0  0  0  0
  -20.8765  -31.8685   23.2030 C   0  0  0  0  0  0  0  0  0  0  0  0
  -31.5785  -18.6346   20.1248 C   0  0  0  0  0  0  0  0  0  0  0  0
  -20.7886  -31.2871   21.7955 C   0  0  0  0  0  0  0  0  0  0  0  0
  -30.2780  -17.9519   20.5443 C   0  0  0  0  0  0  0  0  0  0  0  0
  -23.1939  -19.9777   15.5352 C   0  0  0  0  0  0  0  0  0  0  0  0
  -32.2039  -17.9619   18.9066 C   0  0  0  0  0  0  0  0  0  0  0  0
  -24.4211  -19.3355   14.9198 C   0  0  0  0  0  0  0  0  0  0  0  0
  -29.9741  -17.1820   18.1576 C   0  0  0  0  0  0  0  0  0  0  0  0
  -20.2770  -29.8419   21.8266 C   0  0  1  0  0  0  0  0  0  0  0  0
  -23.6744  -21.3785   15.8855 C   0  0  1  0  0  0  0  0  0  0  0  0
  -23.2714  -27.5092   21.9862 C   0  0  1  0  0  0  0  0  0  0  0  0
  -29.3033  -17.8661   19.3582 C   0  0  1  0  0  0  0  0  0  0  0  0
  -30.9993  -27.6759   21.4812 C   0  0  0  0  0  0  0  0  0  0  0  0
  -25.4795  -30.9175   19.7798 C   0  0  0  0  0  0  0  0  0  0  0  0
  -27.9539  -30.6211   19.5389 C   0  0  0  0  0  0  0  0  0  0  0  0
  -26.9815  -31.2225   21.7560 C   0  0  0  0  0  0  0  0  0  0  0  0
  -31.2318  -17.2295   14.1970 C   0  0  0  0  0  0  0  0  0  0  0  0
  -28.8432  -24.6597   22.3355 C   0  0  0  0  0  0  0  0  0  0  0  0
  -22.8822  -22.0165   17.0111 C   0  0  0  0  0  0  0  0  0  1  0  0
  -26.6545  -28.8840   20.8523 C   0  0  1  0  0  0  0  0  0  0  0  0
  -29.7362  -26.9565   21.9282 C   0  0  2  0  0  0  0  0  0  0  0  0
  -26.7496  -30.3897   20.4764 C   0  0  0  0  0  0  0  0  0  0  0  0
  -28.0263  -15.9063   20.1384 N   0  0  0  0  0  0  0  0  0  0  0  0
  -27.9988  -17.1854   19.7272 N   0  0  0  0  0  0  0  0  0  0  0  0
  -25.5349  -19.9619   15.6072 N   0  0  0  0  0  0  0  0  0  0  0  0
  -24.5287  -27.6833   21.2559 N   0  0  0  0  0  0  0  0  0  0  0  0
  -31.2469  -17.8330   17.8066 N   0  0  0  0  0  0  0  0  0  0  0  0
  -26.5395  -19.0028   19.3052 N   0  0  0  0  0  0  0  0  0  0  0  0
  -23.7526  -15.7270   20.6830 N   0  0  0  0  0  0  0  0  0  0  0  0
  -21.3345  -28.9399   22.2298 N   0  0  0  0  0  0  0  0  0  0  0  0
  -27.8326  -28.3637   21.5377 N   0  0  0  0  0  0  0  0  0  0  0  0
  -30.7608  -17.7948   15.4595 N   0  0  0  0  0  0  0  0  0  0  0  0
  -29.9950  -25.4892   21.8971 N   0  3  0  0  0  0  0  0  0  0  0  0
  -25.7936  -21.9529   16.8954 O   0  0  0  0  0  0  0  0  0  0  0  0
  -23.8564  -17.8976   19.9507 O   0  0  0  0  0  0  0  0  0  0  0  0
  -22.3256  -28.6430   20.1436 O   0  0  0  0  0  0  0  0  0  0  0  0
  -25.4078  -29.1350   22.8546 O   0  0  0  0  0  0  0  0  0  0  0  0
  -28.3080  -26.6973   19.9968 O   0  0  0  0  0  0  0  0  0  0  0  0
  -32.8933  -18.2332   16.2275 O   0  0  0  0  0  0  0  0  0  0  0  0
  -25.2232  -10.5689   22.1887 O   0  0  0  0  0  0  0  0  0  0  0  0
  -23.1356  -23.4208   17.0200 O   0  0  0  0  0  0  0  0  0  1  0  0
  -20.8493   -8.1960   19.8132 F   0  0  0  0  0  0  0  0  0  0  0  0
  -25.4595   -8.1425   20.8851 F   0  0  0  0  0  0  0  0  0  0  0  0
  1  2  1  0  0  0  0
  1  5  2  0  0  0  0
  2  6  2  0  0  0  0
  3 12  2  0  0  0  0
  3 19  1  0  0  0  0
  4 13  1  0  0  0  0
  4 19  2  0  0  0  0
  5 21  1  0  0  0  0
  6 23  1  0  0  0  0
  7 14  2  0  0  0  0
  7 22  1  0  0  0  0
  8 10  2  0  0  0  0
  8 25  1  0  0  0  0
  9 11  1  0  0  0  0
  9 25  2  0  0  0  0
 10 26  1  0  0  0  0
 11 26  2  0  0  0  0
 12 27  1  0  0  0  0
 13 27  2  0  0  0  0
 14 28  1  0  0  0  0
 15 16  2  0  0  0  0
 15 29  1  0  0  0  0
 16 30  1  0  0  0  0
 17 24  1  0  0  0  0
 17 28  2  0  0  0  0
 18 30  2  0  0  0  0
 18 31  1  0  0  0  0
 19 32  1  0  0  0  0
 20 32  1  0  0  0  0
 20 33  2  0  0  0  0
 20 35  1  0  0  0  0
 21 23  2  0  0  0  0
 21 40  1  0  0  0  0
 22 24  2  0  0  0  0
 22 41  1  0  0  0  0
 23 51  1  0  0  0  0
 24 42  1  0  0  0  0
 25 67  1  0  0  0  0
 26 74  1  0  0  0  0
 27 82  1  0  0  0  0
 28 83  1  0  0  0  0
 29 31  2  0  0  0  0
 29 82  1  0  0  0  0
 30 84  1  0  0  0  0
 31 85  1  0  0  0  0
 32 65  2  0  0  0  0
 33 66  1  0  0  0  0
 33 70  1  0  0  0  0
 34 52  1  0  0  0  0
 34 67  1  0  0  0  0
 34 76  2  0  0  0  0
 35 71  1  0  0  0  0
 35 77  2  0  0  0  0
 36 53  1  0  0  0  0
 36 72  1  0  0  0  0
 36 78  2  0  0  0  0
 37 62  1  0  0  0  0
 37 68  1  0  0  0  0
 37 79  2  0  0  0  0
 38 63  1  0  0  0  0
 38 73  1  0  0  0  0
 38 80  2  0  0  0  0
 39 69  1  0  0  0  0
 39 74  1  0  0  0  0
 39 81  2  0  0  0  0
 40 43  1  0  0  0  0
 41 53  1  0  0  0  0
 42 68  1  0  0  0  0
 43 45  1  0  0  0  0
 44 46  1  0  0  0  0
 44 48  1  0  0  0  0
 45 51  1  0  0  0  0
 46 54  1  0  0  0  0
 47 49  1  0  0  0  0
 47 52  1  0  0  0  0
 48 69  1  0  0  0  0
 49 67  1  0  0  0  0
 50 54  1  0  0  0  0
 50 69  1  0  0  0  0
 51 72  1  0  0  0  0
 52 61  1  0  0  0  0
 53 68  1  0  0  0  0
 54 66  1  0  0  0  0
 55 63  1  0  0  0  0
 56 64  1  0  0  0  0
 57 64  1  0  0  0  0
 58 64  1  0  0  0  0
 59 74  1  0  0  0  0
 60 75  1  0  0  0  0
 61 83  1  0  0  0  0
 62 64  1  0  0  0  0
 62 73  1  0  0  0  0
 63 75  1  0  0  0  0
 65 66  1  0  0  0  0
M  CHG  1  75   1
M  ISO  4  39 100  61 101  74 100  83 101
M  END
> <Batch ID>
0016

> <Smiles>
CNC(C)C(=O)NC(C(=O)N1Cc2cc([101O:1][101CH2:1]C3CCN(c4ccc([100N:0](C)[100C:0](=O)N5CCCC(n6nc(-c7ccc(Oc8ccc(F)cc8F)cc7)c(C(N)=O)c6N)C5)cc4)C3=O)ccc2CC1C(=O)NC1CCCc2ccccc21)C(C)(C)C

> <Shape>
0.209

> <Color>
0.081

> <Negative vol penalty>
0.000

$$$$

  -OEChem-04042320573D

 82 90  0     1  0  0  0  0  0999 V2000
  -32.1104  -27.4947   15.0422 C   0  0  0  0  0  0  0  0  0  0  0  0
  -31.1189  -26.7019   15.6112 C   0  0  0  0  0  0  0  0  0  0  0  0
  -26.0452  -13.9608   20.9913 C   0  0  0  0  0  0  0  0  0  0  0  0
  -26.4851  -12.1100   19.5020 C   0  0  0  0  0  0  0  0  0  0  0  0
  -32.7176  -28.4979   15.7965 C   0  0  0  0  0  0  0  0  0  0  0  0
  -30.7347  -26.9111   16.9352 C   0  0  0  0  0  0  0  0  0  0  0  0
  -25.7056  -26.8712   17.5283 C   0  0  0  0  0  0  0  0  0  0  0  0
  -28.3466  -20.5545   17.6208 C   0  0  0  0  0  0  0  0  0  0  0  0
  -28.6782  -20.3999   20.0090 C   0  0  0  0  0  0  0  0  0  0  0  0
  -27.0014  -20.8600   17.8273 C   0  0  0  0  0  0  0  0  0  0  0  0
  -27.3329  -20.7054   20.2155 C   0  0  0  0  0  0  0  0  0  0  0  0
  -24.7856  -13.4332   21.2750 C   0  0  0  0  0  0  0  0  0  0  0  0
  -25.2254  -11.5823   19.7858 C   0  0  0  0  0  0  0  0  0  0  0  0
  -25.0769  -25.6270   17.5501 C   0  0  0  0  0  0  0  0  0  0  0  0
  -23.7686   -9.8171   22.2722 C   0  0  0  0  0  0  0  0  0  0  0  0
  -23.6839   -8.4491   22.5307 C   0  0  0  0  0  0  0  0  0  0  0  0
  -24.9892  -25.7202   19.9590 C   0  0  0  0  0  0  0  0  0  0  0  0
  -22.1843   -8.1874   20.6546 C   0  0  0  0  0  0  0  0  0  0  0  0
  -26.8950  -13.2993   20.1048 C   0  0  0  0  0  0  0  0  0  0  0  0
  -29.4006  -13.5828   20.4910 C   0  0  0  0  0  0  0  0  0  0  0  0
  -32.3338  -28.7259   17.1274 C   0  0  0  0  0  0  0  0  0  0  0  0
  -25.9911  -27.5454   18.7243 C   0  0  0  0  0  0  0  0  0  0  0  0
  -31.3382  -27.9174   17.7084 C   0  0  0  0  0  0  0  0  0  0  0  0
  -25.6193  -26.9740   19.9495 C   0  0  0  0  0  0  0  0  0  0  0  0
  -29.1850  -20.3244   18.7116 C   0  0  0  0  0  0  0  0  0  0  0  0
  -26.4945  -20.9354   19.1246 C   0  0  0  0  0  0  0  0  0  0  0  0
  -24.3757  -12.2439   20.6723 C   0  0  0  0  0  0  0  0  0  0  0  0
  -24.7212  -25.0500   18.7656 C   0  0  0  0  0  0  0  0  0  0  0  0
  -23.0610  -10.3704   21.2049 C   0  0  0  0  0  0  0  0  0  0  0  0
  -22.8918   -7.6342   21.7219 C   0  0  0  0  0  0  0  0  0  0  0  0
  -22.2689   -9.5555   20.3961 C   0  0  0  0  0  0  0  0  0  0  0  0
  -28.1960  -13.8441   19.8108 C   0  0  0  0  0  0  0  0  0  0  0  0
  -30.3389  -14.3369   19.8297 C   0  0  0  0  0  0  0  0  0  0  0  0
  -29.6490  -12.7342   21.6197 C   0  0  0  0  0  0  0  0  0  0  0  0
  -28.6483  -28.5251   20.1677 C   0  0  0  0  0  0  0  0  0  0  0  0
  -26.5563  -29.8949   22.2340 C   0  0  0  0  0  0  0  0  0  0  0  0
  -23.4301  -29.9169   23.6025 C   0  0  0  0  0  0  0  0  0  0  0  0
  -31.0021  -19.3244   17.3371 C   0  0  0  0  0  0  0  0  0  0  0  0
  -33.0520  -29.7909   17.9177 C   0  0  0  0  0  0  0  0  0  0  0  0
  -26.6457  -28.8990   18.6825 C   0  0  0  0  0  0  0  0  0  0  0  0
  -25.8853  -27.6661   21.2605 C   0  0  0  0  0  0  0  0  0  0  0  0
  -32.3245  -30.1943   19.1976 C   0  0  0  0  0  0  0  0  0  0  0  0
  -30.6455  -16.3946   15.3542 C   0  0  0  0  0  0  0  0  0  0  0  0
  -31.8660  -28.9574   19.9636 C   0  0  0  0  0  0  0  0  0  0  0  0
  -30.0812  -15.4053   16.3733 C   0  0  0  0  0  0  0  0  0  0  0  0
  -30.0594  -17.7957   15.5313 C   0  0  0  0  0  0  0  0  0  0  0  0
  -29.6255  -17.3430   17.9253 C   0  0  0  0  0  0  0  0  0  0  0  0
  -30.8768  -28.1300   19.1339 C   0  0  1  0  0  0  0  0  0  0  0  0
  -27.3515  -29.2619   19.9854 C   0  0  1  0  0  0  0  0  0  0  0  0
  -30.2399  -15.9394   17.8078 C   0  0  1  0  0  0  0  0  0  0  0  0
  -22.0282  -31.1312   25.2930 C   0  0  0  0  0  0  0  0  0  0  0  0
  -28.0372  -28.4644   24.4858 C   0  0  0  0  0  0  0  0  0  0  0  0
  -26.0774  -28.9261   25.9739 C   0  0  0  0  0  0  0  0  0  0  0  0
  -27.3776  -30.8206   25.0029 C   0  0  0  0  0  0  0  0  0  0  0  0
  -31.5777  -20.6137   19.3820 C   0  0  0  0  0  0  0  0  0  0  0  0
  -24.6090  -21.3229   20.6914 C   0  0  0  0  0  0  0  0  0  0  0  0
  -21.4665  -30.7470   21.5496 C   0  0  0  0  0  0  0  0  0  0  0  0
  -24.2520  -21.5010   18.2238 C   0  0  0  0  0  0  0  0  0  0  0  0
  -24.4202  -22.9291   17.7326 C   0  0  0  0  0  0  0  0  0  1  0  0
  -25.8659  -29.4575   23.5033 C   0  0  1  0  0  0  0  0  0  0  0  0
  -22.4386  -31.0434   23.8313 C   0  0  2  0  0  0  0  0  0  0  0  0
  -26.8361  -29.4030   24.7171 C   0  0  0  0  0  0  0  0  0  0  0  0
  -28.3520  -14.6976   18.7954 N   0  0  0  0  0  0  0  0  0  0  0  0
  -29.6656  -14.9793   18.8326 N   0  0  0  0  0  0  0  0  0  0  0  0
  -26.5332  -28.9848   21.1676 N   0  0  0  0  0  0  0  0  0  0  0  0
  -30.1974  -18.2460   16.9235 N   0  0  0  0  0  0  0  0  0  0  0  0
  -31.6660  -14.5066   20.0096 N   0  0  0  0  0  0  0  0  0  0  0  0
  -28.5723  -12.0310   22.1768 N   0  0  0  0  0  0  0  0  0  0  0  0
  -29.5646  -28.7401   19.1559 N   0  0  0  0  0  0  0  0  0  0  0  0
  -24.7335  -30.3594   23.6836 N   0  0  0  0  0  0  0  0  0  0  0  0
  -30.5773  -20.0066   18.4975 N   0  0  0  0  0  0  0  0  0  0  0  0
  -25.1433  -21.2432   19.3316 N   0  0  3  0  0  0  0  0  0  0  0  0
  -21.2129  -30.8292   23.0111 N   0  3  0  0  0  0  0  0  0  0  0  0
  -30.7890  -12.6162   22.1296 O   0  0  0  0  0  0  0  0  0  0  0  0
  -28.8064  -27.8153   21.1541 O   0  0  0  0  0  0  0  0  0  0  0  0
  -27.0901  -31.0060   22.1880 O   0  0  0  0  0  0  0  0  0  0  0  0
  -23.0830  -28.7594   23.3783 O   0  0  0  0  0  0  0  0  0  0  0  0
  -32.0345  -19.6373   16.7319 O   0  0  0  0  0  0  0  0  0  0  0  0
  -23.1467  -11.7286   20.9491 O   0  0  0  0  0  0  0  0  0  0  0  0
  -24.1080  -23.8354   18.7898 O   0  0  0  0  0  0  0  0  0  1  0  0
  -22.8119   -6.3202   21.9693 F   0  0  0  0  0  0  0  0  0  0  0  0
  -21.5878  -10.0810   19.3686 F   0  0  0  0  0  0  0  0  0  0  0  0
  1  2  1  0  0  0  0
  1  5  2  0  0  0  0
  2  6  2  0  0  0  0
  3 12  2  0  0  0  0
  3 19  1  0  0  0  0
  4 13  1  0  0  0  0
  4 19  2  0  0  0  0
  5 21  1  0  0  0  0
  6 23  1  0  0  0  0
  7 14  2  0  0  0  0
  7 22  1  0  0  0  0
  8 10  2  0  0  0  0
  8 25  1  0  0  0  0
  9 11  1  0  0  0  0
  9 25  2  0  0  0  0
 10 26  1  0  0  0  0
 11 26  2  0  0  0  0
 12 27  1  0  0  0  0
 13 27  2  0  0  0  0
 14 28  1  0  0  0  0
 15 16  2  0  0  0  0
 15 29  1  0  0  0  0
 16 30  1  0  0  0  0
 17 24  1  0  0  0  0
 17 28  2  0  0  0  0
 18 30  2  0  0  0  0
 18 31  1  0  0  0  0
 19 32  1  0  0  0  0
 20 32  1  0  0  0  0
 20 33  2  0  0  0  0
 20 34  1  0  0  0  0
 21 23  2  0  0  0  0
 21 39  1  0  0  0  0
 22 24  2  0  0  0  0
 22 40  1  0  0  0  0
 23 48  1  0  0  0  0
 24 41  1  0  0  0  0
 25 71  1  0  0  0  0
 26 72  1  0  0  0  0
 27 79  1  0  0  0  0
 28 80  1  0  0  0  0
 29 31  2  0  0  0  0
 29 79  1  0  0  0  0
 30 81  1  0  0  0  0
 31 82  1  0  0  0  0
 32 63  2  0  0  0  0
 33 64  1  0  0  0  0
 33 67  1  0  0  0  0
 34 68  1  0  0  0  0
 34 74  2  0  0  0  0
 35 49  1  0  0  0  0
 35 69  1  0  0  0  0
 35 75  2  0  0  0  0
 36 60  1  0  0  0  0
 36 65  1  0  0  0  0
 36 76  2  0  0  0  0
 37 61  1  0  0  0  0
 37 70  1  0  0  0  0
 37 77  2  0  0  0  0
 38 66  1  0  0  0  0
 38 71  1  0  0  0  0
 38 78  2  0  0  0  0
 39 42  1  0  0  0  0
 40 49  1  0  0  0  0
 41 65  1  0  0  0  0
 42 44  1  0  0  0  0
 43 45  1  0  0  0  0
 43 46  1  0  0  0  0
 44 48  1  0  0  0  0
 45 50  1  0  0  0  0
 46 66  1  0  0  0  0
 47 50  1  0  0  0  0
 47 66  1  0  0  0  0
 48 69  1  0  0  0  0
 49 65  1  0  0  0  0
 50 64  1  0  0  0  0
 51 61  1  0  0  0  0
 52 62  1  0  0  0  0
 53 62  1  0  0  0  0
 54 62  1  0  0  0  0
 55 71  1  0  0  0  0
 56 72  1  0  0  0  0
 57 73  1  0  0  0  0
 58 59  1  0  0  0  0
 58 72  1  0  0  0  0
 59 80  1  0  0  0  0
 60 62  1  0  0  0  0
 60 70  1  0  0  0  0
 61 73  1  0  0  0  0
 63 64  1  0  0  0  0
M  CHG  1  73   1
M  ISO  4  38 100  59 101  71 100  80 101
M  END
> <Batch ID>
0016

> <Smiles>
CNC(C)C(=O)NC(C(=O)N1Cc2cc([101O:1][101CH2:1]CN(C)c3ccc([100N:0](C)[100C:0](=O)N4CCCC(n5nc(-c6ccc(Oc7ccc(F)cc7F)cc6)c(C(N)=O)c5N)C4)cc3)ccc2CC1C(=O)NC1CCCc2ccccc21)C(C)(C)C

> <Shape>
0.239

> <Color>
0.096

> <Negative vol penalty>
0.000

$$$$

  -OEChem-04042320573D

 87 95  0     1  0  0  0  0  0999 V2000
  -28.9628  -32.2103   25.3278 C   0  0  0  0  0  0  0  0  0  0  0  0
  -28.7970  -30.9295   24.8107 C   0  0  0  0  0  0  0  0  0  0  0  0
  -23.0975  -10.4940   20.6120 C   0  0  0  0  0  0  0  0  0  0  0  0
  -24.3729   -9.2103   22.2128 C   0  0  0  0  0  0  0  0  0  0  0  0
  -27.8462  -32.9795   25.6529 C   0  0  0  0  0  0  0  0  0  0  0  0
  -27.5145  -30.4166   24.6193 C   0  0  0  0  0  0  0  0  0  0  0  0
  -26.9924  -28.1110   20.1409 C   0  0  0  0  0  0  0  0  0  0  0  0
  -22.1668   -9.4589   20.5235 C   0  0  0  0  0  0  0  0  0  0  0  0
  -23.4421   -8.1751   22.1243 C   0  0  0  0  0  0  0  0  0  0  0  0
  -27.5167  -26.8247   20.0220 C   0  0  0  0  0  0  0  0  0  0  0  0
  -20.3680   -7.4808   23.3442 C   0  0  0  0  0  0  0  0  0  0  0  0
  -19.9380   -6.8944   24.5345 C   0  0  0  0  0  0  0  0  0  0  0  0
  -25.3100  -25.9026   20.3374 C   0  0  0  0  0  0  0  0  0  0  0  0
  -28.0037  -19.6416   17.0079 C   0  0  0  0  0  0  0  0  0  0  0  0
  -29.9904  -18.9174   18.8276 C   0  0  0  0  0  0  0  0  0  0  0  0
  -20.7800   -4.7572   23.7857 C   0  0  0  0  0  0  0  0  0  0  0  0
  -24.2006  -10.3697   21.4567 C   0  0  0  0  0  0  0  0  0  0  0  0
  -25.1410  -12.5278   22.4394 C   0  0  0  0  0  0  0  0  0  0  0  0
  -26.5493  -32.4795   25.4564 C   0  0  0  0  0  0  0  0  0  0  0  0
  -25.6224  -28.3028   20.3701 C   0  0  0  0  0  0  0  0  0  0  0  0
  -26.3796  -31.1793   24.9433 C   0  0  0  0  0  0  0  0  0  0  0  0
  -24.7704  -27.1925   20.4562 C   0  0  0  0  0  0  0  0  0  0  0  0
  -28.9150  -20.5951   17.4616 C   0  0  0  0  0  0  0  0  0  0  0  0
  -29.0790  -17.9639   18.3739 C   0  0  0  0  0  0  0  0  0  0  0  0
  -22.3391   -8.2995   21.2796 C   0  0  0  0  0  0  0  0  0  0  0  0
  -26.6760  -25.7201   20.1232 C   0  0  0  0  0  0  0  0  0  0  0  0
  -21.0039   -6.7055   22.3746 C   0  0  0  0  0  0  0  0  0  0  0  0
  -20.1441   -5.5326   24.7553 C   0  0  0  0  0  0  0  0  0  0  0  0
  -21.2100   -5.3437   22.5954 C   0  0  0  0  0  0  0  0  0  0  0  0
  -29.9084  -20.2330   18.3714 C   0  0  0  0  0  0  0  0  0  0  0  0
  -28.0856  -18.3260   17.4641 C   0  0  0  0  0  0  0  0  0  0  0  0
  -25.1627  -11.4383   21.5481 C   0  0  0  0  0  0  0  0  0  0  0  0
  -26.2654  -13.2512   22.1249 C   0  0  0  0  0  0  0  0  0  0  0  0
  -24.1895  -12.8565   23.4604 C   0  0  0  0  0  0  0  0  0  0  0  0
  -23.8991  -29.6069   22.7012 C   0  0  0  0  0  0  0  0  0  0  0  0
  -21.4390  -29.0603   20.6588 C   0  0  0  0  0  0  0  0  0  0  0  0
  -28.0033  -22.9093   17.6344 C   0  0  0  0  0  0  0  0  0  0  0  0
  -20.1950  -27.2658   18.0360 C   0  0  0  0  0  0  0  0  0  0  0  0
  -29.4141  -15.5276   17.9900 C   0  0  0  0  0  0  0  0  0  0  0  0
  -25.3734  -33.3300   25.8669 C   0  0  0  0  0  0  0  0  0  0  0  0
  -25.0682  -29.6976   20.4694 C   0  0  0  0  0  0  0  0  0  0  0  0
  -23.2891  -27.3451   20.6816 C   0  0  0  0  0  0  0  0  0  0  0  0
  -24.0452  -32.8555   25.2832 C   0  0  0  0  0  0  0  0  0  0  0  0
  -30.2077  -12.1262   19.1777 C   0  0  0  0  0  0  0  0  0  0  0  0
  -23.8975  -31.3465   25.4500 C   0  0  0  0  0  0  0  0  0  0  0  0
  -28.9338  -11.7172   19.9152 C   0  0  0  0  0  0  0  0  0  0  0  0
  -29.9165  -13.1024   18.0418 C   0  0  0  0  0  0  0  0  0  0  0  0
  -27.8855  -13.9051   19.2084 C   0  0  0  0  0  0  0  0  0  0  0  0
  -25.0043  -30.5974   24.6982 C   0  0  1  0  0  0  0  0  0  0  0  0
  -23.7388  -29.7608   21.2151 C   0  0  1  0  0  0  0  0  0  0  0  0
  -28.1510  -12.9552   20.3861 C   0  0  1  0  0  0  0  0  0  0  0  0
  -28.8830  -22.1371   14.5322 C   0  0  0  0  0  0  0  0  0  0  0  0
  -18.1417  -27.0210   16.6142 C   0  0  0  0  0  0  0  0  0  0  0  0
  -20.0425  -27.5829   22.9341 C   0  0  0  0  0  0  0  0  0  0  0  0
  -18.5000  -26.5743   21.2395 C   0  0  0  0  0  0  0  0  0  0  0  0
  -18.5453  -29.0469   21.5668 C   0  0  0  0  0  0  0  0  0  0  0  0
  -29.3153  -16.4015   20.3129 C   0  0  0  0  0  0  0  0  0  0  0  0
  -21.6747  -27.9745   15.5729 C   0  0  0  0  0  0  0  0  0  0  0  0
  -27.1604  -22.3805   18.7953 C   0  0  0  0  0  0  0  0  0  0  0  0
  -29.6374  -22.3004   15.8077 C   0  0  0  0  0  0  0  0  0  0  0  0
  -26.3238  -23.4601   19.4720 C   0  0  0  0  0  0  0  0  0  1  0  0
  -20.4884  -27.9137   20.4127 C   0  0  1  0  0  0  0  0  0  0  0  0
  -19.4948  -27.6994   16.7607 C   0  0  2  0  0  0  0  0  0  0  0  0
  -19.4222  -27.7762   21.5360 C   0  0  0  0  0  0  0  0  0  0  0  0
  -26.2173  -11.4634   20.7288 N   0  0  0  0  0  0  0  0  0  0  0  0
  -26.8686  -12.5775   21.1039 N   0  0  0  0  0  0  0  0  0  0  0  0
  -22.7961  -28.7290   20.7782 N   0  0  0  0  0  0  0  0  0  0  0  0
  -29.1325  -14.2472   18.5071 N   0  0  0  0  0  0  0  0  0  0  0  0
  -26.7870  -14.3916   22.6249 N   0  0  0  0  0  0  0  0  0  0  0  0
  -23.0926  -12.0050   23.6505 N   0  0  0  0  0  0  0  0  0  0  0  0
  -24.7158  -30.5591   23.2806 N   0  0  0  0  0  0  0  0  0  0  0  0
  -19.9300  -28.1249   19.0815 N   0  0  0  0  0  0  0  0  0  0  0  0
  -28.8012  -21.9527   16.9673 N   0  0  0  0  0  0  0  0  0  0  0  0
  -29.1914  -16.6114   18.8667 N   0  0  0  0  0  0  0  0  0  0  0  0
  -20.3244  -27.3551   15.5716 N   0  3  0  0  0  0  0  0  0  0  0  0
  -24.2998  -13.8838   24.1717 O   0  0  0  0  0  0  0  0  0  0  0  0
  -23.3232  -28.6928   23.2795 O   0  0  0  0  0  0  0  0  0  0  0  0
  -20.9946  -30.2085   20.7349 O   0  0  0  0  0  0  0  0  0  0  0  0
  -27.9260  -24.1007   17.3243 O   0  0  0  0  0  0  0  0  0  0  0  0
  -20.9029  -26.2631   18.0993 O   0  0  0  0  0  0  0  0  0  0  0  0
  -29.8576  -15.6863   16.8464 O   0  0  0  0  0  0  0  0  0  0  0  0
  -21.4309   -7.2893   21.1937 O   0  0  0  0  0  0  0  0  0  0  0  0
  -27.1853  -24.4634   20.0082 O   0  0  0  0  0  0  0  0  0  1  0  0
  -19.7325   -4.9700   25.8990 F   0  0  0  0  0  0  0  0  0  0  0  0
  -21.8214   -4.5939   21.6681 F   0  0  0  0  0  0  0  0  0  0  0  0
  -31.0579  -21.3818   18.9578 Cl  0  0  0  0  0  0  0  0  0  0  0  0
  -26.9358  -17.1773   16.8777 Cl  0  0  0  0  0  0  0  0  0  0  0  0
  1  2  1  0  0  0  0
  1  5  2  0  0  0  0
  2  6  2  0  0  0  0
  3  8  2  0  0  0  0
  3 17  1  0  0  0  0
  4  9  1  0  0  0  0
  4 17  2  0  0  0  0
  5 19  1  0  0  0  0
  6 21  1  0  0  0  0
  7 10  2  0  0  0  0
  7 20  1  0  0  0  0
  8 25  1  0  0  0  0
  9 25  2  0  0  0  0
 10 26  1  0  0  0  0
 11 12  2  0  0  0  0
 11 27  1  0  0  0  0
 12 28  1  0  0  0  0
 13 22  1  0  0  0  0
 13 26  2  0  0  0  0
 14 23  1  0  0  0  0
 14 31  2  0  0  0  0
 15 24  2  0  0  0  0
 15 30  1  0  0  0  0
 16 28  2  0  0  0  0
 16 29  1  0  0  0  0
 17 32  1  0  0  0  0
 18 32  1  0  0  0  0
 18 33  2  0  0  0  0
 18 34  1  0  0  0  0
 19 21  2  0  0  0  0
 19 40  1  0  0  0  0
 20 22  2  0  0  0  0
 20 41  1  0  0  0  0
 21 49  1  0  0  0  0
 22 42  1  0  0  0  0
 23 30  2  0  0  0  0
 23 73  1  0  0  0  0
 24 31  1  0  0  0  0
 24 74  1  0  0  0  0
 25 82  1  0  0  0  0
 26 83  1  0  0  0  0
 27 29  2  0  0  0  0
 27 82  1  0  0  0  0
 28 84  1  0  0  0  0
 29 85  1  0  0  0  0
 30 86  1  0  0  0  0
 31 87  1  0  0  0  0
 32 65  2  0  0  0  0
 33 66  1  0  0  0  0
 33 69  1  0  0  0  0
 34 70  1  0  0  0  0
 34 76  2  0  0  0  0
 35 50  1  0  0  0  0
 35 71  1  0  0  0  0
 35 77  2  0  0  0  0
 36 62  1  0  0  0  0
 36 67  1  0  0  0  0
 36 78  2  0  0  0  0
 37 59  1  0  0  0  0
 37 73  1  0  0  0  0
 37 79  2  0  0  0  0
 38 63  1  0  0  0  0
 38 72  1  0  0  0  0
 38 80  2  0  0  0  0
 39 68  1  0  0  0  0
 39 74  1  0  0  0  0
 39 81  2  0  0  0  0
 40 43  1  0  0  0  0
 41 50  1  0  0  0  0
 42 67  1  0  0  0  0
 43 45  1  0  0  0  0
 44 46  1  0  0  0  0
 44 47  1  0  0  0  0
 45 49  1  0  0  0  0
 46 51  1  0  0  0  0
 47 68  1  0  0  0  0
 48 51  1  0  0  0  0
 48 68  1  0  0  0  0
 49 71  1  0  0  0  0
 50 67  1  0  0  0  0
 51 66  1  0  0  0  0
 52 60  1  0  0  0  0
 53 63  1  0  0  0  0
 54 64  1  0  0  0  0
 55 64  1  0  0  0  0
 56 64  1  0  0  0  0
 57 74  1  0  0  0  0
 58 75  1  0  0  0  0
 59 61  1  0  0  0  0
 60 73  1  0  0  0  0
 61 83  1  0  0  0  0
 62 64  1  0  0  0  0
 62 72  1  0  0  0  0
 63 75  1  0  0  0  0
 65 66  1  0  0  0  0
M  CHG  1  75   1
M  ISO  4  39 100  61 101  74 100  83 101
M  END
> <Batch ID>
0016

> <Smiles>
CCN(C(=O)C[101CH2:1][101O:1]c1ccc2c(c1)CN(C(=O)C(NC(=O)C(C)NC)C(C)(C)C)C(C(=O)NC1CCCc3ccccc31)C2)c1cc(Cl)c([100N:0](C)[100C:0](=O)N2CCCC(n3nc(-c4ccc(Oc5ccc(F)cc5F)cc4)c(C(N)=O)c3N)C2)cc1Cl

> <Shape>
0.309

> <Color>
0.103

> <Negative vol penalty>
0.000

$$$$

  -OEChem-04042320573D

 86 94  0     1  0  0  0  0  0999 V2000
  -35.3942  -33.8754   24.2034 C   0  0  0  0  0  0  0  0  0  0  0  0
  -34.4060  -33.2449   23.4543 C   0  0  0  0  0  0  0  0  0  0  0  0
  -23.0461   -9.8672   19.9996 C   0  0  0  0  0  0  0  0  0  0  0  0
  -23.7791   -9.9722   22.2993 C   0  0  0  0  0  0  0  0  0  0  0  0
  -36.4335  -33.1271   24.7547 C   0  0  0  0  0  0  0  0  0  0  0  0
  -34.4571  -31.8658   23.2550 C   0  0  0  0  0  0  0  0  0  0  0  0
  -29.7035  -28.0252   22.8553 C   0  0  0  0  0  0  0  0  0  0  0  0
  -29.2750  -18.9277   20.8936 C   0  0  0  0  0  0  0  0  0  0  0  0
  -28.9387  -19.7945   23.1235 C   0  0  0  0  0  0  0  0  0  0  0  0
  -28.4148  -19.9011   20.3855 C   0  0  0  0  0  0  0  0  0  0  0  0
  -28.0785  -20.7679   22.6154 C   0  0  0  0  0  0  0  0  0  0  0  0
  -22.3051   -8.7213   20.2881 C   0  0  0  0  0  0  0  0  0  0  0  0
  -23.0380   -8.8263   22.5878 C   0  0  0  0  0  0  0  0  0  0  0  0
  -29.0405  -27.4635   21.7650 C   0  0  0  0  0  0  0  0  0  0  0  0
  -23.3519   -5.4859   22.1706 C   0  0  0  0  0  0  0  0  0  0  0  0
  -23.9640   -4.4942   22.9371 C   0  0  0  0  0  0  0  0  0  0  0  0
  -30.3942  -25.4777   21.9724 C   0  0  0  0  0  0  0  0  0  0  0  0
  -22.2419   -4.7283   24.6154 C   0  0  0  0  0  0  0  0  0  0  0  0
  -23.7832  -10.4927   21.0052 C   0  0  0  0  0  0  0  0  0  0  0  0
  -24.1139  -13.0126   20.7856 C   0  0  0  0  0  0  0  0  0  0  0  0
  -36.4921  -31.7368   24.5701 C   0  0  0  0  0  0  0  0  0  0  0  0
  -30.7261  -27.3204   23.5067 C   0  0  0  0  0  0  0  0  0  0  0  0
  -35.4988  -31.0983   23.8031 C   0  0  0  0  0  0  0  0  0  0  0  0
  -31.0669  -26.0315   23.0724 C   0  0  0  0  0  0  0  0  0  0  0  0
  -29.5369  -18.8744   22.2626 C   0  0  0  0  0  0  0  0  0  0  0  0
  -27.8165  -20.8212   21.2464 C   0  0  0  0  0  0  0  0  0  0  0  0
  -22.3010   -8.2008   21.5822 C   0  0  0  0  0  0  0  0  0  0  0  0
  -29.3878  -26.1908   21.3216 C   0  0  0  0  0  0  0  0  0  0  0  0
  -22.1848   -6.0989   22.6266 C   0  0  0  0  0  0  0  0  0  0  0  0
  -23.4090   -4.1154   24.1594 C   0  0  0  0  0  0  0  0  0  0  0  0
  -21.6298   -5.7201   23.8489 C   0  0  0  0  0  0  0  0  0  0  0  0
  -24.5493  -11.6762   20.7076 C   0  0  0  0  0  0  0  0  0  0  0  0
  -25.2065  -13.7525   20.4044 C   0  0  0  0  0  0  0  0  0  0  0  0
  -22.8361  -13.5383   21.1684 C   0  0  0  0  0  0  0  0  0  0  0  0
  -33.8298  -27.8071   23.9899 C   0  0  0  0  0  0  0  0  0  0  0  0
  -30.7026  -14.7458   20.7135 C   0  0  0  0  0  0  0  0  0  0  0  0
  -33.5608  -25.1534   25.8360 C   0  0  0  0  0  0  0  0  0  0  0  0
  -31.8691  -22.2749   26.5426 C   0  0  0  0  0  0  0  0  0  0  0  0
  -37.6606  -30.9767   25.1458 C   0  0  0  0  0  0  0  0  0  0  0  0
  -31.4133  -27.9294   24.6980 C   0  0  0  0  0  0  0  0  0  0  0  0
  -32.1437  -25.2253   23.7499 C   0  0  0  0  0  0  0  0  0  0  0  0
  -37.4374  -29.4676   25.2022 C   0  0  0  0  0  0  0  0  0  0  0  0
  -29.5783  -12.3428   18.3049 C   0  0  0  0  0  0  0  0  0  0  0  0
  -36.8689  -28.9622   23.8801 C   0  0  0  0  0  0  0  0  0  0  0  0
  -28.1445  -12.0425   18.7397 C   0  0  0  0  0  0  0  0  0  0  0  0
  -30.4838  -12.5994   19.5055 C   0  0  0  0  0  0  0  0  0  0  0  0
  -28.5606  -13.3805   20.8520 C   0  0  0  0  0  0  0  0  0  0  0  0
  -35.5061  -29.6008   23.5855 C   0  0  1  0  0  0  0  0  0  0  0  0
  -32.7905  -27.3297   24.9644 C   0  0  1  0  0  0  0  0  0  0  0  0
  -27.6059  -13.1455   19.6681 C   0  0  2  0  0  0  0  0  0  0  0  0
  -31.9093  -20.2937   28.0822 C   0  0  0  0  0  0  0  0  0  0  0  0
  -25.8865  -22.0057   18.5760 C   0  0  0  0  0  0  0  0  0  0  0  0
  -35.8621  -23.9553   24.2301 C   0  0  0  0  0  0  0  0  0  0  0  0
  -35.2332  -21.7082   25.1372 C   0  0  0  0  0  0  0  0  0  0  0  0
  -35.9674  -23.5171   26.6901 C   0  0  0  0  0  0  0  0  0  0  0  0
  -30.6844  -17.8247   24.1969 C   0  0  0  0  0  0  0  0  0  0  0  0
  -25.8577  -22.3137   21.5558 C   0  0  0  0  0  0  0  0  0  0  0  0
  -29.2150  -22.9476   27.6661 C   0  0  0  0  0  0  0  0  0  0  0  0
  -30.0587  -15.7743   21.6088 C   0  0  0  0  0  0  0  0  0  0  0  0
  -27.3578  -23.8451   19.4688 C   0  0  0  0  0  0  0  0  0  0  0  0
  -31.0196  -16.9189   21.8914 C   0  0  0  0  0  0  0  0  0  0  0  0
  -28.6232  -24.2187   20.2342 C   0  0  0  0  0  0  0  0  0  1  0  0
  -33.6918  -23.6683   25.5988 C   0  0  1  0  0  0  0  0  0  0  0  0
  -31.3687  -21.6967   27.8540 C   0  0  2  0  0  0  0  0  0  0  0  0
  -27.1266  -22.3322   19.4022 C   0  0  1  0  0  0  0  0  0  0  0  0
  -35.1696  -23.2279   25.3999 C   0  0  0  0  0  0  0  0  0  0  0  0
  -25.8194  -11.5701   20.3082 N   0  0  0  0  0  0  0  0  0  0  0  0
  -26.1915  -12.8494   20.1316 N   0  0  0  0  0  0  0  0  0  0  0  0
  -32.7908  -25.8666   24.9064 N   0  0  0  0  0  0  0  0  0  0  0  0
  -29.9263  -13.6375   20.3743 N   0  0  0  0  0  0  0  0  0  0  0  0
  -25.4111  -15.0810   20.2793 N   0  0  0  0  0  0  0  0  0  0  0  0
  -21.8248  -12.6382   21.5311 N   0  0  0  0  0  0  0  0  0  0  0  0
  -34.4707  -28.9691   24.3751 N   0  0  0  0  0  0  0  0  0  0  0  0
  -33.0191  -23.0155   26.7167 N   0  0  0  0  0  0  0  0  0  0  0  0
  -30.4056  -17.8889   22.7762 N   0  0  3  0  0  0  0  0  0  0  0  0
  -26.9534  -21.7982   20.7370 N   0  0  3  0  0  0  0  0  0  0  0  0
  -29.8798  -21.6329   27.8574 N   0  3  0  0  0  0  0  0  0  0  0  0
  -22.5931  -14.7689   21.1725 O   0  0  0  0  0  0  0  0  0  0  0  0
  -34.0361  -27.1676   22.9651 O   0  0  0  0  0  0  0  0  0  0  0  0
  -31.8601  -14.9253   20.3258 O   0  0  0  0  0  0  0  0  0  0  0  0
  -34.1153  -25.6608   26.8141 O   0  0  0  0  0  0  0  0  0  0  0  0
  -31.2990  -22.0854   25.4704 O   0  0  0  0  0  0  0  0  0  0  0  0
  -21.5778   -7.0827   21.8642 O   0  0  0  0  0  0  0  0  0  0  0  0
  -28.7426  -25.6405   20.2572 O   0  0  0  0  0  0  0  0  0  1  0  0
  -23.9961   -3.1620   24.8946 F   0  0  0  0  0  0  0  0  0  0  0  0
  -20.5081   -6.3046   24.2917 F   0  0  0  0  0  0  0  0  0  0  0  0
  1  2  1  0  0  0  0
  1  5  2  0  0  0  0
  2  6  2  0  0  0  0
  3 12  2  0  0  0  0
  3 19  1  0  0  0  0
  4 13  1  0  0  0  0
  4 19  2  0  0  0  0
  5 21  1  0  0  0  0
  6 23  1  0  0  0  0
  7 14  2  0  0  0  0
  7 22  1  0  0  0  0
  8 10  2  0  0  0  0
  8 25  1  0  0  0  0
  9 11  1  0  0  0  0
  9 25  2  0  0  0  0
 10 26  1  0  0  0  0
 11 26  2  0  0  0  0
 12 27  1  0  0  0  0
 13 27  2  0  0  0  0
 14 28  1  0  0  0  0
 15 16  2  0  0  0  0
 15 29  1  0  0  0  0
 16 30  1  0  0  0  0
 17 24  1  0  0  0  0
 17 28  2  0  0  0  0
 18 30  2  0  0  0  0
 18 31  1  0  0  0  0
 19 32  1  0  0  0  0
 20 32  1  0  0  0  0
 20 33  2  0  0  0  0
 20 34  1  0  0  0  0
 21 23  2  0  0  0  0
 21 39  1  0  0  0  0
 22 24  2  0  0  0  0
 22 40  1  0  0  0  0
 23 48  1  0  0  0  0
 24 41  1  0  0  0  0
 25 75  1  0  0  0  0
 26 76  1  0  0  0  0
 27 83  1  0  0  0  0
 28 84  1  0  0  0  0
 29 31  2  0  0  0  0
 29 83  1  0  0  0  0
 30 85  1  0  0  0  0
 31 86  1  0  0  0  0
 32 67  2  0  0  0  0
 33 68  1  0  0  0  0
 33 71  1  0  0  0  0
 34 72  1  0  0  0  0
 34 78  2  0  0  0  0
 35 49  1  0  0  0  0
 35 73  1  0  0  0  0
 35 79  2  0  0  0  0
 36 59  1  0  0  0  0
 36 70  1  0  0  0  0
 36 80  2  0  0  0  0
 37 63  1  0  0  0  0
 37 69  1  0  0  0  0
 37 81  2  0  0  0  0
 38 64  1  0  0  0  0
 38 74  1  0  0  0  0
 38 82  2  0  0  0  0
 39 42  1  0  0  0  0
 40 49  1  0  0  0  0
 41 69  1  0  0  0  0
 42 44  1  0  0  0  0
 43 45  1  0  0  0  0
 43 46  1  0  0  0  0
 44 48  1  0  0  0  0
 45 50  1  0  0  0  0
 46 70  1  0  0  0  0
 47 50  1  0  0  0  0
 47 70  1  0  0  0  0
 48 73  1  0  0  0  0
 49 69  1  0  0  0  0
 50 68  1  0  0  0  0
 51 64  1  0  0  0  0
 52 65  1  0  0  0  0
 53 66  1  0  0  0  0
 54 66  1  0  0  0  0
 55 66  1  0  0  0  0
 56 75  1  0  0  0  0
 57 76  1  0  0  0  0
 58 77  1  0  0  0  0
 59 61  1  0  0  0  0
 60 62  1  0  0  0  0
 60 65  1  0  0  0  0
 61 75  1  0  0  0  0
 62 84  1  0  0  0  0
 63 66  1  0  0  0  0
 63 74  1  0  0  0  0
 64 77  1  0  0  0  0
 65 76  1  0  0  0  0
 67 68  1  0  0  0  0
M  CHG  1  77   1
M  ISO  4  36 100  59 100  62 101  84 101
M  END
> <Batch ID>
0016

> <Smiles>
CNC(C)C(=O)NC(C(=O)N1Cc2cc([101O:1][101CH2:1]CC(C)N(C)c3ccc(N(C)C[100CH2:0][100C:0](=O)N4CCCC(n5nc(-c6ccc(Oc7ccc(F)cc7F)cc6)c(C(N)=O)c5N)C4)cc3)ccc2CC1C(=O)NC1CCCc2ccccc21)C(C)(C)C

> <Shape>
0.220

> <Color>
0.215

> <Negative vol penalty>
0.000

$$$$

  -OEChem-04042320573D

 87 95  0     1  0  0  0  0  0999 V2000
  -30.8068  -35.8670   19.5944 C   0  0  0  0  0  0  0  0  0  0  0  0
  -30.7095  -34.4920   19.7823 C   0  0  0  0  0  0  0  0  0  0  0  0
  -23.2253   -9.7333   19.8933 C   0  0  0  0  0  0  0  0  0  0  0  0
  -24.1529   -9.6947   22.1238 C   0  0  0  0  0  0  0  0  0  0  0  0
  -29.9588  -36.7265   20.2915 C   0  0  0  0  0  0  0  0  0  0  0  0
  -29.7646  -33.9758   20.6684 C   0  0  0  0  0  0  0  0  0  0  0  0
  -27.2824  -29.9957   18.7600 C   0  0  0  0  0  0  0  0  0  0  0  0
  -28.5063  -19.1256   20.8580 C   0  0  0  0  0  0  0  0  0  0  0  0
  -28.5974  -20.3904   20.2771 C   0  0  0  0  0  0  0  0  0  0  0  0
  -22.6044   -8.5070   20.1302 C   0  0  0  0  0  0  0  0  0  0  0  0
  -23.5319   -8.4684   22.3608 C   0  0  0  0  0  0  0  0  0  0  0  0
  -27.9460  -28.7695   18.7645 C   0  0  0  0  0  0  0  0  0  0  0  0
  -20.4391   -7.3548   23.1449 C   0  0  0  0  0  0  0  0  0  0  0  0
  -19.7790   -7.1889   24.3624 C   0  0  0  0  0  0  0  0  0  0  0  0
  -26.7193  -28.1197   20.7374 C   0  0  0  0  0  0  0  0  0  0  0  0
  -29.4010  -18.1360   18.8438 C   0  0  0  0  0  0  0  0  0  0  0  0
  -21.2345   -5.3367   24.8992 C   0  0  0  0  0  0  0  0  0  0  0  0
  -23.9996  -10.3272   20.8900 C   0  0  0  0  0  0  0  0  0  0  0  0
  -24.1130  -12.8757   20.8880 C   0  0  0  0  0  0  0  0  0  0  0  0
  -28.9966  -36.2200   21.1794 C   0  0  0  0  0  0  0  0  0  0  0  0
  -26.3386  -30.2979   19.7522 C   0  0  0  0  0  0  0  0  0  0  0  0
  -28.9038  -34.8293   21.3791 C   0  0  0  0  0  0  0  0  0  0  0  0
  -26.0433  -29.3494   20.7418 C   0  0  0  0  0  0  0  0  0  0  0  0
  -28.9082  -17.9983   20.1414 C   0  0  0  0  0  0  0  0  0  0  0  0
  -29.0902  -20.5281   18.9795 C   0  0  0  0  0  0  0  0  0  0  0  0
  -22.7576   -7.8746   21.3640 C   0  0  0  0  0  0  0  0  0  0  0  0
  -27.6666  -27.8325   19.7549 C   0  0  0  0  0  0  0  0  0  0  0  0
  -21.4969   -6.5116   22.8045 C   0  0  0  0  0  0  0  0  0  0  0  0
  -20.1768   -6.1799   25.2396 C   0  0  0  0  0  0  0  0  0  0  0  0
  -21.8946   -5.5026   23.6816 C   0  0  0  0  0  0  0  0  0  0  0  0
  -29.4921  -19.4008   18.2628 C   0  0  0  0  0  0  0  0  0  0  0  0
  -24.6418  -11.5937   20.6457 C   0  0  0  0  0  0  0  0  0  0  0  0
  -25.1061  -13.7374   20.4908 C   0  0  0  0  0  0  0  0  0  0  0  0
  -22.8382  -13.2538   21.4242 C   0  0  0  0  0  0  0  0  0  0  0  0
  -26.1015  -32.5088   22.0235 C   0  0  0  0  0  0  0  0  0  0  0  0
  -23.1634  -31.2009   22.4467 C   0  0  0  0  0  0  0  0  0  0  0  0
  -29.5438  -23.9476   19.7977 C   0  0  0  0  0  0  0  0  0  0  0  0
  -21.1211  -28.4894   22.0948 C   0  0  0  0  0  0  0  0  0  0  0  0
  -30.6606  -14.9196   20.7489 C   0  0  0  0  0  0  0  0  0  0  0  0
  -28.1338  -37.1908   21.9460 C   0  0  0  0  0  0  0  0  0  0  0  0
  -25.6120  -31.6144   19.7178 C   0  0  0  0  0  0  0  0  0  0  0  0
  -25.0238  -29.6170   21.8176 C   0  0  0  0  0  0  0  0  0  0  0  0
  -26.9078  -36.5433   22.5847 C   0  0  0  0  0  0  0  0  0  0  0  0
  -29.3720  -12.9117   17.9188 C   0  0  0  0  0  0  0  0  0  0  0  0
  -27.2968  -35.2525   23.2985 C   0  0  0  0  0  0  0  0  0  0  0  0
  -28.0133  -12.4415   18.4354 C   0  0  0  0  0  0  0  0  0  0  0  0
  -30.3605  -13.1483   19.0566 C   0  0  0  0  0  0  0  0  0  0  0  0
  -28.5022  -13.6089   20.6214 C   0  0  0  0  0  0  0  0  0  0  0  0
  -27.8750  -34.2298   22.3131 C   0  0  1  0  0  0  0  0  0  0  0  0
  -25.0443  -32.0191   21.0748 C   0  0  1  0  0  0  0  0  0  0  0  0
  -27.4687  -13.4060   19.5033 C   0  0  2  0  0  0  0  0  0  0  0  0
  -18.7835  -27.7093   22.5682 C   0  0  0  0  0  0  0  0  0  0  0  0
  -23.8752  -30.8647   25.3946 C   0  0  0  0  0  0  0  0  0  0  0  0
  -21.9598  -29.2660   25.6029 C   0  0  0  0  0  0  0  0  0  0  0  0
  -21.5364  -31.6409   24.9681 C   0  0  0  0  0  0  0  0  0  0  0  0
  -31.4220  -22.3756   19.2763 C   0  0  0  0  0  0  0  0  0  0  0  0
  -30.9661  -17.0907   21.8769 C   0  0  0  0  0  0  0  0  0  0  0  0
  -20.5624  -28.0484   19.2221 C   0  0  0  0  0  0  0  0  0  0  0  0
  -28.8107  -16.6459   20.7624 C   0  0  0  0  0  0  0  0  0  0  0  0
  -29.1713  -21.9066   18.3902 C   0  0  0  0  0  0  0  0  0  0  0  0
  -28.0607  -24.2443   19.6015 C   0  0  0  0  0  0  0  0  0  0  0  0
  -27.6074  -25.5189   20.3023 C   0  0  0  0  0  0  0  0  0  1  0  0
  -22.6032  -30.0804   23.2891 C   0  0  1  0  0  0  0  0  0  0  0  0
  -19.7106  -28.3547   21.5501 C   0  0  2  0  0  0  0  0  0  0  0  0
  -22.5143  -30.4584   24.7947 C   0  0  0  0  0  0  0  0  0  0  0  0
  -25.8750  -11.6328   20.1341 N   0  0  0  0  0  0  0  0  0  0  0  0
  -26.1293  -12.9498   20.0515 N   0  0  0  0  0  0  0  0  0  0  0  0
  -24.3446  -30.9212   21.7449 N   0  0  0  0  0  0  0  0  0  0  0  0
  -29.8012  -14.0338   20.0785 N   0  0  0  0  0  0  0  0  0  0  0  0
  -25.1951  -15.0844   20.4779 N   0  0  0  0  0  0  0  0  0  0  0  0
  -21.9366  -12.2417   21.7808 N   0  0  0  0  0  0  0  0  0  0  0  0
  -26.8134  -33.5983   21.5590 N   0  0  0  0  0  0  0  0  0  0  0  0
  -21.3245  -29.7175   22.6877 N   0  0  0  0  0  0  0  0  0  0  0  0
  -30.0275  -22.7892   19.1795 N   0  0  0  0  0  0  0  0  0  0  0  0
  -30.1120  -16.1344   21.1870 N   0  0  0  0  0  0  0  0  0  0  0  0
  -19.7093  -27.5182   20.3167 N   0  3  0  0  0  0  0  0  0  0  0  0
  -22.5020  -14.4538   21.5671 O   0  0  0  0  0  0  0  0  0  0  0  0
  -26.2587  -31.9412   23.0982 O   0  0  0  0  0  0  0  0  0  0  0  0
  -22.5708  -32.2820   22.4068 O   0  0  0  0  0  0  0  0  0  0  0  0
  -30.2515  -24.7044   20.4676 O   0  0  0  0  0  0  0  0  0  0  0  0
  -21.9576  -27.5933   22.0067 O   0  0  0  0  0  0  0  0  0  0  0  0
  -31.8528  -14.6446   20.9363 O   0  0  0  0  0  0  0  0  0  0  0  0
  -22.1517   -6.6780   21.5957 O   0  0  0  0  0  0  0  0  0  0  0  0
  -28.3133  -26.6352   19.7620 O   0  0  0  0  0  0  0  0  0  1  0  0
  -19.5438   -6.0217   26.4094 F   0  0  0  0  0  0  0  0  0  0  0  0
  -22.9108   -4.6902   23.3606 F   0  0  0  0  0  0  0  0  0  0  0  0
  -30.1058  -19.5328   16.6549 Cl  0  0  0  0  0  0  0  0  0  0  0  0
  1  2  1  0  0  0  0
  1  5  2  0  0  0  0
  2  6  2  0  0  0  0
  3 10  2  0  0  0  0
  3 18  1  0  0  0  0
  4 11  1  0  0  0  0
  4 18  2  0  0  0  0
  5 20  1  0  0  0  0
  6 22  1  0  0  0  0
  7 12  2  0  0  0  0
  7 21  1  0  0  0  0
  8  9  2  0  0  0  0
  8 24  1  0  0  0  0
  9 25  1  0  0  0  0
 10 26  1  0  0  0  0
 11 26  2  0  0  0  0
 12 27  1  0  0  0  0
 13 14  2  0  0  0  0
 13 28  1  0  0  0  0
 14 29  1  0  0  0  0
 15 23  1  0  0  0  0
 15 27  2  0  0  0  0
 16 24  2  0  0  0  0
 16 31  1  0  0  0  0
 17 29  2  0  0  0  0
 17 30  1  0  0  0  0
 18 32  1  0  0  0  0
 19 32  1  0  0  0  0
 19 33  2  0  0  0  0
 19 34  1  0  0  0  0
 20 22  2  0  0  0  0
 20 40  1  0  0  0  0
 21 23  2  0  0  0  0
 21 41  1  0  0  0  0
 22 49  1  0  0  0  0
 23 42  1  0  0  0  0
 24 59  1  0  0  0  0
 25 31  2  0  0  0  0
 25 60  1  0  0  0  0
 26 83  1  0  0  0  0
 27 84  1  0  0  0  0
 28 30  2  0  0  0  0
 28 83  1  0  0  0  0
 29 85  1  0  0  0  0
 30 86  1  0  0  0  0
 31 87  1  0  0  0  0
 32 66  2  0  0  0  0
 33 67  1  0  0  0  0
 33 70  1  0  0  0  0
 34 71  1  0  0  0  0
 34 77  2  0  0  0  0
 35 50  1  0  0  0  0
 35 72  1  0  0  0  0
 35 78  2  0  0  0  0
 36 63  1  0  0  0  0
 36 68  1  0  0  0  0
 36 79  2  0  0  0  0
 37 61  1  0  0  0  0
 37 74  1  0  0  0  0
 37 80  2  0  0  0  0
 38 64  1  0  0  0  0
 38 73  1  0  0  0  0
 38 81  2  0  0  0  0
 39 69  1  0  0  0  0
 39 75  1  0  0  0  0
 39 82  2  0  0  0  0
 40 43  1  0  0  0  0
 41 50  1  0  0  0  0
 42 68  1  0  0  0  0
 43 45  1  0  0  0  0
 44 46  1  0  0  0  0
 44 47  1  0  0  0  0
 45 49  1  0  0  0  0
 46 51  1  0  0  0  0
 47 69  1  0  0  0  0
 48 51  1  0  0  0  0
 48 69  1  0  0  0  0
 49 72  1  0  0  0  0
 50 68  1  0  0  0  0
 51 67  1  0  0  0  0
 52 64  1  0  0  0  0
 53 65  1  0  0  0  0
 54 65  1  0  0  0  0
 55 65  1  0  0  0  0
 56 74  1  0  0  0  0
 57 75  1  0  0  0  0
 58 76  1  0  0  0  0
 59 75  1  0  0  0  0
 60 74  1  0  0  0  0
 61 62  1  0  0  0  0
 62 84  1  0  0  0  0
 63 65  1  0  0  0  0
 63 73  1  0  0  0  0
 64 76  1  0  0  0  0
 66 67  1  0  0  0  0
M  CHG  1  76   1
M  ISO  4  39 100  62 101  75 100  84 101
M  END
> <Batch ID>
0016

> <Smiles>
CNC(C)C(=O)NC(C(=O)N1Cc2cc([101O:1][101CH2:1]CC(=O)N(C)Cc3ccc(C[100N:0](C)[100C:0](=O)N4CCCC(n5nc(-c6ccc(Oc7ccc(F)cc7F)cc6)c(C(N)=O)c5N)C4)cc3Cl)ccc2CC1C(=O)NC1CCCc2ccccc21)C(C)(C)C

> <Shape>
0.393

> <Color>
0.236

> <Negative vol penalty>
0.000

$$$$

  -OEChem-04042320573D

 87 96  0     1  0  0  0  0  0999 V2000
  -27.7192   -8.1117   13.9809 C   0  0  0  0  0  0  0  0  0  0  0  0
  -28.3527   -9.0584   14.7795 C   0  0  0  0  0  0  0  0  0  0  0  0
  -22.2057  -28.7531   23.1847 C   0  0  0  0  0  0  0  0  0  0  0  0
  -21.7046  -28.3190   20.8614 C   0  0  0  0  0  0  0  0  0  0  0  0
  -26.3447   -8.1935   13.7619 C   0  0  0  0  0  0  0  0  0  0  0  0
  -27.6121  -10.0883   15.3587 C   0  0  0  0  0  0  0  0  0  0  0  0
  -28.5584  -12.6782   20.8270 C   0  0  0  0  0  0  0  0  0  0  0  0
  -29.2829  -23.8502   19.3387 C   0  0  0  0  0  0  0  0  0  0  0  0
  -29.2126  -22.5256   19.7699 C   0  0  0  0  0  0  0  0  0  0  0  0
  -21.0277  -28.1071   23.5595 C   0  0  0  0  0  0  0  0  0  0  0  0
  -20.5266  -27.6730   21.2362 C   0  0  0  0  0  0  0  0  0  0  0  0
  -29.2005  -13.8554   21.2088 C   0  0  0  0  0  0  0  0  0  0  0  0
  -17.7254  -28.8187   23.6744 C   0  0  0  0  0  0  0  0  0  0  0  0
  -16.9282  -29.4346   24.6391 C   0  0  0  0  0  0  0  0  0  0  0  0
  -27.0759  -14.9975   21.2384 C   0  0  0  0  0  0  0  0  0  0  0  0
  -31.5130  -23.4576   18.4962 C   0  0  0  0  0  0  0  0  0  0  0  0
  -17.1733  -27.5057   26.0732 C   0  0  0  0  0  0  0  0  0  0  0  0
  -22.5442  -28.8591   21.8356 C   0  0  0  0  0  0  0  0  0  0  0  0
  -24.1149  -30.8649   21.7042 C   0  0  0  0  0  0  0  0  0  0  0  0
  -25.5853   -9.2193   14.3465 C   0  0  0  0  0  0  0  0  0  0  0  0
  -27.1693  -12.6545   20.6371 C   0  0  0  0  0  0  0  0  0  0  0  0
  -26.2264  -10.1847   15.1462 C   0  0  0  0  0  0  0  0  0  0  0  0
  -26.4183  -13.8181   20.8567 C   0  0  0  0  0  0  0  0  0  0  0  0
  -30.4331  -24.3163   18.7018 C   0  0  0  0  0  0  0  0  0  0  0  0
  -30.2925  -21.6669   19.5642 C   0  0  0  0  0  0  0  0  0  0  0  0
  -20.1881  -27.5671   22.5853 C   0  0  0  0  0  0  0  0  0  0  0  0
  -28.4596  -15.0160   21.4118 C   0  0  0  0  0  0  0  0  0  0  0  0
  -18.2466  -27.5462   23.9091 C   0  0  0  0  0  0  0  0  0  0  0  0
  -16.6521  -28.7782   25.8385 C   0  0  0  0  0  0  0  0  0  0  0  0
  -31.4427  -22.1329   18.9274 C   0  0  0  0  0  0  0  0  0  0  0  0
  -17.9706  -26.8898   25.1085 C   0  0  0  0  0  0  0  0  0  0  0  0
  -23.7607  -29.5268   21.4478 C   0  0  0  0  0  0  0  0  0  0  0  0
  -25.3565  -31.0067   21.1343 C   0  0  0  0  0  0  0  0  0  0  0  0
  -23.3868  -31.8882   22.3959 C   0  0  0  0  0  0  0  0  0  0  0  0
  -25.2522  -12.0727   18.1693 C   0  0  0  0  0  0  0  0  0  0  0  0
  -22.9269  -12.3194   20.4175 C   0  0  0  0  0  0  0  0  0  0  0  0
  -21.9455  -13.5433   23.4483 C   0  0  0  0  0  0  0  0  0  0  0  0
  -29.6923  -27.3187   20.0360 C   0  0  0  0  0  0  0  0  0  0  0  0
  -24.1100   -9.2939   14.0424 C   0  0  0  0  0  0  0  0  0  0  0  0
  -26.4884  -11.3700   20.2511 C   0  0  0  0  0  0  0  0  0  0  0  0
  -24.9220  -13.8403   20.6858 C   0  0  0  0  0  0  0  0  0  0  0  0
  -23.3363  -10.1995   14.9971 C   0  0  0  0  0  0  0  0  0  0  0  0
  -28.0813  -29.3046   17.6003 C   0  0  0  0  0  0  0  0  0  0  0  0
  -24.0695  -11.5233   15.1891 C   0  0  0  0  0  0  0  0  0  0  0  0
  -26.8080  -29.7152   18.3385 C   0  0  0  0  0  0  0  0  0  0  0  0
  -30.6408  -18.0482   20.1753 C   0  0  0  0  0  0  0  0  0  0  0  0
  -28.4638  -27.8499   17.8796 C   0  0  0  0  0  0  0  0  0  0  0  0
  -31.2949  -19.3827   19.8235 C   0  0  0  0  0  0  0  0  0  0  0  0
  -29.0580  -19.7766   20.6592 C   0  0  0  0  0  0  0  0  0  0  0  0
  -27.2941  -27.9355   20.0584 C   0  0  0  0  0  0  0  0  0  0  0  0
  -25.4533  -11.3023   15.8120 C   0  0  1  0  0  0  0  0  0  0  0  0
  -25.1327  -11.5886   19.5867 C   0  0  1  0  0  0  0  0  0  0  0  0
  -29.5787  -18.4396   21.1986 C   0  0  1  0  0  0  0  0  0  0  0  0
  -26.9213  -29.4103   19.8422 C   0  0  2  0  0  0  0  0  0  0  0  0
  -32.3009  -25.4870   20.8184 C   0  0  0  0  0  0  0  0  0  0  0  0
  -19.9755  -13.6106   25.0014 C   0  0  0  0  0  0  0  0  0  0  0  0
  -21.5878  -14.3939   18.6250 C   0  0  0  0  0  0  0  0  0  0  0  0
  -20.2049  -15.0970   20.5901 C   0  0  0  0  0  0  0  0  0  0  0  0
  -20.0152  -12.7741   19.7009 C   0  0  0  0  0  0  0  0  0  0  0  0
  -23.4437  -12.1631   25.5953 C   0  0  0  0  0  0  0  0  0  0  0  0
  -30.5082  -25.7325   18.2407 C   0  0  0  0  0  0  0  0  0  0  0  0
  -28.4900  -17.3935   21.3618 C   0  0  0  0  0  0  0  0  0  1  0  0
  -32.0681  -26.6731   19.9045 C   0  0  0  0  0  0  0  0  0  0  0  0
  -22.0931  -13.4483   20.9737 C   0  0  1  0  0  0  0  0  0  0  0  0
  -21.2558  -12.8802   24.6269 C   0  0  2  0  0  0  0  0  0  0  0  0
  -21.0037  -13.9287   19.9739 C   0  0  0  0  0  0  0  0  0  0  0  0
  -24.7012  -28.8657   20.7677 N   0  0  0  0  0  0  0  0  0  0  0  0
  -25.6586  -29.7923   20.5919 N   0  0  0  0  0  0  0  0  0  0  0  0
  -30.2206  -20.3580   19.9914 N   0  0  3  0  0  0  0  0  0  0  0  0
  -24.3032  -12.5609   20.3014 N   0  0  0  0  0  0  0  0  0  0  0  0
  -28.5142  -27.5900   19.3249 N   0  0  0  0  0  0  0  0  0  0  0  0
  -26.2084  -32.0505   21.0491 N   0  0  0  0  0  0  0  0  0  0  0  0
  -22.5215  -32.7075   21.6580 N   0  0  0  0  0  0  0  0  0  0  0  0
  -25.3345  -11.0591   17.2337 N   0  0  0  0  0  0  0  0  0  0  0  0
  -21.5665  -12.9764   22.2499 N   0  0  0  0  0  0  0  0  0  0  0  0
  -30.7239  -26.6658   19.3447 N   0  0  0  0  0  0  0  0  0  0  0  0
  -22.1556  -12.8700   25.8149 N   0  3  0  0  0  0  0  0  0  0  0  0
  -23.5124  -32.0813   23.6289 O   0  0  0  0  0  0  0  0  0  0  0  0
  -25.2671  -13.2766   17.9412 O   0  0  0  0  0  0  0  0  0  0  0  0
  -22.3785  -11.2598   20.1045 O   0  0  0  0  0  0  0  0  0  0  0  0
  -22.7381  -14.4736   23.5776 O   0  0  0  0  0  0  0  0  0  0  0  0
  -29.8144  -27.6349   21.2265 O   0  0  0  0  0  0  0  0  0  0  0  0
  -19.0386  -26.9364   22.9507 O   0  0  0  0  0  0  0  0  0  0  0  0
  -29.0838  -16.1665   21.7839 O   0  0  0  0  0  0  0  0  0  1  0  0
  -15.8878  -29.3704   26.7654 F   0  0  0  0  0  0  0  0  0  0  0  0
  -32.4863  -21.3163   18.7245 F   0  0  0  0  0  0  0  0  0  0  0  0
  -18.4694  -25.6678   25.3401 F   0  0  0  0  0  0  0  0  0  0  0  0
  1  2  1  0  0  0  0
  1  5  2  0  0  0  0
  2  6  2  0  0  0  0
  3 10  2  0  0  0  0
  3 18  1  0  0  0  0
  4 11  1  0  0  0  0
  4 18  2  0  0  0  0
  5 20  1  0  0  0  0
  6 22  1  0  0  0  0
  7 12  2  0  0  0  0
  7 21  1  0  0  0  0
  8  9  2  0  0  0  0
  8 24  1  0  0  0  0
  9 25  1  0  0  0  0
 10 26  1  0  0  0  0
 11 26  2  0  0  0  0
 12 27  1  0  0  0  0
 13 14  2  0  0  0  0
 13 28  1  0  0  0  0
 14 29  1  0  0  0  0
 15 23  1  0  0  0  0
 15 27  2  0  0  0  0
 16 24  2  0  0  0  0
 16 30  1  0  0  0  0
 17 29  2  0  0  0  0
 17 31  1  0  0  0  0
 18 32  1  0  0  0  0
 19 32  1  0  0  0  0
 19 33  2  0  0  0  0
 19 34  1  0  0  0  0
 20 22  2  0  0  0  0
 20 39  1  0  0  0  0
 21 23  2  0  0  0  0
 21 40  1  0  0  0  0
 22 51  1  0  0  0  0
 23 41  1  0  0  0  0
 24 61  1  0  0  0  0
 25 30  2  0  0  0  0
 25 69  1  0  0  0  0
 26 83  1  0  0  0  0
 27 84  1  0  0  0  0
 28 31  2  0  0  0  0
 28 83  1  0  0  0  0
 29 85  1  0  0  0  0
 30 86  1  0  0  0  0
 31 87  1  0  0  0  0
 32 67  2  0  0  0  0
 33 68  1  0  0  0  0
 33 72  1  0  0  0  0
 34 73  1  0  0  0  0
 34 78  2  0  0  0  0
 35 52  1  0  0  0  0
 35 74  1  0  0  0  0
 35 79  2  0  0  0  0
 36 64  1  0  0  0  0
 36 70  1  0  0  0  0
 36 80  2  0  0  0  0
 37 65  1  0  0  0  0
 37 75  1  0  0  0  0
 37 81  2  0  0  0  0
 38 71  1  0  0  0  0
 38 76  1  0  0  0  0
 38 82  2  0  0  0  0
 39 42  1  0  0  0  0
 40 52  1  0  0  0  0
 41 70  1  0  0  0  0
 42 44  1  0  0  0  0
 43 45  1  0  0  0  0
 43 47  1  0  0  0  0
 44 51  1  0  0  0  0
 45 54  1  0  0  0  0
 46 48  1  0  0  0  0
 46 53  1  0  0  0  0
 47 71  1  0  0  0  0
 48 69  1  0  0  0  0
 49 53  1  0  0  0  0
 49 69  1  0  0  0  0
 50 54  1  0  0  0  0
 50 71  1  0  0  0  0
 51 74  1  0  0  0  0
 52 70  1  0  0  0  0
 53 62  1  0  0  0  0
 54 68  1  0  0  0  0
 55 63  1  0  0  0  0
 56 65  1  0  0  0  0
 57 66  1  0  0  0  0
 58 66  1  0  0  0  0
 59 66  1  0  0  0  0
 60 77  1  0  0  0  0
 61 76  1  0  0  0  0
 62 84  1  0  0  0  0
 63 76  1  0  0  0  0
 64 66  1  0  0  0  0
 64 75  1  0  0  0  0
 65 77  1  0  0  0  0
 67 68  1  0  0  0  0
M  CHG  1  77   1
M  ISO  4  38 100  62 101  76 100  84 101
M  END
> <Batch ID>
0016

> <Smiles>
CC[100N:0](Cc1ccc(N2CCC([101CH2:1][101O:1]c3ccc4c(c3)CN(C(=O)C(NC(=O)C(C)NC)C(C)(C)C)C(C(=O)NC3CCCc5ccccc53)C4)C2)c(F)c1)[100C:0](=O)N1CCCC(n2nc(-c3ccc(Oc4ccc(F)cc4F)cc3)c(C(N)=O)c2N)C1

> <Shape>
0.280

> <Color>
0.068

> <Negative vol penalty>
0.000

$$$$

  -OEChem-04042320573D

 88 96  0     1  0  0  0  0  0999 V2000
  -21.6589  -20.8378   31.8142 C   0  0  0  0  0  0  0  0  0  0  0  0
  -20.7133  -20.9414   30.8003 C   0  0  0  0  0  0  0  0  0  0  0  0
  -23.2886   -9.8001   19.9132 C   0  0  0  0  0  0  0  0  0  0  0  0
  -23.7424   -9.9399   22.2821 C   0  0  0  0  0  0  0  0  0  0  0  0
  -23.0012  -20.6464   31.4933 C   0  0  0  0  0  0  0  0  0  0  0  0
  -21.1079  -20.8418   29.4656 C   0  0  0  0  0  0  0  0  0  0  0  0
  -23.1424  -15.5451   24.2636 C   0  0  0  0  0  0  0  0  0  0  0  0
  -32.2043  -14.5996   23.5313 C   0  0  0  0  0  0  0  0  0  0  0  0
  -22.5632   -8.6271   20.1213 C   0  0  0  0  0  0  0  0  0  0  0  0
  -23.0169   -8.7669   22.4902 C   0  0  0  0  0  0  0  0  0  0  0  0
  -23.8270  -14.3463   24.4584 C   0  0  0  0  0  0  0  0  0  0  0  0
  -20.9809   -6.0050   23.6924 C   0  0  0  0  0  0  0  0  0  0  0  0
  -20.0807   -5.9787   24.7575 C   0  0  0  0  0  0  0  0  0  0  0  0
  -32.7156  -15.3717   24.5744 C   0  0  0  0  0  0  0  0  0  0  0  0
  -31.1826  -14.3106   26.1111 C   0  0  0  0  0  0  0  0  0  0  0  0
  -22.4964  -13.9126   26.4232 C   0  0  0  0  0  0  0  0  0  0  0  0
  -18.8689   -7.8256   23.7790 C   0  0  0  0  0  0  0  0  0  0  0  0
  -23.8783  -10.4565   20.9935 C   0  0  0  0  0  0  0  0  0  0  0  0
  -30.6713  -13.5386   25.0679 C   0  0  0  0  0  0  0  0  0  0  0  0
  -24.1360  -12.9868   20.7958 C   0  0  0  0  0  0  0  0  0  0  0  0
  -23.4132  -20.5569   30.1534 C   0  0  0  0  0  0  0  0  0  0  0  0
  -22.1354  -15.9426   25.1549 C   0  0  0  0  0  0  0  0  0  0  0  0
  -22.4545  -20.6247   29.1221 C   0  0  0  0  0  0  0  0  0  0  0  0
  -21.7988  -15.1156   26.2361 C   0  0  0  0  0  0  0  0  0  0  0  0
  -31.1821  -13.6831   23.7780 C   0  0  0  0  0  0  0  0  0  0  0  0
  -22.4273   -8.1105   21.4098 C   0  0  0  0  0  0  0  0  0  0  0  0
  -23.5061  -13.5312   25.5399 C   0  0  0  0  0  0  0  0  0  0  0  0
  -20.8252   -6.9417   22.6705 C   0  0  0  0  0  0  0  0  0  0  0  0
  -19.0247   -6.8890   24.8008 C   0  0  0  0  0  0  0  0  0  0  0  0
  -19.7691   -7.8519   22.7138 C   0  0  0  0  0  0  0  0  0  0  0  0
  -32.2048  -15.2272   25.8643 C   0  0  0  0  0  0  0  0  0  0  0  0
  -24.6282  -11.6680   20.7791 C   0  0  0  0  0  0  0  0  0  0  0  0
  -25.2366  -13.7674   20.5398 C   0  0  0  0  0  0  0  0  0  0  0  0
  -29.6132  -12.6021   25.3600 C   0  0  0  0  0  0  0  0  0  0  0  0
  -22.8029  -13.4635   21.0226 C   0  0  0  0  0  0  0  0  0  0  0  0
  -28.3236  -13.0154   25.2666 C   0  0  0  0  0  0  0  0  0  0  0  0
  -27.1955  -12.0741   25.5616 C   0  0  0  0  0  0  0  0  0  0  0  0
  -21.7218  -18.4091   27.1167 C   0  0  0  0  0  0  0  0  0  0  0  0
  -18.7882  -17.0880   27.5301 C   0  0  0  0  0  0  0  0  0  0  0  0
  -16.8210  -14.3022   27.4013 C   0  0  0  0  0  0  0  0  0  0  0  0
  -31.0985  -12.9560   21.3675 C   0  0  0  0  0  0  0  0  0  0  0  0
  -24.8777  -20.3417   29.8630 C   0  0  0  0  0  0  0  0  0  0  0  0
  -21.3881  -17.2258   24.9157 C   0  0  0  0  0  0  0  0  0  0  0  0
  -20.7118  -15.4872   27.2102 C   0  0  0  0  0  0  0  0  0  0  0  0
  -25.2569  -20.6920   28.4278 C   0  0  0  0  0  0  0  0  0  0  0  0
  -29.4606  -13.6610   18.2857 C   0  0  0  0  0  0  0  0  0  0  0  0
  -24.2919  -20.0265   27.4581 C   0  0  0  0  0  0  0  0  0  0  0  0
  -27.9899  -13.3557   18.5786 C   0  0  0  0  0  0  0  0  0  0  0  0
  -30.3953  -12.6860   18.9994 C   0  0  0  0  0  0  0  0  0  0  0  0
  -28.7046  -12.2561   20.7390 C   0  0  0  0  0  0  0  0  0  0  0  0
  -22.8645  -20.5499   27.6624 C   0  0  1  0  0  0  0  0  0  0  0  0
  -20.7326  -17.7795   26.1771 C   0  0  1  0  0  0  0  0  0  0  0  0
  -27.7269  -13.2518   20.0938 C   0  0  2  0  0  0  0  0  0  0  0  0
  -29.9480  -11.1746   25.7437 C   0  0  0  0  0  0  0  0  0  0  0  0
  -27.8665  -14.3633   24.7837 C   0  0  0  0  0  0  0  0  0  0  0  0
  -14.4739  -13.5264   27.8334 C   0  0  0  0  0  0  0  0  0  0  0  0
  -19.3279  -17.1351   30.5328 C   0  0  0  0  0  0  0  0  0  0  0  0
  -17.4332  -15.5254   30.8281 C   0  0  0  0  0  0  0  0  0  0  0  0
  -17.0050  -17.7926   29.8800 C   0  0  0  0  0  0  0  0  0  0  0  0
  -27.2911  -12.8100   27.9913 C   0  0  0  0  0  0  0  0  0  0  0  0
  -16.4439  -13.4972   24.5784 C   0  0  0  0  0  0  0  0  0  0  0  0
  -25.6294  -11.1585   27.2240 C   0  0  0  0  0  0  0  0  0  0  0  0
  -24.3160  -11.9088   27.0786 C   0  0  0  0  0  0  0  0  0  1  0  0
  -18.1992  -16.0655   28.4717 C   0  0  1  0  0  0  0  0  0  0  0  0
  -15.4484  -14.0653   26.7977 C   0  0  2  0  0  0  0  0  0  0  0  0
  -18.0132  -16.6233   29.9111 C   0  0  0  0  0  0  0  0  0  0  0  0
  -25.9395  -11.6102   20.5318 N   0  0  0  0  0  0  0  0  0  0  0  0
  -26.2806  -12.9024   20.3907 N   0  0  0  0  0  0  0  0  0  0  0  0
  -20.0143  -16.7546   26.9373 N   0  0  0  0  0  0  0  0  0  0  0  0
  -30.0904  -12.6432   20.4312 N   0  0  0  0  0  0  0  0  0  0  0  0
  -25.4037  -15.1025   20.4297 N   0  0  0  0  0  0  0  0  0  0  0  0
  -21.7912  -12.5259   21.2709 N   0  0  0  0  0  0  0  0  0  0  0  0
  -30.6831  -12.9136   22.6979 N   0  0  0  0  0  0  0  0  0  0  0  0
  -21.9514  -19.7503   26.8760 N   0  0  0  0  0  0  0  0  0  0  0  0
  -16.9658  -15.5987   27.8478 N   0  0  0  0  0  0  0  0  0  0  0  0
  -26.7393  -12.0196   26.8852 N   0  0  0  0  0  0  0  0  0  0  0  0
  -15.5366  -13.0838   25.6797 N   0  3  0  0  0  0  0  0  0  0  0  0
  -22.5143  -14.6838   20.9892 O   0  0  0  0  0  0  0  0  0  0  0  0
  -26.7329  -11.4109   24.6322 O   0  0  0  0  0  0  0  0  0  0  0  0
  -22.2374  -17.7288   27.9960 O   0  0  0  0  0  0  0  0  0  0  0  0
  -18.1792  -18.1404   27.3224 O   0  0  0  0  0  0  0  0  0  0  0  0
  -17.6777  -13.4238   27.4733 O   0  0  0  0  0  0  0  0  0  0  0  0
  -32.2387  -13.2671   21.0137 O   0  0  0  0  0  0  0  0  0  0  0  0
  -21.7193   -6.9660   21.6133 O   0  0  0  0  0  0  0  0  0  0  0  0
  -24.1732  -12.3609   25.7327 O   0  0  0  0  0  0  0  0  0  1  0  0
  -18.1594   -6.8626   25.8230 F   0  0  0  0  0  0  0  0  0  0  0  0
  -19.6137   -8.7533   21.7345 F   0  0  0  0  0  0  0  0  0  0  0  0
  -32.8365  -16.1804   27.1509 Cl  0  0  0  0  0  0  0  0  0  0  0  0
  1  2  1  0  0  0  0
  1  5  2  0  0  0  0
  2  6  2  0  0  0  0
  3  9  2  0  0  0  0
  3 18  1  0  0  0  0
  4 10  1  0  0  0  0
  4 18  2  0  0  0  0
  5 21  1  0  0  0  0
  6 23  1  0  0  0  0
  7 11  2  0  0  0  0
  7 22  1  0  0  0  0
  8 14  2  0  0  0  0
  8 25  1  0  0  0  0
  9 26  1  0  0  0  0
 10 26  2  0  0  0  0
 11 27  1  0  0  0  0
 12 13  2  0  0  0  0
 12 28  1  0  0  0  0
 13 29  1  0  0  0  0
 14 31  1  0  0  0  0
 15 19  1  0  0  0  0
 15 31  2  0  0  0  0
 16 24  1  0  0  0  0
 16 27  2  0  0  0  0
 17 29  2  0  0  0  0
 17 30  1  0  0  0  0
 18 32  1  0  0  0  0
 19 25  2  0  0  0  0
 19 34  1  0  0  0  0
 20 32  1  0  0  0  0
 20 33  2  0  0  0  0
 20 35  1  0  0  0  0
 21 23  2  0  0  0  0
 21 42  1  0  0  0  0
 22 24  2  0  0  0  0
 22 43  1  0  0  0  0
 23 51  1  0  0  0  0
 24 44  1  0  0  0  0
 25 73  1  0  0  0  0
 26 84  1  0  0  0  0
 27 85  1  0  0  0  0
 28 30  2  0  0  0  0
 28 84  1  0  0  0  0
 29 86  1  0  0  0  0
 30 87  1  0  0  0  0
 31 88  1  0  0  0  0
 32 67  2  0  0  0  0
 33 68  1  0  0  0  0
 33 71  1  0  0  0  0
 34 36  2  0  0  0  0
 34 54  1  0  0  0  0
 35 72  1  0  0  0  0
 35 78  2  0  0  0  0
 36 37  1  0  0  0  0
 36 55  1  0  0  0  0
 37 76  1  0  0  0  0
 37 79  2  0  0  0  0
 38 52  1  0  0  0  0
 38 74  1  0  0  0  0
 38 80  2  0  0  0  0
 39 64  1  0  0  0  0
 39 69  1  0  0  0  0
 39 81  2  0  0  0  0
 40 65  1  0  0  0  0
 40 75  1  0  0  0  0
 40 82  2  0  0  0  0
 41 70  1  0  0  0  0
 41 73  1  0  0  0  0
 41 83  2  0  0  0  0
 42 45  1  0  0  0  0
 43 52  1  0  0  0  0
 44 69  1  0  0  0  0
 45 47  1  0  0  0  0
 46 48  1  0  0  0  0
 46 49  1  0  0  0  0
 47 51  1  0  0  0  0
 48 53  1  0  0  0  0
 49 70  1  0  0  0  0
 50 53  1  0  0  0  0
 50 70  1  0  0  0  0
 51 74  1  0  0  0  0
 52 69  1  0  0  0  0
 53 68  1  0  0  0  0
 56 65  1  0  0  0  0
 57 66  1  0  0  0  0
 58 66  1  0  0  0  0
 59 66  1  0  0  0  0
 60 76  1  0  0  0  0
 61 77  1  0  0  0  0
 62 63  1  0  0  0  0
 62 76  1  0  0  0  0
 63 85  1  0  0  0  0
 64 66  1  0  0  0  0
 64 75  1  0  0  0  0
 65 77  1  0  0  0  0
 67 68  1  0  0  0  0
M  CHG  1  77   1
M  ISO  4  41 100  63 101  73 100  85 101
M  END
> <Batch ID>
0016

> <Smiles>
CNC(C)C(=O)NC(C(=O)N1Cc2cc([101O:1][101CH2:1]CN(C)C(=O)C(C)=C(C)c3cc(Cl)ccc3[100NH:0][100C:0](=O)N3CCCC(n4nc(-c5ccc(Oc6ccc(F)cc6F)cc5)c(C(N)=O)c4N)C3)ccc2CC1C(=O)NC1CCCc2ccccc21)C(C)(C)C

> <Shape>
0.127

> <Color>
0.171

> <Negative vol penalty>
0.000

$$$$

  -OEChem-04042320573D

 87 95  0     1  0  0  0  0  0999 V2000
  -22.3546   -8.3740   20.4971 C   0  0  0  0  0  0  0  0  0  0  0  0
  -22.1657   -9.7079   20.1498 C   0  0  0  0  0  0  0  0  0  0  0  0
  -22.5814  -28.5979   21.8759 C   0  0  0  0  0  0  0  0  0  0  0  0
  -23.3167  -30.4740   23.2088 C   0  0  0  0  0  0  0  0  0  0  0  0
  -23.1992   -8.0434   21.5559 C   0  0  0  0  0  0  0  0  0  0  0  0
  -22.8207  -10.7120   20.8620 C   0  0  0  0  0  0  0  0  0  0  0  0
  -24.8550  -14.2277   17.8376 C   0  0  0  0  0  0  0  0  0  0  0  0
  -27.1682  -23.4101   18.9170 C   0  0  0  0  0  0  0  0  0  0  0  0
  -27.2553  -21.9859   20.8666 C   0  0  0  0  0  0  0  0  0  0  0  0
  -25.9100  -22.8986   18.5995 C   0  0  0  0  0  0  0  0  0  0  0  0
  -25.9970  -21.4745   20.5492 C   0  0  0  0  0  0  0  0  0  0  0  0
  -21.5059  -28.4036   22.7426 C   0  0  0  0  0  0  0  0  0  0  0  0
  -22.2411  -30.2798   24.0755 C   0  0  0  0  0  0  0  0  0  0  0  0
  -23.9921  -15.1818   17.3001 C   0  0  0  0  0  0  0  0  0  0  0  0
  -18.4675  -29.7826   23.2899 C   0  0  0  0  0  0  0  0  0  0  0  0
  -17.2130  -29.5529   22.7249 C   0  0  0  0  0  0  0  0  0  0  0  0
  -24.6934  -16.7575   18.9866 C   0  0  0  0  0  0  0  0  0  0  0  0
  -17.1055  -27.4096   23.8348 C   0  0  0  0  0  0  0  0  0  0  0  0
  -23.4869  -29.6330   22.1091 C   0  0  0  0  0  0  0  0  0  0  0  0
  -24.6269  -30.6417   20.0620 C   0  0  0  0  0  0  0  0  0  0  0  0
  -23.8724   -9.0435   22.2752 C   0  0  0  0  0  0  0  0  0  0  0  0
  -25.6369  -14.5284   18.9622 C   0  0  0  0  0  0  0  0  0  0  0  0
  -23.6742  -10.3946   21.9323 C   0  0  0  0  0  0  0  0  0  0  0  0
  -25.5674  -15.8063   19.5350 C   0  0  0  0  0  0  0  0  0  0  0  0
  -27.8409  -22.9537   20.0505 C   0  0  0  0  0  0  0  0  0  0  0  0
  -25.3243  -21.9308   19.4156 C   0  0  0  0  0  0  0  0  0  0  0  0
  -21.3357  -29.2446   23.8423 C   0  0  0  0  0  0  0  0  0  0  0  0
  -23.9091  -16.4459   17.8763 C   0  0  0  0  0  0  0  0  0  0  0  0
  -19.0410  -28.8257   24.1273 C   0  0  0  0  0  0  0  0  0  0  0  0
  -16.5320  -28.3665   22.9974 C   0  0  0  0  0  0  0  0  0  0  0  0
  -18.3600  -27.6393   24.3998 C   0  0  0  0  0  0  0  0  0  0  0  0
  -24.5984  -29.8338   21.2145 C   0  0  0  0  0  0  0  0  0  0  0  0
  -25.9007  -30.4931   19.5700 C   0  0  0  0  0  0  0  0  0  0  0  0
  -23.5944  -31.4538   19.4876 C   0  0  0  0  0  0  0  0  0  0  0  0
  -25.8428  -13.3862   21.9214 C   0  0  0  0  0  0  0  0  0  0  0  0
  -28.3664  -15.4153   22.1119 C   0  0  0  0  0  0  0  0  0  0  0  0
  -23.2443  -21.7507   18.0129 C   0  0  0  0  0  0  0  0  0  0  0  0
  -29.9155  -18.2287   20.9577 C   0  0  0  0  0  0  0  0  0  0  0  0
  -29.8197  -25.8833   20.3295 C   0  0  0  0  0  0  0  0  0  0  0  0
  -24.7385   -8.6401   23.4422 C   0  0  0  0  0  0  0  0  0  0  0  0
  -26.5825  -13.4969   19.5138 C   0  0  0  0  0  0  0  0  0  0  0  0
  -26.4006  -16.1858   20.7309 C   0  0  0  0  0  0  0  0  0  0  0  0
  -25.6874   -9.7422   23.9062 C   0  0  0  0  0  0  0  0  0  0  0  0
  -30.2447  -29.4412   21.4526 C   0  0  0  0  0  0  0  0  0  0  0  0
  -24.9464  -11.0705   24.0228 C   0  0  0  0  0  0  0  0  0  0  0  0
  -28.9441  -30.1155   21.0148 C   0  0  0  0  0  0  0  0  0  0  0  0
  -30.5651  -28.2091   20.6198 C   0  0  0  0  0  0  0  0  0  0  0  0
  -28.1284  -27.7092   20.8703 C   0  0  0  0  0  0  0  0  0  0  0  0
  -24.3864  -11.5109   22.6649 C   0  0  1  0  0  0  0  0  0  0  0  0
  -26.9519  -13.7445   20.9731 C   0  0  1  0  0  0  0  0  0  0  0  0
  -27.9645  -29.1421   20.3342 C   0  0  1  0  0  0  0  0  0  0  0  0
  -31.9449  -19.6557   21.3351 C   0  0  0  0  0  0  0  0  0  0  0  0
  -27.0708  -16.5926   24.6110 C   0  0  0  0  0  0  0  0  0  0  0  0
  -28.5941  -18.5668   24.3860 C   0  0  0  0  0  0  0  0  0  0  0  0
  -29.5491  -16.2934   24.7631 C   0  0  0  0  0  0  0  0  0  0  0  0
  -20.6062  -18.9501   17.3999 C   0  0  0  0  0  0  0  0  0  0  0  0
  -22.3809  -19.7285   15.8264 C   0  0  0  0  0  0  0  0  0  0  0  0
  -28.5587  -24.9185   22.2943 C   0  0  0  0  0  0  0  0  0  0  0  0
  -30.9091  -17.7451   18.2121 C   0  0  0  0  0  0  0  0  0  0  0  0
  -29.1862  -23.5006   20.3898 C   0  0  0  0  0  0  0  0  0  0  0  0
  -21.9341  -20.9734   18.0061 C   0  0  0  0  0  0  0  0  0  0  0  0
  -23.0324  -18.6535   17.9946 C   0  0  0  0  0  0  0  0  0  1  0  0
  -28.5491  -16.8597   22.5111 C   0  0  1  0  0  0  0  0  0  0  0  0
  -31.3548  -18.4922   20.5535 C   0  0  2  0  0  0  0  0  0  0  0  0
  -28.4235  -17.0707   24.0464 C   0  0  0  0  0  0  0  0  0  0  0  0
  -22.0094  -19.5886   17.3132 C   0  0  0  0  0  0  0  0  0  0  0  0
  -25.7616  -29.2176   21.4412 N   0  0  0  0  0  0  0  0  0  0  0  0
  -26.5329  -29.6383   20.4243 N   0  0  0  0  0  0  0  0  0  0  0  0
  -27.3053  -15.1407   21.2376 N   0  0  0  0  0  0  0  0  0  0  0  0
  -29.4993  -27.2046   20.6839 N   0  0  0  0  0  0  0  0  0  0  0  0
  -26.5303  -31.0116   18.4943 N   0  0  0  0  0  0  0  0  0  0  0  0
  -22.3448  -31.4926   20.1210 N   0  0  0  0  0  0  0  0  0  0  0  0
  -24.0477  -21.4120   19.0939 N   0  0  0  0  0  0  0  0  0  0  0  0
  -25.4380  -12.0674   21.8410 N   0  0  0  0  0  0  0  0  0  0  0  0
  -29.8304  -17.2785   21.9533 N   0  0  0  0  0  0  0  0  0  0  0  0
  -29.1125  -24.8435   20.9564 N   0  0  0  0  0  0  0  0  0  0  0  0
  -31.4342  -18.8138   19.1005 N   0  3  0  0  0  0  0  0  0  0  0  0
  -23.7696  -32.1124   18.4344 O   0  0  0  0  0  0  0  0  0  0  0  0
  -25.3891  -14.2423   22.6716 O   0  0  0  0  0  0  0  0  0  0  0  0
  -29.1412  -14.5632   22.5538 O   0  0  0  0  0  0  0  0  0  0  0  0
  -23.4845  -22.5704   17.1307 O   0  0  0  0  0  0  0  0  0  0  0  0
  -28.9623  -18.8104   20.4443 O   0  0  0  0  0  0  0  0  0  0  0  0
  -30.7041  -25.6433   19.4958 O   0  0  0  0  0  0  0  0  0  0  0  0
  -20.2861  -29.0555   24.6881 O   0  0  0  0  0  0  0  0  0  0  0  0
  -23.0672  -17.3788   17.3541 O   0  0  0  0  0  0  0  0  0  1  0  0
  -15.3267  -28.1467   22.4560 F   0  0  0  0  0  0  0  0  0  0  0  0
  -18.9054  -26.7168   25.2044 F   0  0  0  0  0  0  0  0  0  0  0  0
  1  2  1  0  0  0  0
  1  5  2  0  0  0  0
  2  6  2  0  0  0  0
  3 12  2  0  0  0  0
  3 19  1  0  0  0  0
  4 13  1  0  0  0  0
  4 19  2  0  0  0  0
  5 21  1  0  0  0  0
  6 23  1  0  0  0  0
  7 14  2  0  0  0  0
  7 22  1  0  0  0  0
  8 10  2  0  0  0  0
  8 25  1  0  0  0  0
  9 11  1  0  0  0  0
  9 25  2  0  0  0  0
 10 26  1  0  0  0  0
 11 26  2  0  0  0  0
 12 27  1  0  0  0  0
 13 27  2  0  0  0  0
 14 28  1  0  0  0  0
 15 16  2  0  0  0  0
 15 29  1  0  0  0  0
 16 30  1  0  0  0  0
 17 24  1  0  0  0  0
 17 28  2  0  0  0  0
 18 30  2  0  0  0  0
 18 31  1  0  0  0  0
 19 32  1  0  0  0  0
 20 32  1  0  0  0  0
 20 33  2  0  0  0  0
 20 34  1  0  0  0  0
 21 23  2  0  0  0  0
 21 40  1  0  0  0  0
 22 24  2  0  0  0  0
 22 41  1  0  0  0  0
 23 49  1  0  0  0  0
 24 42  1  0  0  0  0
 25 60  1  0  0  0  0
 26 73  1  0  0  0  0
 27 84  1  0  0  0  0
 28 85  1  0  0  0  0
 29 31  2  0  0  0  0
 29 84  1  0  0  0  0
 30 86  1  0  0  0  0
 31 87  1  0  0  0  0
 32 67  2  0  0  0  0
 33 68  1  0  0  0  0
 33 71  1  0  0  0  0
 34 72  1  0  0  0  0
 34 78  2  0  0  0  0
 35 50  1  0  0  0  0
 35 74  1  0  0  0  0
 35 79  2  0  0  0  0
 36 63  1  0  0  0  0
 36 69  1  0  0  0  0
 36 80  2  0  0  0  0
 37 61  1  0  0  0  0
 37 73  1  0  0  0  0
 37 81  2  0  0  0  0
 38 64  1  0  0  0  0
 38 75  1  0  0  0  0
 38 82  2  0  0  0  0
 39 70  1  0  0  0  0
 39 76  1  0  0  0  0
 39 83  2  0  0  0  0
 40 43  1  0  0  0  0
 41 50  1  0  0  0  0
 42 69  1  0  0  0  0
 43 45  1  0  0  0  0
 44 46  1  0  0  0  0
 44 47  1  0  0  0  0
 45 49  1  0  0  0  0
 46 51  1  0  0  0  0
 47 70  1  0  0  0  0
 48 51  1  0  0  0  0
 48 70  1  0  0  0  0
 49 74  1  0  0  0  0
 50 69  1  0  0  0  0
 51 68  1  0  0  0  0
 52 64  1  0  0  0  0
 53 65  1  0  0  0  0
 54 65  1  0  0  0  0
 55 65  1  0  0  0  0
 56 66  1  0  0  0  0
 57 66  1  0  0  0  0
 58 76  1  0  0  0  0
 59 77  1  0  0  0  0
 60 76  1  0  0  0  0
 61 66  1  0  0  0  0
 62 66  1  0  0  0  0
 62 85  1  0  0  0  0
 63 65  1  0  0  0  0
 63 75  1  0  0  0  0
 64 77  1  0  0  0  0
 67 68  1  0  0  0  0
M  CHG  1  77   1
M  ISO  4  39 100  62 101  76 100  85 101
M  END
> <Batch ID>
0016

> <Smiles>
CNC(C)C(=O)NC(C(=O)N1Cc2cc([101O:1][101CH2:1]C(C)(C)CC(=O)Nc3ccc(C[100N:0](C)[100C:0](=O)N4CCCC(n5nc(-c6ccc(Oc7ccc(F)cc7F)cc6)c(C(N)=O)c5N)C4)cc3)ccc2CC1C(=O)NC1CCCc2ccccc21)C(C)(C)C

> <Shape>
0.250

> <Color>
0.056

> <Negative vol penalty>
0.000

$$$$

  -OEChem-04042320573D

 84 92  0     1  0  0  0  0  0999 V2000
  -29.8678   -2.0832   36.8256 C   0  0  0  0  0  0  0  0  0  0  0  0
  -29.8000   -2.9386   35.7306 C   0  0  0  0  0  0  0  0  0  0  0  0
  -23.2846   -9.7975   19.9080 C   0  0  0  0  0  0  0  0  0  0  0  0
  -23.7225   -9.9368   22.2799 C   0  0  0  0  0  0  0  0  0  0  0  0
  -28.6956   -1.5915   37.3984 C   0  0  0  0  0  0  0  0  0  0  0  0
  -28.5597   -3.3021   35.2070 C   0  0  0  0  0  0  0  0  0  0  0  0
  -27.0427   -8.6994   32.7426 C   0  0  0  0  0  0  0  0  0  0  0  0
  -28.4291  -11.5084   25.2454 C   0  0  0  0  0  0  0  0  0  0  0  0
  -28.4860  -10.3588   23.1212 C   0  0  0  0  0  0  0  0  0  0  0  0
  -27.7612  -10.4241   25.8143 C   0  0  0  0  0  0  0  0  0  0  0  0
  -27.8181   -9.2744   23.6902 C   0  0  0  0  0  0  0  0  0  0  0  0
  -22.5525   -8.6278   20.1119 C   0  0  0  0  0  0  0  0  0  0  0  0
  -22.9904   -8.7671   22.4838 C   0  0  0  0  0  0  0  0  0  0  0  0
  -26.9560   -9.1361   31.4214 C   0  0  0  0  0  0  0  0  0  0  0  0
  -19.7387   -7.8687   22.6830 C   0  0  0  0  0  0  0  0  0  0  0  0
  -18.8303   -7.8507   23.7413 C   0  0  0  0  0  0  0  0  0  0  0  0
  -24.5870   -8.6809   31.4327 C   0  0  0  0  0  0  0  0  0  0  0  0
  -20.0233   -5.9990   24.7339 C   0  0  0  0  0  0  0  0  0  0  0  0
  -23.8696  -10.4519   20.9921 C   0  0  0  0  0  0  0  0  0  0  0  0
  -24.1400  -12.9809   20.7945 C   0  0  0  0  0  0  0  0  0  0  0  0
  -27.4401   -1.9568   36.8876 C   0  0  0  0  0  0  0  0  0  0  0  0
  -25.9022   -8.2391   33.4164 C   0  0  0  0  0  0  0  0  0  0  0  0
  -27.3696   -2.8138   35.7726 C   0  0  0  0  0  0  0  0  0  0  0  0
  -24.6614   -8.2413   32.7633 C   0  0  0  0  0  0  0  0  0  0  0  0
  -28.7915  -11.4758   23.8987 C   0  0  0  0  0  0  0  0  0  0  0  0
  -27.4557   -9.3071   25.0368 C   0  0  0  0  0  0  0  0  0  0  0  0
  -22.4054   -8.1126   21.3998 C   0  0  0  0  0  0  0  0  0  0  0  0
  -25.7286   -9.1242   30.7653 C   0  0  0  0  0  0  0  0  0  0  0  0
  -20.7894   -6.9518   22.6500 C   0  0  0  0  0  0  0  0  0  0  0  0
  -18.9726   -6.9159   24.7667 C   0  0  0  0  0  0  0  0  0  0  0  0
  -20.9317   -6.0170   23.6755 C   0  0  0  0  0  0  0  0  0  0  0  0
  -24.6265  -11.6599   20.7821 C   0  0  0  0  0  0  0  0  0  0  0  0
  -25.2459  -13.7565   20.5456 C   0  0  0  0  0  0  0  0  0  0  0  0
  -22.8075  -13.4637   21.0117 C   0  0  0  0  0  0  0  0  0  0  0  0
  -25.0315   -5.4755   34.7233 C   0  0  0  0  0  0  0  0  0  0  0  0
  -22.4723   -7.2006   35.7218 C   0  0  0  0  0  0  0  0  0  0  0  0
  -20.4424   -9.9047   35.2594 C   0  0  0  0  0  0  0  0  0  0  0  0
  -31.1496  -12.3509   21.3872 C   0  0  0  0  0  0  0  0  0  0  0  0
  -26.2020   -1.3624   37.5107 C   0  0  0  0  0  0  0  0  0  0  0  0
  -26.0076   -7.7965   34.8501 C   0  0  0  0  0  0  0  0  0  0  0  0
  -23.4036   -7.7759   33.4487 C   0  0  0  0  0  0  0  0  0  0  0  0
  -24.9172   -2.0935   37.1297 C   0  0  0  0  0  0  0  0  0  0  0  0
  -29.4877  -13.6547   18.3475 C   0  0  0  0  0  0  0  0  0  0  0  0
  -24.8769   -2.3545   35.6274 C   0  0  0  0  0  0  0  0  0  0  0  0
  -28.0171  -13.3328   18.6079 C   0  0  0  0  0  0  0  0  0  0  0  0
  -30.4170  -12.6711   19.0522 C   0  0  0  0  0  0  0  0  0  0  0  0
  -28.6994  -12.2294   20.7753 C   0  0  0  0  0  0  0  0  0  0  0  0
  -26.0424   -3.2508   35.1916 C   0  0  1  0  0  0  0  0  0  0  0  0
  -24.8755   -6.8653   35.2727 C   0  0  1  0  0  0  0  0  0  0  0  0
  -27.7370  -13.2295   20.1172 C   0  0  2  0  0  0  0  0  0  0  0  0
  -18.4121  -11.0298   36.2130 C   0  0  0  0  0  0  0  0  0  0  0  0
  -20.6974   -5.0672   34.4536 C   0  0  0  0  0  0  0  0  0  0  0  0
  -18.7849   -6.6772   34.5889 C   0  0  0  0  0  0  0  0  0  0  0  0
  -19.9058   -5.8966   36.6762 C   0  0  0  0  0  0  0  0  0  0  0  0
  -26.4659   -7.0444   24.7913 C   0  0  0  0  0  0  0  0  0  0  0  0
  -31.8627  -12.0559   23.7290 C   0  0  0  0  0  0  0  0  0  0  0  0
  -21.9521  -12.3786   35.8592 C   0  0  0  0  0  0  0  0  0  0  0  0
  -29.5053  -12.6348   23.2894 C   0  0  0  0  0  0  0  0  0  0  0  0
  -25.1026   -8.9645   27.2113 C   0  0  0  0  0  0  0  0  0  0  0  0
  -26.4098   -8.2097   27.0020 C   0  0  0  0  0  0  0  0  0  0  0  0
  -24.6335   -8.9512   28.6614 C   0  0  0  0  0  0  0  0  0  1  0  0
  -21.1096   -7.5176   35.1547 C   0  0  1  0  0  0  0  0  0  0  0  0
  -19.9311  -10.9575   36.2262 C   0  0  2  0  0  0  0  0  0  0  0  0
  -20.1483   -6.2967   35.2045 C   0  0  0  0  0  0  0  0  0  0  0  0
  -25.9392  -11.5961   20.5439 N   0  0  0  0  0  0  0  0  0  0  0  0
  -26.2869  -12.8867   20.4044 N   0  0  0  0  0  0  0  0  0  0  0  0
  -23.5593   -7.3469   34.8484 N   0  0  0  0  0  0  0  0  0  0  0  0
  -30.1009  -12.5599   20.4766 N   0  0  0  0  0  0  0  0  0  0  0  0
  -25.4196  -15.0907   20.4359 N   0  0  0  0  0  0  0  0  0  0  0  0
  -21.7900  -12.5308   21.2536 N   0  0  0  0  0  0  0  0  0  0  0  0
  -25.7716   -4.6317   35.5293 N   0  0  0  0  0  0  0  0  0  0  0  0
  -20.6276   -8.6877   35.8806 N   0  0  0  0  0  0  0  0  0  0  0  0
  -26.7858   -8.2161   25.6089 N   0  0  3  0  0  0  0  0  0  0  0  0
  -30.8090  -12.2608   22.7454 N   0  0  0  0  0  0  0  0  0  0  0  0
  -20.4686  -12.2991   35.8629 N   0  3  0  0  0  0  0  0  0  0  0  0
  -22.5246  -14.6852   20.9756 O   0  0  0  0  0  0  0  0  0  0  0  0
  -24.5171   -5.1895   33.6485 O   0  0  0  0  0  0  0  0  0  0  0  0
  -22.5694   -6.8434   36.8985 O   0  0  0  0  0  0  0  0  0  0  0  0
  -20.6527  -10.1376   34.0711 O   0  0  0  0  0  0  0  0  0  0  0  0
  -32.3246  -12.2600   21.0088 O   0  0  0  0  0  0  0  0  0  0  0  0
  -21.6909   -6.9715   21.5991 O   0  0  0  0  0  0  0  0  0  0  0  0
  -25.6413   -9.5493   29.4756 O   0  0  0  0  0  0  0  0  0  1  0  0
  -18.1010   -6.8998   25.7838 F   0  0  0  0  0  0  0  0  0  0  0  0
  -21.9398   -5.1344   23.6500 F   0  0  0  0  0  0  0  0  0  0  0  0
  1  2  1  0  0  0  0
  1  5  2  0  0  0  0
  2  6  2  0  0  0  0
  3 12  2  0  0  0  0
  3 19  1  0  0  0  0
  4 13  1  0  0  0  0
  4 19  2  0  0  0  0
  5 21  1  0  0  0  0
  6 23  1  0  0  0  0
  7 14  2  0  0  0  0
  7 22  1  0  0  0  0
  8 10  2  0  0  0  0
  8 25  1  0  0  0  0
  9 11  1  0  0  0  0
  9 25  2  0  0  0  0
 10 26  1  0  0  0  0
 11 26  2  0  0  0  0
 12 27  1  0  0  0  0
 13 27  2  0  0  0  0
 14 28  1  0  0  0  0
 15 16  2  0  0  0  0
 15 29  1  0  0  0  0
 16 30  1  0  0  0  0
 17 24  1  0  0  0  0
 17 28  2  0  0  0  0
 18 30  2  0  0  0  0
 18 31  1  0  0  0  0
 19 32  1  0  0  0  0
 20 32  1  0  0  0  0
 20 33  2  0  0  0  0
 20 34  1  0  0  0  0
 21 23  2  0  0  0  0
 21 39  1  0  0  0  0
 22 24  2  0  0  0  0
 22 40  1  0  0  0  0
 23 48  1  0  0  0  0
 24 41  1  0  0  0  0
 25 58  1  0  0  0  0
 26 73  1  0  0  0  0
 27 81  1  0  0  0  0
 28 82  1  0  0  0  0
 29 31  2  0  0  0  0
 29 81  1  0  0  0  0
 30 83  1  0  0  0  0
 31 84  1  0  0  0  0
 32 65  2  0  0  0  0
 33 66  1  0  0  0  0
 33 69  1  0  0  0  0
 34 70  1  0  0  0  0
 34 76  2  0  0  0  0
 35 49  1  0  0  0  0
 35 71  1  0  0  0  0
 35 77  2  0  0  0  0
 36 62  1  0  0  0  0
 36 67  1  0  0  0  0
 36 78  2  0  0  0  0
 37 63  1  0  0  0  0
 37 72  1  0  0  0  0
 37 79  2  0  0  0  0
 38 68  1  0  0  0  0
 38 74  1  0  0  0  0
 38 80  2  0  0  0  0
 39 42  1  0  0  0  0
 40 49  1  0  0  0  0
 41 67  1  0  0  0  0
 42 44  1  0  0  0  0
 43 45  1  0  0  0  0
 43 46  1  0  0  0  0
 44 48  1  0  0  0  0
 45 50  1  0  0  0  0
 46 68  1  0  0  0  0
 47 50  1  0  0  0  0
 47 68  1  0  0  0  0
 48 71  1  0  0  0  0
 49 67  1  0  0  0  0
 50 66  1  0  0  0  0
 51 63  1  0  0  0  0
 52 64  1  0  0  0  0
 53 64  1  0  0  0  0
 54 64  1  0  0  0  0
 55 73  1  0  0  0  0
 56 74  1  0  0  0  0
 57 75  1  0  0  0  0
 58 74  1  0  0  0  0
 59 60  1  0  0  0  0
 59 61  1  0  0  0  0
 60 73  1  0  0  0  0
 61 82  1  0  0  0  0
 62 64  1  0  0  0  0
 62 72  1  0  0  0  0
 63 75  1  0  0  0  0
 65 66  1  0  0  0  0
M  CHG  1  75   1
M  ISO  4  38 100  61 101  74 100  82 101
M  END
> <Batch ID>
0016

> <Smiles>
CNC(C)C(=O)NC(C(=O)N1Cc2cc([101O:1][101CH2:1]CCN(C)c3ccc(C[100N:0](C)[100C:0](=O)N4CCCC(n5nc(-c6ccc(Oc7ccc(F)cc7F)cc6)c(C(N)=O)c5N)C4)cc3)ccc2CC1C(=O)NC1CCCc2ccccc21)C(C)(C)C

> <Shape>
0.132

> <Color>
0.185

> <Negative vol penalty>
0.000

$$$$

  -OEChem-04042320573D

 86 95  0     1  0  0  0  0  0999 V2000
  -32.3586  -14.5813   21.0863 C   0  0  0  0  0  0  0  0  0  0  0  0
  -31.4929  -15.6656   21.1868 C   0  0  0  0  0  0  0  0  0  0  0  0
  -27.9411  -24.0467   20.6633 C   0  0  0  0  0  0  0  0  0  0  0  0
  -28.8146  -25.2221   18.7417 C   0  0  0  0  0  0  0  0  0  0  0  0
  -31.8987  -13.3685   20.5749 C   0  0  0  0  0  0  0  0  0  0  0  0
  -30.1668  -15.5380   20.7748 C   0  0  0  0  0  0  0  0  0  0  0  0
  -25.2632  -18.2338   23.2634 C   0  0  0  0  0  0  0  0  0  0  0  0
  -22.9889  -24.6901   21.4949 C   0  0  0  0  0  0  0  0  0  0  0  0
  -22.7498  -25.7778   22.3390 C   0  0  0  0  0  0  0  0  0  0  0  0
  -28.1060  -22.8330   19.9959 C   0  0  0  0  0  0  0  0  0  0  0  0
  -28.9796  -24.0084   18.0743 C   0  0  0  0  0  0  0  0  0  0  0  0
  -24.5401  -19.3732   22.9128 C   0  0  0  0  0  0  0  0  0  0  0  0
  -26.4893  -21.0603   17.6152 C   0  0  0  0  0  0  0  0  0  0  0  0
  -25.4416  -20.1414   17.6743 C   0  0  0  0  0  0  0  0  0  0  0  0
  -22.2938  -27.1656   20.4263 C   0  0  0  0  0  0  0  0  0  0  0  0
  -22.9545  -17.9947   21.7275 C   0  0  0  0  0  0  0  0  0  0  0  0
  -26.9105  -18.5340   18.7210 C   0  0  0  0  0  0  0  0  0  0  0  0
  -28.2953  -25.2412   20.0361 C   0  0  0  0  0  0  0  0  0  0  0  0
  -29.0616  -27.1469   21.5490 C   0  0  0  0  0  0  0  0  0  0  0  0
  -30.5638  -13.2232   20.1655 C   0  0  0  0  0  0  0  0  0  0  0  0
  -24.8426  -16.9653   22.8388 C   0  0  0  0  0  0  0  0  0  0  0  0
  -29.6889  -14.3226   20.2562 C   0  0  0  0  0  0  0  0  0  0  0  0
  -22.5463  -26.0828   19.5715 C   0  0  0  0  0  0  0  0  0  0  0  0
  -23.6726  -16.8407   22.0762 C   0  0  0  0  0  0  0  0  0  0  0  0
  -22.8958  -24.8276   20.1005 C   0  0  0  0  0  0  0  0  0  0  0  0
  -22.4033  -27.0145   21.8057 C   0  0  0  0  0  0  0  0  0  0  0  0
  -28.6253  -22.8138   18.7015 C   0  0  0  0  0  0  0  0  0  0  0  0
  -23.3872  -19.2540   22.1423 C   0  0  0  0  0  0  0  0  0  0  0  0
  -27.7477  -20.7160   18.1088 C   0  0  0  0  0  0  0  0  0  0  0  0
  -25.6522  -18.8783   18.2273 C   0  0  0  0  0  0  0  0  0  0  0  0
  -27.9583  -19.4529   18.6618 C   0  0  0  0  0  0  0  0  0  0  0  0
  -28.1247  -26.4953   20.7248 C   0  0  0  0  0  0  0  0  0  0  0  0
  -28.4220  -28.2917   21.9575 C   0  0  0  0  0  0  0  0  0  0  0  0
  -23.2226  -23.8992   17.8246 C   0  0  0  0  0  0  0  0  0  0  0  0
  -30.3912  -26.7527   21.9129 C   0  0  0  0  0  0  0  0  0  0  0  0
  -26.0896  -14.6849   21.0089 C   0  0  0  0  0  0  0  0  0  0  0  0
  -23.4772  -13.0223   21.9751 C   0  0  0  0  0  0  0  0  0  0  0  0
  -20.2791  -13.0860   23.1648 C   0  0  0  0  0  0  0  0  0  0  0  0
  -22.4294  -29.4619   22.2580 C   0  0  0  0  0  0  0  0  0  0  0  0
  -30.1248  -11.9066   19.5751 C   0  0  0  0  0  0  0  0  0  0  0  0
  -25.6190  -15.7437   23.2479 C   0  0  0  0  0  0  0  0  0  0  0  0
  -22.3525  -26.2390   18.0921 C   0  0  0  0  0  0  0  0  0  0  0  0
  -23.1675  -15.4997   21.6122 C   0  0  0  0  0  0  0  0  0  0  0  0
  -23.3145  -25.3345   17.3515 C   0  0  0  0  0  0  0  0  0  0  0  0
  -28.6084  -11.7438   19.5097 C   0  0  0  0  0  0  0  0  0  0  0  0
  -25.0760  -31.4168   20.5893 C   0  0  0  0  0  0  0  0  0  0  0  0
  -27.9601  -13.0040   18.9454 C   0  0  0  0  0  0  0  0  0  0  0  0
  -26.2115  -30.4040   20.4512 C   0  0  0  0  0  0  0  0  0  0  0  0
  -23.7081  -30.7413   20.5654 C   0  0  0  0  0  0  0  0  0  0  0  0
  -24.6916  -28.6444   21.4406 C   0  0  0  0  0  0  0  0  0  0  0  0
  -28.2370  -14.2162   19.8429 C   0  0  1  0  0  0  0  0  0  0  0  0
  -25.3829  -14.5498   22.3280 C   0  0  1  0  0  0  0  0  0  0  0  0
  -26.0842  -29.2899   21.5045 C   0  0  1  0  0  0  0  0  0  0  0  0
  -18.3906  -11.5691   23.8203 C   0  0  0  0  0  0  0  0  0  0  0  0
  -22.8651  -12.5153   19.0292 C   0  0  0  0  0  0  0  0  0  0  0  0
  -20.5446  -11.8538   19.6971 C   0  0  0  0  0  0  0  0  0  0  0  0
  -22.4998  -10.5444   20.5248 C   0  0  0  0  0  0  0  0  0  0  0  0
  -21.4231  -27.9172   23.9225 C   0  0  0  0  0  0  0  0  0  0  0  0
  -20.2884  -14.0868   25.9500 C   0  0  0  0  0  0  0  0  0  0  0  0
  -21.8671  -21.7393   20.0071 C   0  0  0  0  0  0  0  0  0  0  0  0
  -23.2276  -22.3789   19.7655 C   0  0  0  0  0  0  0  0  0  0  0  0
  -21.9676  -20.3237   20.5623 C   0  0  0  0  0  0  0  0  0  1  0  0
  -22.0677  -12.8526   21.4616 C   0  0  1  0  0  0  0  0  0  0  0  0
  -19.6127  -12.3347   24.3031 C   0  0  2  0  0  0  0  0  0  0  0  0
  -22.0046  -11.9671   20.1851 C   0  0  0  0  0  0  0  0  0  0  0  0
  -26.9771  -27.1700   20.6152 N   0  0  0  0  0  0  0  0  0  0  0  0
  -27.1888  -28.2574   21.3760 N   0  0  0  0  0  0  0  0  0  0  0  0
  -23.1181  -23.7250   19.2107 N   0  0  0  0  0  0  0  0  0  0  0  0
  -23.9647  -14.3356   22.0326 N   0  0  0  0  0  0  0  0  0  0  0  0
  -23.6291  -29.6565   21.5444 N   0  0  0  0  0  0  0  0  0  0  0  0
  -28.7998  -29.3143   22.7538 N   0  0  0  0  0  0  0  0  0  0  0  0
  -30.8933  -25.5469   21.4045 N   0  0  0  0  0  0  0  0  0  0  0  0
  -27.3792  -14.1887   21.0082 N   0  0  0  0  0  0  0  0  0  0  0  0
  -21.2838  -12.3432   22.5816 N   0  0  0  0  0  0  0  0  0  0  0  0
  -22.1676  -28.1401   22.6788 N   0  0  0  0  0  0  0  0  0  0  0  0
  -19.1821  -13.2838   25.3683 N   0  3  0  0  0  0  0  0  0  0  0  0
  -23.3295  -22.9812   17.0086 O   0  0  0  0  0  0  0  0  0  0  0  0
  -31.1067  -27.4409   22.6796 O   0  0  0  0  0  0  0  0  0  0  0  0
  -25.5073  -15.1997   20.0614 O   0  0  0  0  0  0  0  0  0  0  0  0
  -24.1193  -12.0269   22.3194 O   0  0  0  0  0  0  0  0  0  0  0  0
  -19.9398  -14.2172   22.8244 O   0  0  0  0  0  0  0  0  0  0  0  0
  -21.6687  -30.4003   22.5234 O   0  0  0  0  0  0  0  0  0  0  0  0
  -28.7866  -21.6297   18.0500 O   0  0  0  0  0  0  0  0  0  0  0  0
  -22.6799  -20.3645   21.7981 O   0  0  0  0  0  0  0  0  0  1  0  0
  -24.6456  -17.9965   18.2855 F   0  0  0  0  0  0  0  0  0  0  0  0
  -29.1647  -19.1168   19.1387 F   0  0  0  0  0  0  0  0  0  0  0  0
  1  2  1  0  0  0  0
  1  5  2  0  0  0  0
  2  6  2  0  0  0  0
  3 10  2  0  0  0  0
  3 18  1  0  0  0  0
  4 11  1  0  0  0  0
  4 18  2  0  0  0  0
  5 20  1  0  0  0  0
  6 22  1  0  0  0  0
  7 12  2  0  0  0  0
  7 21  1  0  0  0  0
  8  9  2  0  0  0  0
  8 25  1  0  0  0  0
  9 26  1  0  0  0  0
 10 27  1  0  0  0  0
 11 27  2  0  0  0  0
 12 28  1  0  0  0  0
 13 14  2  0  0  0  0
 13 29  1  0  0  0  0
 14 30  1  0  0  0  0
 15 23  1  0  0  0  0
 15 26  2  0  0  0  0
 16 24  1  0  0  0  0
 16 28  2  0  0  0  0
 17 30  2  0  0  0  0
 17 31  1  0  0  0  0
 18 32  1  0  0  0  0
 19 32  1  0  0  0  0
 19 33  2  0  0  0  0
 19 35  1  0  0  0  0
 20 22  2  0  0  0  0
 20 40  1  0  0  0  0
 21 24  2  0  0  0  0
 21 41  1  0  0  0  0
 22 51  1  0  0  0  0
 23 25  2  0  0  0  0
 23 42  1  0  0  0  0
 24 43  1  0  0  0  0
 25 68  1  0  0  0  0
 26 75  1  0  0  0  0
 27 83  1  0  0  0  0
 28 84  1  0  0  0  0
 29 31  2  0  0  0  0
 29 83  1  0  0  0  0
 30 85  1  0  0  0  0
 31 86  1  0  0  0  0
 32 66  2  0  0  0  0
 33 67  1  0  0  0  0
 33 71  1  0  0  0  0
 34 44  1  0  0  0  0
 34 68  1  0  0  0  0
 34 77  2  0  0  0  0
 35 72  1  0  0  0  0
 35 78  2  0  0  0  0
 36 52  1  0  0  0  0
 36 73  1  0  0  0  0
 36 79  2  0  0  0  0
 37 63  1  0  0  0  0
 37 69  1  0  0  0  0
 37 80  2  0  0  0  0
 38 64  1  0  0  0  0
 38 74  1  0  0  0  0
 38 81  2  0  0  0  0
 39 70  1  0  0  0  0
 39 75  1  0  0  0  0
 39 82  2  0  0  0  0
 40 45  1  0  0  0  0
 41 52  1  0  0  0  0
 42 44  1  0  0  0  0
 43 69  1  0  0  0  0
 45 47  1  0  0  0  0
 46 48  1  0  0  0  0
 46 49  1  0  0  0  0
 47 51  1  0  0  0  0
 48 53  1  0  0  0  0
 49 70  1  0  0  0  0
 50 53  1  0  0  0  0
 50 70  1  0  0  0  0
 51 73  1  0  0  0  0
 52 69  1  0  0  0  0
 53 67  1  0  0  0  0
 54 64  1  0  0  0  0
 55 65  1  0  0  0  0
 56 65  1  0  0  0  0
 57 65  1  0  0  0  0
 58 75  1  0  0  0  0
 59 76  1  0  0  0  0
 60 61  1  0  0  0  0
 60 62  1  0  0  0  0
 61 68  1  0  0  0  0
 62 84  1  0  0  0  0
 63 65  1  0  0  0  0
 63 74  1  0  0  0  0
 64 76  1  0  0  0  0
 66 67  1  0  0  0  0
M  CHG  1  76   1
M  ISO  4  39 100  62 101  75 100  84 101
M  END
> <Batch ID>
0016

> <Smiles>
CNC(C)C(=O)NC(C(=O)N1Cc2cc([101O:1][101CH2:1]CCN3C(=O)CCc4cc([100N:0](C)[100C:0](=O)N5CCCC(n6nc(-c7ccc(Oc8ccc(F)cc8F)cc7)c(C(N)=O)c6N)C5)ccc43)ccc2CC1C(=O)NC1CCCc2ccccc21)C(C)(C)C

> <Shape>
0.230

> <Color>
0.062

> <Negative vol penalty>
0.000

$$$$

  -OEChem-04042320573D

 87 95  0     1  0  0  0  0  0999 V2000
  -25.7266  -28.5114   25.7832 C   0  0  0  0  0  0  0  0  0  0  0  0
  -26.2171  -27.7424   24.7326 C   0  0  0  0  0  0  0  0  0  0  0  0
  -23.0578   -9.9469   19.9586 C   0  0  0  0  0  0  0  0  0  0  0  0
  -23.7277  -10.0151   22.2789 C   0  0  0  0  0  0  0  0  0  0  0  0
  -24.3902  -28.3978   26.1640 C   0  0  0  0  0  0  0  0  0  0  0  0
  -25.3716  -26.8586   24.0630 C   0  0  0  0  0  0  0  0  0  0  0  0
  -25.8973  -27.1022   19.0322 C   0  0  0  0  0  0  0  0  0  0  0  0
  -30.1781  -17.5737   18.9987 C   0  0  0  0  0  0  0  0  0  0  0  0
  -30.4708  -18.7649   18.3347 C   0  0  0  0  0  0  0  0  0  0  0  0
  -22.2867   -8.8131   20.2146 C   0  0  0  0  0  0  0  0  0  0  0  0
  -22.9565   -8.8814   22.5349 C   0  0  0  0  0  0  0  0  0  0  0  0
  -27.0008  -26.4571   18.4753 C   0  0  0  0  0  0  0  0  0  0  0  0
  -23.2166   -5.5396   22.0925 C   0  0  0  0  0  0  0  0  0  0  0  0
  -23.7874   -4.5286   22.8656 C   0  0  0  0  0  0  0  0  0  0  0  0
  -25.5963  -24.5924   17.8674 C   0  0  0  0  0  0  0  0  0  0  0  0
  -29.4770  -20.0183   20.1454 C   0  0  0  0  0  0  0  0  0  0  0  0
  -22.0237   -4.7806   24.4974 C   0  0  0  0  0  0  0  0  0  0  0  0
  -23.7783  -10.5479   20.9908 C   0  0  0  0  0  0  0  0  0  0  0  0
  -24.1643  -13.0628   20.8063 C   0  0  0  0  0  0  0  0  0  0  0  0
  -23.5255  -27.5192   25.4924 C   0  0  0  0  0  0  0  0  0  0  0  0
  -24.6351  -26.4914   19.0205 C   0  0  0  0  0  0  0  0  0  0  0  0
  -24.0227  -26.7322   24.4361 C   0  0  0  0  0  0  0  0  0  0  0  0
  -24.4779  -25.2329   18.4225 C   0  0  0  0  0  0  0  0  0  0  0  0
  -29.5348  -17.6047   20.2360 C   0  0  0  0  0  0  0  0  0  0  0  0
  -30.1203  -19.9872   18.9080 C   0  0  0  0  0  0  0  0  0  0  0  0
  -22.2360   -8.2803   21.5027 C   0  0  0  0  0  0  0  0  0  0  0  0
  -26.8510  -25.2008   17.8954 C   0  0  0  0  0  0  0  0  0  0  0  0
  -22.0494   -6.1712   22.5219 C   0  0  0  0  0  0  0  0  0  0  0  0
  -23.1910   -4.1491   24.0680 C   0  0  0  0  0  0  0  0  0  0  0  0
  -29.1843  -18.8270   20.8093 C   0  0  0  0  0  0  0  0  0  0  0  0
  -21.4529   -5.7917   23.7244 C   0  0  0  0  0  0  0  0  0  0  0  0
  -24.5755  -11.7187   20.7269 C   0  0  0  0  0  0  0  0  0  0  0  0
  -25.2815  -13.7845   20.4634 C   0  0  0  0  0  0  0  0  0  0  0  0
  -22.8867  -13.6099   21.1586 C   0  0  0  0  0  0  0  0  0  0  0  0
  -22.5977  -25.5091   21.2539 C   0  0  0  0  0  0  0  0  0  0  0  0
  -20.6737  -24.9540   18.7020 C   0  0  0  0  0  0  0  0  0  0  0  0
  -29.6086  -22.3687   18.3765 C   0  0  0  0  0  0  0  0  0  0  0  0
  -20.4049  -24.3309   15.3574 C   0  0  0  0  0  0  0  0  0  0  0  0
  -30.8696  -14.4349   21.2799 C   0  0  0  0  0  0  0  0  0  0  0  0
  -22.1005  -27.3962   25.9708 C   0  0  0  0  0  0  0  0  0  0  0  0
  -23.4495  -27.2120   19.6015 C   0  0  0  0  0  0  0  0  0  0  0  0
  -23.1402  -24.5432   18.3661 C   0  0  0  0  0  0  0  0  0  0  0  0
  -21.1778  -26.7108   24.9662 C   0  0  0  0  0  0  0  0  0  0  0  0
  -29.6884  -12.3204   18.4808 C   0  0  0  0  0  0  0  0  0  0  0  0
  -21.8326  -25.4481   24.4150 C   0  0  0  0  0  0  0  0  0  0  0  0
  -28.2389  -12.0332   18.8689 C   0  0  0  0  0  0  0  0  0  0  0  0
  -30.5669  -12.5588   19.7052 C   0  0  0  0  0  0  0  0  0  0  0  0
  -28.6096  -13.3359   21.0011 C   0  0  0  0  0  0  0  0  0  0  0  0
  -23.1305  -25.7803   23.6691 C   0  0  1  0  0  0  0  0  0  0  0  0
  -22.3122  -26.2732   19.9921 C   0  0  1  0  0  0  0  0  0  0  0  0
  -27.6881  -13.1371   19.7883 C   0  0  2  0  0  0  0  0  0  0  0  0
  -31.4142  -20.9154   16.0056 C   0  0  0  0  0  0  0  0  0  0  0  0
  -18.7039  -23.8852   13.5671 C   0  0  0  0  0  0  0  0  0  0  0  0
  -20.3399  -22.1015   19.7325 C   0  0  0  0  0  0  0  0  0  0  0  0
  -19.4556  -21.4649   17.4784 C   0  0  0  0  0  0  0  0  0  0  0  0
  -18.2420  -23.1486   18.8623 C   0  0  0  0  0  0  0  0  0  0  0  0
  -31.2819  -16.6570   22.2659 C   0  0  0  0  0  0  0  0  0  0  0  0
  -21.1955  -26.7474   13.8427 C   0  0  0  0  0  0  0  0  0  0  0  0
  -29.2253  -16.3286   20.9436 C   0  0  0  0  0  0  0  0  0  0  0  0
  -30.1242  -23.6497   17.7200 C   0  0  0  0  0  0  0  0  0  0  0  0
  -31.6688  -21.2517   17.4356 C   0  0  0  0  0  0  0  0  0  0  0  0
  -29.2023  -24.8456   17.9280 C   0  0  0  0  0  0  0  0  0  1  0  0
  -20.4351  -23.7849   17.7772 C   0  0  1  0  0  0  0  0  0  0  0  0
  -19.5230  -24.9460   14.2858 C   0  0  2  0  0  0  0  0  0  0  0  0
  -19.6439  -22.6369   18.4652 C   0  0  0  0  0  0  0  0  0  0  0  0
  -25.8541  -11.5914   20.3620 N   0  0  0  0  0  0  0  0  0  0  0  0
  -26.2559  -12.8647   20.2090 N   0  0  0  0  0  0  0  0  0  0  0  0
  -22.0126  -25.2856   18.9533 N   0  0  0  0  0  0  0  0  0  0  0  0
  -29.9980  -13.5818   20.5833 N   0  0  0  0  0  0  0  0  0  0  0  0
  -25.5155  -15.1098   20.3576 N   0  0  0  0  0  0  0  0  0  0  0  0
  -21.8482  -12.7266   21.4836 N   0  0  0  0  0  0  0  0  0  0  0  0
  -22.8367  -26.3096   22.3546 N   0  0  0  0  0  0  0  0  0  0  0  0
  -19.7861  -24.3297   16.5896 N   0  0  0  0  0  0  0  0  0  0  0  0
  -30.4226  -21.2248   18.2173 N   0  0  0  0  0  0  0  0  0  0  0  0
  -30.4102  -15.7317   21.5560 N   0  0  0  0  0  0  0  0  0  0  0  0
  -20.3554  -25.6605   13.2771 N   0  3  0  0  0  0  0  0  0  0  0  0
  -22.6678  -14.8450   21.1684 O   0  0  0  0  0  0  0  0  0  0  0  0
  -22.5996  -24.2838   21.2309 O   0  0  0  0  0  0  0  0  0  0  0  0
  -19.7076  -25.5555   19.1780 O   0  0  0  0  0  0  0  0  0  0  0  0
  -28.5566  -22.4000   19.0199 O   0  0  0  0  0  0  0  0  0  0  0  0
  -21.5288  -23.8917   15.1239 O   0  0  0  0  0  0  0  0  0  0  0  0
  -31.9978  -14.0622   21.6264 O   0  0  0  0  0  0  0  0  0  0  0  0
  -21.4835   -7.1742   21.7529 O   0  0  0  0  0  0  0  0  0  0  0  0
  -27.9265  -24.5687   17.3517 O   0  0  0  0  0  0  0  0  0  1  0  0
  -23.7384   -3.1771   24.8096 F   0  0  0  0  0  0  0  0  0  0  0  0
  -28.5660  -18.8671   21.9978 F   0  0  0  0  0  0  0  0  0  0  0  0
  -20.3308   -6.3939   24.1415 F   0  0  0  0  0  0  0  0  0  0  0  0
  1  2  1  0  0  0  0
  1  5  2  0  0  0  0
  2  6  2  0  0  0  0
  3 10  2  0  0  0  0
  3 18  1  0  0  0  0
  4 11  1  0  0  0  0
  4 18  2  0  0  0  0
  5 20  1  0  0  0  0
  6 22  1  0  0  0  0
  7 12  2  0  0  0  0
  7 21  1  0  0  0  0
  8  9  2  0  0  0  0
  8 24  1  0  0  0  0
  9 25  1  0  0  0  0
 10 26  1  0  0  0  0
 11 26  2  0  0  0  0
 12 27  1  0  0  0  0
 13 14  2  0  0  0  0
 13 28  1  0  0  0  0
 14 29  1  0  0  0  0
 15 23  1  0  0  0  0
 15 27  2  0  0  0  0
 16 25  2  0  0  0  0
 16 30  1  0  0  0  0
 17 29  2  0  0  0  0
 17 31  1  0  0  0  0
 18 32  1  0  0  0  0
 19 32  1  0  0  0  0
 19 33  2  0  0  0  0
 19 34  1  0  0  0  0
 20 22  2  0  0  0  0
 20 40  1  0  0  0  0
 21 23  2  0  0  0  0
 21 41  1  0  0  0  0
 22 49  1  0  0  0  0
 23 42  1  0  0  0  0
 24 30  2  0  0  0  0
 24 59  1  0  0  0  0
 25 74  1  0  0  0  0
 26 83  1  0  0  0  0
 27 84  1  0  0  0  0
 28 31  2  0  0  0  0
 28 83  1  0  0  0  0
 29 85  1  0  0  0  0
 30 86  1  0  0  0  0
 31 87  1  0  0  0  0
 32 66  2  0  0  0  0
 33 67  1  0  0  0  0
 33 70  1  0  0  0  0
 34 71  1  0  0  0  0
 34 77  2  0  0  0  0
 35 50  1  0  0  0  0
 35 72  1  0  0  0  0
 35 78  2  0  0  0  0
 36 63  1  0  0  0  0
 36 68  1  0  0  0  0
 36 79  2  0  0  0  0
 37 60  1  0  0  0  0
 37 74  1  0  0  0  0
 37 80  2  0  0  0  0
 38 64  1  0  0  0  0
 38 73  1  0  0  0  0
 38 81  2  0  0  0  0
 39 69  1  0  0  0  0
 39 75  1  0  0  0  0
 39 82  2  0  0  0  0
 40 43  1  0  0  0  0
 41 50  1  0  0  0  0
 42 68  1  0  0  0  0
 43 45  1  0  0  0  0
 44 46  1  0  0  0  0
 44 47  1  0  0  0  0
 45 49  1  0  0  0  0
 46 51  1  0  0  0  0
 47 69  1  0  0  0  0
 48 51  1  0  0  0  0
 48 69  1  0  0  0  0
 49 72  1  0  0  0  0
 50 68  1  0  0  0  0
 51 67  1  0  0  0  0
 52 61  1  0  0  0  0
 53 64  1  0  0  0  0
 54 65  1  0  0  0  0
 55 65  1  0  0  0  0
 56 65  1  0  0  0  0
 57 75  1  0  0  0  0
 58 76  1  0  0  0  0
 59 75  1  0  0  0  0
 60 62  1  0  0  0  0
 61 74  1  0  0  0  0
 62 84  1  0  0  0  0
 63 65  1  0  0  0  0
 63 73  1  0  0  0  0
 64 76  1  0  0  0  0
 66 67  1  0  0  0  0
M  CHG  1  76   1
M  ISO  4  39 100  62 101  75 100  84 101
M  END
> <Batch ID>
0016

> <Smiles>
CCN(C(=O)C[101CH2:1][101O:1]c1ccc2c(c1)CN(C(=O)C(NC(=O)C(C)NC)C(C)(C)C)C(C(=O)NC1CCCc3ccccc31)C2)c1ccc(C[100N:0](C)[100C:0](=O)N2CCCC(n3nc(-c4ccc(Oc5ccc(F)cc5F)cc4)c(C(N)=O)c3N)C2)c(F)c1

> <Shape>
0.260

> <Color>
0.199

> <Negative vol penalty>
0.000

$$$$

  -OEChem-04042320573D

 88 96  0     1  0  0  0  0  0999 V2000
  -16.8013  -28.3049   23.1855 C   0  0  0  0  0  0  0  0  0  0  0  0
  -17.3154  -28.9150   22.0458 C   0  0  0  0  0  0  0  0  0  0  0  0
  -30.6532  -12.3084   20.1102 C   0  0  0  0  0  0  0  0  0  0  0  0
  -30.0131  -12.7317   17.8193 C   0  0  0  0  0  0  0  0  0  0  0  0
  -17.4570  -28.4484   24.4076 C   0  0  0  0  0  0  0  0  0  0  0  0
  -18.4849  -29.6700   22.1278 C   0  0  0  0  0  0  0  0  0  0  0  0
  -25.1846  -28.9587   18.1737 C   0  0  0  0  0  0  0  0  0  0  0  0
  -26.5829  -20.5147   21.7207 C   0  0  0  0  0  0  0  0  0  0  0  0
  -27.0220  -21.3005   20.6553 C   0  0  0  0  0  0  0  0  0  0  0  0
  -31.0092  -11.0035   19.7697 C   0  0  0  0  0  0  0  0  0  0  0  0
  -30.3691  -11.4267   17.4788 C   0  0  0  0  0  0  0  0  0  0  0  0
  -26.4722  -28.8347   17.6513 C   0  0  0  0  0  0  0  0  0  0  0  0
  -29.4423   -8.0645   19.1936 C   0  0  0  0  0  0  0  0  0  0  0  0
  -29.0257   -7.0379   20.0409 C   0  0  0  0  0  0  0  0  0  0  0  0
  -27.3876  -29.8768   19.6323 C   0  0  0  0  0  0  0  0  0  0  0  0
  -28.7929  -20.5982   22.6933 C   0  0  0  0  0  0  0  0  0  0  0  0
  -31.3296   -6.4205   20.4257 C   0  0  0  0  0  0  0  0  0  0  0  0
  -30.1551  -13.1725   19.1350 C   0  0  0  0  0  0  0  0  0  0  0  0
  -30.6127  -15.6602   19.4659 C   0  0  0  0  0  0  0  0  0  0  0  0
  -18.6404  -29.1974   24.5027 C   0  0  0  0  0  0  0  0  0  0  0  0
  -24.9948  -29.5289   19.4355 C   0  0  0  0  0  0  0  0  0  0  0  0
  -19.1563  -29.8247   23.3525 C   0  0  0  0  0  0  0  0  0  0  0  0
  -26.1013  -29.9922   20.1660 C   0  0  0  0  0  0  0  0  0  0  0  0
  -27.4683  -20.1636   22.7398 C   0  0  0  0  0  0  0  0  0  0  0  0
  -28.3466  -21.7352   20.6088 C   0  0  0  0  0  0  0  0  0  0  0  0
  -30.8671  -10.5626   18.4540 C   0  0  0  0  0  0  0  0  0  0  0  0
  -27.5709  -29.2929   18.3788 C   0  0  0  0  0  0  0  0  0  0  0  0
  -30.8026   -8.2692   18.9622 C   0  0  0  0  0  0  0  0  0  0  0  0
  -29.9693   -6.2159   20.6570 C   0  0  0  0  0  0  0  0  0  0  0  0
  -31.7462   -7.4472   19.5783 C   0  0  0  0  0  0  0  0  0  0  0  0
  -29.2321  -21.3840   21.6278 C   0  0  0  0  0  0  0  0  0  0  0  0
  -29.7867  -14.5205   19.4863 C   0  0  0  0  0  0  0  0  0  0  0  0
  -29.7964  -16.6834   19.8821 C   0  0  0  0  0  0  0  0  0  0  0  0
  -31.9944  -15.7832   19.1030 C   0  0  0  0  0  0  0  0  0  0  0  0
  -22.5691  -30.5219   22.1199 C   0  0  0  0  0  0  0  0  0  0  0  0
  -25.0214  -29.3349   23.5296 C   0  0  0  0  0  0  0  0  0  0  0  0
  -29.2648  -23.8412   19.7429 C   0  0  0  0  0  0  0  0  0  0  0  0
  -27.7158  -27.5815   24.6710 C   0  0  0  0  0  0  0  0  0  0  0  0
  -25.9862  -18.3958   23.7244 C   0  0  0  0  0  0  0  0  0  0  0  0
  -19.2879  -29.3633   25.8547 C   0  0  0  0  0  0  0  0  0  0  0  0
  -23.6204  -29.7385   20.0109 C   0  0  0  0  0  0  0  0  0  0  0  0
  -25.8463  -30.6303   21.5042 C   0  0  0  0  0  0  0  0  0  0  0  0
  -20.7262  -29.8697   25.7832 C   0  0  0  0  0  0  0  0  0  0  0  0
  -24.7999  -16.8903   20.5591 C   0  0  0  0  0  0  0  0  0  0  0  0
  -20.8304  -31.0468   24.8187 C   0  0  0  0  0  0  0  0  0  0  0  0
  -26.0404  -16.1635   20.0432 C   0  0  0  0  0  0  0  0  0  0  0  0
  -24.7907  -16.9841   22.0819 C   0  0  0  0  0  0  0  0  0  0  0  0
  -27.2664  -16.8848   22.1309 C   0  0  0  0  0  0  0  0  0  0  0  0
  -20.4361  -30.6311   23.3963 C   0  0  1  0  0  0  0  0  0  0  0  0
  -23.5745  -29.5709   21.5403 C   0  0  1  0  0  0  0  0  0  0  0  0
  -27.3192  -16.8128   20.5974 C   0  0  1  0  0  0  0  0  0  0  0  0
  -28.7713  -26.7509   26.7908 C   0  0  0  0  0  0  0  0  0  0  0  0
  -26.0101  -32.1556   24.1382 C   0  0  0  0  0  0  0  0  0  0  0  0
  -27.7581  -31.1468   25.6198 C   0  0  0  0  0  0  0  0  0  0  0  0
  -25.3413  -30.8277   26.1491 C   0  0  0  0  0  0  0  0  0  0  0  0
  -28.6638  -21.9973   18.1389 C   0  0  0  0  0  0  0  0  0  0  0  0
  -27.4541  -19.7142   25.1869 C   0  0  0  0  0  0  0  0  0  0  0  0
  -27.4827  -24.7573   23.8174 C   0  0  0  0  0  0  0  0  0  0  0  0
  -29.6383  -24.6309   18.5020 C   0  0  0  0  0  0  0  0  0  0  0  0
  -31.0003  -28.1911   18.1408 C   0  0  0  0  0  0  0  0  0  0  0  0
  -30.5525  -26.8089   17.6901 C   0  0  0  0  0  0  0  0  0  0  0  0
  -29.8954  -29.0101   18.7966 C   0  0  0  0  0  0  0  0  0  1  0  0
  -26.3533  -29.5971   24.1860 C   0  0  1  0  0  0  0  0  0  0  0  0
  -27.8246  -26.4235   25.6465 C   0  0  2  0  0  0  0  0  0  0  0  0
  -26.3638  -30.9243   24.9959 C   0  0  0  0  0  0  0  0  0  0  0  0
  -28.5412  -14.7934   19.8842 N   0  0  0  0  0  0  0  0  0  0  0  0
  -28.5786  -16.1163   20.1177 N   0  0  0  0  0  0  0  0  0  0  0  0
  -24.8357  -29.8584   22.2443 N   0  0  0  0  0  0  0  0  0  0  0  0
  -26.0385  -17.5485   22.5986 N   0  0  0  0  0  0  0  0  0  0  0  0
  -30.0087  -18.0038   20.0660 N   0  0  0  0  0  0  0  0  0  0  0  0
  -32.6839  -14.6320   18.6985 N   0  0  0  0  0  0  0  0  0  0  0  0
  -21.5156  -29.9027   22.7650 N   0  0  0  0  0  0  0  0  0  0  0  0
  -26.6582  -28.4109   24.9787 N   0  0  0  0  0  0  0  0  0  0  0  0
  -28.7634  -22.5387   19.5043 N   0  0  0  0  0  0  0  0  0  0  0  0
  -27.0135  -19.3515   23.8417 N   0  0  0  0  0  0  0  0  0  0  0  0
  -28.3309  -25.2064   24.9513 N   0  3  0  0  0  0  0  0  0  0  0  0
  -30.1095  -25.9999   18.8498 N   0  3  0  0  0  0  0  0  0  0  0  0
  -32.6039  -16.8784   19.1523 O   0  0  0  0  0  0  0  0  0  0  0  0
  -22.7364  -31.7293   21.9931 O   0  0  0  0  0  0  0  0  0  0  0  0
  -24.1651  -28.6888   24.1399 O   0  0  0  0  0  0  0  0  0  0  0  0
  -29.3824  -24.3721   20.8502 O   0  0  0  0  0  0  0  0  0  0  0  0
  -28.4937  -27.7370   23.7322 O   0  0  0  0  0  0  0  0  0  0  0  0
  -25.1162  -18.2737   24.5955 O   0  0  0  0  0  0  0  0  0  0  0  0
  -31.2146   -9.2893   18.1213 O   0  0  0  0  0  0  0  0  0  0  0  0
  -28.8256  -29.1646   17.8649 O   0  0  0  0  0  0  0  0  0  1  0  0
  -29.5692   -5.2310   21.4719 F   0  0  0  0  0  0  0  0  0  0  0  0
  -33.0544   -7.6397   19.3608 F   0  0  0  0  0  0  0  0  0  0  0  0
  -30.8804  -21.9013   21.6091 Cl  0  0  0  0  0  0  0  0  0  0  0  0
  1  2  1  0  0  0  0
  1  5  2  0  0  0  0
  2  6  2  0  0  0  0
  3 10  2  0  0  0  0
  3 18  1  0  0  0  0
  4 11  1  0  0  0  0
  4 18  2  0  0  0  0
  5 20  1  0  0  0  0
  6 22  1  0  0  0  0
  7 12  2  0  0  0  0
  7 21  1  0  0  0  0
  8  9  2  0  0  0  0
  8 24  1  0  0  0  0
  9 25  1  0  0  0  0
 10 26  1  0  0  0  0
 11 26  2  0  0  0  0
 12 27  1  0  0  0  0
 13 14  2  0  0  0  0
 13 28  1  0  0  0  0
 14 29  1  0  0  0  0
 15 23  1  0  0  0  0
 15 27  2  0  0  0  0
 16 24  2  0  0  0  0
 16 31  1  0  0  0  0
 17 29  2  0  0  0  0
 17 30  1  0  0  0  0
 18 32  1  0  0  0  0
 19 32  1  0  0  0  0
 19 33  2  0  0  0  0
 19 34  1  0  0  0  0
 20 22  2  0  0  0  0
 20 40  1  0  0  0  0
 21 23  2  0  0  0  0
 21 41  1  0  0  0  0
 22 49  1  0  0  0  0
 23 42  1  0  0  0  0
 24 75  1  0  0  0  0
 25 31  2  0  0  0  0
 25 74  1  0  0  0  0
 26 84  1  0  0  0  0
 27 85  1  0  0  0  0
 28 30  2  0  0  0  0
 28 84  1  0  0  0  0
 29 86  1  0  0  0  0
 30 87  1  0  0  0  0
 31 88  1  0  0  0  0
 32 66  2  0  0  0  0
 33 67  1  0  0  0  0
 33 70  1  0  0  0  0
 34 71  1  0  0  0  0
 34 78  2  0  0  0  0
 35 50  1  0  0  0  0
 35 72  1  0  0  0  0
 35 79  2  0  0  0  0
 36 63  1  0  0  0  0
 36 68  1  0  0  0  0
 36 80  2  0  0  0  0
 37 59  1  0  0  0  0
 37 74  1  0  0  0  0
 37 81  2  0  0  0  0
 38 64  1  0  0  0  0
 38 73  1  0  0  0  0
 38 82  2  0  0  0  0
 39 69  1  0  0  0  0
 39 75  1  0  0  0  0
 39 83  2  0  0  0  0
 40 43  1  0  0  0  0
 41 50  1  0  0  0  0
 42 68  1  0  0  0  0
 43 45  1  0  0  0  0
 44 46  1  0  0  0  0
 44 47  1  0  0  0  0
 45 49  1  0  0  0  0
 46 51  1  0  0  0  0
 47 69  1  0  0  0  0
 48 51  1  0  0  0  0
 48 69  1  0  0  0  0
 49 72  1  0  0  0  0
 50 68  1  0  0  0  0
 51 67  1  0  0  0  0
 52 64  1  0  0  0  0
 53 65  1  0  0  0  0
 54 65  1  0  0  0  0
 55 65  1  0  0  0  0
 56 74  1  0  0  0  0
 57 75  1  0  0  0  0
 58 76  1  0  0  0  0
 59 77  1  0  0  0  0
 60 61  1  0  0  0  0
 60 62  1  0  0  0  0
 61 77  1  0  0  0  0
 62 85  1  0  0  0  0
 63 65  1  0  0  0  0
 63 73  1  0  0  0  0
 64 76  1  0  0  0  0
 66 67  1  0  0  0  0
M  CHG  2  76   1  77   1
M  ISO  4  39 100  62 101  75 100  85 101
M  END
> <Batch ID>
0016

> <Smiles>
CNC(C)C(=O)NC(C(=O)N1Cc2cc([101O:1][101CH2:1]CCNCC(=O)N(C)c3ccc([100N:0](C)[100C:0](=O)N4CCCC(n5nc(-c6ccc(Oc7ccc(F)cc7F)cc6)c(C(N)=O)c5N)C4)cc3Cl)ccc2CC1C(=O)NC1CCCc2ccccc21)C(C)(C)C

> <Shape>
0.241

> <Color>
0.087

> <Negative vol penalty>
0.000

$$$$

  -OEChem-04042320573D

 84 92  0     1  0  0  0  0  0999 V2000
  -20.0717  -11.9678   24.3274 C   0  0  0  0  0  0  0  0  0  0  0  0
  -21.1165  -12.7276   24.8436 C   0  0  0  0  0  0  0  0  0  0  0  0
  -22.3612  -30.0534   19.9675 C   0  0  0  0  0  0  0  0  0  0  0  0
  -22.6198  -28.7609   21.9922 C   0  0  0  0  0  0  0  0  0  0  0  0
  -20.2799  -11.1720   23.2017 C   0  0  0  0  0  0  0  0  0  0  0  0
  -22.3706  -12.6912   24.2349 C   0  0  0  0  0  0  0  0  0  0  0  0
  -24.4080  -17.2971   23.7064 C   0  0  0  0  0  0  0  0  0  0  0  0
  -30.2350  -23.1676   21.2789 C   0  0  0  0  0  0  0  0  0  0  0  0
  -20.9897  -29.7996   19.9806 C   0  0  0  0  0  0  0  0  0  0  0  0
  -21.2483  -28.5071   22.0053 C   0  0  0  0  0  0  0  0  0  0  0  0
  -24.9823  -17.8731   24.8388 C   0  0  0  0  0  0  0  0  0  0  0  0
  -18.4225  -30.1421   22.8783 C   0  0  0  0  0  0  0  0  0  0  0  0
  -30.4376  -21.9550   21.9377 C   0  0  0  0  0  0  0  0  0  0  0  0
  -17.7513  -30.2789   24.0933 C   0  0  0  0  0  0  0  0  0  0  0  0
  -27.1683  -17.2211   24.0542 C   0  0  0  0  0  0  0  0  0  0  0  0
  -29.1326  -24.0488   23.2399 C   0  0  0  0  0  0  0  0  0  0  0  0
  -17.0901  -27.9574   23.9892 C   0  0  0  0  0  0  0  0  0  0  0  0
  -23.1763  -29.5340   20.9733 C   0  0  0  0  0  0  0  0  0  0  0  0
  -25.2641  -30.8756   21.5641 C   0  0  0  0  0  0  0  0  0  0  0  0
  -21.5345  -11.1333   22.5731 C   0  0  0  0  0  0  0  0  0  0  0  0
  -25.2099  -16.6683   22.7432 C   0  0  0  0  0  0  0  0  0  0  0  0
  -22.5961  -11.8931   23.1005 C   0  0  0  0  0  0  0  0  0  0  0  0
  -26.6019  -16.6403   22.9093 C   0  0  0  0  0  0  0  0  0  0  0  0
  -29.3351  -22.8361   23.8986 C   0  0  0  0  0  0  0  0  0  0  0  0
  -29.5826  -24.2146   21.9300 C   0  0  0  0  0  0  0  0  0  0  0  0
  -20.4333  -29.0264   20.9995 C   0  0  0  0  0  0  0  0  0  0  0  0
  -26.3624  -17.8326   25.0142 C   0  0  0  0  0  0  0  0  0  0  0  0
  -18.4275  -28.9131   22.2186 C   0  0  0  0  0  0  0  0  0  0  0  0
  -17.0851  -29.1865   24.6488 C   0  0  0  0  0  0  0  0  0  0  0  0
  -29.9876  -21.7892   23.2475 C   0  0  0  0  0  0  0  0  0  0  0  0
  -17.7613  -27.8207   22.7741 C   0  0  0  0  0  0  0  0  0  0  0  0
  -24.5932  -29.7954   20.9600 C   0  0  0  0  0  0  0  0  0  0  0  0
  -26.5883  -30.6686   21.2638 C   0  0  0  0  0  0  0  0  0  0  0  0
  -24.7374  -31.9683   22.3284 C   0  0  0  0  0  0  0  0  0  0  0  0
  -25.4448  -13.7098   21.6047 C   0  0  0  0  0  0  0  0  0  0  0  0
  -27.5341  -15.0871   19.5407 C   0  0  0  0  0  0  0  0  0  0  0  0
  -29.6947  -17.6453   18.8815 C   0  0  0  0  0  0  0  0  0  0  0  0
  -29.7623  -25.7762   19.9614 C   0  0  0  0  0  0  0  0  0  0  0  0
  -21.7243  -10.2216   21.3868 C   0  0  0  0  0  0  0  0  0  0  0  0
  -24.5773  -16.0752   21.5142 C   0  0  0  0  0  0  0  0  0  0  0  0
  -27.5088  -15.9951   21.8945 C   0  0  0  0  0  0  0  0  0  0  0  0
  -22.9822  -10.5280   20.5782 C   0  0  0  0  0  0  0  0  0  0  0  0
  -29.4088  -28.6858   17.9399 C   0  0  0  0  0  0  0  0  0  0  0  0
  -24.1799  -10.7145   21.5042 C   0  0  0  0  0  0  0  0  0  0  0  0
  -28.1985  -29.4019   18.5437 C   0  0  0  0  0  0  0  0  0  0  0  0
  -29.2422  -27.1675   17.9693 C   0  0  0  0  0  0  0  0  0  0  0  0
  -27.7064  -27.3202   19.8895 C   0  0  0  0  0  0  0  0  0  0  0  0
  -23.9641  -11.8993   22.4535 C   0  0  1  0  0  0  0  0  0  0  0  0
  -25.4443  -15.0096   20.8508 C   0  0  1  0  0  0  0  0  0  0  0  0
  -27.8562  -28.8494   19.9413 C   0  0  2  0  0  0  0  0  0  0  0  0
  -31.2847  -18.4785   17.1279 C   0  0  0  0  0  0  0  0  0  0  0  0
  -29.5651  -12.9705   20.3799 C   0  0  0  0  0  0  0  0  0  0  0  0
  -31.3592  -14.3871   19.3589 C   0  0  0  0  0  0  0  0  0  0  0  0
  -29.5315  -13.4705   17.9298 C   0  0  0  0  0  0  0  0  0  0  0  0
  -28.1650  -20.1530   18.5206 C   0  0  0  0  0  0  0  0  0  0  0  0
  -26.3899  -22.5687   24.9428 C   0  0  0  0  0  0  0  0  0  0  0  0
  -28.8514  -22.6603   25.3079 C   0  0  0  0  0  0  0  0  0  0  0  0
  -28.4216  -20.0693   26.9594 C   0  0  0  0  0  0  0  0  0  0  0  0
  -27.4328  -21.2058   26.7475 C   0  0  0  0  0  0  0  0  0  0  0  0
  -28.2469  -18.9143   25.9810 C   0  0  0  0  0  0  0  0  0  1  0  0
  -29.0205  -15.3507   19.5410 C   0  0  1  0  0  0  0  0  0  0  0  0
  -29.8619  -18.5337   17.6620 C   0  0  2  0  0  0  0  0  0  0  0  0
  -29.8521  -14.0552   19.3226 C   0  0  0  0  0  0  0  0  0  0  0  0
  -25.4227  -28.9640   20.3238 N   0  0  0  0  0  0  0  0  0  0  0  0
  -26.6284  -29.5218   20.5265 N   0  0  0  0  0  0  0  0  0  0  0  0
  -26.8421  -15.4236   20.7128 N   0  0  0  0  0  0  0  0  0  0  0  0
  -28.9236  -26.7159   19.3255 N   0  0  0  0  0  0  0  0  0  0  0  0
  -27.7105  -31.3574   21.5610 N   0  0  0  0  0  0  0  0  0  0  0  0
  -23.3536  -32.0282   22.5425 N   0  0  0  0  0  0  0  0  0  0  0  0
  -29.3778  -25.4466   21.2607 N   0  0  0  0  0  0  0  0  0  0  0  0
  -24.1913  -13.1496   21.7610 N   0  0  0  0  0  0  0  0  0  0  0  0
  -29.2518  -16.3853   18.5387 N   0  0  0  0  0  0  0  0  0  0  0  0
  -29.5429  -19.9486   18.0043 N   0  3  0  0  0  0  0  0  0  0  0  0
  -27.6092  -21.8076   25.4050 N   0  3  1  0  0  0  0  0  0  0  0  0
  -25.4704  -32.8739   22.7934 O   0  0  0  0  0  0  0  0  0  0  0  0
  -26.5042  -13.2486   22.0130 O   0  0  0  0  0  0  0  0  0  0  0  0
  -27.0052  -14.6073   18.5348 O   0  0  0  0  0  0  0  0  0  0  0  0
  -29.9367  -18.0294   20.0237 O   0  0  0  0  0  0  0  0  0  0  0  0
  -30.7643  -25.3197   19.4052 O   0  0  0  0  0  0  0  0  0  0  0  0
  -19.0950  -28.7788   21.0128 O   0  0  0  0  0  0  0  0  0  0  0  0
  -26.9255  -18.3934   26.1189 O   0  0  0  0  0  0  0  0  0  1  0  0
  -16.4419  -29.3176   25.8164 F   0  0  0  0  0  0  0  0  0  0  0  0
  -30.1859  -20.6198   23.8718 F   0  0  0  0  0  0  0  0  0  0  0  0
  -17.7635  -26.6372   22.1456 F   0  0  0  0  0  0  0  0  0  0  0  0
  1  2  1  0  0  0  0
  1  5  2  0  0  0  0
  2  6  2  0  0  0  0
  3  9  2  0  0  0  0
  3 18  1  0  0  0  0
  4 10  1  0  0  0  0
  4 18  2  0  0  0  0
  5 20  1  0  0  0  0
  6 22  1  0  0  0  0
  7 11  2  0  0  0  0
  7 21  1  0  0  0  0
  8 13  2  0  0  0  0
  8 25  1  0  0  0  0
  9 26  1  0  0  0  0
 10 26  2  0  0  0  0
 11 27  1  0  0  0  0
 12 14  2  0  0  0  0
 12 28  1  0  0  0  0
 13 30  1  0  0  0  0
 14 29  1  0  0  0  0
 15 23  1  0  0  0  0
 15 27  2  0  0  0  0
 16 24  1  0  0  0  0
 16 25  2  0  0  0  0
 17 29  2  0  0  0  0
 17 31  1  0  0  0  0
 18 32  1  0  0  0  0
 19 32  1  0  0  0  0
 19 33  2  0  0  0  0
 19 34  1  0  0  0  0
 20 22  2  0  0  0  0
 20 39  1  0  0  0  0
 21 23  2  0  0  0  0
 21 40  1  0  0  0  0
 22 48  1  0  0  0  0
 23 41  1  0  0  0  0
 24 30  2  0  0  0  0
 24 57  1  0  0  0  0
 25 70  1  0  0  0  0
 26 80  1  0  0  0  0
 27 81  1  0  0  0  0
 28 31  2  0  0  0  0
 28 80  1  0  0  0  0
 29 82  1  0  0  0  0
 30 83  1  0  0  0  0
 31 84  1  0  0  0  0
 32 64  2  0  0  0  0
 33 65  1  0  0  0  0
 33 68  1  0  0  0  0
 34 69  1  0  0  0  0
 34 75  2  0  0  0  0
 35 49  1  0  0  0  0
 35 71  1  0  0  0  0
 35 76  2  0  0  0  0
 36 61  1  0  0  0  0
 36 66  1  0  0  0  0
 36 77  2  0  0  0  0
 37 62  1  0  0  0  0
 37 72  1  0  0  0  0
 37 78  2  0  0  0  0
 38 67  1  0  0  0  0
 38 70  1  0  0  0  0
 38 79  2  0  0  0  0
 39 42  1  0  0  0  0
 40 49  1  0  0  0  0
 41 66  1  0  0  0  0
 42 44  1  0  0  0  0
 43 45  1  0  0  0  0
 43 46  1  0  0  0  0
 44 48  1  0  0  0  0
 45 50  1  0  0  0  0
 46 67  1  0  0  0  0
 47 50  1  0  0  0  0
 47 67  1  0  0  0  0
 48 71  1  0  0  0  0
 49 66  1  0  0  0  0
 50 65  1  0  0  0  0
 51 62  1  0  0  0  0
 52 63  1  0  0  0  0
 53 63  1  0  0  0  0
 54 63  1  0  0  0  0
 55 73  1  0  0  0  0
 56 74  1  0  0  0  0
 57 74  1  0  0  0  0
 58 59  1  0  0  0  0
 58 60  1  0  0  0  0
 59 74  1  0  0  0  0
 60 81  1  0  0  0  0
 61 63  1  0  0  0  0
 61 72  1  0  0  0  0
 62 73  1  0  0  0  0
 64 65  1  0  0  0  0
M  CHG  2  73   1  74   1
M  ISO  4  38 100  60 101  70 100  81 101
M  END
> <Batch ID>
0016

> <Smiles>
CNC(C)C(=O)NC(C(=O)N1Cc2cc([101O:1][101CH2:1]CCN(C)Cc3cc([100NH:0][100C:0](=O)N4CCCC(n5nc(-c6ccc(Oc7ccc(F)cc7F)cc6)c(C(N)=O)c5N)C4)ccc3F)ccc2CC1C(=O)NC1CCCc2ccccc21)C(C)(C)C

> <Shape>
0.257

> <Color>
0.058

> <Negative vol penalty>
0.000

$$$$

  -OEChem-04042320573D

 85 93  0     1  0  0  0  0  0999 V2000
  -32.0183  -28.8689   20.3292 C   0  0  0  0  0  0  0  0  0  0  0  0
  -30.8743  -28.2071   19.8950 C   0  0  0  0  0  0  0  0  0  0  0  0
  -26.8342  -21.6101   23.3778 C   0  0  0  0  0  0  0  0  0  0  0  0
  -22.1556  -10.9638   20.6670 C   0  0  0  0  0  0  0  0  0  0  0  0
  -23.9796  -10.3051   22.1079 C   0  0  0  0  0  0  0  0  0  0  0  0
  -32.0363  -29.4778   21.5834 C   0  0  0  0  0  0  0  0  0  0  0  0
  -29.7479  -28.1528   20.7152 C   0  0  0  0  0  0  0  0  0  0  0  0
  -25.4625  -29.1209   18.1967 C   0  0  0  0  0  0  0  0  0  0  0  0
  -26.6936  -22.3157   22.1828 C   0  0  0  0  0  0  0  0  0  0  0  0
  -27.0473  -20.2318   23.3530 C   0  0  0  0  0  0  0  0  0  0  0  0
  -21.7399   -9.6349   20.5857 C   0  0  0  0  0  0  0  0  0  0  0  0
  -23.5639   -8.9761   22.0267 C   0  0  0  0  0  0  0  0  0  0  0  0
  -24.9356  -28.0919   17.4173 C   0  0  0  0  0  0  0  0  0  0  0  0
  -21.1759   -7.0260   23.4106 C   0  0  0  0  0  0  0  0  0  0  0  0
  -21.1316   -6.2889   24.5939 C   0  0  0  0  0  0  0  0  0  0  0  0
  -23.3563  -27.5826   19.1681 C   0  0  0  0  0  0  0  0  0  0  0  0
  -26.9791  -20.2646   20.9382 C   0  0  0  0  0  0  0  0  0  0  0  0
  -22.7255   -4.7215   23.6773 C   0  0  0  0  0  0  0  0  0  0  0  0
  -23.2756  -11.2990   21.4281 C   0  0  0  0  0  0  0  0  0  0  0  0
  -23.3043  -13.6319   22.4597 C   0  0  0  0  0  0  0  0  0  0  0  0
  -30.9063  -29.4392   22.4154 C   0  0  0  0  0  0  0  0  0  0  0  0
  -24.9465  -29.3818   19.4742 C   0  0  0  0  0  0  0  0  0  0  0  0
  -29.7513  -28.7606   21.9822 C   0  0  0  0  0  0  0  0  0  0  0  0
  -23.8766  -28.6171   19.9607 C   0  0  0  0  0  0  0  0  0  0  0  0
  -26.7661  -21.6429   20.9630 C   0  0  0  0  0  0  0  0  0  0  0  0
  -27.1197  -19.5591   22.1333 C   0  0  0  0  0  0  0  0  0  0  0  0
  -22.4440   -8.6410   21.2655 C   0  0  0  0  0  0  0  0  0  0  0  0
  -23.8843  -27.3207   17.9041 C   0  0  0  0  0  0  0  0  0  0  0  0
  -21.9949   -6.6108   22.3605 C   0  0  0  0  0  0  0  0  0  0  0  0
  -21.9064   -5.1367   24.7273 C   0  0  0  0  0  0  0  0  0  0  0  0
  -22.7697   -5.4586   22.4939 C   0  0  0  0  0  0  0  0  0  0  0  0
  -23.7059  -12.6715   21.5120 C   0  0  0  0  0  0  0  0  0  0  0  0
  -23.9921  -14.7681   22.1098 C   0  0  0  0  0  0  0  0  0  0  0  0
  -22.3912  -13.5080   23.5582 C   0  0  0  0  0  0  0  0  0  0  0  0
  -26.1259  -29.3202   22.4253 C   0  0  0  0  0  0  0  0  0  0  0  0
  -23.2272  -30.5584   23.1914 C   0  0  0  0  0  0  0  0  0  0  0  0
  -19.9362  -30.9482   22.3766 C   0  0  0  0  0  0  0  0  0  0  0  0
  -29.0453  -16.9173   20.6392 C   0  0  0  0  0  0  0  0  0  0  0  0
  -30.9893  -30.0714   23.7822 C   0  0  0  0  0  0  0  0  0  0  0  0
  -25.5081  -30.5126   20.2917 C   0  0  0  0  0  0  0  0  0  0  0  0
  -23.2735  -28.8698   21.3175 C   0  0  0  0  0  0  0  0  0  0  0  0
  -29.6272  -30.2897   24.4359 C   0  0  0  0  0  0  0  0  0  0  0  0
  -26.6890  -15.8666   17.9849 C   0  0  0  0  0  0  0  0  0  0  0  0
  -28.7655  -29.0378   24.3054 C   0  0  0  0  0  0  0  0  0  0  0  0
  -25.7160  -14.9639   18.7415 C   0  0  0  0  0  0  0  0  0  0  0  0
  -28.0735  -15.8715   18.6259 C   0  0  0  0  0  0  0  0  0  0  0  0
  -27.0936  -15.3211   20.8284 C   0  0  0  0  0  0  0  0  0  0  0  0
  -28.5011  -28.7012   22.8329 C   0  0  1  0  0  0  0  0  0  0  0  0
  -25.2459  -30.3571   21.7865 C   0  0  1  0  0  0  0  0  0  0  0  0
  -25.6766  -15.3300   20.2354 C   0  0  2  0  0  0  0  0  0  0  0  0
  -17.8074  -31.9777   23.2167 C   0  0  0  0  0  0  0  0  0  0  0  0
  -22.9372  -28.2978   25.2201 C   0  0  0  0  0  0  0  0  0  0  0  0
  -20.4870  -28.8011   25.3263 C   0  0  0  0  0  0  0  0  0  0  0  0
  -22.1449  -30.5293   26.0245 C   0  0  0  0  0  0  0  0  0  0  0  0
  -29.7595  -18.5337   22.3587 C   0  0  0  0  0  0  0  0  0  0  0  0
  -19.7141  -32.7053   20.0055 C   0  0  0  0  0  0  0  0  0  0  0  0
  -26.6162  -22.4034   19.6772 C   0  0  0  0  0  0  0  0  0  0  0  0
  -27.3469  -18.0851   22.1069 C   0  0  0  0  0  0  0  0  0  0  0  0
  -23.7970  -24.2230   16.0539 C   0  0  0  0  0  0  0  0  0  0  0  0
  -25.1764  -22.5020   19.1834 C   0  0  0  0  0  0  0  0  0  0  0  0
  -23.7556  -23.4219   17.3465 C   0  0  0  0  0  0  0  0  0  0  0  0
  -24.2579  -25.6634   16.2399 C   0  0  0  0  0  0  0  0  0  1  0  0
  -21.8845  -29.9816   23.5700 C   0  0  1  0  0  0  0  0  0  0  0  0
  -19.0430  -32.1754   22.3524 C   0  0  2  0  0  0  0  0  0  0  0  0
  -21.8758  -29.3962   25.0104 C   0  0  0  0  0  0  0  0  0  0  0  0
  -24.5808  -13.1554   20.6264 N   0  0  0  0  0  0  0  0  0  0  0  0
  -24.7347  -14.4324   21.0162 N   0  0  0  0  0  0  0  0  0  0  0  0
  -23.8614  -29.9826   22.0814 N   0  0  0  0  0  0  0  0  0  0  0  0
  -28.0026  -16.1799   20.0546 N   0  0  0  0  0  0  0  0  0  0  0  0
  -24.0280  -16.0116   22.6340 N   0  0  0  0  0  0  0  0  0  0  0  0
  -21.7714  -12.2698   23.7754 N   0  0  0  0  0  0  0  0  0  0  0  0
  -27.4783  -29.5703   22.2916 N   0  0  0  0  0  0  0  0  0  0  0  0
  -20.9078  -31.0428   23.3505 N   0  0  0  0  0  0  0  0  0  0  0  0
  -28.7150  -17.7407   21.7263 N   0  0  0  0  0  0  0  0  0  0  0  0
  -18.6005  -32.4665   20.9594 N   0  3  0  0  0  0  0  0  0  0  0  0
  -25.1091  -23.3199   17.9408 N   0  3  0  0  0  0  0  0  0  0  0  0
  -22.1200  -14.4713   24.3144 O   0  0  0  0  0  0  0  0  0  0  0  0
  -25.6157  -28.3648   22.9985 O   0  0  0  0  0  0  0  0  0  0  0  0
  -23.6929  -31.4905   23.8517 O   0  0  0  0  0  0  0  0  0  0  0  0
  -19.7846  -29.9988   21.6110 O   0  0  0  0  0  0  0  0  0  0  0  0
  -30.2035  -16.8513   20.2078 O   0  0  0  0  0  0  0  0  0  0  0  0
  -22.0384   -7.3442   21.1866 O   0  0  0  0  0  0  0  0  0  0  0  0
  -23.3687  -26.3153   17.1457 O   0  0  0  0  0  0  0  0  0  1  0  0
  -21.8650   -4.4298   25.8643 F   0  0  0  0  0  0  0  0  0  0  0  0
  -23.5594   -5.0555   21.4890 F   0  0  0  0  0  0  0  0  0  0  0  0
  1  2  1  0  0  0  0
  1  6  2  0  0  0  0
  2  7  2  0  0  0  0
  3  9  2  0  0  0  0
  3 10  1  0  0  0  0
  4 11  2  0  0  0  0
  4 19  1  0  0  0  0
  5 12  1  0  0  0  0
  5 19  2  0  0  0  0
  6 21  1  0  0  0  0
  7 23  1  0  0  0  0
  8 13  2  0  0  0  0
  8 22  1  0  0  0  0
  9 25  1  0  0  0  0
 10 26  2  0  0  0  0
 11 27  1  0  0  0  0
 12 27  2  0  0  0  0
 13 28  1  0  0  0  0
 14 15  2  0  0  0  0
 14 29  1  0  0  0  0
 15 30  1  0  0  0  0
 16 24  1  0  0  0  0
 16 28  2  0  0  0  0
 17 25  2  0  0  0  0
 17 26  1  0  0  0  0
 18 30  2  0  0  0  0
 18 31  1  0  0  0  0
 19 32  1  0  0  0  0
 20 32  1  0  0  0  0
 20 33  2  0  0  0  0
 20 34  1  0  0  0  0
 21 23  2  0  0  0  0
 21 39  1  0  0  0  0
 22 24  2  0  0  0  0
 22 40  1  0  0  0  0
 23 48  1  0  0  0  0
 24 41  1  0  0  0  0
 25 57  1  0  0  0  0
 26 58  1  0  0  0  0
 27 82  1  0  0  0  0
 28 83  1  0  0  0  0
 29 31  2  0  0  0  0
 29 82  1  0  0  0  0
 30 84  1  0  0  0  0
 31 85  1  0  0  0  0
 32 66  2  0  0  0  0
 33 67  1  0  0  0  0
 33 70  1  0  0  0  0
 34 71  1  0  0  0  0
 34 77  2  0  0  0  0
 35 49  1  0  0  0  0
 35 72  1  0  0  0  0
 35 78  2  0  0  0  0
 36 63  1  0  0  0  0
 36 68  1  0  0  0  0
 36 79  2  0  0  0  0
 37 64  1  0  0  0  0
 37 73  1  0  0  0  0
 37 80  2  0  0  0  0
 38 69  1  0  0  0  0
 38 74  1  0  0  0  0
 38 81  2  0  0  0  0
 39 42  1  0  0  0  0
 40 49  1  0  0  0  0
 41 68  1  0  0  0  0
 42 44  1  0  0  0  0
 43 45  1  0  0  0  0
 43 46  1  0  0  0  0
 44 48  1  0  0  0  0
 45 50  1  0  0  0  0
 46 69  1  0  0  0  0
 47 50  1  0  0  0  0
 47 69  1  0  0  0  0
 48 72  1  0  0  0  0
 49 68  1  0  0  0  0
 50 67  1  0  0  0  0
 51 64  1  0  0  0  0
 52 65  1  0  0  0  0
 53 65  1  0  0  0  0
 54 65  1  0  0  0  0
 55 74  1  0  0  0  0
 56 75  1  0  0  0  0
 57 60  1  0  0  0  0
 58 74  1  0  0  0  0
 59 61  1  0  0  0  0
 59 62  1  0  0  0  0
 60 76  1  0  0  0  0
 61 76  1  0  0  0  0
 62 83  1  0  0  0  0
 63 65  1  0  0  0  0
 63 73  1  0  0  0  0
 64 75  1  0  0  0  0
 66 67  1  0  0  0  0
M  CHG  2  75   1  76   1
M  ISO  4  38 100  62 101  74 100  83 101
M  END
> <Batch ID>
0016

> <Smiles>
CNC(C)C(=O)NC(C(=O)N1Cc2cc([101O:1][101CH2:1]CCNCCc3cccc(C[100N:0](C)[100C:0](=O)N4CCCC(n5nc(-c6ccc(Oc7ccc(F)cc7F)cc6)c(C(N)=O)c5N)C4)c3)ccc2CC1C(=O)NC1CCCc2ccccc21)C(C)(C)C

> <Shape>
0.227

> <Color>
0.072

> <Negative vol penalty>
0.000

$$$$

  -OEChem-04042320573D

 94103  0     1  0  0  0  0  0999 V2000
  -31.8087  -32.6001   24.9844 C   0  0  0  0  0  0  0  0  0  0  0  0
  -31.4201  -31.5319   24.1823 C   0  0  0  0  0  0  0  0  0  0  0  0
  -24.1068  -16.7968   19.9989 C   0  0  0  0  0  0  0  0  0  0  0  0
  -23.2222  -15.1761   18.4408 C   0  0  0  0  0  0  0  0  0  0  0  0
  -30.8883  -33.1932   25.8475 C   0  0  0  0  0  0  0  0  0  0  0  0
  -30.1110  -31.0555   24.2437 C   0  0  0  0  0  0  0  0  0  0  0  0
  -26.7977  -28.7887   19.6188 C   0  0  0  0  0  0  0  0  0  0  0  0
  -28.5653  -14.6849   23.2102 C   0  0  0  0  0  0  0  0  0  0  0  0
  -29.7024  -14.4204   22.4469 C   0  0  0  0  0  0  0  0  0  0  0  0
  -23.3325  -17.7923   19.4030 C   0  0  0  0  0  0  0  0  0  0  0  0
  -22.4478  -16.1715   17.8450 C   0  0  0  0  0  0  0  0  0  0  0  0
  -26.5220  -27.4833   19.2140 C   0  0  0  0  0  0  0  0  0  0  0  0
  -20.1111  -18.8174   19.4710 C   0  0  0  0  0  0  0  0  0  0  0  0
  -19.4171  -19.6885   20.3107 C   0  0  0  0  0  0  0  0  0  0  0  0
  -24.4407  -27.5517   20.4317 C   0  0  0  0  0  0  0  0  0  0  0  0
  -28.2442  -16.7588   22.0132 C   0  0  0  0  0  0  0  0  0  0  0  0
  -20.6196  -21.5583   19.3648 C   0  0  0  0  0  0  0  0  0  0  0  0
  -24.0517  -15.4887   19.5177 C   0  0  0  0  0  0  0  0  0  0  0  0
  -24.4862  -13.6268   21.2065 C   0  0  0  0  0  0  0  0  0  0  0  0
  -29.5647  -32.7301   25.9124 C   0  0  0  0  0  0  0  0  0  0  0  0
  -25.9006  -29.4827   20.4434 C   0  0  0  0  0  0  0  0  0  0  0  0
  -29.1724  -31.6421   25.1094 C   0  0  0  0  0  0  0  0  0  0  0  0
  -24.7062  -28.8667   20.8435 C   0  0  0  0  0  0  0  0  0  0  0  0
  -27.8362  -15.8541   22.9933 C   0  0  0  0  0  0  0  0  0  0  0  0
  -29.3813  -16.4943   21.2499 C   0  0  0  0  0  0  0  0  0  0  0  0
  -30.1105  -15.3251   21.4668 C   0  0  0  0  0  0  0  0  0  0  0  0
  -22.5030  -17.4797   18.3261 C   0  0  0  0  0  0  0  0  0  0  0  0
  -25.3448  -26.8636   19.6229 C   0  0  0  0  0  0  0  0  0  0  0  0
  -21.0594  -19.3167   18.5782 C   0  0  0  0  0  0  0  0  0  0  0  0
  -19.6713  -21.0590   20.2576 C   0  0  0  0  0  0  0  0  0  0  0  0
  -21.3137  -20.6872   18.5251 C   0  0  0  0  0  0  0  0  0  0  0  0
  -24.8518  -14.4601   20.1324 C   0  0  0  0  0  0  0  0  0  0  0  0
  -25.5851  -12.8287   21.4115 C   0  0  0  0  0  0  0  0  0  0  0  0
  -28.4941  -19.5785   19.6551 C   0  0  0  0  0  0  0  0  0  0  0  0
  -23.2626  -13.5784   21.9523 C   0  0  0  0  0  0  0  0  0  0  0  0
  -26.0459  -30.7369   23.3605 C   0  0  0  0  0  0  0  0  0  0  0  0
  -23.0981  -31.8582   22.6022 C   0  0  0  0  0  0  0  0  0  0  0  0
  -20.2698  -31.5315   20.7204 C   0  0  0  0  0  0  0  0  0  0  0  0
  -31.4167  -13.8874   19.8800 C   0  0  0  0  0  0  0  0  0  0  0  0
  -28.6182  -33.3726   26.8953 C   0  0  0  0  0  0  0  0  0  0  0  0
  -26.2000  -30.8997   20.8494 C   0  0  0  0  0  0  0  0  0  0  0  0
  -23.7006  -29.5756   21.7121 C   0  0  0  0  0  0  0  0  0  0  0  0
  -27.1504  -33.0502   26.6271 C   0  0  0  0  0  0  0  0  0  0  0  0
  -29.3328  -10.9205   19.1396 C   0  0  0  0  0  0  0  0  0  0  0  0
  -26.9700  -31.5576   26.3696 C   0  0  0  0  0  0  0  0  0  0  0  0
  -27.9116  -11.4502   19.3213 C   0  0  0  0  0  0  0  0  0  0  0  0
  -26.5041  -18.5234   18.8598 C   0  0  0  0  0  0  0  0  0  0  0  0
  -30.2961  -12.0209   18.7050 C   0  0  0  0  0  0  0  0  0  0  0  0
  -27.6270  -17.5031   18.9171 C   0  0  0  0  0  0  0  0  0  0  0  0
  -28.8807  -13.7327   19.8038 C   0  0  0  0  0  0  0  0  0  0  0  0
  -27.7548  -31.1129   25.1295 C   0  0  1  0  0  0  0  0  0  0  0  0
  -27.2463  -19.8552   18.8547 C   0  0  1  0  0  0  0  0  0  0  0  0
  -25.4578  -31.3293   22.1111 C   0  0  1  0  0  0  0  0  0  0  0  0
  -27.8991  -12.6518   20.2807 C   0  0  1  0  0  0  0  0  0  0  0  0
  -18.0180  -32.5757   20.3511 C   0  0  0  0  0  0  0  0  0  0  0  0
  -22.0864  -30.5837   25.1833 C   0  0  0  0  0  0  0  0  0  0  0  0
  -19.7542  -30.8203   24.3040 C   0  0  0  0  0  0  0  0  0  0  0  0
  -21.1474  -32.8510   24.7016 C   0  0  0  0  0  0  0  0  0  0  0  0
  -32.4933  -15.8189   20.9485 C   0  0  0  0  0  0  0  0  0  0  0  0
  -20.8937  -32.1555   17.8955 C   0  0  0  0  0  0  0  0  0  0  0  0
  -26.2689  -20.7154   20.9451 C   0  0  0  0  0  0  0  0  0  0  0  0
  -29.7988  -17.4873   20.2040 C   0  0  0  0  0  0  0  0  0  0  0  0
  -25.7676  -23.2943   19.2948 C   0  0  0  0  0  0  0  0  0  0  0  0
  -26.8837  -22.2779   19.1062 C   0  0  0  0  0  0  0  0  0  0  0  0
  -26.1888  -24.7289   19.0011 C   0  0  0  0  0  0  0  0  0  1  0  0
  -21.6874  -31.3406   22.7473 C   0  0  1  0  0  0  0  0  0  0  0  0
  -19.4742  -32.5420   19.9140 C   0  0  2  0  0  0  0  0  0  0  0  0
  -26.6216  -16.1379   23.8113 C   0  0  0  0  0  0  0  0  0  0  0  0
  -21.1885  -31.3846   24.2193 C   0  0  0  0  0  0  0  0  0  0  0  0
  -26.0866  -14.2143   19.6863 N   0  0  0  0  0  0  0  0  0  0  0  0
  -26.5064  -13.2176   20.4840 N   0  0  0  0  0  0  0  0  0  0  0  0
  -28.6666  -18.1944   19.6462 N   0  0  0  0  0  0  0  0  0  0  0  0
  -24.0417  -30.9576   22.0880 N   0  0  0  0  0  0  0  0  0  0  0  0
  -30.2297  -13.1825   19.5931 N   0  0  0  0  0  0  0  0  0  0  0  0
  -25.8435  -11.8393   22.2928 N   0  0  0  0  0  0  0  0  0  0  0  0
  -22.2359  -14.4689   21.6100 N   0  0  0  0  0  0  0  0  0  0  0  0
  -27.0536  -31.4969   23.9231 N   0  0  0  0  0  0  0  0  0  0  0  0
  -20.8715  -32.1128   21.8165 N   0  0  0  0  0  0  0  0  0  0  0  0
  -31.2892  -15.0331   20.6882 N   0  0  0  0  0  0  0  0  0  0  0  0
  -19.5219  -32.2007   18.4641 N   0  3  0  0  0  0  0  0  0  0  0  0
  -26.4143  -20.9166   19.4558 N   0  3  1  0  0  0  0  0  0  0  0  0
  -29.2100  -20.4255   20.1672 O   0  0  0  0  0  0  0  0  0  0  0  0
  -23.0910  -12.7805   22.9049 O   0  0  0  0  0  0  0  0  0  0  0  0
  -25.6162  -29.6701   23.7836 O   0  0  0  0  0  0  0  0  0  0  0  0
  -23.3518  -33.0211   22.9261 O   0  0  0  0  0  0  0  0  0  0  0  0
  -20.3466  -30.3445   20.4112 O   0  0  0  0  0  0  0  0  0  0  0  0
  -32.5082  -13.5522   19.4036 O   0  0  0  0  0  0  0  0  0  0  0  0
  -21.7470  -18.4507   17.7446 O   0  0  0  0  0  0  0  0  0  0  0  0
  -25.0736  -25.5894   19.2297 O   0  0  0  0  0  0  0  0  0  1  0  0
  -19.0037  -21.8955   21.0630 F   0  0  0  0  0  0  0  0  0  0  0  0
  -22.2227  -21.1730   17.6687 F   0  0  0  0  0  0  0  0  0  0  0  0
  -26.3431  -15.1684   24.7322 F   0  0  0  0  0  0  0  0  0  0  0  0
  -26.7044  -17.2972   24.5287 F   0  0  0  0  0  0  0  0  0  0  0  0
  -25.4935  -16.2568   23.0523 F   0  0  0  0  0  0  0  0  0  0  0  0
  1  2  1  0  0  0  0
  1  5  2  0  0  0  0
  2  6  2  0  0  0  0
  3 10  2  0  0  0  0
  3 18  1  0  0  0  0
  4 11  1  0  0  0  0
  4 18  2  0  0  0  0
  5 20  1  0  0  0  0
  6 22  1  0  0  0  0
  7 12  2  0  0  0  0
  7 21  1  0  0  0  0
  8  9  2  0  0  0  0
  8 24  1  0  0  0  0
  9 26  1  0  0  0  0
 10 27  1  0  0  0  0
 11 27  2  0  0  0  0
 12 28  1  0  0  0  0
 13 14  2  0  0  0  0
 13 29  1  0  0  0  0
 14 30  1  0  0  0  0
 15 23  1  0  0  0  0
 15 28  2  0  0  0  0
 16 24  2  0  0  0  0
 16 25  1  0  0  0  0
 17 30  2  0  0  0  0
 17 31  1  0  0  0  0
 18 32  1  0  0  0  0
 19 32  1  0  0  0  0
 19 33  2  0  0  0  0
 19 35  1  0  0  0  0
 20 22  2  0  0  0  0
 20 40  1  0  0  0  0
 21 23  2  0  0  0  0
 21 41  1  0  0  0  0
 22 51  1  0  0  0  0
 23 42  1  0  0  0  0
 24 68  1  0  0  0  0
 25 26  2  0  0  0  0
 25 62  1  0  0  0  0
 26 79  1  0  0  0  0
 27 88  1  0  0  0  0
 28 89  1  0  0  0  0
 29 31  2  0  0  0  0
 29 88  1  0  0  0  0
 30 90  1  0  0  0  0
 31 91  1  0  0  0  0
 32 70  2  0  0  0  0
 33 71  1  0  0  0  0
 33 75  1  0  0  0  0
 34 52  1  0  0  0  0
 34 72  1  0  0  0  0
 34 82  2  0  0  0  0
 35 76  1  0  0  0  0
 35 83  2  0  0  0  0
 36 53  1  0  0  0  0
 36 77  1  0  0  0  0
 36 84  2  0  0  0  0
 37 66  1  0  0  0  0
 37 73  1  0  0  0  0
 37 85  2  0  0  0  0
 38 67  1  0  0  0  0
 38 78  1  0  0  0  0
 38 86  2  0  0  0  0
 39 74  1  0  0  0  0
 39 79  1  0  0  0  0
 39 87  2  0  0  0  0
 40 43  1  0  0  0  0
 41 53  1  0  0  0  0
 42 73  1  0  0  0  0
 43 45  1  0  0  0  0
 44 46  1  0  0  0  0
 44 48  1  0  0  0  0
 45 51  1  0  0  0  0
 46 54  1  0  0  0  0
 47 49  1  0  0  0  0
 47 52  1  0  0  0  0
 48 74  1  0  0  0  0
 49 72  1  0  0  0  0
 50 54  1  0  0  0  0
 50 74  1  0  0  0  0
 51 77  1  0  0  0  0
 52 81  1  0  0  0  0
 53 73  1  0  0  0  0
 54 71  1  0  0  0  0
 55 67  1  0  0  0  0
 56 69  1  0  0  0  0
 57 69  1  0  0  0  0
 58 69  1  0  0  0  0
 59 79  1  0  0  0  0
 60 80  1  0  0  0  0
 61 81  1  0  0  0  0
 62 72  1  0  0  0  0
 63 64  1  0  0  0  0
 63 65  1  0  0  0  0
 64 81  1  0  0  0  0
 65 89  1  0  0  0  0
 66 69  1  0  0  0  0
 66 78  1  0  0  0  0
 67 80  1  0  0  0  0
 68 92  1  0  0  0  0
 68 93  1  0  0  0  0
 68 94  1  0  0  0  0
 70 71  1  0  0  0  0
M  CHG  2  80   1  81   1
M  ISO  4  39 100  65 101  79 100  89 101
M  END
> <Batch ID>
0016

> <Smiles>
CNC(C)C(=O)NC(C(=O)N1Cc2cc([101O:1][101CH2:1]CCN(C)C3CCN(Cc4cc(C(F)(F)F)ccc4[100N:0](C)[100C:0](=O)N4CCCC(n5nc(-c6ccc(Oc7ccc(F)cc7F)cc6)c(C(N)=O)c5N)C4)C3=O)ccc2CC1C(=O)NC1CCCc2ccccc21)C(C)(C)C

> <Shape>
0.260

> <Color>
0.081

> <Negative vol penalty>
0.000

$$$$

  -OEChem-04042320573D

 90 99  0     1  0  0  0  0  0999 V2000
  -26.7242  -30.8281   22.7115 C   0  0  0  0  0  0  0  0  0  0  0  0
  -26.3227  -29.7907   23.5471 C   0  0  0  0  0  0  0  0  0  0  0  0
  -28.3182  -14.0323   20.7729 C   0  0  0  0  0  0  0  0  0  0  0  0
  -28.4656  -12.1504   19.2649 C   0  0  0  0  0  0  0  0  0  0  0  0
  -26.7652  -30.6339   21.3314 C   0  0  0  0  0  0  0  0  0  0  0  0
  -25.9610  -28.5588   23.0030 C   0  0  0  0  0  0  0  0  0  0  0  0
  -26.1381  -21.5462   24.4548 C   0  0  0  0  0  0  0  0  0  0  0  0
  -22.1109  -12.4867   24.4963 C   0  0  0  0  0  0  0  0  0  0  0  0
  -22.3664  -11.1155   24.5062 C   0  0  0  0  0  0  0  0  0  0  0  0
  -29.6912  -14.2420   20.6454 C   0  0  0  0  0  0  0  0  0  0  0  0
  -29.8387  -12.3603   19.1373 C   0  0  0  0  0  0  0  0  0  0  0  0
  -25.2970  -20.4355   24.5069 C   0  0  0  0  0  0  0  0  0  0  0  0
  -32.5400  -12.9042   21.8778 C   0  0  0  0  0  0  0  0  0  0  0  0
  -33.2683  -13.1491   23.0419 C   0  0  0  0  0  0  0  0  0  0  0  0
  -25.4824  -20.1903   22.1143 C   0  0  0  0  0  0  0  0  0  0  0  0
  -24.5014  -11.5208   25.5619 C   0  0  0  0  0  0  0  0  0  0  0  0
  -33.9475  -15.2956   22.1654 C   0  0  0  0  0  0  0  0  0  0  0  0
  -27.7053  -12.9864   20.0827 C   0  0  0  0  0  0  0  0  0  0  0  0
  -25.2551  -13.6691   19.8887 C   0  0  0  0  0  0  0  0  0  0  0  0
  -26.4130  -29.3960   20.7708 C   0  0  0  0  0  0  0  0  0  0  0  0
  -26.6498  -21.9946   23.2286 C   0  0  0  0  0  0  0  0  0  0  0  0
  -25.9961  -28.3483   21.6140 C   0  0  0  0  0  0  0  0  0  0  0  0
  -26.3318  -21.3053   22.0496 C   0  0  0  0  0  0  0  0  0  0  0  0
  -24.2459  -12.8921   25.5520 C   0  0  0  0  0  0  0  0  0  0  0  0
  -23.0508  -13.3750   25.0191 C   0  0  0  0  0  0  0  0  0  0  0  0
  -23.5615  -10.6325   25.0390 C   0  0  0  0  0  0  0  0  0  0  0  0
  -30.4515  -13.4061   19.8276 C   0  0  0  0  0  0  0  0  0  0  0  0
  -24.9667  -19.7591   23.3363 C   0  0  0  0  0  0  0  0  0  0  0  0
  -32.5155  -13.8549   20.8574 C   0  0  0  0  0  0  0  0  0  0  0  0
  -33.9721  -14.3448   23.1857 C   0  0  0  0  0  0  0  0  0  0  0  0
  -33.2192  -15.0506   21.0012 C   0  0  0  0  0  0  0  0  0  0  0  0
  -26.2871  -12.7688   20.2145 C   0  0  0  0  0  0  0  0  0  0  0  0
  -24.0997  -12.9924   20.1949 C   0  0  0  0  0  0  0  0  0  0  0  0
  -23.5249  -15.7753   24.3538 C   0  0  0  0  0  0  0  0  0  0  0  0
  -25.3337  -14.9983   19.3568 C   0  0  0  0  0  0  0  0  0  0  0  0
  -26.4017  -24.6764   21.5404 C   0  0  0  0  0  0  0  0  0  0  0  0
  -28.6042  -23.2294   19.6491 C   0  0  0  0  0  0  0  0  0  0  0  0
  -30.0317  -20.3256   18.5641 C   0  0  0  0  0  0  0  0  0  0  0  0
  -23.3183   -8.3273   24.0808 C   0  0  0  0  0  0  0  0  0  0  0  0
  -26.4278  -29.2483   19.2700 C   0  0  0  0  0  0  0  0  0  0  0  0
  -27.5772  -23.1782   23.1925 C   0  0  0  0  0  0  0  0  0  0  0  0
  -26.8712  -21.7342   20.7103 C   0  0  0  0  0  0  0  0  0  0  0  0
  -26.3878  -27.7963   18.8004 C   0  0  0  0  0  0  0  0  0  0  0  0
  -22.2947   -8.5794   20.5338 C   0  0  0  0  0  0  0  0  0  0  0  0
  -25.3179  -27.0187   19.5603 C   0  0  0  0  0  0  0  0  0  0  0  0
  -23.1798   -9.7062   20.0045 C   0  0  0  0  0  0  0  0  0  0  0  0
  -21.8837  -16.8161   25.7276 C   0  0  0  0  0  0  0  0  0  0  0  0
  -22.9596   -7.8297   21.6842 C   0  0  0  0  0  0  0  0  0  0  0  0
  -21.5889  -15.3326   25.6304 C   0  0  0  0  0  0  0  0  0  0  0  0
  -24.2692   -9.8477   22.2793 C   0  0  0  0  0  0  0  0  0  0  0  0
  -25.6199  -26.9899   21.0634 C   0  0  1  0  0  0  0  0  0  0  0  0
  -22.7552  -17.0772   24.5077 C   0  0  1  0  0  0  0  0  0  0  0  0
  -27.6277  -23.8563   21.8269 C   0  0  1  0  0  0  0  0  0  0  0  0
  -23.6047  -10.6441   21.1464 C   0  0  1  0  0  0  0  0  0  0  0  0
  -23.3960   -8.4405   27.3490 C   0  0  0  0  0  0  0  0  0  0  0  0
  -31.7819  -19.4598   16.9878 C   0  0  0  0  0  0  0  0  0  0  0  0
  -26.7287  -23.7308   17.2951 C   0  0  0  0  0  0  0  0  0  0  0  0
  -28.0424  -22.0529   15.9810 C   0  0  0  0  0  0  0  0  0  0  0  0
  -29.1481  -24.1316   16.8050 C   0  0  0  0  0  0  0  0  0  0  0  0
  -31.5851  -19.1116   20.7715 C   0  0  0  0  0  0  0  0  0  0  0  0
  -26.3605  -14.7468   28.1569 C   0  0  0  0  0  0  0  0  0  0  0  0
  -23.9631  -14.0768   28.2220 C   0  0  0  0  0  0  0  0  0  0  0  0
  -25.2704  -13.8209   26.1182 C   0  0  0  0  0  0  0  0  0  0  0  0
  -23.6582  -18.2857   24.6678 C   0  0  0  0  0  0  0  0  0  1  0  0
  -24.4228   -8.6383   26.2522 C   0  0  0  0  0  0  0  0  0  0  0  0
  -28.5476  -22.3104   18.4527 C   0  0  1  0  0  0  0  0  0  0  0  0
  -31.4847  -19.9143   18.4083 C   0  0  2  0  0  0  0  0  0  0  0  0
  -28.1048  -23.0493   17.1583 C   0  0  0  0  0  0  0  0  0  0  0  0
  -25.8279  -11.6087   20.6913 N   0  0  0  0  0  0  0  0  0  0  0  0
  -24.4946  -11.7755   20.6674 N   0  0  0  0  0  0  0  0  0  0  0  0
  -22.7703  -14.7742   24.9995 N   0  0  0  0  0  0  0  0  0  0  0  0
  -27.7690  -22.9009   20.7262 N   0  0  0  0  0  0  0  0  0  0  0  0
  -23.4127   -8.7411   22.7362 N   0  0  0  0  0  0  0  0  0  0  0  0
  -22.7947  -13.3256   20.1034 N   0  0  0  0  0  0  0  0  0  0  0  0
  -25.4067  -16.0733   20.2530 N   0  0  0  0  0  0  0  0  0  0  0  0
  -26.6559  -26.0216   21.3523 N   0  0  0  0  0  0  0  0  0  0  0  0
  -29.8594  -21.6785   18.3610 N   0  0  0  0  0  0  0  0  0  0  0  0
  -23.8249   -9.2143   25.0498 N   0  0  0  0  0  0  0  0  0  0  0  0
  -31.8086  -18.7949   19.3373 N   0  3  0  0  0  0  0  0  0  0  0  0
  -25.3133  -13.8132   27.6054 N   0  3  0  0  0  0  0  0  0  0  0  0
  -24.5653  -15.6839   23.7184 O   0  0  0  0  0  0  0  0  0  0  0  0
  -25.3225  -15.2268   18.1234 O   0  0  0  0  0  0  0  0  0  0  0  0
  -25.3063  -24.1291   21.4922 O   0  0  0  0  0  0  0  0  0  0  0  0
  -29.3668  -24.1988   19.6314 O   0  0  0  0  0  0  0  0  0  0  0  0
  -29.1385  -19.5261   18.8349 O   0  0  0  0  0  0  0  0  0  0  0  0
  -22.8650   -7.2197   24.3944 O   0  0  0  0  0  0  0  0  0  0  0  0
  -31.7913  -13.6106   19.7027 O   0  0  0  0  0  0  0  0  0  0  0  0
  -24.1454  -18.6751   23.3843 O   0  0  0  0  0  0  0  0  0  1  0  0
  -34.6702  -14.5805   24.3043 F   0  0  0  0  0  0  0  0  0  0  0  0
  -33.1984  -15.9683   20.0249 F   0  0  0  0  0  0  0  0  0  0  0  0
  1  2  1  0  0  0  0
  1  5  2  0  0  0  0
  2  6  2  0  0  0  0
  3 10  2  0  0  0  0
  3 18  1  0  0  0  0
  4 11  1  0  0  0  0
  4 18  2  0  0  0  0
  5 20  1  0  0  0  0
  6 22  1  0  0  0  0
  7 12  2  0  0  0  0
  7 21  1  0  0  0  0
  8  9  2  0  0  0  0
  8 25  1  0  0  0  0
  9 26  1  0  0  0  0
 10 27  1  0  0  0  0
 11 27  2  0  0  0  0
 12 28  1  0  0  0  0
 13 14  2  0  0  0  0
 13 29  1  0  0  0  0
 14 30  1  0  0  0  0
 15 23  1  0  0  0  0
 15 28  2  0  0  0  0
 16 24  1  0  0  0  0
 16 26  2  0  0  0  0
 17 30  2  0  0  0  0
 17 31  1  0  0  0  0
 18 32  1  0  0  0  0
 19 32  1  0  0  0  0
 19 33  2  0  0  0  0
 19 35  1  0  0  0  0
 20 22  2  0  0  0  0
 20 40  1  0  0  0  0
 21 23  2  0  0  0  0
 21 41  1  0  0  0  0
 22 51  1  0  0  0  0
 23 42  1  0  0  0  0
 24 25  2  0  0  0  0
 24 63  1  0  0  0  0
 25 71  1  0  0  0  0
 26 78  1  0  0  0  0
 27 87  1  0  0  0  0
 28 88  1  0  0  0  0
 29 31  2  0  0  0  0
 29 87  1  0  0  0  0
 30 89  1  0  0  0  0
 31 90  1  0  0  0  0
 32 69  2  0  0  0  0
 33 70  1  0  0  0  0
 33 74  1  0  0  0  0
 34 52  1  0  0  0  0
 34 71  1  0  0  0  0
 34 81  2  0  0  0  0
 35 75  1  0  0  0  0
 35 82  2  0  0  0  0
 36 53  1  0  0  0  0
 36 76  1  0  0  0  0
 36 83  2  0  0  0  0
 37 66  1  0  0  0  0
 37 72  1  0  0  0  0
 37 84  2  0  0  0  0
 38 67  1  0  0  0  0
 38 77  1  0  0  0  0
 38 85  2  0  0  0  0
 39 73  1  0  0  0  0
 39 78  1  0  0  0  0
 39 86  2  0  0  0  0
 40 43  1  0  0  0  0
 41 53  1  0  0  0  0
 42 72  1  0  0  0  0
 43 45  1  0  0  0  0
 44 46  1  0  0  0  0
 44 48  1  0  0  0  0
 45 51  1  0  0  0  0
 46 54  1  0  0  0  0
 47 49  1  0  0  0  0
 47 52  1  0  0  0  0
 48 73  1  0  0  0  0
 49 71  1  0  0  0  0
 50 54  1  0  0  0  0
 50 73  1  0  0  0  0
 51 76  1  0  0  0  0
 52 64  1  0  0  0  0
 53 72  1  0  0  0  0
 54 70  1  0  0  0  0
 55 65  1  0  0  0  0
 56 67  1  0  0  0  0
 57 68  1  0  0  0  0
 58 68  1  0  0  0  0
 59 68  1  0  0  0  0
 60 79  1  0  0  0  0
 61 80  1  0  0  0  0
 62 80  1  0  0  0  0
 63 80  1  0  0  0  0
 64 88  1  0  0  0  0
 65 78  1  0  0  0  0
 66 68  1  0  0  0  0
 66 77  1  0  0  0  0
 67 79  1  0  0  0  0
 69 70  1  0  0  0  0
M  CHG  2  79   1  80   1
M  ISO  4  39 100  64 101  78 100  88 101
M  END
> <Batch ID>
0016

> <Smiles>
CC[100N:0](c1ccc(N2CCC([101CH2:1][101O:1]c3ccc4c(c3)CN(C(=O)C(NC(=O)C(C)NC)C(C)(C)C)C(C(=O)NC3CCCc5ccccc53)C4)C2=O)c(CN(C)C)c1)[100C:0](=O)N1CCCC(n2nc(-c3ccc(Oc4ccc(F)cc4F)cc3)c(C(N)=O)c2N)C1

> <Shape>
0.195

> <Color>
0.111

> <Negative vol penalty>
0.000

$$$$

  -OEChem-04042320573D

 85 94  0     1  0  0  0  0  0999 V2000
  -20.4830  -28.4624   23.4167 C   0  0  0  0  0  0  0  0  0  0  0  0
  -20.5450  -27.1385   22.9940 C   0  0  0  0  0  0  0  0  0  0  0  0
  -23.3152   -9.7421   19.8780 C   0  0  0  0  0  0  0  0  0  0  0  0
  -23.8204   -9.8552   22.2379 C   0  0  0  0  0  0  0  0  0  0  0  0
  -19.4287  -29.2761   23.0042 C   0  0  0  0  0  0  0  0  0  0  0  0
  -19.5518  -26.6270   22.1594 C   0  0  0  0  0  0  0  0  0  0  0  0
  -21.4424  -23.8891   18.3417 C   0  0  0  0  0  0  0  0  0  0  0  0
  -25.5119  -15.2025   15.9330 C   0  0  0  0  0  0  0  0  0  0  0  0
  -26.6121  -14.3838   15.6784 C   0  0  0  0  0  0  0  0  0  0  0  0
  -22.6264   -8.5467   20.0827 C   0  0  0  0  0  0  0  0  0  0  0  0
  -23.1315   -8.6597   22.4426 C   0  0  0  0  0  0  0  0  0  0  0  0
  -21.8560  -22.5901   18.6336 C   0  0  0  0  0  0  0  0  0  0  0  0
  -19.5974   -7.5831   21.2359 C   0  0  0  0  0  0  0  0  0  0  0  0
  -18.3567   -7.4356   20.6160 C   0  0  0  0  0  0  0  0  0  0  0  0
  -19.7876  -21.7357   17.7333 C   0  0  0  0  0  0  0  0  0  0  0  0
  -26.8188  -16.4632   17.5267 C   0  0  0  0  0  0  0  0  0  0  0  0
  -19.1831   -5.5053   19.4211 C   0  0  0  0  0  0  0  0  0  0  0  0
  -23.9123  -10.3964   20.9556 C   0  0  0  0  0  0  0  0  0  0  0  0
  -24.0978  -12.9356   20.7951 C   0  0  0  0  0  0  0  0  0  0  0  0
  -18.4273  -28.7771   22.1563 C   0  0  0  0  0  0  0  0  0  0  0  0
  -20.1915  -24.1224   17.7524 C   0  0  0  0  0  0  0  0  0  0  0  0
  -18.4824  -27.4344   21.7363 C   0  0  0  0  0  0  0  0  0  0  0  0
  -19.3615  -23.0385   17.4326 C   0  0  0  0  0  0  0  0  0  0  0  0
  -25.6152  -16.2423   16.8571 C   0  0  0  0  0  0  0  0  0  0  0  0
  -27.8156  -14.6048   16.3479 C   0  0  0  0  0  0  0  0  0  0  0  0
  -22.5345   -8.0055   21.3650 C   0  0  0  0  0  0  0  0  0  0  0  0
  -21.0273  -21.5133   18.3320 C   0  0  0  0  0  0  0  0  0  0  0  0
  -20.6311   -6.6918   20.9483 C   0  0  0  0  0  0  0  0  0  0  0  0
  -18.1495   -6.3967   19.7087 C   0  0  0  0  0  0  0  0  0  0  0  0
  -27.9190  -15.6445   17.2720 C   0  0  0  0  0  0  0  0  0  0  0  0
  -20.4239   -5.6528   20.0410 C   0  0  0  0  0  0  0  0  0  0  0  0
  -24.6245  -11.6311   20.7447 C   0  0  0  0  0  0  0  0  0  0  0  0
  -25.1710  -13.7498   20.5272 C   0  0  0  0  0  0  0  0  0  0  0  0
  -22.7582  -13.3724   21.0605 C   0  0  0  0  0  0  0  0  0  0  0  0
  -17.5590  -25.6790   18.6188 C   0  0  0  0  0  0  0  0  0  0  0  0
  -16.6116  -24.9640   15.5999 C   0  0  0  0  0  0  0  0  0  0  0  0
  -16.9100  -22.9318   12.8744 C   0  0  0  0  0  0  0  0  0  0  0  0
  -29.9411  -13.4680   17.0417 C   0  0  0  0  0  0  0  0  0  0  0  0
  -17.2819  -29.6812   21.7751 C   0  0  0  0  0  0  0  0  0  0  0  0
  -19.7714  -25.5277   17.4195 C   0  0  0  0  0  0  0  0  0  0  0  0
  -18.0178  -23.2339   16.7810 C   0  0  0  0  0  0  0  0  0  0  0  0
  -16.4707  -29.1690   20.5877 C   0  0  0  0  0  0  0  0  0  0  0  0
  -30.0787  -13.2815   20.7348 C   0  0  0  0  0  0  0  0  0  0  0  0
  -16.1533  -27.6867   20.7577 C   0  0  0  0  0  0  0  0  0  0  0  0
  -28.6544  -12.8740   21.1072 C   0  0  0  0  0  0  0  0  0  0  0  0
  -22.4768  -18.1759   16.8346 C   0  0  0  0  0  0  0  0  0  0  0  0
  -30.4724  -12.7664   19.3538 C   0  0  0  0  0  0  0  0  0  0  0  0
  -23.2283  -16.9007   16.4589 C   0  0  0  0  0  0  0  0  0  0  0  0
  -24.5383  -18.1695   18.0498 C   0  0  0  0  0  0  0  0  0  0  0  0
  -28.0976  -12.7678   18.6455 C   0  0  0  0  0  0  0  0  0  0  0  0
  -17.4374  -26.8501   20.8107 C   0  0  1  0  0  0  0  0  0  0  0  0
  -18.2595  -25.6845   17.2895 C   0  0  1  0  0  0  0  0  0  0  0  0
  -23.0567  -18.5329   18.2001 C   0  0  1  0  0  0  0  0  0  0  0  0
  -27.6627  -13.3090   20.0157 C   0  0  1  0  0  0  0  0  0  0  0  0
  -15.9770  -22.5738   10.5726 C   0  0  0  0  0  0  0  0  0  0  0  0
  -14.0922  -23.7434   16.8136 C   0  0  0  0  0  0  0  0  0  0  0  0
  -13.6823  -22.5909   14.6291 C   0  0  0  0  0  0  0  0  0  0  0  0
  -13.7064  -25.0829   14.7373 C   0  0  0  0  0  0  0  0  0  0  0  0
  -29.2238  -13.3912   14.6941 C   0  0  0  0  0  0  0  0  0  0  0  0
  -19.5503  -23.3676   11.6104 C   0  0  0  0  0  0  0  0  0  0  0  0
  -22.8311  -19.9843   18.5858 C   0  0  0  0  0  0  0  0  0  1  0  0
  -15.8812  -23.8118   14.9532 C   0  0  1  0  0  0  0  0  0  0  0  0
  -17.0648  -23.2444   11.3970 C   0  0  2  0  0  0  0  0  0  0  0  0
  -14.3650  -23.8034   15.2974 C   0  0  0  0  0  0  0  0  0  0  0  0
  -25.9308  -11.6128   20.4664 N   0  0  0  0  0  0  0  0  0  0  0  0
  -26.2338  -12.9159   20.3396 N   0  0  0  0  0  0  0  0  0  0  0  0
  -24.5278  -17.0518   17.1083 N   0  0  3  0  0  0  0  0  0  0  0  0
  -17.6491  -24.6273   16.4808 N   0  0  0  0  0  0  0  0  0  0  0  0
  -29.4884  -13.1370   18.3354 N   0  0  0  0  0  0  0  0  0  0  0  0
  -25.2998  -15.0905   20.4362 N   0  0  0  0  0  0  0  0  0  0  0  0
  -21.7779  -12.4038   21.3159 N   0  0  0  0  0  0  0  0  0  0  0  0
  -17.9805  -26.6732   19.4809 N   0  0  0  0  0  0  0  0  0  0  0  0
  -16.1694  -23.8956   13.5256 N   0  0  0  0  0  0  0  0  0  0  0  0
  -28.9515  -13.7560   16.0826 N   0  0  0  0  0  0  0  0  0  0  0  0
  -18.3885  -22.7703   10.9031 N   0  3  0  0  0  0  0  0  0  0  0  0
  -22.4365  -14.5848   21.0545 O   0  0  0  0  0  0  0  0  0  0  0  0
  -16.6987  -24.8361   18.8449 O   0  0  0  0  0  0  0  0  0  0  0  0
  -16.2786  -26.1201   15.3278 O   0  0  0  0  0  0  0  0  0  0  0  0
  -17.3943  -21.9308   13.3978 O   0  0  0  0  0  0  0  0  0  0  0  0
  -31.1421  -13.4539   16.7451 O   0  0  0  0  0  0  0  0  0  0  0  0
  -21.8622   -6.8391   21.5651 O   0  0  0  0  0  0  0  0  0  0  0  0
  -21.4283  -20.2444   18.6164 O   0  0  0  0  0  0  0  0  0  1  0  0
  -16.9574   -6.2542   19.1146 F   0  0  0  0  0  0  0  0  0  0  0  0
  -29.0709  -15.8656   17.9215 F   0  0  0  0  0  0  0  0  0  0  0  0
  -21.4128   -4.7927   19.7616 F   0  0  0  0  0  0  0  0  0  0  0  0
  1  2  1  0  0  0  0
  1  5  2  0  0  0  0
  2  6  2  0  0  0  0
  3 10  2  0  0  0  0
  3 18  1  0  0  0  0
  4 11  1  0  0  0  0
  4 18  2  0  0  0  0
  5 20  1  0  0  0  0
  6 22  1  0  0  0  0
  7 12  2  0  0  0  0
  7 21  1  0  0  0  0
  8  9  2  0  0  0  0
  8 24  1  0  0  0  0
  9 25  1  0  0  0  0
 10 26  1  0  0  0  0
 11 26  2  0  0  0  0
 12 27  1  0  0  0  0
 13 14  2  0  0  0  0
 13 28  1  0  0  0  0
 14 29  1  0  0  0  0
 15 23  1  0  0  0  0
 15 27  2  0  0  0  0
 16 24  2  0  0  0  0
 16 30  1  0  0  0  0
 17 29  2  0  0  0  0
 17 31  1  0  0  0  0
 18 32  1  0  0  0  0
 19 32  1  0  0  0  0
 19 33  2  0  0  0  0
 19 34  1  0  0  0  0
 20 22  2  0  0  0  0
 20 39  1  0  0  0  0
 21 23  2  0  0  0  0
 21 40  1  0  0  0  0
 22 51  1  0  0  0  0
 23 41  1  0  0  0  0
 24 67  1  0  0  0  0
 25 30  2  0  0  0  0
 25 74  1  0  0  0  0
 26 81  1  0  0  0  0
 27 82  1  0  0  0  0
 28 31  2  0  0  0  0
 28 81  1  0  0  0  0
 29 83  1  0  0  0  0
 30 84  1  0  0  0  0
 31 85  1  0  0  0  0
 32 65  2  0  0  0  0
 33 66  1  0  0  0  0
 33 70  1  0  0  0  0
 34 71  1  0  0  0  0
 34 76  2  0  0  0  0
 35 52  1  0  0  0  0
 35 72  1  0  0  0  0
 35 77  2  0  0  0  0
 36 62  1  0  0  0  0
 36 68  1  0  0  0  0
 36 78  2  0  0  0  0
 37 63  1  0  0  0  0
 37 73  1  0  0  0  0
 37 79  2  0  0  0  0
 38 69  1  0  0  0  0
 38 74  1  0  0  0  0
 38 80  2  0  0  0  0
 39 42  1  0  0  0  0
 40 52  1  0  0  0  0
 41 68  1  0  0  0  0
 42 44  1  0  0  0  0
 43 45  1  0  0  0  0
 43 47  1  0  0  0  0
 44 51  1  0  0  0  0
 45 54  1  0  0  0  0
 46 48  1  0  0  0  0
 46 53  1  0  0  0  0
 47 69  1  0  0  0  0
 48 67  1  0  0  0  0
 49 53  1  0  0  0  0
 49 67  1  0  0  0  0
 50 54  1  0  0  0  0
 50 69  1  0  0  0  0
 51 72  1  0  0  0  0
 52 68  1  0  0  0  0
 53 61  1  0  0  0  0
 54 66  1  0  0  0  0
 55 63  1  0  0  0  0
 56 64  1  0  0  0  0
 57 64  1  0  0  0  0
 58 64  1  0  0  0  0
 59 74  1  0  0  0  0
 60 75  1  0  0  0  0
 61 82  1  0  0  0  0
 62 64  1  0  0  0  0
 62 73  1  0  0  0  0
 63 75  1  0  0  0  0
 65 66  1  0  0  0  0
M  CHG  1  75   1
M  ISO  4  38 100  61 101  74 100  82 101
M  END
> <Batch ID>
0016

> <Smiles>
CNC(C)C(=O)NC(C(=O)N1Cc2cc([101O:1][101CH2:1]C3CCN(c4ccc([100N:0](C)[100C:0](=O)N5CCCC(n6nc(-c7ccc(Oc8ccc(F)cc8F)cc7)c(C(N)=O)c6N)C5)c(F)c4)C3)ccc2CC1C(=O)NC1CCCc2ccccc21)C(C)(C)C

> <Shape>
0.170

> <Color>
0.201

> <Negative vol penalty>
0.000

$$$$

  -OEChem-04042320573D

 84 92  0     1  0  0  0  0  0999 V2000
  -26.9133  -32.0667   23.2835 C   0  0  0  0  0  0  0  0  0  0  0  0
  -27.3133  -30.8015   23.7012 C   0  0  0  0  0  0  0  0  0  0  0  0
  -23.0975   -9.8315   20.0945 C   0  0  0  0  0  0  0  0  0  0  0  0
  -23.7667  -10.0613   22.4046 C   0  0  0  0  0  0  0  0  0  0  0  0
  -25.9076  -32.1981   22.3268 C   0  0  0  0  0  0  0  0  0  0  0  0
  -26.7070  -29.6668   23.1633 C   0  0  0  0  0  0  0  0  0  0  0  0
  -30.0578  -26.0810   21.9144 C   0  0  0  0  0  0  0  0  0  0  0  0
  -22.3403   -8.7079   20.4256 C   0  0  0  0  0  0  0  0  0  0  0  0
  -23.0094   -8.9376   22.7357 C   0  0  0  0  0  0  0  0  0  0  0  0
  -30.5753  -25.3046   22.9503 C   0  0  0  0  0  0  0  0  0  0  0  0
  -20.9638   -6.3426   24.2521 C   0  0  0  0  0  0  0  0  0  0  0  0
  -20.1619   -6.4127   25.3912 C   0  0  0  0  0  0  0  0  0  0  0  0
  -29.0319  -23.5376   22.3888 C   0  0  0  0  0  0  0  0  0  0  0  0
  -29.7967  -17.6979   22.8069 C   0  0  0  0  0  0  0  0  0  0  0  0
  -31.9992  -16.7970   22.3892 C   0  0  0  0  0  0  0  0  0  0  0  0
  -18.9540   -8.2695   24.4267 C   0  0  0  0  0  0  0  0  0  0  0  0
  -23.8108  -10.5082   21.0840 C   0  0  0  0  0  0  0  0  0  0  0  0
  -24.1660  -13.0099   20.7332 C   0  0  0  0  0  0  0  0  0  0  0  0
  -25.2953  -31.0643   21.7698 C   0  0  0  0  0  0  0  0  0  0  0  0
  -29.0143  -25.5951   21.1135 C   0  0  0  0  0  0  0  0  0  0  0  0
  -25.6912  -29.7831   22.1993 C   0  0  0  0  0  0  0  0  0  0  0  0
  -28.5047  -24.3089   21.3417 C   0  0  0  0  0  0  0  0  0  0  0  0
  -30.3514  -18.6660   23.6440 C   0  0  0  0  0  0  0  0  0  0  0  0
  -31.7300  -18.6996   23.8536 C   0  0  0  0  0  0  0  0  0  0  0  0
  -30.6205  -16.7633   22.1796 C   0  0  0  0  0  0  0  0  0  0  0  0
  -22.2962   -8.2609   21.7462 C   0  0  0  0  0  0  0  0  0  0  0  0
  -30.0604  -24.0338   23.1894 C   0  0  0  0  0  0  0  0  0  0  0  0
  -20.7608   -7.2360   23.2002 C   0  0  0  0  0  0  0  0  0  0  0  0
  -19.1570   -7.3761   25.4786 C   0  0  0  0  0  0  0  0  0  0  0  0
  -32.5539  -17.7651   23.2262 C   0  0  0  0  0  0  0  0  0  0  0  0
  -19.7559   -8.1994   23.2876 C   0  0  0  0  0  0  0  0  0  0  0  0
  -24.5936  -11.6687   20.7425 C   0  0  0  0  0  0  0  0  0  0  0  0
  -25.2743  -13.7209   20.3424 C   0  0  0  0  0  0  0  0  0  0  0  0
  -22.8819  -13.5636   21.0497 C   0  0  0  0  0  0  0  0  0  0  0  0
  -26.0250  -26.5041   20.5292 C   0  0  0  0  0  0  0  0  0  0  0  0
  -26.1360  -24.1079   18.3455 C   0  0  0  0  0  0  0  0  0  0  0  0
  -27.5509  -21.1707   17.3367 C   0  0  0  0  0  0  0  0  0  0  0  0
  -30.7331  -14.7800   20.6304 C   0  0  0  0  0  0  0  0  0  0  0  0
  -24.1798  -31.2573   20.7734 C   0  0  0  0  0  0  0  0  0  0  0  0
  -28.4852  -26.4345   19.9830 C   0  0  0  0  0  0  0  0  0  0  0  0
  -27.3983  -23.7329   20.4976 C   0  0  0  0  0  0  0  0  0  0  0  0
  -23.8485  -29.9971   19.9782 C   0  0  0  0  0  0  0  0  0  0  0  0
  -29.7040  -12.1474   18.4652 C   0  0  0  0  0  0  0  0  0  0  0  0
  -23.7435  -28.7919   20.9073 C   0  0  0  0  0  0  0  0  0  0  0  0
  -28.2476  -11.8985   18.8639 C   0  0  0  0  0  0  0  0  0  0  0  0
  -30.5720  -12.4920   19.6742 C   0  0  0  0  0  0  0  0  0  0  0  0
  -28.6148  -13.3466   20.9024 C   0  0  0  0  0  0  0  0  0  0  0  0
  -25.0748  -28.5279   21.6211 C   0  0  1  0  0  0  0  0  0  0  0  0
  -27.0737  -26.0423   19.5573 C   0  0  1  0  0  0  0  0  0  0  0  0
  -27.6884  -13.0596   19.7094 C   0  0  2  0  0  0  0  0  0  0  0  0
  -29.4496  -19.6565   24.3044 C   0  0  0  0  0  0  0  0  0  0  0  0
  -27.4064  -19.4317   15.5333 C   0  0  0  0  0  0  0  0  0  0  0  0
  -23.6081  -22.9855   19.6338 C   0  0  0  0  0  0  0  0  0  0  0  0
  -24.0524  -20.8214   18.4559 C   0  0  0  0  0  0  0  0  0  0  0  0
  -23.6336  -22.8955   17.1346 C   0  0  0  0  0  0  0  0  0  0  0  0
  -30.3366  -21.6702   16.4710 C   0  0  0  0  0  0  0  0  0  0  0  0
  -33.4905  -21.1804   23.0763 C   0  0  0  0  0  0  0  0  0  0  0  0
  -32.3465  -19.7335   24.7491 C   0  0  0  0  0  0  0  0  0  0  0  0
  -32.5000  -22.1902   25.1259 C   0  0  0  0  0  0  0  0  0  0  0  0
  -31.9361  -23.4686   24.5379 C   0  0  0  0  0  0  0  0  0  1  0  0
  -25.8274  -22.6303   18.3631 C   0  0  1  0  0  0  0  0  0  0  0  0
  -28.0786  -20.7180   15.9873 C   0  0  2  0  0  0  0  0  0  0  0  0
  -24.2999  -22.3445   18.4142 C   0  0  0  0  0  0  0  0  0  0  0  0
  -25.8736  -11.5330   20.3857 N   0  0  0  0  0  0  0  0  0  0  0  0
  -26.2598  -12.7982   20.1485 N   0  0  0  0  0  0  0  0  0  0  0  0
  -26.9100  -24.5948   19.4084 N   0  0  0  0  0  0  0  0  0  0  0  0
  -29.9826  -13.6030   20.4247 N   0  0  0  0  0  0  0  0  0  0  0  0
  -25.4921  -15.0390   20.1489 N   0  0  0  0  0  0  0  0  0  0  0  0
  -21.8543  -12.6912   21.4334 N   0  0  0  0  0  0  0  0  0  0  0  0
  -30.0573  -15.7799   21.3290 N   0  0  0  0  0  0  0  0  0  0  0  0
  -26.0055  -27.8714   20.7282 N   0  0  0  0  0  0  0  0  0  0  0  0
  -26.5039  -22.0581   17.2041 N   0  0  0  0  0  0  0  0  0  0  0  0
  -29.5481  -20.4804   16.0590 N   0  3  0  0  0  0  0  0  0  0  0  0
  -32.4031  -21.1033   24.1192 N   0  3  1  0  0  0  0  0  0  0  0  0
  -22.6480  -14.7939   20.9780 O   0  0  0  0  0  0  0  0  0  0  0  0
  -25.2871  -25.6811   21.0581 O   0  0  0  0  0  0  0  0  0  0  0  0
  -25.7122  -24.8032   17.4189 O   0  0  0  0  0  0  0  0  0  0  0  0
  -28.0180  -20.7737   18.4019 O   0  0  0  0  0  0  0  0  0  0  0  0
  -31.8803  -14.9028   20.1935 O   0  0  0  0  0  0  0  0  0  0  0  0
  -21.5572   -7.1647   22.0696 O   0  0  0  0  0  0  0  0  0  0  0  0
  -30.5633  -23.2741   24.2003 O   0  0  0  0  0  0  0  0  0  1  0  0
  -18.3860   -7.4423   26.5719 F   0  0  0  0  0  0  0  0  0  0  0  0
  -33.8802  -17.7905   23.4189 F   0  0  0  0  0  0  0  0  0  0  0  0
  -19.5554   -9.0597   22.2798 F   0  0  0  0  0  0  0  0  0  0  0  0
  1  2  1  0  0  0  0
  1  5  2  0  0  0  0
  2  6  2  0  0  0  0
  3  8  2  0  0  0  0
  3 17  1  0  0  0  0
  4  9  1  0  0  0  0
  4 17  2  0  0  0  0
  5 19  1  0  0  0  0
  6 21  1  0  0  0  0
  7 10  2  0  0  0  0
  7 20  1  0  0  0  0
  8 26  1  0  0  0  0
  9 26  2  0  0  0  0
 10 27  1  0  0  0  0
 11 12  2  0  0  0  0
 11 28  1  0  0  0  0
 12 29  1  0  0  0  0
 13 22  1  0  0  0  0
 13 27  2  0  0  0  0
 14 23  2  0  0  0  0
 14 25  1  0  0  0  0
 15 25  2  0  0  0  0
 15 30  1  0  0  0  0
 16 29  2  0  0  0  0
 16 31  1  0  0  0  0
 17 32  1  0  0  0  0
 18 32  1  0  0  0  0
 18 33  2  0  0  0  0
 18 34  1  0  0  0  0
 19 21  2  0  0  0  0
 19 39  1  0  0  0  0
 20 22  2  0  0  0  0
 20 40  1  0  0  0  0
 21 48  1  0  0  0  0
 22 41  1  0  0  0  0
 23 24  1  0  0  0  0
 23 51  1  0  0  0  0
 24 30  2  0  0  0  0
 24 58  1  0  0  0  0
 25 70  1  0  0  0  0
 26 80  1  0  0  0  0
 27 81  1  0  0  0  0
 28 31  2  0  0  0  0
 28 80  1  0  0  0  0
 29 82  1  0  0  0  0
 30 83  1  0  0  0  0
 31 84  1  0  0  0  0
 32 64  2  0  0  0  0
 33 65  1  0  0  0  0
 33 68  1  0  0  0  0
 34 69  1  0  0  0  0
 34 75  2  0  0  0  0
 35 49  1  0  0  0  0
 35 71  1  0  0  0  0
 35 76  2  0  0  0  0
 36 61  1  0  0  0  0
 36 66  1  0  0  0  0
 36 77  2  0  0  0  0
 37 62  1  0  0  0  0
 37 72  1  0  0  0  0
 37 78  2  0  0  0  0
 38 67  1  0  0  0  0
 38 70  1  0  0  0  0
 38 79  2  0  0  0  0
 39 42  1  0  0  0  0
 40 49  1  0  0  0  0
 41 66  1  0  0  0  0
 42 44  1  0  0  0  0
 43 45  1  0  0  0  0
 43 46  1  0  0  0  0
 44 48  1  0  0  0  0
 45 50  1  0  0  0  0
 46 67  1  0  0  0  0
 47 50  1  0  0  0  0
 47 67  1  0  0  0  0
 48 71  1  0  0  0  0
 49 66  1  0  0  0  0
 50 65  1  0  0  0  0
 52 62  1  0  0  0  0
 53 63  1  0  0  0  0
 54 63  1  0  0  0  0
 55 63  1  0  0  0  0
 56 73  1  0  0  0  0
 57 74  1  0  0  0  0
 58 74  1  0  0  0  0
 59 60  1  0  0  0  0
 59 74  1  0  0  0  0
 60 81  1  0  0  0  0
 61 63  1  0  0  0  0
 61 72  1  0  0  0  0
 62 73  1  0  0  0  0
 64 65  1  0  0  0  0
M  CHG  2  73   1  74   1
M  ISO  4  38 100  60 101  70 100  81 101
M  END
> <Batch ID>
0016

> <Smiles>
CNC(C)C(=O)NC(C(=O)N1Cc2cc([101O:1][101CH2:1]CN(C)Cc3c(C)cc([100NH:0][100C:0](=O)N4CCCC(n5nc(-c6ccc(Oc7ccc(F)cc7F)cc6)c(C(N)=O)c5N)C4)cc3F)ccc2CC1C(=O)NC1CCCc2ccccc21)C(C)(C)C

> <Shape>
0.262

> <Color>
0.206

> <Negative vol penalty>
0.000

$$$$

  -OEChem-04042320573D

 85 93  0     1  0  0  0  0  0999 V2000
  -30.7028  -22.5095   14.9934 C   0  0  0  0  0  0  0  0  0  0  0  0
  -30.1802  -22.2787   16.2619 C   0  0  0  0  0  0  0  0  0  0  0  0
  -23.3565  -15.5524   23.4188 C   0  0  0  0  0  0  0  0  0  0  0  0
  -22.2932  -15.9568   21.2874 C   0  0  0  0  0  0  0  0  0  0  0  0
  -31.0550  -23.8031   14.6106 C   0  0  0  0  0  0  0  0  0  0  0  0
  -30.0104  -23.3414   17.1487 C   0  0  0  0  0  0  0  0  0  0  0  0
  -25.5272  -23.2122   19.5001 C   0  0  0  0  0  0  0  0  0  0  0  0
  -30.2057  -18.0603   21.4963 C   0  0  0  0  0  0  0  0  0  0  0  0
  -29.5928  -17.0678   23.6120 C   0  0  0  0  0  0  0  0  0  0  0  0
  -29.6855  -19.2834   21.9193 C   0  0  0  0  0  0  0  0  0  0  0  0
  -29.0727  -18.2910   24.0351 C   0  0  0  0  0  0  0  0  0  0  0  0
  -22.3957  -16.3437   24.0483 C   0  0  0  0  0  0  0  0  0  0  0  0
  -21.3324  -16.7481   21.9169 C   0  0  0  0  0  0  0  0  0  0  0  0
  -25.3892  -22.3159   20.5590 C   0  0  0  0  0  0  0  0  0  0  0  0
  -21.1042  -19.8940   23.1345 C   0  0  0  0  0  0  0  0  0  0  0  0
  -20.7778  -21.1128   22.5401 C   0  0  0  0  0  0  0  0  0  0  0  0
  -25.7412  -24.1186   22.1228 C   0  0  0  0  0  0  0  0  0  0  0  0
  -18.4833  -20.3896   22.3173 C   0  0  0  0  0  0  0  0  0  0  0  0
  -23.3053  -15.3590   22.0384 C   0  0  0  0  0  0  0  0  0  0  0  0
  -24.2375  -13.1552   21.1542 C   0  0  0  0  0  0  0  0  0  0  0  0
  -30.8804  -24.8835   15.4897 C   0  0  0  0  0  0  0  0  0  0  0  0
  -25.7845  -24.5688   19.7447 C   0  0  0  0  0  0  0  0  0  0  0  0
  -30.3618  -24.6504   16.7777 C   0  0  0  0  0  0  0  0  0  0  0  0
  -25.8795  -25.0305   21.0653 C   0  0  0  0  0  0  0  0  0  0  0  0
  -30.1593  -16.9525   22.3426 C   0  0  0  0  0  0  0  0  0  0  0  0
  -29.1190  -19.3988   23.1888 C   0  0  0  0  0  0  0  0  0  0  0  0
  -21.3836  -16.9416   23.2974 C   0  0  0  0  0  0  0  0  0  0  0  0
  -25.4991  -22.7685   21.8705 C   0  0  0  0  0  0  0  0  0  0  0  0
  -20.1202  -18.9229   23.3203 C   0  0  0  0  0  0  0  0  0  0  0  0
  -19.4673  -21.3607   22.1315 C   0  0  0  0  0  0  0  0  0  0  0  0
  -18.8098  -19.1707   22.9117 C   0  0  0  0  0  0  0  0  0  0  0  0
  -24.2979  -14.5422   21.3875 C   0  0  0  0  0  0  0  0  0  0  0  0
  -25.4152  -12.8637   20.5104 C   0  0  0  0  0  0  0  0  0  0  0  0
  -23.2088  -12.2144   21.4893 C   0  0  0  0  0  0  0  0  0  0  0  0
  -28.1577  -26.5637   19.0436 C   0  0  0  0  0  0  0  0  0  0  0  0
  -26.1601  -28.7731   20.3284 C   0  0  0  0  0  0  0  0  0  0  0  0
  -23.5498  -29.4504   22.4199 C   0  0  0  0  0  0  0  0  0  0  0  0
  -30.6941  -15.3233   20.5395 C   0  0  0  0  0  0  0  0  0  0  0  0
  -31.3198  -26.2570   15.0480 C   0  0  0  0  0  0  0  0  0  0  0  0
  -25.9042  -25.5276   18.5921 C   0  0  0  0  0  0  0  0  0  0  0  0
  -26.1349  -26.4807   21.3819 C   0  0  0  0  0  0  0  0  0  0  0  0
  -30.7589  -27.3833   15.9124 C   0  0  0  0  0  0  0  0  0  0  0  0
  -28.7027  -14.8053   17.6397 C   0  0  0  0  0  0  0  0  0  0  0  0
  -30.9180  -27.0501   17.3924 C   0  0  0  0  0  0  0  0  0  0  0  0
  -27.3277  -14.5526   18.2571 C   0  0  0  0  0  0  0  0  0  0  0  0
  -29.4708  -15.8998   18.3813 C   0  0  0  0  0  0  0  0  0  0  0  0
  -28.2139  -15.4155   20.4574 C   0  0  0  0  0  0  0  0  0  0  0  0
  -30.1396  -25.7808   17.7590 C   0  0  1  0  0  0  0  0  0  0  0  0
  -26.6762  -26.7948   18.9466 C   0  0  1  0  0  0  0  0  0  0  0  0
  -27.4421  -14.2799   19.7673 C   0  0  1  0  0  0  0  0  0  0  0  0
  -31.2516  -23.3182   22.9410 C   0  0  0  0  0  0  0  0  0  0  0  0
  -22.1668  -31.3543   23.2916 C   0  0  0  0  0  0  0  0  0  0  0  0
  -28.4521  -29.5924   22.1684 C   0  0  0  0  0  0  0  0  0  0  0  0
  -26.7811  -30.7788   23.6065 C   0  0  0  0  0  0  0  0  0  0  0  0
  -27.1245  -31.4991   21.2431 C   0  0  0  0  0  0  0  0  0  0  0  0
  -31.4653  -14.8827   22.8604 C   0  0  0  0  0  0  0  0  0  0  0  0
  -21.0632  -28.3164   21.2843 C   0  0  0  0  0  0  0  0  0  0  0  0
  -30.6526  -22.0111   23.4405 C   0  0  0  0  0  0  0  0  0  0  0  0
  -26.2794  -19.9535   23.9794 C   0  0  0  0  0  0  0  0  0  0  0  0
  -29.1703  -21.8790   23.1118 C   0  0  0  0  0  0  0  0  0  0  0  0
  -27.4876  -20.6983   24.5341 C   0  0  0  0  0  0  0  0  0  0  0  0
  -25.7640  -20.5454   22.6728 C   0  0  0  0  0  0  0  0  0  1  0  0
  -25.9247  -29.3241   21.7140 C   0  0  1  0  0  0  0  0  0  0  0  0
  -22.2915  -30.2771   22.2254 C   0  0  2  0  0  0  0  0  0  0  0  0
  -27.0677  -30.2709   22.1774 C   0  0  0  0  0  0  0  0  0  0  0  0
  -25.4249  -15.0935   20.9293 N   0  0  0  0  0  0  0  0  0  0  0  0
  -26.0836  -14.0476   20.4017 N   0  0  0  0  0  0  0  0  0  0  0  0
  -26.2507  -27.3781   20.2205 N   0  0  0  0  0  0  0  0  0  0  0  0
  -29.5187  -15.6173   19.8229 N   0  0  0  0  0  0  0  0  0  0  0  0
  -25.9340  -11.7127   20.0324 N   0  0  0  0  0  0  0  0  0  0  0  0
  -22.0647  -12.6825   22.1498 N   0  0  0  0  0  0  0  0  0  0  0  0
  -28.7276  -26.0724   17.8846 N   0  0  0  0  0  0  0  0  0  0  0  0
  -24.6062  -29.9480   21.6866 N   0  0  0  0  0  0  0  0  0  0  0  0
  -30.6964  -15.6859   21.9036 N   0  0  0  0  0  0  0  0  0  0  0  0
  -28.5970  -20.6289   23.6140 N   0  0  3  0  0  0  0  0  0  0  0  0
  -21.0840  -29.4063   22.2936 N   0  3  0  0  0  0  0  0  0  0  0  0
  -23.3087  -10.9920   21.2261 O   0  0  0  0  0  0  0  0  0  0  0  0
  -28.7409  -26.8142   20.0919 O   0  0  0  0  0  0  0  0  0  0  0  0
  -26.2529  -29.5513   19.3758 O   0  0  0  0  0  0  0  0  0  0  0  0
  -23.5924  -28.4642   23.1522 O   0  0  0  0  0  0  0  0  0  0  0  0
  -31.6572  -14.7570   20.0086 O   0  0  0  0  0  0  0  0  0  0  0  0
  -20.4458  -17.7136   23.9113 O   0  0  0  0  0  0  0  0  0  0  0  0
  -25.3655  -21.8956   22.9060 O   0  0  0  0  0  0  0  0  0  1  0  0
  -19.1537  -22.5318   21.5620 F   0  0  0  0  0  0  0  0  0  0  0  0
  -17.8599  -18.2421   23.0886 F   0  0  0  0  0  0  0  0  0  0  0  0
  1  2  1  0  0  0  0
  1  5  2  0  0  0  0
  2  6  2  0  0  0  0
  3 12  2  0  0  0  0
  3 19  1  0  0  0  0
  4 13  1  0  0  0  0
  4 19  2  0  0  0  0
  5 21  1  0  0  0  0
  6 23  1  0  0  0  0
  7 14  2  0  0  0  0
  7 22  1  0  0  0  0
  8 10  2  0  0  0  0
  8 25  1  0  0  0  0
  9 11  1  0  0  0  0
  9 25  2  0  0  0  0
 10 26  1  0  0  0  0
 11 26  2  0  0  0  0
 12 27  1  0  0  0  0
 13 27  2  0  0  0  0
 14 28  1  0  0  0  0
 15 16  2  0  0  0  0
 15 29  1  0  0  0  0
 16 30  1  0  0  0  0
 17 24  1  0  0  0  0
 17 28  2  0  0  0  0
 18 30  2  0  0  0  0
 18 31  1  0  0  0  0
 19 32  1  0  0  0  0
 20 32  1  0  0  0  0
 20 33  2  0  0  0  0
 20 34  1  0  0  0  0
 21 23  2  0  0  0  0
 21 39  1  0  0  0  0
 22 24  2  0  0  0  0
 22 40  1  0  0  0  0
 23 48  1  0  0  0  0
 24 41  1  0  0  0  0
 25 74  1  0  0  0  0
 26 75  1  0  0  0  0
 27 82  1  0  0  0  0
 28 83  1  0  0  0  0
 29 31  2  0  0  0  0
 29 82  1  0  0  0  0
 30 84  1  0  0  0  0
 31 85  1  0  0  0  0
 32 66  2  0  0  0  0
 33 67  1  0  0  0  0
 33 70  1  0  0  0  0
 34 71  1  0  0  0  0
 34 77  2  0  0  0  0
 35 49  1  0  0  0  0
 35 72  1  0  0  0  0
 35 78  2  0  0  0  0
 36 63  1  0  0  0  0
 36 68  1  0  0  0  0
 36 79  2  0  0  0  0
 37 64  1  0  0  0  0
 37 73  1  0  0  0  0
 37 80  2  0  0  0  0
 38 69  1  0  0  0  0
 38 74  1  0  0  0  0
 38 81  2  0  0  0  0
 39 42  1  0  0  0  0
 40 49  1  0  0  0  0
 41 68  1  0  0  0  0
 42 44  1  0  0  0  0
 43 45  1  0  0  0  0
 43 46  1  0  0  0  0
 44 48  1  0  0  0  0
 45 50  1  0  0  0  0
 46 69  1  0  0  0  0
 47 50  1  0  0  0  0
 47 69  1  0  0  0  0
 48 72  1  0  0  0  0
 49 68  1  0  0  0  0
 50 67  1  0  0  0  0
 51 58  1  0  0  0  0
 52 64  1  0  0  0  0
 53 65  1  0  0  0  0
 54 65  1  0  0  0  0
 55 65  1  0  0  0  0
 56 74  1  0  0  0  0
 57 76  1  0  0  0  0
 58 60  1  0  0  0  0
 59 61  1  0  0  0  0
 59 62  1  0  0  0  0
 60 75  1  0  0  0  0
 61 75  1  0  0  0  0
 62 83  1  0  0  0  0
 63 65  1  0  0  0  0
 63 73  1  0  0  0  0
 64 76  1  0  0  0  0
 66 67  1  0  0  0  0
M  CHG  1  76   1
M  ISO  4  38 100  62 101  74 100  83 101
M  END
> <Batch ID>
0016

> <Smiles>
CCCN(CC[101CH2:1][101O:1]c1ccc2c(c1)CN(C(=O)C(NC(=O)C(C)NC)C(C)(C)C)C(C(=O)NC1CCCc3ccccc31)C2)c1ccc([100N:0](C)[100C:0](=O)N2CCCC(n3nc(-c4ccc(Oc5ccc(F)cc5F)cc4)c(C(N)=O)c3N)C2)cc1

> <Shape>
0.211

> <Color>
0.130

> <Negative vol penalty>
0.000

$$$$

  -OEChem-04042320573D

 88 96  0     1  0  0  0  0  0999 V2000
  -26.9739  -37.8025   19.2659 C   0  0  0  0  0  0  0  0  0  0  0  0
  -27.3833  -36.5284   18.8858 C   0  0  0  0  0  0  0  0  0  0  0  0
  -23.4003   -9.5965   20.2996 C   0  0  0  0  0  0  0  0  0  0  0  0
  -23.8619  -10.1292   22.6105 C   0  0  0  0  0  0  0  0  0  0  0  0
  -26.6209  -38.0537   20.5911 C   0  0  0  0  0  0  0  0  0  0  0  0
  -27.4410  -35.5049   19.8312 C   0  0  0  0  0  0  0  0  0  0  0  0
  -26.2389  -29.5709   18.9104 C   0  0  0  0  0  0  0  0  0  0  0  0
  -22.7469   -8.4306   20.6989 C   0  0  0  0  0  0  0  0  0  0  0  0
  -23.2084   -8.9633   23.0098 C   0  0  0  0  0  0  0  0  0  0  0  0
  -27.0646  -28.4709   18.6825 C   0  0  0  0  0  0  0  0  0  0  0  0
  -20.0234   -7.9117   23.4225 C   0  0  0  0  0  0  0  0  0  0  0  0
  -19.1330   -8.0036   24.4922 C   0  0  0  0  0  0  0  0  0  0  0  0
  -26.9888  -27.9346   21.0332 C   0  0  0  0  0  0  0  0  0  0  0  0
  -29.9447  -20.5678   22.2958 C   0  0  0  0  0  0  0  0  0  0  0  0
  -31.1086  -22.3166   20.4601 C   0  0  0  0  0  0  0  0  0  0  0  0
  -20.4550   -6.4045   25.7300 C   0  0  0  0  0  0  0  0  0  0  0  0
  -23.9578  -10.4457   21.2554 C   0  0  0  0  0  0  0  0  0  0  0  0
  -24.0643  -12.9249   20.6635 C   0  0  0  0  0  0  0  0  0  0  0  0
  -26.6651  -37.0305   21.5511 C   0  0  0  0  0  0  0  0  0  0  0  0
  -25.7900  -29.8678   20.2053 C   0  0  0  0  0  0  0  0  0  0  0  0
  -27.0895  -35.7430   21.1707 C   0  0  0  0  0  0  0  0  0  0  0  0
  -26.1554  -29.0374   21.2745 C   0  0  0  0  0  0  0  0  0  0  0  0
  -30.4168  -20.0850   21.0753 C   0  0  0  0  0  0  0  0  0  0  0  0
  -30.6364  -22.7994   21.6806 C   0  0  0  0  0  0  0  0  0  0  0  0
  -22.6509   -8.1140   22.0539 C   0  0  0  0  0  0  0  0  0  0  0  0
  -27.4421  -27.6542   19.7444 C   0  0  0  0  0  0  0  0  0  0  0  0
  -21.1296   -7.0662   23.5065 C   0  0  0  0  0  0  0  0  0  0  0  0
  -19.3488   -7.2500   25.6460 C   0  0  0  0  0  0  0  0  0  0  0  0
  -30.9988  -20.9594   20.1575 C   0  0  0  0  0  0  0  0  0  0  0  0
  -30.0545  -21.9251   22.5985 C   0  0  0  0  0  0  0  0  0  0  0  0
  -21.3454   -6.3126   24.6602 C   0  0  0  0  0  0  0  0  0  0  0  0
  -24.6334  -11.6499   20.8435 C   0  0  0  0  0  0  0  0  0  0  0  0
  -25.1151  -13.7178   20.2717 C   0  0  0  0  0  0  0  0  0  0  0  0
  -22.7071  -13.3541   20.8352 C   0  0  0  0  0  0  0  0  0  0  0  0
  -26.1456  -32.3207   22.1953 C   0  0  0  0  0  0  0  0  0  0  0  0
  -30.4211  -15.3623   20.9287 C   0  0  0  0  0  0  0  0  0  0  0  0
  -24.0186  -30.6632   23.9983 C   0  0  0  0  0  0  0  0  0  0  0  0
  -30.3324  -17.7360   21.8201 C   0  0  0  0  0  0  0  0  0  0  0  0
  -22.6124  -27.6552   24.7865 C   0  0  0  0  0  0  0  0  0  0  0  0
  -26.3194  -37.3615   22.9813 C   0  0  0  0  0  0  0  0  0  0  0  0
  -24.8780  -31.0425   20.4303 C   0  0  0  0  0  0  0  0  0  0  0  0
  -25.6839  -29.3011   22.6804 C   0  0  0  0  0  0  0  0  0  0  0  0
  -26.0489  -36.1309   23.8431 C   0  0  0  0  0  0  0  0  0  0  0  0
  -29.8077  -12.5120   18.8455 C   0  0  0  0  0  0  0  0  0  0  0  0
  -27.1274  -35.0754   23.6200 C   0  0  0  0  0  0  0  0  0  0  0  0
  -28.3707  -12.1203   19.1871 C   0  0  0  0  0  0  0  0  0  0  0  0
  -30.5462  -13.0475   20.0682 C   0  0  0  0  0  0  0  0  0  0  0  0
  -28.4197  -13.7997   21.0850 C   0  0  0  0  0  0  0  0  0  0  0  0
  -27.1414  -34.6006   22.1619 C   0  0  1  0  0  0  0  0  0  0  0  0
  -24.8988  -31.5480   21.8695 C   0  0  1  0  0  0  0  0  0  0  0  0
  -27.6286  -13.2824   19.8706 C   0  0  2  0  0  0  0  0  0  0  0  0
  -20.9288  -26.6109   26.3268 C   0  0  0  0  0  0  0  0  0  0  0  0
  -26.0076  -30.8625   26.3036 C   0  0  0  0  0  0  0  0  0  0  0  0
  -24.7389  -29.0424   27.4637 C   0  0  0  0  0  0  0  0  0  0  0  0
  -23.6182  -31.2119   26.9542 C   0  0  0  0  0  0  0  0  0  0  0  0
  -30.1532  -18.2655   19.3600 C   0  0  0  0  0  0  0  0  0  0  0  0
  -30.2529  -24.6730   23.2627 C   0  0  0  0  0  0  0  0  0  0  0  0
  -20.9445  -26.7291   22.5239 C   0  0  0  0  0  0  0  0  0  0  0  0
  -29.5856  -16.4343   21.5819 C   0  0  0  0  0  0  0  0  0  0  0  0
  -30.3554  -25.5338   19.9992 C   0  0  0  0  0  0  0  0  0  0  0  0
  -31.3569  -25.0919   21.0594 C   0  0  0  0  0  0  0  0  0  0  0  0
  -29.1125  -26.1881   20.5908 C   0  0  0  0  0  0  0  0  0  1  0  0
  -24.1213  -29.6040   25.0691 C   0  0  1  0  0  0  0  0  0  0  0  0
  -21.1640  -27.2349   24.9600 C   0  0  2  0  0  0  0  0  0  0  0  0
  -24.6321  -30.1761   26.4216 C   0  0  0  0  0  0  0  0  0  0  0  0
  -25.9441  -11.6294   20.5869 N   0  0  0  0  0  0  0  0  0  0  0  0
  -26.2072  -12.9013   20.2416 N   0  0  0  0  0  0  0  0  0  0  0  0
  -24.7989  -30.4653   22.8504 N   0  0  0  0  0  0  0  0  0  0  0  0
  -29.7983  -14.1348   20.7019 N   0  0  0  0  0  0  0  0  0  0  0  0
  -25.2023  -15.0267   19.9532 N   0  0  0  0  0  0  0  0  0  0  0  0
  -21.7543  -12.4103   21.2424 N   0  0  0  0  0  0  0  0  0  0  0  0
  -26.0572  -33.6724   21.9222 N   0  0  0  0  0  0  0  0  0  0  0  0
  -22.8086  -28.9720   25.1453 N   0  0  0  0  0  0  0  0  0  0  0  0
  -30.3048  -18.7270   20.7750 N   0  0  0  0  0  0  0  0  0  0  0  0
  -30.7480  -24.1644   21.9821 N   0  0  3  0  0  0  0  0  0  0  0  0
  -20.7850  -26.2397   23.9175 N   0  3  0  0  0  0  0  0  0  0  0  0
  -22.3467  -14.5357   20.6177 O   0  0  0  0  0  0  0  0  0  0  0  0
  -27.1154  -31.7343   22.6614 O   0  0  0  0  0  0  0  0  0  0  0  0
  -31.5913  -15.6112   20.6270 O   0  0  0  0  0  0  0  0  0  0  0  0
  -23.2681  -31.6268   24.1710 O   0  0  0  0  0  0  0  0  0  0  0  0
  -30.9516  -17.8832   22.8769 O   0  0  0  0  0  0  0  0  0  0  0  0
  -23.4834  -26.8906   24.3775 O   0  0  0  0  0  0  0  0  0  0  0  0
  -22.0132   -6.9766   22.4439 O   0  0  0  0  0  0  0  0  0  0  0  0
  -28.2486  -26.5803   19.5248 O   0  0  0  0  0  0  0  0  0  1  0  0
  -18.4945   -7.3395   26.6737 F   0  0  0  0  0  0  0  0  0  0  0  0
  -31.4538  -20.5067   18.9805 F   0  0  0  0  0  0  0  0  0  0  0  0
  -29.5970  -22.3791   23.7741 F   0  0  0  0  0  0  0  0  0  0  0  0
  -22.4070   -5.4994   24.7473 F   0  0  0  0  0  0  0  0  0  0  0  0
  1  2  1  0  0  0  0
  1  5  2  0  0  0  0
  2  6  2  0  0  0  0
  3  8  2  0  0  0  0
  3 17  1  0  0  0  0
  4  9  1  0  0  0  0
  4 17  2  0  0  0  0
  5 19  1  0  0  0  0
  6 21  1  0  0  0  0
  7 10  2  0  0  0  0
  7 20  1  0  0  0  0
  8 25  1  0  0  0  0
  9 25  2  0  0  0  0
 10 26  1  0  0  0  0
 11 12  2  0  0  0  0
 11 27  1  0  0  0  0
 12 28  1  0  0  0  0
 13 22  1  0  0  0  0
 13 26  2  0  0  0  0
 14 23  2  0  0  0  0
 14 30  1  0  0  0  0
 15 24  1  0  0  0  0
 15 29  2  0  0  0  0
 16 28  2  0  0  0  0
 16 31  1  0  0  0  0
 17 32  1  0  0  0  0
 18 32  1  0  0  0  0
 18 33  2  0  0  0  0
 18 34  1  0  0  0  0
 19 21  2  0  0  0  0
 19 40  1  0  0  0  0
 20 22  2  0  0  0  0
 20 41  1  0  0  0  0
 21 49  1  0  0  0  0
 22 42  1  0  0  0  0
 23 29  1  0  0  0  0
 23 74  1  0  0  0  0
 24 30  2  0  0  0  0
 24 75  1  0  0  0  0
 25 83  1  0  0  0  0
 26 84  1  0  0  0  0
 27 31  2  0  0  0  0
 27 83  1  0  0  0  0
 28 85  1  0  0  0  0
 29 86  1  0  0  0  0
 30 87  1  0  0  0  0
 31 88  1  0  0  0  0
 32 66  2  0  0  0  0
 33 67  1  0  0  0  0
 33 70  1  0  0  0  0
 34 71  1  0  0  0  0
 34 77  2  0  0  0  0
 35 50  1  0  0  0  0
 35 72  1  0  0  0  0
 35 78  2  0  0  0  0
 36 59  1  0  0  0  0
 36 69  1  0  0  0  0
 36 79  2  0  0  0  0
 37 63  1  0  0  0  0
 37 68  1  0  0  0  0
 37 80  2  0  0  0  0
 38 59  1  0  0  0  0
 38 74  1  0  0  0  0
 38 81  2  0  0  0  0
 39 64  1  0  0  0  0
 39 73  1  0  0  0  0
 39 82  2  0  0  0  0
 40 43  1  0  0  0  0
 41 50  1  0  0  0  0
 42 68  1  0  0  0  0
 43 45  1  0  0  0  0
 44 46  1  0  0  0  0
 44 47  1  0  0  0  0
 45 49  1  0  0  0  0
 46 51  1  0  0  0  0
 47 69  1  0  0  0  0
 48 51  1  0  0  0  0
 48 69  1  0  0  0  0
 49 72  1  0  0  0  0
 50 68  1  0  0  0  0
 51 67  1  0  0  0  0
 52 64  1  0  0  0  0
 53 65  1  0  0  0  0
 54 65  1  0  0  0  0
 55 65  1  0  0  0  0
 56 74  1  0  0  0  0
 57 75  1  0  0  0  0
 58 76  1  0  0  0  0
 60 61  1  0  0  0  0
 60 62  1  0  0  0  0
 61 75  1  0  0  0  0
 62 84  1  0  0  0  0
 63 65  1  0  0  0  0
 63 73  1  0  0  0  0
 64 76  1  0  0  0  0
 66 67  1  0  0  0  0
M  CHG  1  76   1
M  ISO  4  36 100  59 100  62 101  84 101
M  END
> <Batch ID>
0016

> <Smiles>
CNC(C)C(=O)NC(C(=O)N1Cc2cc([101O:1][101CH2:1]CCN(C)c3cc(F)c(N(C)C(=O)[100CH2:0][100C:0](=O)N4CCCC(n5nc(-c6ccc(Oc7ccc(F)cc7F)cc6)c(C(N)=O)c5N)C4)cc3F)ccc2CC1C(=O)NC1CCCc2ccccc21)C(C)(C)C

> <Shape>
0.340

> <Color>
0.209

> <Negative vol penalty>
0.000

$$$$

  -OEChem-04042320573D

 88 97  0     1  0  0  0  0  0999 V2000
  -21.1101  -35.6587   20.6928 C   0  0  0  0  0  0  0  0  0  0  0  0
  -21.8932  -34.7190   20.0302 C   0  0  0  0  0  0  0  0  0  0  0  0
  -22.8378  -10.5020   20.7646 C   0  0  0  0  0  0  0  0  0  0  0  0
  -24.5525   -8.9291   21.4149 C   0  0  0  0  0  0  0  0  0  0  0  0
  -21.3662  -35.9595   22.0299 C   0  0  0  0  0  0  0  0  0  0  0  0
  -22.9336  -34.0803   20.7040 C   0  0  0  0  0  0  0  0  0  0  0  0
  -24.8244  -28.3068   19.9305 C   0  0  0  0  0  0  0  0  0  0  0  0
  -27.3908  -17.9055   20.6692 C   0  0  0  0  0  0  0  0  0  0  0  0
  -27.3211  -19.2940   20.7812 C   0  0  0  0  0  0  0  0  0  0  0  0
  -21.9632   -9.9306   21.6888 C   0  0  0  0  0  0  0  0  0  0  0  0
  -23.6779   -8.3578   22.3391 C   0  0  0  0  0  0  0  0  0  0  0  0
  -25.8773  -27.7542   19.2026 C   0  0  0  0  0  0  0  0  0  0  0  0
  -21.0787   -6.1959   22.3030 C   0  0  0  0  0  0  0  0  0  0  0  0
  -21.0105   -4.8038   22.3558 C   0  0  0  0  0  0  0  0  0  0  0  0
  -27.2390  -27.7413   21.1938 C   0  0  0  0  0  0  0  0  0  0  0  0
  -29.8036  -18.0277   20.6532 C   0  0  0  0  0  0  0  0  0  0  0  0
  -21.7121   -4.8572   24.6671 C   0  0  0  0  0  0  0  0  0  0  0  0
  -24.1324  -10.0012   20.6276 C   0  0  0  0  0  0  0  0  0  0  0  0
  -24.8591  -10.6824   18.2790 C   0  0  0  0  0  0  0  0  0  0  0  0
  -22.4041  -35.3171   22.7232 C   0  0  0  0  0  0  0  0  0  0  0  0
  -24.9748  -28.5914   21.2953 C   0  0  0  0  0  0  0  0  0  0  0  0
  -23.2047  -34.3737   22.0512 C   0  0  0  0  0  0  0  0  0  0  0  0
  -26.1857  -28.2951   21.9373 C   0  0  0  0  0  0  0  0  0  0  0  0
  -28.6320  -17.2723   20.6052 C   0  0  0  0  0  0  0  0  0  0  0  0
  -28.4927  -20.0495   20.8292 C   0  0  0  0  0  0  0  0  0  0  0  0
  -22.3832   -8.8585   22.4761 C   0  0  0  0  0  0  0  0  0  0  0  0
  -27.0858  -27.4740   19.8336 C   0  0  0  0  0  0  0  0  0  0  0  0
  -21.4637   -6.9188   23.4321 C   0  0  0  0  0  0  0  0  0  0  0  0
  -21.3272   -4.1344   23.5379 C   0  0  0  0  0  0  0  0  0  0  0  0
  -29.7340  -19.4163   20.7652 C   0  0  0  0  0  0  0  0  0  0  0  0
  -21.7804   -6.2494   24.6142 C   0  0  0  0  0  0  0  0  0  0  0  0
  -25.0362  -10.5906   19.6726 C   0  0  0  0  0  0  0  0  0  0  0  0
  -25.9890  -11.3217   17.8307 C   0  0  0  0  0  0  0  0  0  0  0  0
  -23.7706  -10.2302   17.4628 C   0  0  0  0  0  0  0  0  0  0  0  0
  -24.8672  -31.2323   23.0612 C   0  0  0  0  0  0  0  0  0  0  0  0
  -25.1373  -29.1325   25.5189 C   0  0  0  0  0  0  0  0  0  0  0  0
  -26.1434  -26.0577   26.6052 C   0  0  0  0  0  0  0  0  0  0  0  0
  -29.8522  -15.0765   20.4157 C   0  0  0  0  0  0  0  0  0  0  0  0
  -22.6731  -35.7098   24.1544 C   0  0  0  0  0  0  0  0  0  0  0  0
  -23.8206  -29.1627   22.0724 C   0  0  0  0  0  0  0  0  0  0  0  0
  -26.3914  -28.5630   23.4051 C   0  0  0  0  0  0  0  0  0  0  0  0
  -23.5557  -34.7147   24.9035 C   0  0  0  0  0  0  0  0  0  0  0  0
  -30.6145  -11.9443   18.9039 C   0  0  0  0  0  0  0  0  0  0  0  0
  -24.7630  -34.3280   24.0551 C   0  0  0  0  0  0  0  0  0  0  0  0
  -28.4544  -24.1571   18.2926 C   0  0  0  0  0  0  0  0  0  0  0  0
  -30.6518  -24.1689   19.5450 C   0  0  0  0  0  0  0  0  0  0  0  0
  -29.2536  -11.2526   18.7971 C   0  0  0  0  0  0  0  0  0  0  0  0
  -27.8824  -23.1627   19.3040 C   0  0  0  0  0  0  0  0  0  0  0  0
  -30.0818  -23.1737   20.5566 C   0  0  0  0  0  0  0  0  0  0  0  0
  -30.7345  -12.7647   20.1870 C   0  0  0  0  0  0  0  0  0  0  0  0
  -28.2889  -13.0371   20.3043 C   0  0  0  0  0  0  0  0  0  0  0  0
  -24.3266  -33.6416   22.7551 C   0  0  1  0  0  0  0  0  0  0  0  0
  -24.2558  -29.8887   23.3416 C   0  0  1  0  0  0  0  0  0  0  0  0
  -29.5730  -25.0332   18.8756 C   0  0  0  0  0  0  0  0  0  0  0  0
  -28.0966  -12.2511   18.9971 C   0  0  2  0  0  0  0  0  0  0  0  0
  -28.9869  -22.3093   19.9299 C   0  0  0  0  0  0  0  0  0  0  0  0
  -28.4041  -21.6610   23.3670 C   0  0  0  0  0  0  0  0  0  0  0  0
  -26.2684  -24.6432   28.6743 C   0  0  0  0  0  0  0  0  0  0  0  0
  -27.5215  -30.7697   26.4911 C   0  0  0  0  0  0  0  0  0  0  0  0
  -28.1673  -28.8365   27.9450 C   0  0  0  0  0  0  0  0  0  0  0  0
  -25.9840  -29.9889   28.3024 C   0  0  0  0  0  0  0  0  0  0  0  0
  -24.3913  -23.9811   25.4317 C   0  0  0  0  0  0  0  0  0  0  0  0
  -29.0203  -26.0907   19.8354 C   0  0  0  0  0  0  0  0  0  1  0  0
  -27.7497  -22.0560   22.0870 C   0  0  0  0  0  0  0  0  0  0  0  0
  -26.2883  -28.5119   26.2732 C   0  0  1  0  0  0  0  0  0  0  0  0
  -25.4430  -25.0092   27.4506 C   0  0  2  0  0  0  0  0  0  0  0  0
  -26.9874  -29.5234   27.2248 C   0  0  0  0  0  0  0  0  0  0  0  0
  -26.1880  -11.1285   20.0826 N   0  0  0  0  0  0  0  0  0  0  0  0
  -26.7449  -11.5643   18.9398 N   0  0  0  0  0  0  0  0  0  0  0  0
  -25.2352  -29.1280   24.1203 N   0  0  0  0  0  0  0  0  0  0  0  0
  -29.6068  -13.6913   20.3069 N   0  0  0  0  0  0  0  0  0  0  0  0
  -26.3999  -11.6944   16.6000 N   0  0  0  0  0  0  0  0  0  0  0  0
  -22.6886   -9.5928   18.0852 N   0  0  0  0  0  0  0  0  0  0  0  0
  -28.7023  -15.8617   20.4910 N   0  0  0  0  0  0  0  0  0  0  0  0
  -23.9527  -32.2670   23.0102 N   0  0  0  0  0  0  0  0  0  0  0  0
  -25.7488  -27.3345   26.9448 N   0  0  0  0  0  0  0  0  0  0  0  0
  -28.4198  -21.4433   20.9408 N   0  0  3  0  0  0  0  0  0  0  0  0
  -25.2104  -23.7718   26.6533 N   0  3  0  0  0  0  0  0  0  0  0  0
  -23.7652  -10.3721   16.2164 O   0  0  0  0  0  0  0  0  0  0  0  0
  -26.0791  -31.3237   22.9042 O   0  0  0  0  0  0  0  0  0  0  0  0
  -24.1831  -29.5975   26.1473 O   0  0  0  0  0  0  0  0  0  0  0  0
  -26.9616  -25.7727   25.7336 O   0  0  0  0  0  0  0  0  0  0  0  0
  -30.9977  -15.5347   20.4130 O   0  0  0  0  0  0  0  0  0  0  0  0
  -21.5301   -8.3009   23.3783 O   0  0  0  0  0  0  0  0  0  0  0  0
  -28.1153  -26.9352   19.1253 O   0  0  0  0  0  0  0  0  0  1  0  0
  -21.2601   -2.7976   23.5890 F   0  0  0  0  0  0  0  0  0  0  0  0
  -30.8661  -20.1330   20.8088 F   0  0  0  0  0  0  0  0  0  0  0  0
  -22.1497   -6.9385   25.7026 F   0  0  0  0  0  0  0  0  0  0  0  0
  1  2  1  0  0  0  0
  1  5  2  0  0  0  0
  2  6  2  0  0  0  0
  3 10  2  0  0  0  0
  3 18  1  0  0  0  0
  4 11  1  0  0  0  0
  4 18  2  0  0  0  0
  5 20  1  0  0  0  0
  6 22  1  0  0  0  0
  7 12  2  0  0  0  0
  7 21  1  0  0  0  0
  8  9  2  0  0  0  0
  8 24  1  0  0  0  0
  9 25  1  0  0  0  0
 10 26  1  0  0  0  0
 11 26  2  0  0  0  0
 12 27  1  0  0  0  0
 13 14  2  0  0  0  0
 13 28  1  0  0  0  0
 14 29  1  0  0  0  0
 15 23  1  0  0  0  0
 15 27  2  0  0  0  0
 16 24  2  0  0  0  0
 16 30  1  0  0  0  0
 17 29  2  0  0  0  0
 17 31  1  0  0  0  0
 18 32  1  0  0  0  0
 19 32  1  0  0  0  0
 19 33  2  0  0  0  0
 19 34  1  0  0  0  0
 20 22  2  0  0  0  0
 20 39  1  0  0  0  0
 21 23  2  0  0  0  0
 21 40  1  0  0  0  0
 22 52  1  0  0  0  0
 23 41  1  0  0  0  0
 24 74  1  0  0  0  0
 25 30  2  0  0  0  0
 25 77  1  0  0  0  0
 26 84  1  0  0  0  0
 27 85  1  0  0  0  0
 28 31  2  0  0  0  0
 28 84  1  0  0  0  0
 29 86  1  0  0  0  0
 30 87  1  0  0  0  0
 31 88  1  0  0  0  0
 32 68  2  0  0  0  0
 33 69  1  0  0  0  0
 33 72  1  0  0  0  0
 34 73  1  0  0  0  0
 34 79  2  0  0  0  0
 35 53  1  0  0  0  0
 35 75  1  0  0  0  0
 35 80  2  0  0  0  0
 36 65  1  0  0  0  0
 36 70  1  0  0  0  0
 36 81  2  0  0  0  0
 37 66  1  0  0  0  0
 37 76  1  0  0  0  0
 37 82  2  0  0  0  0
 38 71  1  0  0  0  0
 38 74  1  0  0  0  0
 38 83  2  0  0  0  0
 39 42  1  0  0  0  0
 40 53  1  0  0  0  0
 41 70  1  0  0  0  0
 42 44  1  0  0  0  0
 43 47  1  0  0  0  0
 43 50  1  0  0  0  0
 44 52  1  0  0  0  0
 45 48  1  0  0  0  0
 45 54  1  0  0  0  0
 46 49  1  0  0  0  0
 46 54  1  0  0  0  0
 47 55  1  0  0  0  0
 48 56  1  0  0  0  0
 49 56  1  0  0  0  0
 50 71  1  0  0  0  0
 51 55  1  0  0  0  0
 51 71  1  0  0  0  0
 52 75  1  0  0  0  0
 53 70  1  0  0  0  0
 54 63  1  0  0  0  0
 55 69  1  0  0  0  0
 56 77  1  0  0  0  0
 57 64  1  0  0  0  0
 58 66  1  0  0  0  0
 59 67  1  0  0  0  0
 60 67  1  0  0  0  0
 61 67  1  0  0  0  0
 62 78  1  0  0  0  0
 63 85  1  0  0  0  0
 64 77  1  0  0  0  0
 65 67  1  0  0  0  0
 65 76  1  0  0  0  0
 66 78  1  0  0  0  0
 68 69  1  0  0  0  0
M  CHG  1  78   1
M  ISO  4  38 100  63 101  74 100  85 101
M  END
> <Batch ID>
0016

> <Smiles>
CCN(c1ccc([100NH:0][100C:0](=O)N2CCCC(n3nc(-c4ccc(Oc5ccc(F)cc5F)cc4)c(C(N)=O)c3N)C2)cc1F)C1CCC([101CH2:1][101O:1]c2ccc3c(c2)CN(C(=O)C(NC(=O)C(C)NC)C(C)(C)C)C(C(=O)NC2CCCc4ccccc42)C3)CC1

> <Shape>
0.297

> <Color>
0.088

> <Negative vol penalty>
0.000

$$$$

  -OEChem-04042320573D

 85 94  0     1  0  0  0  0  0999 V2000
  -20.7286  -30.7468   24.9602 C   0  0  0  0  0  0  0  0  0  0  0  0
  -21.2584  -29.4956   24.6616 C   0  0  0  0  0  0  0  0  0  0  0  0
  -23.0517  -10.0397   19.9316 C   0  0  0  0  0  0  0  0  0  0  0  0
  -23.8492   -9.8721   22.2061 C   0  0  0  0  0  0  0  0  0  0  0  0
  -19.4123  -31.0464   24.6116 C   0  0  0  0  0  0  0  0  0  0  0  0
  -20.4719  -28.5428   24.0151 C   0  0  0  0  0  0  0  0  0  0  0  0
  -22.3435  -24.3810   19.9307 C   0  0  0  0  0  0  0  0  0  0  0  0
  -25.2527  -15.6782   16.2453 C   0  0  0  0  0  0  0  0  0  0  0  0
  -26.2301  -14.8013   15.7750 C   0  0  0  0  0  0  0  0  0  0  0  0
  -22.2844   -8.8896   20.1159 C   0  0  0  0  0  0  0  0  0  0  0  0
  -23.0818   -8.7220   22.3904 C   0  0  0  0  0  0  0  0  0  0  0  0
  -22.6655  -23.0297   20.0488 C   0  0  0  0  0  0  0  0  0  0  0  0
  -19.3420   -8.0637   21.5627 C   0  0  0  0  0  0  0  0  0  0  0  0
  -18.0265   -8.0810   21.0991 C   0  0  0  0  0  0  0  0  0  0  0  0
  -20.4319  -22.4428   19.3517 C   0  0  0  0  0  0  0  0  0  0  0  0
  -27.8376  -15.7807   17.2896 C   0  0  0  0  0  0  0  0  0  0  0  0
  -18.5171   -6.2206   19.6378 C   0  0  0  0  0  0  0  0  0  0  0  0
  -23.8342  -10.5309   20.9767 C   0  0  0  0  0  0  0  0  0  0  0  0
  -24.2352  -13.0498   21.0226 C   0  0  0  0  0  0  0  0  0  0  0  0
  -18.6123  -30.1002   23.9518 C   0  0  0  0  0  0  0  0  0  0  0  0
  -21.0579  -24.7742   19.5321 C   0  0  0  0  0  0  0  0  0  0  0  0
  -19.1432  -28.8296   23.6585 C   0  0  0  0  0  0  0  0  0  0  0  0
  -20.0970  -23.7998   19.2268 C   0  0  0  0  0  0  0  0  0  0  0  0
  -25.5677  -16.6065   17.2377 C   0  0  0  0  0  0  0  0  0  0  0  0
  -27.5225  -14.8525   16.2972 C   0  0  0  0  0  0  0  0  0  0  0  0
  -22.2993   -8.2308   21.3453 C   0  0  0  0  0  0  0  0  0  0  0  0
  -21.7088  -22.0604   19.7621 C   0  0  0  0  0  0  0  0  0  0  0  0
  -20.2450   -7.1250   21.0638 C   0  0  0  0  0  0  0  0  0  0  0  0
  -17.6141   -7.1594   20.1367 C   0  0  0  0  0  0  0  0  0  0  0  0
  -26.8601  -16.6577   17.7599 C   0  0  0  0  0  0  0  0  0  0  0  0
  -19.8326   -6.2034   20.1014 C   0  0  0  0  0  0  0  0  0  0  0  0
  -24.6276  -11.7186   20.7867 C   0  0  0  0  0  0  0  0  0  0  0  0
  -25.3390  -13.7970   20.6915 C   0  0  0  0  0  0  0  0  0  0  0  0
  -22.9846  -13.5649   21.4986 C   0  0  0  0  0  0  0  0  0  0  0  0
  -18.7081  -26.4461   20.8688 C   0  0  0  0  0  0  0  0  0  0  0  0
  -17.3383  -26.1191   17.9466 C   0  0  0  0  0  0  0  0  0  0  0  0
  -17.1114  -24.3543   15.0344 C   0  0  0  0  0  0  0  0  0  0  0  0
  -29.6012  -13.4825   16.6028 C   0  0  0  0  0  0  0  0  0  0  0  0
  -17.1801  -30.4534   23.6373 C   0  0  0  0  0  0  0  0  0  0  0  0
  -20.7345  -26.2357   19.3838 C   0  0  0  0  0  0  0  0  0  0  0  0
  -18.7085  -24.1694   18.7753 C   0  0  0  0  0  0  0  0  0  0  0  0
  -16.5318  -29.5189   22.6192 C   0  0  0  0  0  0  0  0  0  0  0  0
  -30.1700  -12.9129   20.2146 C   0  0  0  0  0  0  0  0  0  0  0  0
  -16.8229  -28.0631   22.9697 C   0  0  0  0  0  0  0  0  0  0  0  0
  -28.7700  -12.5869   20.7313 C   0  0  0  0  0  0  0  0  0  0  0  0
  -22.6455  -18.7833   17.7961 C   0  0  0  0  0  0  0  0  0  0  0  0
  -30.3425  -12.5098   18.7533 C   0  0  0  0  0  0  0  0  0  0  0  0
  -23.2226  -17.4951   17.2132 C   0  0  0  0  0  0  0  0  0  0  0  0
  -24.8294  -18.4855   18.7279 C   0  0  0  0  0  0  0  0  0  0  0  0
  -27.9097  -12.7758   18.3637 C   0  0  0  0  0  0  0  0  0  0  0  0
  -18.3293  -27.7782   22.9359 C   0  0  1  0  0  0  0  0  0  0  0  0
  -19.2395  -26.5281   19.4657 C   0  0  1  0  0  0  0  0  0  0  0  0
  -23.4179  -18.9521   19.1013 C   0  0  1  0  0  0  0  0  0  0  0  0
  -27.6976  -13.2092   19.8219 C   0  0  1  0  0  0  0  0  0  0  0  0
  -15.8764  -24.3078   12.8504 C   0  0  0  0  0  0  0  0  0  0  0  0
  -14.8813  -24.9930   19.3627 C   0  0  0  0  0  0  0  0  0  0  0  0
  -14.1028  -24.1040   17.1555 C   0  0  0  0  0  0  0  0  0  0  0  0
  -14.3741  -26.5621   17.4825 C   0  0  0  0  0  0  0  0  0  0  0  0
  -28.5989  -13.7020   14.3715 C   0  0  0  0  0  0  0  0  0  0  0  0
  -19.6080  -24.6974   13.4825 C   0  0  0  0  0  0  0  0  0  0  0  0
  -23.3782  -20.3708   19.6415 C   0  0  0  0  0  0  0  0  0  1  0  0
  -16.4298  -25.1017   17.2996 C   0  0  1  0  0  0  0  0  0  0  0  0
  -17.1144  -24.8005   13.5834 C   0  0  2  0  0  0  0  0  0  0  0  0
  -14.9725  -25.1830   17.8355 C   0  0  0  0  0  0  0  0  0  0  0  0
  -25.8827  -11.6225   20.3401 N   0  0  0  0  0  0  0  0  0  0  0  0
  -26.2885  -12.9028   20.2927 N   0  0  0  0  0  0  0  0  0  0  0  0
  -24.5998  -17.4730   17.6995 N   0  0  3  0  0  0  0  0  0  0  0  0
  -18.4388  -25.6114   18.6516 N   0  0  0  0  0  0  0  0  0  0  0  0
  -29.2807  -13.0602   17.9094 N   0  0  0  0  0  0  0  0  0  0  0  0
  -25.5804  -15.1252   20.7055 N   0  0  0  0  0  0  0  0  0  0  0  0
  -21.9566  -12.6584   21.7914 N   0  0  0  0  0  0  0  0  0  0  0  0
  -18.7860  -27.6341   21.5702 N   0  0  0  0  0  0  0  0  0  0  0  0
  -16.5492  -25.3050   15.8599 N   0  0  0  0  0  0  0  0  0  0  0  0
  -28.5332  -13.9455   15.8108 N   0  0  0  0  0  0  0  0  0  0  0  0
  -18.3179  -24.2716   12.8813 N   0  3  0  0  0  0  0  0  0  0  0  0
  -22.7792  -14.7938   21.6438 O   0  0  0  0  0  0  0  0  0  0  0  0
  -18.2592  -25.3840   21.2837 O   0  0  0  0  0  0  0  0  0  0  0  0
  -17.0850  -27.3202   17.8248 O   0  0  0  0  0  0  0  0  0  0  0  0
  -17.5593  -23.2693   15.3986 O   0  0  0  0  0  0  0  0  0  0  0  0
  -30.7505  -13.4009   16.1522 O   0  0  0  0  0  0  0  0  0  0  0  0
  -21.5505   -7.1086   21.5256 O   0  0  0  0  0  0  0  0  0  0  0  0
  -22.0202  -20.7406   19.8771 O   0  0  0  0  0  0  0  0  0  1  0  0
  -16.3504   -7.1751   19.6927 F   0  0  0  0  0  0  0  0  0  0  0  0
  -27.1737  -17.5470   18.7128 F   0  0  0  0  0  0  0  0  0  0  0  0
  -20.6953   -5.2984   19.6192 F   0  0  0  0  0  0  0  0  0  0  0  0
  1  2  1  0  0  0  0
  1  5  2  0  0  0  0
  2  6  2  0  0  0  0
  3 10  2  0  0  0  0
  3 18  1  0  0  0  0
  4 11  1  0  0  0  0
  4 18  2  0  0  0  0
  5 20  1  0  0  0  0
  6 22  1  0  0  0  0
  7 12  2  0  0  0  0
  7 21  1  0  0  0  0
  8  9  2  0  0  0  0
  8 24  1  0  0  0  0
  9 25  1  0  0  0  0
 10 26  1  0  0  0  0
 11 26  2  0  0  0  0
 12 27  1  0  0  0  0
 13 14  2  0  0  0  0
 13 28  1  0  0  0  0
 14 29  1  0  0  0  0
 15 23  1  0  0  0  0
 15 27  2  0  0  0  0
 16 25  2  0  0  0  0
 16 30  1  0  0  0  0
 17 29  2  0  0  0  0
 17 31  1  0  0  0  0
 18 32  1  0  0  0  0
 19 32  1  0  0  0  0
 19 33  2  0  0  0  0
 19 34  1  0  0  0  0
 20 22  2  0  0  0  0
 20 39  1  0  0  0  0
 21 23  2  0  0  0  0
 21 40  1  0  0  0  0
 22 51  1  0  0  0  0
 23 41  1  0  0  0  0
 24 30  2  0  0  0  0
 24 67  1  0  0  0  0
 25 74  1  0  0  0  0
 26 81  1  0  0  0  0
 27 82  1  0  0  0  0
 28 31  2  0  0  0  0
 28 81  1  0  0  0  0
 29 83  1  0  0  0  0
 30 84  1  0  0  0  0
 31 85  1  0  0  0  0
 32 65  2  0  0  0  0
 33 66  1  0  0  0  0
 33 70  1  0  0  0  0
 34 71  1  0  0  0  0
 34 76  2  0  0  0  0
 35 52  1  0  0  0  0
 35 72  1  0  0  0  0
 35 77  2  0  0  0  0
 36 62  1  0  0  0  0
 36 68  1  0  0  0  0
 36 78  2  0  0  0  0
 37 63  1  0  0  0  0
 37 73  1  0  0  0  0
 37 79  2  0  0  0  0
 38 69  1  0  0  0  0
 38 74  1  0  0  0  0
 38 80  2  0  0  0  0
 39 42  1  0  0  0  0
 40 52  1  0  0  0  0
 41 68  1  0  0  0  0
 42 44  1  0  0  0  0
 43 45  1  0  0  0  0
 43 47  1  0  0  0  0
 44 51  1  0  0  0  0
 45 54  1  0  0  0  0
 46 48  1  0  0  0  0
 46 53  1  0  0  0  0
 47 69  1  0  0  0  0
 48 67  1  0  0  0  0
 49 53  1  0  0  0  0
 49 67  1  0  0  0  0
 50 54  1  0  0  0  0
 50 69  1  0  0  0  0
 51 72  1  0  0  0  0
 52 68  1  0  0  0  0
 53 61  1  0  0  0  0
 54 66  1  0  0  0  0
 55 63  1  0  0  0  0
 56 64  1  0  0  0  0
 57 64  1  0  0  0  0
 58 64  1  0  0  0  0
 59 74  1  0  0  0  0
 60 75  1  0  0  0  0
 61 82  1  0  0  0  0
 62 64  1  0  0  0  0
 62 73  1  0  0  0  0
 63 75  1  0  0  0  0
 65 66  1  0  0  0  0
M  CHG  1  75   1
M  ISO  4  38 100  61 101  74 100  82 101
M  END
> <Batch ID>
0016

> <Smiles>
CNC(C)C(=O)NC(C(=O)N1Cc2cc([101O:1][101CH2:1]C3CCN(c4ccc([100N:0](C)[100C:0](=O)N5CCCC(n6nc(-c7ccc(Oc8ccc(F)cc8F)cc7)c(C(N)=O)c6N)C5)cc4F)C3)ccc2CC1C(=O)NC1CCCc2ccccc21)C(C)(C)C

> <Shape>
0.189

> <Color>
0.191

> <Negative vol penalty>
0.000

$$$$

  -OEChem-04042320573D

 84 92  0     1  0  0  0  0  0999 V2000
  -29.8678   -2.0832   36.8256 C   0  0  0  0  0  0  0  0  0  0  0  0
  -29.8000   -2.9386   35.7306 C   0  0  0  0  0  0  0  0  0  0  0  0
  -23.2846   -9.7975   19.9080 C   0  0  0  0  0  0  0  0  0  0  0  0
  -23.7225   -9.9368   22.2799 C   0  0  0  0  0  0  0  0  0  0  0  0
  -28.6956   -1.5915   37.3984 C   0  0  0  0  0  0  0  0  0  0  0  0
  -28.5597   -3.3021   35.2070 C   0  0  0  0  0  0  0  0  0  0  0  0
  -27.0427   -8.6994   32.7426 C   0  0  0  0  0  0  0  0  0  0  0  0
  -28.4291  -11.5084   25.2454 C   0  0  0  0  0  0  0  0  0  0  0  0
  -28.4860  -10.3588   23.1212 C   0  0  0  0  0  0  0  0  0  0  0  0
  -27.7612  -10.4241   25.8143 C   0  0  0  0  0  0  0  0  0  0  0  0
  -27.8181   -9.2744   23.6902 C   0  0  0  0  0  0  0  0  0  0  0  0
  -22.5525   -8.6278   20.1119 C   0  0  0  0  0  0  0  0  0  0  0  0
  -22.9904   -8.7671   22.4838 C   0  0  0  0  0  0  0  0  0  0  0  0
  -26.9560   -9.1361   31.4214 C   0  0  0  0  0  0  0  0  0  0  0  0
  -19.7387   -7.8687   22.6830 C   0  0  0  0  0  0  0  0  0  0  0  0
  -18.8303   -7.8507   23.7413 C   0  0  0  0  0  0  0  0  0  0  0  0
  -24.5870   -8.6809   31.4327 C   0  0  0  0  0  0  0  0  0  0  0  0
  -20.0233   -5.9990   24.7339 C   0  0  0  0  0  0  0  0  0  0  0  0
  -23.8696  -10.4519   20.9921 C   0  0  0  0  0  0  0  0  0  0  0  0
  -24.1400  -12.9809   20.7945 C   0  0  0  0  0  0  0  0  0  0  0  0
  -27.4401   -1.9568   36.8876 C   0  0  0  0  0  0  0  0  0  0  0  0
  -25.9022   -8.2391   33.4164 C   0  0  0  0  0  0  0  0  0  0  0  0
  -27.3696   -2.8138   35.7726 C   0  0  0  0  0  0  0  0  0  0  0  0
  -24.6614   -8.2413   32.7633 C   0  0  0  0  0  0  0  0  0  0  0  0
  -28.7915  -11.4758   23.8987 C   0  0  0  0  0  0  0  0  0  0  0  0
  -27.4557   -9.3071   25.0368 C   0  0  0  0  0  0  0  0  0  0  0  0
  -22.4054   -8.1126   21.3998 C   0  0  0  0  0  0  0  0  0  0  0  0
  -25.7286   -9.1242   30.7653 C   0  0  0  0  0  0  0  0  0  0  0  0
  -20.7894   -6.9518   22.6500 C   0  0  0  0  0  0  0  0  0  0  0  0
  -18.9726   -6.9159   24.7667 C   0  0  0  0  0  0  0  0  0  0  0  0
  -20.9317   -6.0170   23.6755 C   0  0  0  0  0  0  0  0  0  0  0  0
  -24.6265  -11.6599   20.7821 C   0  0  0  0  0  0  0  0  0  0  0  0
  -25.2459  -13.7565   20.5456 C   0  0  0  0  0  0  0  0  0  0  0  0
  -22.8075  -13.4637   21.0117 C   0  0  0  0  0  0  0  0  0  0  0  0
  -25.0315   -5.4755   34.7233 C   0  0  0  0  0  0  0  0  0  0  0  0
  -22.4723   -7.2006   35.7218 C   0  0  0  0  0  0  0  0  0  0  0  0
  -20.4424   -9.9047   35.2594 C   0  0  0  0  0  0  0  0  0  0  0  0
  -31.1496  -12.3509   21.3872 C   0  0  0  0  0  0  0  0  0  0  0  0
  -26.2020   -1.3624   37.5107 C   0  0  0  0  0  0  0  0  0  0  0  0
  -26.0076   -7.7965   34.8501 C   0  0  0  0  0  0  0  0  0  0  0  0
  -23.4036   -7.7759   33.4487 C   0  0  0  0  0  0  0  0  0  0  0  0
  -24.9172   -2.0935   37.1297 C   0  0  0  0  0  0  0  0  0  0  0  0
  -29.4877  -13.6547   18.3475 C   0  0  0  0  0  0  0  0  0  0  0  0
  -24.8769   -2.3545   35.6274 C   0  0  0  0  0  0  0  0  0  0  0  0
  -28.0171  -13.3328   18.6079 C   0  0  0  0  0  0  0  0  0  0  0  0
  -30.4170  -12.6711   19.0522 C   0  0  0  0  0  0  0  0  0  0  0  0
  -28.6994  -12.2294   20.7753 C   0  0  0  0  0  0  0  0  0  0  0  0
  -26.0424   -3.2508   35.1916 C   0  0  1  0  0  0  0  0  0  0  0  0
  -24.8755   -6.8653   35.2727 C   0  0  1  0  0  0  0  0  0  0  0  0
  -27.7370  -13.2295   20.1172 C   0  0  2  0  0  0  0  0  0  0  0  0
  -18.4121  -11.0298   36.2130 C   0  0  0  0  0  0  0  0  0  0  0  0
  -20.6974   -5.0672   34.4536 C   0  0  0  0  0  0  0  0  0  0  0  0
  -18.7849   -6.6772   34.5889 C   0  0  0  0  0  0  0  0  0  0  0  0
  -19.9058   -5.8966   36.6762 C   0  0  0  0  0  0  0  0  0  0  0  0
  -26.4659   -7.0444   24.7913 C   0  0  0  0  0  0  0  0  0  0  0  0
  -31.8627  -12.0559   23.7290 C   0  0  0  0  0  0  0  0  0  0  0  0
  -21.9521  -12.3786   35.8592 C   0  0  0  0  0  0  0  0  0  0  0  0
  -29.5053  -12.6348   23.2894 C   0  0  0  0  0  0  0  0  0  0  0  0
  -25.1026   -8.9645   27.2113 C   0  0  0  0  0  0  0  0  0  0  0  0
  -26.4098   -8.2097   27.0020 C   0  0  0  0  0  0  0  0  0  0  0  0
  -24.6335   -8.9512   28.6614 C   0  0  0  0  0  0  0  0  0  1  0  0
  -21.1096   -7.5176   35.1547 C   0  0  1  0  0  0  0  0  0  0  0  0
  -19.9311  -10.9575   36.2262 C   0  0  2  0  0  0  0  0  0  0  0  0
  -20.1483   -6.2967   35.2045 C   0  0  0  0  0  0  0  0  0  0  0  0
  -25.9392  -11.5961   20.5439 N   0  0  0  0  0  0  0  0  0  0  0  0
  -26.2869  -12.8867   20.4044 N   0  0  0  0  0  0  0  0  0  0  0  0
  -23.5593   -7.3469   34.8484 N   0  0  0  0  0  0  0  0  0  0  0  0
  -30.1009  -12.5599   20.4766 N   0  0  0  0  0  0  0  0  0  0  0  0
  -25.4196  -15.0907   20.4359 N   0  0  0  0  0  0  0  0  0  0  0  0
  -21.7900  -12.5308   21.2536 N   0  0  0  0  0  0  0  0  0  0  0  0
  -25.7716   -4.6317   35.5293 N   0  0  0  0  0  0  0  0  0  0  0  0
  -20.6276   -8.6877   35.8806 N   0  0  0  0  0  0  0  0  0  0  0  0
  -26.7858   -8.2161   25.6089 N   0  0  3  0  0  0  0  0  0  0  0  0
  -30.8090  -12.2608   22.7454 N   0  0  0  0  0  0  0  0  0  0  0  0
  -20.4686  -12.2991   35.8629 N   0  3  0  0  0  0  0  0  0  0  0  0
  -22.5246  -14.6852   20.9756 O   0  0  0  0  0  0  0  0  0  0  0  0
  -24.5171   -5.1895   33.6485 O   0  0  0  0  0  0  0  0  0  0  0  0
  -22.5694   -6.8434   36.8985 O   0  0  0  0  0  0  0  0  0  0  0  0
  -20.6527  -10.1376   34.0711 O   0  0  0  0  0  0  0  0  0  0  0  0
  -32.3246  -12.2600   21.0088 O   0  0  0  0  0  0  0  0  0  0  0  0
  -21.6909   -6.9715   21.5991 O   0  0  0  0  0  0  0  0  0  0  0  0
  -25.6413   -9.5493   29.4756 O   0  0  0  0  0  0  0  0  0  1  0  0
  -18.1010   -6.8998   25.7838 F   0  0  0  0  0  0  0  0  0  0  0  0
  -21.9398   -5.1344   23.6500 F   0  0  0  0  0  0  0  0  0  0  0  0
  1  2  1  0  0  0  0
  1  5  2  0  0  0  0
  2  6  2  0  0  0  0
  3 12  2  0  0  0  0
  3 19  1  0  0  0  0
  4 13  1  0  0  0  0
  4 19  2  0  0  0  0
  5 21  1  0  0  0  0
  6 23  1  0  0  0  0
  7 14  2  0  0  0  0
  7 22  1  0  0  0  0
  8 10  2  0  0  0  0
  8 25  1  0  0  0  0
  9 11  1  0  0  0  0
  9 25  2  0  0  0  0
 10 26  1  0  0  0  0
 11 26  2  0  0  0  0
 12 27  1  0  0  0  0
 13 27  2  0  0  0  0
 14 28  1  0  0  0  0
 15 16  2  0  0  0  0
 15 29  1  0  0  0  0
 16 30  1  0  0  0  0
 17 24  1  0  0  0  0
 17 28  2  0  0  0  0
 18 30  2  0  0  0  0
 18 31  1  0  0  0  0
 19 32  1  0  0  0  0
 20 32  1  0  0  0  0
 20 33  2  0  0  0  0
 20 34  1  0  0  0  0
 21 23  2  0  0  0  0
 21 39  1  0  0  0  0
 22 24  2  0  0  0  0
 22 40  1  0  0  0  0
 23 48  1  0  0  0  0
 24 41  1  0  0  0  0
 25 58  1  0  0  0  0
 26 73  1  0  0  0  0
 27 81  1  0  0  0  0
 28 82  1  0  0  0  0
 29 31  2  0  0  0  0
 29 81  1  0  0  0  0
 30 83  1  0  0  0  0
 31 84  1  0  0  0  0
 32 65  2  0  0  0  0
 33 66  1  0  0  0  0
 33 69  1  0  0  0  0
 34 70  1  0  0  0  0
 34 76  2  0  0  0  0
 35 49  1  0  0  0  0
 35 71  1  0  0  0  0
 35 77  2  0  0  0  0
 36 62  1  0  0  0  0
 36 67  1  0  0  0  0
 36 78  2  0  0  0  0
 37 63  1  0  0  0  0
 37 72  1  0  0  0  0
 37 79  2  0  0  0  0
 38 68  1  0  0  0  0
 38 74  1  0  0  0  0
 38 80  2  0  0  0  0
 39 42  1  0  0  0  0
 40 49  1  0  0  0  0
 41 67  1  0  0  0  0
 42 44  1  0  0  0  0
 43 45  1  0  0  0  0
 43 46  1  0  0  0  0
 44 48  1  0  0  0  0
 45 50  1  0  0  0  0
 46 68  1  0  0  0  0
 47 50  1  0  0  0  0
 47 68  1  0  0  0  0
 48 71  1  0  0  0  0
 49 67  1  0  0  0  0
 50 66  1  0  0  0  0
 51 63  1  0  0  0  0
 52 64  1  0  0  0  0
 53 64  1  0  0  0  0
 54 64  1  0  0  0  0
 55 73  1  0  0  0  0
 56 74  1  0  0  0  0
 57 75  1  0  0  0  0
 58 74  1  0  0  0  0
 59 60  1  0  0  0  0
 59 61  1  0  0  0  0
 60 73  1  0  0  0  0
 61 82  1  0  0  0  0
 62 64  1  0  0  0  0
 62 72  1  0  0  0  0
 63 75  1  0  0  0  0
 65 66  1  0  0  0  0
M  CHG  1  75   1
M  ISO  4  38 100  61 101  74 100  82 101
M  END
> <Batch ID>
0016

> <Smiles>
CNC(C)C(=O)NC(C(=O)N1Cc2cc([101O:1][101CH2:1]CCN(C)c3ccc(C[100N:0](C)[100C:0](=O)N4CCCC(n5nc(-c6ccc(Oc7ccc(F)cc7F)cc6)c(C(N)=O)c5N)C4)cc3)ccc2CC1C(=O)NC1CCCc2ccccc21)C(C)(C)C

> <Shape>
0.132

> <Color>
0.185

> <Negative vol penalty>
0.000

$$$$

  -OEChem-04042320573D

 86 94  0     1  0  0  0  0  0999 V2000
  -18.8528  -16.2296   23.7057 C   0  0  0  0  0  0  0  0  0  0  0  0
  -19.9746  -16.9262   24.1436 C   0  0  0  0  0  0  0  0  0  0  0  0
  -22.6708  -10.1963   20.4929 C   0  0  0  0  0  0  0  0  0  0  0  0
  -23.9650  -10.0134   22.5249 C   0  0  0  0  0  0  0  0  0  0  0  0
  -18.2715  -16.5471   22.4788 C   0  0  0  0  0  0  0  0  0  0  0  0
  -20.5165  -17.9400   23.3543 C   0  0  0  0  0  0  0  0  0  0  0  0
  -23.1585  -23.1095   25.3040 C   0  0  0  0  0  0  0  0  0  0  0  0
  -29.3880  -18.4349   23.6628 C   0  0  0  0  0  0  0  0  0  0  0  0
  -30.5340  -20.2310   22.5236 C   0  0  0  0  0  0  0  0  0  0  0  0
  -29.0929  -19.2943   24.7210 C   0  0  0  0  0  0  0  0  0  0  0  0
  -30.2389  -21.0904   23.5819 C   0  0  0  0  0  0  0  0  0  0  0  0
  -21.8742   -9.1277   20.9041 C   0  0  0  0  0  0  0  0  0  0  0  0
  -23.1683   -8.9448   22.9360 C   0  0  0  0  0  0  0  0  0  0  0  0
  -24.4932  -23.4741   25.4749 C   0  0  0  0  0  0  0  0  0  0  0  0
  -20.1135   -8.5024   24.3119 C   0  0  0  0  0  0  0  0  0  0  0  0
  -19.6680   -8.4991   25.6337 C   0  0  0  0  0  0  0  0  0  0  0  0
  -24.4811  -24.5156   23.2991 C   0  0  0  0  0  0  0  0  0  0  0  0
  -20.8025   -6.3997   26.0109 C   0  0  0  0  0  0  0  0  0  0  0  0
  -23.7162  -10.6391   21.3033 C   0  0  0  0  0  0  0  0  0  0  0  0
  -24.3280  -13.1101   21.1372 C   0  0  0  0  0  0  0  0  0  0  0  0
  -18.8008  -17.5718   21.6785 C   0  0  0  0  0  0  0  0  0  0  0  0
  -22.4770  -23.4363   24.1228 C   0  0  0  0  0  0  0  0  0  0  0  0
  -19.9425  -18.2706   22.1149 C   0  0  0  0  0  0  0  0  0  0  0  0
  -23.1370  -24.1562   23.1167 C   0  0  0  0  0  0  0  0  0  0  0  0
  -30.1086  -18.9032   22.5641 C   0  0  0  0  0  0  0  0  0  0  0  0
  -29.5183  -20.6221   24.6806 C   0  0  0  0  0  0  0  0  0  0  0  0
  -22.1229   -8.5019   22.1256 C   0  0  0  0  0  0  0  0  0  0  0  0
  -25.1556  -24.1747   24.4712 C   0  0  0  0  0  0  0  0  0  0  0  0
  -20.9034   -7.4542   23.8395 C   0  0  0  0  0  0  0  0  0  0  0  0
  -20.0125   -7.4478   26.4832 C   0  0  0  0  0  0  0  0  0  0  0  0
  -21.2480   -6.4029   24.6890 C   0  0  0  0  0  0  0  0  0  0  0  0
  -24.5399  -11.7426   20.8789 C   0  0  0  0  0  0  0  0  0  0  0  0
  -25.3817  -13.7427   20.5240 C   0  0  0  0  0  0  0  0  0  0  0  0
  -23.2730  -13.7513   21.8663 C   0  0  0  0  0  0  0  0  0  0  0  0
  -21.0886  -21.7692   21.7997 C   0  0  0  0  0  0  0  0  0  0  0  0
  -30.8623  -14.0344   19.4435 C   0  0  0  0  0  0  0  0  0  0  0  0
  -20.1597  -24.7049   20.7794 C   0  0  0  0  0  0  0  0  0  0  0  0
  -20.7188  -28.0713   20.7456 C   0  0  0  0  0  0  0  0  0  0  0  0
  -18.1663  -17.8472   20.3382 C   0  0  0  0  0  0  0  0  0  0  0  0
  -21.0295  -23.0591   23.9650 C   0  0  0  0  0  0  0  0  0  0  0  0
  -22.4444  -24.5489   21.8382 C   0  0  0  0  0  0  0  0  0  0  0  0
  -18.5774  -19.1872   19.7335 C   0  0  0  0  0  0  0  0  0  0  0  0
  -28.8468  -12.0014   17.2884 C   0  0  0  0  0  0  0  0  0  0  0  0
  -20.0875  -19.3777   19.8348 C   0  0  0  0  0  0  0  0  0  0  0  0
  -27.5407  -11.8402   18.0651 C   0  0  0  0  0  0  0  0  0  0  0  0
  -30.0512  -12.0423   18.2236 C   0  0  0  0  0  0  0  0  0  0  0  0
  -28.6555  -12.9310   20.0631 C   0  0  0  0  0  0  0  0  0  0  0  0
  -20.5446  -19.3935   21.2985 C   0  0  1  0  0  0  0  0  0  0  0  0
  -20.5843  -22.9950   22.5073 C   0  0  1  0  0  0  0  0  0  0  0  0
  -27.4110  -12.9160   19.1579 C   0  0  2  0  0  0  0  0  0  0  0  0
  -19.8127  -30.2092   19.7938 C   0  0  0  0  0  0  0  0  0  0  0  0
  -21.3701  -24.0074   18.0668 C   0  0  0  0  0  0  0  0  0  0  0  0
  -21.2966  -26.4417   17.4862 C   0  0  0  0  0  0  0  0  0  0  0  0
  -19.1793  -25.2083   17.9538 C   0  0  0  0  0  0  0  0  0  0  0  0
  -28.4621  -20.9950   26.8954 C   0  0  0  0  0  0  0  0  0  0  0  0
  -20.1886  -29.1808   23.4376 C   0  0  0  0  0  0  0  0  0  0  0  0
  -32.7846  -17.6957   22.1736 C   0  0  0  0  0  0  0  0  0  0  0  0
  -30.4250  -17.9849   21.4324 C   0  0  0  0  0  0  0  0  0  0  0  0
  -30.6131  -15.0521   20.5280 C   0  0  0  0  0  0  0  0  0  0  0  0
  -28.7014  -23.7292   24.9284 C   0  0  0  0  0  0  0  0  0  0  0  0
  -29.6565  -22.8623   25.7400 C   0  0  0  0  0  0  0  0  0  0  0  0
  -31.7572  -16.0458   20.6166 C   0  0  0  0  0  0  0  0  0  0  0  0
  -27.2682  -23.6793   25.4447 C   0  0  0  0  0  0  0  0  0  1  0  0
  -20.7443  -25.7528   19.8634 C   0  0  1  0  0  0  0  0  0  0  0  0
  -19.7886  -29.2492   20.9731 C   0  0  2  0  0  0  0  0  0  0  0  0
  -20.6615  -25.3436   18.3657 C   0  0  0  0  0  0  0  0  0  0  0  0
  -25.6415  -11.5187   20.1577 N   0  0  0  0  0  0  0  0  0  0  0  0
  -26.1313  -12.7541   19.9575 N   0  0  0  0  0  0  0  0  0  0  0  0
  -21.0310  -24.1517   21.7284 N   0  0  0  0  0  0  0  0  0  0  0  0
  -29.8796  -13.0614   19.2606 N   0  0  0  0  0  0  0  0  0  0  0  0
  -25.7309  -15.0425   20.4195 N   0  0  0  0  0  0  0  0  0  0  0  0
  -22.2703  -12.9521   22.4321 N   0  0  0  0  0  0  0  0  0  0  0  0
  -20.2522  -20.6743   21.9055 N   0  0  0  0  0  0  0  0  0  0  0  0
  -20.0584  -27.0007   20.1807 N   0  0  0  0  0  0  0  0  0  0  0  0
  -29.2202  -21.4869   25.7434 N   0  0  3  0  0  0  0  0  0  0  0  0
  -20.1909  -29.9981   22.1971 N   0  3  0  0  0  0  0  0  0  0  0  0
  -31.5106  -17.0147   21.7443 N   0  3  1  0  0  0  0  0  0  0  0  0
  -23.2122  -14.9973   21.9978 O   0  0  0  0  0  0  0  0  0  0  0  0
  -22.1568  -21.8138   21.2008 O   0  0  0  0  0  0  0  0  0  0  0  0
  -31.8987  -14.1055   18.7779 O   0  0  0  0  0  0  0  0  0  0  0  0
  -18.9717  -24.3938   20.6620 O   0  0  0  0  0  0  0  0  0  0  0  0
  -21.9126  -28.0995   21.0363 O   0  0  0  0  0  0  0  0  0  0  0  0
  -21.3456   -7.4593   22.5272 O   0  0  0  0  0  0  0  0  0  0  0  0
  -26.4587  -24.5312   24.6352 O   0  0  0  0  0  0  0  0  0  1  0  0
  -19.5859   -7.4456   27.7529 F   0  0  0  0  0  0  0  0  0  0  0  0
  -22.0076   -5.3938   24.2413 F   0  0  0  0  0  0  0  0  0  0  0  0
  1  2  1  0  0  0  0
  1  5  2  0  0  0  0
  2  6  2  0  0  0  0
  3 12  2  0  0  0  0
  3 19  1  0  0  0  0
  4 13  1  0  0  0  0
  4 19  2  0  0  0  0
  5 21  1  0  0  0  0
  6 23  1  0  0  0  0
  7 14  2  0  0  0  0
  7 22  1  0  0  0  0
  8 10  2  0  0  0  0
  8 25  1  0  0  0  0
  9 11  1  0  0  0  0
  9 25  2  0  0  0  0
 10 26  1  0  0  0  0
 11 26  2  0  0  0  0
 12 27  1  0  0  0  0
 13 27  2  0  0  0  0
 14 28  1  0  0  0  0
 15 16  2  0  0  0  0
 15 29  1  0  0  0  0
 16 30  1  0  0  0  0
 17 24  1  0  0  0  0
 17 28  2  0  0  0  0
 18 30  2  0  0  0  0
 18 31  1  0  0  0  0
 19 32  1  0  0  0  0
 20 32  1  0  0  0  0
 20 33  2  0  0  0  0
 20 34  1  0  0  0  0
 21 23  2  0  0  0  0
 21 39  1  0  0  0  0
 22 24  2  0  0  0  0
 22 40  1  0  0  0  0
 23 48  1  0  0  0  0
 24 41  1  0  0  0  0
 25 58  1  0  0  0  0
 26 75  1  0  0  0  0
 27 83  1  0  0  0  0
 28 84  1  0  0  0  0
 29 31  2  0  0  0  0
 29 83  1  0  0  0  0
 30 85  1  0  0  0  0
 31 86  1  0  0  0  0
 32 67  2  0  0  0  0
 33 68  1  0  0  0  0
 33 71  1  0  0  0  0
 34 72  1  0  0  0  0
 34 78  2  0  0  0  0
 35 49  1  0  0  0  0
 35 73  1  0  0  0  0
 35 79  2  0  0  0  0
 36 59  1  0  0  0  0
 36 70  1  0  0  0  0
 36 80  2  0  0  0  0
 37 64  1  0  0  0  0
 37 69  1  0  0  0  0
 37 81  2  0  0  0  0
 38 65  1  0  0  0  0
 38 74  1  0  0  0  0
 38 82  2  0  0  0  0
 39 42  1  0  0  0  0
 40 49  1  0  0  0  0
 41 69  1  0  0  0  0
 42 44  1  0  0  0  0
 43 45  1  0  0  0  0
 43 46  1  0  0  0  0
 44 48  1  0  0  0  0
 45 50  1  0  0  0  0
 46 70  1  0  0  0  0
 47 50  1  0  0  0  0
 47 70  1  0  0  0  0
 48 73  1  0  0  0  0
 49 69  1  0  0  0  0
 50 68  1  0  0  0  0
 51 65  1  0  0  0  0
 52 66  1  0  0  0  0
 53 66  1  0  0  0  0
 54 66  1  0  0  0  0
 55 75  1  0  0  0  0
 56 76  1  0  0  0  0
 57 77  1  0  0  0  0
 58 77  1  0  0  0  0
 59 62  1  0  0  0  0
 60 61  1  0  0  0  0
 60 63  1  0  0  0  0
 61 75  1  0  0  0  0
 62 77  1  0  0  0  0
 63 84  1  0  0  0  0
 64 66  1  0  0  0  0
 64 74  1  0  0  0  0
 65 76  1  0  0  0  0
 67 68  1  0  0  0  0
M  CHG  2  76   1  77   1
M  ISO  4  36 100  59 100  63 101  84 101
M  END
> <Batch ID>
0016

> <Smiles>
CNC(C)C(=O)NC(C(=O)N1Cc2cc([101O:1][101CH2:1]CCN(C)c3ccc(CN(C)C[100CH2:0][100C:0](=O)N4CCCC(n5nc(-c6ccc(Oc7ccc(F)cc7F)cc6)c(C(N)=O)c5N)C4)cc3)ccc2CC1C(=O)NC1CCCc2ccccc21)C(C)(C)C

> <Shape>
0.186

> <Color>
0.118

> <Negative vol penalty>
0.000

$$$$

  -OEChem-04042320573D

 86 94  0     1  0  0  0  0  0999 V2000
  -26.8813  -34.7451   24.8807 C   0  0  0  0  0  0  0  0  0  0  0  0
  -27.2733  -33.4979   24.4050 C   0  0  0  0  0  0  0  0  0  0  0  0
  -24.2168  -12.6711   21.3664 C   0  0  0  0  0  0  0  0  0  0  0  0
  -26.0481  -12.3071   19.8331 C   0  0  0  0  0  0  0  0  0  0  0  0
  -25.5646  -34.9514   25.2901 C   0  0  0  0  0  0  0  0  0  0  0  0
  -26.3489  -32.4559   24.3395 C   0  0  0  0  0  0  0  0  0  0  0  0
  -26.6009  -29.9074   19.9706 C   0  0  0  0  0  0  0  0  0  0  0  0
  -30.9321  -22.1627   19.7933 C   0  0  0  0  0  0  0  0  0  0  0  0
  -23.6641  -11.4448   20.9974 C   0  0  0  0  0  0  0  0  0  0  0  0
  -25.4954  -11.0807   19.4641 C   0  0  0  0  0  0  0  0  0  0  0  0
  -27.6381  -28.9865   19.8296 C   0  0  0  0  0  0  0  0  0  0  0  0
  -31.5059  -21.3641   18.8041 C   0  0  0  0  0  0  0  0  0  0  0  0
  -24.1783   -8.1737   21.6821 C   0  0  0  0  0  0  0  0  0  0  0  0
  -23.7139   -7.3397   22.6991 C   0  0  0  0  0  0  0  0  0  0  0  0
  -26.1116  -27.1952   20.3594 C   0  0  0  0  0  0  0  0  0  0  0  0
  -28.8834  -20.8924   19.6306 C   0  0  0  0  0  0  0  0  0  0  0  0
  -21.4961   -7.4089   21.7430 C   0  0  0  0  0  0  0  0  0  0  0  0
  -25.4088  -13.1023   20.7843 C   0  0  0  0  0  0  0  0  0  0  0  0
  -26.8983  -14.6100   22.2041 C   0  0  0  0  0  0  0  0  0  0  0  0
  -24.6213  -33.9142   25.2205 C   0  0  0  0  0  0  0  0  0  0  0  0
  -25.3115  -29.4795   20.3184 C   0  0  0  0  0  0  0  0  0  0  0  0
  -25.0187  -32.6482   24.7496 C   0  0  0  0  0  0  0  0  0  0  0  0
  -25.0592  -28.1124   20.5017 C   0  0  0  0  0  0  0  0  0  0  0  0
  -29.4572  -20.0937   18.6413 C   0  0  0  0  0  0  0  0  0  0  0  0
  -29.6208  -21.9268   20.2066 C   0  0  0  0  0  0  0  0  0  0  0  0
  -24.3034  -10.6496   20.0463 C   0  0  0  0  0  0  0  0  0  0  0  0
  -27.3942  -27.6305   20.0268 C   0  0  0  0  0  0  0  0  0  0  0  0
  -30.7685  -20.3296   18.2281 C   0  0  0  0  0  0  0  0  0  0  0  0
  -23.3016   -8.6254   20.6956 C   0  0  0  0  0  0  0  0  0  0  0  0
  -22.3728   -6.9572   22.7295 C   0  0  0  0  0  0  0  0  0  0  0  0
  -21.9606   -8.2430   20.7260 C   0  0  0  0  0  0  0  0  0  0  0  0
  -25.9800  -14.3693   21.1646 C   0  0  0  0  0  0  0  0  0  0  0  0
  -27.1266  -15.9634   22.1540 C   0  0  0  0  0  0  0  0  0  0  0  0
  -27.4921  -13.6921   23.1318 C   0  0  0  0  0  0  0  0  0  0  0  0
  -23.3579  -30.0073   22.7696 C   0  0  0  0  0  0  0  0  0  0  0  0
  -21.2677  -28.3028   20.9673 C   0  0  0  0  0  0  0  0  0  0  0  0
  -20.7802  -25.9944   18.5015 C   0  0  0  0  0  0  0  0  0  0  0  0
  -26.3293  -19.7871   17.4336 C   0  0  0  0  0  0  0  0  0  0  0  0
  -23.2212  -34.1716   25.7188 C   0  0  0  0  0  0  0  0  0  0  0  0
  -24.1975  -30.4828   20.4405 C   0  0  0  0  0  0  0  0  0  0  0  0
  -23.6882  -27.5996   20.8564 C   0  0  0  0  0  0  0  0  0  0  0  0
  -22.2107  -33.1208   25.2659 C   0  0  0  0  0  0  0  0  0  0  0  0
  -25.0499  -20.0789   20.8948 C   0  0  0  0  0  0  0  0  0  0  0  0
  -22.7705  -31.7172   25.4739 C   0  0  0  0  0  0  0  0  0  0  0  0
  -25.1594  -18.6456   21.4123 C   0  0  0  0  0  0  0  0  0  0  0  0
  -24.8526  -20.1223   19.3825 C   0  0  0  0  0  0  0  0  0  0  0  0
  -26.0005  -17.9463   19.1354 C   0  0  0  0  0  0  0  0  0  0  0  0
  -24.0390  -31.5000   24.6401 C   0  0  1  0  0  0  0  0  0  0  0  0
  -23.0394  -29.9878   21.3013 C   0  0  1  0  0  0  0  0  0  0  0  0
  -26.2465  -17.8685   20.6497 C   0  0  2  0  0  0  0  0  0  0  0  0
  -18.9609  -24.7767   17.2748 C   0  0  0  0  0  0  0  0  0  0  0  0
  -20.8531  -26.4903   23.3866 C   0  0  0  0  0  0  0  0  0  0  0  0
  -19.8126  -24.8034   21.8569 C   0  0  0  0  0  0  0  0  0  0  0  0
  -18.7633  -27.0497   22.1318 C   0  0  0  0  0  0  0  0  0  0  0  0
  -27.6679  -22.4819   21.6342 C   0  0  0  0  0  0  0  0  0  0  0  0
  -28.1777  -19.9367   15.8086 C   0  0  0  0  0  0  0  0  0  0  0  0
  -21.6016  -27.1471   15.9023 C   0  0  0  0  0  0  0  0  0  0  0  0
  -32.6887  -19.8703   16.9024 C   0  0  0  0  0  0  0  0  0  0  0  0
  -28.6540  -18.9900   18.0363 C   0  0  0  0  0  0  0  0  0  0  0  0
  -29.7482  -25.0560   20.9647 C   0  0  0  0  0  0  0  0  0  0  0  0
  -29.7831  -23.7999   21.8269 C   0  0  0  0  0  0  0  0  0  0  0  0
  -28.3325  -25.5468   20.6855 C   0  0  0  0  0  0  0  0  0  1  0  0
  -20.9202  -26.8402   20.8294 C   0  0  1  0  0  0  0  0  0  0  0  0
  -19.8703  -25.9955   17.2863 C   0  0  2  0  0  0  0  0  0  0  0  0
  -20.1137  -26.3054   22.0464 C   0  0  0  0  0  0  0  0  0  0  0  0
  -25.6474  -15.4807   20.5028 N   0  0  0  0  0  0  0  0  0  0  0  0
  -26.3606  -16.4329   21.1279 N   0  0  0  0  0  0  0  0  0  0  0  0
  -22.6334  -28.6203   20.9706 N   0  0  0  0  0  0  0  0  0  0  0  0
  -25.8739  -19.3404   18.6850 N   0  0  0  0  0  0  0  0  0  0  0  0
  -27.9056  -16.7859   22.8882 N   0  0  0  0  0  0  0  0  0  0  0  0
  -27.1478  -12.3364   23.0436 N   0  0  0  0  0  0  0  0  0  0  0  0
  -23.6977  -31.2556   23.2551 N   0  0  0  0  0  0  0  0  0  0  0  0
  -20.2326  -26.7029   19.5500 N   0  0  0  0  0  0  0  0  0  0  0  0
  -29.0443  -22.7301   21.2009 N   0  0  3  0  0  0  0  0  0  0  0  0
  -27.6559  -19.4851   17.0907 N   0  0  0  0  0  0  0  0  0  0  0  0
  -20.6785  -25.9906   16.0341 N   0  3  0  0  0  0  0  0  0  0  0  0
  -28.2914  -14.0658   24.0235 O   0  0  0  0  0  0  0  0  0  0  0  0
  -23.2982  -28.9671   23.4146 O   0  0  0  0  0  0  0  0  0  0  0  0
  -20.3608  -29.1336   21.0612 O   0  0  0  0  0  0  0  0  0  0  0  0
  -21.8662  -25.4192   18.5200 O   0  0  0  0  0  0  0  0  0  0  0  0
  -25.5950  -20.4279   16.6706 O   0  0  0  0  0  0  0  0  0  0  0  0
  -23.7644   -9.4527   19.6861 O   0  0  0  0  0  0  0  0  0  0  0  0
  -31.3447  -19.5588   17.2635 O   0  0  0  0  0  0  0  0  0  0  0  0
  -28.4050  -26.7296   19.8905 O   0  0  0  0  0  0  0  0  0  1  0  0
  -21.9273   -6.1551   23.7054 F   0  0  0  0  0  0  0  0  0  0  0  0
  -21.1139   -8.6727   19.7804 F   0  0  0  0  0  0  0  0  0  0  0  0
  1  2  1  0  0  0  0
  1  5  2  0  0  0  0
  2  6  2  0  0  0  0
  3  9  2  0  0  0  0
  3 18  1  0  0  0  0
  4 10  1  0  0  0  0
  4 18  2  0  0  0  0
  5 20  1  0  0  0  0
  6 22  1  0  0  0  0
  7 11  2  0  0  0  0
  7 21  1  0  0  0  0
  8 12  2  0  0  0  0
  8 25  1  0  0  0  0
  9 26  1  0  0  0  0
 10 26  2  0  0  0  0
 11 27  1  0  0  0  0
 12 28  1  0  0  0  0
 13 14  2  0  0  0  0
 13 29  1  0  0  0  0
 14 30  1  0  0  0  0
 15 23  1  0  0  0  0
 15 27  2  0  0  0  0
 16 24  1  0  0  0  0
 16 25  2  0  0  0  0
 17 30  2  0  0  0  0
 17 31  1  0  0  0  0
 18 32  1  0  0  0  0
 19 32  1  0  0  0  0
 19 33  2  0  0  0  0
 19 34  1  0  0  0  0
 20 22  2  0  0  0  0
 20 39  1  0  0  0  0
 21 23  2  0  0  0  0
 21 40  1  0  0  0  0
 22 48  1  0  0  0  0
 23 41  1  0  0  0  0
 24 28  2  0  0  0  0
 24 59  1  0  0  0  0
 25 74  1  0  0  0  0
 26 82  1  0  0  0  0
 27 84  1  0  0  0  0
 28 83  1  0  0  0  0
 29 31  2  0  0  0  0
 29 82  1  0  0  0  0
 30 85  1  0  0  0  0
 31 86  1  0  0  0  0
 32 66  2  0  0  0  0
 33 67  1  0  0  0  0
 33 70  1  0  0  0  0
 34 71  1  0  0  0  0
 34 77  2  0  0  0  0
 35 49  1  0  0  0  0
 35 72  1  0  0  0  0
 35 78  2  0  0  0  0
 36 63  1  0  0  0  0
 36 68  1  0  0  0  0
 36 79  2  0  0  0  0
 37 64  1  0  0  0  0
 37 73  1  0  0  0  0
 37 80  2  0  0  0  0
 38 69  1  0  0  0  0
 38 75  1  0  0  0  0
 38 81  2  0  0  0  0
 39 42  1  0  0  0  0
 40 49  1  0  0  0  0
 41 68  1  0  0  0  0
 42 44  1  0  0  0  0
 43 45  1  0  0  0  0
 43 46  1  0  0  0  0
 44 48  1  0  0  0  0
 45 50  1  0  0  0  0
 46 69  1  0  0  0  0
 47 50  1  0  0  0  0
 47 69  1  0  0  0  0
 48 72  1  0  0  0  0
 49 68  1  0  0  0  0
 50 67  1  0  0  0  0
 51 64  1  0  0  0  0
 52 65  1  0  0  0  0
 53 65  1  0  0  0  0
 54 65  1  0  0  0  0
 55 74  1  0  0  0  0
 56 75  1  0  0  0  0
 57 76  1  0  0  0  0
 58 83  1  0  0  0  0
 59 75  1  0  0  0  0
 60 61  1  0  0  0  0
 60 62  1  0  0  0  0
 61 74  1  0  0  0  0
 62 84  1  0  0  0  0
 63 65  1  0  0  0  0
 63 73  1  0  0  0  0
 64 76  1  0  0  0  0
 66 67  1  0  0  0  0
M  CHG  1  76   1
M  ISO  4  38 100  62 101  75 100  84 101
M  END
> <Batch ID>
0016

> <Smiles>
CNC(C)C(=O)NC(C(=O)N1Cc2cc([101O:1][101CH2:1]CCN(C)c3ccc(OC)c(C[100N:0](C)[100C:0](=O)N4CCCC(n5nc(-c6ccc(Oc7ccc(F)cc7F)cc6)c(C(N)=O)c5N)C4)c3)ccc2CC1C(=O)NC1CCCc2ccccc21)C(C)(C)C

> <Shape>
0.280

> <Color>
0.087

> <Negative vol penalty>
0.000

$$$$

  -OEChem-04042320573D

 83 91  0     1  0  0  0  0  0999 V2000
  -37.9086   -2.5487   23.3329 C   0  0  0  0  0  0  0  0  0  0  0  0
  -37.3287   -3.2074   22.2534 C   0  0  0  0  0  0  0  0  0  0  0  0
  -26.6246  -14.1595   14.2170 C   0  0  0  0  0  0  0  0  0  0  0  0
  -22.8604  -10.0546   20.0395 C   0  0  0  0  0  0  0  0  0  0  0  0
  -24.2732   -9.4550   21.9054 C   0  0  0  0  0  0  0  0  0  0  0  0
  -37.1241   -2.1755   24.4234 C   0  0  0  0  0  0  0  0  0  0  0  0
  -35.9638   -3.4923   22.2634 C   0  0  0  0  0  0  0  0  0  0  0  0
  -33.2128   -8.4135   19.8716 C   0  0  0  0  0  0  0  0  0  0  0  0
  -27.0869  -14.9751   15.2497 C   0  0  0  0  0  0  0  0  0  0  0  0
  -27.4124  -13.1052   13.7548 C   0  0  0  0  0  0  0  0  0  0  0  0
  -22.1546   -8.8610   20.1903 C   0  0  0  0  0  0  0  0  0  0  0  0
  -23.5674   -8.2614   22.0563 C   0  0  0  0  0  0  0  0  0  0  0  0
  -32.5455   -8.6214   18.6653 C   0  0  0  0  0  0  0  0  0  0  0  0
  -20.6258   -7.2599   23.3846 C   0  0  0  0  0  0  0  0  0  0  0  0
  -20.2547   -6.8870   24.6765 C   0  0  0  0  0  0  0  0  0  0  0  0
  -30.4395   -8.2041   19.7651 C   0  0  0  0  0  0  0  0  0  0  0  0
  -29.1250  -13.6822   15.3583 C   0  0  0  0  0  0  0  0  0  0  0  0
  -21.5348   -4.8499   24.4561 C   0  0  0  0  0  0  0  0  0  0  0  0
  -23.9198  -10.3516   20.8970 C   0  0  0  0  0  0  0  0  0  0  0  0
  -24.1362  -12.8923   20.8242 C   0  0  0  0  0  0  0  0  0  0  0  0
  -35.7507   -2.4647   24.4511 C   0  0  0  0  0  0  0  0  0  0  0  0
  -32.4981   -8.0879   21.0334 C   0  0  0  0  0  0  0  0  0  0  0  0
  -35.1600   -3.1215   23.3547 C   0  0  0  0  0  0  0  0  0  0  0  0
  -31.0998   -7.9950   20.9855 C   0  0  0  0  0  0  0  0  0  0  0  0
  -28.3371  -14.7365   15.8204 C   0  0  0  0  0  0  0  0  0  0  0  0
  -28.6626  -12.8666   14.3255 C   0  0  0  0  0  0  0  0  0  0  0  0
  -22.5081   -7.9644   21.1987 C   0  0  0  0  0  0  0  0  0  0  0  0
  -31.1590   -8.5139   18.6112 C   0  0  0  0  0  0  0  0  0  0  0  0
  -21.4513   -6.4277   22.6285 C   0  0  0  0  0  0  0  0  0  0  0  0
  -20.7093   -5.6820   25.2122 C   0  0  0  0  0  0  0  0  0  0  0  0
  -21.9058   -5.2228   23.1642 C   0  0  0  0  0  0  0  0  0  0  0  0
  -24.6496  -11.5841   20.7414 C   0  0  0  0  0  0  0  0  0  0  0  0
  -25.2236  -13.7024   20.6050 C   0  0  0  0  0  0  0  0  0  0  0  0
  -22.7963  -13.3357   21.0769 C   0  0  0  0  0  0  0  0  0  0  0  0
  -32.4383   -5.5962   23.0060 C   0  0  0  0  0  0  0  0  0  0  0  0
  -30.4460   -7.4968   24.7208 C   0  0  0  0  0  0  0  0  0  0  0  0
  -28.2496  -10.1086   24.7547 C   0  0  0  0  0  0  0  0  0  0  0  0
  -29.6847  -15.0824   17.8833 C   0  0  0  0  0  0  0  0  0  0  0  0
  -34.9345   -1.9995   25.6310 C   0  0  0  0  0  0  0  0  0  0  0  0
  -33.2304   -7.8929   22.3326 C   0  0  0  0  0  0  0  0  0  0  0  0
  -30.2844   -7.6678   22.2088 C   0  0  0  0  0  0  0  0  0  0  0  0
  -33.5674   -2.6716   25.7288 C   0  0  0  0  0  0  0  0  0  0  0  0
  -30.1549  -12.6299   20.4146 C   0  0  0  0  0  0  0  0  0  0  0  0
  -32.8758   -2.6751   24.3692 C   0  0  0  0  0  0  0  0  0  0  0  0
  -28.7118  -12.2356   20.7269 C   0  0  0  0  0  0  0  0  0  0  0  0
  -30.3746  -12.8603   18.9191 C   0  0  0  0  0  0  0  0  0  0  0  0
  -27.9846  -13.4318   18.6265 C   0  0  0  0  0  0  0  0  0  0  0  0
  -33.6875   -3.4703   23.3394 C   0  0  1  0  0  0  0  0  0  0  0  0
  -32.4454   -7.0607   23.3419 C   0  0  1  0  0  0  0  0  0  0  0  0
  -27.7205  -13.2498   20.1294 C   0  0  1  0  0  0  0  0  0  0  0  0
  -26.7527  -11.4038   26.2971 C   0  0  0  0  0  0  0  0  0  0  0  0
  -28.4355   -5.2017   24.6929 C   0  0  0  0  0  0  0  0  0  0  0  0
  -26.6669   -6.8349   25.3806 C   0  0  0  0  0  0  0  0  0  0  0  0
  -28.6151   -6.4048   26.8780 C   0  0  0  0  0  0  0  0  0  0  0  0
  -28.5830  -17.0267   16.7964 C   0  0  0  0  0  0  0  0  0  0  0  0
  -29.2055  -11.2350   12.5357 C   0  0  0  0  0  0  0  0  0  0  0  0
  -29.7153  -12.6294   24.2485 C   0  0  0  0  0  0  0  0  0  0  0  0
  -29.9993  -10.2612   15.6699 C   0  0  0  0  0  0  0  0  0  0  0  0
  -30.5307  -11.2660   14.6550 C   0  0  0  0  0  0  0  0  0  0  0  0
  -31.1007   -9.6231   16.5083 C   0  0  0  0  0  0  0  0  0  1  0  0
  -28.9548   -7.7301   24.7520 C   0  0  1  0  0  0  0  0  0  0  0  0
  -28.1343  -11.3160   25.6676 C   0  0  2  0  0  0  0  0  0  0  0  0
  -28.1833   -6.5472   25.4022 C   0  0  0  0  0  0  0  0  0  0  0  0
  -25.9610  -11.5599   20.4890 N   0  0  0  0  0  0  0  0  0  0  0  0
  -26.2808  -12.8628   20.4114 N   0  0  0  0  0  0  0  0  0  0  0  0
  -31.0469   -7.4798   23.4542 N   0  0  0  0  0  0  0  0  0  0  0  0
  -29.3811  -13.8029   18.3856 N   0  0  0  0  0  0  0  0  0  0  0  0
  -25.3688  -15.0438   20.5609 N   0  0  0  0  0  0  0  0  0  0  0  0
  -22.4049  -13.5571   22.4043 N   0  0  0  0  0  0  0  0  0  0  0  0
  -33.5015   -4.8918   23.5379 N   0  0  0  0  0  0  0  0  0  0  0  0
  -28.7562   -9.0120   25.4196 N   0  0  0  0  0  0  0  0  0  0  0  0
  -28.8154  -15.5813   16.8895 N   0  0  0  0  0  0  0  0  0  0  0  0
  -29.4546  -11.8070   13.8603 N   0  0  3  0  0  0  0  0  0  0  0  0
  -28.3824  -12.5701   24.9017 N   0  3  0  0  0  0  0  0  0  0  0  0
  -21.9657  -13.5140   20.1540 O   0  0  0  0  0  0  0  0  0  0  0  0
  -31.5343   -5.1388   22.3166 O   0  0  0  0  0  0  0  0  0  0  0  0
  -31.0563   -7.3425   25.7817 O   0  0  0  0  0  0  0  0  0  0  0  0
  -27.9196  -10.1346   23.5711 O   0  0  0  0  0  0  0  0  0  0  0  0
  -30.6426  -15.7394   18.3083 O   0  0  0  0  0  0  0  0  0  0  0  0
  -21.8194   -6.7997   21.3464 O   0  0  0  0  0  0  0  0  0  0  0  0
  -30.5053   -8.7158   17.4349 O   0  0  0  0  0  0  0  0  0  1  0  0
  -20.3541   -5.3248   26.4534 F   0  0  0  0  0  0  0  0  0  0  0  0
  -22.7001   -4.4197   22.4431 F   0  0  0  0  0  0  0  0  0  0  0  0
  1  2  1  0  0  0  0
  1  6  2  0  0  0  0
  2  7  2  0  0  0  0
  3  9  1  0  0  0  0
  3 10  2  0  0  0  0
  4 11  2  0  0  0  0
  4 19  1  0  0  0  0
  5 12  1  0  0  0  0
  5 19  2  0  0  0  0
  6 21  1  0  0  0  0
  7 23  1  0  0  0  0
  8 13  2  0  0  0  0
  8 22  1  0  0  0  0
  9 25  2  0  0  0  0
 10 26  1  0  0  0  0
 11 27  1  0  0  0  0
 12 27  2  0  0  0  0
 13 28  1  0  0  0  0
 14 15  2  0  0  0  0
 14 29  1  0  0  0  0
 15 30  1  0  0  0  0
 16 24  1  0  0  0  0
 16 28  2  0  0  0  0
 17 25  1  0  0  0  0
 17 26  2  0  0  0  0
 18 30  2  0  0  0  0
 18 31  1  0  0  0  0
 19 32  1  0  0  0  0
 20 32  1  0  0  0  0
 20 33  2  0  0  0  0
 20 34  1  0  0  0  0
 21 23  2  0  0  0  0
 21 39  1  0  0  0  0
 22 24  2  0  0  0  0
 22 40  1  0  0  0  0
 23 48  1  0  0  0  0
 24 41  1  0  0  0  0
 25 72  1  0  0  0  0
 26 73  1  0  0  0  0
 27 80  1  0  0  0  0
 28 81  1  0  0  0  0
 29 31  2  0  0  0  0
 29 80  1  0  0  0  0
 30 82  1  0  0  0  0
 31 83  1  0  0  0  0
 32 64  2  0  0  0  0
 33 65  1  0  0  0  0
 33 68  1  0  0  0  0
 34 69  1  0  0  0  0
 34 75  2  0  0  0  0
 35 49  1  0  0  0  0
 35 70  1  0  0  0  0
 35 76  2  0  0  0  0
 36 61  1  0  0  0  0
 36 66  1  0  0  0  0
 36 77  2  0  0  0  0
 37 62  1  0  0  0  0
 37 71  1  0  0  0  0
 37 78  2  0  0  0  0
 38 67  1  0  0  0  0
 38 72  1  0  0  0  0
 38 79  2  0  0  0  0
 39 42  1  0  0  0  0
 40 49  1  0  0  0  0
 41 66  1  0  0  0  0
 42 44  1  0  0  0  0
 43 45  1  0  0  0  0
 43 46  1  0  0  0  0
 44 48  1  0  0  0  0
 45 50  1  0  0  0  0
 46 67  1  0  0  0  0
 47 50  1  0  0  0  0
 47 67  1  0  0  0  0
 48 70  1  0  0  0  0
 49 66  1  0  0  0  0
 50 65  1  0  0  0  0
 51 62  1  0  0  0  0
 52 63  1  0  0  0  0
 53 63  1  0  0  0  0
 54 63  1  0  0  0  0
 55 72  1  0  0  0  0
 56 73  1  0  0  0  0
 57 74  1  0  0  0  0
 58 59  1  0  0  0  0
 58 60  1  0  0  0  0
 59 73  1  0  0  0  0
 60 81  1  0  0  0  0
 61 63  1  0  0  0  0
 61 71  1  0  0  0  0
 62 74  1  0  0  0  0
 64 65  1  0  0  0  0
M  CHG  1  74   1
M  ISO  4  38 100  60 101  72 100  81 101
M  END
> <Batch ID>
0016

> <Smiles>
CNC(C)C(=O)NC(C(=O)N1Cc2cc([101O:1][101CH2:1]CCN(C)c3cccc([100N:0](C)[100C:0](=O)N4CCCC(n5nc(-c6ccc(Oc7ccc(F)cc7F)cc6)c(C(N)=O)c5N)C4)c3)ccc2CC1C(=O)NC1CCCc2ccccc21)C(C)(C)C

> <Shape>
0.150

> <Color>
0.170

> <Negative vol penalty>
0.000

$$$$

  -OEChem-04042320573D

 86 94  0     1  0  0  0  0  0999 V2000
  -28.0763  -36.8697   21.8215 C   0  0  0  0  0  0  0  0  0  0  0  0
  -28.5061  -35.5998   21.4498 C   0  0  0  0  0  0  0  0  0  0  0  0
  -22.1672  -10.6629   20.7178 C   0  0  0  0  0  0  0  0  0  0  0  0
  -24.1868   -9.8323   21.7516 C   0  0  0  0  0  0  0  0  0  0  0  0
  -27.0419  -37.0116   22.7455 C   0  0  0  0  0  0  0  0  0  0  0  0
  -27.9024  -34.4710   22.0028 C   0  0  0  0  0  0  0  0  0  0  0  0
  -26.9025  -29.1012   19.2331 C   0  0  0  0  0  0  0  0  0  0  0  0
  -27.8560  -21.5783   21.2697 C   0  0  0  0  0  0  0  0  0  0  0  0
  -21.6342   -9.3739   20.7235 C   0  0  0  0  0  0  0  0  0  0  0  0
  -23.6537   -8.5433   21.7574 C   0  0  0  0  0  0  0  0  0  0  0  0
  -27.5958  -27.8918   19.2536 C   0  0  0  0  0  0  0  0  0  0  0  0
  -22.6814   -5.0947   22.3737 C   0  0  0  0  0  0  0  0  0  0  0  0
  -28.1774  -20.8420   22.4100 C   0  0  0  0  0  0  0  0  0  0  0  0
  -22.8200   -4.3400   23.5385 C   0  0  0  0  0  0  0  0  0  0  0  0
  -26.1104  -27.0763   20.9705 C   0  0  0  0  0  0  0  0  0  0  0  0
  -21.5855   -6.0128   24.7693 C   0  0  0  0  0  0  0  0  0  0  0  0
  -23.4436  -10.8921   21.2318 C   0  0  0  0  0  0  0  0  0  0  0  0
  -23.8782  -13.1964   22.2360 C   0  0  0  0  0  0  0  0  0  0  0  0
  -26.4187  -35.8839   23.3028 C   0  0  0  0  0  0  0  0  0  0  0  0
  -25.8128  -29.3116   20.0904 C   0  0  0  0  0  0  0  0  0  0  0  0
  -26.8596  -34.5980   22.9361 C   0  0  0  0  0  0  0  0  0  0  0  0
  -25.4033  -28.2883   20.9571 C   0  0  0  0  0  0  0  0  0  0  0  0
  -28.0266  -18.7971   21.1320 C   0  0  0  0  0  0  0  0  0  0  0  0
  -27.6198  -20.9240   20.0606 C   0  0  0  0  0  0  0  0  0  0  0  0
  -22.3774   -8.3142   21.2433 C   0  0  0  0  0  0  0  0  0  0  0  0
  -27.2016  -26.8802   20.1244 C   0  0  0  0  0  0  0  0  0  0  0  0
  -21.9949   -6.3086   22.4067 C   0  0  0  0  0  0  0  0  0  0  0  0
  -22.2720   -4.7990   24.7363 C   0  0  0  0  0  0  0  0  0  0  0  0
  -28.2628  -19.4514   22.3411 C   0  0  0  0  0  0  0  0  0  0  0  0
  -21.4469   -6.7676   23.6045 C   0  0  0  0  0  0  0  0  0  0  0  0
  -27.7051  -19.5335   19.9918 C   0  0  0  0  0  0  0  0  0  0  0  0
  -23.9950  -12.2232   21.2256 C   0  0  0  0  0  0  0  0  0  0  0  0
  -24.5720  -14.2786   21.7523 C   0  0  0  0  0  0  0  0  0  0  0  0
  -23.2031  -13.1283   23.4991 C   0  0  0  0  0  0  0  0  0  0  0  0
  -25.1723  -31.3475   22.4459 C   0  0  0  0  0  0  0  0  0  0  0  0
  -22.2460  -29.9525   22.3319 C   0  0  0  0  0  0  0  0  0  0  0  0
  -20.3639  -27.2323   21.4924 C   0  0  0  0  0  0  0  0  0  0  0  0
  -29.3769  -16.0336   19.2724 C   0  0  0  0  0  0  0  0  0  0  0  0
  -25.3365  -36.0875   24.3333 C   0  0  0  0  0  0  0  0  0  0  0  0
  -25.0589  -30.6120   20.0372 C   0  0  0  0  0  0  0  0  0  0  0  0
  -24.2275  -28.4566   21.8832 C   0  0  0  0  0  0  0  0  0  0  0  0
  -24.4973  -34.8386   24.5903 C   0  0  0  0  0  0  0  0  0  0  0  0
  -26.4464  -15.2254   17.1604 C   0  0  0  0  0  0  0  0  0  0  0  0
  -25.3957  -33.6182   24.7645 C   0  0  0  0  0  0  0  0  0  0  0  0
  -25.5776  -14.3920   18.1010 C   0  0  0  0  0  0  0  0  0  0  0  0
  -27.9285  -15.1060   17.5023 C   0  0  0  0  0  0  0  0  0  0  0  0
  -27.3793  -14.5990   19.8593 C   0  0  0  0  0  0  0  0  0  0  0  0
  -26.2130  -33.3492   23.4952 C   0  0  1  0  0  0  0  0  0  0  0  0
  -24.2836  -30.9060   21.3177 C   0  0  1  0  0  0  0  0  0  0  0  0
  -25.8766  -14.7339   19.5710 C   0  0  2  0  0  0  0  0  0  0  0  0
  -18.0072  -26.3724   21.5544 C   0  0  0  0  0  0  0  0  0  0  0  0
  -22.5220  -29.4190   25.3234 C   0  0  0  0  0  0  0  0  0  0  0  0
  -20.6474  -27.7705   25.1316 C   0  0  0  0  0  0  0  0  0  0  0  0
  -20.2496  -30.1760   24.6040 C   0  0  0  0  0  0  0  0  0  0  0  0
  -27.0453  -21.0051   17.6475 C   0  0  0  0  0  0  0  0  0  0  0  0
  -30.5614  -17.5559   20.8083 C   0  0  0  0  0  0  0  0  0  0  0  0
  -20.2522  -26.9886   18.5450 C   0  0  0  0  0  0  0  0  0  0  0  0
  -28.1196  -17.3103   21.0590 C   0  0  0  0  0  0  0  0  0  0  0  0
  -28.5700  -23.7545   18.8928 C   0  0  0  0  0  0  0  0  0  0  0  0
  -27.1876  -23.1158   18.9791 C   0  0  0  0  0  0  0  0  0  0  0  0
  -28.4854  -25.2754   18.9275 C   0  0  0  0  0  0  0  0  0  1  0  0
  -21.6019  -28.7629   23.0020 C   0  0  1  0  0  0  0  0  0  0  0  0
  -19.0548  -27.1084   20.7338 C   0  0  2  0  0  0  0  0  0  0  0  0
  -21.2786  -29.0293   24.4993 C   0  0  0  0  0  0  0  0  0  0  0  0
  -24.7068  -12.6495   20.1789 N   0  0  0  0  0  0  0  0  0  0  0  0
  -25.0434  -13.9026   20.5290 N   0  0  0  0  0  0  0  0  0  0  0  0
  -23.5265  -29.7485   21.7984 N   0  0  0  0  0  0  0  0  0  0  0  0
  -28.1786  -15.3940   18.9150 N   0  0  0  0  0  0  0  0  0  0  0  0
  -24.8185  -15.5057   22.2582 N   0  0  0  0  0  0  0  0  0  0  0  0
  -22.5400  -11.9413   23.8390 N   0  0  0  0  0  0  0  0  0  0  0  0
  -25.3902  -32.7113   22.4900 N   0  0  0  0  0  0  0  0  0  0  0  0
  -20.4387  -28.4183   22.1917 N   0  0  0  0  0  0  0  0  0  0  0  0
  -27.2969  -21.6629   18.9229 N   0  0  3  0  0  0  0  0  0  0  0  0
  -29.3468  -16.8620   20.4044 N   0  0  0  0  0  0  0  0  0  0  0  0
  -19.2628  -26.3633   19.4600 N   0  3  0  0  0  0  0  0  0  0  0  0
  -23.1744  -14.0972   24.2953 O   0  0  0  0  0  0  0  0  0  0  0  0
  -25.6257  -30.5127   23.2201 O   0  0  0  0  0  0  0  0  0  0  0  0
  -21.6326  -31.0214   22.2774 O   0  0  0  0  0  0  0  0  0  0  0  0
  -21.2316  -26.3622   21.4701 O   0  0  0  0  0  0  0  0  0  0  0  0
  -30.4122  -15.8808   18.6115 O   0  0  0  0  0  0  0  0  0  0  0  0
  -21.8574   -7.0563   21.2493 O   0  0  0  0  0  0  0  0  0  0  0  0
  -27.8769  -25.6990   20.1468 O   0  0  0  0  0  0  0  0  0  1  0  0
  -22.4039   -4.0734   25.8545 F   0  0  0  0  0  0  0  0  0  0  0  0
  -28.5754  -18.7529   23.4416 F   0  0  0  0  0  0  0  0  0  0  0  0
  -20.7853   -7.9323   23.6422 F   0  0  0  0  0  0  0  0  0  0  0  0
  -27.4764  -18.9029   18.8299 F   0  0  0  0  0  0  0  0  0  0  0  0
  1  2  1  0  0  0  0
  1  5  2  0  0  0  0
  2  6  2  0  0  0  0
  3  9  2  0  0  0  0
  3 17  1  0  0  0  0
  4 10  1  0  0  0  0
  4 17  2  0  0  0  0
  5 19  1  0  0  0  0
  6 21  1  0  0  0  0
  7 11  2  0  0  0  0
  7 20  1  0  0  0  0
  8 13  2  0  0  0  0
  8 24  1  0  0  0  0
  9 25  1  0  0  0  0
 10 25  2  0  0  0  0
 11 26  1  0  0  0  0
 12 14  2  0  0  0  0
 12 27  1  0  0  0  0
 13 29  1  0  0  0  0
 14 28  1  0  0  0  0
 15 22  1  0  0  0  0
 15 26  2  0  0  0  0
 16 28  2  0  0  0  0
 16 30  1  0  0  0  0
 17 32  1  0  0  0  0
 18 32  1  0  0  0  0
 18 33  2  0  0  0  0
 18 34  1  0  0  0  0
 19 21  2  0  0  0  0
 19 39  1  0  0  0  0
 20 22  2  0  0  0  0
 20 40  1  0  0  0  0
 21 48  1  0  0  0  0
 22 41  1  0  0  0  0
 23 29  2  0  0  0  0
 23 31  1  0  0  0  0
 23 58  1  0  0  0  0
 24 31  2  0  0  0  0
 24 73  1  0  0  0  0
 25 81  1  0  0  0  0
 26 82  1  0  0  0  0
 27 30  2  0  0  0  0
 27 81  1  0  0  0  0
 28 83  1  0  0  0  0
 29 84  1  0  0  0  0
 30 85  1  0  0  0  0
 31 86  1  0  0  0  0
 32 65  2  0  0  0  0
 33 66  1  0  0  0  0
 33 69  1  0  0  0  0
 34 70  1  0  0  0  0
 34 76  2  0  0  0  0
 35 49  1  0  0  0  0
 35 71  1  0  0  0  0
 35 77  2  0  0  0  0
 36 62  1  0  0  0  0
 36 67  1  0  0  0  0
 36 78  2  0  0  0  0
 37 63  1  0  0  0  0
 37 72  1  0  0  0  0
 37 79  2  0  0  0  0
 38 68  1  0  0  0  0
 38 74  1  0  0  0  0
 38 80  2  0  0  0  0
 39 42  1  0  0  0  0
 40 49  1  0  0  0  0
 41 67  1  0  0  0  0
 42 44  1  0  0  0  0
 43 45  1  0  0  0  0
 43 46  1  0  0  0  0
 44 48  1  0  0  0  0
 45 50  1  0  0  0  0
 46 68  1  0  0  0  0
 47 50  1  0  0  0  0
 47 68  1  0  0  0  0
 48 71  1  0  0  0  0
 49 67  1  0  0  0  0
 50 66  1  0  0  0  0
 51 63  1  0  0  0  0
 52 64  1  0  0  0  0
 53 64  1  0  0  0  0
 54 64  1  0  0  0  0
 55 73  1  0  0  0  0
 56 74  1  0  0  0  0
 57 75  1  0  0  0  0
 58 74  1  0  0  0  0
 59 60  1  0  0  0  0
 59 61  1  0  0  0  0
 60 73  1  0  0  0  0
 61 82  1  0  0  0  0
 62 64  1  0  0  0  0
 62 72  1  0  0  0  0
 63 75  1  0  0  0  0
 65 66  1  0  0  0  0
M  CHG  1  75   1
M  ISO  4  38 100  61 101  74 100  82 101
M  END
> <Batch ID>
0016

> <Smiles>
CNC(C)C(=O)NC(C(=O)N1Cc2cc([101O:1][101CH2:1]CCN(C)c3ccc(F)c(C[100N:0](C)[100C:0](=O)N4CCCC(n5nc(-c6ccc(Oc7ccc(F)cc7F)cc6)c(C(N)=O)c5N)C4)c3F)ccc2CC1C(=O)NC1CCCc2ccccc21)C(C)(C)C

> <Shape>
0.356

> <Color>
0.099

> <Negative vol penalty>
0.000

$$$$

  -OEChem-04042320573D

 85 93  0     1  0  0  0  0  0999 V2000
  -31.3251  -25.8069   18.4093 C   0  0  0  0  0  0  0  0  0  0  0  0
  -29.9713  -25.8465   18.7273 C   0  0  0  0  0  0  0  0  0  0  0  0
  -24.3240   -9.3024   21.7664 C   0  0  0  0  0  0  0  0  0  0  0  0
  -22.6764   -9.9141   20.1086 C   0  0  0  0  0  0  0  0  0  0  0  0
  -32.2532  -26.4369   19.2374 C   0  0  0  0  0  0  0  0  0  0  0  0
  -29.5449  -26.5151   19.8743 C   0  0  0  0  0  0  0  0  0  0  0  0
  -25.4765  -29.4114   19.0352 C   0  0  0  0  0  0  0  0  0  0  0  0
  -21.2379  -23.1480   21.4779 C   0  0  0  0  0  0  0  0  0  0  0  0
  -23.7006   -8.0654   21.9295 C   0  0  0  0  0  0  0  0  0  0  0  0
  -22.0530   -8.6770   20.2717 C   0  0  0  0  0  0  0  0  0  0  0  0
  -24.2417  -28.7684   18.9598 C   0  0  0  0  0  0  0  0  0  0  0  0
  -21.7614  -21.8890   21.1839 C   0  0  0  0  0  0  0  0  0  0  0  0
  -20.9855   -6.8358   23.5235 C   0  0  0  0  0  0  0  0  0  0  0  0
  -20.7852   -6.3786   24.8259 C   0  0  0  0  0  0  0  0  0  0  0  0
  -23.7732  -29.4140   21.2364 C   0  0  0  0  0  0  0  0  0  0  0  0
  -19.5300  -21.0558   20.7790 C   0  0  0  0  0  0  0  0  0  0  0  0
  -22.1306   -4.4295   24.3485 C   0  0  0  0  0  0  0  0  0  0  0  0
  -23.8118  -10.2269   20.8559 C   0  0  0  0  0  0  0  0  0  0  0  0
  -25.4845  -11.8260   19.7823 C   0  0  0  0  0  0  0  0  0  0  0  0
  -31.8370  -27.1218   20.3900 C   0  0  0  0  0  0  0  0  0  0  0  0
  -25.8742  -30.0523   20.2174 C   0  0  0  0  0  0  0  0  0  0  0  0
  -30.4685  -27.1537   20.7193 C   0  0  0  0  0  0  0  0  0  0  0  0
  -25.0124  -30.0667   21.3234 C   0  0  0  0  0  0  0  0  0  0  0  0
  -19.8604  -23.3609   21.4225 C   0  0  0  0  0  0  0  0  0  0  0  0
  -22.5651   -7.7526   21.1822 C   0  0  0  0  0  0  0  0  0  0  0  0
  -23.3911  -28.7671   20.0614 C   0  0  0  0  0  0  0  0  0  0  0  0
  -20.9074  -20.8429   20.8344 C   0  0  0  0  0  0  0  0  0  0  0  0
  -21.7582   -6.0898   22.6334 C   0  0  0  0  0  0  0  0  0  0  0  0
  -21.3578   -5.1755   25.2385 C   0  0  0  0  0  0  0  0  0  0  0  0
  -19.0065  -22.3149   21.0730 C   0  0  0  0  0  0  0  0  0  0  0  0
  -22.3308   -4.8867   23.0460 C   0  0  0  0  0  0  0  0  0  0  0  0
  -24.4550  -11.5051   20.6873 C   0  0  0  0  0  0  0  0  0  0  0  0
  -25.7435  -13.1549   20.0140 C   0  0  0  0  0  0  0  0  0  0  0  0
  -26.1473  -10.9971   18.8184 C   0  0  0  0  0  0  0  0  0  0  0  0
  -28.2611  -29.6715   22.2816 C   0  0  0  0  0  0  0  0  0  0  0  0
  -22.3633  -17.5607   22.3108 C   0  0  0  0  0  0  0  0  0  0  0  0
  -27.0483  -32.3825   23.5863 C   0  0  0  0  0  0  0  0  0  0  0  0
  -24.3580  -34.4373   24.0192 C   0  0  0  0  0  0  0  0  0  0  0  0
  -32.8818  -27.7474   21.2797 C   0  0  0  0  0  0  0  0  0  0  0  0
  -27.1979  -30.7643   20.2738 C   0  0  0  0  0  0  0  0  0  0  0  0
  -25.3837  -30.7578   22.6091 C   0  0  0  0  0  0  0  0  0  0  0  0
  -32.3106  -28.7533   22.2757 C   0  0  0  0  0  0  0  0  0  0  0  0
  -25.5783  -16.4658   23.4532 C   0  0  0  0  0  0  0  0  0  0  0  0
  -31.0726  -28.1827   22.9603 C   0  0  0  0  0  0  0  0  0  0  0  0
  -25.7358  -15.0867   22.8142 C   0  0  0  0  0  0  0  0  0  0  0  0
  -24.1277  -16.7411   23.8370 C   0  0  0  0  0  0  0  0  0  0  0  0
  -23.3175  -15.2153   22.0657 C   0  0  0  0  0  0  0  0  0  0  0  0
  -29.9645  -27.8900   21.9415 C   0  0  1  0  0  0  0  0  0  0  0  0
  -27.7191  -30.9448   21.6962 C   0  0  1  0  0  0  0  0  0  0  0  0
  -24.7629  -14.9095   21.6350 C   0  0  2  0  0  0  0  0  0  0  0  0
  -23.6635  -36.5578   25.1674 C   0  0  0  0  0  0  0  0  0  0  0  0
  -26.9311  -30.8990   26.2500 C   0  0  0  0  0  0  0  0  0  0  0  0
  -25.3915  -32.6828   27.0962 C   0  0  0  0  0  0  0  0  0  0  0  0
  -27.7170  -33.2679   26.4089 C   0  0  0  0  0  0  0  0  0  0  0  0
  -17.8911  -24.8526   21.6611 C   0  0  0  0  0  0  0  0  0  0  0  0
  -23.7036  -35.7511   21.4494 C   0  0  0  0  0  0  0  0  0  0  0  0
  -21.4754  -17.2811   21.1244 C   0  0  0  0  0  0  0  0  0  0  0  0
  -20.7865  -26.3962   20.8635 C   0  0  0  0  0  0  0  0  0  0  0  0
  -20.1923  -25.7265   22.0967 C   0  0  0  0  0  0  0  0  0  0  0  0
  -20.5957  -18.4853   20.8380 C   0  0  0  0  0  0  0  0  0  0  0  0
  -21.6651  -27.5947   21.2025 C   0  0  0  0  0  0  0  0  0  1  0  0
  -26.0087  -32.6912   24.6365 C   0  0  1  0  0  0  0  0  0  0  0  0
  -24.2086  -35.9422   23.8880 C   0  0  2  0  0  0  0  0  0  0  0  0
  -26.5056  -32.3705   26.0745 C   0  0  0  0  0  0  0  0  0  0  0  0
  -24.0854  -12.5462   21.4381 N   0  0  0  0  0  0  0  0  0  0  0  0
  -24.8870  -13.5342   21.0053 N   0  0  0  0  0  0  0  0  0  0  0  0
  -26.6912  -31.4345   22.6169 N   0  0  0  0  0  0  0  0  0  0  0  0
  -23.2329  -16.5402   22.6958 N   0  0  0  0  0  0  0  0  0  0  0  0
  -26.6180  -14.0241   19.4645 N   0  0  0  0  0  0  0  0  0  0  0  0
  -25.7581   -9.6550   18.7111 N   0  0  0  0  0  0  0  0  0  0  0  0
  -29.2965  -29.1145   21.5556 N   0  0  0  0  0  0  0  0  0  0  0  0
  -25.6248  -34.0840   24.4338 N   0  0  0  0  0  0  0  0  0  0  0  0
  -19.3368  -24.6276   21.7187 N   0  0  3  0  0  0  0  0  0  0  0  0
  -23.2779  -36.2750   22.7727 N   0  3  0  0  0  0  0  0  0  0  0  0
  -27.0690  -11.4295   18.0856 O   0  0  0  0  0  0  0  0  0  0  0  0
  -27.7768  -29.2281   23.3163 O   0  0  0  0  0  0  0  0  0  0  0  0
  -22.2869  -18.6551   22.8752 O   0  0  0  0  0  0  0  0  0  0  0  0
  -28.1343  -32.9664   23.6204 O   0  0  0  0  0  0  0  0  0  0  0  0
  -23.4415  -33.6536   23.7816 O   0  0  0  0  0  0  0  0  0  0  0  0
  -21.9567   -6.5455   21.3409 O   0  0  0  0  0  0  0  0  0  0  0  0
  -22.1856  -28.1397   19.9907 O   0  0  0  0  0  0  0  0  0  1  0  0
  -21.4182  -19.6144   20.5475 O   0  0  0  0  0  0  0  0  0  0  0  0
  -21.1667   -4.7373   26.4897 F   0  0  0  0  0  0  0  0  0  0  0  0
  -17.6811  -22.5084   21.0166 F   0  0  0  0  0  0  0  0  0  0  0  0
  -23.0751   -4.1662   22.1958 F   0  0  0  0  0  0  0  0  0  0  0  0
  1  2  1  0  0  0  0
  1  5  2  0  0  0  0
  2  6  2  0  0  0  0
  3  9  2  0  0  0  0
  3 18  1  0  0  0  0
  4 10  1  0  0  0  0
  4 18  2  0  0  0  0
  5 20  1  0  0  0  0
  6 22  1  0  0  0  0
  7 11  2  0  0  0  0
  7 21  1  0  0  0  0
  8 12  2  0  0  0  0
  8 24  1  0  0  0  0
  9 25  1  0  0  0  0
 10 25  2  0  0  0  0
 11 26  1  0  0  0  0
 12 27  1  0  0  0  0
 13 14  2  0  0  0  0
 13 28  1  0  0  0  0
 14 29  1  0  0  0  0
 15 23  1  0  0  0  0
 15 26  2  0  0  0  0
 16 27  2  0  0  0  0
 16 30  1  0  0  0  0
 17 29  2  0  0  0  0
 17 31  1  0  0  0  0
 18 32  1  0  0  0  0
 19 32  1  0  0  0  0
 19 33  2  0  0  0  0
 19 34  1  0  0  0  0
 20 22  2  0  0  0  0
 20 39  1  0  0  0  0
 21 23  2  0  0  0  0
 21 40  1  0  0  0  0
 22 48  1  0  0  0  0
 23 41  1  0  0  0  0
 24 30  2  0  0  0  0
 24 73  1  0  0  0  0
 25 80  1  0  0  0  0
 26 81  1  0  0  0  0
 27 82  1  0  0  0  0
 28 31  2  0  0  0  0
 28 80  1  0  0  0  0
 29 83  1  0  0  0  0
 30 84  1  0  0  0  0
 31 85  1  0  0  0  0
 32 65  2  0  0  0  0
 33 66  1  0  0  0  0
 33 69  1  0  0  0  0
 34 70  1  0  0  0  0
 34 75  2  0  0  0  0
 35 49  1  0  0  0  0
 35 71  1  0  0  0  0
 35 76  2  0  0  0  0
 36 57  1  0  0  0  0
 36 68  1  0  0  0  0
 36 77  2  0  0  0  0
 37 62  1  0  0  0  0
 37 67  1  0  0  0  0
 37 78  2  0  0  0  0
 38 63  1  0  0  0  0
 38 72  1  0  0  0  0
 38 79  2  0  0  0  0
 39 42  1  0  0  0  0
 40 49  1  0  0  0  0
 41 67  1  0  0  0  0
 42 44  1  0  0  0  0
 43 45  1  0  0  0  0
 43 46  1  0  0  0  0
 44 48  1  0  0  0  0
 45 50  1  0  0  0  0
 46 68  1  0  0  0  0
 47 50  1  0  0  0  0
 47 68  1  0  0  0  0
 48 71  1  0  0  0  0
 49 67  1  0  0  0  0
 50 66  1  0  0  0  0
 51 63  1  0  0  0  0
 52 64  1  0  0  0  0
 53 64  1  0  0  0  0
 54 64  1  0  0  0  0
 55 73  1  0  0  0  0
 56 74  1  0  0  0  0
 57 60  1  0  0  0  0
 58 59  1  0  0  0  0
 58 61  1  0  0  0  0
 59 73  1  0  0  0  0
 60 82  1  0  0  0  0
 61 81  1  0  0  0  0
 62 64  1  0  0  0  0
 62 72  1  0  0  0  0
 63 74  1  0  0  0  0
 65 66  1  0  0  0  0
M  CHG  1  74   1
M  ISO  4  36 100  57 100  61 101  81 101
M  END
> <Batch ID>
0016

> <Smiles>
CNC(C)C(=O)NC(C(=O)N1Cc2cc([101O:1][101CH2:1]CCN(C)c3ccc(OC[100CH2:0][100C:0](=O)N4CCCC(n5nc(-c6ccc(Oc7ccc(F)cc7F)cc6)c(C(N)=O)c5N)C4)cc3F)ccc2CC1C(=O)NC1CCCc2ccccc21)C(C)(C)C

> <Shape>
0.304

> <Color>
0.100

> <Negative vol penalty>
0.000

$$$$

  -OEChem-04042320573D

 89 97  0     1  0  0  0  0  0999 V2000
  -25.2246  -34.0623   27.5341 C   0  0  0  0  0  0  0  0  0  0  0  0
  -25.9751  -33.0920   26.8780 C   0  0  0  0  0  0  0  0  0  0  0  0
  -30.7301  -12.1936   16.6173 C   0  0  0  0  0  0  0  0  0  0  0  0
  -30.5705  -14.5874   16.9024 C   0  0  0  0  0  0  0  0  0  0  0  0
  -23.8328  -34.0362   27.4563 C   0  0  0  0  0  0  0  0  0  0  0  0
  -25.3342  -32.0943   26.1444 C   0  0  0  0  0  0  0  0  0  0  0  0
  -27.3155  -29.4779   20.9738 C   0  0  0  0  0  0  0  0  0  0  0  0
  -28.2326  -19.2333   19.4707 C   0  0  0  0  0  0  0  0  0  0  0  0
  -30.4281  -18.6928   20.3219 C   0  0  0  0  0  0  0  0  0  0  0  0
  -28.5427  -20.5918   19.5334 C   0  0  0  0  0  0  0  0  0  0  0  0
  -30.7383  -20.0513   20.3845 C   0  0  0  0  0  0  0  0  0  0  0  0
  -31.3708  -12.3822   15.3927 C   0  0  0  0  0  0  0  0  0  0  0  0
  -31.2113  -14.7760   15.6779 C   0  0  0  0  0  0  0  0  0  0  0  0
  -27.9770  -28.2762   20.7244 C   0  0  0  0  0  0  0  0  0  0  0  0
  -34.3700  -14.6794   14.4805 C   0  0  0  0  0  0  0  0  0  0  0  0
  -35.3840  -15.6354   14.4218 C   0  0  0  0  0  0  0  0  0  0  0  0
  -25.8636  -27.2218   20.2336 C   0  0  0  0  0  0  0  0  0  0  0  0
  -34.1443  -16.8471   12.7390 C   0  0  0  0  0  0  0  0  0  0  0  0
  -30.3299  -13.2963   17.3721 C   0  0  0  0  0  0  0  0  0  0  0  0
  -30.2704  -12.9916   19.9041 C   0  0  0  0  0  0  0  0  0  0  0  0
  -23.1748  -33.0433   26.7134 C   0  0  0  0  0  0  0  0  0  0  0  0
  -25.9197  -29.5579   20.8655 C   0  0  0  0  0  0  0  0  0  0  0  0
  -23.9322  -32.0541   26.0576 C   0  0  0  0  0  0  0  0  0  0  0  0
  -25.1870  -28.4263   20.4797 C   0  0  0  0  0  0  0  0  0  0  0  0
  -29.1753  -18.2838   19.8650 C   0  0  0  0  0  0  0  0  0  0  0  0
  -29.7955  -21.0008   19.9902 C   0  0  0  0  0  0  0  0  0  0  0  0
  -31.6115  -13.6734   14.9230 C   0  0  0  0  0  0  0  0  0  0  0  0
  -27.2508  -27.1472   20.3570 C   0  0  0  0  0  0  0  0  0  0  0  0
  -33.2431  -14.8072   13.6683 C   0  0  0  0  0  0  0  0  0  0  0  0
  -35.2712  -16.7193   13.5511 C   0  0  0  0  0  0  0  0  0  0  0  0
  -33.1303  -15.8911   12.7976 C   0  0  0  0  0  0  0  0  0  0  0  0
  -29.6674  -13.1021   18.6368 C   0  0  0  0  0  0  0  0  0  0  0  0
  -29.2189  -12.8191   20.7708 C   0  0  0  0  0  0  0  0  0  0  0  0
  -31.6569  -13.0405   20.2656 C   0  0  0  0  0  0  0  0  0  0  0  0
  -23.5475  -30.2128   22.8772 C   0  0  0  0  0  0  0  0  0  0  0  0
  -21.7439  -30.0652   20.1851 C   0  0  0  0  0  0  0  0  0  0  0  0
  -26.5608  -16.4048   20.7082 C   0  0  0  0  0  0  0  0  0  0  0  0
  -21.3799  -28.8879   17.0026 C   0  0  0  0  0  0  0  0  0  0  0  0
  -23.6601  -14.8355   21.1143 C   0  0  0  0  0  0  0  0  0  0  0  0
  -21.6667  -33.0284   26.6973 C   0  0  0  0  0  0  0  0  0  0  0  0
  -25.2237  -30.8683   21.1119 C   0  0  0  0  0  0  0  0  0  0  0  0
  -23.6889  -28.4648   20.3295 C   0  0  0  0  0  0  0  0  0  0  0  0
  -21.0780  -32.1567   25.5910 C   0  0  0  0  0  0  0  0  0  0  0  0
  -24.5352  -11.3237   20.3379 C   0  0  0  0  0  0  0  0  0  0  0  0
  -21.7824  -30.8045   25.5449 C   0  0  0  0  0  0  0  0  0  0  0  0
  -25.9850  -11.4373   19.8700 C   0  0  0  0  0  0  0  0  0  0  0  0
  -23.7495  -12.6029   20.0660 C   0  0  0  0  0  0  0  0  0  0  0  0
  -25.8265  -13.9409   20.1660 C   0  0  0  0  0  0  0  0  0  0  0  0
  -23.2744  -30.9701   25.2315 C   0  0  1  0  0  0  0  0  0  0  0  0
  -23.7504  -30.7040   21.4718 C   0  0  1  0  0  0  0  0  0  0  0  0
  -26.6582  -12.6851   20.4676 C   0  0  2  0  0  0  0  0  0  0  0  0
  -19.7828  -28.9038   15.0670 C   0  0  0  0  0  0  0  0  0  0  0  0
  -19.9744  -28.0438   21.6316 C   0  0  0  0  0  0  0  0  0  0  0  0
  -19.0129  -27.4012   19.4111 C   0  0  0  0  0  0  0  0  0  0  0  0
  -18.7308  -29.7283   20.2640 C   0  0  0  0  0  0  0  0  0  0  0  0
  -31.4239  -22.7940   20.5314 C   0  0  0  0  0  0  0  0  0  0  0  0
  -28.6123  -16.0211   22.1149 C   0  0  0  0  0  0  0  0  0  0  0  0
  -23.5936  -17.0567   22.1828 C   0  0  0  0  0  0  0  0  0  0  0  0
  -23.3524  -30.2098   15.2361 C   0  0  0  0  0  0  0  0  0  0  0  0
  -28.8444  -16.8311   19.7988 C   0  0  0  0  0  0  0  0  0  0  0  0
  -25.7822  -15.9471   21.9289 C   0  0  0  0  0  0  0  0  0  0  0  0
  -28.1726  -23.6772   20.7552 C   0  0  0  0  0  0  0  0  0  0  0  0
  -29.1630  -23.3747   19.6372 C   0  0  0  0  0  0  0  0  0  0  0  0
  -27.1760  -24.7703   20.3875 C   0  0  0  0  0  0  0  0  0  1  0  0
  -21.0030  -28.9723   19.4532 C   0  0  1  0  0  0  0  0  0  0  0  0
  -20.9825  -29.5807   15.7116 C   0  0  2  0  0  0  0  0  0  0  0  0
  -19.7083  -28.5349   20.1946 C   0  0  0  0  0  0  0  0  0  0  0  0
  -28.3361  -13.0076   18.6892 N   0  0  0  0  0  0  0  0  0  0  0  0
  -28.0939  -12.8358   19.9999 N   0  0  0  0  0  0  0  0  0  0  0  0
  -23.0536  -29.7676   20.5875 N   0  0  0  0  0  0  0  0  0  0  0  0
  -24.4331  -13.7782   20.6070 N   0  0  0  0  0  0  0  0  0  0  0  0
  -29.1561  -12.6562   22.1094 N   0  0  0  0  0  0  0  0  0  0  0  0
  -32.6060  -13.2239   19.2507 N   0  0  0  0  0  0  0  0  0  0  0  0
  -23.4695  -31.2205   23.8196 N   0  0  0  0  0  0  0  0  0  0  0  0
  -20.7781  -29.4676   18.0995 N   0  0  0  0  0  0  0  0  0  0  0  0
  -30.1084  -22.3663   20.0516 N   0  0  3  0  0  0  0  0  0  0  0  0
  -27.9632  -16.4209   20.8625 N   0  0  0  0  0  0  0  0  0  0  0  0
  -24.3509  -15.9404   21.6347 N   0  0  0  0  0  0  0  0  0  0  0  0
  -22.1134  -29.5564   14.7414 N   0  3  0  0  0  0  0  0  0  0  0  0
  -32.0440  -12.9086   21.4515 O   0  0  0  0  0  0  0  0  0  0  0  0
  -23.4662  -29.0089   23.0907 O   0  0  0  0  0  0  0  0  0  0  0  0
  -21.1838  -31.1458   20.3859 O   0  0  0  0  0  0  0  0  0  0  0  0
  -25.9756  -16.7330   19.6726 O   0  0  0  0  0  0  0  0  0  0  0  0
  -22.1445  -27.9263   17.0344 O   0  0  0  0  0  0  0  0  0  0  0  0
  -22.4232  -14.7902   21.1114 O   0  0  0  0  0  0  0  0  0  0  0  0
  -32.2369  -13.8577   13.7283 O   0  0  0  0  0  0  0  0  0  0  0  0
  -27.8938  -25.9729   20.1136 O   0  0  0  0  0  0  0  0  0  1  0  0
  -36.2443  -17.6380   13.4960 F   0  0  0  0  0  0  0  0  0  0  0  0
  -32.0495  -16.0199   12.0158 F   0  0  0  0  0  0  0  0  0  0  0  0
  1  2  1  0  0  0  0
  1  5  2  0  0  0  0
  2  6  2  0  0  0  0
  3 12  2  0  0  0  0
  3 19  1  0  0  0  0
  4 13  1  0  0  0  0
  4 19  2  0  0  0  0
  5 21  1  0  0  0  0
  6 23  1  0  0  0  0
  7 14  2  0  0  0  0
  7 22  1  0  0  0  0
  8 10  2  0  0  0  0
  8 25  1  0  0  0  0
  9 11  1  0  0  0  0
  9 25  2  0  0  0  0
 10 26  1  0  0  0  0
 11 26  2  0  0  0  0
 12 27  1  0  0  0  0
 13 27  2  0  0  0  0
 14 28  1  0  0  0  0
 15 16  2  0  0  0  0
 15 29  1  0  0  0  0
 16 30  1  0  0  0  0
 17 24  1  0  0  0  0
 17 28  2  0  0  0  0
 18 30  2  0  0  0  0
 18 31  1  0  0  0  0
 19 32  1  0  0  0  0
 20 32  1  0  0  0  0
 20 33  2  0  0  0  0
 20 34  1  0  0  0  0
 21 23  2  0  0  0  0
 21 40  1  0  0  0  0
 22 24  2  0  0  0  0
 22 41  1  0  0  0  0
 23 49  1  0  0  0  0
 24 42  1  0  0  0  0
 25 60  1  0  0  0  0
 26 76  1  0  0  0  0
 27 86  1  0  0  0  0
 28 87  1  0  0  0  0
 29 31  2  0  0  0  0
 29 86  1  0  0  0  0
 30 88  1  0  0  0  0
 31 89  1  0  0  0  0
 32 68  2  0  0  0  0
 33 69  1  0  0  0  0
 33 72  1  0  0  0  0
 34 73  1  0  0  0  0
 34 80  2  0  0  0  0
 35 50  1  0  0  0  0
 35 74  1  0  0  0  0
 35 81  2  0  0  0  0
 36 65  1  0  0  0  0
 36 70  1  0  0  0  0
 36 82  2  0  0  0  0
 37 61  1  0  0  0  0
 37 77  1  0  0  0  0
 37 83  2  0  0  0  0
 38 66  1  0  0  0  0
 38 75  1  0  0  0  0
 38 84  2  0  0  0  0
 39 71  1  0  0  0  0
 39 78  1  0  0  0  0
 39 85  2  0  0  0  0
 40 43  1  0  0  0  0
 41 50  1  0  0  0  0
 42 70  1  0  0  0  0
 43 45  1  0  0  0  0
 44 46  1  0  0  0  0
 44 47  1  0  0  0  0
 45 49  1  0  0  0  0
 46 51  1  0  0  0  0
 47 71  1  0  0  0  0
 48 51  1  0  0  0  0
 48 71  1  0  0  0  0
 49 74  1  0  0  0  0
 50 70  1  0  0  0  0
 51 69  1  0  0  0  0
 52 66  1  0  0  0  0
 53 67  1  0  0  0  0
 54 67  1  0  0  0  0
 55 67  1  0  0  0  0
 56 76  1  0  0  0  0
 57 77  1  0  0  0  0
 58 78  1  0  0  0  0
 59 79  1  0  0  0  0
 60 77  1  0  0  0  0
 61 78  1  0  0  0  0
 62 63  1  0  0  0  0
 62 64  1  0  0  0  0
 63 76  1  0  0  0  0
 64 87  1  0  0  0  0
 65 67  1  0  0  0  0
 65 75  1  0  0  0  0
 66 79  1  0  0  0  0
 68 69  1  0  0  0  0
M  CHG  1  79   1
M  ISO  4  39 100  64 101  78 100  87 101
M  END
> <Batch ID>
0016

> <Smiles>
CNC(C)C(=O)NC(C(=O)N1Cc2cc([101O:1][101CH2:1]CCN(C)c3ccc(CN(C)C(=O)C[100N:0](C)[100C:0](=O)N4CCCC(n5nc(-c6ccc(Oc7ccc(F)cc7F)cc6)c(C(N)=O)c5N)C4)cc3)ccc2CC1C(=O)NC1CCCc2ccccc21)C(C)(C)C

> <Shape>
0.263

> <Color>
0.108

> <Negative vol penalty>
0.000

$$$$

  -OEChem-04042320573D

 88 96  0     1  0  0  0  0  0999 V2000
  -28.6163  -24.2672   18.6984 C   0  0  0  0  0  0  0  0  0  0  0  0
  -17.3738  -27.1530   23.6560 C   0  0  0  0  0  0  0  0  0  0  0  0
  -18.6438  -26.5850   23.6461 C   0  0  0  0  0  0  0  0  0  0  0  0
  -24.3214  -12.6915   19.6794 C   0  0  0  0  0  0  0  0  0  0  0  0
  -25.0996  -13.2985   21.8846 C   0  0  0  0  0  0  0  0  0  0  0  0
  -17.1299  -28.3245   22.9405 C   0  0  0  0  0  0  0  0  0  0  0  0
  -19.6702  -27.1877   22.9198 C   0  0  0  0  0  0  0  0  0  0  0  0
  -26.7582  -28.2145   23.0710 C   0  0  0  0  0  0  0  0  0  0  0  0
  -26.2724  -27.1650   18.9300 C   0  0  0  0  0  0  0  0  0  0  0  0
  -25.2724  -26.6254   19.7391 C   0  0  0  0  0  0  0  0  0  0  0  0
  -25.2805  -11.6805   19.6192 C   0  0  0  0  0  0  0  0  0  0  0  0
  -26.0588  -12.2876   21.8244 C   0  0  0  0  0  0  0  0  0  0  0  0
  -27.8872  -28.0531   22.2691 C   0  0  0  0  0  0  0  0  0  0  0  0
  -29.0864  -11.8076   20.3982 C   0  0  0  0  0  0  0  0  0  0  0  0
  -30.3820  -12.1182   20.8110 C   0  0  0  0  0  0  0  0  0  0  0  0
  -27.3694  -30.1182   21.1349 C   0  0  0  0  0  0  0  0  0  0  0  0
  -30.2472  -10.4128   22.5170 C   0  0  0  0  0  0  0  0  0  0  0  0
  -27.4883  -25.0803   19.0423 C   0  0  0  0  0  0  0  0  0  0  0  0
  -24.2309  -13.5005   20.8121 C   0  0  0  0  0  0  0  0  0  0  0  0
  -21.9260  -14.4422   21.3672 C   0  0  0  0  0  0  0  0  0  0  0  0
  -18.1563  -28.9471   22.2129 C   0  0  0  0  0  0  0  0  0  0  0  0
  -25.9189  -29.3253   22.9032 C   0  0  0  0  0  0  0  0  0  0  0  0
  -19.4394  -28.3679   22.1929 C   0  0  0  0  0  0  0  0  0  0  0  0
  -26.2318  -30.2927   21.9376 C   0  0  0  0  0  0  0  0  0  0  0  0
  -27.3803  -26.3924   18.5816 C   0  0  0  0  0  0  0  0  0  0  0  0
  -25.3804  -25.3133   20.1998 C   0  0  0  0  0  0  0  0  0  0  0  0
  -26.1492  -11.4786   20.6917 C   0  0  0  0  0  0  0  0  0  0  0  0
  -28.1914  -29.0036   21.2989 C   0  0  0  0  0  0  0  0  0  0  0  0
  -28.3711  -10.7997   21.0449 C   0  0  0  0  0  0  0  0  0  0  0  0
  -30.9625  -11.4207   21.8704 C   0  0  0  0  0  0  0  0  0  0  0  0
  -28.9515  -10.1023   22.1042 C   0  0  0  0  0  0  0  0  0  0  0  0
  -26.4884  -24.5407   19.8514 C   0  0  0  0  0  0  0  0  0  0  0  0
  -23.2407  -14.5453   20.8746 C   0  0  0  0  0  0  0  0  0  0  0  0
  -21.3997  -15.7007   21.2074 C   0  0  0  0  0  0  0  0  0  0  0  0
  -21.2417  -13.3099   21.9199 C   0  0  0  0  0  0  0  0  0  0  0  0
  -22.8718  -29.7326   22.0951 C   0  0  0  0  0  0  0  0  0  0  0  0
  -24.0357  -21.0154   20.9235 C   0  0  0  0  0  0  0  0  0  0  0  0
  -23.5065  -32.8362   22.7933 C   0  0  0  0  0  0  0  0  0  0  0  0
  -25.8264  -35.3195   23.1058 C   0  0  0  0  0  0  0  0  0  0  0  0
  -17.8328  -30.1864   21.4165 C   0  0  0  0  0  0  0  0  0  0  0  0
  -24.7195  -29.4985   23.7942 C   0  0  0  0  0  0  0  0  0  0  0  0
  -25.3742  -31.5136   21.7313 C   0  0  0  0  0  0  0  0  0  0  0  0
  -19.0684  -30.9675   20.9766 C   0  0  0  0  0  0  0  0  0  0  0  0
  -21.7585  -19.5979   18.4675 C   0  0  0  0  0  0  0  0  0  0  0  0
  -20.1156  -30.0249   20.3921 C   0  0  0  0  0  0  0  0  0  0  0  0
  -21.7877  -18.1168   18.8426 C   0  0  0  0  0  0  0  0  0  0  0  0
  -23.1193  -20.2570   18.6770 C   0  0  0  0  0  0  0  0  0  0  0  0
  -23.6910  -18.6141   20.4373 C   0  0  0  0  0  0  0  0  0  0  0  0
  -20.5850  -29.0056   21.4371 C   0  0  1  0  0  0  0  0  0  0  0  0
  -23.6517  -30.4048   23.1894 C   0  0  1  0  0  0  0  0  0  0  0  0
  -22.3294  -17.9194   20.2692 C   0  0  2  0  0  0  0  0  0  0  0  0
  -26.0387  -37.7594   23.6527 C   0  0  0  0  0  0  0  0  0  0  0  0
  -22.4374  -33.5472   20.0253 C   0  0  0  0  0  0  0  0  0  0  0  0
  -23.5317  -35.7873   20.2546 C   0  0  0  0  0  0  0  0  0  0  0  0
  -21.7357  -35.1096   21.8476 C   0  0  0  0  0  0  0  0  0  0  0  0
  -28.0266  -27.4421   16.4274 C   0  0  0  0  0  0  0  0  0  0  0  0
  -23.2138  -25.5681   21.3834 C   0  0  0  0  0  0  0  0  0  0  0  0
  -27.5490  -34.7637   25.4472 C   0  0  0  0  0  0  0  0  0  0  0  0
  -23.9707  -22.4372   20.4251 C   0  0  0  0  0  0  0  0  0  0  0  0
  -30.1333  -28.5685   18.2842 C   0  0  0  0  0  0  0  0  0  0  0  0
  -24.4606  -23.4042   21.4919 C   0  0  0  0  0  0  0  0  0  0  0  0
  -29.7321  -27.0997   18.2225 C   0  0  0  0  0  0  0  0  0  0  0  0
  -29.2335  -29.3933   19.1969 C   0  0  0  0  0  0  0  0  0  1  0  0
  -24.0136  -34.0252   22.0136 C   0  0  1  0  0  0  0  0  0  0  0  0
  -26.0663  -36.3417   24.2022 C   0  0  2  0  0  0  0  0  0  0  0  0
  -22.9449  -34.5934   21.0376 C   0  0  0  0  0  0  0  0  0  0  0  0
  -29.5302  -23.6086   18.4198 N   0  0  0  0  0  0  0  0  0  0  0  0
  -23.5317  -15.7725   20.4347 N   0  0  0  0  0  0  0  0  0  0  0  0
  -22.3924  -16.4519   20.6502 N   0  0  0  0  0  0  0  0  0  0  0  0
  -24.2090  -31.6348   22.6230 N   0  0  0  0  0  0  0  0  0  0  0  0
  -23.6129  -20.0226   20.0393 N   0  0  0  0  0  0  0  0  0  0  0  0
  -20.1892  -16.2270   21.4905 N   0  0  0  0  0  0  0  0  0  0  0  0
  -21.9300  -12.0925   22.0113 N   0  0  0  0  0  0  0  0  0  0  0  0
  -21.5197  -29.6183   22.3566 N   0  0  0  0  0  0  0  0  0  0  0  0
  -24.4925  -34.9867   23.0009 N   0  0  0  0  0  0  0  0  0  0  0  0
  -28.3699  -26.9611   17.7669 N   0  0  3  0  0  0  0  0  0  0  0  0
  -24.3676  -24.7707   21.0178 N   0  0  3  0  0  0  0  0  0  0  0  0
  -27.3918  -36.1119   24.8435 N   0  3  0  0  0  0  0  0  0  0  0  0
  -20.0497  -13.3717   22.3057 O   0  0  0  0  0  0  0  0  0  0  0  0
  -23.4533  -29.3476   21.0875 O   0  0  0  0  0  0  0  0  0  0  0  0
  -24.4475  -20.7962   22.0656 O   0  0  0  0  0  0  0  0  0  0  0  0
  -22.5277  -32.9702   23.5319 O   0  0  0  0  0  0  0  0  0  0  0  0
  -26.7313  -34.8649   22.4094 O   0  0  0  0  0  0  0  0  0  0  0  0
  -27.0851  -10.4920   20.6333 O   0  0  0  0  0  0  0  0  0  0  0  0
  -29.2925  -28.8481   20.5144 O   0  0  0  0  0  0  0  0  0  1  0  0
  -32.2073  -11.7180   22.2656 F   0  0  0  0  0  0  0  0  0  0  0  0
  -28.2697   -9.1322   22.7286 F   0  0  0  0  0  0  0  0  0  0  0  0
  -26.5867  -23.2785   20.2981 F   0  0  0  0  0  0  0  0  0  0  0  0
  1 18  1  0  0  0  0
  1 67  3  0  0  0  0
  2  3  1  0  0  0  0
  2  6  2  0  0  0  0
  3  7  2  0  0  0  0
  4 11  2  0  0  0  0
  4 19  1  0  0  0  0
  5 12  1  0  0  0  0
  5 19  2  0  0  0  0
  6 21  1  0  0  0  0
  7 23  1  0  0  0  0
  8 13  2  0  0  0  0
  8 22  1  0  0  0  0
  9 10  2  0  0  0  0
  9 25  1  0  0  0  0
 10 26  1  0  0  0  0
 11 27  1  0  0  0  0
 12 27  2  0  0  0  0
 13 28  1  0  0  0  0
 14 15  2  0  0  0  0
 14 29  1  0  0  0  0
 15 30  1  0  0  0  0
 16 24  1  0  0  0  0
 16 28  2  0  0  0  0
 17 30  2  0  0  0  0
 17 31  1  0  0  0  0
 18 25  2  0  0  0  0
 18 32  1  0  0  0  0
 19 33  1  0  0  0  0
 20 33  1  0  0  0  0
 20 34  2  0  0  0  0
 20 35  1  0  0  0  0
 21 23  2  0  0  0  0
 21 40  1  0  0  0  0
 22 24  2  0  0  0  0
 22 41  1  0  0  0  0
 23 49  1  0  0  0  0
 24 42  1  0  0  0  0
 25 76  1  0  0  0  0
 26 32  2  0  0  0  0
 26 77  1  0  0  0  0
 27 84  1  0  0  0  0
 28 85  1  0  0  0  0
 29 31  2  0  0  0  0
 29 84  1  0  0  0  0
 30 86  1  0  0  0  0
 31 87  1  0  0  0  0
 32 88  1  0  0  0  0
 33 68  2  0  0  0  0
 34 69  1  0  0  0  0
 34 72  1  0  0  0  0
 35 73  1  0  0  0  0
 35 79  2  0  0  0  0
 36 50  1  0  0  0  0
 36 74  1  0  0  0  0
 36 80  2  0  0  0  0
 37 59  1  0  0  0  0
 37 71  1  0  0  0  0
 37 81  2  0  0  0  0
 38 64  1  0  0  0  0
 38 70  1  0  0  0  0
 38 82  2  0  0  0  0
 39 65  1  0  0  0  0
 39 75  1  0  0  0  0
 39 83  2  0  0  0  0
 40 43  1  0  0  0  0
 41 50  1  0  0  0  0
 42 70  1  0  0  0  0
 43 45  1  0  0  0  0
 44 46  1  0  0  0  0
 44 47  1  0  0  0  0
 45 49  1  0  0  0  0
 46 51  1  0  0  0  0
 47 71  1  0  0  0  0
 48 51  1  0  0  0  0
 48 71  1  0  0  0  0
 49 74  1  0  0  0  0
 50 70  1  0  0  0  0
 51 69  1  0  0  0  0
 52 65  1  0  0  0  0
 53 66  1  0  0  0  0
 54 66  1  0  0  0  0
 55 66  1  0  0  0  0
 56 76  1  0  0  0  0
 57 77  1  0  0  0  0
 58 78  1  0  0  0  0
 59 61  1  0  0  0  0
 60 62  1  0  0  0  0
 60 63  1  0  0  0  0
 61 77  1  0  0  0  0
 62 76  1  0  0  0  0
 63 85  1  0  0  0  0
 64 66  1  0  0  0  0
 64 75  1  0  0  0  0
 65 78  1  0  0  0  0
 68 69  1  0  0  0  0
M  CHG  1  78   1
M  ISO  4  37 100  59 100  63 101  85 101
M  END
> <Batch ID>
0016

> <Smiles>
CNC(C)C(=O)NC(C(=O)N1Cc2cc([101O:1][101CH2:1]CCN(C)c3ccc(N(C)C[100CH2:0][100C:0](=O)N4CCCC(n5nc(-c6ccc(Oc7ccc(F)cc7F)cc6)c(C(N)=O)c5N)C4)c(F)c3C#N)ccc2CC1C(=O)NC1CCCc2ccccc21)C(C)(C)C

> <Shape>
0.232

> <Color>
0.096

> <Negative vol penalty>
0.000

$$$$

  -OEChem-04042320573D

 84 93  0     1  0  0  0  0  0999 V2000
  -26.5743  -37.1247   25.0759 C   0  0  0  0  0  0  0  0  0  0  0  0
  -27.5232  -36.2168   24.6169 C   0  0  0  0  0  0  0  0  0  0  0  0
  -22.7974  -10.2909   20.2395 C   0  0  0  0  0  0  0  0  0  0  0  0
  -24.5630   -9.2333   21.5049 C   0  0  0  0  0  0  0  0  0  0  0  0
  -25.4094  -36.6642   25.6881 C   0  0  0  0  0  0  0  0  0  0  0  0
  -27.3082  -34.8476   24.7710 C   0  0  0  0  0  0  0  0  0  0  0  0
  -27.2009  -29.1670   19.4095 C   0  0  0  0  0  0  0  0  0  0  0  0
  -25.7618  -19.6314   19.0667 C   0  0  0  0  0  0  0  0  0  0  0  0
  -26.0674  -18.2871   19.2787 C   0  0  0  0  0  0  0  0  0  0  0  0
  -21.8498   -9.7444   21.1048 C   0  0  0  0  0  0  0  0  0  0  0  0
  -23.6153   -8.6867   22.3703 C   0  0  0  0  0  0  0  0  0  0  0  0
  -27.0012  -28.0996   18.5339 C   0  0  0  0  0  0  0  0  0  0  0  0
  -21.4472   -6.0924   22.3732 C   0  0  0  0  0  0  0  0  0  0  0  0
  -21.5863   -4.7490   22.7215 C   0  0  0  0  0  0  0  0  0  0  0  0
  -25.5485  -27.0341   20.1471 C   0  0  0  0  0  0  0  0  0  0  0  0
  -28.3825  -18.8716   19.6475 C   0  0  0  0  0  0  0  0  0  0  0  0
  -21.7771   -5.3719   25.0481 C   0  0  0  0  0  0  0  0  0  0  0  0
  -24.1540  -10.0353   20.4395 C   0  0  0  0  0  0  0  0  0  0  0  0
  -25.2367  -10.3908   18.1571 C   0  0  0  0  0  0  0  0  0  0  0  0
  -25.1755  -35.2885   25.8411 C   0  0  0  0  0  0  0  0  0  0  0  0
  -26.5622  -29.1794   20.6526 C   0  0  0  0  0  0  0  0  0  0  0  0
  -26.1397  -34.3683   25.3871 C   0  0  0  0  0  0  0  0  0  0  0  0
  -25.7349  -28.1066   21.0233 C   0  0  0  0  0  0  0  0  0  0  0  0
  -26.7665  -20.5958   19.1449 C   0  0  0  0  0  0  0  0  0  0  0  0
  -27.3777  -17.9072   19.5692 C   0  0  0  0  0  0  0  0  0  0  0  0
  -22.2587   -8.9423   22.1702 C   0  0  0  0  0  0  0  0  0  0  0  0
  -26.1772  -27.0356   18.9019 C   0  0  0  0  0  0  0  0  0  0  0  0
  -21.4732   -7.0757   23.3623 C   0  0  0  0  0  0  0  0  0  0  0  0
  -21.7511   -4.3887   24.0589 C   0  0  0  0  0  0  0  0  0  0  0  0
  -28.0768  -20.2159   19.4354 C   0  0  0  0  0  0  0  0  0  0  0  0
  -21.6381   -6.7154   24.6997 C   0  0  0  0  0  0  0  0  0  0  0  0
  -25.1334  -10.5992   19.5456 C   0  0  0  0  0  0  0  0  0  0  0  0
  -26.3219  -11.1421   17.7771 C   0  0  0  0  0  0  0  0  0  0  0  0
  -24.4244   -9.5899   17.2886 C   0  0  0  0  0  0  0  0  0  0  0  0
  -25.9646  -31.0000   23.8782 C   0  0  0  0  0  0  0  0  0  0  0  0
  -23.2745  -29.8012   23.0200 C   0  0  0  0  0  0  0  0  0  0  0  0
  -20.4292  -28.6752   21.5121 C   0  0  0  0  0  0  0  0  0  0  0  0
  -28.9361  -15.9956   20.0826 C   0  0  0  0  0  0  0  0  0  0  0  0
  -23.9233  -34.8397   26.5517 C   0  0  0  0  0  0  0  0  0  0  0  0
  -26.7970  -30.2790   21.6524 C   0  0  0  0  0  0  0  0  0  0  0  0
  -25.0958  -28.1461   22.3846 C   0  0  0  0  0  0  0  0  0  0  0  0
  -23.5986  -33.3632   26.3397 C   0  0  0  0  0  0  0  0  0  0  0  0
  -30.4711  -12.8446   19.4564 C   0  0  0  0  0  0  0  0  0  0  0  0
  -24.8471  -32.5087   26.5347 C   0  0  0  0  0  0  0  0  0  0  0  0
  -29.2859  -11.8934   19.2758 C   0  0  0  0  0  0  0  0  0  0  0  0
  -25.5230  -23.7126   17.4904 C   0  0  0  0  0  0  0  0  0  0  0  0
  -26.9135  -24.3034   19.4814 C   0  0  0  0  0  0  0  0  0  0  0  0
  -30.1941  -13.8991   20.5264 C   0  0  0  0  0  0  0  0  0  0  0  0
  -25.3550  -22.2932   18.0257 C   0  0  0  0  0  0  0  0  0  0  0  0
  -26.7431  -22.8868   20.0212 C   0  0  0  0  0  0  0  0  0  0  0  0
  -27.7652  -13.7068   20.1624 C   0  0  0  0  0  0  0  0  0  0  0  0
  -25.9311  -32.8748   25.5137 C   0  0  1  0  0  0  0  0  0  0  0  0
  -25.5488  -30.6094   22.4904 C   0  0  1  0  0  0  0  0  0  0  0  0
  -27.9721  -12.6668   19.0492 C   0  0  2  0  0  0  0  0  0  0  0  0
  -25.7325  -24.7209   18.6128 C   0  0  0  0  0  0  0  0  0  1  0  0
  -17.9463  -28.5323   21.8475 C   0  0  0  0  0  0  0  0  0  0  0  0
  -23.6780  -27.5255   25.0106 C   0  0  0  0  0  0  0  0  0  0  0  0
  -21.3145  -26.8223   24.5775 C   0  0  0  0  0  0  0  0  0  0  0  0
  -21.7864  -29.0672   25.5575 C   0  0  0  0  0  0  0  0  0  0  0  0
  -19.8925  -30.2948   19.0939 C   0  0  0  0  0  0  0  0  0  0  0  0
  -22.3161  -28.6416   23.1223 C   0  0  1  0  0  0  0  0  0  0  0  0
  -19.0901  -29.3443   21.2599 C   0  0  2  0  0  0  0  0  0  0  0  0
  -22.2924  -28.0162   24.5456 C   0  0  0  0  0  0  0  0  0  0  0  0
  -26.0777  -11.4184   20.0157 N   0  0  0  0  0  0  0  0  0  0  0  0
  -26.7848  -11.7315   18.9166 N   0  0  0  0  0  0  0  0  0  0  0  0
  -26.4568  -21.9449   18.9299 N   0  0  0  0  0  0  0  0  0  0  0  0
  -24.5953  -29.5008   22.6654 N   0  0  0  0  0  0  0  0  0  0  0  0
  -28.9363  -14.5939   20.2438 N   0  0  0  0  0  0  0  0  0  0  0  0
  -26.9159  -11.3494   16.5826 N   0  0  0  0  0  0  0  0  0  0  0  0
  -23.3492   -8.8826   17.8436 N   0  0  0  0  0  0  0  0  0  0  0  0
  -27.6879  -16.5415   19.7847 N   0  0  0  0  0  0  0  0  0  0  0  0
  -25.6265  -32.2947   24.2233 N   0  0  0  0  0  0  0  0  0  0  0  0
  -21.0227  -29.1396   22.6668 N   0  0  0  0  0  0  0  0  0  0  0  0
  -18.8548  -29.4968   19.7962 N   0  3  0  0  0  0  0  0  0  0  0  0
  -24.6553   -9.4910   16.0597 O   0  0  0  0  0  0  0  0  0  0  0  0
  -26.5479  -30.1870   24.5855 O   0  0  0  0  0  0  0  0  0  0  0  0
  -22.8671  -30.9427   23.2532 O   0  0  0  0  0  0  0  0  0  0  0  0
  -20.8997  -27.8229   20.7620 O   0  0  0  0  0  0  0  0  0  0  0  0
  -29.9720  -16.6593   20.1731 O   0  0  0  0  0  0  0  0  0  0  0  0
  -21.3343   -8.4090   23.0150 O   0  0  0  0  0  0  0  0  0  0  0  0
  -25.9830  -25.9989   18.0404 O   0  0  0  0  0  0  0  0  0  1  0  0
  -21.8831   -3.0984   24.3934 F   0  0  0  0  0  0  0  0  0  0  0  0
  -29.0502  -21.1347   19.5115 F   0  0  0  0  0  0  0  0  0  0  0  0
  -21.6626   -7.6554   25.6545 F   0  0  0  0  0  0  0  0  0  0  0  0
  1  2  1  0  0  0  0
  1  5  2  0  0  0  0
  2  6  2  0  0  0  0
  3 10  2  0  0  0  0
  3 18  1  0  0  0  0
  4 11  1  0  0  0  0
  4 18  2  0  0  0  0
  5 20  1  0  0  0  0
  6 22  1  0  0  0  0
  7 12  2  0  0  0  0
  7 21  1  0  0  0  0
  8  9  2  0  0  0  0
  8 24  1  0  0  0  0
  9 25  1  0  0  0  0
 10 26  1  0  0  0  0
 11 26  2  0  0  0  0
 12 27  1  0  0  0  0
 13 14  2  0  0  0  0
 13 28  1  0  0  0  0
 14 29  1  0  0  0  0
 15 23  1  0  0  0  0
 15 27  2  0  0  0  0
 16 25  2  0  0  0  0
 16 30  1  0  0  0  0
 17 29  2  0  0  0  0
 17 31  1  0  0  0  0
 18 32  1  0  0  0  0
 19 32  1  0  0  0  0
 19 33  2  0  0  0  0
 19 34  1  0  0  0  0
 20 22  2  0  0  0  0
 20 39  1  0  0  0  0
 21 23  2  0  0  0  0
 21 40  1  0  0  0  0
 22 52  1  0  0  0  0
 23 41  1  0  0  0  0
 24 30  2  0  0  0  0
 24 66  1  0  0  0  0
 25 71  1  0  0  0  0
 26 80  1  0  0  0  0
 27 81  1  0  0  0  0
 28 31  2  0  0  0  0
 28 80  1  0  0  0  0
 29 82  1  0  0  0  0
 30 83  1  0  0  0  0
 31 84  1  0  0  0  0
 32 64  2  0  0  0  0
 33 65  1  0  0  0  0
 33 69  1  0  0  0  0
 34 70  1  0  0  0  0
 34 75  2  0  0  0  0
 35 53  1  0  0  0  0
 35 72  1  0  0  0  0
 35 76  2  0  0  0  0
 36 61  1  0  0  0  0
 36 67  1  0  0  0  0
 36 77  2  0  0  0  0
 37 62  1  0  0  0  0
 37 73  1  0  0  0  0
 37 78  2  0  0  0  0
 38 68  1  0  0  0  0
 38 71  1  0  0  0  0
 38 79  2  0  0  0  0
 39 42  1  0  0  0  0
 40 53  1  0  0  0  0
 41 67  1  0  0  0  0
 42 44  1  0  0  0  0
 43 45  1  0  0  0  0
 43 48  1  0  0  0  0
 44 52  1  0  0  0  0
 45 54  1  0  0  0  0
 46 49  1  0  0  0  0
 46 55  1  0  0  0  0
 47 50  1  0  0  0  0
 47 55  1  0  0  0  0
 48 68  1  0  0  0  0
 49 66  1  0  0  0  0
 50 66  1  0  0  0  0
 51 54  1  0  0  0  0
 51 68  1  0  0  0  0
 52 72  1  0  0  0  0
 53 67  1  0  0  0  0
 54 65  1  0  0  0  0
 55 81  1  0  0  0  0
 56 62  1  0  0  0  0
 57 63  1  0  0  0  0
 58 63  1  0  0  0  0
 59 63  1  0  0  0  0
 60 74  1  0  0  0  0
 61 63  1  0  0  0  0
 61 73  1  0  0  0  0
 62 74  1  0  0  0  0
 64 65  1  0  0  0  0
M  CHG  1  74   1
M  ISO  4  38 100  55 101  71 100  81 101
M  END
> <Batch ID>
0016

> <Smiles>
CNC(C)C(=O)NC(C(=O)N1Cc2cc([101O:1][101CH:1]3CCN(c4ccc([100NH:0][100C:0](=O)N5CCCC(n6nc(-c7ccc(Oc8ccc(F)cc8F)cc7)c(C(N)=O)c6N)C5)cc4F)CC3)ccc2CC1C(=O)NC1CCCc2ccccc21)C(C)(C)C

> <Shape>
0.316

> <Color>
0.105

> <Negative vol penalty>
0.000

$$$$

  -OEChem-04042320573D

 89 98  0     1  0  0  0  0  0999 V2000
  -21.5284  -26.9582   20.1534 C   0  0  0  0  0  0  0  0  0  0  0  0
  -22.5382  -26.1745   20.7025 C   0  0  0  0  0  0  0  0  0  0  0  0
  -22.6401  -10.2298   20.2129 C   0  0  0  0  0  0  0  0  0  0  0  0
  -24.1949   -9.5173   21.9193 C   0  0  0  0  0  0  0  0  0  0  0  0
  -21.8537  -28.0417   19.3385 C   0  0  0  0  0  0  0  0  0  0  0  0
  -23.8740  -26.4731   20.4360 C   0  0  0  0  0  0  0  0  0  0  0  0
  -26.7726  -26.2805   24.5840 C   0  0  0  0  0  0  0  0  0  0  0  0
  -21.8656   -9.0930   20.4438 C   0  0  0  0  0  0  0  0  0  0  0  0
  -23.4203   -8.3804   22.1503 C   0  0  0  0  0  0  0  0  0  0  0  0
  -27.1527  -25.0179   25.0370 C   0  0  0  0  0  0  0  0  0  0  0  0
  -19.5895   -8.0490   22.7159 C   0  0  0  0  0  0  0  0  0  0  0  0
  -18.2077   -8.2141   22.8096 C   0  0  0  0  0  0  0  0  0  0  0  0
  -29.3091  -25.2993   23.9930 C   0  0  0  0  0  0  0  0  0  0  0  0
  -28.5868  -20.2221   25.4243 C   0  0  0  0  0  0  0  0  0  0  0  0
  -29.5677  -18.8167   27.1271 C   0  0  0  0  0  0  0  0  0  0  0  0
  -28.8601  -21.0612   27.6734 C   0  0  0  0  0  0  0  0  0  0  0  0
  -17.9025   -6.7263   20.9306 C   0  0  0  0  0  0  0  0  0  0  0  0
  -23.8048  -10.4419   20.9506 C   0  0  0  0  0  0  0  0  0  0  0  0
  -24.2054  -12.9590   20.8437 C   0  0  0  0  0  0  0  0  0  0  0  0
  -23.1944  -28.3596   19.0697 C   0  0  0  0  0  0  0  0  0  0  0  0
  -27.6554  -27.0587   23.8216 C   0  0  0  0  0  0  0  0  0  0  0  0
  -24.2175  -27.5611   19.6156 C   0  0  0  0  0  0  0  0  0  0  0  0
  -28.9387  -26.5725   23.5337 C   0  0  0  0  0  0  0  0  0  0  0  0
  -29.1497  -19.0055   25.8098 C   0  0  0  0  0  0  0  0  0  0  0  0
  -28.4421  -21.2500   26.3561 C   0  0  0  0  0  0  0  0  0  0  0  0
  -22.2557   -8.1683   21.4125 C   0  0  0  0  0  0  0  0  0  0  0  0
  -28.4201  -24.5260   24.7391 C   0  0  0  0  0  0  0  0  0  0  0  0
  -20.1279   -7.2226   21.7295 C   0  0  0  0  0  0  0  0  0  0  0  0
  -17.3641   -7.5528   21.9169 C   0  0  0  0  0  0  0  0  0  0  0  0
  -29.4229  -19.8446   28.0589 C   0  0  0  0  0  0  0  0  0  0  0  0
  -19.2844   -6.5612   20.8369 C   0  0  0  0  0  0  0  0  0  0  0  0
  -24.6056  -11.6158   20.7121 C   0  0  0  0  0  0  0  0  0  0  0  0
  -25.3215  -13.6846   20.5056 C   0  0  0  0  0  0  0  0  0  0  0  0
  -30.9093  -16.4267   23.7441 C   0  0  0  0  0  0  0  0  0  0  0  0
  -30.9491  -14.2746   26.7197 C   0  0  0  0  0  0  0  0  0  0  0  0
  -31.0239  -15.3395   24.5177 C   0  0  0  0  0  0  0  0  0  0  0  0
  -30.8346  -15.3609   25.9475 C   0  0  0  0  0  0  0  0  0  0  0  0
  -22.9380  -13.5024   21.2364 C   0  0  0  0  0  0  0  0  0  0  0  0
  -27.6204  -28.2554   20.8770 C   0  0  0  0  0  0  0  0  0  0  0  0
  -30.3559  -29.7012   21.8512 C   0  0  0  0  0  0  0  0  0  0  0  0
  -33.0352  -29.7078   23.9650 C   0  0  0  0  0  0  0  0  0  0  0  0
  -30.7312  -14.6423   20.6688 C   0  0  0  0  0  0  0  0  0  0  0  0
  -23.4958  -29.5121   18.1446 C   0  0  0  0  0  0  0  0  0  0  0  0
  -27.2397  -28.4296   23.3631 C   0  0  0  0  0  0  0  0  0  0  0  0
  -29.9310  -27.3769   22.7359 C   0  0  0  0  0  0  0  0  0  0  0  0
  -24.9448  -29.9870   18.2153 C   0  0  0  0  0  0  0  0  0  0  0  0
  -29.6761  -12.2524   18.3883 C   0  0  0  0  0  0  0  0  0  0  0  0
  -25.8991  -28.7978   18.1705 C   0  0  0  0  0  0  0  0  0  0  0  0
  -28.2292  -11.9723   18.7923 C   0  0  0  0  0  0  0  0  0  0  0  0
  -30.7711  -17.9572   21.9639 C   0  0  0  0  0  0  0  0  0  0  0  0
  -30.5640  -12.4079   19.6171 C   0  0  0  0  0  0  0  0  0  0  0  0
  -28.6574  -13.2100   20.9744 C   0  0  0  0  0  0  0  0  0  0  0  0
  -31.1320  -18.6827   23.2511 C   0  0  0  0  0  0  0  0  0  0  0  0
  -25.6788  -27.8682   19.3700 C   0  0  1  0  0  0  0  0  0  0  0  0
  -31.0886  -16.4945   22.2560 C   0  0  2  0  0  0  0  0  0  0  0  0
  -28.0343  -28.9231   22.1578 C   0  0  1  0  0  0  0  0  0  0  0  0
  -27.7118  -13.0446   19.7670 C   0  0  2  0  0  0  0  0  0  0  0  0
  -35.1221  -30.9962   24.4960 C   0  0  0  0  0  0  0  0  0  0  0  0
  -31.7120  -28.5149   19.3887 C   0  0  0  0  0  0  0  0  0  0  0  0
  -33.9230  -29.0154   20.4513 C   0  0  0  0  0  0  0  0  0  0  0  0
  -32.3570  -30.8767   19.8987 C   0  0  0  0  0  0  0  0  0  0  0  0
  -28.8182  -15.5504   22.0547 C   0  0  0  0  0  0  0  0  0  0  0  0
  -32.1130  -30.2928   26.7157 C   0  0  0  0  0  0  0  0  0  0  0  0
  -29.3051  -17.9067   24.8135 C   0  0  0  0  0  0  0  0  0  0  0  0
  -27.8368  -22.5589   25.9417 C   0  0  0  0  0  0  0  0  0  1  0  0
  -31.8214  -29.3393   21.8330 C   0  0  1  0  0  0  0  0  0  0  0  0
  -33.6466  -30.8086   24.8128 C   0  0  2  0  0  0  0  0  0  0  0  0
  -32.4342  -29.4204   20.4063 C   0  0  0  0  0  0  0  0  0  0  0  0
  -25.8767  -11.4925   20.3208 N   0  0  0  0  0  0  0  0  0  0  0  0
  -26.2848  -12.7675   20.2035 N   0  0  0  0  0  0  0  0  0  0  0  0
  -29.4753  -28.7088   22.3047 N   0  0  0  0  0  0  0  0  0  0  0  0
  -30.0400  -13.4304   20.5231 N   0  0  0  0  0  0  0  0  0  0  0  0
  -25.5631  -15.0111   20.4401 N   0  0  0  0  0  0  0  0  0  0  0  0
  -22.7091  -13.7480   22.5972 N   0  0  0  0  0  0  0  0  0  0  0  0
  -26.2863  -28.4253   20.5595 N   0  0  0  0  0  0  0  0  0  0  0  0
  -32.4683  -30.2069   22.8114 N   0  0  0  0  0  0  0  0  0  0  0  0
  -30.1918  -15.5859   21.5561 N   0  0  0  0  0  0  0  0  0  0  0  0
  -30.7212  -17.7186   24.3495 N   0  3  1  0  0  0  0  0  0  0  0  0
  -33.5146  -30.4811   26.2606 N   0  3  0  0  0  0  0  0  0  0  0  0
  -22.0292  -13.7470   20.4071 O   0  0  0  0  0  0  0  0  0  0  0  0
  -28.4503  -27.6334   20.2243 O   0  0  0  0  0  0  0  0  0  0  0  0
  -30.0060  -30.8255   21.4834 O   0  0  0  0  0  0  0  0  0  0  0  0
  -33.0614  -28.5232   24.2914 O   0  0  0  0  0  0  0  0  0  0  0  0
  -31.7774  -14.8673   20.0467 O   0  0  0  0  0  0  0  0  0  0  0  0
  -21.5000   -7.0590   21.6383 O   0  0  0  0  0  0  0  0  0  0  0  0
  -28.7936  -23.2937   25.1795 O   0  0  0  0  0  0  0  0  0  1  0  0
  -16.0371   -7.7102   22.0080 F   0  0  0  0  0  0  0  0  0  0  0  0
  -29.8253  -19.6634   29.3235 F   0  0  0  0  0  0  0  0  0  0  0  0
  -19.7957   -5.7650   19.8880 F   0  0  0  0  0  0  0  0  0  0  0  0
  1  2  1  0  0  0  0
  1  5  2  0  0  0  0
  2  6  2  0  0  0  0
  3  8  2  0  0  0  0
  3 18  1  0  0  0  0
  4  9  1  0  0  0  0
  4 18  2  0  0  0  0
  5 20  1  0  0  0  0
  6 22  1  0  0  0  0
  7 10  2  0  0  0  0
  7 21  1  0  0  0  0
  8 26  1  0  0  0  0
  9 26  2  0  0  0  0
 10 27  1  0  0  0  0
 11 12  2  0  0  0  0
 11 28  1  0  0  0  0
 12 29  1  0  0  0  0
 13 23  1  0  0  0  0
 13 27  2  0  0  0  0
 14 24  2  0  0  0  0
 14 25  1  0  0  0  0
 15 24  1  0  0  0  0
 15 30  2  0  0  0  0
 16 25  2  0  0  0  0
 16 30  1  0  0  0  0
 17 29  2  0  0  0  0
 17 31  1  0  0  0  0
 18 32  1  0  0  0  0
 19 32  1  0  0  0  0
 19 33  2  0  0  0  0
 19 38  1  0  0  0  0
 20 22  2  0  0  0  0
 20 43  1  0  0  0  0
 21 23  2  0  0  0  0
 21 44  1  0  0  0  0
 22 54  1  0  0  0  0
 23 45  1  0  0  0  0
 24 64  1  0  0  0  0
 25 65  1  0  0  0  0
 26 85  1  0  0  0  0
 27 86  1  0  0  0  0
 28 31  2  0  0  0  0
 28 85  1  0  0  0  0
 29 87  1  0  0  0  0
 30 88  1  0  0  0  0
 31 89  1  0  0  0  0
 32 69  2  0  0  0  0
 33 70  1  0  0  0  0
 33 73  1  0  0  0  0
 34 36  2  0  0  0  0
 34 55  1  0  0  0  0
 34 78  1  0  0  0  0
 35 37  2  0  0  0  0
 36 37  1  0  0  0  0
 38 74  1  0  0  0  0
 38 80  2  0  0  0  0
 39 56  1  0  0  0  0
 39 75  1  0  0  0  0
 39 81  2  0  0  0  0
 40 66  1  0  0  0  0
 40 71  1  0  0  0  0
 40 82  2  0  0  0  0
 41 67  1  0  0  0  0
 41 76  1  0  0  0  0
 41 83  2  0  0  0  0
 42 72  1  0  0  0  0
 42 77  1  0  0  0  0
 42 84  2  0  0  0  0
 43 46  1  0  0  0  0
 44 56  1  0  0  0  0
 45 71  1  0  0  0  0
 46 48  1  0  0  0  0
 47 49  1  0  0  0  0
 47 51  1  0  0  0  0
 48 54  1  0  0  0  0
 49 57  1  0  0  0  0
 50 53  1  0  0  0  0
 50 55  1  0  0  0  0
 51 72  1  0  0  0  0
 52 57  1  0  0  0  0
 52 72  1  0  0  0  0
 53 78  1  0  0  0  0
 54 75  1  0  0  0  0
 55 77  1  0  0  0  0
 56 71  1  0  0  0  0
 57 70  1  0  0  0  0
 58 67  1  0  0  0  0
 59 68  1  0  0  0  0
 60 68  1  0  0  0  0
 61 68  1  0  0  0  0
 62 77  1  0  0  0  0
 63 79  1  0  0  0  0
 64 78  1  0  0  0  0
 65 86  1  0  0  0  0
 66 68  1  0  0  0  0
 66 76  1  0  0  0  0
 67 79  1  0  0  0  0
 69 70  1  0  0  0  0
M  CHG  2  78   1  79   1
M  ISO  4  42 100  65 101  77 100  86 101
M  END
> <Batch ID>
0016

> <Smiles>
C=CC=C1C([100N:0](C)[100C:0](=O)N2CCCC(n3nc(-c4ccc(Oc5ccc(F)cc5F)cc4)c(C(N)=O)c3N)C2)CCN1Cc1cc(F)cc([101CH2:1][101O:1]c2ccc3c(c2)CN(C(=O)C(NC(=O)C(C)NC)C(C)(C)C)C(C(=O)NC2CCCc4ccccc42)C3)c1

> <Shape>
0.207

> <Color>
0.179

> <Negative vol penalty>
0.000

$$$$
