
  -OEChem-04042321003D

 83 91  0     1  0  0  0  0  0999 V2000
  -29.8956  -11.4048   19.3779 C   0  0  0  0  0  0  0  0  0  0  0  0
  -30.2276  -12.6821   18.9378 C   0  0  0  0  0  0  0  0  0  0  0  0
  -22.7236  -28.0434   22.1280 C   0  0  0  0  0  0  0  0  0  0  0  0
  -22.3014  -27.8511   19.7569 C   0  0  0  0  0  0  0  0  0  0  0  0
  -28.6732  -11.1825   20.0105 C   0  0  0  0  0  0  0  0  0  0  0  0
  -29.3368  -13.7377   19.1291 C   0  0  0  0  0  0  0  0  0  0  0  0
  -30.7494  -19.5811   20.2977 C   0  0  0  0  0  0  0  0  0  0  0  0
  -31.3848  -30.0731   19.4132 C   0  0  0  0  0  0  0  0  0  0  0  0
  -31.5351  -28.3040   21.0518 C   0  0  0  0  0  0  0  0  0  0  0  0
  -31.6228  -29.1501   18.3948 C   0  0  0  0  0  0  0  0  0  0  0  0
  -31.7731  -27.3810   20.0334 C   0  0  0  0  0  0  0  0  0  0  0  0
  -21.3538  -27.9637   22.3784 C   0  0  0  0  0  0  0  0  0  0  0  0
  -20.9315  -27.7713   20.0074 C   0  0  0  0  0  0  0  0  0  0  0  0
  -30.8330  -20.7074   19.4802 C   0  0  0  0  0  0  0  0  0  0  0  0
  -17.9410  -28.1721   23.6165 C   0  0  0  0  0  0  0  0  0  0  0  0
  -17.3939  -29.0722   24.5309 C   0  0  0  0  0  0  0  0  0  0  0  0
  -28.5830  -21.3172   20.1003 C   0  0  0  0  0  0  0  0  0  0  0  0
  -18.1227  -30.9168   23.1513 C   0  0  0  0  0  0  0  0  0  0  0  0
  -23.1975  -27.9872   20.8172 C   0  0  0  0  0  0  0  0  0  0  0  0
  -25.5266  -27.0023   20.4814 C   0  0  0  0  0  0  0  0  0  0  0  0
  -27.7711  -12.2378   20.2183 C   0  0  0  0  0  0  0  0  0  0  0  0
  -29.5760  -19.3080   21.0153 C   0  0  0  0  0  0  0  0  0  0  0  0
  -28.1006  -13.5290   19.7640 C   0  0  0  0  0  0  0  0  0  0  0  0
  -28.4878  -20.1881   20.9282 C   0  0  0  0  0  0  0  0  0  0  0  0
  -31.3410  -29.6501   20.7417 C   0  0  0  0  0  0  0  0  0  0  0  0
  -31.8169  -27.8041   18.7049 C   0  0  0  0  0  0  0  0  0  0  0  0
  -20.4577  -27.8276   21.3182 C   0  0  0  0  0  0  0  0  0  0  0  0
  -29.7487  -21.5741   19.3792 C   0  0  0  0  0  0  0  0  0  0  0  0
  -18.5790  -28.6444   22.4695 C   0  0  0  0  0  0  0  0  0  0  0  0
  -17.4847  -30.4445   24.2983 C   0  0  0  0  0  0  0  0  0  0  0  0
  -18.6698  -30.0167   22.2369 C   0  0  0  0  0  0  0  0  0  0  0  0
  -24.6124  -28.0701   20.5578 C   0  0  0  0  0  0  0  0  0  0  0  0
  -26.7336  -27.6020   20.2170 C   0  0  0  0  0  0  0  0  0  0  0  0
  -25.3046  -25.5942   20.6356 C   0  0  0  0  0  0  0  0  0  0  0  0
  -27.4561  -16.9395   21.0312 C   0  0  0  0  0  0  0  0  0  0  0  0
  -26.2437  -18.5627   23.5645 C   0  0  0  0  0  0  0  0  0  0  0  0
  -25.9153  -21.5319   25.2147 C   0  0  0  0  0  0  0  0  0  0  0  0
  -30.3237  -31.7687   21.6179 C   0  0  0  0  0  0  0  0  0  0  0  0
  -26.4415  -11.9395   20.8647 C   0  0  0  0  0  0  0  0  0  0  0  0
  -29.5112  -18.1033   21.9135 C   0  0  0  0  0  0  0  0  0  0  0  0
  -27.2127  -19.9509   21.6938 C   0  0  0  0  0  0  0  0  0  0  0  0
  -25.7139  -13.1851   21.3640 C   0  0  0  0  0  0  0  0  0  0  0  0
  -27.8806  -32.3358   18.8971 C   0  0  0  0  0  0  0  0  0  0  0  0
  -25.7347  -14.2780   20.3000 C   0  0  0  0  0  0  0  0  0  0  0  0
  -26.8452  -31.2385   19.1367 C   0  0  0  0  0  0  0  0  0  0  0  0
  -28.5629  -32.7634   20.1930 C   0  0  0  0  0  0  0  0  0  0  0  0
  -28.1479  -30.5291   21.1815 C   0  0  0  0  0  0  0  0  0  0  0  0
  -27.1714  -14.7046   19.9754 C   0  0  1  0  0  0  0  0  0  0  0  0
  -28.0838  -17.6468   22.1989 C   0  0  1  0  0  0  0  0  0  0  0  0
  -27.4752  -30.0525   19.8855 C   0  0  1  0  0  0  0  0  0  0  0  0
  -24.8344  -22.5532   27.2360 C   0  0  0  0  0  0  0  0  0  0  0  0
  -23.5467  -18.5251   22.1383 C   0  0  0  0  0  0  0  0  0  0  0  0
  -22.7758  -20.3263   23.6970 C   0  0  0  0  0  0  0  0  0  0  0  0
  -23.4314  -18.0950   24.5992 C   0  0  0  0  0  0  0  0  0  0  0  0
  -31.8914  -30.4961   23.0158 C   0  0  0  0  0  0  0  0  0  0  0  0
  -32.1002  -27.3220   16.2868 C   0  0  0  0  0  0  0  0  0  0  0  0
  -28.5296  -22.3104   26.3629 C   0  0  0  0  0  0  0  0  0  0  0  0
  -30.9471  -24.7518   18.1485 C   0  0  0  0  0  0  0  0  0  0  0  0
  -32.2739  -25.4790   17.9665 C   0  0  0  0  0  0  0  0  0  0  0  0
  -31.1172  -23.2597   18.4086 C   0  0  0  0  0  0  0  0  0  1  0  0
  -25.2222  -19.6601   23.7415 C   0  0  1  0  0  0  0  0  0  0  0  0
  -26.0870  -21.8951   26.6786 C   0  0  2  0  0  0  0  0  0  0  0  0
  -23.7672  -19.1554   23.5279 C   0  0  0  0  0  0  0  0  0  0  0  0
  -25.1892  -29.2581   20.3582 N   0  0  0  0  0  0  0  0  0  0  0  0
  -26.4790  -28.9404   20.1539 N   0  0  0  0  0  0  0  0  0  0  0  0
  -27.1960  -18.7560   22.5537 N   0  0  0  0  0  0  0  0  0  0  0  0
  -29.1052  -31.6175   20.9247 N   0  0  0  0  0  0  0  0  0  0  0  0
  -27.9773  -27.1097   20.0347 N   0  0  0  0  0  0  0  0  0  0  0  0
  -24.0033  -25.1485   20.9043 N   0  0  0  0  0  0  0  0  0  0  0  0
  -27.6854  -15.5770   21.0094 N   0  0  0  0  0  0  0  0  0  0  0  0
  -25.4672  -20.2373   25.0588 N   0  0  0  0  0  0  0  0  0  0  0  0
  -31.0964  -30.6051   21.7947 N   0  0  0  0  0  0  0  0  0  0  0  0
  -32.0554  -26.8764   17.6807 N   0  0  3  0  0  0  0  0  0  0  0  0
  -27.2284  -22.8382   26.8479 N   0  3  0  0  0  0  0  0  0  0  0  0
  -26.2356  -24.7575   20.5543 O   0  0  0  0  0  0  0  0  0  0  0  0
  -26.8104  -17.5822   20.2116 O   0  0  0  0  0  0  0  0  0  0  0  0
  -26.2028  -17.5740   24.3009 O   0  0  0  0  0  0  0  0  0  0  0  0
  -26.1514  -22.3193   24.3009 O   0  0  0  0  0  0  0  0  0  0  0  0
  -30.6742  -32.8547   22.0959 O   0  0  0  0  0  0  0  0  0  0  0  0
  -19.1210  -27.7495   21.5622 O   0  0  0  0  0  0  0  0  0  0  0  0
  -29.8275  -22.6738   18.5815 O   0  0  0  0  0  0  0  0  0  1  0  0
  -16.9579  -31.3086   25.1758 F   0  0  0  0  0  0  0  0  0  0  0  0
  -19.2805  -30.4764   21.1362 F   0  0  0  0  0  0  0  0  0  0  0  0
  1  2  1  0  0  0  0
  1  5  2  0  0  0  0
  2  6  2  0  0  0  0
  3 12  2  0  0  0  0
  3 19  1  0  0  0  0
  4 13  1  0  0  0  0
  4 19  2  0  0  0  0
  5 21  1  0  0  0  0
  6 23  1  0  0  0  0
  7 14  2  0  0  0  0
  7 22  1  0  0  0  0
  8 10  2  0  0  0  0
  8 25  1  0  0  0  0
  9 11  1  0  0  0  0
  9 25  2  0  0  0  0
 10 26  1  0  0  0  0
 11 26  2  0  0  0  0
 12 27  1  0  0  0  0
 13 27  2  0  0  0  0
 14 28  1  0  0  0  0
 15 16  2  0  0  0  0
 15 29  1  0  0  0  0
 16 30  1  0  0  0  0
 17 24  1  0  0  0  0
 17 28  2  0  0  0  0
 18 30  2  0  0  0  0
 18 31  1  0  0  0  0
 19 32  1  0  0  0  0
 20 32  1  0  0  0  0
 20 33  2  0  0  0  0
 20 34  1  0  0  0  0
 21 23  2  0  0  0  0
 21 39  1  0  0  0  0
 22 24  2  0  0  0  0
 22 40  1  0  0  0  0
 23 48  1  0  0  0  0
 24 41  1  0  0  0  0
 25 72  1  0  0  0  0
 26 73  1  0  0  0  0
 27 80  1  0  0  0  0
 28 81  1  0  0  0  0
 29 31  2  0  0  0  0
 29 80  1  0  0  0  0
 30 82  1  0  0  0  0
 31 83  1  0  0  0  0
 32 64  2  0  0  0  0
 33 65  1  0  0  0  0
 33 68  1  0  0  0  0
 34 69  1  0  0  0  0
 34 75  2  0  0  0  0
 35 49  1  0  0  0  0
 35 70  1  0  0  0  0
 35 76  2  0  0  0  0
 36 61  1  0  0  0  0
 36 66  1  0  0  0  0
 36 77  2  0  0  0  0
 37 62  1  0  0  0  0
 37 71  1  0  0  0  0
 37 78  2  0  0  0  0
 38 67  1  0  0  0  0
 38 72  1  0  0  0  0
 38 79  2  0  0  0  0
 39 42  1  0  0  0  0
 40 49  1  0  0  0  0
 41 66  1  0  0  0  0
 42 44  1  0  0  0  0
 43 45  1  0  0  0  0
 43 46  1  0  0  0  0
 44 48  1  0  0  0  0
 45 50  1  0  0  0  0
 46 67  1  0  0  0  0
 47 50  1  0  0  0  0
 47 67  1  0  0  0  0
 48 70  1  0  0  0  0
 49 66  1  0  0  0  0
 50 65  1  0  0  0  0
 51 62  1  0  0  0  0
 52 63  1  0  0  0  0
 53 63  1  0  0  0  0
 54 63  1  0  0  0  0
 55 72  1  0  0  0  0
 56 73  1  0  0  0  0
 57 74  1  0  0  0  0
 58 59  1  0  0  0  0
 58 60  1  0  0  0  0
 59 73  1  0  0  0  0
 60 81  1  0  0  0  0
 61 63  1  0  0  0  0
 61 71  1  0  0  0  0
 62 74  1  0  0  0  0
 64 65  1  0  0  0  0
M  CHG  1  74   1
M  ISO  4  38 100  60 101  72 100  81 101
M  END
> <Batch ID>
0017

> <Smiles>
CNC(C)C(=O)NC(C(=O)N1Cc2cc([101O:1][101CH2:1]CCN(C)c3ccc([100N:0](C)[100C:0](=O)N4CCCC(n5nc(-c6ccc(Oc7ccc(F)cc7F)cc6)c(C(N)=O)c5N)C4)cc3)ccc2CC1C(=O)NC1CCCc2ccccc21)C(C)(C)C

> <Shape>
0.220

> <Color>
0.079

> <Negative vol penalty>
0.000

$$$$

  -OEChem-04042321003D

 79 87  0     1  0  0  0  0  0999 V2000
  -29.6971   -3.6489   24.9201 C   0  0  0  0  0  0  0  0  0  0  0  0
  -30.0966   -4.9753   25.0482 C   0  0  0  0  0  0  0  0  0  0  0  0
  -22.8517  -10.1111   20.1202 C   0  0  0  0  0  0  0  0  0  0  0  0
  -24.3443   -9.5508   21.9355 C   0  0  0  0  0  0  0  0  0  0  0  0
  -28.3894   -3.2823   25.2355 C   0  0  0  0  0  0  0  0  0  0  0  0
  -29.1882   -5.9362   25.4907 C   0  0  0  0  0  0  0  0  0  0  0  0
  -31.1793   -9.0389   28.9626 C   0  0  0  0  0  0  0  0  0  0  0  0
  -22.1646   -8.9131   20.3153 C   0  0  0  0  0  0  0  0  0  0  0  0
  -23.6571   -8.3527   22.1306 C   0  0  0  0  0  0  0  0  0  0  0  0
  -32.0179  -10.0536   28.5035 C   0  0  0  0  0  0  0  0  0  0  0  0
  -20.7814   -7.3416   23.5897 C   0  0  0  0  0  0  0  0  0  0  0  0
  -20.4663   -6.9830   24.9003 C   0  0  0  0  0  0  0  0  0  0  0  0
  -30.1984  -11.6279   28.6776 C   0  0  0  0  0  0  0  0  0  0  0  0
  -21.7570   -4.9553   24.6558 C   0  0  0  0  0  0  0  0  0  0  0  0
  -23.9416  -10.4300   20.9303 C   0  0  0  0  0  0  0  0  0  0  0  0
  -24.1294  -12.9715   20.8148 C   0  0  0  0  0  0  0  0  0  0  0  0
  -27.4672   -4.2375   25.6913 C   0  0  0  0  0  0  0  0  0  0  0  0
  -29.8387   -9.3092   29.2728 C   0  0  0  0  0  0  0  0  0  0  0  0
  -27.8665   -5.5823   25.8112 C   0  0  0  0  0  0  0  0  0  0  0  0
  -29.3455  -10.6154   29.1428 C   0  0  0  0  0  0  0  0  0  0  0  0
  -22.5673   -8.0339   21.3205 C   0  0  0  0  0  0  0  0  0  0  0  0
  -31.5268  -11.3477   28.3582 C   0  0  0  0  0  0  0  0  0  0  0  0
  -21.5843   -6.5070   22.8121 C   0  0  0  0  0  0  0  0  0  0  0  0
  -20.9541   -5.7899   25.4334 C   0  0  0  0  0  0  0  0  0  0  0  0
  -22.0721   -5.3139   23.3452 C   0  0  0  0  0  0  0  0  0  0  0  0
  -24.6522  -11.6672   20.7289 C   0  0  0  0  0  0  0  0  0  0  0  0
  -25.1988  -13.7887   20.5412 C   0  0  0  0  0  0  0  0  0  0  0  0
  -22.7963  -13.4054   21.1153 C   0  0  0  0  0  0  0  0  0  0  0  0
  -27.0336   -8.3086   28.1621 C   0  0  0  0  0  0  0  0  0  0  0  0
  -25.8712  -10.0508   30.6392 C   0  0  0  0  0  0  0  0  0  0  0  0
  -26.5629  -13.2466   32.1644 C   0  0  0  0  0  0  0  0  0  0  0  0
  -31.0381  -13.2332   21.0615 C   0  0  0  0  0  0  0  0  0  0  0  0
  -26.0514   -3.8020   25.9749 C   0  0  0  0  0  0  0  0  0  0  0  0
  -28.9541   -8.2092   29.7922 C   0  0  0  0  0  0  0  0  0  0  0  0
  -27.9195  -10.9620   29.4816 C   0  0  0  0  0  0  0  0  0  0  0  0
  -25.2554   -4.8144   26.7946 C   0  0  0  0  0  0  0  0  0  0  0  0
  -29.3172  -13.9002   18.1256 C   0  0  0  0  0  0  0  0  0  0  0  0
  -25.4465   -6.2212   26.2369 C   0  0  0  0  0  0  0  0  0  0  0  0
  -32.1519  -15.1075   25.3445 C   0  0  0  0  0  0  0  0  0  0  0  0
  -33.3239  -12.8695   25.2699 C   0  0  0  0  0  0  0  0  0  0  0  0
  -27.8716  -13.5303   18.4549 C   0  0  0  0  0  0  0  0  0  0  0  0
  -31.1548  -14.6228   24.2916 C   0  0  0  0  0  0  0  0  0  0  0  0
  -32.3293  -12.3812   24.2163 C   0  0  0  0  0  0  0  0  0  0  0  0
  -30.2878  -12.8913   18.7277 C   0  0  0  0  0  0  0  0  0  0  0  0
  -28.7072  -12.3631   20.5563 C   0  0  0  0  0  0  0  0  0  0  0  0
  -26.9171   -6.6492   26.3117 C   0  0  1  0  0  0  0  0  0  0  0  0
  -27.4686   -8.4906   29.5887 C   0  0  1  0  0  0  0  0  0  0  0  0
  -32.7499  -13.9657   26.1790 C   0  0  0  0  0  0  0  0  0  0  0  0
  -27.6796  -13.3536   19.9713 C   0  0  2  0  0  0  0  0  0  0  0  0
  -31.7669  -13.5435   23.3961 C   0  0  0  0  0  0  0  0  0  0  0  0
  -26.1985  -14.0454   34.5152 C   0  0  0  0  0  0  0  0  0  0  0  0
  -23.2207  -11.1096   29.5604 C   0  0  0  0  0  0  0  0  0  0  0  0
  -23.5156  -13.1275   31.0128 C   0  0  0  0  0  0  0  0  0  0  0  0
  -23.3123  -10.8670   32.0478 C   0  0  0  0  0  0  0  0  0  0  0  0
  -29.7557  -12.1790   22.9718 C   0  0  0  0  0  0  0  0  0  0  0  0
  -29.4031  -14.0224   32.4644 C   0  0  0  0  0  0  0  0  0  0  0  0
  -31.7333  -13.4001   27.1745 C   0  0  0  0  0  0  0  0  0  1  0  0
  -25.4387  -11.4849   30.8276 C   0  0  1  0  0  0  0  0  0  0  0  0
  -27.2033  -13.4872   33.5195 C   0  0  2  0  0  0  0  0  0  0  0  0
  -23.8917  -11.6401   30.8431 C   0  0  0  0  0  0  0  0  0  0  0  0
  -25.9525  -11.6519   20.4242 N   0  0  0  0  0  0  0  0  0  0  0  0
  -26.2559  -12.9567   20.3164 N   0  0  0  0  0  0  0  0  0  0  0  0
  -27.0922   -9.8506   29.9797 N   0  0  0  0  0  0  0  0  0  0  0  0
  -30.0737  -12.7447   20.1677 N   0  0  0  0  0  0  0  0  0  0  0  0
  -25.3287  -15.1307   20.4733 N   0  0  0  0  0  0  0  0  0  0  0  0
  -21.8192  -12.4339   21.3717 N   0  0  0  0  0  0  0  0  0  0  0  0
  -27.2615   -7.0409   27.6617 N   0  0  0  0  0  0  0  0  0  0  0  0
  -26.0985  -11.9541   32.0412 N   0  0  0  0  0  0  0  0  0  0  0  0
  -30.7894  -13.0601   22.4314 N   0  0  0  0  0  0  0  0  0  0  0  0
  -28.3296  -14.4553   33.3956 N   0  3  0  0  0  0  0  0  0  0  0  0
  -22.4772  -14.6183   21.1390 O   0  0  0  0  0  0  0  0  0  0  0  0
  -26.5271   -9.2484   27.5603 O   0  0  0  0  0  0  0  0  0  0  0  0
  -25.1557   -9.1421   31.0678 O   0  0  0  0  0  0  0  0  0  0  0  0
  -26.4793  -14.1190   31.3028 O   0  0  0  0  0  0  0  0  0  0  0  0
  -32.0692  -13.7872   20.6588 O   0  0  0  0  0  0  0  0  0  0  0  0
  -21.8969   -6.8648   21.5113 O   0  0  0  0  0  0  0  0  0  0  0  0
  -32.3431  -12.3399   27.9097 O   0  0  0  0  0  0  0  0  0  1  0  0
  -20.6527   -5.4465   26.6925 F   0  0  0  0  0  0  0  0  0  0  0  0
  -22.8448   -4.5086   22.6034 F   0  0  0  0  0  0  0  0  0  0  0  0
  1  2  1  0  0  0  0
  1  5  2  0  0  0  0
  2  6  2  0  0  0  0
  3  8  2  0  0  0  0
  3 15  1  0  0  0  0
  4  9  1  0  0  0  0
  4 15  2  0  0  0  0
  5 17  1  0  0  0  0
  6 19  1  0  0  0  0
  7 10  2  0  0  0  0
  7 18  1  0  0  0  0
  8 21  1  0  0  0  0
  9 21  2  0  0  0  0
 10 22  1  0  0  0  0
 11 12  2  0  0  0  0
 11 23  1  0  0  0  0
 12 24  1  0  0  0  0
 13 20  1  0  0  0  0
 13 22  2  0  0  0  0
 14 24  2  0  0  0  0
 14 25  1  0  0  0  0
 15 26  1  0  0  0  0
 16 26  1  0  0  0  0
 16 27  2  0  0  0  0
 16 28  1  0  0  0  0
 17 19  2  0  0  0  0
 17 33  1  0  0  0  0
 18 20  2  0  0  0  0
 18 34  1  0  0  0  0
 19 46  1  0  0  0  0
 20 35  1  0  0  0  0
 21 76  1  0  0  0  0
 22 77  1  0  0  0  0
 23 25  2  0  0  0  0
 23 76  1  0  0  0  0
 24 78  1  0  0  0  0
 25 79  1  0  0  0  0
 26 61  2  0  0  0  0
 27 62  1  0  0  0  0
 27 65  1  0  0  0  0
 28 66  1  0  0  0  0
 28 71  2  0  0  0  0
 29 47  1  0  0  0  0
 29 67  1  0  0  0  0
 29 72  2  0  0  0  0
 30 58  1  0  0  0  0
 30 63  1  0  0  0  0
 30 73  2  0  0  0  0
 31 59  1  0  0  0  0
 31 68  1  0  0  0  0
 31 74  2  0  0  0  0
 32 64  1  0  0  0  0
 32 69  1  0  0  0  0
 32 75  2  0  0  0  0
 33 36  1  0  0  0  0
 34 47  1  0  0  0  0
 35 63  1  0  0  0  0
 36 38  1  0  0  0  0
 37 41  1  0  0  0  0
 37 44  1  0  0  0  0
 38 46  1  0  0  0  0
 39 42  1  0  0  0  0
 39 48  1  0  0  0  0
 40 43  1  0  0  0  0
 40 48  1  0  0  0  0
 41 49  1  0  0  0  0
 42 50  1  0  0  0  0
 43 50  1  0  0  0  0
 44 64  1  0  0  0  0
 45 49  1  0  0  0  0
 45 64  1  0  0  0  0
 46 67  1  0  0  0  0
 47 63  1  0  0  0  0
 48 57  1  0  0  0  0
 49 62  1  0  0  0  0
 50 69  1  0  0  0  0
 51 59  1  0  0  0  0
 52 60  1  0  0  0  0
 53 60  1  0  0  0  0
 54 60  1  0  0  0  0
 55 69  1  0  0  0  0
 56 70  1  0  0  0  0
 57 77  1  0  0  0  0
 58 60  1  0  0  0  0
 58 68  1  0  0  0  0
 59 70  1  0  0  0  0
 61 62  1  0  0  0  0
M  CHG  1  70   1
M  ISO  4  32 100  57 101  69 100  77 101
M  END
> <Batch ID>
0017

> <Smiles>
CNC(C)C(=O)NC(C(=O)N1Cc2cc([101O:1][101CH2:1]C3CCC([100N:0](C)[100C:0](=O)N4CCCC(n5nc(-c6ccc(Oc7ccc(F)cc7F)cc6)c(C(N)=O)c5N)C4)CC3)ccc2CC1C(=O)NC1CCCc2ccccc21)C(C)(C)C

> <Shape>
0.160

> <Color>
0.193

> <Negative vol penalty>
0.000

$$$$

  -OEChem-04042321003D

 88 97  0     1  0  0  0  0  0999 V2000
  -29.6014  -31.2448   26.3786 C   0  0  0  0  0  0  0  0  0  0  0  0
  -30.2734  -30.0542   26.1209 C   0  0  0  0  0  0  0  0  0  0  0  0
  -20.4477  -22.1220   20.8882 C   0  0  0  0  0  0  0  0  0  0  0  0
  -21.1622  -22.8817   23.0675 C   0  0  0  0  0  0  0  0  0  0  0  0
  -28.2947  -31.4188   25.9246 C   0  0  0  0  0  0  0  0  0  0  0  0
  -29.6385  -29.0364   25.4100 C   0  0  0  0  0  0  0  0  0  0  0  0
  -31.0327  -23.7579   20.7721 C   0  0  0  0  0  0  0  0  0  0  0  0
  -26.3070  -15.8104   19.6099 C   0  0  0  0  0  0  0  0  0  0  0  0
  -25.4410  -15.0659   20.4107 C   0  0  0  0  0  0  0  0  0  0  0  0
  -19.5341  -23.1738   20.8211 C   0  0  0  0  0  0  0  0  0  0  0  0
  -20.2486  -23.9335   23.0004 C   0  0  0  0  0  0  0  0  0  0  0  0
  -30.8255  -22.3895   20.6036 C   0  0  0  0  0  0  0  0  0  0  0  0
  -18.3577  -27.0290   23.2470 C   0  0  0  0  0  0  0  0  0  0  0  0
  -18.7973  -28.2962   23.6298 C   0  0  0  0  0  0  0  0  0  0  0  0
  -28.5945  -22.8323   19.8000 C   0  0  0  0  0  0  0  0  0  0  0  0
  -28.1894  -14.9902   20.8831 C   0  0  0  0  0  0  0  0  0  0  0  0
  -20.4839  -28.2334   21.9011 C   0  0  0  0  0  0  0  0  0  0  0  0
  -21.2618  -21.9759   22.0115 C   0  0  0  0  0  0  0  0  0  0  0  0
  -23.5426  -20.8948   21.6415 C   0  0  0  0  0  0  0  0  0  0  0  0
  -27.6469  -30.4063   25.1994 C   0  0  0  0  0  0  0  0  0  0  0  0
  -30.0168  -24.6746   20.4656 C   0  0  0  0  0  0  0  0  0  0  0  0
  -28.3214  -29.1965   24.9470 C   0  0  0  0  0  0  0  0  0  0  0  0
  -28.7922  -24.2120   19.9631 C   0  0  0  0  0  0  0  0  0  0  0  0
  -27.6813  -15.7725   19.8461 C   0  0  0  0  0  0  0  0  0  0  0  0
  -25.9491  -14.2836   21.4477 C   0  0  0  0  0  0  0  0  0  0  0  0
  -27.3234  -14.2457   21.6839 C   0  0  0  0  0  0  0  0  0  0  0  0
  -19.4345  -24.0796   21.8772 C   0  0  0  0  0  0  0  0  0  0  0  0
  -29.6052  -21.9263   20.1203 C   0  0  0  0  0  0  0  0  0  0  0  0
  -18.9813  -26.3639   22.1913 C   0  0  0  0  0  0  0  0  0  0  0  0
  -19.8603  -28.8984   22.9569 C   0  0  0  0  0  0  0  0  0  0  0  0
  -20.0443  -26.9662   21.5183 C   0  0  0  0  0  0  0  0  0  0  0  0
  -22.2054  -20.8892   22.0816 C   0  0  0  0  0  0  0  0  0  0  0  0
  -24.0044  -19.6339   21.9305 C   0  0  0  0  0  0  0  0  0  0  0  0
  -23.0366  -12.0663   22.2395 C   0  0  0  0  0  0  0  0  0  0  0  0
  -21.9792  -12.8741   22.3768 C   0  0  0  0  0  0  0  0  0  0  0  0
  -24.2996  -21.9457   21.0265 C   0  0  0  0  0  0  0  0  0  0  0  0
  -22.0632  -14.2507   21.8490 C   0  0  0  0  0  0  0  0  0  0  0  0
  -28.3483  -26.8116   22.1249 C   0  0  0  0  0  0  0  0  0  0  0  0
  -27.1876  -27.5989   19.1999 C   0  0  0  0  0  0  0  0  0  0  0  0
  -26.5573  -26.6524   15.9822 C   0  0  0  0  0  0  0  0  0  0  0  0
  -26.2173  -30.6220   24.7701 C   0  0  0  0  0  0  0  0  0  0  0  0
  -30.2654  -26.1492   20.6276 C   0  0  0  0  0  0  0  0  0  0  0  0
  -27.6764  -25.1563   19.6000 C   0  0  0  0  0  0  0  0  0  0  0  0
  -23.1208  -10.6494   22.7138 C   0  0  0  0  0  0  0  0  0  0  0  0
  -25.7478  -29.6397   23.7001 C   0  0  0  0  0  0  0  0  0  0  0  0
  -24.5740  -10.3095   22.4199 C   0  0  0  0  0  0  0  0  0  0  0  0
  -22.6419  -16.0284   25.0013 C   0  0  0  0  0  0  0  0  0  0  0  0
  -26.1505  -28.2155   24.0693 C   0  0  0  0  0  0  0  0  0  0  0  0
  -22.6676  -17.4770   24.5210 C   0  0  0  0  0  0  0  0  0  0  0  0
  -21.6638  -15.1759   24.1944 C   0  0  0  0  0  0  0  0  0  0  0  0
  -21.9251  -16.6795   22.2422 C   0  0  0  0  0  0  0  0  0  0  0  0
  -24.9423  -11.2009   21.2443 C   0  0  0  0  0  0  0  0  0  0  0  0
  -27.6753  -28.0786   24.1577 C   0  0  1  0  0  0  0  0  0  0  0  0
  -28.9808  -26.9596   20.7700 C   0  0  1  0  0  0  0  0  0  0  0  0
  -22.9372  -17.5446   23.0094 C   0  0  1  0  0  0  0  0  0  0  0  0
  -27.8902  -13.4156   22.7886 C   0  0  0  0  0  0  0  0  0  0  0  0
  -25.5667  -27.4995   13.8378 C   0  0  0  0  0  0  0  0  0  0  0  0
  -24.3859  -27.2255   20.3494 C   0  0  0  0  0  0  0  0  0  0  0  0
  -23.5108  -27.1423   18.0052 C   0  0  0  0  0  0  0  0  0  0  0  0
  -24.6394  -29.2040   18.8409 C   0  0  0  0  0  0  0  0  0  0  0  0
  -29.1187  -26.3280   14.5355 C   0  0  0  0  0  0  0  0  0  0  0  0
  -25.0023  -13.4959   22.2926 C   0  0  0  0  0  0  0  0  0  0  0  0
  -28.6126  -16.5738   18.9849 C   0  0  0  0  0  0  0  0  0  0  0  0
  -30.1077  -18.5707   18.8603 C   0  0  0  0  0  0  0  0  0  0  0  0
  -30.5413  -19.7920   19.6468 C   0  0  0  0  0  0  0  0  0  1  0  0
  -26.0226  -27.1444   18.3542 C   0  0  1  0  0  0  0  0  0  0  0  0
  -26.8376  -27.3382   14.6572 C   0  0  2  0  0  0  0  0  0  0  0  0
  -24.6598  -27.6608   18.8960 C   0  0  0  0  0  0  0  0  0  0  0  0
  -21.8413  -19.7178   22.6099 N   0  0  0  0  0  0  0  0  0  0  0  0
  -22.9565  -18.9754   22.5035 N   0  0  0  0  0  0  0  0  0  0  0  0
  -21.9045  -15.3029   22.7492 N   0  0  0  0  0  0  0  0  0  0  0  0
  -27.9658  -26.5883   19.7820 N   0  0  0  0  0  0  0  0  0  0  0  0
  -25.2005  -19.0354   21.7478 N   0  0  0  0  0  0  0  0  0  0  0  0
  -23.6714  -23.1783   20.8019 N   0  0  0  0  0  0  0  0  0  0  0  0
  -28.2527  -27.9941   22.8334 N   0  0  0  0  0  0  0  0  0  0  0  0
  -26.3208  -27.5642   16.9892 N   0  0  0  0  0  0  0  0  0  0  0  0
  -24.1976  -12.4972   21.5105 N   0  3  2  0  0  0  0  0  0  0  0  0
  -27.8138  -26.5438   13.8591 N   0  3  0  0  0  0  0  0  0  0  0  0
  -29.1365  -17.7884   19.6660 N   0  3  0  0  0  0  0  0  0  0  0  0
  -25.4926  -21.7908   20.6712 O   0  0  0  0  0  0  0  0  0  0  0  0
  -22.2642  -14.3851   20.6406 O   0  0  0  0  0  0  0  0  0  0  0  0
  -27.9732  -25.7066   22.4991 O   0  0  0  0  0  0  0  0  0  0  0  0
  -27.4035  -28.8061   19.3331 O   0  0  0  0  0  0  0  0  0  0  0  0
  -26.5454  -25.4301   16.1102 O   0  0  0  0  0  0  0  0  0  0  0  0
  -18.5432  -25.1062   21.8119 O   0  0  0  0  0  0  0  0  0  0  0  0
  -29.4001  -20.5912   19.9555 O   0  0  0  0  0  0  0  0  0  1  0  0
  -20.2813  -30.1160   23.3236 F   0  0  0  0  0  0  0  0  0  0  0  0
  -20.6466  -26.3327   20.5026 F   0  0  0  0  0  0  0  0  0  0  0  0
  1  2  1  0  0  0  0
  1  5  2  0  0  0  0
  2  6  2  0  0  0  0
  3 10  2  0  0  0  0
  3 18  1  0  0  0  0
  4 11  1  0  0  0  0
  4 18  2  0  0  0  0
  5 20  1  0  0  0  0
  6 22  1  0  0  0  0
  7 12  2  0  0  0  0
  7 21  1  0  0  0  0
  8  9  2  0  0  0  0
  8 24  1  0  0  0  0
  9 25  1  0  0  0  0
 10 27  1  0  0  0  0
 11 27  2  0  0  0  0
 12 28  1  0  0  0  0
 13 14  2  0  0  0  0
 13 29  1  0  0  0  0
 14 30  1  0  0  0  0
 15 23  1  0  0  0  0
 15 28  2  0  0  0  0
 16 24  2  0  0  0  0
 16 26  1  0  0  0  0
 17 30  2  0  0  0  0
 17 31  1  0  0  0  0
 18 32  1  0  0  0  0
 19 32  1  0  0  0  0
 19 33  2  0  0  0  0
 19 36  1  0  0  0  0
 20 22  2  0  0  0  0
 20 41  1  0  0  0  0
 21 23  2  0  0  0  0
 21 42  1  0  0  0  0
 22 53  1  0  0  0  0
 23 43  1  0  0  0  0
 24 63  1  0  0  0  0
 25 26  2  0  0  0  0
 25 62  1  0  0  0  0
 26 56  1  0  0  0  0
 27 85  1  0  0  0  0
 28 86  1  0  0  0  0
 29 31  2  0  0  0  0
 29 85  1  0  0  0  0
 30 87  1  0  0  0  0
 31 88  1  0  0  0  0
 32 69  2  0  0  0  0
 33 70  1  0  0  0  0
 33 73  1  0  0  0  0
 34 35  2  0  0  0  0
 34 44  1  0  0  0  0
 34 77  1  0  0  0  0
 35 37  1  0  0  0  0
 36 74  1  0  0  0  0
 36 80  2  0  0  0  0
 37 71  1  0  0  0  0
 37 81  2  0  0  0  0
 38 54  1  0  0  0  0
 38 75  1  0  0  0  0
 38 82  2  0  0  0  0
 39 66  1  0  0  0  0
 39 72  1  0  0  0  0
 39 83  2  0  0  0  0
 40 67  1  0  0  0  0
 40 76  1  0  0  0  0
 40 84  2  0  0  0  0
 41 45  1  0  0  0  0
 42 54  1  0  0  0  0
 43 72  1  0  0  0  0
 44 46  1  0  0  0  0
 45 48  1  0  0  0  0
 46 52  1  0  0  0  0
 47 49  1  0  0  0  0
 47 50  1  0  0  0  0
 48 53  1  0  0  0  0
 49 55  1  0  0  0  0
 50 71  1  0  0  0  0
 51 55  1  0  0  0  0
 51 71  1  0  0  0  0
 52 77  1  0  0  0  0
 53 75  1  0  0  0  0
 54 72  1  0  0  0  0
 55 70  1  0  0  0  0
 57 67  1  0  0  0  0
 58 68  1  0  0  0  0
 59 68  1  0  0  0  0
 60 68  1  0  0  0  0
 61 78  1  0  0  0  0
 62 77  1  0  0  0  0
 63 79  1  0  0  0  0
 64 65  1  0  0  0  0
 64 79  1  0  0  0  0
 65 86  1  0  0  0  0
 66 68  1  0  0  0  0
 66 76  1  0  0  0  0
 67 78  1  0  0  0  0
 69 70  1  0  0  0  0
M  CHG  3  77   1  78   1  79   1
M  ISO  4  35 100  37 100  65 101  86 101
M  END
> <Batch ID>
0017

> <Smiles>
CNC(C)C(=O)NC(C(=O)N1Cc2cc([101O:1][101CH2:1]CNCc3ccc(CN4CCCC4=[100CH:0][100C:0](=O)N4CCCC(n5nc(-c6ccc(Oc7ccc(F)cc7F)cc6)c(C(N)=O)c5N)C4)c(C)c3)ccc2CC1C(=O)NC1CCCc2ccccc21)C(C)(C)C

> <Shape>
0.229

> <Color>
0.053

> <Negative vol penalty>
0.000

$$$$

  -OEChem-04042321003D

 87 95  0     1  0  0  0  0  0999 V2000
  -34.4002  -30.2120   32.7348 C   0  0  0  0  0  0  0  0  0  0  0  0
  -34.3651  -29.1769   31.8060 C   0  0  0  0  0  0  0  0  0  0  0  0
  -23.0689   -9.9183   20.9465 C   0  0  0  0  0  0  0  0  0  0  0  0
  -23.9865  -10.4861   23.1080 C   0  0  0  0  0  0  0  0  0  0  0  0
  -33.3147  -31.0792   32.8517 C   0  0  0  0  0  0  0  0  0  0  0  0
  -33.2440  -29.0077   30.9942 C   0  0  0  0  0  0  0  0  0  0  0  0
  -33.1618  -27.0502   25.1919 C   0  0  0  0  0  0  0  0  0  0  0  0
  -30.0283  -18.2556   19.1754 C   0  0  0  0  0  0  0  0  0  0  0  0
  -28.9842  -18.8421   21.2737 C   0  0  0  0  0  0  0  0  0  0  0  0
  -30.2631  -19.6056   18.9148 C   0  0  0  0  0  0  0  0  0  0  0  0
  -29.2190  -20.1921   21.0132 C   0  0  0  0  0  0  0  0  0  0  0  0
  -22.3594   -8.8654   21.5242 C   0  0  0  0  0  0  0  0  0  0  0  0
  -23.2771   -9.4333   23.6858 C   0  0  0  0  0  0  0  0  0  0  0  0
  -32.9049  -25.8018   24.6267 C   0  0  0  0  0  0  0  0  0  0  0  0
  -23.5721   -6.0750   23.9430 C   0  0  0  0  0  0  0  0  0  0  0  0
  -24.2495   -5.2552   24.8455 C   0  0  0  0  0  0  0  0  0  0  0  0
  -30.6126  -26.4512   24.2489 C   0  0  0  0  0  0  0  0  0  0  0  0
  -22.6690   -5.8510   26.5730 C   0  0  0  0  0  0  0  0  0  0  0  0
  -23.8825  -10.7286   21.7384 C   0  0  0  0  0  0  0  0  0  0  0  0
  -24.1819  -13.1450   20.9774 C   0  0  0  0  0  0  0  0  0  0  0  0
  -32.1837  -30.9265   32.0343 C   0  0  0  0  0  0  0  0  0  0  0  0
  -32.1415  -28.0061   25.2999 C   0  0  0  0  0  0  0  0  0  0  0  0
  -32.1419  -29.8729   31.1012 C   0  0  0  0  0  0  0  0  0  0  0  0
  -30.8597  -27.7119   24.8135 C   0  0  0  0  0  0  0  0  0  0  0  0
  -29.3888  -17.8738   20.3548 C   0  0  0  0  0  0  0  0  0  0  0  0
  -29.8585  -20.5739   19.8337 C   0  0  0  0  0  0  0  0  0  0  0  0
  -22.4635   -8.6229   22.8939 C   0  0  0  0  0  0  0  0  0  0  0  0
  -31.6295  -25.5011   24.1577 C   0  0  0  0  0  0  0  0  0  0  0  0
  -22.4431   -6.7829   24.3554 C   0  0  0  0  0  0  0  0  0  0  0  0
  -23.7980   -5.1432   26.1605 C   0  0  0  0  0  0  0  0  0  0  0  0
  -21.9916   -6.6709   25.6704 C   0  0  0  0  0  0  0  0  0  0  0  0
  -24.6160  -11.8160   21.1421 C   0  0  0  0  0  0  0  0  0  0  0  0
  -25.2361  -13.7772   20.3647 C   0  0  0  0  0  0  0  0  0  0  0  0
  -22.9370  -13.7537   21.3456 C   0  0  0  0  0  0  0  0  0  0  0  0
  -30.7105  -29.4962   27.7156 C   0  0  0  0  0  0  0  0  0  0  0  0
  -29.2654  -31.1501   25.3284 C   0  0  0  0  0  0  0  0  0  0  0  0
  -28.2746  -31.2555   22.0644 C   0  0  0  0  0  0  0  0  0  0  0  0
  -30.8617  -14.5954   20.3903 C   0  0  0  0  0  0  0  0  0  0  0  0
  -31.0153  -31.8598   32.2298 C   0  0  0  0  0  0  0  0  0  0  0  0
  -32.4415  -29.3577   25.8879 C   0  0  0  0  0  0  0  0  0  0  0  0
  -29.7348  -28.7107   24.8876 C   0  0  0  0  0  0  0  0  0  0  0  0
  -30.0199  -31.8404   31.0726 C   0  0  0  0  0  0  0  0  0  0  0  0
  -29.4355  -11.9255   18.2596 C   0  0  0  0  0  0  0  0  0  0  0  0
  -29.6971  -30.4049   30.6702 C   0  0  0  0  0  0  0  0  0  0  0  0
  -28.0450  -11.7269   18.8606 C   0  0  0  0  0  0  0  0  0  0  0  0
  -30.4363  -12.4234   19.2980 C   0  0  0  0  0  0  0  0  0  0  0  0
  -28.6135  -13.4593   20.6088 C   0  0  0  0  0  0  0  0  0  0  0  0
  -30.9539  -29.6719   30.1856 C   0  0  1  0  0  0  0  0  0  0  0  0
  -31.1991  -30.0689   26.4152 C   0  0  1  0  0  0  0  0  0  0  0  0
  -27.5702  -13.0025   19.5781 C   0  0  2  0  0  0  0  0  0  0  0  0
  -27.0828  -32.7227   20.4139 C   0  0  0  0  0  0  0  0  0  0  0  0
  -26.5933  -30.4052   26.5993 C   0  0  0  0  0  0  0  0  0  0  0  0
  -25.4726  -31.0532   24.4564 C   0  0  0  0  0  0  0  0  0  0  0  0
  -26.7329  -32.7599   25.7685 C   0  0  0  0  0  0  0  0  0  0  0  0
  -31.1821  -16.4234   22.0135 C   0  0  0  0  0  0  0  0  0  0  0  0
  -30.6595  -31.4286   20.3204 C   0  0  0  0  0  0  0  0  0  0  0  0
  -29.1369  -16.4307   20.6340 C   0  0  0  0  0  0  0  0  0  0  0  0
  -30.7214  -23.1180   21.6129 C   0  0  0  0  0  0  0  0  0  0  0  0
  -29.6907  -22.9583   20.5018 C   0  0  0  0  0  0  0  0  0  0  0  0
  -30.7815  -22.3299   18.3422 C   0  0  0  0  0  0  0  0  0  0  0  0
  -30.3657  -24.2234   22.6001 C   0  0  0  0  0  0  0  0  0  1  0  0
  -28.0066  -30.9719   24.5143 C   0  0  1  0  0  0  0  0  0  0  0  0
  -28.4292  -32.3256   20.9988 C   0  0  2  0  0  0  0  0  0  0  0  0
  -29.8164  -22.3420   17.1752 C   0  0  0  0  0  0  0  0  0  0  0  0
  -26.7219  -31.2778   25.3349 C   0  0  0  0  0  0  0  0  0  0  0  0
  -25.8498  -11.6146   20.6717 N   0  0  0  0  0  0  0  0  0  0  0  0
  -26.1999  -12.8254   20.2055 N   0  0  0  0  0  0  0  0  0  0  0  0
  -30.0764  -30.0160   25.4767 N   0  0  0  0  0  0  0  0  0  0  0  0
  -29.9411  -13.6109   19.9949 N   0  0  0  0  0  0  0  0  0  0  0  0
  -25.4234  -15.0488   19.9520 N   0  0  0  0  0  0  0  0  0  0  0  0
  -21.9631  -12.9599   21.9667 N   0  0  0  0  0  0  0  0  0  0  0  0
  -31.2826  -30.0718   28.8341 N   0  0  0  0  0  0  0  0  0  0  0  0
  -28.1683  -31.8023   23.3257 N   0  0  0  0  0  0  0  0  0  0  0  0
  -30.0960  -21.9310   19.5731 N   0  0  3  0  0  0  0  0  0  0  0  0
  -30.3483  -15.7247   21.0458 N   0  0  0  0  0  0  0  0  0  0  0  0
  -29.2957  -31.8323   19.8912 N   0  3  0  0  0  0  0  0  0  0  0  0
  -22.6892  -14.9616   21.1152 O   0  0  0  0  0  0  0  0  0  0  0  0
  -29.8752  -28.5997   27.7050 O   0  0  0  0  0  0  0  0  0  0  0  0
  -29.5233  -32.2565   25.8089 O   0  0  0  0  0  0  0  0  0  0  0  0
  -28.2469  -30.0547   21.8035 O   0  0  0  0  0  0  0  0  0  0  0  0
  -32.0722  -14.4763   20.1614 O   0  0  0  0  0  0  0  0  0  0  0  0
  -21.7712   -7.5958   23.4580 O   0  0  0  0  0  0  0  0  0  0  0  0
  -31.3759  -24.2832   23.6061 O   0  0  0  0  0  0  0  0  0  1  0  0
  -24.4477   -4.3547   27.0267 F   0  0  0  0  0  0  0  0  0  0  0  0
  -20.9069   -7.3475   26.0722 F   0  0  0  0  0  0  0  0  0  0  0  0
  -30.5042  -22.3267   16.0061 F   0  0  0  0  0  0  0  0  0  0  0  0
  -29.1126  -23.5028   17.1928 F   0  0  0  0  0  0  0  0  0  0  0  0
  1  2  1  0  0  0  0
  1  5  2  0  0  0  0
  2  6  2  0  0  0  0
  3 12  2  0  0  0  0
  3 19  1  0  0  0  0
  4 13  1  0  0  0  0
  4 19  2  0  0  0  0
  5 21  1  0  0  0  0
  6 23  1  0  0  0  0
  7 14  2  0  0  0  0
  7 22  1  0  0  0  0
  8 10  2  0  0  0  0
  8 25  1  0  0  0  0
  9 11  1  0  0  0  0
  9 25  2  0  0  0  0
 10 26  1  0  0  0  0
 11 26  2  0  0  0  0
 12 27  1  0  0  0  0
 13 27  2  0  0  0  0
 14 28  1  0  0  0  0
 15 16  2  0  0  0  0
 15 29  1  0  0  0  0
 16 30  1  0  0  0  0
 17 24  1  0  0  0  0
 17 28  2  0  0  0  0
 18 30  2  0  0  0  0
 18 31  1  0  0  0  0
 19 32  1  0  0  0  0
 20 32  1  0  0  0  0
 20 33  2  0  0  0  0
 20 34  1  0  0  0  0
 21 23  2  0  0  0  0
 21 39  1  0  0  0  0
 22 24  2  0  0  0  0
 22 40  1  0  0  0  0
 23 48  1  0  0  0  0
 24 41  1  0  0  0  0
 25 57  1  0  0  0  0
 26 74  1  0  0  0  0
 27 82  1  0  0  0  0
 28 83  1  0  0  0  0
 29 31  2  0  0  0  0
 29 82  1  0  0  0  0
 30 84  1  0  0  0  0
 31 85  1  0  0  0  0
 32 66  2  0  0  0  0
 33 67  1  0  0  0  0
 33 70  1  0  0  0  0
 34 71  1  0  0  0  0
 34 77  2  0  0  0  0
 35 49  1  0  0  0  0
 35 72  1  0  0  0  0
 35 78  2  0  0  0  0
 36 62  1  0  0  0  0
 36 68  1  0  0  0  0
 36 79  2  0  0  0  0
 37 63  1  0  0  0  0
 37 73  1  0  0  0  0
 37 80  2  0  0  0  0
 38 69  1  0  0  0  0
 38 75  1  0  0  0  0
 38 81  2  0  0  0  0
 39 42  1  0  0  0  0
 40 49  1  0  0  0  0
 41 68  1  0  0  0  0
 42 44  1  0  0  0  0
 43 45  1  0  0  0  0
 43 46  1  0  0  0  0
 44 48  1  0  0  0  0
 45 50  1  0  0  0  0
 46 69  1  0  0  0  0
 47 50  1  0  0  0  0
 47 69  1  0  0  0  0
 48 72  1  0  0  0  0
 49 68  1  0  0  0  0
 50 67  1  0  0  0  0
 51 63  1  0  0  0  0
 52 65  1  0  0  0  0
 53 65  1  0  0  0  0
 54 65  1  0  0  0  0
 55 75  1  0  0  0  0
 56 76  1  0  0  0  0
 57 75  1  0  0  0  0
 58 59  1  0  0  0  0
 58 61  1  0  0  0  0
 59 74  1  0  0  0  0
 60 64  1  0  0  0  0
 60 74  1  0  0  0  0
 61 83  1  0  0  0  0
 62 65  1  0  0  0  0
 62 73  1  0  0  0  0
 63 76  1  0  0  0  0
 64 86  1  0  0  0  0
 64 87  1  0  0  0  0
 66 67  1  0  0  0  0
M  CHG  1  76   1
M  ISO  4  38 100  61 101  75 100  83 101
M  END
> <Batch ID>
0017

> <Smiles>
CNC(C)C(=O)NC(C(=O)N1Cc2cc([101O:1][101CH2:1]CCN(CC(F)F)c3ccc(C[100N:0](C)[100C:0](=O)N4CCCC(n5nc(-c6ccc(Oc7ccc(F)cc7F)cc6)c(C(N)=O)c5N)C4)cc3)ccc2CC1C(=O)NC1CCCc2ccccc21)C(C)(C)C

> <Shape>
0.251

> <Color>
0.182

> <Negative vol penalty>
0.000

$$$$

  -OEChem-04042321003D

 81 89  0     1  0  0  0  0  0999 V2000
  -16.5361  -29.8355   23.3019 C   0  0  0  0  0  0  0  0  0  0  0  0
  -17.4741  -30.1318   22.3181 C   0  0  0  0  0  0  0  0  0  0  0  0
  -26.7428  -12.6435   20.6590 C   0  0  0  0  0  0  0  0  0  0  0  0
  -25.3205  -14.5075   21.2418 C   0  0  0  0  0  0  0  0  0  0  0  0
  -16.9555  -29.3497   24.5397 C   0  0  0  0  0  0  0  0  0  0  0  0
  -18.8323  -29.9435   22.5720 C   0  0  0  0  0  0  0  0  0  0  0  0
  -24.9272  -28.1203   19.2789 C   0  0  0  0  0  0  0  0  0  0  0  0
  -29.9785  -22.5633   18.3718 C   0  0  0  0  0  0  0  0  0  0  0  0
  -31.3661  -23.2015   20.2438 C   0  0  0  0  0  0  0  0  0  0  0  0
  -29.8204  -23.9065   18.0310 C   0  0  0  0  0  0  0  0  0  0  0  0
  -31.2081  -24.5448   19.9030 C   0  0  0  0  0  0  0  0  0  0  0  0
  -25.8187  -11.7626   21.2208 C   0  0  0  0  0  0  0  0  0  0  0  0
  -24.3963  -13.6266   21.8035 C   0  0  0  0  0  0  0  0  0  0  0  0
  -26.2336  -28.5742   19.1026 C   0  0  0  0  0  0  0  0  0  0  0  0
  -23.6653   -8.9951   22.1795 C   0  0  0  0  0  0  0  0  0  0  0  0
  -23.3466   -7.8436   21.4598 C   0  0  0  0  0  0  0  0  0  0  0  0
  -26.8363  -27.6548   21.2498 C   0  0  0  0  0  0  0  0  0  0  0  0
  -22.5483   -9.2071   19.6320 C   0  0  0  0  0  0  0  0  0  0  0  0
  -26.4938  -14.0159   20.6696 C   0  0  0  0  0  0  0  0  0  0  0  0
  -27.4923  -15.3770   18.7570 C   0  0  0  0  0  0  0  0  0  0  0  0
  -18.3188  -29.1463   24.8055 C   0  0  0  0  0  0  0  0  0  0  0  0
  -24.5623  -27.4387   20.4488 C   0  0  0  0  0  0  0  0  0  0  0  0
  -19.2704  -29.4559   23.8150 C   0  0  0  0  0  0  0  0  0  0  0  0
  -25.5253  -27.1911   21.4374 C   0  0  0  0  0  0  0  0  0  0  0  0
  -30.7513  -22.2107   19.4783 C   0  0  0  0  0  0  0  0  0  0  0  0
  -30.4352  -24.8973   18.7966 C   0  0  0  0  0  0  0  0  0  0  0  0
  -24.6454  -12.2542   21.7930 C   0  0  0  0  0  0  0  0  0  0  0  0
  -27.1877  -28.3440   20.0894 C   0  0  0  0  0  0  0  0  0  0  0  0
  -23.4255  -10.2526   21.6256 C   0  0  0  0  0  0  0  0  0  0  0  0
  -22.7881   -7.9496   20.1860 C   0  0  0  0  0  0  0  0  0  0  0  0
  -22.8670  -10.3586   20.3518 C   0  0  0  0  0  0  0  0  0  0  0  0
  -27.4483  -14.9264   20.0899 C   0  0  0  0  0  0  0  0  0  0  0  0
  -28.5768  -16.2188   18.7147 C   0  0  0  0  0  0  0  0  0  0  0  0
  -26.6300  -15.0627   17.6555 C   0  0  0  0  0  0  0  0  0  0  0  0
  -22.5055  -27.9796   22.8111 C   0  0  0  0  0  0  0  0  0  0  0  0
  -23.4016  -25.0066   23.7497 C   0  0  0  0  0  0  0  0  0  0  0  0
  -25.7580  -22.5386   23.6953 C   0  0  0  0  0  0  0  0  0  0  0  0
  -31.6430  -20.3253   20.8913 C   0  0  0  0  0  0  0  0  0  0  0  0
  -18.7273  -28.6641   26.1749 C   0  0  0  0  0  0  0  0  0  0  0  0
  -23.1554  -26.9322   20.6120 C   0  0  0  0  0  0  0  0  0  0  0  0
  -25.1895  -26.4464   22.7028 C   0  0  0  0  0  0  0  0  0  0  0  0
  -20.1593  -28.1383   26.2334 C   0  0  0  0  0  0  0  0  0  0  0  0
  -32.2492  -17.0323   22.1019 C   0  0  0  0  0  0  0  0  0  0  0  0
  -21.1103  -29.0999   25.5278 C   0  0  0  0  0  0  0  0  0  0  0  0
  -31.0579  -16.2279   21.5767 C   0  0  0  0  0  0  0  0  0  0  0  0
  -31.8432  -18.4481   22.5072 C   0  0  0  0  0  0  0  0  0  0  0  0
  -29.9347  -18.4034   20.9500 C   0  0  0  0  0  0  0  0  0  0  0  0
  -20.7509  -29.2416   24.0438 C   0  0  1  0  0  0  0  0  0  0  0  0
  -22.7693  -26.6998   22.0695 C   0  0  1  0  0  0  0  0  0  0  0  0
  -30.3069  -16.9916   20.4684 C   0  0  2  0  0  0  0  0  0  0  0  0
  -26.2234  -20.2394   24.5867 C   0  0  0  0  0  0  0  0  0  0  0  0
  -24.0435  -26.1993   26.4838 C   0  0  0  0  0  0  0  0  0  0  0  0
  -25.3593  -24.1325   26.9989 C   0  0  0  0  0  0  0  0  0  0  0  0
  -22.9094  -23.9715   26.5576 C   0  0  0  0  0  0  0  0  0  0  0  0
  -25.9105  -21.3878   20.9729 C   0  0  0  0  0  0  0  0  0  0  0  0
  -30.4622  -28.6626   18.5978 C   0  0  0  0  0  0  0  0  0  0  0  0
  -30.8767  -27.3213   19.1905 C   0  0  0  0  0  0  0  0  0  0  0  0
  -28.9515  -28.8645   18.5815 C   0  0  0  0  0  0  0  0  0  1  0  0
  -24.4857  -24.4478   24.6392 C   0  0  1  0  0  0  0  0  0  0  0  0
  -25.6488  -21.0473   23.4334 C   0  0  2  0  0  0  0  0  0  0  0  0
  -24.2057  -24.7035   26.1470 C   0  0  0  0  0  0  0  0  0  0  0  0
  -28.4271  -15.4394   20.8402 N   0  0  0  0  0  0  0  0  0  0  0  0
  -29.0964  -16.2209   19.9757 N   0  0  0  0  0  0  0  0  0  0  0  0
  -23.7990  -25.9767   22.8185 N   0  0  0  0  0  0  0  0  0  0  0  0
  -31.1408  -19.1117   21.4067 N   0  0  0  0  0  0  0  0  0  0  0  0
  -29.1271  -16.9499   17.7222 N   0  0  0  0  0  0  0  0  0  0  0  0
  -25.5633  -14.1799   17.8727 N   0  0  0  0  0  0  0  0  0  0  0  0
  -30.9104  -20.8461   19.8252 N   0  0  0  0  0  0  0  0  0  0  0  0
  -30.2785  -26.2321   18.4570 N   0  0  0  0  0  0  0  0  0  0  0  0
  -21.2174  -28.0920   23.2988 N   0  0  0  0  0  0  0  0  0  0  0  0
  -24.6169  -23.0382   24.2865 N   0  0  0  0  0  0  0  0  0  0  0  0
  -26.3875  -20.6841   22.1911 N   0  3  0  0  0  0  0  0  0  0  0  0
  -26.8100  -15.5376   16.5084 O   0  0  0  0  0  0  0  0  0  0  0  0
  -23.4044  -28.8035   22.9333 O   0  0  0  0  0  0  0  0  0  0  0  0
  -22.2461  -24.5925   23.8715 O   0  0  0  0  0  0  0  0  0  0  0  0
  -26.7571  -23.1940   23.4078 O   0  0  0  0  0  0  0  0  0  0  0  0
  -32.6644  -20.8490   21.3434 O   0  0  0  0  0  0  0  0  0  0  0  0
  -23.7432  -11.3949   22.3411 O   0  0  0  0  0  0  0  0  0  0  0  0
  -28.4634  -28.7865   19.9201 O   0  0  0  0  0  0  0  0  0  1  0  0
  -22.4834   -6.8437   19.4943 F   0  0  0  0  0  0  0  0  0  0  0  0
  -22.6354  -11.5639   19.8139 F   0  0  0  0  0  0  0  0  0  0  0  0
  1  2  1  0  0  0  0
  1  5  2  0  0  0  0
  2  6  2  0  0  0  0
  3 12  2  0  0  0  0
  3 19  1  0  0  0  0
  4 13  1  0  0  0  0
  4 19  2  0  0  0  0
  5 21  1  0  0  0  0
  6 23  1  0  0  0  0
  7 14  2  0  0  0  0
  7 22  1  0  0  0  0
  8 10  2  0  0  0  0
  8 25  1  0  0  0  0
  9 11  1  0  0  0  0
  9 25  2  0  0  0  0
 10 26  1  0  0  0  0
 11 26  2  0  0  0  0
 12 27  1  0  0  0  0
 13 27  2  0  0  0  0
 14 28  1  0  0  0  0
 15 16  2  0  0  0  0
 15 29  1  0  0  0  0
 16 30  1  0  0  0  0
 17 24  1  0  0  0  0
 17 28  2  0  0  0  0
 18 30  2  0  0  0  0
 18 31  1  0  0  0  0
 19 32  1  0  0  0  0
 20 32  1  0  0  0  0
 20 33  2  0  0  0  0
 20 34  1  0  0  0  0
 21 23  2  0  0  0  0
 21 39  1  0  0  0  0
 22 24  2  0  0  0  0
 22 40  1  0  0  0  0
 23 48  1  0  0  0  0
 24 41  1  0  0  0  0
 25 68  1  0  0  0  0
 26 69  1  0  0  0  0
 27 78  1  0  0  0  0
 28 79  1  0  0  0  0
 29 31  2  0  0  0  0
 29 78  1  0  0  0  0
 30 80  1  0  0  0  0
 31 81  1  0  0  0  0
 32 62  2  0  0  0  0
 33 63  1  0  0  0  0
 33 66  1  0  0  0  0
 34 67  1  0  0  0  0
 34 73  2  0  0  0  0
 35 49  1  0  0  0  0
 35 70  1  0  0  0  0
 35 74  2  0  0  0  0
 36 59  1  0  0  0  0
 36 64  1  0  0  0  0
 36 75  2  0  0  0  0
 37 60  1  0  0  0  0
 37 71  1  0  0  0  0
 37 76  2  0  0  0  0
 38 65  1  0  0  0  0
 38 68  1  0  0  0  0
 38 77  2  0  0  0  0
 39 42  1  0  0  0  0
 40 49  1  0  0  0  0
 41 64  1  0  0  0  0
 42 44  1  0  0  0  0
 43 45  1  0  0  0  0
 43 46  1  0  0  0  0
 44 48  1  0  0  0  0
 45 50  1  0  0  0  0
 46 65  1  0  0  0  0
 47 50  1  0  0  0  0
 47 65  1  0  0  0  0
 48 70  1  0  0  0  0
 49 64  1  0  0  0  0
 50 63  1  0  0  0  0
 51 60  1  0  0  0  0
 52 61  1  0  0  0  0
 53 61  1  0  0  0  0
 54 61  1  0  0  0  0
 55 72  1  0  0  0  0
 56 57  1  0  0  0  0
 56 58  1  0  0  0  0
 57 69  1  0  0  0  0
 58 79  1  0  0  0  0
 59 61  1  0  0  0  0
 59 71  1  0  0  0  0
 60 72  1  0  0  0  0
 62 63  1  0  0  0  0
M  CHG  1  72   1
M  ISO  4  38 100  58 101  68 100  79 101
M  END
> <Batch ID>
0017

> <Smiles>
CNC(C)C(=O)NC(C(=O)N1Cc2cc([101O:1][101CH2:1]CCNc3ccc([100NH:0][100C:0](=O)N4CCCC(n5nc(-c6ccc(Oc7ccc(F)cc7F)cc6)c(C(N)=O)c5N)C4)cc3)ccc2CC1C(=O)NC1CCCc2ccccc21)C(C)(C)C

> <Shape>
0.233

> <Color>
0.082

> <Negative vol penalty>
0.000

$$$$

  -OEChem-04042321003D

 82 90  0     1  0  0  0  0  0999 V2000
  -32.4452  -13.4318   21.1001 C   0  0  0  0  0  0  0  0  0  0  0  0
  -31.7758  -14.6148   21.3965 C   0  0  0  0  0  0  0  0  0  0  0  0
  -28.4954  -24.3427   20.4637 C   0  0  0  0  0  0  0  0  0  0  0  0
  -29.5601  -25.8713   18.9253 C   0  0  0  0  0  0  0  0  0  0  0  0
  -21.7226  -26.7302   22.2446 C   0  0  0  0  0  0  0  0  0  0  0  0
  -31.7923  -12.4200   20.3972 C   0  0  0  0  0  0  0  0  0  0  0  0
  -30.4534  -14.7872   20.9891 C   0  0  0  0  0  0  0  0  0  0  0  0
  -26.0469  -17.8171   23.9738 C   0  0  0  0  0  0  0  0  0  0  0  0
  -21.6496  -25.5822   23.0334 C   0  0  0  0  0  0  0  0  0  0  0  0
  -28.9240  -23.2647   19.6893 C   0  0  0  0  0  0  0  0  0  0  0  0
  -29.9888  -24.7933   18.1509 C   0  0  0  0  0  0  0  0  0  0  0  0
  -25.5339  -19.1058   23.8328 C   0  0  0  0  0  0  0  0  0  0  0  0
  -31.7781  -21.5132   19.2206 C   0  0  0  0  0  0  0  0  0  0  0  0
  -32.3309  -20.4178   19.8839 C   0  0  0  0  0  0  0  0  0  0  0  0
  -22.6499  -27.9533   24.1103 C   0  0  0  0  0  0  0  0  0  0  0  0
  -23.7534  -18.2397   22.4549 C   0  0  0  0  0  0  0  0  0  0  0  0
  -30.6010  -18.9957   18.9771 C   0  0  0  0  0  0  0  0  0  0  0  0
  -28.8134  -25.6460   20.0817 C   0  0  0  0  0  0  0  0  0  0  0  0
  -22.2227  -27.9158   22.7830 C   0  0  0  0  0  0  0  0  0  0  0  0
  -29.0552  -27.3625   21.9533 C   0  0  0  0  0  0  0  0  0  0  0  0
  -30.4582  -12.5762   19.9895 C   0  0  0  0  0  0  0  0  0  0  0  0
  -25.4222  -16.7297   23.3463 C   0  0  0  0  0  0  0  0  0  0  0  0
  -29.7825  -13.7771   20.2789 C   0  0  0  0  0  0  0  0  0  0  0  0
  -24.2589  -16.9379   22.5916 C   0  0  0  0  0  0  0  0  0  0  0  0
  -22.0768  -25.6197   24.3607 C   0  0  0  0  0  0  0  0  0  0  0  0
  -29.6708  -23.4900   18.5329 C   0  0  0  0  0  0  0  0  0  0  0  0
  -24.3887  -19.3177   23.0709 C   0  0  0  0  0  0  0  0  0  0  0  0
  -30.6366  -21.3499   18.4356 C   0  0  0  0  0  0  0  0  0  0  0  0
  -31.7425  -19.1590   19.7621 C   0  0  0  0  0  0  0  0  0  0  0  0
  -30.0482  -20.0911   18.3138 C   0  0  0  0  0  0  0  0  0  0  0  0
  -22.5769  -26.8053   24.8991 C   0  0  0  0  0  0  0  0  0  0  0  0
  -28.3704  -26.7601   20.8810 C   0  0  0  0  0  0  0  0  0  0  0  0
  -28.2193  -28.3683   22.3728 C   0  0  0  0  0  0  0  0  0  0  0  0
  -22.2987  -29.1239   21.9514 C   0  0  0  0  0  0  0  0  0  0  0  0
  -30.3328  -27.0417   22.5195 C   0  0  0  0  0  0  0  0  0  0  0  0
  -26.2875  -14.6147   21.1369 C   0  0  0  0  0  0  0  0  0  0  0  0
  -23.4163  -13.2824   21.8463 C   0  0  0  0  0  0  0  0  0  0  0  0
  -20.2595  -13.6875   23.0782 C   0  0  0  0  0  0  0  0  0  0  0  0
  -29.8094  -11.4736   19.1908 C   0  0  0  0  0  0  0  0  0  0  0  0
  -25.9727  -15.3421   23.5302 C   0  0  0  0  0  0  0  0  0  0  0  0
  -23.5391  -15.8014   21.9143 C   0  0  0  0  0  0  0  0  0  0  0  0
  -28.2885  -11.5854   19.1218 C   0  0  0  0  0  0  0  0  0  0  0  0
  -24.8312  -31.3463   20.7730 C   0  0  0  0  0  0  0  0  0  0  0  0
  -27.8728  -13.0149   18.7896 C   0  0  0  0  0  0  0  0  0  0  0  0
  -26.0881  -30.4747   20.7483 C   0  0  0  0  0  0  0  0  0  0  0  0
  -23.5852  -30.5494   20.3950 C   0  0  0  0  0  0  0  0  0  0  0  0
  -24.6310  -28.4508   21.1741 C   0  0  0  0  0  0  0  0  0  0  0  0
  -28.3398  -13.9917   19.8756 C   0  0  1  0  0  0  0  0  0  0  0  0
  -25.5495  -14.3800   22.4245 C   0  0  1  0  0  0  0  0  0  0  0  0
  -25.9025  -29.2040   21.5987 C   0  0  1  0  0  0  0  0  0  0  0  0
  -18.1307  -12.4258   23.4952 C   0  0  0  0  0  0  0  0  0  0  0  0
  -22.7685  -13.3953   18.8668 C   0  0  0  0  0  0  0  0  0  0  0  0
  -20.3599  -13.0356   19.4479 C   0  0  0  0  0  0  0  0  0  0  0  0
  -22.0511  -11.2905   20.0113 C   0  0  0  0  0  0  0  0  0  0  0  0
  -20.7764  -24.1665   25.8961 C   0  0  0  0  0  0  0  0  0  0  0  0
  -20.3999  -14.1840   25.9924 C   0  0  0  0  0  0  0  0  0  0  0  0
  -22.9524  -22.4876   24.0391 C   0  0  0  0  0  0  0  0  0  0  0  0
  -23.0740  -23.4973   25.1740 C   0  0  0  0  0  0  0  0  0  0  0  0
  -24.0978  -21.4825   24.0116 C   0  0  0  0  0  0  0  0  0  1  0  0
  -22.0060  -13.4453   21.3330 C   0  0  1  0  0  0  0  0  0  0  0  0
  -19.4585  -12.8784   24.0824 C   0  0  2  0  0  0  0  0  0  0  0  0
  -21.8108  -12.8136   19.9258 C   0  0  0  0  0  0  0  0  0  0  0  0
  -27.1903  -27.3350   20.6347 N   0  0  0  0  0  0  0  0  0  0  0  0
  -27.1269  -28.3092   21.5583 N   0  0  0  0  0  0  0  0  0  0  0  0
  -23.4684  -29.3487   21.2217 N   0  0  0  0  0  0  0  0  0  0  0  0
  -24.1199  -14.4641   22.1187 N   0  0  0  0  0  0  0  0  0  0  0  0
  -28.3193  -29.2886   23.3554 N   0  0  0  0  0  0  0  0  0  0  0  0
  -31.0602  -25.9785   21.9676 N   0  0  0  0  0  0  0  0  0  0  0  0
  -27.4735  -13.9133   21.0323 N   0  0  0  0  0  0  0  0  0  0  0  0
  -21.1308  -12.8943   22.3620 N   0  0  0  0  0  0  0  0  0  0  0  0
  -21.9907  -24.4495   25.1287 N   0  0  3  0  0  0  0  0  0  0  0  0
  -19.1812  -13.6921   25.2997 N   0  3  0  0  0  0  0  0  0  0  0  0
  -21.3143  -29.8612   21.9728 O   0  0  0  0  0  0  0  0  0  0  0  0
  -30.8078  -27.6686   23.4967 O   0  0  0  0  0  0  0  0  0  0  0  0
  -25.8151  -15.3747   20.2996 O   0  0  0  0  0  0  0  0  0  0  0  0
  -23.8741  -12.1482   22.0068 O   0  0  0  0  0  0  0  0  0  0  0  0
  -20.1229  -14.9011   22.9401 O   0  0  0  0  0  0  0  0  0  0  0  0
  -30.0894  -22.4383   17.7771 O   0  0  0  0  0  0  0  0  0  0  0  0
  -23.8862  -20.5746   22.9312 O   0  0  0  0  0  0  0  0  0  1  0  0
  -32.2744  -18.1068   20.3979 F   0  0  0  0  0  0  0  0  0  0  0  0
  -28.9522  -19.9279   17.5601 F   0  0  0  0  0  0  0  0  0  0  0  0
  -23.1160  -26.8955   26.5379 Cl  0  0  0  0  0  0  0  0  0  0  0  0
  1  2  1  0  0  0  0
  1  6  2  0  0  0  0
  2  7  2  0  0  0  0
  3 10  2  0  0  0  0
  3 18  1  0  0  0  0
  4 11  1  0  0  0  0
  4 18  2  0  0  0  0
  5  9  2  0  0  0  0
  5 19  1  0  0  0  0
  6 21  1  0  0  0  0
  7 23  1  0  0  0  0
  8 12  2  0  0  0  0
  8 22  1  0  0  0  0
  9 25  1  0  0  0  0
 10 26  1  0  0  0  0
 11 26  2  0  0  0  0
 12 27  1  0  0  0  0
 13 14  2  0  0  0  0
 13 28  1  0  0  0  0
 14 29  1  0  0  0  0
 15 19  2  0  0  0  0
 15 31  1  0  0  0  0
 16 24  1  0  0  0  0
 16 27  2  0  0  0  0
 17 29  2  0  0  0  0
 17 30  1  0  0  0  0
 18 32  1  0  0  0  0
 19 34  1  0  0  0  0
 20 32  1  0  0  0  0
 20 33  2  0  0  0  0
 20 35  1  0  0  0  0
 21 23  2  0  0  0  0
 21 39  1  0  0  0  0
 22 24  2  0  0  0  0
 22 40  1  0  0  0  0
 23 48  1  0  0  0  0
 24 41  1  0  0  0  0
 25 31  2  0  0  0  0
 25 71  1  0  0  0  0
 26 78  1  0  0  0  0
 27 79  1  0  0  0  0
 28 30  2  0  0  0  0
 28 78  1  0  0  0  0
 29 80  1  0  0  0  0
 30 81  1  0  0  0  0
 31 82  1  0  0  0  0
 32 63  2  0  0  0  0
 33 64  1  0  0  0  0
 33 67  1  0  0  0  0
 34 65  1  0  0  0  0
 34 73  2  0  0  0  0
 35 68  1  0  0  0  0
 35 74  2  0  0  0  0
 36 49  1  0  0  0  0
 36 69  1  0  0  0  0
 36 75  2  0  0  0  0
 37 60  1  0  0  0  0
 37 66  1  0  0  0  0
 37 76  2  0  0  0  0
 38 61  1  0  0  0  0
 38 70  1  0  0  0  0
 38 77  2  0  0  0  0
 39 42  1  0  0  0  0
 40 49  1  0  0  0  0
 41 66  1  0  0  0  0
 42 44  1  0  0  0  0
 43 45  1  0  0  0  0
 43 46  1  0  0  0  0
 44 48  1  0  0  0  0
 45 50  1  0  0  0  0
 46 65  1  0  0  0  0
 47 50  1  0  0  0  0
 47 65  1  0  0  0  0
 48 69  1  0  0  0  0
 49 66  1  0  0  0  0
 50 64  1  0  0  0  0
 51 61  1  0  0  0  0
 52 62  1  0  0  0  0
 53 62  1  0  0  0  0
 54 62  1  0  0  0  0
 55 71  1  0  0  0  0
 56 72  1  0  0  0  0
 57 58  1  0  0  0  0
 57 59  1  0  0  0  0
 58 71  1  0  0  0  0
 59 79  1  0  0  0  0
 60 62  1  0  0  0  0
 60 70  1  0  0  0  0
 61 72  1  0  0  0  0
 63 64  1  0  0  0  0
M  CHG  1  72   1
M  ISO  4  19 100  34 100  59 101  79 101
M  END
> <Batch ID>
0017

> <Smiles>
CNC(C)C(=O)NC(C(=O)N1Cc2cc([101O:1][101CH2:1]CCN(C)c3cc[100c:0]([100C:0](=O)N4CCCC(n5nc(-c6ccc(Oc7ccc(F)cc7F)cc6)c(C(N)=O)c5N)C4)cc3Cl)ccc2CC1C(=O)NC1CCCc2ccccc21)C(C)(C)C

> <Shape>
0.232

> <Color>
0.067

> <Negative vol penalty>
0.000

$$$$

  -OEChem-04042321003D

 85 94  0     1  0  0  0  0  0999 V2000
  -25.5057  -36.5060   25.1023 C   0  0  0  0  0  0  0  0  0  0  0  0
  -26.6331  -35.7683   24.7556 C   0  0  0  0  0  0  0  0  0  0  0  0
  -22.8950  -16.4394   22.3619 C   0  0  0  0  0  0  0  0  0  0  0  0
  -22.7181  -16.4951   19.9530 C   0  0  0  0  0  0  0  0  0  0  0  0
  -24.3987  -35.8657   25.6576 C   0  0  0  0  0  0  0  0  0  0  0  0
  -26.6545  -34.3899   24.9651 C   0  0  0  0  0  0  0  0  0  0  0  0
  -27.9663  -28.5821   19.9078 C   0  0  0  0  0  0  0  0  0  0  0  0
  -29.6829  -19.3036   19.0544 C   0  0  0  0  0  0  0  0  0  0  0  0
  -30.2094  -18.0480   19.3576 C   0  0  0  0  0  0  0  0  0  0  0  0
  -21.9212  -17.4335   22.4565 C   0  0  0  0  0  0  0  0  0  0  0  0
  -21.7442  -17.4892   20.0476 C   0  0  0  0  0  0  0  0  0  0  0  0
  -28.0267  -27.4633   19.0768 C   0  0  0  0  0  0  0  0  0  0  0  0
  -21.6338  -20.8260   20.5813 C   0  0  0  0  0  0  0  0  0  0  0  0
  -21.7403  -21.9211   19.7241 C   0  0  0  0  0  0  0  0  0  0  0  0
  -26.6697  -26.2147   20.6413 C   0  0  0  0  0  0  0  0  0  0  0  0
  -29.0190  -19.5822   21.3606 C   0  0  0  0  0  0  0  0  0  0  0  0
  -19.5788  -21.3941   18.7822 C   0  0  0  0  0  0  0  0  0  0  0  0
  -23.2935  -15.9702   21.1102 C   0  0  0  0  0  0  0  0  0  0  0  0
  -24.2432  -13.6435   21.5484 C   0  0  0  0  0  0  0  0  0  0  0  0
  -24.4029  -34.4773   25.8651 C   0  0  0  0  0  0  0  0  0  0  0  0
  -27.2437  -28.5262   21.1029 C   0  0  0  0  0  0  0  0  0  0  0  0
  -25.5470  -33.7306   25.5250 C   0  0  0  0  0  0  0  0  0  0  0  0
  -26.5953  -27.3362   21.4718 C   0  0  0  0  0  0  0  0  0  0  0  0
  -29.0878  -20.0707   20.0559 C   0  0  0  0  0  0  0  0  0  0  0  0
  -30.1406  -17.5595   20.6623 C   0  0  0  0  0  0  0  0  0  0  0  0
  -21.3457  -17.9584   21.2993 C   0  0  0  0  0  0  0  0  0  0  0  0
  -27.3802  -26.2824   19.4428 C   0  0  0  0  0  0  0  0  0  0  0  0
  -20.4998  -20.0148   20.5389 C   0  0  0  0  0  0  0  0  0  0  0  0
  -20.7128  -22.2052   18.8246 C   0  0  0  0  0  0  0  0  0  0  0  0
  -29.5454  -18.3265   21.6638 C   0  0  0  0  0  0  0  0  0  0  0  0
  -19.4723  -20.2988   19.6394 C   0  0  0  0  0  0  0  0  0  0  0  0
  -24.2999  -14.9438   21.0118 C   0  0  0  0  0  0  0  0  0  0  0  0
  -25.4352  -13.0683   21.1813 C   0  0  0  0  0  0  0  0  0  0  0  0
  -23.2058  -13.0121   22.3105 C   0  0  0  0  0  0  0  0  0  0  0  0
  -26.0895  -30.3309   24.1830 C   0  0  0  0  0  0  0  0  0  0  0  0
  -23.7287  -28.6317   23.2085 C   0  0  0  0  0  0  0  0  0  0  0  0
  -21.2516  -26.9509   21.5726 C   0  0  0  0  0  0  0  0  0  0  0  0
  -30.7151  -15.2283   20.0089 C   0  0  0  0  0  0  0  0  0  0  0  0
  -23.2007  -33.8363   26.5120 C   0  0  0  0  0  0  0  0  0  0  0  0
  -27.2026  -29.6878   22.0583 C   0  0  0  0  0  0  0  0  0  0  0  0
  -25.8585  -27.3114   22.7831 C   0  0  0  0  0  0  0  0  0  0  0  0
  -23.1613  -32.3184   26.3549 C   0  0  0  0  0  0  0  0  0  0  0  0
  -28.7907  -13.2293   17.7854 C   0  0  0  0  0  0  0  0  0  0  0  0
  -24.5238  -31.7128   26.6771 C   0  0  0  0  0  0  0  0  0  0  0  0
  -27.4015  -13.3270   18.4147 C   0  0  0  0  0  0  0  0  0  0  0  0
  -27.4370  -22.8440   18.1633 C   0  0  0  0  0  0  0  0  0  0  0  0
  -28.5458  -23.7536   20.2104 C   0  0  0  0  0  0  0  0  0  0  0  0
  -29.5428  -14.5590   17.8491 C   0  0  0  0  0  0  0  0  0  0  0  0
  -27.4848  -21.4394   18.7584 C   0  0  0  0  0  0  0  0  0  0  0  0
  -28.5903  -22.3514   20.8096 C   0  0  0  0  0  0  0  0  0  0  0  0
  -28.2375  -15.2350   19.8400 C   0  0  0  0  0  0  0  0  0  0  0  0
  -25.5991  -32.2300   25.7139 C   0  0  1  0  0  0  0  0  0  0  0  0
  -25.8560  -29.8182   22.7923 C   0  0  1  0  0  0  0  0  0  0  0  0
  -27.4805  -13.8978   19.8416 C   0  0  1  0  0  0  0  0  0  0  0  0
  -27.3782  -23.9161   19.2439 C   0  0  0  0  0  0  0  0  0  1  0  0
  -18.8159  -26.3728   21.7470 C   0  0  0  0  0  0  0  0  0  0  0  0
  -24.3800  -26.5453   25.3362 C   0  0  0  0  0  0  0  0  0  0  0  0
  -22.2191  -25.4087   24.7818 C   0  0  0  0  0  0  0  0  0  0  0  0
  -22.2080  -27.7380   25.6745 C   0  0  0  0  0  0  0  0  0  0  0  0
  -31.4317  -16.0938   22.2253 C   0  0  0  0  0  0  0  0  0  0  0  0
  -20.6189  -28.3520   19.0436 C   0  0  0  0  0  0  0  0  0  0  0  0
  -22.9874  -27.3223   23.3056 C   0  0  1  0  0  0  0  0  0  0  0  0
  -19.8376  -27.3556   21.1967 C   0  0  2  0  0  0  0  0  0  0  0  0
  -22.9682  -26.7582   24.7544 C   0  0  0  0  0  0  0  0  0  0  0  0
  -25.4379  -15.1810   20.3540 N   0  0  0  0  0  0  0  0  0  0  0  0
  -26.1073  -14.0219   20.4749 N   0  0  0  0  0  0  0  0  0  0  0  0
  -28.5597  -21.3318   19.7514 N   0  0  0  0  0  0  0  0  0  0  0  0
  -25.1048  -28.5625   22.9596 N   0  0  0  0  0  0  0  0  0  0  0  0
  -29.5570  -15.0844   19.2217 N   0  0  0  0  0  0  0  0  0  0  0  0
  -25.9635  -11.8449   21.3971 N   0  0  0  0  0  0  0  0  0  0  0  0
  -22.2052  -12.3106   21.6242 N   0  0  0  0  0  0  0  0  0  0  0  0
  -25.5010  -31.5550   24.4375 N   0  0  0  0  0  0  0  0  0  0  0  0
  -21.6641  -27.5594   22.7391 N   0  0  0  0  0  0  0  0  0  0  0  0
  -30.6862  -16.2590   20.9728 N   0  0  0  0  0  0  0  0  0  0  0  0
  -19.6900  -27.4064   19.7146 N   0  3  0  0  0  0  0  0  0  0  0  0
  -23.1582  -13.0821   23.5621 O   0  0  0  0  0  0  0  0  0  0  0  0
  -26.7533  -29.6650   24.9689 O   0  0  0  0  0  0  0  0  0  0  0  0
  -23.1080  -29.6884   23.3547 O   0  0  0  0  0  0  0  0  0  0  0  0
  -21.9218  -26.1699   20.9007 O   0  0  0  0  0  0  0  0  0  0  0  0
  -31.6894  -14.4775   19.8788 O   0  0  0  0  0  0  0  0  0  0  0  0
  -20.3952  -18.9283   21.3912 O   0  0  0  0  0  0  0  0  0  0  0  0
  -27.4394  -25.1953   18.6247 O   0  0  0  0  0  0  0  0  0  1  0  0
  -20.8145  -23.2579   18.0025 F   0  0  0  0  0  0  0  0  0  0  0  0
  -29.4734  -17.8666   22.9211 F   0  0  0  0  0  0  0  0  0  0  0  0
  -18.3800  -19.5239   19.5949 F   0  0  0  0  0  0  0  0  0  0  0  0
  1  2  1  0  0  0  0
  1  5  2  0  0  0  0
  2  6  2  0  0  0  0
  3 10  2  0  0  0  0
  3 18  1  0  0  0  0
  4 11  1  0  0  0  0
  4 18  2  0  0  0  0
  5 20  1  0  0  0  0
  6 22  1  0  0  0  0
  7 12  2  0  0  0  0
  7 21  1  0  0  0  0
  8  9  2  0  0  0  0
  8 24  1  0  0  0  0
  9 25  1  0  0  0  0
 10 26  1  0  0  0  0
 11 26  2  0  0  0  0
 12 27  1  0  0  0  0
 13 14  2  0  0  0  0
 13 28  1  0  0  0  0
 14 29  1  0  0  0  0
 15 23  1  0  0  0  0
 15 27  2  0  0  0  0
 16 24  2  0  0  0  0
 16 30  1  0  0  0  0
 17 29  2  0  0  0  0
 17 31  1  0  0  0  0
 18 32  1  0  0  0  0
 19 32  1  0  0  0  0
 19 33  2  0  0  0  0
 19 34  1  0  0  0  0
 20 22  2  0  0  0  0
 20 39  1  0  0  0  0
 21 23  2  0  0  0  0
 21 40  1  0  0  0  0
 22 52  1  0  0  0  0
 23 41  1  0  0  0  0
 24 67  1  0  0  0  0
 25 30  2  0  0  0  0
 25 74  1  0  0  0  0
 26 81  1  0  0  0  0
 27 82  1  0  0  0  0
 28 31  2  0  0  0  0
 28 81  1  0  0  0  0
 29 83  1  0  0  0  0
 30 84  1  0  0  0  0
 31 85  1  0  0  0  0
 32 65  2  0  0  0  0
 33 66  1  0  0  0  0
 33 70  1  0  0  0  0
 34 71  1  0  0  0  0
 34 76  2  0  0  0  0
 35 53  1  0  0  0  0
 35 72  1  0  0  0  0
 35 77  2  0  0  0  0
 36 62  1  0  0  0  0
 36 68  1  0  0  0  0
 36 78  2  0  0  0  0
 37 63  1  0  0  0  0
 37 73  1  0  0  0  0
 37 79  2  0  0  0  0
 38 69  1  0  0  0  0
 38 74  1  0  0  0  0
 38 80  2  0  0  0  0
 39 42  1  0  0  0  0
 40 53  1  0  0  0  0
 41 68  1  0  0  0  0
 42 44  1  0  0  0  0
 43 45  1  0  0  0  0
 43 48  1  0  0  0  0
 44 52  1  0  0  0  0
 45 54  1  0  0  0  0
 46 49  1  0  0  0  0
 46 55  1  0  0  0  0
 47 50  1  0  0  0  0
 47 55  1  0  0  0  0
 48 69  1  0  0  0  0
 49 67  1  0  0  0  0
 50 67  1  0  0  0  0
 51 54  1  0  0  0  0
 51 69  1  0  0  0  0
 52 72  1  0  0  0  0
 53 68  1  0  0  0  0
 54 66  1  0  0  0  0
 55 82  1  0  0  0  0
 56 63  1  0  0  0  0
 57 64  1  0  0  0  0
 58 64  1  0  0  0  0
 59 64  1  0  0  0  0
 60 74  1  0  0  0  0
 61 75  1  0  0  0  0
 62 64  1  0  0  0  0
 62 73  1  0  0  0  0
 63 75  1  0  0  0  0
 65 66  1  0  0  0  0
M  CHG  1  75   1
M  ISO  4  38 100  55 101  74 100  82 101
M  END
> <Batch ID>
0017

> <Smiles>
CNC(C)C(=O)NC(C(=O)N1Cc2cc([101O:1][101CH:1]3CCN(c4ccc([100N:0](C)[100C:0](=O)N5CCCC(n6nc(-c7ccc(Oc8ccc(F)cc8F)cc7)c(C(N)=O)c6N)C5)c(F)c4)CC3)ccc2CC1C(=O)NC1CCCc2ccccc21)C(C)(C)C

> <Shape>
0.280

> <Color>
0.076

> <Negative vol penalty>
0.000

$$$$

  -OEChem-04042321003D

 85 93  0     1  0  0  0  0  0999 V2000
  -16.8749  -29.5605   24.5456 C   0  0  0  0  0  0  0  0  0  0  0  0
  -17.2829  -28.3857   23.9221 C   0  0  0  0  0  0  0  0  0  0  0  0
  -26.7868  -20.3548   18.6320 C   0  0  0  0  0  0  0  0  0  0  0  0
  -28.1577  -20.0992   20.6049 C   0  0  0  0  0  0  0  0  0  0  0  0
  -17.4908  -30.7693   24.2237 C   0  0  0  0  0  0  0  0  0  0  0  0
  -18.3062  -28.4190   22.9755 C   0  0  0  0  0  0  0  0  0  0  0  0
  -22.5363  -24.1053   21.9733 C   0  0  0  0  0  0  0  0  0  0  0  0
  -20.0583  -16.7056   16.9674 C   0  0  0  0  0  0  0  0  0  0  0  0
  -18.8645  -18.0753   18.5598 C   0  0  0  0  0  0  0  0  0  0  0  0
  -20.3865  -15.8092   17.9844 C   0  0  0  0  0  0  0  0  0  0  0  0
  -19.1927  -17.1788   19.5768 C   0  0  0  0  0  0  0  0  0  0  0  0
  -27.5130  -21.4906   18.2745 C   0  0  0  0  0  0  0  0  0  0  0  0
  -28.8840  -21.2350   20.2473 C   0  0  0  0  0  0  0  0  0  0  0  0
  -22.6304  -23.0858   21.0270 C   0  0  0  0  0  0  0  0  0  0  0  0
  -29.2385  -24.2494   16.6537 C   0  0  0  0  0  0  0  0  0  0  0  0
  -29.6364  -24.3724   15.3225 C   0  0  0  0  0  0  0  0  0  0  0  0
  -24.0105  -24.5028   19.6463 C   0  0  0  0  0  0  0  0  0  0  0  0
  -30.8915  -22.3163   15.5078 C   0  0  0  0  0  0  0  0  0  0  0  0
  -27.1090  -19.6590   19.7973 C   0  0  0  0  0  0  0  0  0  0  0  0
  -26.6315  -17.1531   19.8055 C   0  0  0  0  0  0  0  0  0  0  0  0
  -18.5287  -30.8160   23.2797 C   0  0  0  0  0  0  0  0  0  0  0  0
  -23.1707  -25.3372   21.7578 C   0  0  0  0  0  0  0  0  0  0  0  0
  -18.9356  -29.6298   22.6397 C   0  0  0  0  0  0  0  0  0  0  0  0
  -23.9251  -25.5355   20.5926 C   0  0  0  0  0  0  0  0  0  0  0  0
  -19.2973  -17.8387   17.2551 C   0  0  0  0  0  0  0  0  0  0  0  0
  -19.9537  -16.0458   19.2891 C   0  0  0  0  0  0  0  0  0  0  0  0
  -28.5617  -21.9308   19.0821 C   0  0  0  0  0  0  0  0  0  0  0  0
  -23.3652  -23.2854   19.8620 C   0  0  0  0  0  0  0  0  0  0  0  0
  -29.6673  -23.1600   17.4120 C   0  0  0  0  0  0  0  0  0  0  0  0
  -30.4628  -23.4058   14.7495 C   0  0  0  0  0  0  0  0  0  0  0  0
  -30.4937  -22.1934   16.8390 C   0  0  0  0  0  0  0  0  0  0  0  0
  -26.3588  -18.4859   20.1675 C   0  0  0  0  0  0  0  0  0  0  0  0
  -25.6342  -16.4235   20.4051 C   0  0  0  0  0  0  0  0  0  0  0  0
  -27.6917  -16.6221   18.9995 C   0  0  0  0  0  0  0  0  0  0  0  0
  -22.1855  -28.3427   21.4419 C   0  0  0  0  0  0  0  0  0  0  0  0
  -25.3671  -28.9749   21.4406 C   0  0  0  0  0  0  0  0  0  0  0  0
  -28.5428  -27.8575   20.8807 C   0  0  0  0  0  0  0  0  0  0  0  0
  -20.4537  -15.5512   21.6759 C   0  0  0  0  0  0  0  0  0  0  0  0
  -19.1321  -32.1533   22.9298 C   0  0  0  0  0  0  0  0  0  0  0  0
  -23.0817  -26.4175   22.8006 C   0  0  0  0  0  0  0  0  0  0  0  0
  -24.6418  -26.8324   20.3230 C   0  0  0  0  0  0  0  0  0  0  0  0
  -20.4634  -32.0462   22.1906 C   0  0  0  0  0  0  0  0  0  0  0  0
  -22.1990  -17.7452   23.8629 C   0  0  0  0  0  0  0  0  0  0  0  0
  -20.3700  -31.0162   21.0693 C   0  0  0  0  0  0  0  0  0  0  0  0
  -23.4640  -18.0351   23.0559 C   0  0  0  0  0  0  0  0  0  0  0  0
  -20.9554  -17.6833   22.9754 C   0  0  0  0  0  0  0  0  0  0  0  0
  -22.3403  -17.0315   21.0307 C   0  0  0  0  0  0  0  0  0  0  0  0
  -20.0591  -29.6215   21.6258 C   0  0  1  0  0  0  0  0  0  0  0  0
  -23.3427  -27.8121   22.2400 C   0  0  1  0  0  0  0  0  0  0  0  0
  -23.6145  -17.0426   21.8895 C   0  0  1  0  0  0  0  0  0  0  0  0
  -30.9347  -28.6150   20.9287 C   0  0  0  0  0  0  0  0  0  0  0  0
  -24.9392  -30.4839   18.8234 C   0  0  0  0  0  0  0  0  0  0  0  0
  -27.4121  -30.3872   18.4443 C   0  0  0  0  0  0  0  0  0  0  0  0
  -26.5024  -31.5980   20.4264 C   0  0  0  0  0  0  0  0  0  0  0  0
  -20.2309  -13.6806   20.0552 C   0  0  0  0  0  0  0  0  0  0  0  0
  -29.2563  -25.8568   22.9414 C   0  0  0  0  0  0  0  0  0  0  0  0
  -18.6359  -21.2280   15.6877 C   0  0  0  0  0  0  0  0  0  0  0  0
  -18.9444  -18.8028   16.1611 C   0  0  0  0  0  0  0  0  0  0  0  0
  -21.5090  -21.4209   16.9830 C   0  0  0  0  0  0  0  0  0  0  0  0
  -22.9923  -21.6199   16.6805 C   0  0  0  0  0  0  0  0  0  0  0  0
  -20.9165  -20.3225   16.1130 C   0  0  0  0  0  0  0  0  0  0  0  0
  -23.6101  -22.6866   17.5735 C   0  0  0  0  0  0  0  0  0  1  0  0
  -26.4376  -29.0710   20.3806 C   0  0  1  0  0  0  0  0  0  0  0  0
  -29.8082  -27.9603   21.7129 C   0  0  2  0  0  0  0  0  0  0  0  0
  -26.3078  -30.3612   19.5226 C   0  0  0  0  0  0  0  0  0  0  0  0
  -25.2731  -18.5993   20.9372 N   0  0  0  0  0  0  0  0  0  0  0  0
  -24.8548  -17.3285   21.0638 N   0  0  0  0  0  0  0  0  0  0  0  0
  -24.5194  -27.8604   21.3698 N   0  0  0  0  0  0  0  0  0  0  0  0
  -21.1609  -16.7551   21.8545 N   0  0  0  0  0  0  0  0  0  0  0  0
  -25.3566  -15.1026   20.4277 N   0  0  0  0  0  0  0  0  0  0  0  0
  -28.6314  -17.5116   18.4608 N   0  0  0  0  0  0  0  0  0  0  0  0
  -21.2499  -29.0271   22.1941 N   0  0  0  0  0  0  0  0  0  0  0  0
  -27.7135  -28.9418   21.0760 N   0  0  0  0  0  0  0  0  0  0  0  0
  -20.2930  -15.1178   20.3422 N   0  0  0  0  0  0  0  0  0  0  0  0
  -30.2586  -26.6055   22.1403 N   0  3  0  0  0  0  0  0  0  0  0  0
  -19.4690  -20.1963   16.4088 N   0  3  1  0  0  0  0  0  0  0  0  0
  -27.7931  -15.3968   18.7503 O   0  0  0  0  0  0  0  0  0  0  0  0
  -22.1452  -28.1472   20.2328 O   0  0  0  0  0  0  0  0  0  0  0  0
  -25.2905  -29.8526   22.3041 O   0  0  0  0  0  0  0  0  0  0  0  0
  -28.3146  -26.9120   20.1294 O   0  0  0  0  0  0  0  0  0  0  0  0
  -20.0219  -14.9000   22.6348 O   0  0  0  0  0  0  0  0  0  0  0  0
  -29.2708  -23.0390   18.7333 O   0  0  0  0  0  0  0  0  0  0  0  0
  -23.4581  -22.2922   18.9364 O   0  0  0  0  0  0  0  0  0  1  0  0
  -30.8435  -23.5232   13.4706 F   0  0  0  0  0  0  0  0  0  0  0  0
  -30.9079  -21.1440   17.5622 F   0  0  0  0  0  0  0  0  0  0  0  0
  1  2  1  0  0  0  0
  1  5  2  0  0  0  0
  2  6  2  0  0  0  0
  3 12  2  0  0  0  0
  3 19  1  0  0  0  0
  4 13  1  0  0  0  0
  4 19  2  0  0  0  0
  5 21  1  0  0  0  0
  6 23  1  0  0  0  0
  7 14  2  0  0  0  0
  7 22  1  0  0  0  0
  8 10  2  0  0  0  0
  8 25  1  0  0  0  0
  9 11  1  0  0  0  0
  9 25  2  0  0  0  0
 10 26  1  0  0  0  0
 11 26  2  0  0  0  0
 12 27  1  0  0  0  0
 13 27  2  0  0  0  0
 14 28  1  0  0  0  0
 15 16  2  0  0  0  0
 15 29  1  0  0  0  0
 16 30  1  0  0  0  0
 17 24  1  0  0  0  0
 17 28  2  0  0  0  0
 18 30  2  0  0  0  0
 18 31  1  0  0  0  0
 19 32  1  0  0  0  0
 20 32  1  0  0  0  0
 20 33  2  0  0  0  0
 20 34  1  0  0  0  0
 21 23  2  0  0  0  0
 21 39  1  0  0  0  0
 22 24  2  0  0  0  0
 22 40  1  0  0  0  0
 23 48  1  0  0  0  0
 24 41  1  0  0  0  0
 25 58  1  0  0  0  0
 26 74  1  0  0  0  0
 27 82  1  0  0  0  0
 28 83  1  0  0  0  0
 29 31  2  0  0  0  0
 29 82  1  0  0  0  0
 30 84  1  0  0  0  0
 31 85  1  0  0  0  0
 32 66  2  0  0  0  0
 33 67  1  0  0  0  0
 33 70  1  0  0  0  0
 34 71  1  0  0  0  0
 34 77  2  0  0  0  0
 35 49  1  0  0  0  0
 35 72  1  0  0  0  0
 35 78  2  0  0  0  0
 36 63  1  0  0  0  0
 36 68  1  0  0  0  0
 36 79  2  0  0  0  0
 37 64  1  0  0  0  0
 37 73  1  0  0  0  0
 37 80  2  0  0  0  0
 38 69  1  0  0  0  0
 38 74  1  0  0  0  0
 38 81  2  0  0  0  0
 39 42  1  0  0  0  0
 40 49  1  0  0  0  0
 41 68  1  0  0  0  0
 42 44  1  0  0  0  0
 43 45  1  0  0  0  0
 43 46  1  0  0  0  0
 44 48  1  0  0  0  0
 45 50  1  0  0  0  0
 46 69  1  0  0  0  0
 47 50  1  0  0  0  0
 47 69  1  0  0  0  0
 48 72  1  0  0  0  0
 49 68  1  0  0  0  0
 50 67  1  0  0  0  0
 51 64  1  0  0  0  0
 52 65  1  0  0  0  0
 53 65  1  0  0  0  0
 54 65  1  0  0  0  0
 55 74  1  0  0  0  0
 56 75  1  0  0  0  0
 57 76  1  0  0  0  0
 58 76  1  0  0  0  0
 59 60  1  0  0  0  0
 59 61  1  0  0  0  0
 60 62  1  0  0  0  0
 61 76  1  0  0  0  0
 62 83  1  0  0  0  0
 63 65  1  0  0  0  0
 63 73  1  0  0  0  0
 64 75  1  0  0  0  0
 66 67  1  0  0  0  0
M  CHG  2  75   1  76   1
M  ISO  4  38 100  62 101  74 100  83 101
M  END
> <Batch ID>
0017

> <Smiles>
CNC(C)C(=O)NC(C(=O)N1Cc2cc([101O:1][101CH2:1]CCCN(C)Cc3ccc([100N:0](C)[100C:0](=O)N4CCCC(n5nc(-c6ccc(Oc7ccc(F)cc7F)cc6)c(C(N)=O)c5N)C4)cc3)ccc2CC1C(=O)NC1CCCc2ccccc21)C(C)(C)C

> <Shape>
0.164

> <Color>
0.114

> <Negative vol penalty>
0.000

$$$$

  -OEChem-04042321003D

 85 93  0     1  0  0  0  0  0999 V2000
  -16.6449  -28.5274   23.8440 C   0  0  0  0  0  0  0  0  0  0  0  0
  -17.6536  -27.5916   23.6389 C   0  0  0  0  0  0  0  0  0  0  0  0
  -28.6778  -17.0279   19.5892 C   0  0  0  0  0  0  0  0  0  0  0  0
  -27.2669  -16.5632   21.4945 C   0  0  0  0  0  0  0  0  0  0  0  0
  -16.7804  -29.8192   23.3372 C   0  0  0  0  0  0  0  0  0  0  0  0
  -18.7980  -27.9467   22.9258 C   0  0  0  0  0  0  0  0  0  0  0  0
  -25.8265  -26.5969   22.6166 C   0  0  0  0  0  0  0  0  0  0  0  0
  -31.9781  -23.4118   20.3725 C   0  0  0  0  0  0  0  0  0  0  0  0
  -32.6821  -21.5993   18.9385 C   0  0  0  0  0  0  0  0  0  0  0  0
  -32.7279  -22.8749   21.4191 C   0  0  0  0  0  0  0  0  0  0  0  0
  -33.4319  -21.0625   19.9850 C   0  0  0  0  0  0  0  0  0  0  0  0
  -28.4775  -15.7283   19.1238 C   0  0  0  0  0  0  0  0  0  0  0  0
  -27.0664  -15.2636   21.0291 C   0  0  0  0  0  0  0  0  0  0  0  0
  -26.8118  -26.2204   21.7049 C   0  0  0  0  0  0  0  0  0  0  0  0
  -26.0667  -14.0123   17.4880 C   0  0  0  0  0  0  0  0  0  0  0  0
  -25.7838  -13.8456   16.1324 C   0  0  0  0  0  0  0  0  0  0  0  0
  -26.9721  -28.5040   20.9442 C   0  0  0  0  0  0  0  0  0  0  0  0
  -27.7610  -12.4789   15.8878 C   0  0  0  0  0  0  0  0  0  0  0  0
  -28.0726  -17.4453   20.7746 C   0  0  0  0  0  0  0  0  0  0  0  0
  -27.5055  -19.9255   20.9607 C   0  0  0  0  0  0  0  0  0  0  0  0
  -17.9314  -30.1932   22.6259 C   0  0  0  0  0  0  0  0  0  0  0  0
  -25.3980  -27.9300   22.6914 C   0  0  0  0  0  0  0  0  0  0  0  0
  -18.9485  -29.2444   22.4078 C   0  0  0  0  0  0  0  0  0  0  0  0
  -25.9830  -28.8953   21.8594 C   0  0  0  0  0  0  0  0  0  0  0  0
  -31.9552  -22.7739   19.1322 C   0  0  0  0  0  0  0  0  0  0  0  0
  -33.4548  -21.7003   21.2253 C   0  0  0  0  0  0  0  0  0  0  0  0
  -27.6718  -14.8462   19.8438 C   0  0  0  0  0  0  0  0  0  0  0  0
  -27.3827  -27.1734   20.8666 C   0  0  0  0  0  0  0  0  0  0  0  0
  -27.1968  -13.4123   18.0436 C   0  0  0  0  0  0  0  0  0  0  0  0
  -26.6309  -13.0789   15.3323 C   0  0  0  0  0  0  0  0  0  0  0  0
  -28.0439  -12.6456   17.2435 C   0  0  0  0  0  0  0  0  0  0  0  0
  -28.2796  -18.7874   21.2562 C   0  0  0  0  0  0  0  0  0  0  0  0
  -28.1103  -20.9427   21.6578 C   0  0  0  0  0  0  0  0  0  0  0  0
  -26.3434  -20.0519   20.1304 C   0  0  0  0  0  0  0  0  0  0  0  0
  -22.6342  -29.4277   22.2206 C   0  0  0  0  0  0  0  0  0  0  0  0
  -24.2841  -31.9945   23.3213 C   0  0  0  0  0  0  0  0  0  0  0  0
  -27.3050  -33.5075   23.8030 C   0  0  0  0  0  0  0  0  0  0  0  0
  -33.8833  -21.2961   23.6634 C   0  0  0  0  0  0  0  0  0  0  0  0
  -18.0118  -31.5875   22.0565 C   0  0  0  0  0  0  0  0  0  0  0  0
  -24.3531  -28.3249   23.6988 C   0  0  0  0  0  0  0  0  0  0  0  0
  -25.5726  -30.3434   21.9145 C   0  0  0  0  0  0  0  0  0  0  0  0
  -19.4217  -31.9925   21.6342 C   0  0  0  0  0  0  0  0  0  0  0  0
  -30.7426  -21.7941   25.5558 C   0  0  0  0  0  0  0  0  0  0  0  0
  -20.0779  -30.8777   20.8259 C   0  0  0  0  0  0  0  0  0  0  0  0
  -29.7035  -21.0995   24.6776 C   0  0  0  0  0  0  0  0  0  0  0  0
  -32.1254  -21.1687   25.3995 C   0  0  0  0  0  0  0  0  0  0  0  0
  -31.5612  -20.4272   23.1031 C   0  0  0  0  0  0  0  0  0  0  0  0
  -20.2159  -29.5988   21.6607 C   0  0  1  0  0  0  0  0  0  0  0  0
  -23.6275  -29.6158   23.3322 C   0  0  1  0  0  0  0  0  0  0  0  0
  -30.1680  -21.0647   23.2122 C   0  0  1  0  0  0  0  0  0  0  0  0
  -36.5784  -21.7460   21.8652 C   0  0  0  0  0  0  0  0  0  0  0  0
  -28.3318  -35.6180   24.6913 C   0  0  0  0  0  0  0  0  0  0  0  0
  -23.4233  -33.4736   20.7952 C   0  0  0  0  0  0  0  0  0  0  0  0
  -25.2052  -35.1686   21.2642 C   0  0  0  0  0  0  0  0  0  0  0  0
  -23.3381  -34.8430   22.8861 C   0  0  0  0  0  0  0  0  0  0  0  0
  -28.8198  -32.0355   25.8761 C   0  0  0  0  0  0  0  0  0  0  0  0
  -29.2952  -21.6940   17.8694 C   0  0  0  0  0  0  0  0  0  0  0  0
  -31.1486  -23.3514   18.0066 C   0  0  0  0  0  0  0  0  0  0  0  0
  -28.8795  -25.4665   18.0608 C   0  0  0  0  0  0  0  0  0  0  0  0
  -35.5628  -20.6294   22.0001 C   0  0  0  0  0  0  0  0  0  0  0  0
  -28.8532  -24.0986   17.3956 C   0  0  0  0  0  0  0  0  0  0  0  0
  -28.2837  -25.4780   19.4631 C   0  0  0  0  0  0  0  0  0  1  0  0
  -25.1316  -33.0720   22.6890 C   0  0  1  0  0  0  0  0  0  0  0  0
  -27.9052  -34.1949   25.0162 C   0  0  2  0  0  0  0  0  0  0  0  0
  -24.2811  -34.1118   21.9060 C   0  0  0  0  0  0  0  0  0  0  0  0
  -29.2986  -19.0559   22.0769 N   0  0  0  0  0  0  0  0  0  0  0  0
  -29.1690  -20.3742   22.3030 N   0  0  0  0  0  0  0  0  0  0  0  0
  -24.5427  -30.6788   22.9117 N   0  0  0  0  0  0  0  0  0  0  0  0
  -32.5287  -21.0874   23.9947 N   0  0  0  0  0  0  0  0  0  0  0  0
  -27.8347  -22.2589   21.7756 N   0  0  0  0  0  0  0  0  0  0  0  0
  -25.8538  -18.9067   19.4876 N   0  0  0  0  0  0  0  0  0  0  0  0
  -21.3298  -29.7116   22.5777 N   0  0  0  0  0  0  0  0  0  0  0  0
  -25.9335  -33.6446   23.7649 N   0  0  0  0  0  0  0  0  0  0  0  0
  -34.2305  -21.1451   22.3074 N   0  0  0  0  0  0  0  0  0  0  0  0
  -29.0993  -33.4449   25.4985 N   0  3  0  0  0  0  0  0  0  0  0  0
  -29.6641  -23.1276   18.1670 N   0  3  1  0  0  0  0  0  0  0  0  0
  -25.7663  -21.1510   19.9504 O   0  0  0  0  0  0  0  0  0  0  0  0
  -23.0226  -29.0543   21.1200 O   0  0  0  0  0  0  0  0  0  0  0  0
  -23.4293  -32.3080   24.1535 O   0  0  0  0  0  0  0  0  0  0  0  0
  -27.9851  -32.9120   22.9704 O   0  0  0  0  0  0  0  0  0  0  0  0
  -34.7366  -21.5450   24.5240 O   0  0  0  0  0  0  0  0  0  0  0  0
  -27.4759  -13.5781   19.3898 O   0  0  0  0  0  0  0  0  0  0  0  0
  -28.3442  -26.8085   19.9754 O   0  0  0  0  0  0  0  0  0  1  0  0
  -26.3583  -12.9176   14.0308 F   0  0  0  0  0  0  0  0  0  0  0  0
  -29.1304  -12.0658   17.7718 F   0  0  0  0  0  0  0  0  0  0  0  0
  1  2  1  0  0  0  0
  1  5  2  0  0  0  0
  2  6  2  0  0  0  0
  3 12  2  0  0  0  0
  3 19  1  0  0  0  0
  4 13  1  0  0  0  0
  4 19  2  0  0  0  0
  5 21  1  0  0  0  0
  6 23  1  0  0  0  0
  7 14  2  0  0  0  0
  7 22  1  0  0  0  0
  8 10  2  0  0  0  0
  8 25  1  0  0  0  0
  9 11  1  0  0  0  0
  9 25  2  0  0  0  0
 10 26  1  0  0  0  0
 11 26  2  0  0  0  0
 12 27  1  0  0  0  0
 13 27  2  0  0  0  0
 14 28  1  0  0  0  0
 15 16  2  0  0  0  0
 15 29  1  0  0  0  0
 16 30  1  0  0  0  0
 17 24  1  0  0  0  0
 17 28  2  0  0  0  0
 18 30  2  0  0  0  0
 18 31  1  0  0  0  0
 19 32  1  0  0  0  0
 20 32  1  0  0  0  0
 20 33  2  0  0  0  0
 20 34  1  0  0  0  0
 21 23  2  0  0  0  0
 21 39  1  0  0  0  0
 22 24  2  0  0  0  0
 22 40  1  0  0  0  0
 23 48  1  0  0  0  0
 24 41  1  0  0  0  0
 25 58  1  0  0  0  0
 26 74  1  0  0  0  0
 27 82  1  0  0  0  0
 28 83  1  0  0  0  0
 29 31  2  0  0  0  0
 29 82  1  0  0  0  0
 30 84  1  0  0  0  0
 31 85  1  0  0  0  0
 32 66  2  0  0  0  0
 33 67  1  0  0  0  0
 33 70  1  0  0  0  0
 34 71  1  0  0  0  0
 34 77  2  0  0  0  0
 35 49  1  0  0  0  0
 35 72  1  0  0  0  0
 35 78  2  0  0  0  0
 36 63  1  0  0  0  0
 36 68  1  0  0  0  0
 36 79  2  0  0  0  0
 37 64  1  0  0  0  0
 37 73  1  0  0  0  0
 37 80  2  0  0  0  0
 38 69  1  0  0  0  0
 38 74  1  0  0  0  0
 38 81  2  0  0  0  0
 39 42  1  0  0  0  0
 40 49  1  0  0  0  0
 41 68  1  0  0  0  0
 42 44  1  0  0  0  0
 43 45  1  0  0  0  0
 43 46  1  0  0  0  0
 44 48  1  0  0  0  0
 45 50  1  0  0  0  0
 46 69  1  0  0  0  0
 47 50  1  0  0  0  0
 47 69  1  0  0  0  0
 48 72  1  0  0  0  0
 49 68  1  0  0  0  0
 50 67  1  0  0  0  0
 51 60  1  0  0  0  0
 52 64  1  0  0  0  0
 53 65  1  0  0  0  0
 54 65  1  0  0  0  0
 55 65  1  0  0  0  0
 56 75  1  0  0  0  0
 57 76  1  0  0  0  0
 58 76  1  0  0  0  0
 59 61  1  0  0  0  0
 59 62  1  0  0  0  0
 60 74  1  0  0  0  0
 61 76  1  0  0  0  0
 62 83  1  0  0  0  0
 63 65  1  0  0  0  0
 63 73  1  0  0  0  0
 64 75  1  0  0  0  0
 66 67  1  0  0  0  0
M  CHG  2  75   1  76   1
M  ISO  4  38 100  62 101  74 100  83 101
M  END
> <Batch ID>
0017

> <Smiles>
CC[100N:0](c1ccc(CN(C)CC[101CH2:1][101O:1]c2ccc3c(c2)CN(C(=O)C(NC(=O)C(C)NC)C(C)(C)C)C(C(=O)NC2CCCc4ccccc42)C3)cc1)[100C:0](=O)N1CCCC(n2nc(-c3ccc(Oc4ccc(F)cc4F)cc3)c(C(N)=O)c2N)C1

> <Shape>
0.222

> <Color>
0.081

> <Negative vol penalty>
0.000

$$$$

  -OEChem-04042321002D

  0  0  0     0  0  0  0  0  0999 V2000
M  END
$$$$

  -OEChem-04042321003D

 88 97  0     1  0  0  0  0  0999 V2000
  -28.9132   -9.2058   20.6875 C   0  0  0  0  0  0  0  0  0  0  0  0
  -27.7564   -9.6480   21.3212 C   0  0  0  0  0  0  0  0  0  0  0  0
  -25.0710  -28.6399   21.9747 C   0  0  0  0  0  0  0  0  0  0  0  0
  -24.4723  -29.2897   19.7261 C   0  0  0  0  0  0  0  0  0  0  0  0
  -29.6721  -10.0932   19.9257 C   0  0  0  0  0  0  0  0  0  0  0  0
  -27.3583  -10.9783   21.1941 C   0  0  0  0  0  0  0  0  0  0  0  0
  -21.4631  -15.0361   20.8816 C   0  0  0  0  0  0  0  0  0  0  0  0
  -24.2371  -20.7791   21.2630 C   0  0  0  0  0  0  0  0  0  0  0  0
  -25.6006  -20.7943   20.9694 C   0  0  0  0  0  0  0  0  0  0  0  0
  -25.2536  -29.9806   22.3135 C   0  0  0  0  0  0  0  0  0  0  0  0
  -24.6549  -30.6304   20.0649 C   0  0  0  0  0  0  0  0  0  0  0  0
  -20.8957  -16.1595   21.4815 C   0  0  0  0  0  0  0  0  0  0  0  0
  -23.3164  -32.6336   23.1146 C   0  0  0  0  0  0  0  0  0  0  0  0
  -22.7776  -33.0761   24.3226 C   0  0  0  0  0  0  0  0  0  0  0  0
  -22.2423  -17.5834   20.0751 C   0  0  0  0  0  0  0  0  0  0  0  0
  -26.0590  -21.7353   23.1469 C   0  0  0  0  0  0  0  0  0  0  0  0
  -24.9859  -33.6981   25.0798 C   0  0  0  0  0  0  0  0  0  0  0  0
  -24.6804  -28.2944   20.6809 C   0  0  0  0  0  0  0  0  0  0  0  0
  -23.3039  -26.1614   20.4301 C   0  0  0  0  0  0  0  0  0  0  0  0
  -29.2779  -11.4328   19.7814 C   0  0  0  0  0  0  0  0  0  0  0  0
  -22.4340  -15.1782   19.8798 C   0  0  0  0  0  0  0  0  0  0  0  0
  -28.1133  -11.8849   20.4307 C   0  0  0  0  0  0  0  0  0  0  0  0
  -22.8186  -16.4603   19.4622 C   0  0  0  0  0  0  0  0  0  0  0  0
  -23.7845  -21.2421   22.4985 C   0  0  0  0  0  0  0  0  0  0  0  0
  -26.5116  -21.2723   21.9114 C   0  0  0  0  0  0  0  0  0  0  0  0
  -25.0456  -30.9758   21.3587 C   0  0  0  0  0  0  0  0  0  0  0  0
  -21.2874  -17.4333   21.0804 C   0  0  0  0  0  0  0  0  0  0  0  0
  -24.6901  -32.7232   22.8892 C   0  0  0  0  0  0  0  0  0  0  0  0
  -23.6123  -33.6084   25.3052 C   0  0  0  0  0  0  0  0  0  0  0  0
  -24.6955  -21.7201   23.4405 C   0  0  0  0  0  0  0  0  0  0  0  0
  -25.5248  -33.2555   23.8718 C   0  0  0  0  0  0  0  0  0  0  0  0
  -24.4921  -26.9097   20.3302 C   0  0  0  0  0  0  0  0  0  0  0  0
  -23.6464  -24.9110   19.9766 C   0  0  0  0  0  0  0  0  0  0  0  0
  -22.0065  -26.5609   20.8914 C   0  0  0  0  0  0  0  0  0  0  0  0
  -25.4841  -14.3365   19.5765 C   0  0  0  0  0  0  0  0  0  0  0  0
  -25.0843  -15.4429   16.5536 C   0  0  0  0  0  0  0  0  0  0  0  0
  -23.3615  -17.4675   14.4135 C   0  0  0  0  0  0  0  0  0  0  0  0
  -28.4282  -21.4453   20.3027 C   0  0  0  0  0  0  0  0  0  0  0  0
  -30.1561  -12.3663   18.9864 C   0  0  0  0  0  0  0  0  0  0  0  0
  -23.0169  -13.9566   19.2238 C   0  0  0  0  0  0  0  0  0  0  0  0
  -23.8422  -16.6670   18.3768 C   0  0  0  0  0  0  0  0  0  0  0  0
  -29.4632  -13.6690   18.5951 C   0  0  0  0  0  0  0  0  0  0  0  0
  -27.2623  -23.0528   17.1802 C   0  0  0  0  0  0  0  0  0  0  0  0
  -21.3064  -19.5646   25.9689 C   0  0  0  0  0  0  0  0  0  0  0  0
  -28.7291  -14.2638   19.7926 C   0  0  0  0  0  0  0  0  0  0  0  0
  -26.3866  -24.1946   17.6929 C   0  0  0  0  0  0  0  0  0  0  0  0
  -20.0197  -19.7247   25.1795 C   0  0  0  0  0  0  0  0  0  0  0  0
  -28.3675  -22.6981   18.1703 C   0  0  0  0  0  0  0  0  0  0  0  0
  -26.9831  -23.5216   20.0536 C   0  0  0  0  0  0  0  0  0  0  0  0
  -22.2828  -20.4248   25.1986 C   0  0  0  0  0  0  0  0  0  0  0  0
  -27.6354  -13.3145   20.2965 C   0  0  1  0  0  0  0  0  0  0  0  0
  -24.3720  -14.2169   18.5732 C   0  0  1  0  0  0  0  0  0  0  0  0
  -25.8373  -23.8707   19.0920 C   0  0  1  0  0  0  0  0  0  0  0  0
  -20.4562  -19.7509   23.7148 C   0  0  2  0  0  0  0  0  0  0  0  0
  -23.2900  -18.1873   12.0106 C   0  0  0  0  0  0  0  0  0  0  0  0
  -29.0761  -19.3660   22.5993 C   0  0  0  0  0  0  0  0  0  0  0  0
  -30.1677  -21.6301   22.5243 C   0  0  0  0  0  0  0  0  0  0  0  0
  -27.5181  -17.2238   17.0172 C   0  0  0  0  0  0  0  0  0  0  0  0
  -26.8334  -18.5618   15.0149 C   0  0  0  0  0  0  0  0  0  0  0  0
  -27.4247  -16.1518   14.7596 C   0  0  0  0  0  0  0  0  0  0  0  0
  -20.6194  -16.4120   14.0582 C   0  0  0  0  0  0  0  0  0  0  0  0
  -22.3172  -21.2222   22.8110 C   0  0  0  0  0  0  0  0  0  0  0  0
  -20.3157  -18.4027   23.0225 C   0  0  0  0  0  0  0  0  0  1  0  0
  -25.2451  -16.7819   15.8751 C   0  0  1  0  0  0  0  0  0  0  0  0
  -22.7596  -17.2063   13.0446 C   0  0  2  0  0  0  0  0  0  0  0  0
  -28.8527  -20.8722   22.6527 C   0  0  0  0  0  0  0  0  0  0  0  0
  -26.7374  -17.1763   15.6885 C   0  0  0  0  0  0  0  0  0  0  0  0
  -25.5132  -26.1943   19.8511 N   0  0  0  0  0  0  0  0  0  0  0  0
  -24.9676  -24.9834   19.6459 N   0  0  0  0  0  0  0  0  0  0  0  0
  -24.3877  -15.4414   17.7704 N   0  0  0  0  0  0  0  0  0  0  0  0
  -27.8360  -22.4512   19.5116 N   0  0  0  0  0  0  0  0  0  0  0  0
  -22.9433  -23.7676   19.8326 N   0  0  0  0  0  0  0  0  0  0  0  0
  -21.8282  -27.8828   21.3217 N   0  0  0  0  0  0  0  0  0  0  0  0
  -26.4729  -13.3813   19.4371 N   0  0  0  0  0  0  0  0  0  0  0  0
  -24.4879  -16.7025   14.6306 N   0  0  0  0  0  0  0  0  0  0  0  0
  -27.9215  -21.2899   21.6070 N   0  0  0  0  0  0  0  0  0  0  0  0
  -21.9345  -20.1298   23.7584 N   0  3  1  0  0  0  0  0  0  0  0  0
  -21.2759  -17.3359   13.0977 N   0  3  0  0  0  0  0  0  0  0  0  0
  -21.0382  -25.7647   20.9367 O   0  0  0  0  0  0  0  0  0  0  0  0
  -25.4486  -15.2303   20.4142 O   0  0  0  0  0  0  0  0  0  0  0  0
  -25.5530  -14.4344   16.0199 O   0  0  0  0  0  0  0  0  0  0  0  0
  -22.8825  -18.2726   15.2091 O   0  0  0  0  0  0  0  0  0  0  0  0
  -29.3806  -20.7686   19.8957 O   0  0  0  0  0  0  0  0  0  0  0  0
  -25.2235  -32.2842   21.6890 O   0  0  0  0  0  0  0  0  0  0  0  0
  -20.7356  -18.5314   21.6648 O   0  0  0  0  0  0  0  0  0  1  0  0
  -23.0945  -34.0348   26.4647 F   0  0  0  0  0  0  0  0  0  0  0  0
  -24.2702  -22.1670   24.6304 F   0  0  0  0  0  0  0  0  0  0  0  0
  -26.8451  -33.3453   23.6605 F   0  0  0  0  0  0  0  0  0  0  0  0
  1  2  1  0  0  0  0
  1  5  2  0  0  0  0
  2  6  2  0  0  0  0
  3 10  2  0  0  0  0
  3 18  1  0  0  0  0
  4 11  1  0  0  0  0
  4 18  2  0  0  0  0
  5 20  1  0  0  0  0
  6 22  1  0  0  0  0
  7 12  2  0  0  0  0
  7 21  1  0  0  0  0
  8  9  2  0  0  0  0
  8 24  1  0  0  0  0
  9 25  1  0  0  0  0
 10 26  1  0  0  0  0
 11 26  2  0  0  0  0
 12 27  1  0  0  0  0
 13 14  2  0  0  0  0
 13 28  1  0  0  0  0
 14 29  1  0  0  0  0
 15 23  1  0  0  0  0
 15 27  2  0  0  0  0
 16 25  2  0  0  0  0
 16 30  1  0  0  0  0
 17 29  2  0  0  0  0
 17 31  1  0  0  0  0
 18 32  1  0  0  0  0
 19 32  1  0  0  0  0
 19 33  2  0  0  0  0
 19 34  1  0  0  0  0
 20 22  2  0  0  0  0
 20 39  1  0  0  0  0
 21 23  2  0  0  0  0
 21 40  1  0  0  0  0
 22 51  1  0  0  0  0
 23 41  1  0  0  0  0
 24 30  2  0  0  0  0
 24 62  1  0  0  0  0
 25 76  1  0  0  0  0
 26 84  1  0  0  0  0
 27 85  1  0  0  0  0
 28 31  2  0  0  0  0
 28 84  1  0  0  0  0
 29 86  1  0  0  0  0
 30 87  1  0  0  0  0
 31 88  1  0  0  0  0
 32 68  2  0  0  0  0
 33 69  1  0  0  0  0
 33 72  1  0  0  0  0
 34 73  1  0  0  0  0
 34 79  2  0  0  0  0
 35 52  1  0  0  0  0
 35 74  1  0  0  0  0
 35 80  2  0  0  0  0
 36 64  1  0  0  0  0
 36 70  1  0  0  0  0
 36 81  2  0  0  0  0
 37 65  1  0  0  0  0
 37 75  1  0  0  0  0
 37 82  2  0  0  0  0
 38 71  1  0  0  0  0
 38 76  1  0  0  0  0
 38 83  2  0  0  0  0
 39 42  1  0  0  0  0
 40 52  1  0  0  0  0
 41 70  1  0  0  0  0
 42 45  1  0  0  0  0
 43 46  1  0  0  0  0
 43 48  1  0  0  0  0
 44 47  1  0  0  0  0
 44 50  1  0  0  0  0
 45 51  1  0  0  0  0
 46 53  1  0  0  0  0
 47 54  1  0  0  0  0
 48 71  1  0  0  0  0
 49 53  1  0  0  0  0
 49 71  1  0  0  0  0
 50 77  1  0  0  0  0
 51 74  1  0  0  0  0
 52 70  1  0  0  0  0
 53 69  1  0  0  0  0
 54 63  1  0  0  0  0
 54 77  1  0  0  0  0
 55 65  1  0  0  0  0
 56 66  1  0  0  0  0
 57 66  1  0  0  0  0
 58 67  1  0  0  0  0
 59 67  1  0  0  0  0
 60 67  1  0  0  0  0
 61 78  1  0  0  0  0
 62 77  1  0  0  0  0
 63 85  1  0  0  0  0
 64 67  1  0  0  0  0
 64 75  1  0  0  0  0
 65 78  1  0  0  0  0
 66 76  1  0  0  0  0
 68 69  1  0  0  0  0
M  CHG  2  77   1  78   1
M  ISO  4  38 100  63 101  76 100  85 101
M  END
> <Batch ID>
0017

> <Smiles>
CNC(C)C(=O)NC(C(=O)N1Cc2cc([101O:1][101CH2:1]C3CCCN3Cc3ccc([100N:0](C(C)C)[100C:0](=O)N4CCCC(n5nc(-c6ccc(Oc7ccc(F)cc7F)cc6)c(C(N)=O)c5N)C4)cc3F)ccc2CC1C(=O)NC1CCCc2ccccc21)C(C)(C)C

> <Shape>
0.162

> <Color>
0.069

> <Negative vol penalty>
0.000

$$$$

  -OEChem-04042321003D

 82 90  0     1  0  0  0  0  0999 V2000
  -24.5775  -25.9682   36.9384 C   0  0  0  0  0  0  0  0  0  0  0  0
  -25.5147  -25.5869   35.9837 C   0  0  0  0  0  0  0  0  0  0  0  0
  -23.0742   -9.8686   19.9404 C   0  0  0  0  0  0  0  0  0  0  0  0
  -23.8338   -9.8748   22.2338 C   0  0  0  0  0  0  0  0  0  0  0  0
  -23.8030  -25.0014   37.5783 C   0  0  0  0  0  0  0  0  0  0  0  0
  -25.6788  -24.2384   35.6690 C   0  0  0  0  0  0  0  0  0  0  0  0
  -27.0489  -21.8777   30.1866 C   0  0  0  0  0  0  0  0  0  0  0  0
  -29.8813  -17.4535   23.1395 C   0  0  0  0  0  0  0  0  0  0  0  0
  -32.0652  -16.6033   22.5523 C   0  0  0  0  0  0  0  0  0  0  0  0
  -30.4686  -18.3363   24.0458 C   0  0  0  0  0  0  0  0  0  0  0  0
  -32.6526  -17.4861   23.4585 C   0  0  0  0  0  0  0  0  0  0  0  0
  -22.3295   -8.7159   20.1901 C   0  0  0  0  0  0  0  0  0  0  0  0
  -23.0891   -8.7221   22.4836 C   0  0  0  0  0  0  0  0  0  0  0  0
  -28.2493  -21.4443   29.6254 C   0  0  0  0  0  0  0  0  0  0  0  0
  -19.8603   -7.9263   23.0857 C   0  0  0  0  0  0  0  0  0  0  0  0
  -19.1032   -7.8867   24.2564 C   0  0  0  0  0  0  0  0  0  0  0  0
  -27.7247  -19.1790   30.2674 C   0  0  0  0  0  0  0  0  0  0  0  0
  -20.3433   -5.9484   24.9928 C   0  0  0  0  0  0  0  0  0  0  0  0
  -23.8264  -10.4480   20.9622 C   0  0  0  0  0  0  0  0  0  0  0  0
  -24.1698  -12.9730   20.8425 C   0  0  0  0  0  0  0  0  0  0  0  0
  -23.9509  -23.6411   37.2643 C   0  0  0  0  0  0  0  0  0  0  0  0
  -26.1810  -20.9650   30.8032 C   0  0  0  0  0  0  0  0  0  0  0  0
  -24.9066  -23.2524   36.3062 C   0  0  0  0  0  0  0  0  0  0  0  0
  -26.5127  -19.6029   30.8335 C   0  0  0  0  0  0  0  0  0  0  0  0
  -30.6796  -16.5869   22.3928 C   0  0  0  0  0  0  0  0  0  0  0  0
  -31.8542  -18.3526   24.2053 C   0  0  0  0  0  0  0  0  0  0  0  0
  -22.3369   -8.1426   21.4617 C   0  0  0  0  0  0  0  0  0  0  0  0
  -28.5887  -20.0952   29.6683 C   0  0  0  0  0  0  0  0  0  0  0  0
  -20.8589   -6.9769   22.8684 C   0  0  0  0  0  0  0  0  0  0  0  0
  -19.3447   -6.8978   25.2101 C   0  0  0  0  0  0  0  0  0  0  0  0
  -21.1004   -5.9880   23.8220 C   0  0  0  0  0  0  0  0  0  0  0  0
  -24.5962  -11.6384   20.7047 C   0  0  0  0  0  0  0  0  0  0  0  0
  -25.2625  -13.7218   20.4795 C   0  0  0  0  0  0  0  0  0  0  0  0
  -22.8997  -13.4896   21.2614 C   0  0  0  0  0  0  0  0  0  0  0  0
  -25.0412  -20.5908   33.7467 C   0  0  0  0  0  0  0  0  0  0  0  0
  -23.2609  -18.2707   32.3432 C   0  0  0  0  0  0  0  0  0  0  0  0
  -22.8988  -16.0502   29.7771 C   0  0  0  0  0  0  0  0  0  0  0  0
  -30.7294  -14.7638   20.6550 C   0  0  0  0  0  0  0  0  0  0  0  0
  -23.1244  -22.6284   38.0165 C   0  0  0  0  0  0  0  0  0  0  0  0
  -24.8774  -21.4445   31.3802 C   0  0  0  0  0  0  0  0  0  0  0  0
  -25.6060  -18.5798   31.4657 C   0  0  0  0  0  0  0  0  0  0  0  0
  -23.0967  -21.2528   37.3554 C   0  0  0  0  0  0  0  0  0  0  0  0
  -29.6137  -12.3509   18.2863 C   0  0  0  0  0  0  0  0  0  0  0  0
  -24.5037  -20.8288   36.9462 C   0  0  0  0  0  0  0  0  0  0  0  0
  -28.1738  -12.0603   18.7157 C   0  0  0  0  0  0  0  0  0  0  0  0
  -30.5288  -12.5790   19.4881 C   0  0  0  0  0  0  0  0  0  0  0  0
  -28.6222  -13.3046   20.8692 C   0  0  0  0  0  0  0  0  0  0  0  0
  -25.0964  -21.8016   35.9197 C   0  0  1  0  0  0  0  0  0  0  0  0
  -24.3094  -20.5026   32.4374 C   0  0  1  0  0  0  0  0  0  0  0  0
  -27.6494  -13.1321   19.6912 C   0  0  2  0  0  0  0  0  0  0  0  0
  -21.3598  -14.2622   28.9215 C   0  0  0  0  0  0  0  0  0  0  0  0
  -24.3109  -16.3522   34.4708 C   0  0  0  0  0  0  0  0  0  0  0  0
  -23.5309  -14.4504   33.0413 C   0  0  0  0  0  0  0  0  0  0  0  0
  -21.8810  -16.0919   33.9392 C   0  0  0  0  0  0  0  0  0  0  0  0
  -33.8988  -19.2575   25.2828 C   0  0  0  0  0  0  0  0  0  0  0  0
  -22.3889  -17.5290   27.2647 C   0  0  0  0  0  0  0  0  0  0  0  0
  -31.0777  -19.4702   27.1260 C   0  0  0  0  0  0  0  0  0  0  0  0
  -31.6493  -20.1604   25.8935 C   0  0  0  0  0  0  0  0  0  0  0  0
  -30.2643  -20.4084   28.0099 C   0  0  0  0  0  0  0  0  0  1  0  0
  -23.4431  -16.7954   32.0799 C   0  0  1  0  0  0  0  0  0  0  0  0
  -21.7197  -15.7390   28.8731 C   0  0  2  0  0  0  0  0  0  0  0  0
  -23.3097  -15.9418   33.3725 C   0  0  0  0  0  0  0  0  0  0  0  0
  -25.8611  -11.5418   20.2866 N   0  0  0  0  0  0  0  0  0  0  0  0
  -26.2389  -12.8251   20.1585 N   0  0  0  0  0  0  0  0  0  0  0  0
  -24.3456  -19.0989   32.0218 N   0  0  0  0  0  0  0  0  0  0  0  0
  -29.9704  -13.6101   20.3655 N   0  0  0  0  0  0  0  0  0  0  0  0
  -25.4738  -15.0531   20.4067 N   0  0  0  0  0  0  0  0  0  0  0  0
  -21.8871  -12.5810   21.5984 N   0  0  0  0  0  0  0  0  0  0  0  0
  -30.0825  -15.6891   21.4734 N   0  0  0  0  0  0  0  0  0  0  0  0
  -24.5421  -21.5505   34.6066 N   0  0  0  0  0  0  0  0  0  0  0  0
  -22.4892  -16.4469   31.0325 N   0  0  0  0  0  0  0  0  0  0  0  0
  -32.4443  -19.2409   25.1159 N   0  0  3  0  0  0  0  0  0  0  0  0
  -22.0393  -16.0988   27.4626 N   0  3  0  0  0  0  0  0  0  0  0  0
  -22.6642  -14.7203   21.3188 O   0  0  0  0  0  0  0  0  0  0  0  0
  -25.9876  -19.8425   33.9616 O   0  0  0  0  0  0  0  0  0  0  0  0
  -22.1927  -18.6743   32.8100 O   0  0  0  0  0  0  0  0  0  0  0  0
  -24.0666  -15.9477   29.4078 O   0  0  0  0  0  0  0  0  0  0  0  0
  -31.8586  -14.9318   20.1875 O   0  0  0  0  0  0  0  0  0  0  0  0
  -21.6102   -7.0180   21.7058 O   0  0  0  0  0  0  0  0  0  0  0  0
  -29.7601  -19.6697   29.1219 O   0  0  0  0  0  0  0  0  0  1  0  0
  -18.6186   -6.8609   26.3350 F   0  0  0  0  0  0  0  0  0  0  0  0
  -22.0591   -5.0739   23.6194 F   0  0  0  0  0  0  0  0  0  0  0  0
  1  2  1  0  0  0  0
  1  5  2  0  0  0  0
  2  6  2  0  0  0  0
  3 12  2  0  0  0  0
  3 19  1  0  0  0  0
  4 13  1  0  0  0  0
  4 19  2  0  0  0  0
  5 21  1  0  0  0  0
  6 23  1  0  0  0  0
  7 14  2  0  0  0  0
  7 22  1  0  0  0  0
  8 10  2  0  0  0  0
  8 25  1  0  0  0  0
  9 11  1  0  0  0  0
  9 25  2  0  0  0  0
 10 26  1  0  0  0  0
 11 26  2  0  0  0  0
 12 27  1  0  0  0  0
 13 27  2  0  0  0  0
 14 28  1  0  0  0  0
 15 16  2  0  0  0  0
 15 29  1  0  0  0  0
 16 30  1  0  0  0  0
 17 24  1  0  0  0  0
 17 28  2  0  0  0  0
 18 30  2  0  0  0  0
 18 31  1  0  0  0  0
 19 32  1  0  0  0  0
 20 32  1  0  0  0  0
 20 33  2  0  0  0  0
 20 34  1  0  0  0  0
 21 23  2  0  0  0  0
 21 39  1  0  0  0  0
 22 24  2  0  0  0  0
 22 40  1  0  0  0  0
 23 48  1  0  0  0  0
 24 41  1  0  0  0  0
 25 69  1  0  0  0  0
 26 72  1  0  0  0  0
 27 79  1  0  0  0  0
 28 80  1  0  0  0  0
 29 31  2  0  0  0  0
 29 79  1  0  0  0  0
 30 81  1  0  0  0  0
 31 82  1  0  0  0  0
 32 63  2  0  0  0  0
 33 64  1  0  0  0  0
 33 67  1  0  0  0  0
 34 68  1  0  0  0  0
 34 74  2  0  0  0  0
 35 49  1  0  0  0  0
 35 70  1  0  0  0  0
 35 75  2  0  0  0  0
 36 60  1  0  0  0  0
 36 65  1  0  0  0  0
 36 76  2  0  0  0  0
 37 61  1  0  0  0  0
 37 71  1  0  0  0  0
 37 77  2  0  0  0  0
 38 66  1  0  0  0  0
 38 69  1  0  0  0  0
 38 78  2  0  0  0  0
 39 42  1  0  0  0  0
 40 49  1  0  0  0  0
 41 65  1  0  0  0  0
 42 44  1  0  0  0  0
 43 45  1  0  0  0  0
 43 46  1  0  0  0  0
 44 48  1  0  0  0  0
 45 50  1  0  0  0  0
 46 66  1  0  0  0  0
 47 50  1  0  0  0  0
 47 66  1  0  0  0  0
 48 70  1  0  0  0  0
 49 65  1  0  0  0  0
 50 64  1  0  0  0  0
 51 61  1  0  0  0  0
 52 62  1  0  0  0  0
 53 62  1  0  0  0  0
 54 62  1  0  0  0  0
 55 72  1  0  0  0  0
 56 73  1  0  0  0  0
 57 58  1  0  0  0  0
 57 59  1  0  0  0  0
 58 72  1  0  0  0  0
 59 80  1  0  0  0  0
 60 62  1  0  0  0  0
 60 71  1  0  0  0  0
 61 73  1  0  0  0  0
 63 64  1  0  0  0  0
M  CHG  1  73   1
M  ISO  4  38 100  59 101  69 100  80 101
M  END
> <Batch ID>
0017

> <Smiles>
CNC(C)C(=O)NC(C(=O)N1Cc2cc([101O:1][101CH2:1]CCN(C)c3ccc([100NH:0][100C:0](=O)N4CCCC(n5nc(-c6ccc(Oc7ccc(F)cc7F)cc6)c(C(N)=O)c5N)C4)cc3)ccc2CC1C(=O)NC1CCCc2ccccc21)C(C)(C)C

> <Shape>
0.167

> <Color>
0.200

> <Negative vol penalty>
0.000

$$$$

  -OEChem-04042321003D

 85 93  0     1  0  0  0  0  0999 V2000
  -17.6779  -15.2647   21.6092 C   0  0  0  0  0  0  0  0  0  0  0  0
  -18.8392  -16.0278   21.6768 C   0  0  0  0  0  0  0  0  0  0  0  0
  -25.4770  -29.2076   21.7782 C   0  0  0  0  0  0  0  0  0  0  0  0
  -24.1196  -30.4215   20.1904 C   0  0  0  0  0  0  0  0  0  0  0  0
  -17.7085  -13.9176   21.9676 C   0  0  0  0  0  0  0  0  0  0  0  0
  -20.0315  -15.4445   22.1040 C   0  0  0  0  0  0  0  0  0  0  0  0
  -23.9724  -16.7237   19.1922 C   0  0  0  0  0  0  0  0  0  0  0  0
  -30.0374  -24.4900   19.1327 C   0  0  0  0  0  0  0  0  0  0  0  0
  -28.9814  -23.5870   19.2552 C   0  0  0  0  0  0  0  0  0  0  0  0
  -25.0379  -30.0511   22.7986 C   0  0  0  0  0  0  0  0  0  0  0  0
  -23.6804  -31.2650   21.2109 C   0  0  0  0  0  0  0  0  0  0  0  0
  -24.5275  -17.9870   19.3912 C   0  0  0  0  0  0  0  0  0  0  0  0
  -25.7173  -33.1664   23.9200 C   0  0  0  0  0  0  0  0  0  0  0  0
  -26.6728  -33.6596   24.8085 C   0  0  0  0  0  0  0  0  0  0  0  0
  -26.2926  -16.9979   20.7048 C   0  0  0  0  0  0  0  0  0  0  0  0
  -29.6102  -24.6682   16.7615 C   0  0  0  0  0  0  0  0  0  0  0  0
  -25.5098  -32.6047   26.6448 C   0  0  0  0  0  0  0  0  0  0  0  0
  -25.0180  -29.3929   20.4741 C   0  0  0  0  0  0  0  0  0  0  0  0
  -24.8813  -27.3148   19.0008 C   0  0  0  0  0  0  0  0  0  0  0  0
  -18.9040  -13.3151   22.3901 C   0  0  0  0  0  0  0  0  0  0  0  0
  -24.5681  -15.5873   19.7581 C   0  0  0  0  0  0  0  0  0  0  0  0
  -20.0779  -14.0884   22.4696 C   0  0  0  0  0  0  0  0  0  0  0  0
  -25.7445  -15.7210   20.5093 C   0  0  0  0  0  0  0  0  0  0  0  0
  -30.3518  -25.0307   17.8859 C   0  0  0  0  0  0  0  0  0  0  0  0
  -28.2398  -23.2246   18.1308 C   0  0  0  0  0  0  0  0  0  0  0  0
  -24.1395  -31.0798   22.5150 C   0  0  0  0  0  0  0  0  0  0  0  0
  -25.6862  -18.1246   20.1500 C   0  0  0  0  0  0  0  0  0  0  0  0
  -24.6580  -32.3924   24.3939 C   0  0  0  0  0  0  0  0  0  0  0  0
  -26.5691  -33.3787   26.1708 C   0  0  0  0  0  0  0  0  0  0  0  0
  -28.5541  -23.7652   16.8839 C   0  0  0  0  0  0  0  0  0  0  0  0
  -24.5542  -32.1115   25.7562 C   0  0  0  0  0  0  0  0  0  0  0  0
  -25.4717  -28.5222   19.4195 C   0  0  0  0  0  0  0  0  0  0  0  0
  -25.6852  -26.8764   17.9771 C   0  0  0  0  0  0  0  0  0  0  0  0
  -23.7108  -26.6491   19.4932 C   0  0  0  0  0  0  0  0  0  0  0  0
  -23.6568  -13.3929   21.8694 C   0  0  0  0  0  0  0  0  0  0  0  0
  -26.4772  -12.0082   21.0630 C   0  0  0  0  0  0  0  0  0  0  0  0
  -27.2056  -21.2972   19.2663 C   0  0  0  0  0  0  0  0  0  0  0  0
  -29.6335  -12.3750   19.8180 C   0  0  0  0  0  0  0  0  0  0  0  0
  -31.4786  -26.9858   16.7908 C   0  0  0  0  0  0  0  0  0  0  0  0
  -18.8775  -11.8675   22.8124 C   0  0  0  0  0  0  0  0  0  0  0  0
  -23.9718  -14.2286   19.5118 C   0  0  0  0  0  0  0  0  0  0  0  0
  -26.4341  -14.5301   21.1214 C   0  0  0  0  0  0  0  0  0  0  0  0
  -20.2630  -11.2322   22.8967 C   0  0  0  0  0  0  0  0  0  0  0  0
  -28.9620  -28.9664   14.9370 C   0  0  0  0  0  0  0  0  0  0  0  0
  -21.2272  -12.1509   23.6405 C   0  0  0  0  0  0  0  0  0  0  0  0
  -27.7828  -29.0100   15.9071 C   0  0  0  0  0  0  0  0  0  0  0  0
  -30.2945  -28.8465   15.6702 C   0  0  0  0  0  0  0  0  0  0  0  0
  -29.1766  -27.7244   17.5761 C   0  0  0  0  0  0  0  0  0  0  0  0
  -21.3960  -13.4856   22.9044 C   0  0  1  0  0  0  0  0  0  0  0  0
  -24.3747  -13.1997   20.5637 C   0  0  1  0  0  0  0  0  0  0  0  0
  -27.8199  -27.8043   16.8605 C   0  0  1  0  0  0  0  0  0  0  0  0
  -33.5135  -24.6276   17.7895 C   0  0  0  0  0  0  0  0  0  0  0  0
  -31.7169  -11.0696   19.3154 C   0  0  0  0  0  0  0  0  0  0  0  0
  -27.1565  -11.9519   24.0371 C   0  0  0  0  0  0  0  0  0  0  0  0
  -29.5467  -11.5462   23.4123 C   0  0  0  0  0  0  0  0  0  0  0  0
  -27.7955   -9.8854   22.7818 C   0  0  0  0  0  0  0  0  0  0  0  0
  -26.0004  -22.3924   17.3416 C   0  0  0  0  0  0  0  0  0  0  0  0
  -29.4813  -13.0205   16.9337 C   0  0  0  0  0  0  0  0  0  0  0  0
  -26.0369  -20.3235   19.3147 C   0  0  0  0  0  0  0  0  0  1  0  0
  -32.6767  -25.6788   18.4902 C   0  0  0  0  0  0  0  0  0  0  0  0
  -27.8968  -12.1010   21.5682 C   0  0  1  0  0  0  0  0  0  0  0  0
  -30.3986  -11.5924   18.7661 C   0  0  2  0  0  0  0  0  0  0  0  0
  -28.0850  -11.3940   22.9401 C   0  0  0  0  0  0  0  0  0  0  0  0
  -26.5663  -28.8311   18.7190 N   0  0  0  0  0  0  0  0  0  0  0  0
  -26.6701  -27.8113   17.8500 N   0  0  0  0  0  0  0  0  0  0  0  0
  -25.8091  -13.2236   20.8574 N   0  0  0  0  0  0  0  0  0  0  0  0
  -30.2941  -27.7310   16.6180 N   0  0  0  0  0  0  0  0  0  0  0  0
  -25.6386  -25.7862   17.1822 N   0  0  0  0  0  0  0  0  0  0  0  0
  -23.0023  -27.2373   20.5498 N   0  0  0  0  0  0  0  0  0  0  0  0
  -22.2801  -13.3285   21.7694 N   0  0  0  0  0  0  0  0  0  0  0  0
  -28.7441  -11.5748   20.5035 N   0  0  0  0  0  0  0  0  0  0  0  0
  -27.1437  -22.2859   18.2611 N   0  0  0  0  0  0  0  0  0  0  0  0
  -31.4443  -25.9641   17.7589 N   0  0  0  0  0  0  0  0  0  0  0  0
  -30.6903  -12.4567   17.5876 N   0  3  0  0  0  0  0  0  0  0  0  0
  -23.3145  -25.5564   19.0214 O   0  0  0  0  0  0  0  0  0  0  0  0
  -24.3040  -13.5847   22.8921 O   0  0  0  0  0  0  0  0  0  0  0  0
  -25.9819  -10.8984   20.8517 O   0  0  0  0  0  0  0  0  0  0  0  0
  -28.1320  -21.1527   20.0679 O   0  0  0  0  0  0  0  0  0  0  0  0
  -29.8099  -13.5753   20.0146 O   0  0  0  0  0  0  0  0  0  0  0  0
  -32.5137  -27.2479   16.1659 O   0  0  0  0  0  0  0  0  0  0  0  0
  -23.7106  -31.9029   23.5105 O   0  0  0  0  0  0  0  0  0  0  0  0
  -26.2297  -19.3566   20.3463 O   0  0  0  0  0  0  0  0  0  1  0  0
  -27.4876  -33.8511   27.0237 F   0  0  0  0  0  0  0  0  0  0  0  0
  -27.8491  -23.4229   15.7960 F   0  0  0  0  0  0  0  0  0  0  0  0
  -23.5395  -31.3676   26.2173 F   0  0  0  0  0  0  0  0  0  0  0  0
  1  2  1  0  0  0  0
  1  5  2  0  0  0  0
  2  6  2  0  0  0  0
  3 10  2  0  0  0  0
  3 18  1  0  0  0  0
  4 11  1  0  0  0  0
  4 18  2  0  0  0  0
  5 20  1  0  0  0  0
  6 22  1  0  0  0  0
  7 12  2  0  0  0  0
  7 21  1  0  0  0  0
  8  9  2  0  0  0  0
  8 24  1  0  0  0  0
  9 25  1  0  0  0  0
 10 26  1  0  0  0  0
 11 26  2  0  0  0  0
 12 27  1  0  0  0  0
 13 14  2  0  0  0  0
 13 28  1  0  0  0  0
 14 29  1  0  0  0  0
 15 23  1  0  0  0  0
 15 27  2  0  0  0  0
 16 24  2  0  0  0  0
 16 30  1  0  0  0  0
 17 29  2  0  0  0  0
 17 31  1  0  0  0  0
 18 32  1  0  0  0  0
 19 32  1  0  0  0  0
 19 33  2  0  0  0  0
 19 34  1  0  0  0  0
 20 22  2  0  0  0  0
 20 40  1  0  0  0  0
 21 23  2  0  0  0  0
 21 41  1  0  0  0  0
 22 49  1  0  0  0  0
 23 42  1  0  0  0  0
 24 73  1  0  0  0  0
 25 30  2  0  0  0  0
 25 72  1  0  0  0  0
 26 81  1  0  0  0  0
 27 82  1  0  0  0  0
 28 31  2  0  0  0  0
 28 81  1  0  0  0  0
 29 83  1  0  0  0  0
 30 84  1  0  0  0  0
 31 85  1  0  0  0  0
 32 64  2  0  0  0  0
 33 65  1  0  0  0  0
 33 68  1  0  0  0  0
 34 69  1  0  0  0  0
 34 75  2  0  0  0  0
 35 50  1  0  0  0  0
 35 70  1  0  0  0  0
 35 76  2  0  0  0  0
 36 61  1  0  0  0  0
 36 66  1  0  0  0  0
 36 77  2  0  0  0  0
 37 59  1  0  0  0  0
 37 72  1  0  0  0  0
 37 78  2  0  0  0  0
 38 62  1  0  0  0  0
 38 71  1  0  0  0  0
 38 79  2  0  0  0  0
 39 67  1  0  0  0  0
 39 73  1  0  0  0  0
 39 80  2  0  0  0  0
 40 43  1  0  0  0  0
 41 50  1  0  0  0  0
 42 66  1  0  0  0  0
 43 45  1  0  0  0  0
 44 46  1  0  0  0  0
 44 47  1  0  0  0  0
 45 49  1  0  0  0  0
 46 51  1  0  0  0  0
 47 67  1  0  0  0  0
 48 51  1  0  0  0  0
 48 67  1  0  0  0  0
 49 70  1  0  0  0  0
 50 66  1  0  0  0  0
 51 65  1  0  0  0  0
 52 60  1  0  0  0  0
 53 62  1  0  0  0  0
 54 63  1  0  0  0  0
 55 63  1  0  0  0  0
 56 63  1  0  0  0  0
 57 72  1  0  0  0  0
 58 74  1  0  0  0  0
 59 82  1  0  0  0  0
 60 73  1  0  0  0  0
 61 63  1  0  0  0  0
 61 71  1  0  0  0  0
 62 74  1  0  0  0  0
 64 65  1  0  0  0  0
M  CHG  1  74   1
M  ISO  4  39 100  59 101  73 100  82 101
M  END
> <Batch ID>
0017

> <Smiles>
CC[100N:0](c1ccc(N(C)C(=O)[101CH2:1][101O:1]c2ccc3c(c2)CN(C(=O)C(NC(=O)C(C)NC)C(C)(C)C)C(C(=O)NC2CCCc4ccccc42)C3)c(F)c1)[100C:0](=O)N1CCCC(n2nc(-c3ccc(Oc4ccc(F)cc4F)cc3)c(C(N)=O)c2N)C1

> <Shape>
0.237

> <Color>
0.060

> <Negative vol penalty>
0.000

$$$$

  -OEChem-04042321003D

 84 92  0     1  0  0  0  0  0999 V2000
  -30.2161  -34.8306   22.7271 C   0  0  0  0  0  0  0  0  0  0  0  0
  -30.3075  -34.0174   21.6020 C   0  0  0  0  0  0  0  0  0  0  0  0
  -23.4117  -15.8910   20.9664 C   0  0  0  0  0  0  0  0  0  0  0  0
  -22.8032  -14.5995   19.0174 C   0  0  0  0  0  0  0  0  0  0  0  0
  -29.7042  -34.3165   23.9177 C   0  0  0  0  0  0  0  0  0  0  0  0
  -29.8881  -32.6892   21.6673 C   0  0  0  0  0  0  0  0  0  0  0  0
  -26.8981  -27.5746   17.6403 C   0  0  0  0  0  0  0  0  0  0  0  0
  -22.4686  -16.8585   20.6198 C   0  0  0  0  0  0  0  0  0  0  0  0
  -21.8600  -15.5670   18.6708 C   0  0  0  0  0  0  0  0  0  0  0  0
  -27.1052  -26.2522   17.2500 C   0  0  0  0  0  0  0  0  0  0  0  0
  -22.2241  -19.4293   18.4391 C   0  0  0  0  0  0  0  0  0  0  0  0
  -22.6117  -20.7671   18.5137 C   0  0  0  0  0  0  0  0  0  0  0  0
  -26.1639  -25.4949   19.3380 C   0  0  0  0  0  0  0  0  0  0  0  0
  -29.2504  -18.4415   20.6804 C   0  0  0  0  0  0  0  0  0  0  0  0
  -30.7648  -16.4874   19.3879 C   0  0  0  0  0  0  0  0  0  0  0  0
  -20.8619  -21.1842   20.1265 C   0  0  0  0  0  0  0  0  0  0  0  0
  -23.5790  -14.7615   20.1652 C   0  0  0  0  0  0  0  0  0  0  0  0
  -24.3518  -12.6303   21.3350 C   0  0  0  0  0  0  0  0  0  0  0  0
  -29.2693  -32.9840   23.9949 C   0  0  0  0  0  0  0  0  0  0  0  0
  -26.3314  -27.8677   18.8890 C   0  0  0  0  0  0  0  0  0  0  0  0
  -29.3711  -32.1564   22.8604 C   0  0  0  0  0  0  0  0  0  0  0  0
  -25.9483  -26.8218   19.7407 C   0  0  0  0  0  0  0  0  0  0  0  0
  -29.5929  -18.5996   19.3376 C   0  0  0  0  0  0  0  0  0  0  0  0
  -30.4223  -16.3294   20.7308 C   0  0  0  0  0  0  0  0  0  0  0  0
  -21.6928  -16.6965   19.4720 C   0  0  0  0  0  0  0  0  0  0  0  0
  -26.7408  -25.2122   18.1001 C   0  0  0  0  0  0  0  0  0  0  0  0
  -21.1553  -18.9689   19.2082 C   0  0  0  0  0  0  0  0  0  0  0  0
  -21.9306  -21.6446   19.3574 C   0  0  0  0  0  0  0  0  0  0  0  0
  -30.3501  -17.6225   18.6913 C   0  0  0  0  0  0  0  0  0  0  0  0
  -29.6651  -17.3064   21.3771 C   0  0  0  0  0  0  0  0  0  0  0  0
  -20.4743  -19.8463   20.0519 C   0  0  0  0  0  0  0  0  0  0  0  0
  -24.5535  -13.7620   20.5224 C   0  0  0  0  0  0  0  0  0  0  0  0
  -25.5752  -12.0068   21.3652 C   0  0  0  0  0  0  0  0  0  0  0  0
  -23.1647  -12.1827   22.0029 C   0  0  0  0  0  0  0  0  0  0  0  0
  -27.3084  -29.4151   21.4880 C   0  0  0  0  0  0  0  0  0  0  0  0
  -24.2556  -28.9099   22.4615 C   0  0  0  0  0  0  0  0  0  0  0  0
  -21.4058  -27.0488   22.2129 C   0  0  0  0  0  0  0  0  0  0  0  0
  -31.0453  -13.9211   20.7901 C   0  0  0  0  0  0  0  0  0  0  0  0
  -28.7671  -32.4597   25.3168 C   0  0  0  0  0  0  0  0  0  0  0  0
  -26.0900  -29.2989   19.2839 C   0  0  0  0  0  0  0  0  0  0  0  0
  -25.3176  -27.0829   21.0832 C   0  0  0  0  0  0  0  0  0  0  0  0
  -27.9961  -31.1475   25.1985 C   0  0  0  0  0  0  0  0  0  0  0  0
  -29.5444  -11.4040   18.7767 C   0  0  0  0  0  0  0  0  0  0  0  0
  -28.7486  -30.1649   24.3069 C   0  0  0  0  0  0  0  0  0  0  0  0
  -28.0610  -11.6242   19.0713 C   0  0  0  0  0  0  0  0  0  0  0  0
  -30.3082  -12.7240   18.6664 C   0  0  0  0  0  0  0  0  0  0  0  0
  -28.6527  -13.8376   20.1305 C   0  0  0  0  0  0  0  0  0  0  0  0
  -28.9034  -30.7173   22.8848 C   0  0  1  0  0  0  0  0  0  0  0  0
  -25.9784  -29.4915   20.7932 C   0  0  1  0  0  0  0  0  0  0  0  0
  -27.8707  -12.5261   20.3036 C   0  0  1  0  0  0  0  0  0  0  0  0
  -19.0911  -26.8543   23.1623 C   0  0  0  0  0  0  0  0  0  0  0  0
  -25.4035  -27.6621   24.9983 C   0  0  0  0  0  0  0  0  0  0  0  0
  -23.1530  -26.6576   25.4391 C   0  0  0  0  0  0  0  0  0  0  0  0
  -23.4179  -29.1370   25.3675 C   0  0  0  0  0  0  0  0  0  0  0  0
  -31.3308  -15.3135   22.8286 C   0  0  0  0  0  0  0  0  0  0  0  0
  -20.1575  -27.5145   19.5703 C   0  0  0  0  0  0  0  0  0  0  0  0
  -28.0569  -21.8497   18.1997 C   0  0  0  0  0  0  0  0  0  0  0  0
  -28.3954  -20.7862   19.2373 C   0  0  0  0  0  0  0  0  0  0  0  0
  -27.1894  -22.9714   18.7585 C   0  0  0  0  0  0  0  0  0  1  0  0
  -23.5416  -27.8147   23.2162 C   0  0  1  0  0  0  0  0  0  0  0  0
  -19.9503  -27.4512   22.0586 C   0  0  2  0  0  0  0  0  0  0  0  0
  -23.8926  -27.8126   24.7309 C   0  0  0  0  0  0  0  0  0  0  0  0
  -25.8065  -13.8547   20.0692 N   0  0  0  0  0  0  0  0  0  0  0  0
  -26.4032  -12.7733   20.5989 N   0  0  0  0  0  0  0  0  0  0  0  0
  -25.1079  -28.4990   21.4268 N   0  0  0  0  0  0  0  0  0  0  0  0
  -30.0639  -13.5673   19.8451 N   0  0  0  0  0  0  0  0  0  0  0  0
  -26.0128  -10.8833   21.9722 N   0  0  0  0  0  0  0  0  0  0  0  0
  -21.9945  -12.9418   21.8661 N   0  0  0  0  0  0  0  0  0  0  0  0
  -29.1798  -19.7285   18.6474 N   0  0  0  0  0  0  0  0  0  0  0  0
  -27.6651  -30.5747   22.1495 N   0  0  0  0  0  0  0  0  0  0  0  0
  -22.1205  -27.9831   22.9325 N   0  0  0  0  0  0  0  0  0  0  0  0
  -30.8556  -15.1544   21.4499 N   0  0  0  0  0  0  0  0  0  0  0  0
  -19.4203  -26.9847   20.7462 N   0  3  0  0  0  0  0  0  0  0  0  0
  -23.1464  -11.1492   22.7136 O   0  0  0  0  0  0  0  0  0  0  0  0
  -27.9620  -28.3801   21.4296 O   0  0  0  0  0  0  0  0  0  0  0  0
  -24.0588  -30.0869   22.7737 O   0  0  0  0  0  0  0  0  0  0  0  0
  -21.8624  -26.0079   21.7454 O   0  0  0  0  0  0  0  0  0  0  0  0
  -32.0031  -13.1807   21.0441 O   0  0  0  0  0  0  0  0  0  0  0  0
  -20.7722  -17.6402   19.1336 O   0  0  0  0  0  0  0  0  0  0  0  0
  -26.9424  -23.9206   17.7220 O   0  0  0  0  0  0  0  0  0  1  0  0
  -22.3039  -22.9289   19.4301 F   0  0  0  0  0  0  0  0  0  0  0  0
  -30.6865  -17.7642   17.4013 F   0  0  0  0  0  0  0  0  0  0  0  0
  -29.3317  -17.1650   22.6679 F   0  0  0  0  0  0  0  0  0  0  0  0
  -19.4475  -19.4096   20.7941 F   0  0  0  0  0  0  0  0  0  0  0  0
  1  2  1  0  0  0  0
  1  5  2  0  0  0  0
  2  6  2  0  0  0  0
  3  8  2  0  0  0  0
  3 17  1  0  0  0  0
  4  9  1  0  0  0  0
  4 17  2  0  0  0  0
  5 19  1  0  0  0  0
  6 21  1  0  0  0  0
  7 10  2  0  0  0  0
  7 20  1  0  0  0  0
  8 25  1  0  0  0  0
  9 25  2  0  0  0  0
 10 26  1  0  0  0  0
 11 12  2  0  0  0  0
 11 27  1  0  0  0  0
 12 28  1  0  0  0  0
 13 22  1  0  0  0  0
 13 26  2  0  0  0  0
 14 23  1  0  0  0  0
 14 30  2  0  0  0  0
 15 24  2  0  0  0  0
 15 29  1  0  0  0  0
 16 28  2  0  0  0  0
 16 31  1  0  0  0  0
 17 32  1  0  0  0  0
 18 32  1  0  0  0  0
 18 33  2  0  0  0  0
 18 34  1  0  0  0  0
 19 21  2  0  0  0  0
 19 39  1  0  0  0  0
 20 22  2  0  0  0  0
 20 40  1  0  0  0  0
 21 48  1  0  0  0  0
 22 41  1  0  0  0  0
 23 29  2  0  0  0  0
 23 69  1  0  0  0  0
 24 30  1  0  0  0  0
 24 72  1  0  0  0  0
 25 79  1  0  0  0  0
 26 80  1  0  0  0  0
 27 31  2  0  0  0  0
 27 79  1  0  0  0  0
 28 81  1  0  0  0  0
 29 82  1  0  0  0  0
 30 83  1  0  0  0  0
 31 84  1  0  0  0  0
 32 63  2  0  0  0  0
 33 64  1  0  0  0  0
 33 67  1  0  0  0  0
 34 68  1  0  0  0  0
 34 74  2  0  0  0  0
 35 49  1  0  0  0  0
 35 70  1  0  0  0  0
 35 75  2  0  0  0  0
 36 60  1  0  0  0  0
 36 65  1  0  0  0  0
 36 76  2  0  0  0  0
 37 61  1  0  0  0  0
 37 71  1  0  0  0  0
 37 77  2  0  0  0  0
 38 66  1  0  0  0  0
 38 72  1  0  0  0  0
 38 78  2  0  0  0  0
 39 42  1  0  0  0  0
 40 49  1  0  0  0  0
 41 65  1  0  0  0  0
 42 44  1  0  0  0  0
 43 45  1  0  0  0  0
 43 46  1  0  0  0  0
 44 48  1  0  0  0  0
 45 50  1  0  0  0  0
 46 66  1  0  0  0  0
 47 50  1  0  0  0  0
 47 66  1  0  0  0  0
 48 70  1  0  0  0  0
 49 65  1  0  0  0  0
 50 64  1  0  0  0  0
 51 61  1  0  0  0  0
 52 62  1  0  0  0  0
 53 62  1  0  0  0  0
 54 62  1  0  0  0  0
 55 72  1  0  0  0  0
 56 73  1  0  0  0  0
 57 58  1  0  0  0  0
 57 59  1  0  0  0  0
 58 69  1  0  0  0  0
 59 80  1  0  0  0  0
 60 62  1  0  0  0  0
 60 71  1  0  0  0  0
 61 73  1  0  0  0  0
 63 64  1  0  0  0  0
M  CHG  1  73   1
M  ISO  4  38 100  59 101  72 100  80 101
M  END
> <Batch ID>
0017

> <Smiles>
CNC(C)C(=O)NC(C(=O)N1Cc2cc([101O:1][101CH2:1]CCNc3cc(F)c([100N:0](C)[100C:0](=O)N4CCCC(n5nc(-c6ccc(Oc7ccc(F)cc7F)cc6)c(C(N)=O)c5N)C4)cc3F)ccc2CC1C(=O)NC1CCCc2ccccc21)C(C)(C)C

> <Shape>
0.264

> <Color>
0.083

> <Negative vol penalty>
0.000

$$$$

  -OEChem-04042321003D

 84 92  0     1  0  0  0  0  0999 V2000
  -39.7175  -27.6508   22.0039 C   0  0  0  0  0  0  0  0  0  0  0  0
  -38.7136  -27.1016   21.2127 C   0  0  0  0  0  0  0  0  0  0  0  0
  -23.0742   -9.8789   19.9533 C   0  0  0  0  0  0  0  0  0  0  0  0
  -23.7535   -9.9482   22.2708 C   0  0  0  0  0  0  0  0  0  0  0  0
  -40.9801  -27.0602   22.0355 C   0  0  0  0  0  0  0  0  0  0  0  0
  -38.9721  -25.9620   20.4518 C   0  0  0  0  0  0  0  0  0  0  0  0
  -35.2625  -22.5296   20.7723 C   0  0  0  0  0  0  0  0  0  0  0  0
  -29.0289  -18.8467   20.8479 C   0  0  0  0  0  0  0  0  0  0  0  0
  -29.2805  -20.0664   20.2198 C   0  0  0  0  0  0  0  0  0  0  0  0
  -22.3254   -8.7298   20.2071 C   0  0  0  0  0  0  0  0  0  0  0  0
  -23.0046   -8.7991   22.5247 C   0  0  0  0  0  0  0  0  0  0  0  0
  -34.1125  -22.7627   20.0193 C   0  0  0  0  0  0  0  0  0  0  0  0
  -23.3243   -5.4649   22.0645 C   0  0  0  0  0  0  0  0  0  0  0  0
  -23.9172   -4.4609   22.8300 C   0  0  0  0  0  0  0  0  0  0  0  0
  -34.9000  -21.2120   18.3477 C   0  0  0  0  0  0  0  0  0  0  0  0
  -30.3022  -18.9012   18.3663 C   0  0  0  0  0  0  0  0  0  0  0  0
  -22.1567   -4.6723   24.4710 C   0  0  0  0  0  0  0  0  0  0  0  0
  -23.7884  -10.4881   20.9851 C   0  0  0  0  0  0  0  0  0  0  0  0
  -24.1270  -13.0105   20.8113 C   0  0  0  0  0  0  0  0  0  0  0  0
  -41.2514  -25.9072   21.2821 C   0  0  0  0  0  0  0  0  0  0  0  0
  -36.2466  -21.6427   20.3126 C   0  0  0  0  0  0  0  0  0  0  0  0
  -40.2399  -25.3562   20.4724 C   0  0  0  0  0  0  0  0  0  0  0  0
  -36.0603  -20.9674   19.0979 C   0  0  0  0  0  0  0  0  0  0  0  0
  -29.4141  -17.6542   20.2353 C   0  0  0  0  0  0  0  0  0  0  0  0
  -29.9171  -20.0937   18.9790 C   0  0  0  0  0  0  0  0  0  0  0  0
  -22.2905   -8.1900   21.4928 C   0  0  0  0  0  0  0  0  0  0  0  0
  -33.9325  -22.1061   18.8055 C   0  0  0  0  0  0  0  0  0  0  0  0
  -22.1476   -6.0727   22.5023 C   0  0  0  0  0  0  0  0  0  0  0  0
  -23.3335   -4.0646   24.0332 C   0  0  0  0  0  0  0  0  0  0  0  0
  -21.5638   -5.6764   23.7056 C   0  0  0  0  0  0  0  0  0  0  0  0
  -30.0507  -17.6815   18.9945 C   0  0  0  0  0  0  0  0  0  0  0  0
  -24.5626  -11.6747   20.7234 C   0  0  0  0  0  0  0  0  0  0  0  0
  -25.2290  -13.7544   20.4670 C   0  0  0  0  0  0  0  0  0  0  0  0
  -22.8412  -13.5323   21.1721 C   0  0  0  0  0  0  0  0  0  0  0  0
  -39.3109  -21.9114   19.5115 C   0  0  0  0  0  0  0  0  0  0  0  0
  -39.1240  -18.6832   19.2543 C   0  0  0  0  0  0  0  0  0  0  0  0
  -37.1774  -15.9241   18.7596 C   0  0  0  0  0  0  0  0  0  0  0  0
  -30.8079  -14.5041   21.2612 C   0  0  0  0  0  0  0  0  0  0  0  0
  -42.6452  -25.3317   21.3119 C   0  0  0  0  0  0  0  0  0  0  0  0
  -37.4690  -21.3818   21.1494 C   0  0  0  0  0  0  0  0  0  0  0  0
  -37.0774  -19.9902   18.5697 C   0  0  0  0  0  0  0  0  0  0  0  0
  -42.7283  -23.9085   20.7663 C   0  0  0  0  0  0  0  0  0  0  0  0
  -29.6529  -12.3818   18.4570 C   0  0  0  0  0  0  0  0  0  0  0  0
  -41.9624  -23.7950   19.4520 C   0  0  0  0  0  0  0  0  0  0  0  0
  -28.2109  -12.0659   18.8504 C   0  0  0  0  0  0  0  0  0  0  0  0
  -30.5326  -12.6303   19.6786 C   0  0  0  0  0  0  0  0  0  0  0  0
  -28.5674  -13.3649   20.9872 C   0  0  0  0  0  0  0  0  0  0  0  0
  -40.4743  -24.1063   19.6521 C   0  0  1  0  0  0  0  0  0  0  0  0
  -38.6455  -20.8478   20.3384 C   0  0  1  0  0  0  0  0  0  0  0  0
  -27.6441  -13.1550   19.7777 C   0  0  2  0  0  0  0  0  0  0  0  0
  -37.3143  -13.4260   18.5641 C   0  0  0  0  0  0  0  0  0  0  0  0
  -40.2488  -18.9681   16.4323 C   0  0  0  0  0  0  0  0  0  0  0  0
  -39.4807  -16.6314   15.9653 C   0  0  0  0  0  0  0  0  0  0  0  0
  -41.1834  -17.0517   17.7393 C   0  0  0  0  0  0  0  0  0  0  0  0
  -29.7656  -22.5710   18.9886 C   0  0  0  0  0  0  0  0  0  0  0  0
  -31.1837  -16.7285   22.2563 C   0  0  0  0  0  0  0  0  0  0  0  0
  -35.4221  -15.5278   21.1092 C   0  0  0  0  0  0  0  0  0  0  0  0
  -29.1274  -16.3686   20.9419 C   0  0  0  0  0  0  0  0  0  0  0  0
  -30.8389  -21.3829   17.0689 C   0  0  0  0  0  0  0  0  0  0  0  0
  -32.3420  -21.2588   17.2535 C   0  0  0  0  0  0  0  0  0  1  0  0
  -38.7786  -17.7171   18.1469 C   0  0  1  0  0  0  0  0  0  0  0  0
  -37.0956  -14.6027   19.5023 C   0  0  2  0  0  0  0  0  0  0  0  0
  -39.9044  -17.6119   17.0797 C   0  0  0  0  0  0  0  0  0  0  0  0
  -25.8415  -11.5728   20.3521 N   0  0  0  0  0  0  0  0  0  0  0  0
  -26.2190  -12.8541   20.2036 N   0  0  0  0  0  0  0  0  0  0  0  0
  -38.2587  -19.7737   19.4213 N   0  0  0  0  0  0  0  0  0  0  0  0
  -29.9490  -13.6383   20.5644 N   0  0  0  0  0  0  0  0  0  0  0  0
  -25.4380  -15.0843   20.3667 N   0  0  0  0  0  0  0  0  0  0  0  0
  -21.8207  -12.6283   21.4975 N   0  0  0  0  0  0  0  0  0  0  0  0
  -39.7969  -22.9748   20.2481 N   0  0  0  0  0  0  0  0  0  0  0  0
  -38.4505  -16.4525   18.7960 N   0  0  0  0  0  0  0  0  0  0  0  0
  -30.1693  -21.3190   18.3478 N   0  0  3  0  0  0  0  0  0  0  0  0
  -30.3260  -15.7907   21.5459 N   0  0  0  0  0  0  0  0  0  0  0  0
  -35.7588  -14.4506   20.1432 N   0  3  0  0  0  0  0  0  0  0  0  0
  -22.5995  -14.7630   21.1891 O   0  0  0  0  0  0  0  0  0  0  0  0
  -39.3797  -21.7765   18.2954 O   0  0  0  0  0  0  0  0  0  0  0  0
  -40.1207  -18.4740   19.9503 O   0  0  0  0  0  0  0  0  0  0  0  0
  -36.2097  -16.4345   18.1997 O   0  0  0  0  0  0  0  0  0  0  0  0
  -31.9444  -14.1505   21.6007 O   0  0  0  0  0  0  0  0  0  0  0  0
  -21.5597   -7.0689   21.7409 O   0  0  0  0  0  0  0  0  0  0  0  0
  -32.8112  -22.3324   18.0682 O   0  0  0  0  0  0  0  0  0  1  0  0
  -23.9021   -3.0993   24.7674 F   0  0  0  0  0  0  0  0  0  0  0  0
  -20.4327   -6.2558   24.1308 F   0  0  0  0  0  0  0  0  0  0  0  0
  -30.5426  -16.2260   18.2077 Cl  0  0  0  0  0  0  0  0  0  0  0  0
  1  2  1  0  0  0  0
  1  5  2  0  0  0  0
  2  6  2  0  0  0  0
  3 10  2  0  0  0  0
  3 18  1  0  0  0  0
  4 11  1  0  0  0  0
  4 18  2  0  0  0  0
  5 20  1  0  0  0  0
  6 22  1  0  0  0  0
  7 12  2  0  0  0  0
  7 21  1  0  0  0  0
  8  9  2  0  0  0  0
  8 24  1  0  0  0  0
  9 25  1  0  0  0  0
 10 26  1  0  0  0  0
 11 26  2  0  0  0  0
 12 27  1  0  0  0  0
 13 14  2  0  0  0  0
 13 28  1  0  0  0  0
 14 29  1  0  0  0  0
 15 23  1  0  0  0  0
 15 27  2  0  0  0  0
 16 25  2  0  0  0  0
 16 31  1  0  0  0  0
 17 29  2  0  0  0  0
 17 30  1  0  0  0  0
 18 32  1  0  0  0  0
 19 32  1  0  0  0  0
 19 33  2  0  0  0  0
 19 34  1  0  0  0  0
 20 22  2  0  0  0  0
 20 39  1  0  0  0  0
 21 23  2  0  0  0  0
 21 40  1  0  0  0  0
 22 48  1  0  0  0  0
 23 41  1  0  0  0  0
 24 31  2  0  0  0  0
 24 58  1  0  0  0  0
 25 72  1  0  0  0  0
 26 80  1  0  0  0  0
 27 81  1  0  0  0  0
 28 30  2  0  0  0  0
 28 80  1  0  0  0  0
 29 82  1  0  0  0  0
 30 83  1  0  0  0  0
 31 84  1  0  0  0  0
 32 64  2  0  0  0  0
 33 65  1  0  0  0  0
 33 68  1  0  0  0  0
 34 69  1  0  0  0  0
 34 75  2  0  0  0  0
 35 49  1  0  0  0  0
 35 70  1  0  0  0  0
 35 76  2  0  0  0  0
 36 61  1  0  0  0  0
 36 66  1  0  0  0  0
 36 77  2  0  0  0  0
 37 62  1  0  0  0  0
 37 71  1  0  0  0  0
 37 78  2  0  0  0  0
 38 67  1  0  0  0  0
 38 73  1  0  0  0  0
 38 79  2  0  0  0  0
 39 42  1  0  0  0  0
 40 49  1  0  0  0  0
 41 66  1  0  0  0  0
 42 44  1  0  0  0  0
 43 45  1  0  0  0  0
 43 46  1  0  0  0  0
 44 48  1  0  0  0  0
 45 50  1  0  0  0  0
 46 67  1  0  0  0  0
 47 50  1  0  0  0  0
 47 67  1  0  0  0  0
 48 70  1  0  0  0  0
 49 66  1  0  0  0  0
 50 65  1  0  0  0  0
 51 62  1  0  0  0  0
 52 63  1  0  0  0  0
 53 63  1  0  0  0  0
 54 63  1  0  0  0  0
 55 72  1  0  0  0  0
 56 73  1  0  0  0  0
 57 74  1  0  0  0  0
 58 73  1  0  0  0  0
 59 60  1  0  0  0  0
 59 72  1  0  0  0  0
 60 81  1  0  0  0  0
 61 63  1  0  0  0  0
 61 71  1  0  0  0  0
 62 74  1  0  0  0  0
 64 65  1  0  0  0  0
M  CHG  1  74   1
M  ISO  4  38 100  60 101  73 100  81 101
M  END
> <Batch ID>
0017

> <Smiles>
CNC(C)C(=O)NC(C(=O)N1Cc2cc([101O:1][101CH2:1]CN(C)c3ccc(C[100N:0](C)[100C:0](=O)N4CCCC(n5nc(-c6ccc(Oc7ccc(F)cc7F)cc6)c(C(N)=O)c5N)C4)c(Cl)c3)ccc2CC1C(=O)NC1CCCc2ccccc21)C(C)(C)C

> <Shape>
0.210

> <Color>
0.189

> <Negative vol penalty>
0.000

$$$$

  -OEChem-04042321003D

 85 93  0     1  0  0  0  0  0999 V2000
  -18.7955  -24.8604   22.0192 C   0  0  0  0  0  0  0  0  0  0  0  0
  -20.0534  -25.0704   21.4632 C   0  0  0  0  0  0  0  0  0  0  0  0
  -24.2548  -11.8769   20.9381 C   0  0  0  0  0  0  0  0  0  0  0  0
  -26.4567  -12.0362   21.9195 C   0  0  0  0  0  0  0  0  0  0  0  0
  -18.0162  -25.9489   22.4086 C   0  0  0  0  0  0  0  0  0  0  0  0
  -20.5321  -26.3693   21.2953 C   0  0  0  0  0  0  0  0  0  0  0  0
  -25.3542  -26.8668   22.7600 C   0  0  0  0  0  0  0  0  0  0  0  0
  -31.2043  -22.4238   19.3094 C   0  0  0  0  0  0  0  0  0  0  0  0
  -30.3476  -21.4381   18.8192 C   0  0  0  0  0  0  0  0  0  0  0  0
  -24.2299  -10.5102   21.2158 C   0  0  0  0  0  0  0  0  0  0  0  0
  -26.4318  -10.6695   22.1974 C   0  0  0  0  0  0  0  0  0  0  0  0
  -26.3361  -26.3998   21.8873 C   0  0  0  0  0  0  0  0  0  0  0  0
  -23.6718   -8.5223   23.8935 C   0  0  0  0  0  0  0  0  0  0  0  0
  -22.5060   -7.9949   24.4486 C   0  0  0  0  0  0  0  0  0  0  0  0
  -26.7221  -28.6554   21.1242 C   0  0  0  0  0  0  0  0  0  0  0  0
  -29.2572  -21.3155   20.9717 C   0  0  0  0  0  0  0  0  0  0  0  0
  -22.2690   -6.5202   22.5496 C   0  0  0  0  0  0  0  0  0  0  0  0
  -25.3683  -12.6399   21.2899 C   0  0  0  0  0  0  0  0  0  0  0  0
  -24.9490  -15.0967   21.8338 C   0  0  0  0  0  0  0  0  0  0  0  0
  -18.4896  -27.2614   22.2544 C   0  0  0  0  0  0  0  0  0  0  0  0
  -25.0407  -28.2325   22.8135 C   0  0  0  0  0  0  0  0  0  0  0  0
  -19.7578  -27.4764   21.6819 C   0  0  0  0  0  0  0  0  0  0  0  0
  -25.7376  -29.1375   22.0002 C   0  0  0  0  0  0  0  0  0  0  0  0
  -31.0875  -22.8552   20.6307 C   0  0  0  0  0  0  0  0  0  0  0  0
  -30.1139  -22.3011   21.4618 C   0  0  0  0  0  0  0  0  0  0  0  0
  -29.3741  -20.8840   19.6504 C   0  0  0  0  0  0  0  0  0  0  0  0
  -25.3183   -9.9065   21.8455 C   0  0  0  0  0  0  0  0  0  0  0  0
  -27.0182  -27.2937   21.0672 C   0  0  0  0  0  0  0  0  0  0  0  0
  -24.1362   -8.0488   22.6664 C   0  0  0  0  0  0  0  0  0  0  0  0
  -21.8046   -6.9938   23.7767 C   0  0  0  0  0  0  0  0  0  0  0  0
  -23.4348   -7.0477   21.9945 C   0  0  0  0  0  0  0  0  0  0  0  0
  -25.3949  -14.0516   21.0027 C   0  0  0  0  0  0  0  0  0  0  0  0
  -25.1903  -16.2383   21.1092 C   0  0  0  0  0  0  0  0  0  0  0  0
  -24.3687  -15.0406   23.1436 C   0  0  0  0  0  0  0  0  0  0  0  0
  -22.4367  -29.9607   22.2338 C   0  0  0  0  0  0  0  0  0  0  0  0
  -24.2616  -32.3827   23.3853 C   0  0  0  0  0  0  0  0  0  0  0  0
  -27.3827  -33.6316   23.9738 C   0  0  0  0  0  0  0  0  0  0  0  0
  -28.4825  -19.3447   17.8665 C   0  0  0  0  0  0  0  0  0  0  0  0
  -17.5915  -28.4078   22.6466 C   0  0  0  0  0  0  0  0  0  0  0  0
  -23.9976  -28.7237   23.7795 C   0  0  0  0  0  0  0  0  0  0  0  0
  -25.4529  -30.6161   22.0342 C   0  0  0  0  0  0  0  0  0  0  0  0
  -18.3265  -29.7391   22.7802 C   0  0  0  0  0  0  0  0  0  0  0  0
  -26.5195  -16.8444   16.2628 C   0  0  0  0  0  0  0  0  0  0  0  0
  -19.2489  -29.9619   21.5859 C   0  0  0  0  0  0  0  0  0  0  0  0
  -26.0152  -15.9809   17.4213 C   0  0  0  0  0  0  0  0  0  0  0  0
  -27.9450  -17.3385   16.5023 C   0  0  0  0  0  0  0  0  0  0  0  0
  -27.6533  -17.1604   18.9420 C   0  0  0  0  0  0  0  0  0  0  0  0
  -20.3222  -28.8696   21.5065 C   0  0  1  0  0  0  0  0  0  0  0  0
  -23.4009  -30.0700   23.3810 C   0  0  1  0  0  0  0  0  0  0  0  0
  -26.1981  -16.6929   18.7760 C   0  0  2  0  0  0  0  0  0  0  0  0
  -31.0428  -22.1556   23.7862 C   0  0  0  0  0  0  0  0  0  0  0  0
  -28.5554  -35.6515   24.8915 C   0  0  0  0  0  0  0  0  0  0  0  0
  -23.6264  -33.9127   20.8230 C   0  0  0  0  0  0  0  0  0  0  0  0
  -25.5303  -35.4502   21.3517 C   0  0  0  0  0  0  0  0  0  0  0  0
  -23.5834  -35.2993   22.9039 C   0  0  0  0  0  0  0  0  0  0  0  0
  -28.6863  -32.0487   26.1078 C   0  0  0  0  0  0  0  0  0  0  0  0
  -33.2027  -25.9973   20.4486 C   0  0  0  0  0  0  0  0  0  0  0  0
  -29.9689  -22.7490   22.8792 C   0  0  0  0  0  0  0  0  0  0  0  0
  -32.0208  -23.9160   21.1354 C   0  0  0  0  0  0  0  0  0  0  0  0
  -30.2954  -26.9106   19.6044 C   0  0  0  0  0  0  0  0  0  0  0  0
  -30.7308  -26.0110   20.7513 C   0  0  0  0  0  0  0  0  0  0  0  0
  -29.0484  -27.7317   19.9086 C   0  0  0  0  0  0  0  0  0  1  0  0
  -25.2223  -33.3781   22.7809 C   0  0  1  0  0  0  0  0  0  0  0  0
  -27.9951  -34.2730   25.2058 C   0  0  2  0  0  0  0  0  0  0  0  0
  -24.4948  -34.4820   21.9626 C   0  0  0  0  0  0  0  0  0  0  0  0
  -25.8823  -14.4903   19.8391 N   0  0  0  0  0  0  0  0  0  0  0  0
  -25.7441  -15.8237   19.9338 N   0  0  0  0  0  0  0  0  0  0  0  0
  -24.4198  -31.0466   22.9908 N   0  0  0  0  0  0  0  0  0  0  0  0
  -28.0415  -18.0060   17.8023 N   0  0  0  0  0  0  0  0  0  0  0  0
  -24.9805  -17.5463   21.3691 N   0  0  0  0  0  0  0  0  0  0  0  0
  -24.1916  -13.7861   23.7428 N   0  0  0  0  0  0  0  0  0  0  0  0
  -28.5023  -19.8841   19.1523 N   0  0  0  0  0  0  0  0  0  0  0  0
  -21.3686  -29.1178   22.4749 N   0  0  0  0  0  0  0  0  0  0  0  0
  -26.0306  -33.8867   23.8838 N   0  0  0  0  0  0  0  0  0  0  0  0
  -29.1009  -33.4258   25.7354 N   0  3  0  0  0  0  0  0  0  0  0  0
  -31.9166  -25.2107   20.3656 N   0  3  1  0  0  0  0  0  0  0  0  0
  -24.0025  -16.0714   23.7576 O   0  0  0  0  0  0  0  0  0  0  0  0
  -22.6455  -30.5954   21.2065 O   0  0  0  0  0  0  0  0  0  0  0  0
  -23.4071  -32.7750   24.1837 O   0  0  0  0  0  0  0  0  0  0  0  0
  -28.0388  -32.9734   23.1695 O   0  0  0  0  0  0  0  0  0  0  0  0
  -28.7921  -19.9754   16.8524 O   0  0  0  0  0  0  0  0  0  0  0  0
  -25.2943   -8.5730   22.1169 O   0  0  0  0  0  0  0  0  0  0  0  0
  -27.9766  -26.8405   20.2140 O   0  0  0  0  0  0  0  0  0  1  0  0
  -20.6859   -6.4862   24.3106 F   0  0  0  0  0  0  0  0  0  0  0  0
  -23.8767   -6.5880   20.8158 F   0  0  0  0  0  0  0  0  0  0  0  0
  1  2  1  0  0  0  0
  1  5  2  0  0  0  0
  2  6  2  0  0  0  0
  3 10  2  0  0  0  0
  3 18  1  0  0  0  0
  4 11  1  0  0  0  0
  4 18  2  0  0  0  0
  5 20  1  0  0  0  0
  6 22  1  0  0  0  0
  7 12  2  0  0  0  0
  7 21  1  0  0  0  0
  8  9  2  0  0  0  0
  8 24  1  0  0  0  0
  9 26  1  0  0  0  0
 10 27  1  0  0  0  0
 11 27  2  0  0  0  0
 12 28  1  0  0  0  0
 13 14  2  0  0  0  0
 13 29  1  0  0  0  0
 14 30  1  0  0  0  0
 15 23  1  0  0  0  0
 15 28  2  0  0  0  0
 16 25  1  0  0  0  0
 16 26  2  0  0  0  0
 17 30  2  0  0  0  0
 17 31  1  0  0  0  0
 18 32  1  0  0  0  0
 19 32  1  0  0  0  0
 19 33  2  0  0  0  0
 19 34  1  0  0  0  0
 20 22  2  0  0  0  0
 20 39  1  0  0  0  0
 21 23  2  0  0  0  0
 21 40  1  0  0  0  0
 22 48  1  0  0  0  0
 23 41  1  0  0  0  0
 24 25  2  0  0  0  0
 24 59  1  0  0  0  0
 25 58  1  0  0  0  0
 26 72  1  0  0  0  0
 27 82  1  0  0  0  0
 28 83  1  0  0  0  0
 29 31  2  0  0  0  0
 29 82  1  0  0  0  0
 30 84  1  0  0  0  0
 31 85  1  0  0  0  0
 32 66  2  0  0  0  0
 33 67  1  0  0  0  0
 33 70  1  0  0  0  0
 34 71  1  0  0  0  0
 34 77  2  0  0  0  0
 35 49  1  0  0  0  0
 35 73  1  0  0  0  0
 35 78  2  0  0  0  0
 36 63  1  0  0  0  0
 36 68  1  0  0  0  0
 36 79  2  0  0  0  0
 37 64  1  0  0  0  0
 37 74  1  0  0  0  0
 37 80  2  0  0  0  0
 38 69  1  0  0  0  0
 38 72  1  0  0  0  0
 38 81  2  0  0  0  0
 39 42  1  0  0  0  0
 40 49  1  0  0  0  0
 41 68  1  0  0  0  0
 42 44  1  0  0  0  0
 43 45  1  0  0  0  0
 43 46  1  0  0  0  0
 44 48  1  0  0  0  0
 45 50  1  0  0  0  0
 46 69  1  0  0  0  0
 47 50  1  0  0  0  0
 47 69  1  0  0  0  0
 48 73  1  0  0  0  0
 49 68  1  0  0  0  0
 50 67  1  0  0  0  0
 51 58  1  0  0  0  0
 52 64  1  0  0  0  0
 53 65  1  0  0  0  0
 54 65  1  0  0  0  0
 55 65  1  0  0  0  0
 56 75  1  0  0  0  0
 57 76  1  0  0  0  0
 59 76  1  0  0  0  0
 60 61  1  0  0  0  0
 60 62  1  0  0  0  0
 61 76  1  0  0  0  0
 62 83  1  0  0  0  0
 63 65  1  0  0  0  0
 63 74  1  0  0  0  0
 64 75  1  0  0  0  0
 66 67  1  0  0  0  0
M  CHG  2  75   1  76   1
M  ISO  4  38 100  62 101  72 100  83 101
M  END
> <Batch ID>
0017

> <Smiles>
CCc1cc([100NH:0][100C:0](=O)N2CCCC(n3nc(-c4ccc(Oc5ccc(F)cc5F)cc4)c(C(N)=O)c3N)C2)ccc1CN(C)CC[101CH2:1][101O:1]c1ccc2c(c1)CN(C(=O)C(NC(=O)C(C)NC)C(C)(C)C)C(C(=O)NC1CCCc3ccccc31)C2

> <Shape>
0.300

> <Color>
0.072

> <Negative vol penalty>
0.000

$$$$

  -OEChem-04042321003D

 87 95  0     1  0  0  0  0  0999 V2000
  -31.4594  -31.7090   14.7416 C   0  0  0  0  0  0  0  0  0  0  0  0
  -30.6485  -30.6747   15.1978 C   0  0  0  0  0  0  0  0  0  0  0  0
  -23.0031  -10.0029   20.9534 C   0  0  0  0  0  0  0  0  0  0  0  0
  -23.7575  -10.6566   23.1536 C   0  0  0  0  0  0  0  0  0  0  0  0
  -31.9759  -32.6381   15.6438 C   0  0  0  0  0  0  0  0  0  0  0  0
  -30.3544  -30.5684   16.5567 C   0  0  0  0  0  0  0  0  0  0  0  0
  -25.1169  -28.6006   19.0470 C   0  0  0  0  0  0  0  0  0  0  0  0
  -28.6021  -21.0995   21.6256 C   0  0  0  0  0  0  0  0  0  0  0  0
  -27.6902  -21.8516   22.3661 C   0  0  0  0  0  0  0  0  0  0  0  0
  -22.2316   -8.9880   21.5194 C   0  0  0  0  0  0  0  0  0  0  0  0
  -22.9859   -9.6417   23.7196 C   0  0  0  0  0  0  0  0  0  0  0  0
  -24.7332  -27.3675   19.5724 C   0  0  0  0  0  0  0  0  0  0  0  0
  -19.7384   -9.1233   24.4977 C   0  0  0  0  0  0  0  0  0  0  0  0
  -18.9779   -9.4405   25.6231 C   0  0  0  0  0  0  0  0  0  0  0  0
  -25.2818  -28.1477   21.7882 C   0  0  0  0  0  0  0  0  0  0  0  0
  -26.6527  -19.8172   23.1548 C   0  0  0  0  0  0  0  0  0  0  0  0
  -20.1715   -7.7723   26.8998 C   0  0  0  0  0  0  0  0  0  0  0  0
  -23.7661  -10.8372   21.7705 C   0  0  0  0  0  0  0  0  0  0  0  0
  -24.1677  -13.2114   20.9283 C   0  0  0  0  0  0  0  0  0  0  0  0
  -31.6801  -32.5487   17.0131 C   0  0  0  0  0  0  0  0  0  0  0  0
  -25.5970  -29.6145   19.8884 C   0  0  0  0  0  0  0  0  0  0  0  0
  -30.8685  -31.4964   17.4782 C   0  0  0  0  0  0  0  0  0  0  0  0
  -25.6685  -29.3937   21.2712 C   0  0  0  0  0  0  0  0  0  0  0  0
  -28.5393  -19.7062   21.6496 C   0  0  0  0  0  0  0  0  0  0  0  0
  -26.7156  -21.2104   23.1307 C   0  0  0  0  0  0  0  0  0  0  0  0
  -22.2230   -8.8074   22.9025 C   0  0  0  0  0  0  0  0  0  0  0  0
  -24.8183  -27.1399   20.9428 C   0  0  0  0  0  0  0  0  0  0  0  0
  -20.7154   -8.1305   24.5733 C   0  0  0  0  0  0  0  0  0  0  0  0
  -19.1945   -8.7650   26.8242 C   0  0  0  0  0  0  0  0  0  0  0  0
  -27.5646  -19.0650   22.4142 C   0  0  0  0  0  0  0  0  0  0  0  0
  -20.9320   -7.4551   25.7743 C   0  0  0  0  0  0  0  0  0  0  0  0
  -24.5637  -11.8853   21.1863 C   0  0  0  0  0  0  0  0  0  0  0  0
  -25.2781  -13.7996   20.3737 C   0  0  0  0  0  0  0  0  0  0  0  0
  -22.9087  -13.8541   21.1685 C   0  0  0  0  0  0  0  0  0  0  0  0
  -28.3429  -31.1928   20.1581 C   0  0  0  0  0  0  0  0  0  0  0  0
  -30.8030  -14.6732   20.4215 C   0  0  0  0  0  0  0  0  0  0  0  0
  -26.6855  -32.9203   22.3470 C   0  0  0  0  0  0  0  0  0  0  0  0
  -24.0834  -33.0727   24.5500 C   0  0  0  0  0  0  0  0  0  0  0  0
  -32.3000  -33.5489   17.9565 C   0  0  0  0  0  0  0  0  0  0  0  0
  -25.9816  -30.9482   19.3091 C   0  0  0  0  0  0  0  0  0  0  0  0
  -26.1580  -30.4563   22.2197 C   0  0  0  0  0  0  0  0  0  0  0  0
  -31.6353  -33.5837   19.3302 C   0  0  0  0  0  0  0  0  0  0  0  0
  -29.5902  -11.7799   18.6901 C   0  0  0  0  0  0  0  0  0  0  0  0
  -31.4320  -32.1681   19.8609 C   0  0  0  0  0  0  0  0  0  0  0  0
  -28.1518  -11.6408   19.1870 C   0  0  0  0  0  0  0  0  0  0  0  0
  -30.5124  -12.3008   19.7880 C   0  0  0  0  0  0  0  0  0  0  0  0
  -28.6236  -13.4506   20.8979 C   0  0  0  0  0  0  0  0  0  0  0  0
  -30.5067  -31.3619   18.9415 C   0  0  1  0  0  0  0  0  0  0  0  0
  -26.9410  -31.7321   20.1994 C   0  0  1  0  0  0  0  0  0  0  0  0
  -27.6529  -12.9563   19.8108 C   0  0  2  0  0  0  0  0  0  0  0  0
  -23.0057  -34.6015   26.2229 C   0  0  0  0  0  0  0  0  0  0  0  0
  -28.9334  -32.3358   24.3257 C   0  0  0  0  0  0  0  0  0  0  0  0
  -27.3971  -33.0411   26.1724 C   0  0  0  0  0  0  0  0  0  0  0  0
  -28.0546  -34.6758   24.4066 C   0  0  0  0  0  0  0  0  0  0  0  0
  -24.7764  -21.2935   24.6777 C   0  0  0  0  0  0  0  0  0  0  0  0
  -21.5308  -33.1016   23.0526 C   0  0  0  0  0  0  0  0  0  0  0  0
  -31.6304  -19.2523   22.1248 C   0  0  0  0  0  0  0  0  0  0  0  0
  -29.5158  -18.9050   20.8566 C   0  0  0  0  0  0  0  0  0  0  0  0
  -30.1963  -15.9115   21.0320 C   0  0  0  0  0  0  0  0  0  0  0  0
  -25.1343  -23.9785   22.6617 C   0  0  0  0  0  0  0  0  0  0  0  0
  -25.8449  -23.4093   23.8838 C   0  0  0  0  0  0  0  0  0  0  0  0
  -31.1842  -17.0640   21.0230 C   0  0  0  0  0  0  0  0  0  0  0  0
  -25.1126  -25.5024   22.6422 C   0  0  0  0  0  0  0  0  0  1  0  0
  -26.4442  -32.8130   23.8334 C   0  0  1  0  0  0  0  0  0  0  0  0
  -23.0168  -34.1287   24.7776 C   0  0  2  0  0  0  0  0  0  0  0  0
  -27.6999  -33.1955   24.6667 C   0  0  0  0  0  0  0  0  0  0  0  0
  -25.8269  -11.6449   20.8252 N   0  0  0  0  0  0  0  0  0  0  0  0
  -26.2343  -12.8278   20.3345 N   0  0  0  0  0  0  0  0  0  0  0  0
  -26.5283  -31.7415   21.6043 N   0  0  0  0  0  0  0  0  0  0  0  0
  -29.9922  -13.5391   20.3703 N   0  0  0  0  0  0  0  0  0  0  0  0
  -25.5201  -15.0480   19.9206 N   0  0  0  0  0  0  0  0  0  0  0  0
  -21.8748  -13.1038   21.7451 N   0  0  0  0  0  0  0  0  0  0  0  0
  -29.1260  -31.7377   19.1585 N   0  0  0  0  0  0  0  0  0  0  0  0
  -25.2682  -33.6287   24.1160 N   0  0  0  0  0  0  0  0  0  0  0  0
  -25.7993  -21.9671   23.8753 N   0  0  3  0  0  0  0  0  0  0  0  0
  -21.6692  -33.5824   24.4514 N   0  3  0  0  0  0  0  0  0  0  0  0
  -30.5738  -18.2697   21.6898 N   0  3  1  0  0  0  0  0  0  0  0  0
  -22.7015  -15.0535   20.8653 O   0  0  0  0  0  0  0  0  0  0  0  0
  -28.6888  -30.3463   20.9738 O   0  0  0  0  0  0  0  0  0  0  0  0
  -31.9619  -14.7154   20.0005 O   0  0  0  0  0  0  0  0  0  0  0  0
  -26.9947  -34.0114   21.8618 O   0  0  0  0  0  0  0  0  0  0  0  0
  -23.8865  -31.8748   24.7418 O   0  0  0  0  0  0  0  0  0  0  0  0
  -21.4701   -7.8173   23.4552 O   0  0  0  0  0  0  0  0  0  0  0  0
  -24.4451  -25.9370   21.4582 O   0  0  0  0  0  0  0  0  0  1  0  0
  -18.4652   -9.0708   27.9053 F   0  0  0  0  0  0  0  0  0  0  0  0
  -27.4957  -17.7267   22.4426 F   0  0  0  0  0  0  0  0  0  0  0  0
  -21.8699   -6.5013   25.8533 F   0  0  0  0  0  0  0  0  0  0  0  0
  1  2  1  0  0  0  0
  1  5  2  0  0  0  0
  2  6  2  0  0  0  0
  3 10  2  0  0  0  0
  3 18  1  0  0  0  0
  4 11  1  0  0  0  0
  4 18  2  0  0  0  0
  5 20  1  0  0  0  0
  6 22  1  0  0  0  0
  7 12  2  0  0  0  0
  7 21  1  0  0  0  0
  8  9  2  0  0  0  0
  8 24  1  0  0  0  0
  9 25  1  0  0  0  0
 10 26  1  0  0  0  0
 11 26  2  0  0  0  0
 12 27  1  0  0  0  0
 13 14  2  0  0  0  0
 13 28  1  0  0  0  0
 14 29  1  0  0  0  0
 15 23  1  0  0  0  0
 15 27  2  0  0  0  0
 16 25  2  0  0  0  0
 16 30  1  0  0  0  0
 17 29  2  0  0  0  0
 17 31  1  0  0  0  0
 18 32  1  0  0  0  0
 19 32  1  0  0  0  0
 19 33  2  0  0  0  0
 19 34  1  0  0  0  0
 20 22  2  0  0  0  0
 20 39  1  0  0  0  0
 21 23  2  0  0  0  0
 21 40  1  0  0  0  0
 22 48  1  0  0  0  0
 23 41  1  0  0  0  0
 24 30  2  0  0  0  0
 24 58  1  0  0  0  0
 25 75  1  0  0  0  0
 26 83  1  0  0  0  0
 27 84  1  0  0  0  0
 28 31  2  0  0  0  0
 28 83  1  0  0  0  0
 29 85  1  0  0  0  0
 30 86  1  0  0  0  0
 31 87  1  0  0  0  0
 32 67  2  0  0  0  0
 33 68  1  0  0  0  0
 33 71  1  0  0  0  0
 34 72  1  0  0  0  0
 34 78  2  0  0  0  0
 35 49  1  0  0  0  0
 35 73  1  0  0  0  0
 35 79  2  0  0  0  0
 36 59  1  0  0  0  0
 36 70  1  0  0  0  0
 36 80  2  0  0  0  0
 37 64  1  0  0  0  0
 37 69  1  0  0  0  0
 37 81  2  0  0  0  0
 38 65  1  0  0  0  0
 38 74  1  0  0  0  0
 38 82  2  0  0  0  0
 39 42  1  0  0  0  0
 40 49  1  0  0  0  0
 41 69  1  0  0  0  0
 42 44  1  0  0  0  0
 43 45  1  0  0  0  0
 43 46  1  0  0  0  0
 44 48  1  0  0  0  0
 45 50  1  0  0  0  0
 46 70  1  0  0  0  0
 47 50  1  0  0  0  0
 47 70  1  0  0  0  0
 48 73  1  0  0  0  0
 49 69  1  0  0  0  0
 50 68  1  0  0  0  0
 51 65  1  0  0  0  0
 52 66  1  0  0  0  0
 53 66  1  0  0  0  0
 54 66  1  0  0  0  0
 55 75  1  0  0  0  0
 56 76  1  0  0  0  0
 57 77  1  0  0  0  0
 58 77  1  0  0  0  0
 59 62  1  0  0  0  0
 60 61  1  0  0  0  0
 60 63  1  0  0  0  0
 61 75  1  0  0  0  0
 62 77  1  0  0  0  0
 63 84  1  0  0  0  0
 64 66  1  0  0  0  0
 64 74  1  0  0  0  0
 65 76  1  0  0  0  0
 67 68  1  0  0  0  0
M  CHG  2  76   1  77   1
M  ISO  4  36 100  59 100  63 101  84 101
M  END
> <Batch ID>
0017

> <Smiles>
CNC(C)C(=O)NC(C(=O)N1Cc2cc([101O:1][101CH2:1]CCN(C)c3ccc(CN(C)C[100CH2:0][100C:0](=O)N4CCCC(n5nc(-c6ccc(Oc7ccc(F)cc7F)cc6)c(C(N)=O)c5N)C4)c(F)c3)ccc2CC1C(=O)NC1CCCc2ccccc21)C(C)(C)C

> <Shape>
0.250

> <Color>
0.197

> <Negative vol penalty>
0.000

$$$$

  -OEChem-04042321003D

 84 92  0     1  0  0  0  0  0999 V2000
  -23.4343  -30.0936   21.4217 C   0  0  0  0  0  0  0  0  0  0  0  0
  -22.7481  -28.8835   21.4065 C   0  0  0  0  0  0  0  0  0  0  0  0
  -28.6501  -13.2239   20.8638 C   0  0  0  0  0  0  0  0  0  0  0  0
  -28.1534  -12.4747   18.6212 C   0  0  0  0  0  0  0  0  0  0  0  0
  -24.7758  -30.1378   21.0441 C   0  0  0  0  0  0  0  0  0  0  0  0
  -23.4027  -27.7170   21.0127 C   0  0  0  0  0  0  0  0  0  0  0  0
  -22.5010  -22.0702   23.2050 C   0  0  0  0  0  0  0  0  0  0  0  0
  -20.6828  -14.4784   24.2109 C   0  0  0  0  0  0  0  0  0  0  0  0
  -21.4402  -13.5022   24.8581 C   0  0  0  0  0  0  0  0  0  0  0  0
  -30.0143  -13.1800   20.5764 C   0  0  0  0  0  0  0  0  0  0  0  0
  -29.5176  -12.4308   18.3338 C   0  0  0  0  0  0  0  0  0  0  0  0
  -21.7558  -20.9895   22.7352 C   0  0  0  0  0  0  0  0  0  0  0  0
  -33.6147  -13.6116   20.3202 C   0  0  0  0  0  0  0  0  0  0  0  0
  -34.3984  -14.6909   20.7280 C   0  0  0  0  0  0  0  0  0  0  0  0
  -23.7383  -20.0773   21.7070 C   0  0  0  0  0  0  0  0  0  0  0  0
  -19.4767  -12.7550   23.0225 C   0  0  0  0  0  0  0  0  0  0  0  0
  -33.0663  -16.1739   19.3629 C   0  0  0  0  0  0  0  0  0  0  0  0
  -27.7196  -12.8712   19.8862 C   0  0  0  0  0  0  0  0  0  0  0  0
  -25.4395  -14.0084   20.0103 C   0  0  0  0  0  0  0  0  0  0  0  0
  -25.4498  -28.9695   20.6547 C   0  0  0  0  0  0  0  0  0  0  0  0
  -23.8704  -22.1683   22.9196 C   0  0  0  0  0  0  0  0  0  0  0  0
  -24.7540  -27.7458   20.6282 C   0  0  0  0  0  0  0  0  0  0  0  0
  -24.4991  -21.1589   22.1765 C   0  0  0  0  0  0  0  0  0  0  0  0
  -19.7010  -14.1048   23.2932 C   0  0  0  0  0  0  0  0  0  0  0  0
  -21.2160  -12.1523   24.5874 C   0  0  0  0  0  0  0  0  0  0  0  0
  -30.4481  -12.7835   19.3114 C   0  0  0  0  0  0  0  0  0  0  0  0
  -22.3739  -19.9943   21.9837 C   0  0  0  0  0  0  0  0  0  0  0  0
  -32.5568  -13.8133   19.4337 C   0  0  0  0  0  0  0  0  0  0  0  0
  -34.1242  -15.9721   20.2494 C   0  0  0  0  0  0  0  0  0  0  0  0
  -20.2342  -11.7787   23.6697 C   0  0  0  0  0  0  0  0  0  0  0  0
  -32.2826  -15.0944   18.9551 C   0  0  0  0  0  0  0  0  0  0  0  0
  -26.3103  -12.9158   20.1827 C   0  0  0  0  0  0  0  0  0  0  0  0
  -24.2184  -13.5445   20.4348 C   0  0  0  0  0  0  0  0  0  0  0  0
  -25.7102  -15.3249   19.5110 C   0  0  0  0  0  0  0  0  0  0  0  0
  -25.6902  -24.2436   21.3431 C   0  0  0  0  0  0  0  0  0  0  0  0
  -28.1031  -22.4014   22.4862 C   0  0  0  0  0  0  0  0  0  0  0  0
  -29.1207  -19.3655   23.6670 C   0  0  0  0  0  0  0  0  0  0  0  0
  -22.3114   -9.8980   24.6832 C   0  0  0  0  0  0  0  0  0  0  0  0
  -26.8870  -29.0748   20.2097 C   0  0  0  0  0  0  0  0  0  0  0  0
  -24.6656  -23.3267   23.4563 C   0  0  0  0  0  0  0  0  0  0  0  0
  -25.9708  -21.2070   21.8599 C   0  0  0  0  0  0  0  0  0  0  0  0
  -27.6105  -27.7314   20.1644 C   0  0  0  0  0  0  0  0  0  0  0  0
  -22.1731   -9.0996   21.0726 C   0  0  0  0  0  0  0  0  0  0  0  0
  -26.7474  -26.6833   19.4691 C   0  0  0  0  0  0  0  0  0  0  0  0
  -23.2100  -10.0490   20.4752 C   0  0  0  0  0  0  0  0  0  0  0  0
  -22.5100   -8.7268   22.5131 C   0  0  0  0  0  0  0  0  0  0  0  0
  -23.7327  -10.8619   22.8092 C   0  0  0  0  0  0  0  0  0  0  0  0
  -25.4363  -26.4547   20.2309 C   0  0  1  0  0  0  0  0  0  0  0  0
  -25.9468  -23.5872   22.6701 C   0  0  1  0  0  0  0  0  0  0  0  0
  -23.3943  -11.2845   21.3717 C   0  0  1  0  0  0  0  0  0  0  0  0
  -31.1598  -18.1525   24.4844 C   0  0  0  0  0  0  0  0  0  0  0  0
  -29.0943  -22.1363   19.6126 C   0  0  0  0  0  0  0  0  0  0  0  0
  -30.5049  -20.2041   20.3512 C   0  0  0  0  0  0  0  0  0  0  0  0
  -30.8984  -22.4724   21.3117 C   0  0  0  0  0  0  0  0  0  0  0  0
  -22.2658  -11.3209   26.6844 C   0  0  0  0  0  0  0  0  0  0  0  0
  -17.9089  -14.6931   21.6799 C   0  0  0  0  0  0  0  0  0  0  0  0
  -27.9156  -18.8941   26.3286 C   0  0  0  0  0  0  0  0  0  0  0  0
  -20.3043  -17.0359   22.0982 C   0  0  0  0  0  0  0  0  0  0  0  0
  -19.1352  -16.4909   22.9097 C   0  0  0  0  0  0  0  0  0  0  0  0
  -20.5290  -18.5288   22.3072 C   0  0  0  0  0  0  0  0  0  1  0  0
  -28.8378  -21.1771   21.9960 C   0  0  1  0  0  0  0  0  0  0  0  0
  -29.9487  -18.9827   24.8804 C   0  0  2  0  0  0  0  0  0  0  0  0
  -29.8057  -21.4973   20.8220 C   0  0  0  0  0  0  0  0  0  0  0  0
  -25.6947  -11.8390   20.6783 N   0  0  0  0  0  0  0  0  0  0  0  0
  -24.4241  -12.2527   20.8210 N   0  0  0  0  0  0  0  0  0  0  0  0
  -26.7041  -22.3630   22.4017 N   0  0  0  0  0  0  0  0  0  0  0  0
  -22.7417   -9.9119   23.3405 N   0  0  0  0  0  0  0  0  0  0  0  0
  -22.9995  -14.1198   20.5118 N   0  0  0  0  0  0  0  0  0  0  0  0
  -27.0195  -15.6344   19.1184 N   0  0  0  0  0  0  0  0  0  0  0  0
  -25.6656  -25.6242   21.3937 N   0  0  0  0  0  0  0  0  0  0  0  0
  -29.4885  -20.5961   23.1653 N   0  0  0  0  0  0  0  0  0  0  0  0
  -22.0013  -11.1452   25.2581 N   0  0  0  0  0  0  0  0  0  0  0  0
  -18.9392  -15.0864   22.6430 N   0  0  3  0  0  0  0  0  0  0  0  0
  -29.1278  -18.1891   25.8382 N   0  3  0  0  0  0  0  0  0  0  0  0
  -24.8208  -16.2059   19.4312 O   0  0  0  0  0  0  0  0  0  0  0  0
  -25.5280  -23.5488   20.3468 O   0  0  0  0  0  0  0  0  0  0  0  0
  -28.7464  -23.3537   22.9343 O   0  0  0  0  0  0  0  0  0  0  0  0
  -28.2387  -18.6433   23.2077 O   0  0  0  0  0  0  0  0  0  0  0  0
  -22.2599   -8.8528   25.3431 O   0  0  0  0  0  0  0  0  0  0  0  0
  -31.7792  -12.7408   19.0305 O   0  0  0  0  0  0  0  0  0  0  0  0
  -21.6488  -18.9388   21.5233 O   0  0  0  0  0  0  0  0  0  1  0  0
  -34.8760  -17.0088   20.6422 F   0  0  0  0  0  0  0  0  0  0  0  0
  -20.0105  -10.4843   23.4017 F   0  0  0  0  0  0  0  0  0  0  0  0
  -31.2669  -15.2946   18.1042 F   0  0  0  0  0  0  0  0  0  0  0  0
  1  2  1  0  0  0  0
  1  5  2  0  0  0  0
  2  6  2  0  0  0  0
  3 10  2  0  0  0  0
  3 18  1  0  0  0  0
  4 11  1  0  0  0  0
  4 18  2  0  0  0  0
  5 20  1  0  0  0  0
  6 22  1  0  0  0  0
  7 12  2  0  0  0  0
  7 21  1  0  0  0  0
  8  9  2  0  0  0  0
  8 24  1  0  0  0  0
  9 25  1  0  0  0  0
 10 26  1  0  0  0  0
 11 26  2  0  0  0  0
 12 27  1  0  0  0  0
 13 14  2  0  0  0  0
 13 28  1  0  0  0  0
 14 29  1  0  0  0  0
 15 23  1  0  0  0  0
 15 27  2  0  0  0  0
 16 24  2  0  0  0  0
 16 30  1  0  0  0  0
 17 29  2  0  0  0  0
 17 31  1  0  0  0  0
 18 32  1  0  0  0  0
 19 32  1  0  0  0  0
 19 33  2  0  0  0  0
 19 34  1  0  0  0  0
 20 22  2  0  0  0  0
 20 39  1  0  0  0  0
 21 23  2  0  0  0  0
 21 40  1  0  0  0  0
 22 48  1  0  0  0  0
 23 41  1  0  0  0  0
 24 73  1  0  0  0  0
 25 30  2  0  0  0  0
 25 72  1  0  0  0  0
 26 80  1  0  0  0  0
 27 81  1  0  0  0  0
 28 31  2  0  0  0  0
 28 80  1  0  0  0  0
 29 82  1  0  0  0  0
 30 83  1  0  0  0  0
 31 84  1  0  0  0  0
 32 64  2  0  0  0  0
 33 65  1  0  0  0  0
 33 68  1  0  0  0  0
 34 69  1  0  0  0  0
 34 75  2  0  0  0  0
 35 49  1  0  0  0  0
 35 70  1  0  0  0  0
 35 76  2  0  0  0  0
 36 61  1  0  0  0  0
 36 66  1  0  0  0  0
 36 77  2  0  0  0  0
 37 62  1  0  0  0  0
 37 71  1  0  0  0  0
 37 78  2  0  0  0  0
 38 67  1  0  0  0  0
 38 72  1  0  0  0  0
 38 79  2  0  0  0  0
 39 42  1  0  0  0  0
 40 49  1  0  0  0  0
 41 66  1  0  0  0  0
 42 44  1  0  0  0  0
 43 45  1  0  0  0  0
 43 46  1  0  0  0  0
 44 48  1  0  0  0  0
 45 50  1  0  0  0  0
 46 67  1  0  0  0  0
 47 50  1  0  0  0  0
 47 67  1  0  0  0  0
 48 70  1  0  0  0  0
 49 66  1  0  0  0  0
 50 65  1  0  0  0  0
 51 62  1  0  0  0  0
 52 63  1  0  0  0  0
 53 63  1  0  0  0  0
 54 63  1  0  0  0  0
 55 72  1  0  0  0  0
 56 73  1  0  0  0  0
 57 74  1  0  0  0  0
 58 59  1  0  0  0  0
 58 60  1  0  0  0  0
 59 73  1  0  0  0  0
 60 81  1  0  0  0  0
 61 63  1  0  0  0  0
 61 71  1  0  0  0  0
 62 74  1  0  0  0  0
 64 65  1  0  0  0  0
M  CHG  1  74   1
M  ISO  4  38 100  60 101  72 100  81 101
M  END
> <Batch ID>
0017

> <Smiles>
CNC(C)C(=O)NC(C(=O)N1Cc2cc([101O:1][101CH2:1]CCN(C)c3ccc([100N:0](C)[100C:0](=O)N4CCCC(n5nc(-c6ccc(Oc7ccc(F)cc7F)cc6)c(C(N)=O)c5N)C4)c(F)c3)ccc2CC1C(=O)NC1CCCc2ccccc21)C(C)(C)C

> <Shape>
0.188

> <Color>
0.098

> <Negative vol penalty>
0.000

$$$$

  -OEChem-04042321003D

 84 92  0     1  0  0  0  0  0999 V2000
  -23.4343  -30.0936   21.4217 C   0  0  0  0  0  0  0  0  0  0  0  0
  -22.7481  -28.8835   21.4065 C   0  0  0  0  0  0  0  0  0  0  0  0
  -28.6501  -13.2239   20.8638 C   0  0  0  0  0  0  0  0  0  0  0  0
  -28.1534  -12.4747   18.6212 C   0  0  0  0  0  0  0  0  0  0  0  0
  -24.7758  -30.1378   21.0441 C   0  0  0  0  0  0  0  0  0  0  0  0
  -23.4027  -27.7170   21.0127 C   0  0  0  0  0  0  0  0  0  0  0  0
  -22.5010  -22.0702   23.2050 C   0  0  0  0  0  0  0  0  0  0  0  0
  -20.6828  -14.4784   24.2109 C   0  0  0  0  0  0  0  0  0  0  0  0
  -21.4402  -13.5022   24.8581 C   0  0  0  0  0  0  0  0  0  0  0  0
  -30.0143  -13.1800   20.5764 C   0  0  0  0  0  0  0  0  0  0  0  0
  -29.5176  -12.4308   18.3338 C   0  0  0  0  0  0  0  0  0  0  0  0
  -21.7558  -20.9895   22.7352 C   0  0  0  0  0  0  0  0  0  0  0  0
  -33.6147  -13.6116   20.3202 C   0  0  0  0  0  0  0  0  0  0  0  0
  -34.3984  -14.6909   20.7280 C   0  0  0  0  0  0  0  0  0  0  0  0
  -23.7383  -20.0773   21.7070 C   0  0  0  0  0  0  0  0  0  0  0  0
  -19.4767  -12.7550   23.0225 C   0  0  0  0  0  0  0  0  0  0  0  0
  -33.0663  -16.1739   19.3629 C   0  0  0  0  0  0  0  0  0  0  0  0
  -27.7196  -12.8712   19.8862 C   0  0  0  0  0  0  0  0  0  0  0  0
  -25.4395  -14.0084   20.0103 C   0  0  0  0  0  0  0  0  0  0  0  0
  -25.4498  -28.9695   20.6547 C   0  0  0  0  0  0  0  0  0  0  0  0
  -23.8704  -22.1683   22.9196 C   0  0  0  0  0  0  0  0  0  0  0  0
  -24.7540  -27.7458   20.6282 C   0  0  0  0  0  0  0  0  0  0  0  0
  -24.4991  -21.1589   22.1765 C   0  0  0  0  0  0  0  0  0  0  0  0
  -19.7010  -14.1048   23.2932 C   0  0  0  0  0  0  0  0  0  0  0  0
  -21.2160  -12.1523   24.5874 C   0  0  0  0  0  0  0  0  0  0  0  0
  -30.4481  -12.7835   19.3114 C   0  0  0  0  0  0  0  0  0  0  0  0
  -22.3739  -19.9943   21.9837 C   0  0  0  0  0  0  0  0  0  0  0  0
  -32.5568  -13.8133   19.4337 C   0  0  0  0  0  0  0  0  0  0  0  0
  -34.1242  -15.9721   20.2494 C   0  0  0  0  0  0  0  0  0  0  0  0
  -20.2342  -11.7787   23.6697 C   0  0  0  0  0  0  0  0  0  0  0  0
  -32.2826  -15.0944   18.9551 C   0  0  0  0  0  0  0  0  0  0  0  0
  -26.3103  -12.9158   20.1827 C   0  0  0  0  0  0  0  0  0  0  0  0
  -24.2184  -13.5445   20.4348 C   0  0  0  0  0  0  0  0  0  0  0  0
  -25.7102  -15.3249   19.5110 C   0  0  0  0  0  0  0  0  0  0  0  0
  -25.6902  -24.2436   21.3431 C   0  0  0  0  0  0  0  0  0  0  0  0
  -28.1031  -22.4014   22.4862 C   0  0  0  0  0  0  0  0  0  0  0  0
  -29.1207  -19.3655   23.6670 C   0  0  0  0  0  0  0  0  0  0  0  0
  -22.3114   -9.8980   24.6832 C   0  0  0  0  0  0  0  0  0  0  0  0
  -26.8870  -29.0748   20.2097 C   0  0  0  0  0  0  0  0  0  0  0  0
  -24.6656  -23.3267   23.4563 C   0  0  0  0  0  0  0  0  0  0  0  0
  -25.9708  -21.2070   21.8599 C   0  0  0  0  0  0  0  0  0  0  0  0
  -27.6105  -27.7314   20.1644 C   0  0  0  0  0  0  0  0  0  0  0  0
  -22.1731   -9.0996   21.0726 C   0  0  0  0  0  0  0  0  0  0  0  0
  -26.7474  -26.6833   19.4691 C   0  0  0  0  0  0  0  0  0  0  0  0
  -23.2100  -10.0490   20.4752 C   0  0  0  0  0  0  0  0  0  0  0  0
  -22.5100   -8.7268   22.5131 C   0  0  0  0  0  0  0  0  0  0  0  0
  -23.7327  -10.8619   22.8092 C   0  0  0  0  0  0  0  0  0  0  0  0
  -25.4363  -26.4547   20.2309 C   0  0  1  0  0  0  0  0  0  0  0  0
  -25.9468  -23.5872   22.6701 C   0  0  1  0  0  0  0  0  0  0  0  0
  -23.3943  -11.2845   21.3717 C   0  0  1  0  0  0  0  0  0  0  0  0
  -31.1598  -18.1525   24.4844 C   0  0  0  0  0  0  0  0  0  0  0  0
  -29.0943  -22.1363   19.6126 C   0  0  0  0  0  0  0  0  0  0  0  0
  -30.5049  -20.2041   20.3512 C   0  0  0  0  0  0  0  0  0  0  0  0
  -30.8984  -22.4724   21.3117 C   0  0  0  0  0  0  0  0  0  0  0  0
  -22.2658  -11.3209   26.6844 C   0  0  0  0  0  0  0  0  0  0  0  0
  -17.9089  -14.6931   21.6799 C   0  0  0  0  0  0  0  0  0  0  0  0
  -27.9156  -18.8941   26.3286 C   0  0  0  0  0  0  0  0  0  0  0  0
  -20.3043  -17.0359   22.0982 C   0  0  0  0  0  0  0  0  0  0  0  0
  -19.1352  -16.4909   22.9097 C   0  0  0  0  0  0  0  0  0  0  0  0
  -20.5290  -18.5288   22.3072 C   0  0  0  0  0  0  0  0  0  1  0  0
  -28.8378  -21.1771   21.9960 C   0  0  1  0  0  0  0  0  0  0  0  0
  -29.9487  -18.9827   24.8804 C   0  0  2  0  0  0  0  0  0  0  0  0
  -29.8057  -21.4973   20.8220 C   0  0  0  0  0  0  0  0  0  0  0  0
  -25.6947  -11.8390   20.6783 N   0  0  0  0  0  0  0  0  0  0  0  0
  -24.4241  -12.2527   20.8210 N   0  0  0  0  0  0  0  0  0  0  0  0
  -26.7041  -22.3630   22.4017 N   0  0  0  0  0  0  0  0  0  0  0  0
  -22.7417   -9.9119   23.3405 N   0  0  0  0  0  0  0  0  0  0  0  0
  -22.9995  -14.1198   20.5118 N   0  0  0  0  0  0  0  0  0  0  0  0
  -27.0195  -15.6344   19.1184 N   0  0  0  0  0  0  0  0  0  0  0  0
  -25.6656  -25.6242   21.3937 N   0  0  0  0  0  0  0  0  0  0  0  0
  -29.4885  -20.5961   23.1653 N   0  0  0  0  0  0  0  0  0  0  0  0
  -22.0013  -11.1452   25.2581 N   0  0  0  0  0  0  0  0  0  0  0  0
  -18.9392  -15.0864   22.6430 N   0  0  3  0  0  0  0  0  0  0  0  0
  -29.1278  -18.1891   25.8382 N   0  3  0  0  0  0  0  0  0  0  0  0
  -24.8208  -16.2059   19.4312 O   0  0  0  0  0  0  0  0  0  0  0  0
  -25.5280  -23.5488   20.3468 O   0  0  0  0  0  0  0  0  0  0  0  0
  -28.7464  -23.3537   22.9343 O   0  0  0  0  0  0  0  0  0  0  0  0
  -28.2387  -18.6433   23.2077 O   0  0  0  0  0  0  0  0  0  0  0  0
  -22.2599   -8.8528   25.3431 O   0  0  0  0  0  0  0  0  0  0  0  0
  -31.7792  -12.7408   19.0305 O   0  0  0  0  0  0  0  0  0  0  0  0
  -21.6488  -18.9388   21.5233 O   0  0  0  0  0  0  0  0  0  1  0  0
  -34.8760  -17.0088   20.6422 F   0  0  0  0  0  0  0  0  0  0  0  0
  -20.0105  -10.4843   23.4017 F   0  0  0  0  0  0  0  0  0  0  0  0
  -31.2669  -15.2946   18.1042 F   0  0  0  0  0  0  0  0  0  0  0  0
  1  2  1  0  0  0  0
  1  5  2  0  0  0  0
  2  6  2  0  0  0  0
  3 10  2  0  0  0  0
  3 18  1  0  0  0  0
  4 11  1  0  0  0  0
  4 18  2  0  0  0  0
  5 20  1  0  0  0  0
  6 22  1  0  0  0  0
  7 12  2  0  0  0  0
  7 21  1  0  0  0  0
  8  9  2  0  0  0  0
  8 24  1  0  0  0  0
  9 25  1  0  0  0  0
 10 26  1  0  0  0  0
 11 26  2  0  0  0  0
 12 27  1  0  0  0  0
 13 14  2  0  0  0  0
 13 28  1  0  0  0  0
 14 29  1  0  0  0  0
 15 23  1  0  0  0  0
 15 27  2  0  0  0  0
 16 24  2  0  0  0  0
 16 30  1  0  0  0  0
 17 29  2  0  0  0  0
 17 31  1  0  0  0  0
 18 32  1  0  0  0  0
 19 32  1  0  0  0  0
 19 33  2  0  0  0  0
 19 34  1  0  0  0  0
 20 22  2  0  0  0  0
 20 39  1  0  0  0  0
 21 23  2  0  0  0  0
 21 40  1  0  0  0  0
 22 48  1  0  0  0  0
 23 41  1  0  0  0  0
 24 73  1  0  0  0  0
 25 30  2  0  0  0  0
 25 72  1  0  0  0  0
 26 80  1  0  0  0  0
 27 81  1  0  0  0  0
 28 31  2  0  0  0  0
 28 80  1  0  0  0  0
 29 82  1  0  0  0  0
 30 83  1  0  0  0  0
 31 84  1  0  0  0  0
 32 64  2  0  0  0  0
 33 65  1  0  0  0  0
 33 68  1  0  0  0  0
 34 69  1  0  0  0  0
 34 75  2  0  0  0  0
 35 49  1  0  0  0  0
 35 70  1  0  0  0  0
 35 76  2  0  0  0  0
 36 61  1  0  0  0  0
 36 66  1  0  0  0  0
 36 77  2  0  0  0  0
 37 62  1  0  0  0  0
 37 71  1  0  0  0  0
 37 78  2  0  0  0  0
 38 67  1  0  0  0  0
 38 72  1  0  0  0  0
 38 79  2  0  0  0  0
 39 42  1  0  0  0  0
 40 49  1  0  0  0  0
 41 66  1  0  0  0  0
 42 44  1  0  0  0  0
 43 45  1  0  0  0  0
 43 46  1  0  0  0  0
 44 48  1  0  0  0  0
 45 50  1  0  0  0  0
 46 67  1  0  0  0  0
 47 50  1  0  0  0  0
 47 67  1  0  0  0  0
 48 70  1  0  0  0  0
 49 66  1  0  0  0  0
 50 65  1  0  0  0  0
 51 62  1  0  0  0  0
 52 63  1  0  0  0  0
 53 63  1  0  0  0  0
 54 63  1  0  0  0  0
 55 72  1  0  0  0  0
 56 73  1  0  0  0  0
 57 74  1  0  0  0  0
 58 59  1  0  0  0  0
 58 60  1  0  0  0  0
 59 73  1  0  0  0  0
 60 81  1  0  0  0  0
 61 63  1  0  0  0  0
 61 71  1  0  0  0  0
 62 74  1  0  0  0  0
 64 65  1  0  0  0  0
M  CHG  1  74   1
M  ISO  4  38 100  60 101  72 100  81 101
M  END
> <Batch ID>
0017

> <Smiles>
CNC(C)C(=O)NC(C(=O)N1Cc2cc([101O:1][101CH2:1]CCN(C)c3ccc([100N:0](C)[100C:0](=O)N4CCCC(n5nc(-c6ccc(Oc7ccc(F)cc7F)cc6)c(C(N)=O)c5N)C4)c(F)c3)ccc2CC1C(=O)NC1CCCc2ccccc21)C(C)(C)C

> <Shape>
0.188

> <Color>
0.098

> <Negative vol penalty>
0.000

$$$$

  -OEChem-04042321003D

 88 96  0     1  0  0  0  0  0999 V2000
  -29.8121  -32.1984   26.4736 C   0  0  0  0  0  0  0  0  0  0  0  0
  -29.0037  -31.2331   25.8819 C   0  0  0  0  0  0  0  0  0  0  0  0
  -22.6024  -10.4454   20.4949 C   0  0  0  0  0  0  0  0  0  0  0  0
  -24.5251   -9.0971   21.0625 C   0  0  0  0  0  0  0  0  0  0  0  0
  -29.2896  -33.4562   26.7716 C   0  0  0  0  0  0  0  0  0  0  0  0
  -27.6720  -31.5247   25.5889 C   0  0  0  0  0  0  0  0  0  0  0  0
  -26.3078  -29.9478   20.9739 C   0  0  0  0  0  0  0  0  0  0  0  0
  -25.7697  -20.1588   22.5902 C   0  0  0  0  0  0  0  0  0  0  0  0
  -25.6577  -20.3114   20.1816 C   0  0  0  0  0  0  0  0  0  0  0  0
  -24.5630  -20.8511   22.6902 C   0  0  0  0  0  0  0  0  0  0  0  0
  -24.4509  -21.0038   20.2816 C   0  0  0  0  0  0  0  0  0  0  0  0
  -21.7633   -9.3673   20.7761 C   0  0  0  0  0  0  0  0  0  0  0  0
  -23.6860   -8.0189   21.3437 C   0  0  0  0  0  0  0  0  0  0  0  0
  -26.0366  -28.5890   20.8197 C   0  0  0  0  0  0  0  0  0  0  0  0
  -21.6791   -7.0202   23.8727 C   0  0  0  0  0  0  0  0  0  0  0  0
  -21.9247   -6.2970   25.0398 C   0  0  0  0  0  0  0  0  0  0  0  0
  -23.6730  -29.0513   20.9561 C   0  0  0  0  0  0  0  0  0  0  0  0
  -22.2721   -4.2981   23.7281 C   0  0  0  0  0  0  0  0  0  0  0  0
  -23.9833  -10.3103   20.6380 C   0  0  0  0  0  0  0  0  0  0  0  0
  -24.9831  -12.0999   19.1196 C   0  0  0  0  0  0  0  0  0  0  0  0
  -27.9534  -33.7666   26.4733 C   0  0  0  0  0  0  0  0  0  0  0  0
  -25.2622  -30.8688   21.1316 C   0  0  0  0  0  0  0  0  0  0  0  0
  -27.1307  -32.7874   25.8844 C   0  0  0  0  0  0  0  0  0  0  0  0
  -23.9335  -30.4216   21.1096 C   0  0  0  0  0  0  0  0  0  0  0  0
  -26.3172  -19.8890   21.3358 C   0  0  0  0  0  0  0  0  0  0  0  0
  -23.9036  -21.2736   21.5359 C   0  0  0  0  0  0  0  0  0  0  0  0
  -22.3050   -8.1540   21.2006 C   0  0  0  0  0  0  0  0  0  0  0  0
  -24.7192  -28.1402   20.8137 C   0  0  0  0  0  0  0  0  0  0  0  0
  -21.7299   -6.3823   22.6332 C   0  0  0  0  0  0  0  0  0  0  0  0
  -22.2213   -4.9360   24.9675 C   0  0  0  0  0  0  0  0  0  0  0  0
  -22.0264   -5.0213   22.5609 C   0  0  0  0  0  0  0  0  0  0  0  0
  -24.8507  -11.4235   20.3471 C   0  0  0  0  0  0  0  0  0  0  0  0
  -25.9249  -13.0699   19.3619 C   0  0  0  0  0  0  0  0  0  0  0  0
  -24.3145  -11.8719   17.8720 C   0  0  0  0  0  0  0  0  0  0  0  0
  -24.3783  -32.8886   23.4213 C   0  0  0  0  0  0  0  0  0  0  0  0
  -22.1971  -33.8279   21.2118 C   0  0  0  0  0  0  0  0  0  0  0  0
  -20.3747  -33.0591   18.4307 C   0  0  0  0  0  0  0  0  0  0  0  0
  -28.1515  -17.0149   22.4744 C   0  0  0  0  0  0  0  0  0  0  0  0
  -27.4204  -35.1242   26.8573 C   0  0  0  0  0  0  0  0  0  0  0  0
  -25.5704  -32.3345   21.2701 C   0  0  0  0  0  0  0  0  0  0  0  0
  -22.7743  -31.3722   21.2548 C   0  0  0  0  0  0  0  0  0  0  0  0
  -26.1026  -35.4771   26.1724 C   0  0  0  0  0  0  0  0  0  0  0  0
  -29.0224  -13.7587   23.2896 C   0  0  0  0  0  0  0  0  0  0  0  0
  -25.1291  -34.3054   26.2517 C   0  0  0  0  0  0  0  0  0  0  0  0
  -28.0288  -12.9047   22.5032 C   0  0  0  0  0  0  0  0  0  0  0  0
  -28.3379  -14.9858   23.8796 C   0  0  0  0  0  0  0  0  0  0  0  0
  -26.6582  -15.0033   22.0632 C   0  0  0  0  0  0  0  0  0  0  0  0
  -25.6880  -33.0740   25.5288 C   0  0  1  0  0  0  0  0  0  0  0  0
  -24.4469  -33.1208   21.9384 C   0  0  1  0  0  0  0  0  0  0  0  0
  -27.2989  -13.7456   21.4413 C   0  0  2  0  0  0  0  0  0  0  0  0
  -21.3228  -20.8188   23.9726 C   0  0  0  0  0  0  0  0  0  0  0  0
  -21.2396  -20.4447   20.4098 C   0  0  0  0  0  0  0  0  0  0  0  0
  -18.6495  -34.0155   16.8794 C   0  0  0  0  0  0  0  0  0  0  0  0
  -20.0432  -33.3576   23.3211 C   0  0  0  0  0  0  0  0  0  0  0  0
  -18.3379  -33.3981   21.4885 C   0  0  0  0  0  0  0  0  0  0  0  0
  -19.7232  -35.4216   21.9456 C   0  0  0  0  0  0  0  0  0  0  0  0
  -26.7375  -16.9737   20.4553 C   0  0  0  0  0  0  0  0  0  0  0  0
  -22.1852  -32.8468   16.0992 C   0  0  0  0  0  0  0  0  0  0  0  0
  -27.6076  -19.1492   21.2279 C   0  0  0  0  0  0  0  0  0  0  0  0
  -21.1547  -22.2639   23.5181 C   0  0  0  0  0  0  0  0  0  0  0  0
  -23.4824  -24.8514   21.6496 C   0  0  0  0  0  0  0  0  0  0  0  0
  -22.2495  -24.2611   22.3395 C   0  0  0  0  0  0  0  0  0  0  0  0
  -21.6883  -21.8561   20.5803 C   0  0  0  0  0  0  0  0  0  0  0  0
  -23.2689  -26.3159   21.2874 C   0  0  0  0  0  0  0  0  0  1  0  0
  -20.7924  -33.4090   20.8509 C   0  0  1  0  0  0  0  0  0  0  0  0
  -20.1352  -33.8224   17.1405 C   0  0  2  0  0  0  0  0  0  0  0  0
  -22.3941  -22.7962   22.7863 C   0  0  2  0  0  0  0  0  0  0  0  0
  -19.7458  -33.8782   21.9007 C   0  0  0  0  0  0  0  0  0  0  0  0
  -25.6449  -11.9214   21.2985 N   0  0  0  0  0  0  0  0  0  0  0  0
  -26.2855  -12.9210   20.6688 N   0  0  0  0  0  0  0  0  0  0  0  0
  -23.1273  -32.7948   21.3937 N   0  0  0  0  0  0  0  0  0  0  0  0
  -27.6505  -15.7579   22.8441 N   0  0  0  0  0  0  0  0  0  0  0  0
  -26.4714  -14.0269   18.5824 N   0  0  0  0  0  0  0  0  0  0  0  0
  -24.8942  -10.9837   16.9558 N   0  0  0  0  0  0  0  0  0  0  0  0
  -25.5383  -33.2175   24.0965 N   0  0  0  0  0  0  0  0  0  0  0  0
  -20.5511  -33.9092   19.5018 N   0  0  0  0  0  0  0  0  0  0  0  0
  -22.6924  -21.9662   21.6357 N   0  0  3  0  0  0  0  0  0  0  0  0
  -27.4510  -17.7185   21.4830 N   0  0  0  0  0  0  0  0  0  0  0  0
  -20.7234  -33.0859   15.9861 N   0  3  0  0  0  0  0  0  0  0  0  0
  -23.2434  -12.4515   17.5714 O   0  0  0  0  0  0  0  0  0  0  0  0
  -23.3488  -32.4454   23.9165 O   0  0  0  0  0  0  0  0  0  0  0  0
  -22.4610  -35.0279   21.3209 O   0  0  0  0  0  0  0  0  0  0  0  0
  -20.3989  -31.8314   18.4836 O   0  0  0  0  0  0  0  0  0  0  0  0
  -29.1648  -17.4873   23.0056 O   0  0  0  0  0  0  0  0  0  0  0  0
  -21.4865   -7.1019   21.4753 O   0  0  0  0  0  0  0  0  0  0  0  0
  -24.4518  -26.8143   20.6640 O   0  0  0  0  0  0  0  0  0  1  0  0
  -22.4586   -4.2420   26.0883 F   0  0  0  0  0  0  0  0  0  0  0  0
  -22.0778   -4.4032   21.3730 F   0  0  0  0  0  0  0  0  0  0  0  0
  1  2  1  0  0  0  0
  1  5  2  0  0  0  0
  2  6  2  0  0  0  0
  3 12  2  0  0  0  0
  3 19  1  0  0  0  0
  4 13  1  0  0  0  0
  4 19  2  0  0  0  0
  5 21  1  0  0  0  0
  6 23  1  0  0  0  0
  7 14  2  0  0  0  0
  7 22  1  0  0  0  0
  8 10  2  0  0  0  0
  8 25  1  0  0  0  0
  9 11  1  0  0  0  0
  9 25  2  0  0  0  0
 10 26  1  0  0  0  0
 11 26  2  0  0  0  0
 12 27  1  0  0  0  0
 13 27  2  0  0  0  0
 14 28  1  0  0  0  0
 15 16  2  0  0  0  0
 15 29  1  0  0  0  0
 16 30  1  0  0  0  0
 17 24  1  0  0  0  0
 17 28  2  0  0  0  0
 18 30  2  0  0  0  0
 18 31  1  0  0  0  0
 19 32  1  0  0  0  0
 20 32  1  0  0  0  0
 20 33  2  0  0  0  0
 20 34  1  0  0  0  0
 21 23  2  0  0  0  0
 21 39  1  0  0  0  0
 22 24  2  0  0  0  0
 22 40  1  0  0  0  0
 23 48  1  0  0  0  0
 24 41  1  0  0  0  0
 25 59  1  0  0  0  0
 26 77  1  0  0  0  0
 27 85  1  0  0  0  0
 28 86  1  0  0  0  0
 29 31  2  0  0  0  0
 29 85  1  0  0  0  0
 30 87  1  0  0  0  0
 31 88  1  0  0  0  0
 32 69  2  0  0  0  0
 33 70  1  0  0  0  0
 33 73  1  0  0  0  0
 34 74  1  0  0  0  0
 34 80  2  0  0  0  0
 35 49  1  0  0  0  0
 35 75  1  0  0  0  0
 35 81  2  0  0  0  0
 36 65  1  0  0  0  0
 36 71  1  0  0  0  0
 36 82  2  0  0  0  0
 37 66  1  0  0  0  0
 37 76  1  0  0  0  0
 37 83  2  0  0  0  0
 38 72  1  0  0  0  0
 38 78  1  0  0  0  0
 38 84  2  0  0  0  0
 39 42  1  0  0  0  0
 40 49  1  0  0  0  0
 41 71  1  0  0  0  0
 42 44  1  0  0  0  0
 43 45  1  0  0  0  0
 43 46  1  0  0  0  0
 44 48  1  0  0  0  0
 45 50  1  0  0  0  0
 46 72  1  0  0  0  0
 47 50  1  0  0  0  0
 47 72  1  0  0  0  0
 48 75  1  0  0  0  0
 49 71  1  0  0  0  0
 50 70  1  0  0  0  0
 51 60  1  0  0  0  0
 52 63  1  0  0  0  0
 53 66  1  0  0  0  0
 54 68  1  0  0  0  0
 55 68  1  0  0  0  0
 56 68  1  0  0  0  0
 57 78  1  0  0  0  0
 58 79  1  0  0  0  0
 59 78  1  0  0  0  0
 60 67  1  0  0  0  0
 61 62  1  0  0  0  0
 61 64  1  0  0  0  0
 62 67  1  0  0  0  0
 63 77  1  0  0  0  0
 64 86  1  0  0  0  0
 65 68  1  0  0  0  0
 65 76  1  0  0  0  0
 66 79  1  0  0  0  0
 67 77  1  0  0  0  0
 69 70  1  0  0  0  0
M  CHG  1  79   1
M  ISO  4  38 100  64 101  78 100  86 101
M  END
> <Batch ID>
0017

> <Smiles>
CCC(CC[101CH2:1][101O:1]c1ccc2c(c1)CN(C(=O)C(NC(=O)C(C)NC)C(C)(C)C)C(C(=O)NC1CCCc3ccccc31)C2)N(CC)c1ccc(C[100N:0](C)[100C:0](=O)N2CCCC(n3nc(-c4ccc(Oc5ccc(F)cc5F)cc4)c(C(N)=O)c3N)C2)cc1

> <Shape>
0.212

> <Color>
0.123

> <Negative vol penalty>
0.000

$$$$

  -OEChem-04042321003D

 86 94  0     1  0  0  0  0  0999 V2000
  -27.6138  -26.5404   30.4024 C   0  0  0  0  0  0  0  0  0  0  0  0
  -28.2566  -25.9934   29.2965 C   0  0  0  0  0  0  0  0  0  0  0  0
  -23.2002   -9.7856   20.3091 C   0  0  0  0  0  0  0  0  0  0  0  0
  -24.1165  -10.0814   22.5250 C   0  0  0  0  0  0  0  0  0  0  0  0
  -26.4692  -27.3173   30.2283 C   0  0  0  0  0  0  0  0  0  0  0  0
  -27.7545  -26.2222   28.0159 C   0  0  0  0  0  0  0  0  0  0  0  0
  -30.9889  -26.8884   22.8583 C   0  0  0  0  0  0  0  0  0  0  0  0
  -22.5546   -8.6235   20.7312 C   0  0  0  0  0  0  0  0  0  0  0  0
  -23.4707   -8.9193   22.9471 C   0  0  0  0  0  0  0  0  0  0  0  0
  -31.3048  -26.0035   21.8283 C   0  0  0  0  0  0  0  0  0  0  0  0
  -20.3533   -8.0000   23.8729 C   0  0  0  0  0  0  0  0  0  0  0  0
  -19.6844   -8.0400   25.0962 C   0  0  0  0  0  0  0  0  0  0  0  0
  -29.4364  -26.8350   20.5489 C   0  0  0  0  0  0  0  0  0  0  0  0
  -29.6615  -18.9578   17.2261 C   0  0  0  0  0  0  0  0  0  0  0  0
  -28.7764  -20.2695   19.0517 C   0  0  0  0  0  0  0  0  0  0  0  0
  -21.1012   -6.2689   25.9287 C   0  0  0  0  0  0  0  0  0  0  0  0
  -23.9812  -10.5145   21.2060 C   0  0  0  0  0  0  0  0  0  0  0  0
  -24.1440  -13.0284   20.8040 C   0  0  0  0  0  0  0  0  0  0  0  0
  -25.9584  -27.5638   28.9442 C   0  0  0  0  0  0  0  0  0  0  0  0
  -29.8860  -27.7471   22.7457 C   0  0  0  0  0  0  0  0  0  0  0  0
  -26.6013  -27.0021   27.8245 C   0  0  0  0  0  0  0  0  0  0  0  0
  -29.1101  -27.7317   21.5778 C   0  0  0  0  0  0  0  0  0  0  0  0
  -29.0412  -17.8807   19.2978 C   0  0  0  0  0  0  0  0  0  0  0  0
  -29.2782  -20.1912   17.7525 C   0  0  0  0  0  0  0  0  0  0  0  0
  -22.6898   -8.1903   22.0502 C   0  0  0  0  0  0  0  0  0  0  0  0
  -30.5268  -25.9746   20.6746 C   0  0  0  0  0  0  0  0  0  0  0  0
  -21.3961   -7.0944   23.6773 C   0  0  0  0  0  0  0  0  0  0  0  0
  -20.0584   -7.1745   26.1241 C   0  0  0  0  0  0  0  0  0  0  0  0
  -29.5429  -17.8025   17.9987 C   0  0  0  0  0  0  0  0  0  0  0  0
  -28.6578  -19.1142   19.8243 C   0  0  0  0  0  0  0  0  0  0  0  0
  -21.7701   -6.2289   24.7053 C   0  0  0  0  0  0  0  0  0  0  0  0
  -24.6490  -11.7148   20.7704 C   0  0  0  0  0  0  0  0  0  0  0  0
  -25.1554  -13.7985   20.2839 C   0  0  0  0  0  0  0  0  0  0  0  0
  -22.8742  -13.5096   21.2643 C   0  0  0  0  0  0  0  0  0  0  0  0
  -27.1722  -28.1356   24.3544 C   0  0  0  0  0  0  0  0  0  0  0  0
  -26.8263  -30.6912   22.3867 C   0  0  0  0  0  0  0  0  0  0  0  0
  -27.6112  -32.1946   19.4251 C   0  0  0  0  0  0  0  0  0  0  0  0
  -30.7306  -14.9041   20.3955 C   0  0  0  0  0  0  0  0  0  0  0  0
  -24.6913  -28.3706   28.8095 C   0  0  0  0  0  0  0  0  0  0  0  0
  -29.5744  -28.7146   23.8544 C   0  0  0  0  0  0  0  0  0  0  0  0
  -27.9277  -28.6474   21.3991 C   0  0  0  0  0  0  0  0  0  0  0  0
  -24.4388  -28.8758   27.3913 C   0  0  0  0  0  0  0  0  0  0  0  0
  -29.4165  -12.5000   17.9065 C   0  0  0  0  0  0  0  0  0  0  0  0
  -24.6547  -27.7551   26.3791 C   0  0  0  0  0  0  0  0  0  0  0  0
  -28.0466  -12.1420   18.4802 C   0  0  0  0  0  0  0  0  0  0  0  0
  -30.4041  -12.8944   19.0005 C   0  0  0  0  0  0  0  0  0  0  0  0
  -28.5478  -13.6297   20.4591 C   0  0  0  0  0  0  0  0  0  0  0  0
  -26.1014  -27.2482   26.4175 C   0  0  1  0  0  0  0  0  0  0  0  0
  -28.1227  -29.1834   23.8480 C   0  0  1  0  0  0  0  0  0  0  0  0
  -27.5158  -13.2724   19.3789 C   0  0  2  0  0  0  0  0  0  0  0  0
  -27.1456  -34.2621   18.0813 C   0  0  0  0  0  0  0  0  0  0  0  0
  -24.0874  -29.5797   21.6300 C   0  0  0  0  0  0  0  0  0  0  0  0
  -24.0919  -31.1088   19.6475 C   0  0  0  0  0  0  0  0  0  0  0  0
  -24.1542  -32.0587   21.9533 C   0  0  0  0  0  0  0  0  0  0  0  0
  -29.9237  -21.2694   15.6122 C   0  0  0  0  0  0  0  0  0  0  0  0
  -31.0728  -17.2197   21.1703 C   0  0  0  0  0  0  0  0  0  0  0  0
  -30.4597  -32.9970   19.4569 C   0  0  0  0  0  0  0  0  0  0  0  0
  -28.9144  -16.6448   20.1232 C   0  0  0  0  0  0  0  0  0  0  0  0
  -30.1014  -23.2505   18.3407 C   0  0  0  0  0  0  0  0  0  0  0  0
  -28.9973  -22.6426   17.4841 C   0  0  0  0  0  0  0  0  0  0  0  0
  -29.7502  -24.6366   18.8683 C   0  0  0  0  0  0  0  0  0  1  0  0
  -26.2114  -30.9179   21.0267 C   0  0  1  0  0  0  0  0  0  0  0  0
  -28.0638  -33.6069   19.1013 C   0  0  2  0  0  0  0  0  0  0  0  0
  -24.6573  -30.8975   21.0682 C   0  0  0  0  0  0  0  0  0  0  0  0
  -25.8850  -11.6502   20.2685 N   0  0  0  0  0  0  0  0  0  0  0  0
  -26.1653  -12.9329   19.9818 N   0  0  0  0  0  0  0  0  0  0  0  0
  -27.6598  -29.5709   22.5139 N   0  0  0  0  0  0  0  0  0  0  0  0
  -29.8573  -13.9398   19.8661 N   0  0  0  0  0  0  0  0  0  0  0  0
  -25.2706  -15.1247   20.0600 N   0  0  0  0  0  0  0  0  0  0  0  0
  -21.9515  -12.5830   21.7687 N   0  0  0  0  0  0  0  0  0  0  0  0
  -26.9774  -28.1665   25.7221 N   0  0  0  0  0  0  0  0  0  0  0  0
  -26.7794  -32.1642   20.5245 N   0  0  0  0  0  0  0  0  0  0  0  0
  -29.3970  -21.3527   16.9758 N   0  0  3  0  0  0  0  0  0  0  0  0
  -30.2036  -16.1826   20.6329 N   0  0  0  0  0  0  0  0  0  0  0  0
  -29.4474  -33.5933   18.5477 N   0  3  0  0  0  0  0  0  0  0  0  0
  -22.5607  -14.7231   21.2141 O   0  0  0  0  0  0  0  0  0  0  0  0
  -26.6527  -27.3578   23.5627 O   0  0  0  0  0  0  0  0  0  0  0  0
  -26.5821  -31.4831   23.3004 O   0  0  0  0  0  0  0  0  0  0  0  0
  -27.9575  -31.2165   18.7663 O   0  0  0  0  0  0  0  0  0  0  0  0
  -31.9163  -14.6402   20.6329 O   0  0  0  0  0  0  0  0  0  0  0  0
  -22.0596   -7.0565   22.4625 O   0  0  0  0  0  0  0  0  0  0  0  0
  -30.8325  -25.1114   19.6680 O   0  0  0  0  0  0  0  0  0  1  0  0
  -19.4171   -7.2140   27.2994 F   0  0  0  0  0  0  0  0  0  0  0  0
  -29.9128  -16.6217   17.4832 F   0  0  0  0  0  0  0  0  0  0  0  0
  -28.1734  -19.1988   21.0712 F   0  0  0  0  0  0  0  0  0  0  0  0
  -22.7719   -5.3576   24.5238 F   0  0  0  0  0  0  0  0  0  0  0  0
  1  2  1  0  0  0  0
  1  5  2  0  0  0  0
  2  6  2  0  0  0  0
  3  8  2  0  0  0  0
  3 17  1  0  0  0  0
  4  9  1  0  0  0  0
  4 17  2  0  0  0  0
  5 19  1  0  0  0  0
  6 21  1  0  0  0  0
  7 10  2  0  0  0  0
  7 20  1  0  0  0  0
  8 25  1  0  0  0  0
  9 25  2  0  0  0  0
 10 26  1  0  0  0  0
 11 12  2  0  0  0  0
 11 27  1  0  0  0  0
 12 28  1  0  0  0  0
 13 22  1  0  0  0  0
 13 26  2  0  0  0  0
 14 24  1  0  0  0  0
 14 29  2  0  0  0  0
 15 24  2  0  0  0  0
 15 30  1  0  0  0  0
 16 28  2  0  0  0  0
 16 31  1  0  0  0  0
 17 32  1  0  0  0  0
 18 32  1  0  0  0  0
 18 33  2  0  0  0  0
 18 34  1  0  0  0  0
 19 21  2  0  0  0  0
 19 39  1  0  0  0  0
 20 22  2  0  0  0  0
 20 40  1  0  0  0  0
 21 48  1  0  0  0  0
 22 41  1  0  0  0  0
 23 29  1  0  0  0  0
 23 30  2  0  0  0  0
 23 58  1  0  0  0  0
 24 73  1  0  0  0  0
 25 81  1  0  0  0  0
 26 82  1  0  0  0  0
 27 31  2  0  0  0  0
 27 81  1  0  0  0  0
 28 83  1  0  0  0  0
 29 84  1  0  0  0  0
 30 85  1  0  0  0  0
 31 86  1  0  0  0  0
 32 65  2  0  0  0  0
 33 66  1  0  0  0  0
 33 69  1  0  0  0  0
 34 70  1  0  0  0  0
 34 76  2  0  0  0  0
 35 49  1  0  0  0  0
 35 71  1  0  0  0  0
 35 77  2  0  0  0  0
 36 62  1  0  0  0  0
 36 67  1  0  0  0  0
 36 78  2  0  0  0  0
 37 63  1  0  0  0  0
 37 72  1  0  0  0  0
 37 79  2  0  0  0  0
 38 68  1  0  0  0  0
 38 74  1  0  0  0  0
 38 80  2  0  0  0  0
 39 42  1  0  0  0  0
 40 49  1  0  0  0  0
 41 67  1  0  0  0  0
 42 44  1  0  0  0  0
 43 45  1  0  0  0  0
 43 46  1  0  0  0  0
 44 48  1  0  0  0  0
 45 50  1  0  0  0  0
 46 68  1  0  0  0  0
 47 50  1  0  0  0  0
 47 68  1  0  0  0  0
 48 71  1  0  0  0  0
 49 67  1  0  0  0  0
 50 66  1  0  0  0  0
 51 63  1  0  0  0  0
 52 64  1  0  0  0  0
 53 64  1  0  0  0  0
 54 64  1  0  0  0  0
 55 73  1  0  0  0  0
 56 74  1  0  0  0  0
 57 75  1  0  0  0  0
 58 74  1  0  0  0  0
 59 60  1  0  0  0  0
 59 61  1  0  0  0  0
 60 73  1  0  0  0  0
 61 82  1  0  0  0  0
 62 64  1  0  0  0  0
 62 72  1  0  0  0  0
 63 75  1  0  0  0  0
 65 66  1  0  0  0  0
M  CHG  1  75   1
M  ISO  4  38 100  61 101  74 100  82 101
M  END
> <Batch ID>
0017

> <Smiles>
CNC(C)C(=O)NC(C(=O)N1Cc2cc([101O:1][101CH2:1]CCN(C)c3cc(F)c(C[100N:0](C)[100C:0](=O)N4CCCC(n5nc(-c6ccc(Oc7ccc(F)cc7F)cc6)c(C(N)=O)c5N)C4)c(F)c3)ccc2CC1C(=O)NC1CCCc2ccccc21)C(C)(C)C

> <Shape>
0.313

> <Color>
0.195

> <Negative vol penalty>
0.000

$$$$

  -OEChem-04042321003D

 81 89  0     1  0  0  0  0  0999 V2000
  -16.6279  -29.1768   23.9808 C   0  0  0  0  0  0  0  0  0  0  0  0
  -17.3285  -28.1399   23.3730 C   0  0  0  0  0  0  0  0  0  0  0  0
  -26.4053  -13.4537   22.0549 C   0  0  0  0  0  0  0  0  0  0  0  0
  -26.1262  -12.5773   19.8209 C   0  0  0  0  0  0  0  0  0  0  0  0
  -17.0800  -30.4897   23.8551 C   0  0  0  0  0  0  0  0  0  0  0  0
  -18.4811  -28.4155   22.6382 C   0  0  0  0  0  0  0  0  0  0  0  0
  -22.2550  -25.1986   23.6649 C   0  0  0  0  0  0  0  0  0  0  0  0
  -25.5675  -19.7519   22.5082 C   0  0  0  0  0  0  0  0  0  0  0  0
  -26.9513  -19.8452   22.3599 C   0  0  0  0  0  0  0  0  0  0  0  0
  -25.2386  -12.8029   22.4560 C   0  0  0  0  0  0  0  0  0  0  0  0
  -24.9596  -11.9264   20.2219 C   0  0  0  0  0  0  0  0  0  0  0  0
  -22.1919  -23.9352   23.0787 C   0  0  0  0  0  0  0  0  0  0  0  0
  -22.1028   -9.7400   20.7481 C   0  0  0  0  0  0  0  0  0  0  0  0
  -21.9261   -8.4167   20.3444 C   0  0  0  0  0  0  0  0  0  0  0  0
  -23.7555  -24.6493   21.3862 C   0  0  0  0  0  0  0  0  0  0  0  0
  -25.2688  -20.6504   20.2854 C   0  0  0  0  0  0  0  0  0  0  0  0
  -23.9513   -7.7923   21.5046 C   0  0  0  0  0  0  0  0  0  0  0  0
  -26.8491  -13.3410   20.7373 C   0  0  0  0  0  0  0  0  0  0  0  0
  -29.3663  -13.5055   20.3574 C   0  0  0  0  0  0  0  0  0  0  0  0
  -18.2442  -30.7805   23.1265 C   0  0  0  0  0  0  0  0  0  0  0  0
  -23.0617  -26.2018   23.1090 C   0  0  0  0  0  0  0  0  0  0  0  0
  -18.9485  -29.7337   22.5015 C   0  0  0  0  0  0  0  0  0  0  0  0
  -23.8290  -25.9237   21.9688 C   0  0  0  0  0  0  0  0  0  0  0  0
  -24.7262  -20.1545   21.4709 C   0  0  0  0  0  0  0  0  0  0  0  0
  -27.4939  -20.3411   21.1745 C   0  0  0  0  0  0  0  0  0  0  0  0
  -24.5158  -12.0392   21.5395 C   0  0  0  0  0  0  0  0  0  0  0  0
  -22.9401  -23.6613   21.9374 C   0  0  0  0  0  0  0  0  0  0  0  0
  -23.2038  -10.0896   21.5300 C   0  0  0  0  0  0  0  0  0  0  0  0
  -22.8503   -7.4428   20.7227 C   0  0  0  0  0  0  0  0  0  0  0  0
  -26.6526  -20.7437   20.1372 C   0  0  0  0  0  0  0  0  0  0  0  0
  -24.1280   -9.1158   21.9083 C   0  0  0  0  0  0  0  0  0  0  0  0
  -28.0539  -14.0136   20.3223 C   0  0  0  0  0  0  0  0  0  0  0  0
  -30.1421  -14.5239   19.8601 C   0  0  0  0  0  0  0  0  0  0  0  0
  -29.8415  -12.2272   20.8000 C   0  0  0  0  0  0  0  0  0  0  0  0
  -22.5259  -29.0729   21.8546 C   0  0  0  0  0  0  0  0  0  0  0  0
  -25.7658  -29.2166   21.7836 C   0  0  0  0  0  0  0  0  0  0  0  0
  -28.7392  -27.5432   21.7136 C   0  0  0  0  0  0  0  0  0  0  0  0
  -29.5396  -20.3156   19.7582 C   0  0  0  0  0  0  0  0  0  0  0  0
  -18.6676  -32.2205   22.9790 C   0  0  0  0  0  0  0  0  0  0  0  0
  -23.1393  -27.5512   23.7689 C   0  0  0  0  0  0  0  0  0  0  0  0
  -24.7264  -26.9600   21.3448 C   0  0  0  0  0  0  0  0  0  0  0  0
  -20.1064  -32.3859   22.4963 C   0  0  0  0  0  0  0  0  0  0  0  0
  -29.9755  -18.2608   16.8893 C   0  0  0  0  0  0  0  0  0  0  0  0
  -20.3831  -31.4604   21.3158 C   0  0  0  0  0  0  0  0  0  0  0  0
  -29.6460  -16.8790   17.4529 C   0  0  0  0  0  0  0  0  0  0  0  0
  -29.0557  -19.3437   17.4543 C   0  0  0  0  0  0  0  0  0  0  0  0
  -28.6813  -17.9998   19.4984 C   0  0  0  0  0  0  0  0  0  0  0  0
  -20.2169  -29.9897   21.7169 C   0  0  1  0  0  0  0  0  0  0  0  0
  -23.5982  -28.6546   22.8205 C   0  0  1  0  0  0  0  0  0  0  0  0
  -29.6275  -16.9002   18.9915 C   0  0  1  0  0  0  0  0  0  0  0  0
  -31.2167  -27.9318   21.6208 C   0  0  0  0  0  0  0  0  0  0  0  0
  -25.5459  -29.8938   18.8166 C   0  0  0  0  0  0  0  0  0  0  0  0
  -27.9751  -29.3360   18.5806 C   0  0  0  0  0  0  0  0  0  0  0  0
  -27.2666  -31.2130   20.0630 C   0  0  0  0  0  0  0  0  0  0  0  0
  -29.7206  -20.9042   22.1657 C   0  0  0  0  0  0  0  0  0  0  0  0
  -29.1657  -26.1919   24.3119 C   0  0  0  0  0  0  0  0  0  0  0  0
  -23.2287  -20.0547   21.6315 C   0  0  0  0  0  0  0  0  0  0  0  0
  -22.6236  -21.3219   22.2257 C   0  0  0  0  0  0  0  0  0  1  0  0
  -26.8315  -28.8299   20.7867 C   0  0  1  0  0  0  0  0  0  0  0  0
  -30.0117  -27.7161   22.5232 C   0  0  2  0  0  0  0  0  0  0  0  0
  -26.8864  -29.7990   19.5721 C   0  0  0  0  0  0  0  0  0  0  0  0
  -27.9954  -15.2581   19.8408 N   0  0  0  0  0  0  0  0  0  0  0  0
  -29.2809  -15.5406   19.5689 N   0  0  0  0  0  0  0  0  0  0  0  0
  -24.7633  -28.2661   22.0231 N   0  0  0  0  0  0  0  0  0  0  0  0
  -29.0391  -19.2988   18.9233 N   0  0  0  0  0  0  0  0  0  0  0  0
  -31.4703  -14.6400   19.6479 N   0  0  0  0  0  0  0  0  0  0  0  0
  -28.9094  -11.2981   21.2818 N   0  0  0  0  0  0  0  0  0  0  0  0
  -21.3726  -29.5347   22.4597 N   0  0  0  0  0  0  0  0  0  0  0  0
  -28.0794  -28.7410   21.5372 N   0  0  0  0  0  0  0  0  0  0  0  0
  -28.9269  -20.4370   21.0240 N   0  0  0  0  0  0  0  0  0  0  0  0
  -30.2614  -26.5085   23.3600 N   0  3  0  0  0  0  0  0  0  0  0  0
  -31.0587  -11.9242   20.7845 O   0  0  0  0  0  0  0  0  0  0  0  0
  -22.7303  -28.9846   20.6496 O   0  0  0  0  0  0  0  0  0  0  0  0
  -25.8247  -30.3185   22.3350 O   0  0  0  0  0  0  0  0  0  0  0  0
  -28.3696  -26.4550   21.2780 O   0  0  0  0  0  0  0  0  0  0  0  0
  -30.4786  -21.0418   19.4105 O   0  0  0  0  0  0  0  0  0  0  0  0
  -23.3774  -11.4038   21.9306 O   0  0  0  0  0  0  0  0  0  0  0  0
  -22.8799  -22.4292   21.3628 O   0  0  0  0  0  0  0  0  0  1  0  0
  -22.6796   -6.1717   20.3362 F   0  0  0  0  0  0  0  0  0  0  0  0
  -27.1631  -21.2233   18.9940 F   0  0  0  0  0  0  0  0  0  0  0  0
  -25.1870   -9.4454   22.6604 F   0  0  0  0  0  0  0  0  0  0  0  0
  1  2  1  0  0  0  0
  1  5  2  0  0  0  0
  2  6  2  0  0  0  0
  3 10  2  0  0  0  0
  3 18  1  0  0  0  0
  4 11  1  0  0  0  0
  4 18  2  0  0  0  0
  5 20  1  0  0  0  0
  6 22  1  0  0  0  0
  7 12  2  0  0  0  0
  7 21  1  0  0  0  0
  8  9  2  0  0  0  0
  8 24  1  0  0  0  0
  9 25  1  0  0  0  0
 10 26  1  0  0  0  0
 11 26  2  0  0  0  0
 12 27  1  0  0  0  0
 13 14  2  0  0  0  0
 13 28  1  0  0  0  0
 14 29  1  0  0  0  0
 15 23  1  0  0  0  0
 15 27  2  0  0  0  0
 16 24  2  0  0  0  0
 16 30  1  0  0  0  0
 17 29  2  0  0  0  0
 17 31  1  0  0  0  0
 18 32  1  0  0  0  0
 19 32  1  0  0  0  0
 19 33  2  0  0  0  0
 19 34  1  0  0  0  0
 20 22  2  0  0  0  0
 20 39  1  0  0  0  0
 21 23  2  0  0  0  0
 21 40  1  0  0  0  0
 22 48  1  0  0  0  0
 23 41  1  0  0  0  0
 24 57  1  0  0  0  0
 25 30  2  0  0  0  0
 25 70  1  0  0  0  0
 26 77  1  0  0  0  0
 27 78  1  0  0  0  0
 28 31  2  0  0  0  0
 28 77  1  0  0  0  0
 29 79  1  0  0  0  0
 30 80  1  0  0  0  0
 31 81  1  0  0  0  0
 32 62  2  0  0  0  0
 33 63  1  0  0  0  0
 33 66  1  0  0  0  0
 34 67  1  0  0  0  0
 34 72  2  0  0  0  0
 35 49  1  0  0  0  0
 35 68  1  0  0  0  0
 35 73  2  0  0  0  0
 36 59  1  0  0  0  0
 36 64  1  0  0  0  0
 36 74  2  0  0  0  0
 37 60  1  0  0  0  0
 37 69  1  0  0  0  0
 37 75  2  0  0  0  0
 38 65  1  0  0  0  0
 38 70  1  0  0  0  0
 38 76  2  0  0  0  0
 39 42  1  0  0  0  0
 40 49  1  0  0  0  0
 41 64  1  0  0  0  0
 42 44  1  0  0  0  0
 43 45  1  0  0  0  0
 43 46  1  0  0  0  0
 44 48  1  0  0  0  0
 45 50  1  0  0  0  0
 46 65  1  0  0  0  0
 47 50  1  0  0  0  0
 47 65  1  0  0  0  0
 48 68  1  0  0  0  0
 49 64  1  0  0  0  0
 50 63  1  0  0  0  0
 51 60  1  0  0  0  0
 52 61  1  0  0  0  0
 53 61  1  0  0  0  0
 54 61  1  0  0  0  0
 55 70  1  0  0  0  0
 56 71  1  0  0  0  0
 57 58  1  0  0  0  0
 58 78  1  0  0  0  0
 59 61  1  0  0  0  0
 59 69  1  0  0  0  0
 60 71  1  0  0  0  0
 62 63  1  0  0  0  0
M  CHG  1  71   1
M  ISO  4  38 100  58 101  70 100  78 101
M  END
> <Batch ID>
0017

> <Smiles>
CNC(C)C(=O)NC(C(=O)N1Cc2cc([101O:1][101CH2:1]Cc3ccc([100N:0](C)[100C:0](=O)N4CCCC(n5nc(-c6ccc(Oc7ccc(F)cc7F)cc6)c(C(N)=O)c5N)C4)c(F)c3)ccc2CC1C(=O)NC1CCCc2ccccc21)C(C)(C)C

> <Shape>
0.260

> <Color>
0.093

> <Negative vol penalty>
0.000

$$$$

  -OEChem-04042321003D

 85 93  0     1  0  0  0  0  0999 V2000
  -30.4238  -26.2605   16.9118 C   0  0  0  0  0  0  0  0  0  0  0  0
  -29.0344  -26.3304   16.9238 C   0  0  0  0  0  0  0  0  0  0  0  0
  -23.1635  -13.9390   20.0437 C   0  0  0  0  0  0  0  0  0  0  0  0
  -25.2199  -14.6965   21.0609 C   0  0  0  0  0  0  0  0  0  0  0  0
  -31.1455  -26.5568   18.0674 C   0  0  0  0  0  0  0  0  0  0  0  0
  -28.3659  -26.6956   18.0918 C   0  0  0  0  0  0  0  0  0  0  0  0
  -23.1937  -29.9483   18.5094 C   0  0  0  0  0  0  0  0  0  0  0  0
  -23.6558  -12.6342   20.0201 C   0  0  0  0  0  0  0  0  0  0  0  0
  -25.7122  -13.3916   21.0373 C   0  0  0  0  0  0  0  0  0  0  0  0
  -21.8620  -29.5744   18.6843 C   0  0  0  0  0  0  0  0  0  0  0  0
  -24.2295   -9.0445   20.0224 C   0  0  0  0  0  0  0  0  0  0  0  0
  -23.3753   -8.0215   20.4341 C   0  0  0  0  0  0  0  0  0  0  0  0
  -22.0748  -29.9491   21.0578 C   0  0  0  0  0  0  0  0  0  0  0  0
  -20.6445  -25.4381   22.0066 C   0  0  0  0  0  0  0  0  0  0  0  0
  -20.1069  -25.1916   19.6641 C   0  0  0  0  0  0  0  0  0  0  0  0
  -23.1887   -9.0535   22.6107 C   0  0  0  0  0  0  0  0  0  0  0  0
  -23.9456  -14.9702   20.5641 C   0  0  0  0  0  0  0  0  0  0  0  0
  -22.7019  -16.9313   21.6201 C   0  0  0  0  0  0  0  0  0  0  0  0
  -30.4860  -26.9352   19.2474 C   0  0  0  0  0  0  0  0  0  0  0  0
  -23.9804  -30.3156   19.6107 C   0  0  0  0  0  0  0  0  0  0  0  0
  -29.0794  -26.9960   19.2645 C   0  0  0  0  0  0  0  0  0  0  0  0
  -23.4155  -30.3297   20.8939 C   0  0  0  0  0  0  0  0  0  0  0  0
  -21.8817  -23.8754   20.6412 C   0  0  0  0  0  0  0  0  0  0  0  0
  -19.8737  -25.7947   20.9001 C   0  0  0  0  0  0  0  0  0  0  0  0
  -24.9302  -12.3605   20.5169 C   0  0  0  0  0  0  0  0  0  0  0  0
  -21.3032  -29.5719   19.9590 C   0  0  0  0  0  0  0  0  0  0  0  0
  -24.5633  -10.0720   20.9047 C   0  0  0  0  0  0  0  0  0  0  0  0
  -22.8549   -8.0260   21.7283 C   0  0  0  0  0  0  0  0  0  0  0  0
  -21.6486  -24.4785   21.8771 C   0  0  0  0  0  0  0  0  0  0  0  0
  -24.0429  -10.0765   22.1989 C   0  0  0  0  0  0  0  0  0  0  0  0
  -21.1109  -24.2320   19.5347 C   0  0  0  0  0  0  0  0  0  0  0  0
  -23.4378  -16.3184   20.5883 C   0  0  0  0  0  0  0  0  0  0  0  0
  -22.4612  -18.2033   21.1614 C   0  0  0  0  0  0  0  0  0  0  0  0
  -22.2741  -16.3983   22.8806 C   0  0  0  0  0  0  0  0  0  0  0  0
  -26.6237  -29.1758   20.9588 C   0  0  0  0  0  0  0  0  0  0  0  0
  -26.3735  -31.8427   22.7885 C   0  0  0  0  0  0  0  0  0  0  0  0
  -24.3793  -34.2892   24.0863 C   0  0  0  0  0  0  0  0  0  0  0  0
  -24.7314  -22.8114   18.7266 C   0  0  0  0  0  0  0  0  0  0  0  0
  -31.3066  -27.2003   20.4847 C   0  0  0  0  0  0  0  0  0  0  0  0
  -25.4076  -30.7421   19.4019 C   0  0  0  0  0  0  0  0  0  0  0  0
  -24.2117  -30.7352   22.1064 C   0  0  0  0  0  0  0  0  0  0  0  0
  -30.5402  -27.9425   21.5764 C   0  0  0  0  0  0  0  0  0  0  0  0
  -23.1151  -20.2540   16.5939 C   0  0  0  0  0  0  0  0  0  0  0  0
  -29.1639  -27.3177   21.7815 C   0  0  0  0  0  0  0  0  0  0  0  0
  -23.0646  -19.0360   17.5147 C   0  0  0  0  0  0  0  0  0  0  0  0
  -24.2831  -21.1746   16.9347 C   0  0  0  0  0  0  0  0  0  0  0  0
  -24.2632  -20.3890   19.2791 C   0  0  0  0  0  0  0  0  0  0  0  0
  -28.3193  -27.4124   20.5051 C   0  0  1  0  0  0  0  0  0  0  0  0
  -26.2626  -30.6029   20.6577 C   0  0  1  0  0  0  0  0  0  0  0  0
  -23.0703  -19.4647   18.9923 C   0  0  2  0  0  0  0  0  0  0  0  0
  -24.4534  -36.3071   25.5764 C   0  0  0  0  0  0  0  0  0  0  0  0
  -26.5306  -30.0270   25.2356 C   0  0  0  0  0  0  0  0  0  0  0  0
  -25.6600  -31.9267   26.6145 C   0  0  0  0  0  0  0  0  0  0  0  0
  -27.8414  -32.1484   25.4248 C   0  0  0  0  0  0  0  0  0  0  0  0
  -18.3205  -27.0766   22.3507 C   0  0  0  0  0  0  0  0  0  0  0  0
  -24.5772  -24.7057   20.2974 C   0  0  0  0  0  0  0  0  0  0  0  0
  -23.4736  -36.0753   21.9072 C   0  0  0  0  0  0  0  0  0  0  0  0
  -22.9671  -22.8525   20.5399 C   0  0  0  0  0  0  0  0  0  0  0  0
  -18.3541  -27.4729   19.8829 C   0  0  0  0  0  0  0  0  0  0  0  0
  -19.4666  -28.2597   19.2103 C   0  0  0  0  0  0  0  0  0  1  0  0
  -25.6933  -32.1850   24.0920 C   0  0  1  0  0  0  0  0  0  0  0  0
  -24.5445  -35.7970   24.1466 C   0  0  2  0  0  0  0  0  0  0  0  0
  -26.4166  -31.5622   25.3193 C   0  0  0  0  0  0  0  0  0  0  0  0
  -23.6505  -17.1340   19.5521 N   0  0  0  0  0  0  0  0  0  0  0  0
  -23.0446  -18.2723   19.9305 N   0  0  0  0  0  0  0  0  0  0  0  0
  -25.6046  -31.1379   21.8515 N   0  0  0  0  0  0  0  0  0  0  0  0
  -24.2891  -21.5316   18.3537 N   0  0  0  0  0  0  0  0  0  0  0  0
  -21.8095  -19.2584   21.6949 N   0  0  0  0  0  0  0  0  0  0  0  0
  -22.6067  -15.0732   23.1932 N   0  0  0  0  0  0  0  0  0  0  0  0
  -27.7879  -28.7494   20.3487 N   0  0  0  0  0  0  0  0  0  0  0  0
  -25.5949  -33.6400   24.1313 N   0  0  0  0  0  0  0  0  0  0  0  0
  -18.8667  -26.7603   21.0307 N   0  0  3  0  0  0  0  0  0  0  0  0
  -24.1595  -23.3759   19.8768 N   0  0  0  0  0  0  0  0  0  0  0  0
  -23.4851  -36.4668   23.3403 N   0  3  0  0  0  0  0  0  0  0  0  0
  -21.6024  -17.0719   23.6982 O   0  0  0  0  0  0  0  0  0  0  0  0
  -25.9005  -28.5113   21.6917 O   0  0  0  0  0  0  0  0  0  0  0  0
  -27.5417  -32.1942   22.6054 O   0  0  0  0  0  0  0  0  0  0  0  0
  -23.2814  -33.7419   24.0110 O   0  0  0  0  0  0  0  0  0  0  0  0
  -25.5817  -23.4191   18.0636 O   0  0  0  0  0  0  0  0  0  0  0  0
  -25.4108  -11.0873   20.4942 O   0  0  0  0  0  0  0  0  0  0  0  0
  -20.0038  -29.2068   20.1326 O   0  0  0  0  0  0  0  0  0  1  0  0
  -22.0335   -7.0444   22.1231 F   0  0  0  0  0  0  0  0  0  0  0  0
  -22.3850  -24.1449   22.9464 F   0  0  0  0  0  0  0  0  0  0  0  0
  -24.3590  -11.0615   23.0507 F   0  0  0  0  0  0  0  0  0  0  0  0
  -21.3702  -23.5071   17.9896 Cl  0  0  0  0  0  0  0  0  0  0  0  0
  1  2  1  0  0  0  0
  1  5  2  0  0  0  0
  2  6  2  0  0  0  0
  3  8  2  0  0  0  0
  3 17  1  0  0  0  0
  4  9  1  0  0  0  0
  4 17  2  0  0  0  0
  5 19  1  0  0  0  0
  6 21  1  0  0  0  0
  7 10  2  0  0  0  0
  7 20  1  0  0  0  0
  8 25  1  0  0  0  0
  9 25  2  0  0  0  0
 10 26  1  0  0  0  0
 11 12  2  0  0  0  0
 11 27  1  0  0  0  0
 12 28  1  0  0  0  0
 13 22  1  0  0  0  0
 13 26  2  0  0  0  0
 14 24  1  0  0  0  0
 14 29  2  0  0  0  0
 15 24  2  0  0  0  0
 15 31  1  0  0  0  0
 16 28  2  0  0  0  0
 16 30  1  0  0  0  0
 17 32  1  0  0  0  0
 18 32  1  0  0  0  0
 18 33  2  0  0  0  0
 18 34  1  0  0  0  0
 19 21  2  0  0  0  0
 19 39  1  0  0  0  0
 20 22  2  0  0  0  0
 20 40  1  0  0  0  0
 21 48  1  0  0  0  0
 22 41  1  0  0  0  0
 23 29  1  0  0  0  0
 23 31  2  0  0  0  0
 23 58  1  0  0  0  0
 24 72  1  0  0  0  0
 25 80  1  0  0  0  0
 26 81  1  0  0  0  0
 27 30  2  0  0  0  0
 27 80  1  0  0  0  0
 28 82  1  0  0  0  0
 29 83  1  0  0  0  0
 30 84  1  0  0  0  0
 31 85  1  0  0  0  0
 32 64  2  0  0  0  0
 33 65  1  0  0  0  0
 33 68  1  0  0  0  0
 34 69  1  0  0  0  0
 34 75  2  0  0  0  0
 35 49  1  0  0  0  0
 35 70  1  0  0  0  0
 35 76  2  0  0  0  0
 36 61  1  0  0  0  0
 36 66  1  0  0  0  0
 36 77  2  0  0  0  0
 37 62  1  0  0  0  0
 37 71  1  0  0  0  0
 37 78  2  0  0  0  0
 38 67  1  0  0  0  0
 38 73  1  0  0  0  0
 38 79  2  0  0  0  0
 39 42  1  0  0  0  0
 40 49  1  0  0  0  0
 41 66  1  0  0  0  0
 42 44  1  0  0  0  0
 43 45  1  0  0  0  0
 43 46  1  0  0  0  0
 44 48  1  0  0  0  0
 45 50  1  0  0  0  0
 46 67  1  0  0  0  0
 47 50  1  0  0  0  0
 47 67  1  0  0  0  0
 48 70  1  0  0  0  0
 49 66  1  0  0  0  0
 50 65  1  0  0  0  0
 51 62  1  0  0  0  0
 52 63  1  0  0  0  0
 53 63  1  0  0  0  0
 54 63  1  0  0  0  0
 55 72  1  0  0  0  0
 56 73  1  0  0  0  0
 57 74  1  0  0  0  0
 58 73  1  0  0  0  0
 59 60  1  0  0  0  0
 59 72  1  0  0  0  0
 60 81  1  0  0  0  0
 61 63  1  0  0  0  0
 61 71  1  0  0  0  0
 62 74  1  0  0  0  0
 64 65  1  0  0  0  0
M  CHG  1  74   1
M  ISO  4  38 100  60 101  73 100  81 101
M  END
> <Batch ID>
0017

> <Smiles>
CNC(C)C(=O)NC(C(=O)N1Cc2cc([101O:1][101CH2:1]CN(C)c3cc(F)c(C[100N:0](C)[100C:0](=O)N4CCCC(n5nc(-c6ccc(Oc7ccc(F)cc7F)cc6)c(C(N)=O)c5N)C4)c(Cl)c3)ccc2CC1C(=O)NC1CCCc2ccccc21)C(C)(C)C

> <Shape>
0.274

> <Color>
0.084

> <Negative vol penalty>
0.000

$$$$

  -OEChem-04042321003D

 84 92  0     1  0  0  0  0  0999 V2000
  -29.8678   -2.0832   36.8256 C   0  0  0  0  0  0  0  0  0  0  0  0
  -29.8000   -2.9386   35.7306 C   0  0  0  0  0  0  0  0  0  0  0  0
  -23.2846   -9.7975   19.9080 C   0  0  0  0  0  0  0  0  0  0  0  0
  -23.7225   -9.9368   22.2799 C   0  0  0  0  0  0  0  0  0  0  0  0
  -28.6956   -1.5915   37.3984 C   0  0  0  0  0  0  0  0  0  0  0  0
  -28.5597   -3.3021   35.2070 C   0  0  0  0  0  0  0  0  0  0  0  0
  -27.0427   -8.6994   32.7426 C   0  0  0  0  0  0  0  0  0  0  0  0
  -28.4291  -11.5084   25.2454 C   0  0  0  0  0  0  0  0  0  0  0  0
  -28.4860  -10.3588   23.1212 C   0  0  0  0  0  0  0  0  0  0  0  0
  -27.7612  -10.4241   25.8143 C   0  0  0  0  0  0  0  0  0  0  0  0
  -27.8181   -9.2744   23.6902 C   0  0  0  0  0  0  0  0  0  0  0  0
  -22.5525   -8.6278   20.1119 C   0  0  0  0  0  0  0  0  0  0  0  0
  -22.9904   -8.7671   22.4838 C   0  0  0  0  0  0  0  0  0  0  0  0
  -26.9560   -9.1361   31.4214 C   0  0  0  0  0  0  0  0  0  0  0  0
  -19.7387   -7.8687   22.6830 C   0  0  0  0  0  0  0  0  0  0  0  0
  -18.8303   -7.8507   23.7413 C   0  0  0  0  0  0  0  0  0  0  0  0
  -24.5870   -8.6809   31.4327 C   0  0  0  0  0  0  0  0  0  0  0  0
  -20.0233   -5.9990   24.7339 C   0  0  0  0  0  0  0  0  0  0  0  0
  -23.8696  -10.4519   20.9921 C   0  0  0  0  0  0  0  0  0  0  0  0
  -24.1400  -12.9809   20.7945 C   0  0  0  0  0  0  0  0  0  0  0  0
  -27.4401   -1.9568   36.8876 C   0  0  0  0  0  0  0  0  0  0  0  0
  -25.9022   -8.2391   33.4164 C   0  0  0  0  0  0  0  0  0  0  0  0
  -27.3696   -2.8138   35.7726 C   0  0  0  0  0  0  0  0  0  0  0  0
  -24.6614   -8.2413   32.7633 C   0  0  0  0  0  0  0  0  0  0  0  0
  -28.7915  -11.4758   23.8987 C   0  0  0  0  0  0  0  0  0  0  0  0
  -27.4557   -9.3071   25.0368 C   0  0  0  0  0  0  0  0  0  0  0  0
  -22.4054   -8.1126   21.3998 C   0  0  0  0  0  0  0  0  0  0  0  0
  -25.7286   -9.1242   30.7653 C   0  0  0  0  0  0  0  0  0  0  0  0
  -20.7894   -6.9518   22.6500 C   0  0  0  0  0  0  0  0  0  0  0  0
  -18.9726   -6.9159   24.7667 C   0  0  0  0  0  0  0  0  0  0  0  0
  -20.9317   -6.0170   23.6755 C   0  0  0  0  0  0  0  0  0  0  0  0
  -24.6265  -11.6599   20.7821 C   0  0  0  0  0  0  0  0  0  0  0  0
  -25.2459  -13.7565   20.5456 C   0  0  0  0  0  0  0  0  0  0  0  0
  -22.8075  -13.4637   21.0117 C   0  0  0  0  0  0  0  0  0  0  0  0
  -25.0315   -5.4755   34.7233 C   0  0  0  0  0  0  0  0  0  0  0  0
  -22.4723   -7.2006   35.7218 C   0  0  0  0  0  0  0  0  0  0  0  0
  -20.4424   -9.9047   35.2594 C   0  0  0  0  0  0  0  0  0  0  0  0
  -31.1496  -12.3509   21.3872 C   0  0  0  0  0  0  0  0  0  0  0  0
  -26.2020   -1.3624   37.5107 C   0  0  0  0  0  0  0  0  0  0  0  0
  -26.0076   -7.7965   34.8501 C   0  0  0  0  0  0  0  0  0  0  0  0
  -23.4036   -7.7759   33.4487 C   0  0  0  0  0  0  0  0  0  0  0  0
  -24.9172   -2.0935   37.1297 C   0  0  0  0  0  0  0  0  0  0  0  0
  -29.4877  -13.6547   18.3475 C   0  0  0  0  0  0  0  0  0  0  0  0
  -24.8769   -2.3545   35.6274 C   0  0  0  0  0  0  0  0  0  0  0  0
  -28.0171  -13.3328   18.6079 C   0  0  0  0  0  0  0  0  0  0  0  0
  -30.4170  -12.6711   19.0522 C   0  0  0  0  0  0  0  0  0  0  0  0
  -28.6994  -12.2294   20.7753 C   0  0  0  0  0  0  0  0  0  0  0  0
  -26.0424   -3.2508   35.1916 C   0  0  1  0  0  0  0  0  0  0  0  0
  -24.8755   -6.8653   35.2727 C   0  0  1  0  0  0  0  0  0  0  0  0
  -27.7370  -13.2295   20.1172 C   0  0  2  0  0  0  0  0  0  0  0  0
  -18.4121  -11.0298   36.2130 C   0  0  0  0  0  0  0  0  0  0  0  0
  -20.6974   -5.0672   34.4536 C   0  0  0  0  0  0  0  0  0  0  0  0
  -18.7849   -6.6772   34.5889 C   0  0  0  0  0  0  0  0  0  0  0  0
  -19.9058   -5.8966   36.6762 C   0  0  0  0  0  0  0  0  0  0  0  0
  -26.4659   -7.0444   24.7913 C   0  0  0  0  0  0  0  0  0  0  0  0
  -31.8627  -12.0559   23.7290 C   0  0  0  0  0  0  0  0  0  0  0  0
  -21.9521  -12.3786   35.8592 C   0  0  0  0  0  0  0  0  0  0  0  0
  -29.5053  -12.6348   23.2894 C   0  0  0  0  0  0  0  0  0  0  0  0
  -25.1026   -8.9645   27.2113 C   0  0  0  0  0  0  0  0  0  0  0  0
  -26.4098   -8.2097   27.0020 C   0  0  0  0  0  0  0  0  0  0  0  0
  -24.6335   -8.9512   28.6614 C   0  0  0  0  0  0  0  0  0  1  0  0
  -21.1096   -7.5176   35.1547 C   0  0  1  0  0  0  0  0  0  0  0  0
  -19.9311  -10.9575   36.2262 C   0  0  2  0  0  0  0  0  0  0  0  0
  -20.1483   -6.2967   35.2045 C   0  0  0  0  0  0  0  0  0  0  0  0
  -25.9392  -11.5961   20.5439 N   0  0  0  0  0  0  0  0  0  0  0  0
  -26.2869  -12.8867   20.4044 N   0  0  0  0  0  0  0  0  0  0  0  0
  -23.5593   -7.3469   34.8484 N   0  0  0  0  0  0  0  0  0  0  0  0
  -30.1009  -12.5599   20.4766 N   0  0  0  0  0  0  0  0  0  0  0  0
  -25.4196  -15.0907   20.4359 N   0  0  0  0  0  0  0  0  0  0  0  0
  -21.7900  -12.5308   21.2536 N   0  0  0  0  0  0  0  0  0  0  0  0
  -25.7716   -4.6317   35.5293 N   0  0  0  0  0  0  0  0  0  0  0  0
  -20.6276   -8.6877   35.8806 N   0  0  0  0  0  0  0  0  0  0  0  0
  -26.7858   -8.2161   25.6089 N   0  0  3  0  0  0  0  0  0  0  0  0
  -30.8090  -12.2608   22.7454 N   0  0  0  0  0  0  0  0  0  0  0  0
  -20.4686  -12.2991   35.8629 N   0  3  0  0  0  0  0  0  0  0  0  0
  -22.5246  -14.6852   20.9756 O   0  0  0  0  0  0  0  0  0  0  0  0
  -24.5171   -5.1895   33.6485 O   0  0  0  0  0  0  0  0  0  0  0  0
  -22.5694   -6.8434   36.8985 O   0  0  0  0  0  0  0  0  0  0  0  0
  -20.6527  -10.1376   34.0711 O   0  0  0  0  0  0  0  0  0  0  0  0
  -32.3246  -12.2600   21.0088 O   0  0  0  0  0  0  0  0  0  0  0  0
  -21.6909   -6.9715   21.5991 O   0  0  0  0  0  0  0  0  0  0  0  0
  -25.6413   -9.5493   29.4756 O   0  0  0  0  0  0  0  0  0  1  0  0
  -18.1010   -6.8998   25.7838 F   0  0  0  0  0  0  0  0  0  0  0  0
  -21.9398   -5.1344   23.6500 F   0  0  0  0  0  0  0  0  0  0  0  0
  1  2  1  0  0  0  0
  1  5  2  0  0  0  0
  2  6  2  0  0  0  0
  3 12  2  0  0  0  0
  3 19  1  0  0  0  0
  4 13  1  0  0  0  0
  4 19  2  0  0  0  0
  5 21  1  0  0  0  0
  6 23  1  0  0  0  0
  7 14  2  0  0  0  0
  7 22  1  0  0  0  0
  8 10  2  0  0  0  0
  8 25  1  0  0  0  0
  9 11  1  0  0  0  0
  9 25  2  0  0  0  0
 10 26  1  0  0  0  0
 11 26  2  0  0  0  0
 12 27  1  0  0  0  0
 13 27  2  0  0  0  0
 14 28  1  0  0  0  0
 15 16  2  0  0  0  0
 15 29  1  0  0  0  0
 16 30  1  0  0  0  0
 17 24  1  0  0  0  0
 17 28  2  0  0  0  0
 18 30  2  0  0  0  0
 18 31  1  0  0  0  0
 19 32  1  0  0  0  0
 20 32  1  0  0  0  0
 20 33  2  0  0  0  0
 20 34  1  0  0  0  0
 21 23  2  0  0  0  0
 21 39  1  0  0  0  0
 22 24  2  0  0  0  0
 22 40  1  0  0  0  0
 23 48  1  0  0  0  0
 24 41  1  0  0  0  0
 25 58  1  0  0  0  0
 26 73  1  0  0  0  0
 27 81  1  0  0  0  0
 28 82  1  0  0  0  0
 29 31  2  0  0  0  0
 29 81  1  0  0  0  0
 30 83  1  0  0  0  0
 31 84  1  0  0  0  0
 32 65  2  0  0  0  0
 33 66  1  0  0  0  0
 33 69  1  0  0  0  0
 34 70  1  0  0  0  0
 34 76  2  0  0  0  0
 35 49  1  0  0  0  0
 35 71  1  0  0  0  0
 35 77  2  0  0  0  0
 36 62  1  0  0  0  0
 36 67  1  0  0  0  0
 36 78  2  0  0  0  0
 37 63  1  0  0  0  0
 37 72  1  0  0  0  0
 37 79  2  0  0  0  0
 38 68  1  0  0  0  0
 38 74  1  0  0  0  0
 38 80  2  0  0  0  0
 39 42  1  0  0  0  0
 40 49  1  0  0  0  0
 41 67  1  0  0  0  0
 42 44  1  0  0  0  0
 43 45  1  0  0  0  0
 43 46  1  0  0  0  0
 44 48  1  0  0  0  0
 45 50  1  0  0  0  0
 46 68  1  0  0  0  0
 47 50  1  0  0  0  0
 47 68  1  0  0  0  0
 48 71  1  0  0  0  0
 49 67  1  0  0  0  0
 50 66  1  0  0  0  0
 51 63  1  0  0  0  0
 52 64  1  0  0  0  0
 53 64  1  0  0  0  0
 54 64  1  0  0  0  0
 55 73  1  0  0  0  0
 56 74  1  0  0  0  0
 57 75  1  0  0  0  0
 58 74  1  0  0  0  0
 59 60  1  0  0  0  0
 59 61  1  0  0  0  0
 60 73  1  0  0  0  0
 61 82  1  0  0  0  0
 62 64  1  0  0  0  0
 62 72  1  0  0  0  0
 63 75  1  0  0  0  0
 65 66  1  0  0  0  0
M  CHG  1  75   1
M  ISO  4  38 100  61 101  74 100  82 101
M  END
> <Batch ID>
0017

> <Smiles>
CNC(C)C(=O)NC(C(=O)N1Cc2cc([101O:1][101CH2:1]CCN(C)c3ccc(C[100N:0](C)[100C:0](=O)N4CCCC(n5nc(-c6ccc(Oc7ccc(F)cc7F)cc6)c(C(N)=O)c5N)C4)cc3)ccc2CC1C(=O)NC1CCCc2ccccc21)C(C)(C)C

> <Shape>
0.132

> <Color>
0.185

> <Negative vol penalty>
0.000

$$$$

  -OEChem-04042321003D

 85 93  0     1  0  0  0  0  0999 V2000
  -29.7317  -12.6081   20.0112 C   0  0  0  0  0  0  0  0  0  0  0  0
  -29.5649  -13.7219   20.8280 C   0  0  0  0  0  0  0  0  0  0  0  0
  -28.9687  -26.2363   19.4699 C   0  0  0  0  0  0  0  0  0  0  0  0
  -26.9131  -24.9813   19.2786 C   0  0  0  0  0  0  0  0  0  0  0  0
  -28.8636  -12.3933   18.9415 C   0  0  0  0  0  0  0  0  0  0  0  0
  -28.5305  -14.6221   20.5749 C   0  0  0  0  0  0  0  0  0  0  0  0
  -23.9989  -19.0154   23.9631 C   0  0  0  0  0  0  0  0  0  0  0  0
  -18.5585  -28.6983   23.5932 C   0  0  0  0  0  0  0  0  0  0  0  0
  -19.8454  -27.8383   21.7382 C   0  0  0  0  0  0  0  0  0  0  0  0
  -18.2428  -27.3954   23.9783 C   0  0  0  0  0  0  0  0  0  0  0  0
  -19.5298  -26.5353   22.1233 C   0  0  0  0  0  0  0  0  0  0  0  0
  -29.7015  -25.0594   19.3168 C   0  0  0  0  0  0  0  0  0  0  0  0
  -27.6460  -23.8043   19.1254 C   0  0  0  0  0  0  0  0  0  0  0  0
  -23.5677  -20.3411   23.9446 C   0  0  0  0  0  0  0  0  0  0  0  0
  -28.9701  -20.4206   19.0441 C   0  0  0  0  0  0  0  0  0  0  0  0
  -28.5580  -19.3014   19.7675 C   0  0  0  0  0  0  0  0  0  0  0  0
  -22.0808  -19.8257   22.1163 C   0  0  0  0  0  0  0  0  0  0  0  0
  -28.8993  -20.5099   21.8315 C   0  0  0  0  0  0  0  0  0  0  0  0
  -27.5745  -26.1972   19.4509 C   0  0  0  0  0  0  0  0  0  0  0  0
  -26.3808  -28.2815   18.5915 C   0  0  0  0  0  0  0  0  0  0  0  0
  -27.8122  -13.2861   18.6810 C   0  0  0  0  0  0  0  0  0  0  0  0
  -23.4814  -18.0858   23.0496 C   0  0  0  0  0  0  0  0  0  0  0  0
  -27.6483  -14.4196   19.4999 C   0  0  0  0  0  0  0  0  0  0  0  0
  -22.5052  -18.4882   22.1270 C   0  0  0  0  0  0  0  0  0  0  0  0
  -19.3598  -28.9198   22.4731 C   0  0  0  0  0  0  0  0  0  0  0  0
  -18.7284  -26.3139   23.2434 C   0  0  0  0  0  0  0  0  0  0  0  0
  -29.0402  -23.8435   19.1445 C   0  0  0  0  0  0  0  0  0  0  0  0
  -22.6107  -20.7471   23.0192 C   0  0  0  0  0  0  0  0  0  0  0  0
  -29.3469  -21.5844   19.7144 C   0  0  0  0  0  0  0  0  0  0  0  0
  -28.5226  -19.3461   21.1612 C   0  0  0  0  0  0  0  0  0  0  0  0
  -29.3114  -21.6291   21.1081 C   0  0  0  0  0  0  0  0  0  0  0  0
  -26.8169  -27.4125   19.6096 C   0  0  0  0  0  0  0  0  0  0  0  0
  -25.7092  -29.2787   19.2556 C   0  0  0  0  0  0  0  0  0  0  0  0
  -26.5662  -28.1951   17.1724 C   0  0  0  0  0  0  0  0  0  0  0  0
  -24.7129  -16.2981   20.7277 C   0  0  0  0  0  0  0  0  0  0  0  0
  -21.7156  -15.0622   20.6211 C   0  0  0  0  0  0  0  0  0  0  0  0
  -18.3880  -15.4732   21.2574 C   0  0  0  0  0  0  0  0  0  0  0  0
  -21.8484  -30.4645   23.2562 C   0  0  0  0  0  0  0  0  0  0  0  0
  -26.9281  -13.0372   17.4847 C   0  0  0  0  0  0  0  0  0  0  0  0
  -23.9373  -16.6533   23.1001 C   0  0  0  0  0  0  0  0  0  0  0  0
  -21.9033  -17.5245   21.1383 C   0  0  0  0  0  0  0  0  0  0  0  0
  -25.6289  -13.8383   17.5102 C   0  0  0  0  0  0  0  0  0  0  0  0
  -25.4325  -30.3744   24.1768 C   0  0  0  0  0  0  0  0  0  0  0  0
  -25.9062  -15.2938   17.8730 C   0  0  0  0  0  0  0  0  0  0  0  0
  -26.0556  -29.6027   23.0147 C   0  0  0  0  0  0  0  0  0  0  0  0
  -23.9773  -29.9773   24.4059 C   0  0  0  0  0  0  0  0  0  0  0  0
  -23.7451  -29.3261   22.0318 C   0  0  0  0  0  0  0  0  0  0  0  0
  -26.5230  -15.4056   19.2725 C   0  0  1  0  0  0  0  0  0  0  0  0
  -23.7191  -15.9101   21.7858 C   0  0  1  0  0  0  0  0  0  0  0  0
  -25.1973  -29.7362   21.7447 C   0  0  2  0  0  0  0  0  0  0  0  0
  -21.3668  -32.6321   20.7487 C   0  0  0  0  0  0  0  0  0  0  0  0
  -16.1793  -14.3046   21.0266 C   0  0  0  0  0  0  0  0  0  0  0  0
  -21.6971  -15.6918   17.6355 C   0  0  0  0  0  0  0  0  0  0  0  0
  -19.2102  -15.4039   17.6612 C   0  0  0  0  0  0  0  0  0  0  0  0
  -20.6925  -13.4834   18.2422 C   0  0  0  0  0  0  0  0  0  0  0  0
  -17.5733  -24.7722   24.8083 C   0  0  0  0  0  0  0  0  0  0  0  0
  -17.9433  -15.4878   24.1833 C   0  0  0  0  0  0  0  0  0  0  0  0
  -19.6975  -30.3125   22.0603 C   0  0  0  0  0  0  0  0  0  0  0  0
  -20.3127  -23.5085   23.2917 C   0  0  0  0  0  0  0  0  0  0  0  0
  -21.6637  -31.1482   20.8270 C   0  0  0  0  0  0  0  0  0  0  0  0
  -18.8872  -23.8629   22.8860 C   0  0  0  0  0  0  0  0  0  0  0  0
  -20.8498  -22.2801   22.5665 C   0  0  0  0  0  0  0  0  0  1  0  0
  -20.4467  -15.3979   19.8752 C   0  0  1  0  0  0  0  0  0  0  0  0
  -17.3723  -14.5689   21.9320 C   0  0  2  0  0  0  0  0  0  0  0  0
  -20.5242  -15.0131   18.3708 C   0  0  0  0  0  0  0  0  0  0  0  0
  -26.4530  -27.8218   20.8278 N   0  0  0  0  0  0  0  0  0  0  0  0
  -25.7812  -28.9590   20.5795 N   0  0  0  0  0  0  0  0  0  0  0  0
  -22.3862  -16.1363   21.2232 N   0  0  0  0  0  0  0  0  0  0  0  0
  -23.1944  -30.0720   23.1733 N   0  0  0  0  0  0  0  0  0  0  0  0
  -25.0699  -30.3891   18.8304 N   0  0  0  0  0  0  0  0  0  0  0  0
  -27.2807  -27.1049   16.6572 N   0  0  0  0  0  0  0  0  0  0  0  0
  -25.5032  -15.2533   20.2879 N   0  0  0  0  0  0  0  0  0  0  0  0
  -19.3616  -14.7487   20.6029 N   0  0  0  0  0  0  0  0  0  0  0  0
  -18.4128  -25.0038   23.6313 N   0  0  3  0  0  0  0  0  0  0  0  0
  -21.1331  -30.5549   22.0525 N   0  0  0  0  0  0  0  0  0  0  0  0
  -16.8774  -15.1944   23.1909 N   0  3  0  0  0  0  0  0  0  0  0  0
  -26.1259  -29.0675   16.3860 O   0  0  0  0  0  0  0  0  0  0  0  0
  -24.7583  -17.4590   20.3380 O   0  0  0  0  0  0  0  0  0  0  0  0
  -22.0939  -13.8893   20.6737 O   0  0  0  0  0  0  0  0  0  0  0  0
  -18.3221  -16.6996   21.3031 O   0  0  0  0  0  0  0  0  0  0  0  0
  -21.3189  -30.7289   24.3433 O   0  0  0  0  0  0  0  0  0  0  0  0
  -29.7550  -22.6949   18.9948 O   0  0  0  0  0  0  0  0  0  0  0  0
  -22.1885  -22.0406   22.9986 O   0  0  0  0  0  0  0  0  0  1  0  0
  -28.1254  -18.2718   21.8557 F   0  0  0  0  0  0  0  0  0  0  0  0
  -29.6711  -22.7447   21.7576 F   0  0  0  0  0  0  0  0  0  0  0  0
  1  2  1  0  0  0  0
  1  5  2  0  0  0  0
  2  6  2  0  0  0  0
  3 12  2  0  0  0  0
  3 19  1  0  0  0  0
  4 13  1  0  0  0  0
  4 19  2  0  0  0  0
  5 21  1  0  0  0  0
  6 23  1  0  0  0  0
  7 14  2  0  0  0  0
  7 22  1  0  0  0  0
  8 10  2  0  0  0  0
  8 25  1  0  0  0  0
  9 11  1  0  0  0  0
  9 25  2  0  0  0  0
 10 26  1  0  0  0  0
 11 26  2  0  0  0  0
 12 27  1  0  0  0  0
 13 27  2  0  0  0  0
 14 28  1  0  0  0  0
 15 16  2  0  0  0  0
 15 29  1  0  0  0  0
 16 30  1  0  0  0  0
 17 24  1  0  0  0  0
 17 28  2  0  0  0  0
 18 30  2  0  0  0  0
 18 31  1  0  0  0  0
 19 32  1  0  0  0  0
 20 32  1  0  0  0  0
 20 33  2  0  0  0  0
 20 34  1  0  0  0  0
 21 23  2  0  0  0  0
 21 39  1  0  0  0  0
 22 24  2  0  0  0  0
 22 40  1  0  0  0  0
 23 48  1  0  0  0  0
 24 41  1  0  0  0  0
 25 58  1  0  0  0  0
 26 74  1  0  0  0  0
 27 82  1  0  0  0  0
 28 83  1  0  0  0  0
 29 31  2  0  0  0  0
 29 82  1  0  0  0  0
 30 84  1  0  0  0  0
 31 85  1  0  0  0  0
 32 66  2  0  0  0  0
 33 67  1  0  0  0  0
 33 70  1  0  0  0  0
 34 71  1  0  0  0  0
 34 77  2  0  0  0  0
 35 49  1  0  0  0  0
 35 72  1  0  0  0  0
 35 78  2  0  0  0  0
 36 63  1  0  0  0  0
 36 68  1  0  0  0  0
 36 79  2  0  0  0  0
 37 64  1  0  0  0  0
 37 73  1  0  0  0  0
 37 80  2  0  0  0  0
 38 69  1  0  0  0  0
 38 75  1  0  0  0  0
 38 81  2  0  0  0  0
 39 42  1  0  0  0  0
 40 49  1  0  0  0  0
 41 68  1  0  0  0  0
 42 44  1  0  0  0  0
 43 45  1  0  0  0  0
 43 46  1  0  0  0  0
 44 48  1  0  0  0  0
 45 50  1  0  0  0  0
 46 69  1  0  0  0  0
 47 50  1  0  0  0  0
 47 69  1  0  0  0  0
 48 72  1  0  0  0  0
 49 68  1  0  0  0  0
 50 67  1  0  0  0  0
 51 60  1  0  0  0  0
 52 64  1  0  0  0  0
 53 65  1  0  0  0  0
 54 65  1  0  0  0  0
 55 65  1  0  0  0  0
 56 74  1  0  0  0  0
 57 76  1  0  0  0  0
 58 75  1  0  0  0  0
 59 61  1  0  0  0  0
 59 62  1  0  0  0  0
 60 75  1  0  0  0  0
 61 74  1  0  0  0  0
 62 83  1  0  0  0  0
 63 65  1  0  0  0  0
 63 73  1  0  0  0  0
 64 76  1  0  0  0  0
 66 67  1  0  0  0  0
M  CHG  1  76   1
M  ISO  4  38 100  62 101  75 100  83 101
M  END
> <Batch ID>
0017

> <Smiles>
CC[100N:0](Cc1ccc(N(C)CC[101CH2:1][101O:1]c2ccc3c(c2)CN(C(=O)C(NC(=O)C(C)NC)C(C)(C)C)C(C(=O)NC2CCCc4ccccc42)C3)cc1)[100C:0](=O)N1CCCC(n2nc(-c3ccc(Oc4ccc(F)cc4F)cc3)c(C(N)=O)c2N)C1

> <Shape>
0.225

> <Color>
0.087

> <Negative vol penalty>
0.000

$$$$

  -OEChem-04042321003D

 83 91  0     1  0  0  0  0  0999 V2000
  -28.3287  -38.0367   24.2618 C   0  0  0  0  0  0  0  0  0  0  0  0
  -28.7520  -36.9838   23.4570 C   0  0  0  0  0  0  0  0  0  0  0  0
  -26.4990  -12.5857   21.6256 C   0  0  0  0  0  0  0  0  0  0  0  0
  -26.1065  -13.6175   19.4765 C   0  0  0  0  0  0  0  0  0  0  0  0
  -27.4166  -37.8034   25.2902 C   0  0  0  0  0  0  0  0  0  0  0  0
  -28.2643  -35.6968   23.6809 C   0  0  0  0  0  0  0  0  0  0  0  0
  -27.1086  -31.4119   19.4607 C   0  0  0  0  0  0  0  0  0  0  0  0
  -28.5584  -23.6715   18.8778 C   0  0  0  0  0  0  0  0  0  0  0  0
  -29.0454  -22.6232   19.6584 C   0  0  0  0  0  0  0  0  0  0  0  0
  -25.2362  -11.9956   21.5729 C   0  0  0  0  0  0  0  0  0  0  0  0
  -24.8437  -13.0274   19.4239 C   0  0  0  0  0  0  0  0  0  0  0  0
  -27.8411  -30.3125   19.0153 C   0  0  0  0  0  0  0  0  0  0  0  0
  -22.2590   -9.9265   21.8384 C   0  0  0  0  0  0  0  0  0  0  0  0
  -22.1562   -8.5818   22.1945 C   0  0  0  0  0  0  0  0  0  0  0  0
  -26.6173  -28.8903   20.5315 C   0  0  0  0  0  0  0  0  0  0  0  0
  -28.3009  -22.1610   17.0099 C   0  0  0  0  0  0  0  0  0  0  0  0
  -23.6846   -7.9944   20.4180 C   0  0  0  0  0  0  0  0  0  0  0  0
  -26.9341  -13.3967   20.5774 C   0  0  0  0  0  0  0  0  0  0  0  0
  -29.4484  -13.4703   20.1526 C   0  0  0  0  0  0  0  0  0  0  0  0
  -26.9101  -36.5147   25.5207 C   0  0  0  0  0  0  0  0  0  0  0  0
  -26.1308  -31.2604   20.4544 C   0  0  0  0  0  0  0  0  0  0  0  0
  -27.3456  -35.4458   24.7142 C   0  0  0  0  0  0  0  0  0  0  0  0
  -25.8720  -29.9890   20.9860 C   0  0  0  0  0  0  0  0  0  0  0  0
  -28.1860  -23.4404   17.5535 C   0  0  0  0  0  0  0  0  0  0  0  0
  -29.1603  -21.3438   19.1148 C   0  0  0  0  0  0  0  0  0  0  0  0
  -24.4085  -12.2165   20.4721 C   0  0  0  0  0  0  0  0  0  0  0  0
  -27.5975  -29.0519   19.5527 C   0  0  0  0  0  0  0  0  0  0  0  0
  -23.0746  -10.3052   20.7721 C   0  0  0  0  0  0  0  0  0  0  0  0
  -22.8690   -7.6158   21.4844 C   0  0  0  0  0  0  0  0  0  0  0  0
  -28.7880  -21.1126   17.7905 C   0  0  0  0  0  0  0  0  0  0  0  0
  -23.7874   -9.3392   20.0619 C   0  0  0  0  0  0  0  0  0  0  0  0
  -28.2383  -14.0069   20.6315 C   0  0  0  0  0  0  0  0  0  0  0  0
  -30.3876  -14.4301   20.4410 C   0  0  0  0  0  0  0  0  0  0  0  0
  -29.7010  -12.2163   19.5049 C   0  0  0  0  0  0  0  0  0  0  0  0
  -25.7254  -32.3985   23.3945 C   0  0  0  0  0  0  0  0  0  0  0  0
  -22.8596  -30.8968   23.1609 C   0  0  0  0  0  0  0  0  0  0  0  0
  -20.9829  -28.4467   21.7043 C   0  0  0  0  0  0  0  0  0  0  0  0
  -30.0687  -20.3431   21.2408 C   0  0  0  0  0  0  0  0  0  0  0  0
  -25.9621  -36.3029   26.6744 C   0  0  0  0  0  0  0  0  0  0  0  0
  -25.3308  -32.4517   20.9050 C   0  0  0  0  0  0  0  0  0  0  0  0
  -24.8190  -29.7696   22.0404 C   0  0  0  0  0  0  0  0  0  0  0  0
  -25.2073  -34.9777   26.6072 C   0  0  0  0  0  0  0  0  0  0  0  0
  -31.3145  -17.9449   23.5589 C   0  0  0  0  0  0  0  0  0  0  0  0
  -26.1632  -33.8348   26.2802 C   0  0  0  0  0  0  0  0  0  0  0  0
  -30.7822  -16.6134   23.0243 C   0  0  0  0  0  0  0  0  0  0  0  0
  -30.3072  -19.0770   23.3657 C   0  0  0  0  0  0  0  0  0  0  0  0
  -29.2767  -17.9058   21.4590 C   0  0  0  0  0  0  0  0  0  0  0  0
  -26.8204  -34.0402   24.9100 C   0  0  1  0  0  0  0  0  0  0  0  0
  -24.7158  -32.2696   22.2892 C   0  0  1  0  0  0  0  0  0  0  0  0
  -30.2823  -16.7484   21.5726 C   0  0  2  0  0  0  0  0  0  0  0  0
  -18.6853  -27.4383   21.7455 C   0  0  0  0  0  0  0  0  0  0  0  0
  -23.5347  -29.4715   25.7730 C   0  0  0  0  0  0  0  0  0  0  0  0
  -21.7104  -27.8326   25.2691 C   0  0  0  0  0  0  0  0  0  0  0  0
  -21.1636  -30.2453   25.5893 C   0  0  0  0  0  0  0  0  0  0  0  0
  -27.3053  -24.2505   15.3791 C   0  0  0  0  0  0  0  0  0  0  0  0
  -20.5037  -29.1347   18.8660 C   0  0  0  0  0  0  0  0  0  0  0  0
  -28.8784  -26.5734   17.2581 C   0  0  0  0  0  0  0  0  0  0  0  0
  -27.5508  -25.8266   17.3036 C   0  0  0  0  0  0  0  0  0  0  0  0
  -28.7736  -28.0051   17.7703 C   0  0  0  0  0  0  0  0  0  1  0  0
  -22.3490  -29.5124   23.4798 C   0  0  1  0  0  0  0  0  0  0  0  0
  -19.5927  -28.4708   21.0949 C   0  0  2  0  0  0  0  0  0  0  0  0
  -22.2107  -29.2696   25.0093 C   0  0  0  0  0  0  0  0  0  0  0  0
  -28.3917  -15.2139   21.1824 N   0  0  0  0  0  0  0  0  0  0  0  0
  -29.7093  -15.4437   21.0516 N   0  0  0  0  0  0  0  0  0  0  0  0
  -24.0677  -30.9667   22.4527 N   0  0  0  0  0  0  0  0  0  0  0  0
  -29.8818  -19.1474   21.9660 N   0  0  0  0  0  0  0  0  0  0  0  0
  -31.7192  -14.4975   20.2294 N   0  0  0  0  0  0  0  0  0  0  0  0
  -28.6227  -11.3483   19.2859 N   0  0  0  0  0  0  0  0  0  0  0  0
  -29.6559  -20.2810   19.9103 N   0  0  0  0  0  0  0  0  0  0  0  0
  -25.8987  -33.6915   23.8501 N   0  0  0  0  0  0  0  0  0  0  0  0
  -21.1046  -29.3547   22.7349 N   0  0  0  0  0  0  0  0  0  0  0  0
  -27.6958  -24.4942   16.7690 N   0  0  3  0  0  0  0  0  0  0  0  0
  -19.6623  -28.1817   19.6346 N   0  3  0  0  0  0  0  0  0  0  0  0
  -30.8517  -11.8687   19.1462 O   0  0  0  0  0  0  0  0  0  0  0  0
  -26.3032  -31.3988   23.8047 O   0  0  0  0  0  0  0  0  0  0  0  0
  -22.2070  -31.8798   23.5204 O   0  0  0  0  0  0  0  0  0  0  0  0
  -21.8708  -27.6948   21.3084 O   0  0  0  0  0  0  0  0  0  0  0  0
  -30.5840  -21.3397   21.7541 O   0  0  0  0  0  0  0  0  0  0  0  0
  -23.1763  -11.6407   20.4203 O   0  0  0  0  0  0  0  0  0  0  0  0
  -28.3115  -27.9772   19.1201 O   0  0  0  0  0  0  0  0  0  1  0  0
  -22.7713   -6.3247   21.8274 F   0  0  0  0  0  0  0  0  0  0  0  0
  -28.8947  -19.8870   17.2577 F   0  0  0  0  0  0  0  0  0  0  0  0
  -24.5735   -9.6970   19.0373 F   0  0  0  0  0  0  0  0  0  0  0  0
  1  2  1  0  0  0  0
  1  5  2  0  0  0  0
  2  6  2  0  0  0  0
  3 10  2  0  0  0  0
  3 18  1  0  0  0  0
  4 11  1  0  0  0  0
  4 18  2  0  0  0  0
  5 20  1  0  0  0  0
  6 22  1  0  0  0  0
  7 12  2  0  0  0  0
  7 21  1  0  0  0  0
  8  9  2  0  0  0  0
  8 24  1  0  0  0  0
  9 25  1  0  0  0  0
 10 26  1  0  0  0  0
 11 26  2  0  0  0  0
 12 27  1  0  0  0  0
 13 14  2  0  0  0  0
 13 28  1  0  0  0  0
 14 29  1  0  0  0  0
 15 23  1  0  0  0  0
 15 27  2  0  0  0  0
 16 24  2  0  0  0  0
 16 30  1  0  0  0  0
 17 29  2  0  0  0  0
 17 31  1  0  0  0  0
 18 32  1  0  0  0  0
 19 32  1  0  0  0  0
 19 33  2  0  0  0  0
 19 34  1  0  0  0  0
 20 22  2  0  0  0  0
 20 39  1  0  0  0  0
 21 23  2  0  0  0  0
 21 40  1  0  0  0  0
 22 48  1  0  0  0  0
 23 41  1  0  0  0  0
 24 72  1  0  0  0  0
 25 30  2  0  0  0  0
 25 69  1  0  0  0  0
 26 79  1  0  0  0  0
 27 80  1  0  0  0  0
 28 31  2  0  0  0  0
 28 79  1  0  0  0  0
 29 81  1  0  0  0  0
 30 82  1  0  0  0  0
 31 83  1  0  0  0  0
 32 63  2  0  0  0  0
 33 64  1  0  0  0  0
 33 67  1  0  0  0  0
 34 68  1  0  0  0  0
 34 74  2  0  0  0  0
 35 49  1  0  0  0  0
 35 70  1  0  0  0  0
 35 75  2  0  0  0  0
 36 60  1  0  0  0  0
 36 65  1  0  0  0  0
 36 76  2  0  0  0  0
 37 61  1  0  0  0  0
 37 71  1  0  0  0  0
 37 77  2  0  0  0  0
 38 66  1  0  0  0  0
 38 69  1  0  0  0  0
 38 78  2  0  0  0  0
 39 42  1  0  0  0  0
 40 49  1  0  0  0  0
 41 65  1  0  0  0  0
 42 44  1  0  0  0  0
 43 45  1  0  0  0  0
 43 46  1  0  0  0  0
 44 48  1  0  0  0  0
 45 50  1  0  0  0  0
 46 66  1  0  0  0  0
 47 50  1  0  0  0  0
 47 66  1  0  0  0  0
 48 70  1  0  0  0  0
 49 65  1  0  0  0  0
 50 64  1  0  0  0  0
 51 61  1  0  0  0  0
 52 62  1  0  0  0  0
 53 62  1  0  0  0  0
 54 62  1  0  0  0  0
 55 72  1  0  0  0  0
 56 73  1  0  0  0  0
 57 58  1  0  0  0  0
 57 59  1  0  0  0  0
 58 72  1  0  0  0  0
 59 80  1  0  0  0  0
 60 62  1  0  0  0  0
 60 71  1  0  0  0  0
 61 73  1  0  0  0  0
 63 64  1  0  0  0  0
M  CHG  1  73   1
M  ISO  4  38 100  59 101  69 100  80 101
M  END
> <Batch ID>
0017

> <Smiles>
CNC(C)C(=O)NC(C(=O)N1Cc2cc([101O:1][101CH2:1]CCN(C)c3ccc([100NH:0][100C:0](=O)N4CCCC(n5nc(-c6ccc(Oc7ccc(F)cc7F)cc6)c(C(N)=O)c5N)C4)c(F)c3)ccc2CC1C(=O)NC1CCCc2ccccc21)C(C)(C)C

> <Shape>
0.328

> <Color>
0.095

> <Negative vol penalty>
0.000

$$$$

  -OEChem-04042321003D

 85 94  0     1  0  0  0  0  0999 V2000
  -20.4830  -28.4624   23.4167 C   0  0  0  0  0  0  0  0  0  0  0  0
  -20.5450  -27.1385   22.9940 C   0  0  0  0  0  0  0  0  0  0  0  0
  -23.3152   -9.7421   19.8780 C   0  0  0  0  0  0  0  0  0  0  0  0
  -23.8204   -9.8552   22.2379 C   0  0  0  0  0  0  0  0  0  0  0  0
  -19.4287  -29.2761   23.0042 C   0  0  0  0  0  0  0  0  0  0  0  0
  -19.5518  -26.6270   22.1594 C   0  0  0  0  0  0  0  0  0  0  0  0
  -21.4424  -23.8891   18.3417 C   0  0  0  0  0  0  0  0  0  0  0  0
  -25.5119  -15.2025   15.9330 C   0  0  0  0  0  0  0  0  0  0  0  0
  -26.6121  -14.3838   15.6784 C   0  0  0  0  0  0  0  0  0  0  0  0
  -22.6264   -8.5467   20.0827 C   0  0  0  0  0  0  0  0  0  0  0  0
  -23.1315   -8.6597   22.4426 C   0  0  0  0  0  0  0  0  0  0  0  0
  -21.8560  -22.5901   18.6336 C   0  0  0  0  0  0  0  0  0  0  0  0
  -19.5974   -7.5831   21.2359 C   0  0  0  0  0  0  0  0  0  0  0  0
  -18.3567   -7.4356   20.6160 C   0  0  0  0  0  0  0  0  0  0  0  0
  -19.7876  -21.7357   17.7333 C   0  0  0  0  0  0  0  0  0  0  0  0
  -26.8188  -16.4632   17.5267 C   0  0  0  0  0  0  0  0  0  0  0  0
  -19.1831   -5.5053   19.4211 C   0  0  0  0  0  0  0  0  0  0  0  0
  -23.9123  -10.3964   20.9556 C   0  0  0  0  0  0  0  0  0  0  0  0
  -24.0978  -12.9356   20.7951 C   0  0  0  0  0  0  0  0  0  0  0  0
  -18.4273  -28.7771   22.1563 C   0  0  0  0  0  0  0  0  0  0  0  0
  -20.1915  -24.1224   17.7524 C   0  0  0  0  0  0  0  0  0  0  0  0
  -18.4824  -27.4344   21.7363 C   0  0  0  0  0  0  0  0  0  0  0  0
  -19.3615  -23.0385   17.4326 C   0  0  0  0  0  0  0  0  0  0  0  0
  -25.6152  -16.2423   16.8571 C   0  0  0  0  0  0  0  0  0  0  0  0
  -27.8156  -14.6048   16.3479 C   0  0  0  0  0  0  0  0  0  0  0  0
  -22.5345   -8.0055   21.3650 C   0  0  0  0  0  0  0  0  0  0  0  0
  -21.0273  -21.5133   18.3320 C   0  0  0  0  0  0  0  0  0  0  0  0
  -20.6311   -6.6918   20.9483 C   0  0  0  0  0  0  0  0  0  0  0  0
  -18.1495   -6.3967   19.7087 C   0  0  0  0  0  0  0  0  0  0  0  0
  -27.9190  -15.6445   17.2720 C   0  0  0  0  0  0  0  0  0  0  0  0
  -20.4239   -5.6528   20.0410 C   0  0  0  0  0  0  0  0  0  0  0  0
  -24.6245  -11.6311   20.7447 C   0  0  0  0  0  0  0  0  0  0  0  0
  -25.1710  -13.7498   20.5272 C   0  0  0  0  0  0  0  0  0  0  0  0
  -22.7582  -13.3724   21.0605 C   0  0  0  0  0  0  0  0  0  0  0  0
  -17.5590  -25.6790   18.6188 C   0  0  0  0  0  0  0  0  0  0  0  0
  -16.6116  -24.9640   15.5999 C   0  0  0  0  0  0  0  0  0  0  0  0
  -16.9100  -22.9318   12.8744 C   0  0  0  0  0  0  0  0  0  0  0  0
  -29.9411  -13.4680   17.0417 C   0  0  0  0  0  0  0  0  0  0  0  0
  -17.2819  -29.6812   21.7751 C   0  0  0  0  0  0  0  0  0  0  0  0
  -19.7714  -25.5277   17.4195 C   0  0  0  0  0  0  0  0  0  0  0  0
  -18.0178  -23.2339   16.7810 C   0  0  0  0  0  0  0  0  0  0  0  0
  -16.4707  -29.1690   20.5877 C   0  0  0  0  0  0  0  0  0  0  0  0
  -30.0787  -13.2815   20.7348 C   0  0  0  0  0  0  0  0  0  0  0  0
  -16.1533  -27.6867   20.7577 C   0  0  0  0  0  0  0  0  0  0  0  0
  -28.6544  -12.8740   21.1072 C   0  0  0  0  0  0  0  0  0  0  0  0
  -22.4768  -18.1759   16.8346 C   0  0  0  0  0  0  0  0  0  0  0  0
  -30.4724  -12.7664   19.3538 C   0  0  0  0  0  0  0  0  0  0  0  0
  -23.2283  -16.9007   16.4589 C   0  0  0  0  0  0  0  0  0  0  0  0
  -24.5383  -18.1695   18.0498 C   0  0  0  0  0  0  0  0  0  0  0  0
  -28.0976  -12.7678   18.6455 C   0  0  0  0  0  0  0  0  0  0  0  0
  -17.4374  -26.8501   20.8107 C   0  0  1  0  0  0  0  0  0  0  0  0
  -18.2595  -25.6845   17.2895 C   0  0  1  0  0  0  0  0  0  0  0  0
  -23.0567  -18.5329   18.2001 C   0  0  1  0  0  0  0  0  0  0  0  0
  -27.6627  -13.3090   20.0157 C   0  0  1  0  0  0  0  0  0  0  0  0
  -15.9770  -22.5738   10.5726 C   0  0  0  0  0  0  0  0  0  0  0  0
  -14.0922  -23.7434   16.8136 C   0  0  0  0  0  0  0  0  0  0  0  0
  -13.6823  -22.5909   14.6291 C   0  0  0  0  0  0  0  0  0  0  0  0
  -13.7064  -25.0829   14.7373 C   0  0  0  0  0  0  0  0  0  0  0  0
  -29.2238  -13.3912   14.6941 C   0  0  0  0  0  0  0  0  0  0  0  0
  -19.5503  -23.3676   11.6104 C   0  0  0  0  0  0  0  0  0  0  0  0
  -22.8311  -19.9843   18.5858 C   0  0  0  0  0  0  0  0  0  1  0  0
  -15.8812  -23.8118   14.9532 C   0  0  1  0  0  0  0  0  0  0  0  0
  -17.0648  -23.2444   11.3970 C   0  0  2  0  0  0  0  0  0  0  0  0
  -14.3650  -23.8034   15.2974 C   0  0  0  0  0  0  0  0  0  0  0  0
  -25.9308  -11.6128   20.4664 N   0  0  0  0  0  0  0  0  0  0  0  0
  -26.2338  -12.9159   20.3396 N   0  0  0  0  0  0  0  0  0  0  0  0
  -24.5278  -17.0518   17.1083 N   0  0  3  0  0  0  0  0  0  0  0  0
  -17.6491  -24.6273   16.4808 N   0  0  0  0  0  0  0  0  0  0  0  0
  -29.4884  -13.1370   18.3354 N   0  0  0  0  0  0  0  0  0  0  0  0
  -25.2998  -15.0905   20.4362 N   0  0  0  0  0  0  0  0  0  0  0  0
  -21.7779  -12.4038   21.3159 N   0  0  0  0  0  0  0  0  0  0  0  0
  -17.9805  -26.6732   19.4809 N   0  0  0  0  0  0  0  0  0  0  0  0
  -16.1694  -23.8956   13.5256 N   0  0  0  0  0  0  0  0  0  0  0  0
  -28.9515  -13.7560   16.0826 N   0  0  0  0  0  0  0  0  0  0  0  0
  -18.3885  -22.7703   10.9031 N   0  3  0  0  0  0  0  0  0  0  0  0
  -22.4365  -14.5848   21.0545 O   0  0  0  0  0  0  0  0  0  0  0  0
  -16.6987  -24.8361   18.8449 O   0  0  0  0  0  0  0  0  0  0  0  0
  -16.2786  -26.1201   15.3278 O   0  0  0  0  0  0  0  0  0  0  0  0
  -17.3943  -21.9308   13.3978 O   0  0  0  0  0  0  0  0  0  0  0  0
  -31.1421  -13.4539   16.7451 O   0  0  0  0  0  0  0  0  0  0  0  0
  -21.8622   -6.8391   21.5651 O   0  0  0  0  0  0  0  0  0  0  0  0
  -21.4283  -20.2444   18.6164 O   0  0  0  0  0  0  0  0  0  1  0  0
  -16.9574   -6.2542   19.1146 F   0  0  0  0  0  0  0  0  0  0  0  0
  -29.0709  -15.8656   17.9215 F   0  0  0  0  0  0  0  0  0  0  0  0
  -21.4128   -4.7927   19.7616 F   0  0  0  0  0  0  0  0  0  0  0  0
  1  2  1  0  0  0  0
  1  5  2  0  0  0  0
  2  6  2  0  0  0  0
  3 10  2  0  0  0  0
  3 18  1  0  0  0  0
  4 11  1  0  0  0  0
  4 18  2  0  0  0  0
  5 20  1  0  0  0  0
  6 22  1  0  0  0  0
  7 12  2  0  0  0  0
  7 21  1  0  0  0  0
  8  9  2  0  0  0  0
  8 24  1  0  0  0  0
  9 25  1  0  0  0  0
 10 26  1  0  0  0  0
 11 26  2  0  0  0  0
 12 27  1  0  0  0  0
 13 14  2  0  0  0  0
 13 28  1  0  0  0  0
 14 29  1  0  0  0  0
 15 23  1  0  0  0  0
 15 27  2  0  0  0  0
 16 24  2  0  0  0  0
 16 30  1  0  0  0  0
 17 29  2  0  0  0  0
 17 31  1  0  0  0  0
 18 32  1  0  0  0  0
 19 32  1  0  0  0  0
 19 33  2  0  0  0  0
 19 34  1  0  0  0  0
 20 22  2  0  0  0  0
 20 39  1  0  0  0  0
 21 23  2  0  0  0  0
 21 40  1  0  0  0  0
 22 51  1  0  0  0  0
 23 41  1  0  0  0  0
 24 67  1  0  0  0  0
 25 30  2  0  0  0  0
 25 74  1  0  0  0  0
 26 81  1  0  0  0  0
 27 82  1  0  0  0  0
 28 31  2  0  0  0  0
 28 81  1  0  0  0  0
 29 83  1  0  0  0  0
 30 84  1  0  0  0  0
 31 85  1  0  0  0  0
 32 65  2  0  0  0  0
 33 66  1  0  0  0  0
 33 70  1  0  0  0  0
 34 71  1  0  0  0  0
 34 76  2  0  0  0  0
 35 52  1  0  0  0  0
 35 72  1  0  0  0  0
 35 77  2  0  0  0  0
 36 62  1  0  0  0  0
 36 68  1  0  0  0  0
 36 78  2  0  0  0  0
 37 63  1  0  0  0  0
 37 73  1  0  0  0  0
 37 79  2  0  0  0  0
 38 69  1  0  0  0  0
 38 74  1  0  0  0  0
 38 80  2  0  0  0  0
 39 42  1  0  0  0  0
 40 52  1  0  0  0  0
 41 68  1  0  0  0  0
 42 44  1  0  0  0  0
 43 45  1  0  0  0  0
 43 47  1  0  0  0  0
 44 51  1  0  0  0  0
 45 54  1  0  0  0  0
 46 48  1  0  0  0  0
 46 53  1  0  0  0  0
 47 69  1  0  0  0  0
 48 67  1  0  0  0  0
 49 53  1  0  0  0  0
 49 67  1  0  0  0  0
 50 54  1  0  0  0  0
 50 69  1  0  0  0  0
 51 72  1  0  0  0  0
 52 68  1  0  0  0  0
 53 61  1  0  0  0  0
 54 66  1  0  0  0  0
 55 63  1  0  0  0  0
 56 64  1  0  0  0  0
 57 64  1  0  0  0  0
 58 64  1  0  0  0  0
 59 74  1  0  0  0  0
 60 75  1  0  0  0  0
 61 82  1  0  0  0  0
 62 64  1  0  0  0  0
 62 73  1  0  0  0  0
 63 75  1  0  0  0  0
 65 66  1  0  0  0  0
M  CHG  1  75   1
M  ISO  4  38 100  61 101  74 100  82 101
M  END
> <Batch ID>
0017

> <Smiles>
CNC(C)C(=O)NC(C(=O)N1Cc2cc([101O:1][101CH2:1]C3CCN(c4ccc([100N:0](C)[100C:0](=O)N5CCCC(n6nc(-c7ccc(Oc8ccc(F)cc8F)cc7)c(C(N)=O)c6N)C5)c(F)c4)C3)ccc2CC1C(=O)NC1CCCc2ccccc21)C(C)(C)C

> <Shape>
0.170

> <Color>
0.201

> <Negative vol penalty>
0.000

$$$$

  -OEChem-04042321003D

 89 97  0     1  0  0  0  0  0999 V2000
  -24.1912  -11.3640   27.2408 C   0  0  0  0  0  0  0  0  0  0  0  0
  -24.8872  -12.5685   27.2262 C   0  0  0  0  0  0  0  0  0  0  0  0
  -20.8176  -26.6983   22.3139 C   0  0  0  0  0  0  0  0  0  0  0  0
  -19.6252  -28.6874   22.9914 C   0  0  0  0  0  0  0  0  0  0  0  0
  -24.0193  -10.6452   26.0586 C   0  0  0  0  0  0  0  0  0  0  0  0
  -25.4127  -13.0543   26.0294 C   0  0  0  0  0  0  0  0  0  0  0  0
  -26.7882  -19.2057   22.6256 C   0  0  0  0  0  0  0  0  0  0  0  0
  -26.8148  -27.4336   18.9868 C   0  0  0  0  0  0  0  0  0  0  0  0
  -27.2500  -28.6957   19.3909 C   0  0  0  0  0  0  0  0  0  0  0  0
  -19.7422  -25.9126   22.7282 C   0  0  0  0  0  0  0  0  0  0  0  0
  -18.5498  -27.9016   23.4057 C   0  0  0  0  0  0  0  0  0  0  0  0
  -27.8299  -19.8689   21.9784 C   0  0  0  0  0  0  0  0  0  0  0  0
  -16.6981  -25.0343   21.5471 C   0  0  0  0  0  0  0  0  0  0  0  0
  -16.2764  -24.0123   20.6967 C   0  0  0  0  0  0  0  0  0  0  0  0
  -27.4027  -18.5810   19.9839 C   0  0  0  0  0  0  0  0  0  0  0  0
  -27.6877  -26.4792   21.0274 C   0  0  0  0  0  0  0  0  0  0  0  0
  -16.7405  -22.3855   22.4216 C   0  0  0  0  0  0  0  0  0  0  0  0
  -20.7591  -28.0858   22.4456 C   0  0  0  0  0  0  0  0  0  0  0  0
  -22.0741  -29.4554   20.7418 C   0  0  0  0  0  0  0  0  0  0  0  0
  -24.5346  -11.1272   24.8450 C   0  0  0  0  0  0  0  0  0  0  0  0
  -26.0518  -18.2157   21.9591 C   0  0  0  0  0  0  0  0  0  0  0  0
  -25.2486  -12.3406   24.8300 C   0  0  0  0  0  0  0  0  0  0  0  0
  -26.3505  -17.9085   20.6240 C   0  0  0  0  0  0  0  0  0  0  0  0
  -27.0336  -26.3254   19.8050 C   0  0  0  0  0  0  0  0  0  0  0  0
  -27.9041  -28.8496   20.6132 C   0  0  0  0  0  0  0  0  0  0  0  0
  -18.6083  -26.5142   23.2741 C   0  0  0  0  0  0  0  0  0  0  0  0
  -28.1391  -19.5546   20.6583 C   0  0  0  0  0  0  0  0  0  0  0  0
  -17.1410  -24.7319   22.8348 C   0  0  0  0  0  0  0  0  0  0  0  0
  -16.2976  -22.6879   21.1339 C   0  0  0  0  0  0  0  0  0  0  0  0
  -28.1229  -27.7413   21.4315 C   0  0  0  0  0  0  0  0  0  0  0  0
  -17.1622  -23.4075   23.2720 C   0  0  0  0  0  0  0  0  0  0  0  0
  -21.8699  -28.8980   22.0183 C   0  0  0  0  0  0  0  0  0  0  0  0
  -23.2639  -30.1330   20.8494 C   0  0  0  0  0  0  0  0  0  0  0  0
  -21.2609  -29.3685   19.5642 C   0  0  0  0  0  0  0  0  0  0  0  0
  -25.5617  -15.1062   22.3997 C   0  0  0  0  0  0  0  0  0  0  0  0
  -23.4683  -15.4861   19.9512 C   0  0  0  0  0  0  0  0  0  0  0  0
  -27.7183  -22.9294   18.4466 C   0  0  0  0  0  0  0  0  0  0  0  0
  -22.5126  -17.2772   17.2080 C   0  0  0  0  0  0  0  0  0  0  0  0
  -28.4299  -30.5053   22.3946 C   0  0  0  0  0  0  0  0  0  0  0  0
  -24.3643  -10.2916   23.6011 C   0  0  0  0  0  0  0  0  0  0  0  0
  -24.9139  -17.5284   22.6627 C   0  0  0  0  0  0  0  0  0  0  0  0
  -25.5771  -16.8679   19.8576 C   0  0  0  0  0  0  0  0  0  0  0  0
  -24.6287  -11.0610   22.3095 C   0  0  0  0  0  0  0  0  0  0  0  0
  -26.0395  -31.3088   24.9013 C   0  0  0  0  0  0  0  0  0  0  0  0
  -25.9152  -11.8725   22.4254 C   0  0  0  0  0  0  0  0  0  0  0  0
  -24.7500  -30.7851   24.2699 C   0  0  0  0  0  0  0  0  0  0  0  0
  -27.2252  -30.3808   24.6351 C   0  0  0  0  0  0  0  0  0  0  0  0
  -26.1458  -29.5465   22.5703 C   0  0  0  0  0  0  0  0  0  0  0  0
  -25.8120  -12.9127   23.5473 C   0  0  1  0  0  0  0  0  0  0  0  0
  -24.5642  -16.1747   22.0521 C   0  0  1  0  0  0  0  0  0  0  0  0
  -24.9489  -30.4886   22.7730 C   0  0  1  0  0  0  0  0  0  0  0  0
  -30.4068  -30.6678   19.7571 C   0  0  0  0  0  0  0  0  0  0  0  0
  -20.7846  -17.3224   15.3888 C   0  0  0  0  0  0  0  0  0  0  0  0
  -24.9054  -13.1986   18.5327 C   0  0  0  0  0  0  0  0  0  0  0  0
  -23.7929  -13.9111   16.4059 C   0  0  0  0  0  0  0  0  0  0  0  0
  -22.4127  -13.1451   18.3375 C   0  0  0  0  0  0  0  0  0  0  0  0
  -25.3967  -22.3427   19.1495 C   0  0  0  0  0  0  0  0  0  0  0  0
  -26.5127  -21.2033   17.1965 C   0  0  0  0  0  0  0  0  0  0  0  0
  -21.5100  -19.9262   18.0665 C   0  0  0  0  0  0  0  0  0  0  0  0
  -26.5669  -24.9685   19.3704 C   0  0  0  0  0  0  0  0  0  0  0  0
  -29.0341  -22.3248   18.0630 C   0  0  0  0  0  0  0  0  0  0  0  0
  -30.0014  -22.3066   19.2472 C   0  0  0  0  0  0  0  0  0  0  0  0
  -28.9626  -31.0390   20.0268 C   0  0  0  0  0  0  0  0  0  0  0  0
  -29.4267  -21.5411   20.4301 C   0  0  0  0  0  0  0  0  0  1  0  0
  -23.5554  -15.3977   18.4466 C   0  0  1  0  0  0  0  0  0  0  0  0
  -21.1600  -17.8155   16.7775 C   0  0  2  0  0  0  0  0  0  0  0  0
  -23.6826  -13.9314   17.9455 C   0  0  0  0  0  0  0  0  0  0  0  0
  -22.8515  -29.1956   22.8739 N   0  0  0  0  0  0  0  0  0  0  0  0
  -23.6840  -29.9473   22.1336 N   0  0  0  0  0  0  0  0  0  0  0  0
  -24.4777  -16.2191   20.5911 N   0  0  0  0  0  0  0  0  0  0  0  0
  -27.3504  -30.0941   23.1990 N   0  0  0  0  0  0  0  0  0  0  0  0
  -23.9815  -30.8636   19.9697 N   0  0  0  0  0  0  0  0  0  0  0  0
  -20.0700  -28.6322   19.6275 N   0  0  0  0  0  0  0  0  0  0  0  0
  -25.0286  -14.0492   23.1125 N   0  0  0  0  0  0  0  0  0  0  0  0
  -22.3911  -16.1076   17.9280 N   0  0  0  0  0  0  0  0  0  0  0  0
  -28.3540  -30.1573   21.0288 N   0  0  0  0  0  0  0  0  0  0  0  0
  -26.5914  -22.1946   18.2916 N   0  0  0  0  0  0  0  0  0  0  0  0
  -27.7256  -24.1806   18.9331 N   0  3  0  0  0  0  0  0  0  0  0  0
  -21.1778  -19.3056   16.7583 N   0  3  0  0  0  0  0  0  0  0  0  0
  -21.5890  -29.9135   18.4831 O   0  0  0  0  0  0  0  0  0  0  0  0
  -26.7284  -15.2307   22.0461 O   0  0  0  0  0  0  0  0  0  0  0  0
  -22.5349  -14.9313   20.5365 O   0  0  0  0  0  0  0  0  0  0  0  0
  -23.5712  -17.8363   16.9299 O   0  0  0  0  0  0  0  0  0  0  0  0
  -29.3758  -31.1557   22.8553 O   0  0  0  0  0  0  0  0  0  0  0  0
  -17.5586  -25.7478   23.6782 O   0  0  0  0  0  0  0  0  0  0  0  0
  -29.1558  -20.2000   20.0245 O   0  0  0  0  0  0  0  0  0  1  0  0
  -15.8912  -21.7067   20.3176 F   0  0  0  0  0  0  0  0  0  0  0  0
  -28.7518  -27.8773   22.6077 F   0  0  0  0  0  0  0  0  0  0  0  0
  -17.5856  -23.1110   24.5084 F   0  0  0  0  0  0  0  0  0  0  0  0
  1  2  1  0  0  0  0
  1  5  2  0  0  0  0
  2  6  2  0  0  0  0
  3 10  2  0  0  0  0
  3 18  1  0  0  0  0
  4 11  1  0  0  0  0
  4 18  2  0  0  0  0
  5 20  1  0  0  0  0
  6 22  1  0  0  0  0
  7 12  2  0  0  0  0
  7 21  1  0  0  0  0
  8  9  2  0  0  0  0
  8 24  1  0  0  0  0
  9 25  1  0  0  0  0
 10 26  1  0  0  0  0
 11 26  2  0  0  0  0
 12 27  1  0  0  0  0
 13 14  2  0  0  0  0
 13 28  1  0  0  0  0
 14 29  1  0  0  0  0
 15 23  1  0  0  0  0
 15 27  2  0  0  0  0
 16 24  2  0  0  0  0
 16 30  1  0  0  0  0
 17 29  2  0  0  0  0
 17 31  1  0  0  0  0
 18 32  1  0  0  0  0
 19 32  1  0  0  0  0
 19 33  2  0  0  0  0
 19 34  1  0  0  0  0
 20 22  2  0  0  0  0
 20 40  1  0  0  0  0
 21 23  2  0  0  0  0
 21 41  1  0  0  0  0
 22 49  1  0  0  0  0
 23 42  1  0  0  0  0
 24 60  1  0  0  0  0
 25 30  2  0  0  0  0
 25 76  1  0  0  0  0
 26 85  1  0  0  0  0
 27 86  1  0  0  0  0
 28 31  2  0  0  0  0
 28 85  1  0  0  0  0
 29 87  1  0  0  0  0
 30 88  1  0  0  0  0
 31 89  1  0  0  0  0
 32 68  2  0  0  0  0
 33 69  1  0  0  0  0
 33 72  1  0  0  0  0
 34 73  1  0  0  0  0
 34 80  2  0  0  0  0
 35 50  1  0  0  0  0
 35 74  1  0  0  0  0
 35 81  2  0  0  0  0
 36 65  1  0  0  0  0
 36 70  1  0  0  0  0
 36 82  2  0  0  0  0
 37 61  1  0  0  0  0
 37 77  1  0  0  0  0
 37 78  2  0  0  0  0
 38 66  1  0  0  0  0
 38 75  1  0  0  0  0
 38 83  2  0  0  0  0
 39 71  1  0  0  0  0
 39 76  1  0  0  0  0
 39 84  2  0  0  0  0
 40 43  1  0  0  0  0
 41 50  1  0  0  0  0
 42 70  1  0  0  0  0
 43 45  1  0  0  0  0
 44 46  1  0  0  0  0
 44 47  1  0  0  0  0
 45 49  1  0  0  0  0
 46 51  1  0  0  0  0
 47 71  1  0  0  0  0
 48 51  1  0  0  0  0
 48 71  1  0  0  0  0
 49 74  1  0  0  0  0
 50 70  1  0  0  0  0
 51 69  1  0  0  0  0
 52 63  1  0  0  0  0
 53 66  1  0  0  0  0
 54 67  1  0  0  0  0
 55 67  1  0  0  0  0
 56 67  1  0  0  0  0
 57 77  1  0  0  0  0
 58 77  1  0  0  0  0
 59 79  1  0  0  0  0
 60 78  1  0  0  0  0
 61 62  1  0  0  0  0
 62 64  1  0  0  0  0
 63 76  1  0  0  0  0
 64 86  1  0  0  0  0
 65 67  1  0  0  0  0
 65 75  1  0  0  0  0
 66 79  1  0  0  0  0
 68 69  1  0  0  0  0
M  CHG  2  78   1  79   1
M  ISO  4  39 100  64 101  76 100  86 101
M  END
> <Batch ID>
0017

> <Smiles>
CC[100N:0](c1ccc(CN=C(CC[101CH2:1][101O:1]c2ccc3c(c2)CN(C(=O)C(NC(=O)C(C)NC)C(C)(C)C)C(C(=O)NC2CCCc4ccccc42)C3)N(C)C)cc1F)[100C:0](=O)N1CCCC(n2nc(-c3ccc(Oc4ccc(F)cc4F)cc3)c(C(N)=O)c2N)C1

> <Shape>
0.199

> <Color>
0.060

> <Negative vol penalty>
0.000

$$$$

  -OEChem-04042321003D

 84 92  0     1  0  0  0  0  0999 V2000
  -18.9778  -24.9994   25.3521 C   0  0  0  0  0  0  0  0  0  0  0  0
  -20.1643  -24.5960   24.7479 C   0  0  0  0  0  0  0  0  0  0  0  0
  -23.8399  -16.5321   21.3437 C   0  0  0  0  0  0  0  0  0  0  0  0
  -23.1261  -15.6673   19.2037 C   0  0  0  0  0  0  0  0  0  0  0  0
  -18.2833  -26.1014   24.8549 C   0  0  0  0  0  0  0  0  0  0  0  0
  -20.6563  -25.2938   23.6454 C   0  0  0  0  0  0  0  0  0  0  0  0
  -25.6330  -26.1740   23.9664 C   0  0  0  0  0  0  0  0  0  0  0  0
  -29.9958  -18.1588   21.5719 C   0  0  0  0  0  0  0  0  0  0  0  0
  -31.0437  -17.5026   19.4963 C   0  0  0  0  0  0  0  0  0  0  0  0
  -30.2096  -16.8793   22.0844 C   0  0  0  0  0  0  0  0  0  0  0  0
  -31.2576  -16.2230   20.0088 C   0  0  0  0  0  0  0  0  0  0  0  0
  -23.0679  -17.6757   21.1391 C   0  0  0  0  0  0  0  0  0  0  0  0
  -22.3540  -16.8109   18.9991 C   0  0  0  0  0  0  0  0  0  0  0  0
  -26.4877  -25.1138   23.6677 C   0  0  0  0  0  0  0  0  0  0  0  0
  -23.3029  -20.5591   19.3913 C   0  0  0  0  0  0  0  0  0  0  0  0
  -23.8835  -21.7930   19.6845 C   0  0  0  0  0  0  0  0  0  0  0  0
  -26.8429  -26.0288   21.4641 C   0  0  0  0  0  0  0  0  0  0  0  0
  -22.1505  -22.2215   21.3125 C   0  0  0  0  0  0  0  0  0  0  0  0
  -23.8690  -15.5279   20.3760 C   0  0  0  0  0  0  0  0  0  0  0  0
  -24.2638  -13.1479   21.2051 C   0  0  0  0  0  0  0  0  0  0  0  0
  -18.7721  -26.8188   23.7517 C   0  0  0  0  0  0  0  0  0  0  0  0
  -25.3678  -27.1654   23.0108 C   0  0  0  0  0  0  0  0  0  0  0  0
  -19.9669  -26.4056   23.1322 C   0  0  0  0  0  0  0  0  0  0  0  0
  -25.9864  -27.1019   21.7540 C   0  0  0  0  0  0  0  0  0  0  0  0
  -30.4128  -18.4705   20.2778 C   0  0  0  0  0  0  0  0  0  0  0  0
  -30.8405  -15.9114   21.3029 C   0  0  0  0  0  0  0  0  0  0  0  0
  -22.3250  -17.8151   19.9668 C   0  0  0  0  0  0  0  0  0  0  0  0
  -27.0905  -25.0395   22.4155 C   0  0  0  0  0  0  0  0  0  0  0  0
  -22.1461  -20.1564   20.0586 C   0  0  0  0  0  0  0  0  0  0  0  0
  -23.3073  -22.6242   20.6451 C   0  0  0  0  0  0  0  0  0  0  0  0
  -21.5699  -20.9876   21.0192 C   0  0  0  0  0  0  0  0  0  0  0  0
  -24.6667  -14.3466   20.5865 C   0  0  0  0  0  0  0  0  0  0  0  0
  -25.3775  -12.3455   21.1570 C   0  0  0  0  0  0  0  0  0  0  0  0
  -22.9962  -12.7916   21.7724 C   0  0  0  0  0  0  0  0  0  0  0  0
  -22.7635  -28.1868   21.5015 C   0  0  0  0  0  0  0  0  0  0  0  0
  -24.7839  -30.4587   20.3704 C   0  0  0  0  0  0  0  0  0  0  0  0
  -27.9879  -31.3881   19.6515 C   0  0  0  0  0  0  0  0  0  0  0  0
  -31.0921  -13.4559   20.9892 C   0  0  0  0  0  0  0  0  0  0  0  0
  -17.9617  -27.9747   23.2207 C   0  0  0  0  0  0  0  0  0  0  0  0
  -24.4644  -28.3169   23.3578 C   0  0  0  0  0  0  0  0  0  0  0  0
  -25.7506  -28.1517   20.7001 C   0  0  0  0  0  0  0  0  0  0  0  0
  -18.7455  -28.8870   22.2806 C   0  0  0  0  0  0  0  0  0  0  0  0
  -29.3155  -11.5431   18.5750 C   0  0  0  0  0  0  0  0  0  0  0  0
  -19.5219  -28.0614   21.2597 C   0  0  0  0  0  0  0  0  0  0  0  0
  -27.8710  -11.9420   18.8751 C   0  0  0  0  0  0  0  0  0  0  0  0
  -30.2727  -12.7300   18.6895 C   0  0  0  0  0  0  0  0  0  0  0  0
  -28.7435  -13.8466   20.2831 C   0  0  0  0  0  0  0  0  0  0  0  0
  -20.5457  -27.1518   21.9497 C   0  0  1  0  0  0  0  0  0  0  0  0
  -23.8627  -28.9951   22.1308 C   0  0  1  0  0  0  0  0  0  0  0  0
  -27.7671  -12.6611   20.2317 C   0  0  1  0  0  0  0  0  0  0  0  0
  -29.3212  -33.2897   18.7008 C   0  0  0  0  0  0  0  0  0  0  0  0
  -23.8862  -29.6799   17.5602 C   0  0  0  0  0  0  0  0  0  0  0  0
  -25.8838  -30.8925   16.6614 C   0  0  0  0  0  0  0  0  0  0  0  0
  -24.1364  -32.1404   17.9310 C   0  0  0  0  0  0  0  0  0  0  0  0
  -31.4982  -14.4553   23.2278 C   0  0  0  0  0  0  0  0  0  0  0  0
  -29.4952  -31.7447   22.1734 C   0  0  0  0  0  0  0  0  0  0  0  0
  -28.3945  -19.3822   18.0572 C   0  0  0  0  0  0  0  0  0  0  0  0
  -30.1827  -19.8468   19.7266 C   0  0  0  0  0  0  0  0  0  0  0  0
  -28.2898  -22.0983   20.7130 C   0  0  0  0  0  0  0  0  0  0  0  0
  -28.4052  -21.5384   19.3032 C   0  0  0  0  0  0  0  0  0  0  0  0
  -27.9899  -23.5916   20.7570 C   0  0  0  0  0  0  0  0  0  1  0  0
  -25.6922  -30.5801   19.1708 C   0  0  1  0  0  0  0  0  0  0  0  0
  -28.7638  -32.6546   19.9652 C   0  0  2  0  0  0  0  0  0  0  0  0
  -24.9028  -30.8022   17.8498 C   0  0  0  0  0  0  0  0  0  0  0  0
  -25.9372  -14.3132   20.1757 N   0  0  0  0  0  0  0  0  0  0  0  0
  -26.3423  -13.0838   20.5369 N   0  0  0  0  0  0  0  0  0  0  0  0
  -24.8544  -29.2545   21.0851 N   0  0  0  0  0  0  0  0  0  0  0  0
  -30.1089  -13.4086   19.9829 N   0  0  0  0  0  0  0  0  0  0  0  0
  -25.6159  -11.0876   21.5850 N   0  0  0  0  0  0  0  0  0  0  0  0
  -21.9600  -13.7346   21.7378 N   0  0  0  0  0  0  0  0  0  0  0  0
  -21.7088  -27.9136   22.3514 N   0  0  0  0  0  0  0  0  0  0  0  0
  -26.6429  -31.6414   19.4844 N   0  0  0  0  0  0  0  0  0  0  0  0
  -31.0623  -14.5867   21.8333 N   0  0  0  0  0  0  0  0  0  0  0  0
  -29.9009  -32.3522   20.8799 N   0  3  0  0  0  0  0  0  0  0  0  0
  -28.7447  -20.0966   19.3404 N   0  3  1  0  0  0  0  0  0  0  0  0
  -22.7935  -11.6761   22.3093 O   0  0  0  0  0  0  0  0  0  0  0  0
  -22.8641  -27.8383   20.3310 O   0  0  0  0  0  0  0  0  0  0  0  0
  -24.0443  -31.4004   20.6669 O   0  0  0  0  0  0  0  0  0  0  0  0
  -28.5222  -30.2851   19.5599 O   0  0  0  0  0  0  0  0  0  0  0  0
  -31.9165  -12.5459   21.1387 O   0  0  0  0  0  0  0  0  0  0  0  0
  -21.5714  -18.9307   19.7669 O   0  0  0  0  0  0  0  0  0  0  0  0
  -27.9246  -24.0054   22.1211 O   0  0  0  0  0  0  0  0  0  1  0  0
  -23.8658  -23.8085   20.9277 F   0  0  0  0  0  0  0  0  0  0  0  0
  -20.4592  -20.6056   21.6644 F   0  0  0  0  0  0  0  0  0  0  0  0
  1  2  1  0  0  0  0
  1  5  2  0  0  0  0
  2  6  2  0  0  0  0
  3 12  2  0  0  0  0
  3 19  1  0  0  0  0
  4 13  1  0  0  0  0
  4 19  2  0  0  0  0
  5 21  1  0  0  0  0
  6 23  1  0  0  0  0
  7 14  2  0  0  0  0
  7 22  1  0  0  0  0
  8 10  2  0  0  0  0
  8 25  1  0  0  0  0
  9 11  1  0  0  0  0
  9 25  2  0  0  0  0
 10 26  1  0  0  0  0
 11 26  2  0  0  0  0
 12 27  1  0  0  0  0
 13 27  2  0  0  0  0
 14 28  1  0  0  0  0
 15 16  2  0  0  0  0
 15 29  1  0  0  0  0
 16 30  1  0  0  0  0
 17 24  1  0  0  0  0
 17 28  2  0  0  0  0
 18 30  2  0  0  0  0
 18 31  1  0  0  0  0
 19 32  1  0  0  0  0
 20 32  1  0  0  0  0
 20 33  2  0  0  0  0
 20 34  1  0  0  0  0
 21 23  2  0  0  0  0
 21 39  1  0  0  0  0
 22 24  2  0  0  0  0
 22 40  1  0  0  0  0
 23 48  1  0  0  0  0
 24 41  1  0  0  0  0
 25 58  1  0  0  0  0
 26 73  1  0  0  0  0
 27 81  1  0  0  0  0
 28 82  1  0  0  0  0
 29 31  2  0  0  0  0
 29 81  1  0  0  0  0
 30 83  1  0  0  0  0
 31 84  1  0  0  0  0
 32 65  2  0  0  0  0
 33 66  1  0  0  0  0
 33 69  1  0  0  0  0
 34 70  1  0  0  0  0
 34 76  2  0  0  0  0
 35 49  1  0  0  0  0
 35 71  1  0  0  0  0
 35 77  2  0  0  0  0
 36 62  1  0  0  0  0
 36 67  1  0  0  0  0
 36 78  2  0  0  0  0
 37 63  1  0  0  0  0
 37 72  1  0  0  0  0
 37 79  2  0  0  0  0
 38 68  1  0  0  0  0
 38 73  1  0  0  0  0
 38 80  2  0  0  0  0
 39 42  1  0  0  0  0
 40 49  1  0  0  0  0
 41 67  1  0  0  0  0
 42 44  1  0  0  0  0
 43 45  1  0  0  0  0
 43 46  1  0  0  0  0
 44 48  1  0  0  0  0
 45 50  1  0  0  0  0
 46 68  1  0  0  0  0
 47 50  1  0  0  0  0
 47 68  1  0  0  0  0
 48 71  1  0  0  0  0
 49 67  1  0  0  0  0
 50 66  1  0  0  0  0
 51 63  1  0  0  0  0
 52 64  1  0  0  0  0
 53 64  1  0  0  0  0
 54 64  1  0  0  0  0
 55 73  1  0  0  0  0
 56 74  1  0  0  0  0
 57 75  1  0  0  0  0
 58 75  1  0  0  0  0
 59 60  1  0  0  0  0
 59 61  1  0  0  0  0
 60 75  1  0  0  0  0
 61 82  1  0  0  0  0
 62 64  1  0  0  0  0
 62 72  1  0  0  0  0
 63 74  1  0  0  0  0
 65 66  1  0  0  0  0
M  CHG  2  74   1  75   1
M  ISO  4  38 100  61 101  73 100  82 101
M  END
> <Batch ID>
0017

> <Smiles>
CNC(C)C(=O)NC(C(=O)N1Cc2cc([101O:1][101CH2:1]CCN(C)Cc3ccc([100N:0](C)[100C:0](=O)N4CCCC(n5nc(-c6ccc(Oc7ccc(F)cc7F)cc6)c(C(N)=O)c5N)C4)cc3)ccc2CC1C(=O)NC1CCCc2ccccc21)C(C)(C)C

> <Shape>
0.244

> <Color>
0.069

> <Negative vol penalty>
0.000

$$$$

  -OEChem-04042321003D

 88 97  0     1  0  0  0  0  0999 V2000
  -30.0213  -36.6012   24.2958 C   0  0  0  0  0  0  0  0  0  0  0  0
  -29.9563  -35.2153   24.3983 C   0  0  0  0  0  0  0  0  0  0  0  0
  -24.1456   -8.9813   21.2131 C   0  0  0  0  0  0  0  0  0  0  0  0
  -25.2107   -9.9502   23.1531 C   0  0  0  0  0  0  0  0  0  0  0  0
  -28.8817  -37.3704   24.5273 C   0  0  0  0  0  0  0  0  0  0  0  0
  -28.7518  -34.5979   24.7334 C   0  0  0  0  0  0  0  0  0  0  0  0
  -27.7632  -30.5655   21.8338 C   0  0  0  0  0  0  0  0  0  0  0  0
  -28.0558  -18.4040   23.2918 C   0  0  0  0  0  0  0  0  0  0  0  0
  -30.0370  -19.1549   22.1307 C   0  0  0  0  0  0  0  0  0  0  0  0
  -27.4328  -19.6211   23.0159 C   0  0  0  0  0  0  0  0  0  0  0  0
  -29.4140  -20.3720   21.8547 C   0  0  0  0  0  0  0  0  0  0  0  0
  -23.9402   -7.7954   21.9181 C   0  0  0  0  0  0  0  0  0  0  0  0
  -25.0053   -8.7643   23.8582 C   0  0  0  0  0  0  0  0  0  0  0  0
  -28.4428  -29.3852   22.1315 C   0  0  0  0  0  0  0  0  0  0  0  0
  -21.7858   -6.6220   24.2450 C   0  0  0  0  0  0  0  0  0  0  0  0
  -20.5314   -6.0196   24.1489 C   0  0  0  0  0  0  0  0  0  0  0  0
  -26.4950  -28.5641   23.2940 C   0  0  0  0  0  0  0  0  0  0  0  0
  -21.5552   -4.0348   23.2273 C   0  0  0  0  0  0  0  0  0  0  0  0
  -24.7809  -10.0587   21.8306 C   0  0  0  0  0  0  0  0  0  0  0  0
  -24.0118  -12.1134   20.5290 C   0  0  0  0  0  0  0  0  0  0  0  0
  -27.6603  -36.7615   24.8560 C   0  0  0  0  0  0  0  0  0  0  0  0
  -26.4459  -30.7588   22.2740 C   0  0  0  0  0  0  0  0  0  0  0  0
  -27.5951  -35.3597   24.9708 C   0  0  0  0  0  0  0  0  0  0  0  0
  -25.8000  -29.7467   22.9983 C   0  0  0  0  0  0  0  0  0  0  0  0
  -29.3579  -18.1709   22.8493 C   0  0  0  0  0  0  0  0  0  0  0  0
  -28.1118  -20.6051   22.2973 C   0  0  0  0  0  0  0  0  0  0  0  0
  -24.3701   -7.6869   23.2407 C   0  0  0  0  0  0  0  0  0  0  0  0
  -27.8097  -28.3854   22.8642 C   0  0  0  0  0  0  0  0  0  0  0  0
  -22.9249   -5.9308   23.8322 C   0  0  0  0  0  0  0  0  0  0  0  0
  -20.4161   -4.7260   23.6401 C   0  0  0  0  0  0  0  0  0  0  0  0
  -22.8096   -4.6372   23.3234 C   0  0  0  0  0  0  0  0  0  0  0  0
  -24.9938  -11.2838   21.1026 C   0  0  0  0  0  0  0  0  0  0  0  0
  -24.7217  -13.1407   19.9568 C   0  0  0  0  0  0  0  0  0  0  0  0
  -22.5855  -11.9686   20.5147 C   0  0  0  0  0  0  0  0  0  0  0  0
  -25.0069  -32.8376   24.2005 C   0  0  0  0  0  0  0  0  0  0  0  0
  -22.3221  -31.3271   23.1845 C   0  0  0  0  0  0  0  0  0  0  0  0
  -21.2967  -27.9285   22.5396 C   0  0  0  0  0  0  0  0  0  0  0  0
  -30.1114  -15.4940   21.0808 C   0  0  0  0  0  0  0  0  0  0  0  0
  -26.4667  -37.6374   25.1435 C   0  0  0  0  0  0  0  0  0  0  0  0
  -25.7174  -32.0268   21.9216 C   0  0  0  0  0  0  0  0  0  0  0  0
  -24.3798  -29.8967   23.4767 C   0  0  0  0  0  0  0  0  0  0  0  0
  -25.1396  -36.8832   25.1267 C   0  0  0  0  0  0  0  0  0  0  0  0
  -28.9771  -14.1165   17.9998 C   0  0  0  0  0  0  0  0  0  0  0  0
  -25.2523  -35.5866   25.9224 C   0  0  0  0  0  0  0  0  0  0  0  0
  -27.7390  -13.3092   18.3939 C   0  0  0  0  0  0  0  0  0  0  0  0
  -27.0403  -23.7667   23.4200 C   0  0  0  0  0  0  0  0  0  0  0  0
  -28.3876  -23.9611   21.2870 C   0  0  0  0  0  0  0  0  0  0  0  0
  -27.5526  -25.1344   23.8647 C   0  0  0  0  0  0  0  0  0  0  0  0
  -28.8960  -25.3290   21.7360 C   0  0  0  0  0  0  0  0  0  0  0  0
  -30.0621  -14.0452   19.0720 C   0  0  0  0  0  0  0  0  0  0  0  0
  -28.3809  -13.6140   20.8216 C   0  0  0  0  0  0  0  0  0  0  0  0
  -26.3008  -34.6516   25.3079 C   0  0  1  0  0  0  0  0  0  0  0  0
  -24.5542  -32.3285   22.8613 C   0  0  1  0  0  0  0  0  0  0  0  0
  -27.2371  -13.7011   19.7966 C   0  0  2  0  0  0  0  0  0  0  0  0
  -28.0400  -23.0777   22.4874 C   0  0  0  0  0  0  0  0  0  0  0  0
  -27.9050  -26.0200   22.6715 C   0  0  0  0  0  0  0  0  0  1  0  0
  -25.1707  -21.3119   19.0038 C   0  0  0  0  0  0  0  0  0  0  0  0
  -19.5538  -27.0182   20.9804 C   0  0  0  0  0  0  0  0  0  0  0  0
  -20.4939  -31.4435   25.6247 C   0  0  0  0  0  0  0  0  0  0  0  0
  -19.4703  -29.2855   24.8740 C   0  0  0  0  0  0  0  0  0  0  0  0
  -19.2993  -31.3134   23.4314 C   0  0  0  0  0  0  0  0  0  0  0  0
  -23.2510  -26.1495   21.2076 C   0  0  0  0  0  0  0  0  0  0  0  0
  -30.0250  -16.8701   23.1442 C   0  0  0  0  0  0  0  0  0  0  0  0
  -26.4408  -21.2592   19.8410 C   0  0  0  0  0  0  0  0  0  0  0  0
  -26.2569  -21.8612   21.2289 C   0  0  0  0  0  0  0  0  0  0  0  0
  -21.5245  -30.1339   23.6527 C   0  0  1  0  0  0  0  0  0  0  0  0
  -21.0344  -27.3004   21.1828 C   0  0  2  0  0  0  0  0  0  0  0  0
  -20.2250  -30.5460   24.4003 C   0  0  0  0  0  0  0  0  0  0  0  0
  -26.2331  -11.7440   20.9121 N   0  0  0  0  0  0  0  0  0  0  0  0
  -26.0346  -12.8740   20.2122 N   0  0  0  0  0  0  0  0  0  0  0  0
  -23.7119  -31.1572   23.1123 N   0  0  0  0  0  0  0  0  0  0  0  0
  -29.5215  -14.4305   20.3778 N   0  0  0  0  0  0  0  0  0  0  0  0
  -24.3446  -14.2369   19.2650 N   0  0  0  0  0  0  0  0  0  0  0  0
  -21.8455  -12.5389   21.5594 N   0  0  0  0  0  0  0  0  0  0  0  0
  -25.7648  -33.9913   24.1369 N   0  0  0  0  0  0  0  0  0  0  0  0
  -21.2983  -29.3058   22.4731 N   0  0  0  0  0  0  0  0  0  0  0  0
  -29.5338  -15.7981   22.3074 N   0  0  0  0  0  0  0  0  0  0  0  0
  -27.4864  -21.8256   22.0186 N   0  0  3  0  0  0  0  0  0  0  0  0
  -21.7795  -26.0162   21.0537 N   0  3  0  0  0  0  0  0  0  0  0  0
  -21.9863  -11.3376   19.6111 O   0  0  0  0  0  0  0  0  0  0  0  0
  -24.6906  -32.2297   25.2165 O   0  0  0  0  0  0  0  0  0  0  0  0
  -21.7329  -32.3691   22.8868 O   0  0  0  0  0  0  0  0  0  0  0  0
  -21.4780  -27.2640   23.5575 O   0  0  0  0  0  0  0  0  0  0  0  0
  -31.0777  -16.1291   20.6449 O   0  0  0  0  0  0  0  0  0  0  0  0
  -24.1696   -6.5299   23.9290 O   0  0  0  0  0  0  0  0  0  0  0  0
  -28.4710  -27.2326   23.1568 O   0  0  0  0  0  0  0  0  0  1  0  0
  -19.2116   -4.1471   23.5493 F   0  0  0  0  0  0  0  0  0  0  0  0
  -23.9005   -3.9678   22.9263 F   0  0  0  0  0  0  0  0  0  0  0  0
  1  2  1  0  0  0  0
  1  5  2  0  0  0  0
  2  6  2  0  0  0  0
  3 12  2  0  0  0  0
  3 19  1  0  0  0  0
  4 13  1  0  0  0  0
  4 19  2  0  0  0  0
  5 21  1  0  0  0  0
  6 23  1  0  0  0  0
  7 14  2  0  0  0  0
  7 22  1  0  0  0  0
  8 10  2  0  0  0  0
  8 25  1  0  0  0  0
  9 11  1  0  0  0  0
  9 25  2  0  0  0  0
 10 26  1  0  0  0  0
 11 26  2  0  0  0  0
 12 27  1  0  0  0  0
 13 27  2  0  0  0  0
 14 28  1  0  0  0  0
 15 16  2  0  0  0  0
 15 29  1  0  0  0  0
 16 30  1  0  0  0  0
 17 24  1  0  0  0  0
 17 28  2  0  0  0  0
 18 30  2  0  0  0  0
 18 31  1  0  0  0  0
 19 32  1  0  0  0  0
 20 32  1  0  0  0  0
 20 33  2  0  0  0  0
 20 34  1  0  0  0  0
 21 23  2  0  0  0  0
 21 39  1  0  0  0  0
 22 24  2  0  0  0  0
 22 40  1  0  0  0  0
 23 52  1  0  0  0  0
 24 41  1  0  0  0  0
 25 63  1  0  0  0  0
 26 78  1  0  0  0  0
 27 85  1  0  0  0  0
 28 86  1  0  0  0  0
 29 31  2  0  0  0  0
 29 85  1  0  0  0  0
 30 87  1  0  0  0  0
 31 88  1  0  0  0  0
 32 69  2  0  0  0  0
 33 70  1  0  0  0  0
 33 73  1  0  0  0  0
 34 74  1  0  0  0  0
 34 80  2  0  0  0  0
 35 53  1  0  0  0  0
 35 75  1  0  0  0  0
 35 81  2  0  0  0  0
 36 66  1  0  0  0  0
 36 71  1  0  0  0  0
 36 82  2  0  0  0  0
 37 67  1  0  0  0  0
 37 76  1  0  0  0  0
 37 83  2  0  0  0  0
 38 72  1  0  0  0  0
 38 77  1  0  0  0  0
 38 84  2  0  0  0  0
 39 42  1  0  0  0  0
 40 53  1  0  0  0  0
 41 71  1  0  0  0  0
 42 44  1  0  0  0  0
 43 45  1  0  0  0  0
 43 50  1  0  0  0  0
 44 52  1  0  0  0  0
 45 54  1  0  0  0  0
 46 48  1  0  0  0  0
 46 55  1  0  0  0  0
 47 49  1  0  0  0  0
 47 55  1  0  0  0  0
 48 56  1  0  0  0  0
 49 56  1  0  0  0  0
 50 72  1  0  0  0  0
 51 54  1  0  0  0  0
 51 72  1  0  0  0  0
 52 75  1  0  0  0  0
 53 71  1  0  0  0  0
 54 70  1  0  0  0  0
 55 78  1  0  0  0  0
 56 86  1  0  0  0  0
 57 64  1  0  0  0  0
 58 67  1  0  0  0  0
 59 68  1  0  0  0  0
 60 68  1  0  0  0  0
 61 68  1  0  0  0  0
 62 79  1  0  0  0  0
 63 77  1  0  0  0  0
 64 65  1  0  0  0  0
 65 78  1  0  0  0  0
 66 68  1  0  0  0  0
 66 76  1  0  0  0  0
 67 79  1  0  0  0  0
 69 70  1  0  0  0  0
M  CHG  1  79   1
M  ISO  4  38 100  56 101  77 100  86 101
M  END
> <Batch ID>
0017

> <Smiles>
CCCN(c1ccc(C[100NH:0][100C:0](=O)N2CCCC(n3nc(-c4ccc(Oc5ccc(F)cc5F)cc4)c(C(N)=O)c3N)C2)cc1)C1CC[101CH:1]([101O:1]c2ccc3c(c2)CN(C(=O)C(NC(=O)C(C)NC)C(C)(C)C)C(C(=O)NC2CCCc4ccccc42)C3)CC1

> <Shape>
0.313

> <Color>
0.115

> <Negative vol penalty>
0.000

$$$$

  -OEChem-04042321003D

 86 94  0     1  0  0  0  0  0999 V2000
  -30.1915  -32.8604   12.2901 C   0  0  0  0  0  0  0  0  0  0  0  0
  -30.3646  -32.2162   13.5109 C   0  0  0  0  0  0  0  0  0  0  0  0
  -30.0519  -19.1042   18.3606 C   0  0  0  0  0  0  0  0  0  0  0  0
  -22.9748  -10.0036   19.9393 C   0  0  0  0  0  0  0  0  0  0  0  0
  -24.0373   -9.7494   22.0942 C   0  0  0  0  0  0  0  0  0  0  0  0
  -29.4092  -34.0121   12.2156 C   0  0  0  0  0  0  0  0  0  0  0  0
  -29.7564  -32.7241   14.6584 C   0  0  0  0  0  0  0  0  0  0  0  0
  -27.5613  -29.1159   17.4526 C   0  0  0  0  0  0  0  0  0  0  0  0
  -29.8722  -17.8231   18.8822 C   0  0  0  0  0  0  0  0  0  0  0  0
  -29.8131  -20.2224   19.1596 C   0  0  0  0  0  0  0  0  0  0  0  0
  -22.2520   -8.8307   20.1573 C   0  0  0  0  0  0  0  0  0  0  0  0
  -23.3145   -8.5765   22.3122 C   0  0  0  0  0  0  0  0  0  0  0  0
  -28.3948  -28.3327   18.2499 C   0  0  0  0  0  0  0  0  0  0  0  0
  -20.1842   -7.7206   23.2551 C   0  0  0  0  0  0  0  0  0  0  0  0
  -19.5917   -7.5494   24.5062 C   0  0  0  0  0  0  0  0  0  0  0  0
  -27.7996  -29.6651   20.1707 C   0  0  0  0  0  0  0  0  0  0  0  0
  -29.2146  -18.7783   21.0017 C   0  0  0  0  0  0  0  0  0  0  0  0
  -20.8881   -5.5390   24.8450 C   0  0  0  0  0  0  0  0  0  0  0  0
  -23.8675  -10.4629   20.9077 C   0  0  0  0  0  0  0  0  0  0  0  0
  -24.2327  -12.9849   21.0261 C   0  0  0  0  0  0  0  0  0  0  0  0
  -28.7832  -34.5288   13.3609 C   0  0  0  0  0  0  0  0  0  0  0  0
  -26.8479  -30.1883   18.0072 C   0  0  0  0  0  0  0  0  0  0  0  0
  -28.9660  -33.8845   14.5994 C   0  0  0  0  0  0  0  0  0  0  0  0
  -26.9558  -30.4589   19.3788 C   0  0  0  0  0  0  0  0  0  0  0  0
  -29.4535  -17.6602   20.2028 C   0  0  0  0  0  0  0  0  0  0  0  0
  -29.3943  -20.0594   20.4801 C   0  0  0  0  0  0  0  0  0  0  0  0
  -22.4218   -8.1172   21.3438 C   0  0  0  0  0  0  0  0  0  0  0  0
  -28.5163  -28.6090   19.6085 C   0  0  0  0  0  0  0  0  0  0  0  0
  -21.1286   -6.8009   22.7989 C   0  0  0  0  0  0  0  0  0  0  0  0
  -19.9437   -6.4586   25.3011 C   0  0  0  0  0  0  0  0  0  0  0  0
  -21.4806   -5.7102   23.5939 C   0  0  0  0  0  0  0  0  0  0  0  0
  -24.6148  -11.6741   20.6828 C   0  0  0  0  0  0  0  0  0  0  0  0
  -25.2784  -13.7690   20.6039 C   0  0  0  0  0  0  0  0  0  0  0  0
  -23.0394  -13.4519   21.6691 C   0  0  0  0  0  0  0  0  0  0  0  0
  -26.8118  -33.3337   17.5505 C   0  0  0  0  0  0  0  0  0  0  0  0
  -24.3114  -33.2122   19.6134 C   0  0  0  0  0  0  0  0  0  0  0  0
  -22.7079  -31.5528   22.1277 C   0  0  0  0  0  0  0  0  0  0  0  0
  -30.9277  -14.3984   20.5294 C   0  0  0  0  0  0  0  0  0  0  0  0
  -27.9856  -35.8031   13.2398 C   0  0  0  0  0  0  0  0  0  0  0  0
  -25.9325  -31.0071   17.1390 C   0  0  0  0  0  0  0  0  0  0  0  0
  -26.1957  -31.5861   20.0269 C   0  0  0  0  0  0  0  0  0  0  0  0
  -27.0698  -36.0643   14.4329 C   0  0  0  0  0  0  0  0  0  0  0  0
  -29.2646  -12.6875   17.6995 C   0  0  0  0  0  0  0  0  0  0  0  0
  -27.8213  -35.8418   15.7415 C   0  0  0  0  0  0  0  0  0  0  0  0
  -27.9025  -12.3206   18.2861 C   0  0  0  0  0  0  0  0  0  0  0  0
  -30.3437  -12.7633   18.7753 C   0  0  0  0  0  0  0  0  0  0  0  0
  -28.6462  -13.3094   20.4884 C   0  0  0  0  0  0  0  0  0  0  0  0
  -28.3023  -34.3907   15.8617 C   0  0  1  0  0  0  0  0  0  0  0  0
  -25.6503  -32.3938   17.7090 C   0  0  1  0  0  0  0  0  0  0  0  0
  -27.5270  -13.2703   19.4370 C   0  0  2  0  0  0  0  0  0  0  0  0
  -20.7095  -31.7187   23.6365 C   0  0  0  0  0  0  0  0  0  0  0  0
  -25.7559  -35.3113   21.2918 C   0  0  0  0  0  0  0  0  0  0  0  0
  -24.2296  -34.7409   23.1927 C   0  0  0  0  0  0  0  0  0  0  0  0
  -23.2898  -35.6654   21.0750 C   0  0  0  0  0  0  0  0  0  0  0  0
  -31.5199  -16.4626   21.7411 C   0  0  0  0  0  0  0  0  0  0  0  0
  -21.5530  -29.0431   21.0663 C   0  0  0  0  0  0  0  0  0  0  0  0
  -31.0724  -21.1402   22.9008 C   0  0  0  0  0  0  0  0  0  0  0  0
  -29.2630  -16.2900   20.7602 C   0  0  0  0  0  0  0  0  0  0  0  0
  -29.1368  -21.2622   21.3391 C   0  0  0  0  0  0  0  0  0  0  0  0
  -29.9578  -24.1751   20.9223 C   0  0  0  0  0  0  0  0  0  0  0  0
  -29.7777  -25.6542   21.2555 C   0  0  0  0  0  0  0  0  0  0  0  0
  -30.1894  -23.3553   22.1828 C   0  0  0  0  0  0  0  0  0  0  0  0
  -29.5021  -26.4820   20.0082 C   0  0  0  0  0  0  0  0  0  1  0  0
  -24.1580  -33.2913   21.1131 C   0  0  1  0  0  0  0  0  0  0  0  0
  -21.2483  -31.1821   22.3195 C   0  0  2  0  0  0  0  0  0  0  0  0
  -24.3743  -34.7321   21.6559 C   0  0  0  0  0  0  0  0  0  0  0  0
  -25.8098  -11.6244   20.0883 N   0  0  0  0  0  0  0  0  0  0  0  0
  -26.1876  -12.9136   20.0545 N   0  0  0  0  0  0  0  0  0  0  0  0
  -25.3183  -32.3619   19.1348 N   0  0  0  0  0  0  0  0  0  0  0  0
  -29.9428  -13.6385   19.8774 N   0  0  0  0  0  0  0  0  0  0  0  0
  -25.4995  -15.0998   20.6526 N   0  0  0  0  0  0  0  0  0  0  0  0
  -22.0670  -12.5119   22.0369 N   0  0  0  0  0  0  0  0  0  0  0  0
  -27.2063  -33.5247   16.2400 N   0  0  0  0  0  0  0  0  0  0  0  0
  -22.8477  -32.7277   21.4197 N   0  0  0  0  0  0  0  0  0  0  0  0
  -30.5321  -15.6331   21.0657 N   0  0  0  0  0  0  0  0  0  0  0  0
  -21.0850  -29.7009   22.3134 N   0  3  0  0  0  0  0  0  0  0  0  0
  -30.4033  -21.9369   21.8072 N   0  3  1  0  0  0  0  0  0  0  0  0
  -22.8339  -14.6684   21.8956 O   0  0  0  0  0  0  0  0  0  0  0  0
  -27.3120  -33.8489   18.5435 O   0  0  0  0  0  0  0  0  0  0  0  0
  -23.5608  -33.8748   18.8930 O   0  0  0  0  0  0  0  0  0  0  0  0
  -23.6315  -30.8704   22.5657 O   0  0  0  0  0  0  0  0  0  0  0  0
  -32.0964  -14.0006   20.6182 O   0  0  0  0  0  0  0  0  0  0  0  0
  -21.7166   -6.9727   21.5569 O   0  0  0  0  0  0  0  0  0  0  0  0
  -29.3296  -27.8464   20.3888 O   0  0  0  0  0  0  0  0  0  1  0  0
  -19.3757   -6.2952   26.5032 F   0  0  0  0  0  0  0  0  0  0  0  0
  -22.3882   -4.8241   23.1616 F   0  0  0  0  0  0  0  0  0  0  0  0
  1  2  1  0  0  0  0
  1  6  2  0  0  0  0
  2  7  2  0  0  0  0
  3  9  1  0  0  0  0
  3 10  2  0  0  0  0
  4 11  2  0  0  0  0
  4 19  1  0  0  0  0
  5 12  1  0  0  0  0
  5 19  2  0  0  0  0
  6 21  1  0  0  0  0
  7 23  1  0  0  0  0
  8 13  2  0  0  0  0
  8 22  1  0  0  0  0
  9 25  2  0  0  0  0
 10 26  1  0  0  0  0
 11 27  1  0  0  0  0
 12 27  2  0  0  0  0
 13 28  1  0  0  0  0
 14 15  2  0  0  0  0
 14 29  1  0  0  0  0
 15 30  1  0  0  0  0
 16 24  1  0  0  0  0
 16 28  2  0  0  0  0
 17 25  1  0  0  0  0
 17 26  2  0  0  0  0
 18 30  2  0  0  0  0
 18 31  1  0  0  0  0
 19 32  1  0  0  0  0
 20 32  1  0  0  0  0
 20 33  2  0  0  0  0
 20 34  1  0  0  0  0
 21 23  2  0  0  0  0
 21 39  1  0  0  0  0
 22 24  2  0  0  0  0
 22 40  1  0  0  0  0
 23 48  1  0  0  0  0
 24 41  1  0  0  0  0
 25 58  1  0  0  0  0
 26 59  1  0  0  0  0
 27 83  1  0  0  0  0
 28 84  1  0  0  0  0
 29 31  2  0  0  0  0
 29 83  1  0  0  0  0
 30 85  1  0  0  0  0
 31 86  1  0  0  0  0
 32 67  2  0  0  0  0
 33 68  1  0  0  0  0
 33 71  1  0  0  0  0
 34 72  1  0  0  0  0
 34 78  2  0  0  0  0
 35 49  1  0  0  0  0
 35 73  1  0  0  0  0
 35 79  2  0  0  0  0
 36 64  1  0  0  0  0
 36 69  1  0  0  0  0
 36 80  2  0  0  0  0
 37 65  1  0  0  0  0
 37 74  1  0  0  0  0
 37 81  2  0  0  0  0
 38 70  1  0  0  0  0
 38 75  1  0  0  0  0
 38 82  2  0  0  0  0
 39 42  1  0  0  0  0
 40 49  1  0  0  0  0
 41 69  1  0  0  0  0
 42 44  1  0  0  0  0
 43 45  1  0  0  0  0
 43 46  1  0  0  0  0
 44 48  1  0  0  0  0
 45 50  1  0  0  0  0
 46 70  1  0  0  0  0
 47 50  1  0  0  0  0
 47 70  1  0  0  0  0
 48 73  1  0  0  0  0
 49 69  1  0  0  0  0
 50 68  1  0  0  0  0
 51 65  1  0  0  0  0
 52 66  1  0  0  0  0
 53 66  1  0  0  0  0
 54 66  1  0  0  0  0
 55 75  1  0  0  0  0
 56 76  1  0  0  0  0
 57 77  1  0  0  0  0
 58 75  1  0  0  0  0
 59 77  1  0  0  0  0
 60 61  1  0  0  0  0
 60 62  1  0  0  0  0
 61 63  1  0  0  0  0
 62 77  1  0  0  0  0
 63 84  1  0  0  0  0
 64 66  1  0  0  0  0
 64 74  1  0  0  0  0
 65 76  1  0  0  0  0
 67 68  1  0  0  0  0
M  CHG  2  76   1  77   1
M  ISO  4  38 100  63 101  75 100  84 101
M  END
> <Batch ID>
0017

> <Smiles>
CNC(C)C(=O)NC(C(=O)N1Cc2cc([101O:1][101CH2:1]CCCN(C)Cc3cccc(C[100N:0](C)[100C:0](=O)N4CCCC(n5nc(-c6ccc(Oc7ccc(F)cc7F)cc6)c(C(N)=O)c5N)C4)c3)ccc2CC1C(=O)NC1CCCc2ccccc21)C(C)(C)C

> <Shape>
0.291

> <Color>
0.190

> <Negative vol penalty>
0.000

$$$$

  -OEChem-04042321003D

 83 91  0     1  0  0  0  0  0999 V2000
  -30.2682  -23.3187   18.0773 C   0  0  0  0  0  0  0  0  0  0  0  0
  -28.9840  -23.8006   18.3044 C   0  0  0  0  0  0  0  0  0  0  0  0
  -23.2372  -23.3907   24.5273 C   0  0  0  0  0  0  0  0  0  0  0  0
  -26.9417  -13.2699   20.2218 C   0  0  0  0  0  0  0  0  0  0  0  0
  -24.6393  -13.9130   20.5720 C   0  0  0  0  0  0  0  0  0  0  0  0
  -31.3297  -23.7827   18.8514 C   0  0  0  0  0  0  0  0  0  0  0  0
  -28.7628  -24.7554   19.2976 C   0  0  0  0  0  0  0  0  0  0  0  0
  -24.2493  -26.6941   19.5681 C   0  0  0  0  0  0  0  0  0  0  0  0
  -21.9082  -23.0191   24.3244 C   0  0  0  0  0  0  0  0  0  0  0  0
  -24.2450  -22.8347   23.7393 C   0  0  0  0  0  0  0  0  0  0  0  0
  -26.6872  -12.0346   20.8176 C   0  0  0  0  0  0  0  0  0  0  0  0
  -24.3848  -12.6777   21.1677 C   0  0  0  0  0  0  0  0  0  0  0  0
  -23.1489  -25.9791   20.0389 C   0  0  0  0  0  0  0  0  0  0  0  0
  -23.0404   -9.5549   22.4556 C   0  0  0  0  0  0  0  0  0  0  0  0
  -21.8782   -8.8806   22.0812 C   0  0  0  0  0  0  0  0  0  0  0  0
  -23.2782  -27.1703   22.1326 C   0  0  0  0  0  0  0  0  0  0  0  0
  -22.5946  -21.5352   22.5457 C   0  0  0  0  0  0  0  0  0  0  0  0
  -22.6481   -8.8250   19.7918 C   0  0  0  0  0  0  0  0  0  0  0  0
  -25.9177  -14.2091   20.0991 C   0  0  0  0  0  0  0  0  0  0  0  0
  -26.0636  -15.8120   18.1199 C   0  0  0  0  0  0  0  0  0  0  0  0
  -31.1184  -24.7344   19.8626 C   0  0  0  0  0  0  0  0  0  0  0  0
  -24.8802  -27.6464   20.3814 C   0  0  0  0  0  0  0  0  0  0  0  0
  -29.8249  -25.2539   20.0734 C   0  0  0  0  0  0  0  0  0  0  0  0
  -24.3849  -27.8979   21.6688 C   0  0  0  0  0  0  0  0  0  0  0  0
  -21.5869  -22.0913   23.3336 C   0  0  0  0  0  0  0  0  0  0  0  0
  -23.9237  -21.9069   22.7486 C   0  0  0  0  0  0  0  0  0  0  0  0
  -25.4088  -11.7385   21.2905 C   0  0  0  0  0  0  0  0  0  0  0  0
  -22.6649  -26.2151   21.3223 C   0  0  0  0  0  0  0  0  0  0  0  0
  -24.0064   -9.8643   21.4981 C   0  0  0  0  0  0  0  0  0  0  0  0
  -21.6820   -8.5157   20.7493 C   0  0  0  0  0  0  0  0  0  0  0  0
  -23.8103   -9.4993   20.1662 C   0  0  0  0  0  0  0  0  0  0  0  0
  -26.1801  -15.4856   19.4843 C   0  0  0  0  0  0  0  0  0  0  0  0
  -26.4222  -17.1361   18.0518 C   0  0  0  0  0  0  0  0  0  0  0  0
  -25.6666  -14.9917   17.0130 C   0  0  0  0  0  0  0  0  0  0  0  0
  -27.7937  -27.9692   21.6108 C   0  0  0  0  0  0  0  0  0  0  0  0
  -26.6464  -30.8478   22.5699 C   0  0  0  0  0  0  0  0  0  0  0  0
  -23.9389  -32.7745   23.3473 C   0  0  0  0  0  0  0  0  0  0  0  0
  -26.3156  -21.6035   22.0186 C   0  0  0  0  0  0  0  0  0  0  0  0
  -32.3045  -25.2078   20.6654 C   0  0  0  0  0  0  0  0  0  0  0  0
  -26.0497  -28.4283   19.8490 C   0  0  0  0  0  0  0  0  0  0  0  0
  -25.0140  -28.9241   22.5741 C   0  0  0  0  0  0  0  0  0  0  0  0
  -31.9058  -25.8787   21.9758 C   0  0  0  0  0  0  0  0  0  0  0  0
  -29.1595  -20.3923   20.2514 C   0  0  0  0  0  0  0  0  0  0  0  0
  -30.8297  -26.9230   21.7188 C   0  0  0  0  0  0  0  0  0  0  0  0
  -28.7055  -19.0290   19.7249 C   0  0  0  0  0  0  0  0  0  0  0  0
  -28.5920  -20.6816   21.6400 C   0  0  0  0  0  0  0  0  0  0  0  0
  -26.6804  -19.1830   21.2289 C   0  0  0  0  0  0  0  0  0  0  0  0
  -29.5554  -26.2700   21.1685 C   0  0  1  0  0  0  0  0  0  0  0  0
  -26.9320  -29.0080   20.9503 C   0  0  1  0  0  0  0  0  0  0  0  0
  -27.1741  -18.8750   19.8058 C   0  0  2  0  0  0  0  0  0  0  0  0
  -23.3192  -35.0754   24.1343 C   0  0  0  0  0  0  0  0  0  0  0  0
  -27.5190  -30.1123   25.3996 C   0  0  0  0  0  0  0  0  0  0  0  0
  -26.0588  -31.9576   26.2547 C   0  0  0  0  0  0  0  0  0  0  0  0
  -27.9774  -32.4834   24.7497 C   0  0  0  0  0  0  0  0  0  0  0  0
  -22.3871  -33.3238   20.8879 C   0  0  0  0  0  0  0  0  0  0  0  0
  -18.2447  -24.1687   23.6024 C   0  0  0  0  0  0  0  0  0  0  0  0
  -20.1562  -21.6917   23.1157 C   0  0  0  0  0  0  0  0  0  0  0  0
  -19.4195  -22.5639   22.1041 C   0  0  0  0  0  0  0  0  0  0  0  0
  -19.2701  -24.9696   21.4790 C   0  0  0  0  0  0  0  0  0  0  0  0
  -20.6300  -25.0912   20.8202 C   0  0  0  0  0  0  0  0  0  1  0  0
  -25.9253  -31.3572   23.7944 C   0  0  1  0  0  0  0  0  0  0  0  0
  -23.5485  -34.1799   22.9267 C   0  0  2  0  0  0  0  0  0  0  0  0
  -26.8592  -31.4568   25.0335 C   0  0  0  0  0  0  0  0  0  0  0  0
  -26.5815  -16.5190   20.2293 N   0  0  0  0  0  0  0  0  0  0  0  0
  -26.7205  -17.5077   19.3297 N   0  0  0  0  0  0  0  0  0  0  0  0
  -26.1588  -29.6582   22.0103 N   0  0  0  0  0  0  0  0  0  0  0  0
  -27.1364  -20.5203   21.6395 N   0  0  0  0  0  0  0  0  0  0  0  0
  -26.5085  -18.0071   17.0240 N   0  0  0  0  0  0  0  0  0  0  0  0
  -25.3310  -13.6534   17.2597 N   0  0  0  0  0  0  0  0  0  0  0  0
  -24.9476  -21.3428   21.9479 N   0  0  0  0  0  0  0  0  0  0  0  0
  -28.6400  -27.3058   20.7430 N   0  0  0  0  0  0  0  0  0  0  0  0
  -25.3079  -32.6213   23.4083 N   0  0  0  0  0  0  0  0  0  0  0  0
  -22.2963  -34.1499   22.1193 N   0  3  0  0  0  0  0  0  0  0  0  0
  -19.3504  -23.9900   22.5917 N   0  3  1  0  0  0  0  0  0  0  0  0
  -25.6268  -15.4279   15.8376 O   0  0  0  0  0  0  0  0  0  0  0  0
  -27.6988  -27.7844   22.8185 O   0  0  0  0  0  0  0  0  0  0  0  0
  -27.6023  -31.4858   22.1219 O   0  0  0  0  0  0  0  0  0  0  0  0
  -23.1121  -31.9011   23.6004 O   0  0  0  0  0  0  0  0  0  0  0  0
  -26.7909  -22.6917   22.3534 O   0  0  0  0  0  0  0  0  0  0  0  0
  -25.1601  -10.5331   21.8716 O   0  0  0  0  0  0  0  0  0  0  0  0
  -21.5914  -25.5182   21.7846 O   0  0  0  0  0  0  0  0  0  1  0  0
  -20.5666   -7.8668   20.3901 F   0  0  0  0  0  0  0  0  0  0  0  0
  -24.7353   -9.7928   19.2421 F   0  0  0  0  0  0  0  0  0  0  0  0
  1  2  1  0  0  0  0
  1  6  2  0  0  0  0
  2  7  2  0  0  0  0
  3  9  2  0  0  0  0
  3 10  1  0  0  0  0
  4 11  2  0  0  0  0
  4 19  1  0  0  0  0
  5 12  1  0  0  0  0
  5 19  2  0  0  0  0
  6 21  1  0  0  0  0
  7 23  1  0  0  0  0
  8 13  2  0  0  0  0
  8 22  1  0  0  0  0
  9 25  1  0  0  0  0
 10 26  2  0  0  0  0
 11 27  1  0  0  0  0
 12 27  2  0  0  0  0
 13 28  1  0  0  0  0
 14 15  2  0  0  0  0
 14 29  1  0  0  0  0
 15 30  1  0  0  0  0
 16 24  1  0  0  0  0
 16 28  2  0  0  0  0
 17 25  2  0  0  0  0
 17 26  1  0  0  0  0
 18 30  2  0  0  0  0
 18 31  1  0  0  0  0
 19 32  1  0  0  0  0
 20 32  1  0  0  0  0
 20 33  2  0  0  0  0
 20 34  1  0  0  0  0
 21 23  2  0  0  0  0
 21 39  1  0  0  0  0
 22 24  2  0  0  0  0
 22 40  1  0  0  0  0
 23 48  1  0  0  0  0
 24 41  1  0  0  0  0
 25 57  1  0  0  0  0
 26 70  1  0  0  0  0
 27 80  1  0  0  0  0
 28 81  1  0  0  0  0
 29 31  2  0  0  0  0
 29 80  1  0  0  0  0
 30 82  1  0  0  0  0
 31 83  1  0  0  0  0
 32 64  2  0  0  0  0
 33 65  1  0  0  0  0
 33 68  1  0  0  0  0
 34 69  1  0  0  0  0
 34 75  2  0  0  0  0
 35 49  1  0  0  0  0
 35 71  1  0  0  0  0
 35 76  2  0  0  0  0
 36 61  1  0  0  0  0
 36 66  1  0  0  0  0
 36 77  2  0  0  0  0
 37 62  1  0  0  0  0
 37 72  1  0  0  0  0
 37 78  2  0  0  0  0
 38 67  1  0  0  0  0
 38 70  1  0  0  0  0
 38 79  2  0  0  0  0
 39 42  1  0  0  0  0
 40 49  1  0  0  0  0
 41 66  1  0  0  0  0
 42 44  1  0  0  0  0
 43 45  1  0  0  0  0
 43 46  1  0  0  0  0
 44 48  1  0  0  0  0
 45 50  1  0  0  0  0
 46 67  1  0  0  0  0
 47 50  1  0  0  0  0
 47 67  1  0  0  0  0
 48 71  1  0  0  0  0
 49 66  1  0  0  0  0
 50 65  1  0  0  0  0
 51 62  1  0  0  0  0
 52 63  1  0  0  0  0
 53 63  1  0  0  0  0
 54 63  1  0  0  0  0
 55 73  1  0  0  0  0
 56 74  1  0  0  0  0
 57 58  1  0  0  0  0
 58 74  1  0  0  0  0
 59 60  1  0  0  0  0
 59 74  1  0  0  0  0
 60 81  1  0  0  0  0
 61 63  1  0  0  0  0
 61 72  1  0  0  0  0
 62 73  1  0  0  0  0
 64 65  1  0  0  0  0
M  CHG  2  73   1  74   1
M  ISO  4  38 100  60 101  70 100  81 101
M  END
> <Batch ID>
0017

> <Smiles>
CNC(C)C(=O)NC(C(=O)N1Cc2cc([101O:1][101CH2:1]CN(C)CCc3cccc([100NH:0][100C:0](=O)N4CCCC(n5nc(-c6ccc(Oc7ccc(F)cc7F)cc6)c(C(N)=O)c5N)C4)c3)ccc2CC1C(=O)NC1CCCc2ccccc21)C(C)(C)C

> <Shape>
0.255

> <Color>
0.069

> <Negative vol penalty>
0.000

$$$$

  -OEChem-04042321003D

 84 92  0     1  0  0  0  0  0999 V2000
  -31.3580  -25.2304   17.9611 C   0  0  0  0  0  0  0  0  0  0  0  0
  -29.9873  -25.0274   18.0853 C   0  0  0  0  0  0  0  0  0  0  0  0
  -27.6091  -14.9665   19.7448 C   0  0  0  0  0  0  0  0  0  0  0  0
  -25.2297  -15.2464   19.4327 C   0  0  0  0  0  0  0  0  0  0  0  0
  -32.0483  -25.9396   18.9432 C   0  0  0  0  0  0  0  0  0  0  0  0
  -29.3063  -25.5326   19.1923 C   0  0  0  0  0  0  0  0  0  0  0  0
  -23.5829  -27.7084   19.3155 C   0  0  0  0  0  0  0  0  0  0  0  0
  -21.2443  -23.8611   23.6192 C   0  0  0  0  0  0  0  0  0  0  0  0
  -22.4989  -23.5360   23.1034 C   0  0  0  0  0  0  0  0  0  0  0  0
  -27.4034  -13.6399   20.1237 C   0  0  0  0  0  0  0  0  0  0  0  0
  -25.0240  -13.9198   19.8116 C   0  0  0  0  0  0  0  0  0  0  0  0
  -22.3699  -27.1360   19.6958 C   0  0  0  0  0  0  0  0  0  0  0  0
  -24.8921  -12.1410   22.6838 C   0  0  0  0  0  0  0  0  0  0  0  0
  -23.8576  -11.8764   23.5812 C   0  0  0  0  0  0  0  0  0  0  0  0
  -22.5981  -28.1220   21.8856 C   0  0  0  0  0  0  0  0  0  0  0  0
  -20.1919  -22.5377   21.8934 C   0  0  0  0  0  0  0  0  0  0  0  0
  -22.8023  -10.4475   21.9436 C   0  0  0  0  0  0  0  0  0  0  0  0
  -26.5223  -15.7697   19.3993 C   0  0  0  0  0  0  0  0  0  0  0  0
  -26.9619  -17.6277   17.7075 C   0  0  0  0  0  0  0  0  0  0  0  0
  -31.3737  -26.4621   20.0579 C   0  0  0  0  0  0  0  0  0  0  0  0
  -24.3193  -28.4842   20.2224 C   0  0  0  0  0  0  0  0  0  0  0  0
  -29.9884  -26.2483   20.1908 C   0  0  0  0  0  0  0  0  0  0  0  0
  -23.8189  -28.7052   21.5135 C   0  0  0  0  0  0  0  0  0  0  0  0
  -20.0908  -23.3619   23.0142 C   0  0  0  0  0  0  0  0  0  0  0  0
  -22.6000  -22.7119   21.9826 C   0  0  0  0  0  0  0  0  0  0  0  0
  -26.1108  -13.1166   20.1571 C   0  0  0  0  0  0  0  0  0  0  0  0
  -21.8787  -27.3404   20.9819 C   0  0  0  0  0  0  0  0  0  0  0  0
  -24.8816  -11.5590   21.4161 C   0  0  0  0  0  0  0  0  0  0  0  0
  -22.8128  -11.0296   23.2112 C   0  0  0  0  0  0  0  0  0  0  0  0
  -23.8368  -10.7122   21.0461 C   0  0  0  0  0  0  0  0  0  0  0  0
  -21.4465  -22.2127   21.3776 C   0  0  0  0  0  0  0  0  0  0  0  0
  -26.7341  -17.1403   19.0084 C   0  0  0  0  0  0  0  0  0  0  0  0
  -27.0995  -18.9847   17.8685 C   0  0  0  0  0  0  0  0  0  0  0  0
  -27.0418  -16.9173   16.4646 C   0  0  0  0  0  0  0  0  0  0  0  0
  -27.1990  -28.2554   21.5485 C   0  0  0  0  0  0  0  0  0  0  0  0
  -26.4647  -31.1904   22.7187 C   0  0  0  0  0  0  0  0  0  0  0  0
  -24.0523  -33.4425   23.5875 C   0  0  0  0  0  0  0  0  0  0  0  0
  -25.1165  -22.8283   21.9916 C   0  0  0  0  0  0  0  0  0  0  0  0
  -32.1707  -27.1813   21.1172 C   0  0  0  0  0  0  0  0  0  0  0  0
  -25.6130  -29.1167   19.7882 C   0  0  0  0  0  0  0  0  0  0  0  0
  -24.5611  -29.5468   22.5183 C   0  0  0  0  0  0  0  0  0  0  0  0
  -31.3107  -28.0062   22.0713 C   0  0  0  0  0  0  0  0  0  0  0  0
  -28.5081  -22.2516   21.0744 C   0  0  0  0  0  0  0  0  0  0  0  0
  -30.1087  -27.1945   22.5437 C   0  0  0  0  0  0  0  0  0  0  0  0
  -28.4579  -20.9228   20.3169 C   0  0  0  0  0  0  0  0  0  0  0  0
  -27.5259  -22.2750   22.2442 C   0  0  0  0  0  0  0  0  0  0  0  0
  -26.0899  -20.6048   21.1406 C   0  0  0  0  0  0  0  0  0  0  0  0
  -29.2102  -26.8021   21.3646 C   0  0  1  0  0  0  0  0  0  0  0  0
  -26.5302  -29.4638   20.9568 C   0  0  1  0  0  0  0  0  0  0  0  0
  -27.0156  -20.5579   19.9140 C   0  0  2  0  0  0  0  0  0  0  0  0
  -23.7583  -35.7410   24.5507 C   0  0  0  0  0  0  0  0  0  0  0  0
  -27.1075  -30.1056   25.4972 C   0  0  0  0  0  0  0  0  0  0  0  0
  -25.9117  -32.0794   26.4682 C   0  0  0  0  0  0  0  0  0  0  0  0
  -27.9438  -32.4221   25.0625 C   0  0  0  0  0  0  0  0  0  0  0  0
  -22.6964  -34.4189   21.1448 C   0  0  0  0  0  0  0  0  0  0  0  0
  -17.4635  -25.5656   24.6332 C   0  0  0  0  0  0  0  0  0  0  0  0
  -18.7417  -23.7121   23.5694 C   0  0  0  0  0  0  0  0  0  0  0  0
  -18.4513  -27.1838   22.1024 C   0  0  0  0  0  0  0  0  0  0  0  0
  -18.0977  -25.7096   22.2292 C   0  0  0  0  0  0  0  0  0  0  0  0
  -19.9275  -27.4823   22.3342 C   0  0  0  0  0  0  0  0  0  1  0  0
  -25.7828  -31.7051   23.9633 C   0  0  1  0  0  0  0  0  0  0  0  0
  -23.8954  -34.9203   23.2778 C   0  0  2  0  0  0  0  0  0  0  0  0
  -26.6732  -31.5605   25.2297 C   0  0  0  0  0  0  0  0  0  0  0  0
  -26.7269  -18.1089   19.9280 N   0  0  0  0  0  0  0  0  0  0  0  0
  -26.9520  -19.2185   19.2041 N   0  0  0  0  0  0  0  0  0  0  0  0
  -25.8245  -30.1386   22.0481 N   0  0  0  0  0  0  0  0  0  0  0  0
  -26.1797  -21.9238   21.7865 N   0  0  0  0  0  0  0  0  0  0  0  0
  -27.3313  -19.9889   16.9965 N   0  0  0  0  0  0  0  0  0  0  0  0
  -26.8769  -15.5256   16.4788 N   0  0  0  0  0  0  0  0  0  0  0  0
  -23.8897  -22.4004   21.4851 N   0  0  0  0  0  0  0  0  0  0  0  0
  -28.4004  -27.9276   20.9498 N   0  0  0  0  0  0  0  0  0  0  0  0
  -25.3790  -33.0760   23.6701 N   0  0  0  0  0  0  0  0  0  0  0  0
  -22.6848  -35.1481   22.4391 N   0  3  0  0  0  0  0  0  0  0  0  0
  -18.4692  -25.1972   23.5690 N   0  3  1  0  0  0  0  0  0  0  0  0
  -27.2694  -17.4975   15.3760 O   0  0  0  0  0  0  0  0  0  0  0  0
  -26.6652  -27.6651   22.4804 O   0  0  0  0  0  0  0  0  0  0  0  0
  -27.5226  -31.7073   22.3509 O   0  0  0  0  0  0  0  0  0  0  0  0
  -23.0938  -32.6894   23.7445 O   0  0  0  0  0  0  0  0  0  0  0  0
  -25.2876  -23.9153   22.5495 O   0  0  0  0  0  0  0  0  0  0  0  0
  -25.9097  -11.8221   20.5265 O   0  0  0  0  0  0  0  0  0  0  0  0
  -20.6952  -26.7824   21.3559 O   0  0  0  0  0  0  0  0  0  1  0  0
  -21.8203  -10.7743   24.0737 F   0  0  0  0  0  0  0  0  0  0  0  0
  -23.8219  -10.1492   19.8301 F   0  0  0  0  0  0  0  0  0  0  0  0
  -21.5263  -21.1893   19.9878 Cl  0  0  0  0  0  0  0  0  0  0  0  0
  1  2  1  0  0  0  0
  1  5  2  0  0  0  0
  2  6  2  0  0  0  0
  3 10  2  0  0  0  0
  3 18  1  0  0  0  0
  4 11  1  0  0  0  0
  4 18  2  0  0  0  0
  5 20  1  0  0  0  0
  6 22  1  0  0  0  0
  7 12  2  0  0  0  0
  7 21  1  0  0  0  0
  8  9  2  0  0  0  0
  8 24  1  0  0  0  0
  9 25  1  0  0  0  0
 10 26  1  0  0  0  0
 11 26  2  0  0  0  0
 12 27  1  0  0  0  0
 13 14  2  0  0  0  0
 13 28  1  0  0  0  0
 14 29  1  0  0  0  0
 15 23  1  0  0  0  0
 15 27  2  0  0  0  0
 16 24  2  0  0  0  0
 16 31  1  0  0  0  0
 17 29  2  0  0  0  0
 17 30  1  0  0  0  0
 18 32  1  0  0  0  0
 19 32  1  0  0  0  0
 19 33  2  0  0  0  0
 19 34  1  0  0  0  0
 20 22  2  0  0  0  0
 20 39  1  0  0  0  0
 21 23  2  0  0  0  0
 21 40  1  0  0  0  0
 22 48  1  0  0  0  0
 23 41  1  0  0  0  0
 24 57  1  0  0  0  0
 25 31  2  0  0  0  0
 25 70  1  0  0  0  0
 26 80  1  0  0  0  0
 27 81  1  0  0  0  0
 28 30  2  0  0  0  0
 28 80  1  0  0  0  0
 29 82  1  0  0  0  0
 30 83  1  0  0  0  0
 31 84  1  0  0  0  0
 32 64  2  0  0  0  0
 33 65  1  0  0  0  0
 33 68  1  0  0  0  0
 34 69  1  0  0  0  0
 34 75  2  0  0  0  0
 35 49  1  0  0  0  0
 35 71  1  0  0  0  0
 35 76  2  0  0  0  0
 36 61  1  0  0  0  0
 36 66  1  0  0  0  0
 36 77  2  0  0  0  0
 37 62  1  0  0  0  0
 37 72  1  0  0  0  0
 37 78  2  0  0  0  0
 38 67  1  0  0  0  0
 38 70  1  0  0  0  0
 38 79  2  0  0  0  0
 39 42  1  0  0  0  0
 40 49  1  0  0  0  0
 41 66  1  0  0  0  0
 42 44  1  0  0  0  0
 43 45  1  0  0  0  0
 43 46  1  0  0  0  0
 44 48  1  0  0  0  0
 45 50  1  0  0  0  0
 46 67  1  0  0  0  0
 47 50  1  0  0  0  0
 47 67  1  0  0  0  0
 48 71  1  0  0  0  0
 49 66  1  0  0  0  0
 50 65  1  0  0  0  0
 51 62  1  0  0  0  0
 52 63  1  0  0  0  0
 53 63  1  0  0  0  0
 54 63  1  0  0  0  0
 55 73  1  0  0  0  0
 56 74  1  0  0  0  0
 57 74  1  0  0  0  0
 58 59  1  0  0  0  0
 58 60  1  0  0  0  0
 59 74  1  0  0  0  0
 60 81  1  0  0  0  0
 61 63  1  0  0  0  0
 61 72  1  0  0  0  0
 62 73  1  0  0  0  0
 64 65  1  0  0  0  0
M  CHG  2  73   1  74   1
M  ISO  4  38 100  60 101  70 100  81 101
M  END
> <Batch ID>
0017

> <Smiles>
CNC(C)C(=O)NC(C(=O)N1Cc2cc([101O:1][101CH2:1]CCN(C)Cc3ccc([100NH:0][100C:0](=O)N4CCCC(n5nc(-c6ccc(Oc7ccc(F)cc7F)cc6)c(C(N)=O)c5N)C4)c(Cl)c3)ccc2CC1C(=O)NC1CCCc2ccccc21)C(C)(C)C

> <Shape>
0.276

> <Color>
0.062

> <Negative vol penalty>
0.000

$$$$

  -OEChem-04042321003D

 85 93  0     1  0  0  0  0  0999 V2000
  -23.1638   -7.7657   20.9426 C   0  0  0  0  0  0  0  0  0  0  0  0
  -22.9929   -8.6505   19.8827 C   0  0  0  0  0  0  0  0  0  0  0  0
  -22.9017  -27.8178   21.7550 C   0  0  0  0  0  0  0  0  0  0  0  0
  -23.9473  -29.9157   22.3403 C   0  0  0  0  0  0  0  0  0  0  0  0
  -26.8953  -22.2551   17.1197 C   0  0  0  0  0  0  0  0  0  0  0  0
  -28.5976  -22.5420   15.4295 C   0  0  0  0  0  0  0  0  0  0  0  0
  -23.0959   -8.2306   22.2553 C   0  0  0  0  0  0  0  0  0  0  0  0
  -22.7529  -10.0008   20.1350 C   0  0  0  0  0  0  0  0  0  0  0  0
  -24.6758  -14.7668   16.8044 C   0  0  0  0  0  0  0  0  0  0  0  0
  -26.0102  -21.7866   16.1488 C   0  0  0  0  0  0  0  0  0  0  0  0
  -27.7125  -22.0735   14.4585 C   0  0  0  0  0  0  0  0  0  0  0  0
  -21.8561  -28.0931   22.6362 C   0  0  0  0  0  0  0  0  0  0  0  0
  -22.9017  -30.1910   23.2215 C   0  0  0  0  0  0  0  0  0  0  0  0
  -24.0489  -15.5463   15.8332 C   0  0  0  0  0  0  0  0  0  0  0  0
  -19.0600  -29.9940   22.6676 C   0  0  0  0  0  0  0  0  0  0  0  0
  -17.7586  -29.7631   22.2217 C   0  0  0  0  0  0  0  0  0  0  0  0
  -23.4883  -17.1812   17.5160 C   0  0  0  0  0  0  0  0  0  0  0  0
  -17.4251  -28.1796   24.0157 C   0  0  0  0  0  0  0  0  0  0  0  0
  -23.9473  -28.7291   21.6071 C   0  0  0  0  0  0  0  0  0  0  0  0
  -28.1890  -22.6329   16.7601 C   0  0  0  0  0  0  0  0  0  0  0  0
  -25.1039  -28.7878   19.3341 C   0  0  0  0  0  0  0  0  0  0  0  0
  -22.8645   -9.5890   22.5237 C   0  0  0  0  0  0  0  0  0  0  0  0
  -24.7042  -15.1841   18.1428 C   0  0  0  0  0  0  0  0  0  0  0  0
  -22.6805  -10.4841   21.4526 C   0  0  0  0  0  0  0  0  0  0  0  0
  -24.1184  -16.4064   18.5018 C   0  0  0  0  0  0  0  0  0  0  0  0
  -26.4188  -21.6957   14.8182 C   0  0  0  0  0  0  0  0  0  0  0  0
  -21.8561  -29.2797   23.3695 C   0  0  0  0  0  0  0  0  0  0  0  0
  -23.4525  -16.7523   16.1894 C   0  0  0  0  0  0  0  0  0  0  0  0
  -19.5439  -29.3177   23.7875 C   0  0  0  0  0  0  0  0  0  0  0  0
  -16.9412  -28.8558   22.8958 C   0  0  0  0  0  0  0  0  0  0  0  0
  -18.7265  -28.4105   24.4615 C   0  0  0  0  0  0  0  0  0  0  0  0
  -25.0280  -28.4451   20.6973 C   0  0  0  0  0  0  0  0  0  0  0  0
  -26.3195  -28.2974   18.9239 C   0  0  0  0  0  0  0  0  0  0  0  0
  -29.1239  -23.1269   17.7838 C   0  0  0  0  0  0  0  0  0  0  0  0
  -24.1600  -29.4871   18.5120 C   0  0  0  0  0  0  0  0  0  0  0  0
  -23.5791  -14.0220   20.8791 C   0  0  0  0  0  0  0  0  0  0  0  0
  -25.2289  -16.5037   22.1604 C   0  0  0  0  0  0  0  0  0  0  0  0
  -26.6009  -19.5991   21.7332 C   0  0  0  0  0  0  0  0  0  0  0  0
  -29.7505  -23.7144   19.9068 C   0  0  0  0  0  0  0  0  0  0  0  0
  -22.7525  -10.0364   23.9596 C   0  0  0  0  0  0  0  0  0  0  0  0
  -25.4076  -14.3447   19.1738 C   0  0  0  0  0  0  0  0  0  0  0  0
  -24.1390  -16.9091   19.9214 C   0  0  0  0  0  0  0  0  0  0  0  0
  -22.8673  -11.5482   24.1373 C   0  0  0  0  0  0  0  0  0  0  0  0
  -30.5120  -27.0045   21.1848 C   0  0  0  0  0  0  0  0  0  0  0  0
  -21.9943  -12.2733   23.1180 C   0  0  0  0  0  0  0  0  0  0  0  0
  -29.1704  -27.7311   21.0923 C   0  0  0  0  0  0  0  0  0  0  0  0
  -30.3267  -25.5272   21.5170 C   0  0  0  0  0  0  0  0  0  0  0  0
  -28.0760  -25.5306   20.4746 C   0  0  0  0  0  0  0  0  0  0  0  0
  -22.4430  -11.9604   21.6854 C   0  0  1  0  0  0  0  0  0  0  0  0
  -24.9285  -14.6191   20.5959 C   0  0  1  0  0  0  0  0  0  0  0  0
  -28.2222  -27.0183   20.1117 C   0  0  1  0  0  0  0  0  0  0  0  0
  -27.8511  -21.3878   22.9721 C   0  0  0  0  0  0  0  0  0  0  0  0
  -22.6494  -17.3306   23.5647 C   0  0  0  0  0  0  0  0  0  0  0  0
  -23.6805  -19.5724   23.9880 C   0  0  0  0  0  0  0  0  0  0  0  0
  -24.7096  -17.5229   24.9693 C   0  0  0  0  0  0  0  0  0  0  0  0
  -28.9246  -19.3992   19.9112 C   0  0  0  0  0  0  0  0  0  0  0  0
  -26.4647  -18.9638   13.2786 C   0  0  0  0  0  0  0  0  0  0  0  0
  -25.4668  -21.1907   13.7744 C   0  0  0  0  0  0  0  0  0  0  0  0
  -22.8109  -19.6188   14.0922 C   0  0  0  0  0  0  0  0  0  0  0  0
  -23.9939  -19.2658   13.2032 C   0  0  0  0  0  0  0  0  0  0  0  0
  -22.8361  -18.9268   15.4496 C   0  0  0  0  0  0  0  0  0  1  0  0
  -24.9129  -17.9438   22.4847 C   0  0  1  0  0  0  0  0  0  0  0  0
  -27.9680  -20.1532   22.0918 C   0  0  2  0  0  0  0  0  0  0  0  0
  -23.9858  -18.0823   23.7252 C   0  0  0  0  0  0  0  0  0  0  0  0
  -26.1092  -27.7875   21.1247 N   0  0  0  0  0  0  0  0  0  0  0  0
  -28.7986  -23.2314   19.0327 N   0  0  0  0  0  0  0  0  0  0  0  0
  -26.8760  -27.7131   20.0235 N   0  0  0  0  0  0  0  0  0  0  0  0
  -24.8336  -16.0496   20.8942 N   0  0  0  0  0  0  0  0  0  0  0  0
  -29.3932  -24.8911   20.5871 N   0  0  0  0  0  0  0  0  0  0  0  0
  -26.9559  -28.3131   17.7334 N   0  0  0  0  0  0  0  0  0  0  0  0
  -22.9610  -29.9218   19.0932 N   0  0  0  0  0  0  0  0  0  0  0  0
  -23.6259  -12.7231   21.3484 N   0  0  0  0  0  0  0  0  0  0  0  0
  -26.1969  -18.6231   22.6194 N   0  0  0  0  0  0  0  0  0  0  0  0
  -28.7162  -20.5250   20.8577 N   0  3  0  0  0  0  0  0  0  0  0  0
  -25.2652  -19.6954   13.8314 N   0  3  1  0  0  0  0  0  0  0  0  0
  -24.3664  -29.7053   17.2941 O   0  0  0  0  0  0  0  0  0  0  0  0
  -22.5702  -14.6907   20.6876 O   0  0  0  0  0  0  0  0  0  0  0  0
  -25.8117  -15.8093   22.9970 O   0  0  0  0  0  0  0  0  0  0  0  0
  -25.9544  -19.9952   20.7659 O   0  0  0  0  0  0  0  0  0  0  0  0
  -30.8489  -23.1768   20.0626 O   0  0  0  0  0  0  0  0  0  0  0  0
  -20.8358  -29.5487   24.2293 O   0  0  0  0  0  0  0  0  0  0  0  0
  -22.8394  -17.5148   15.2436 O   0  0  0  0  0  0  0  0  0  1  0  0
  -15.6910  -28.6353   22.4685 F   0  0  0  0  0  0  0  0  0  0  0  0
  -19.1854  -27.7587   25.5387 F   0  0  0  0  0  0  0  0  0  0  0  0
  -30.3590  -23.4632   17.3808 F   0  0  0  0  0  0  0  0  0  0  0  0
  1  2  1  0  0  0  0
  1  7  2  0  0  0  0
  2  8  2  0  0  0  0
  3 12  2  0  0  0  0
  3 19  1  0  0  0  0
  4 13  1  0  0  0  0
  4 19  2  0  0  0  0
  5 10  2  0  0  0  0
  5 20  1  0  0  0  0
  6 11  1  0  0  0  0
  6 20  2  0  0  0  0
  7 22  1  0  0  0  0
  8 24  1  0  0  0  0
  9 14  2  0  0  0  0
  9 23  1  0  0  0  0
 10 26  1  0  0  0  0
 11 26  2  0  0  0  0
 12 27  1  0  0  0  0
 13 27  2  0  0  0  0
 14 28  1  0  0  0  0
 15 16  2  0  0  0  0
 15 29  1  0  0  0  0
 16 30  1  0  0  0  0
 17 25  1  0  0  0  0
 17 28  2  0  0  0  0
 18 30  2  0  0  0  0
 18 31  1  0  0  0  0
 19 32  1  0  0  0  0
 20 34  1  0  0  0  0
 21 32  1  0  0  0  0
 21 33  2  0  0  0  0
 21 35  1  0  0  0  0
 22 24  2  0  0  0  0
 22 40  1  0  0  0  0
 23 25  2  0  0  0  0
 23 41  1  0  0  0  0
 24 49  1  0  0  0  0
 25 42  1  0  0  0  0
 26 58  1  0  0  0  0
 27 81  1  0  0  0  0
 28 82  1  0  0  0  0
 29 31  2  0  0  0  0
 29 81  1  0  0  0  0
 30 83  1  0  0  0  0
 31 84  1  0  0  0  0
 32 65  2  0  0  0  0
 33 67  1  0  0  0  0
 33 70  1  0  0  0  0
 34 66  2  0  0  0  0
 34 85  1  0  0  0  0
 35 71  1  0  0  0  0
 35 76  2  0  0  0  0
 36 50  1  0  0  0  0
 36 72  1  0  0  0  0
 36 77  2  0  0  0  0
 37 62  1  0  0  0  0
 37 68  1  0  0  0  0
 37 78  2  0  0  0  0
 38 63  1  0  0  0  0
 38 73  1  0  0  0  0
 38 79  2  0  0  0  0
 39 66  1  0  0  0  0
 39 69  1  0  0  0  0
 39 80  2  0  0  0  0
 40 43  1  0  0  0  0
 41 50  1  0  0  0  0
 42 68  1  0  0  0  0
 43 45  1  0  0  0  0
 44 46  1  0  0  0  0
 44 47  1  0  0  0  0
 45 49  1  0  0  0  0
 46 51  1  0  0  0  0
 47 69  1  0  0  0  0
 48 51  1  0  0  0  0
 48 69  1  0  0  0  0
 49 72  1  0  0  0  0
 50 68  1  0  0  0  0
 51 67  1  0  0  0  0
 52 63  1  0  0  0  0
 53 64  1  0  0  0  0
 54 64  1  0  0  0  0
 55 64  1  0  0  0  0
 56 74  1  0  0  0  0
 57 75  1  0  0  0  0
 58 75  1  0  0  0  0
 59 60  1  0  0  0  0
 59 61  1  0  0  0  0
 60 75  1  0  0  0  0
 61 82  1  0  0  0  0
 62 64  1  0  0  0  0
 62 73  1  0  0  0  0
 63 74  1  0  0  0  0
 65 67  1  0  0  0  0
M  CHG  2  74   1  75   1
M  ISO  4  39 100  61 101  66 100  82 101
M  END
> <Batch ID>
0017

> <Smiles>
CNC(C)C(=O)NC(C(=O)N1Cc2cc([101O:1][101CH2:1]CCN(C)Cc3ccc(C(F)=[100N:0][100C:0](=O)N4CCCC(n5nc(-c6ccc(Oc7ccc(F)cc7F)cc6)c(C(N)=O)c5N)C4)cc3)ccc2CC1C(=O)NC1CCCc2ccccc21)C(C)(C)C

> <Shape>
0.226

> <Color>
0.087

> <Negative vol penalty>
0.000

$$$$

  -OEChem-04042321003D

 85 93  0     1  0  0  0  0  0999 V2000
  -17.6342  -31.1545   23.3796 C   0  0  0  0  0  0  0  0  0  0  0  0
  -18.9893  -30.9041   23.5701 C   0  0  0  0  0  0  0  0  0  0  0  0
  -23.3709   -9.5851   19.9889 C   0  0  0  0  0  0  0  0  0  0  0  0
  -23.7751   -9.9637   22.3406 C   0  0  0  0  0  0  0  0  0  0  0  0
  -30.7058  -19.5487   20.4630 C   0  0  0  0  0  0  0  0  0  0  0  0
  -28.8175  -19.8108   21.9472 C   0  0  0  0  0  0  0  0  0  0  0  0
  -16.7032  -30.1366   23.5820 C   0  0  0  0  0  0  0  0  0  0  0  0
  -19.4141  -29.6359   23.9643 C   0  0  0  0  0  0  0  0  0  0  0  0
  -24.5977  -26.8156   22.3265 C   0  0  0  0  0  0  0  0  0  0  0  0
  -30.6453  -18.1652   20.6304 C   0  0  0  0  0  0  0  0  0  0  0  0
  -28.7570  -18.4273   22.1146 C   0  0  0  0  0  0  0  0  0  0  0  0
  -22.6866   -8.4091   20.2959 C   0  0  0  0  0  0  0  0  0  0  0  0
  -23.0906   -8.7877   22.6476 C   0  0  0  0  0  0  0  0  0  0  0  0
  -25.8288  -26.6710   22.9646 C   0  0  0  0  0  0  0  0  0  0  0  0
  -21.1384   -6.0726   24.0741 C   0  0  0  0  0  0  0  0  0  0  0  0
  -20.2202   -6.1107   25.1234 C   0  0  0  0  0  0  0  0  0  0  0  0
  -25.1354  -24.5173   23.8013 C   0  0  0  0  0  0  0  0  0  0  0  0
  -18.9579   -7.8088   23.9572 C   0  0  0  0  0  0  0  0  0  0  0  0
  -23.9153  -10.3624   21.0113 C   0  0  0  0  0  0  0  0  0  0  0  0
  -29.7919  -20.3715   21.1214 C   0  0  0  0  0  0  0  0  0  0  0  0
  -24.0809  -12.8712   20.5799 C   0  0  0  0  0  0  0  0  0  0  0  0
  -17.1176  -28.8526   23.9695 C   0  0  0  0  0  0  0  0  0  0  0  0
  -23.6204  -25.8153   22.4302 C   0  0  0  0  0  0  0  0  0  0  0  0
  -18.4877  -28.6002   24.1734 C   0  0  0  0  0  0  0  0  0  0  0  0
  -23.8937  -24.6505   23.1614 C   0  0  0  0  0  0  0  0  0  0  0  0
  -29.6709  -17.6046   21.4562 C   0  0  0  0  0  0  0  0  0  0  0  0
  -22.5464   -8.0104   21.6251 C   0  0  0  0  0  0  0  0  0  0  0  0
  -26.0968  -25.5230   23.7045 C   0  0  0  0  0  0  0  0  0  0  0  0
  -20.9664   -6.9026   22.9663 C   0  0  0  0  0  0  0  0  0  0  0  0
  -19.1299   -6.9788   25.0650 C   0  0  0  0  0  0  0  0  0  0  0  0
  -19.8761   -7.7707   22.9078 C   0  0  0  0  0  0  0  0  0  0  0  0
  -24.6228  -11.5770   20.6949 C   0  0  0  0  0  0  0  0  0  0  0  0
  -25.1559  -13.6671   20.2678 C   0  0  0  0  0  0  0  0  0  0  0  0
  -29.8561  -21.8412   20.9438 C   0  0  0  0  0  0  0  0  0  0  0  0
  -22.7269  -13.3143   20.7407 C   0  0  0  0  0  0  0  0  0  0  0  0
  -20.6716  -25.6737   23.6084 C   0  0  0  0  0  0  0  0  0  0  0  0
  -20.7149  -22.7005   22.3120 C   0  0  0  0  0  0  0  0  0  0  0  0
  -22.5549  -20.0332   21.2413 C   0  0  0  0  0  0  0  0  0  0  0  0
  -30.1929  -23.9973   22.2300 C   0  0  0  0  0  0  0  0  0  0  0  0
  -30.4399  -15.2409   21.0462 C   0  0  0  0  0  0  0  0  0  0  0  0
  -16.0703  -27.7971   24.2221 C   0  0  0  0  0  0  0  0  0  0  0  0
  -22.3075  -25.9745   21.7138 C   0  0  0  0  0  0  0  0  0  0  0  0
  -22.8859  -23.5382   23.2869 C   0  0  0  0  0  0  0  0  0  0  0  0
  -16.6346  -26.3797   24.2759 C   0  0  0  0  0  0  0  0  0  0  0  0
  -29.8780  -12.4436   18.9163 C   0  0  0  0  0  0  0  0  0  0  0  0
  -17.8843  -26.3354   25.1495 C   0  0  0  0  0  0  0  0  0  0  0  0
  -28.4161  -12.0752   19.1797 C   0  0  0  0  0  0  0  0  0  0  0  0
  -30.5825  -12.9132   20.1878 C   0  0  0  0  0  0  0  0  0  0  0  0
  -28.4408  -13.6275   21.1739 C   0  0  0  0  0  0  0  0  0  0  0  0
  -18.9897  -27.2307   24.5768 C   0  0  1  0  0  0  0  0  0  0  0  0
  -21.1931  -25.1214   22.3120 C   0  0  1  0  0  0  0  0  0  0  0  0
  -27.6717  -13.2103   19.9097 C   0  0  2  0  0  0  0  0  0  0  0  0
  -30.7266  -24.8779   21.1416 C   0  0  0  0  0  0  0  0  0  0  0  0
  -22.3084  -17.7337   20.2672 C   0  0  0  0  0  0  0  0  0  0  0  0
  -19.8991  -21.6306   25.0505 C   0  0  0  0  0  0  0  0  0  0  0  0
  -20.5875  -19.3479   24.2865 C   0  0  0  0  0  0  0  0  0  0  0  0
  -18.7377  -20.5469   23.1189 C   0  0  0  0  0  0  0  0  0  0  0  0
  -24.0393  -20.7848   18.7937 C   0  0  0  0  0  0  0  0  0  0  0  0
  -29.3056  -24.0704   24.5636 C   0  0  0  0  0  0  0  0  0  0  0  0
  -27.7902  -24.0503   24.4915 C   0  0  0  0  0  0  0  0  0  1  0  0
  -21.1201  -21.3291   22.7957 C   0  0  1  0  0  0  0  0  0  0  0  0
  -22.4917  -19.2130   19.9655 C   0  0  2  0  0  0  0  0  0  0  0  0
  -20.1046  -20.7353   23.8123 C   0  0  0  0  0  0  0  0  0  0  0  0
  -25.9398  -11.5479   20.4738 N   0  0  0  0  0  0  0  0  0  0  0  0
  -26.2343  -12.8337   20.2166 N   0  0  0  0  0  0  0  0  0  0  0  0
  -21.6145  -23.7437   22.5735 N   0  0  0  0  0  0  0  0  0  0  0  0
  -29.8224  -13.9921   20.8228 N   0  0  0  0  0  0  0  0  0  0  0  0
  -25.2745  -14.9915   20.0350 N   0  0  0  0  0  0  0  0  0  0  0  0
  -29.7039  -22.2870   19.6963 N   0  0  0  0  0  0  0  0  0  0  0  0
  -21.7468  -12.3650   21.0612 N   0  0  0  0  0  0  0  0  0  0  0  0
  -29.6094  -16.1992   21.6263 N   0  0  0  0  0  0  0  0  0  0  0  0
  -19.6390  -26.5798   23.4592 N   0  0  0  0  0  0  0  0  0  0  0  0
  -21.3141  -20.5155   21.6004 N   0  0  0  0  0  0  0  0  0  0  0  0
  -30.0752  -22.5704   22.0495 N   0  3  0  0  0  0  0  0  0  0  0  0
  -29.8474  -24.6162   23.3141 N   0  3  0  0  0  0  0  0  0  0  0  0
  -23.7467  -19.3803   19.1794 N   0  3  0  0  0  0  0  0  0  0  0  0
  -22.3931  -14.5138   20.5882 O   0  0  0  0  0  0  0  0  0  0  0  0
  -21.1683  -25.3040   24.6659 O   0  0  0  0  0  0  0  0  0  0  0  0
  -19.6430  -22.8398   21.7175 O   0  0  0  0  0  0  0  0  0  0  0  0
  -23.5999  -20.2238   21.8596 O   0  0  0  0  0  0  0  0  0  0  0  0
  -31.6105  -15.4535   20.7201 O   0  0  0  0  0  0  0  0  0  0  0  0
  -21.8784   -6.8630   21.9250 O   0  0  0  0  0  0  0  0  0  0  0  0
  -27.2974  -25.3796   24.3289 O   0  0  0  0  0  0  0  0  0  1  0  0
  -18.2474   -7.0142   26.0720 F   0  0  0  0  0  0  0  0  0  0  0  0
  -19.7050   -8.5696   21.8457 F   0  0  0  0  0  0  0  0  0  0  0  0
  1  2  1  0  0  0  0
  1  7  2  0  0  0  0
  2  8  2  0  0  0  0
  3 12  2  0  0  0  0
  3 19  1  0  0  0  0
  4 13  1  0  0  0  0
  4 19  2  0  0  0  0
  5 10  2  0  0  0  0
  5 20  1  0  0  0  0
  6 11  1  0  0  0  0
  6 20  2  0  0  0  0
  7 22  1  0  0  0  0
  8 24  1  0  0  0  0
  9 14  2  0  0  0  0
  9 23  1  0  0  0  0
 10 26  1  0  0  0  0
 11 26  2  0  0  0  0
 12 27  1  0  0  0  0
 13 27  2  0  0  0  0
 14 28  1  0  0  0  0
 15 16  2  0  0  0  0
 15 29  1  0  0  0  0
 16 30  1  0  0  0  0
 17 25  1  0  0  0  0
 17 28  2  0  0  0  0
 18 30  2  0  0  0  0
 18 31  1  0  0  0  0
 19 32  1  0  0  0  0
 20 34  1  0  0  0  0
 21 32  1  0  0  0  0
 21 33  2  0  0  0  0
 21 35  1  0  0  0  0
 22 24  2  0  0  0  0
 22 41  1  0  0  0  0
 23 25  2  0  0  0  0
 23 42  1  0  0  0  0
 24 50  1  0  0  0  0
 25 43  1  0  0  0  0
 26 71  1  0  0  0  0
 27 82  1  0  0  0  0
 28 83  1  0  0  0  0
 29 31  2  0  0  0  0
 29 82  1  0  0  0  0
 30 84  1  0  0  0  0
 31 85  1  0  0  0  0
 32 64  2  0  0  0  0
 33 65  1  0  0  0  0
 33 68  1  0  0  0  0
 34 69  1  0  0  0  0
 34 74  2  0  0  0  0
 35 70  1  0  0  0  0
 35 77  2  0  0  0  0
 36 51  1  0  0  0  0
 36 72  1  0  0  0  0
 36 78  2  0  0  0  0
 37 61  1  0  0  0  0
 37 66  1  0  0  0  0
 37 79  2  0  0  0  0
 38 62  1  0  0  0  0
 38 73  1  0  0  0  0
 38 80  2  0  0  0  0
 39 53  1  0  0  0  0
 39 74  1  0  0  0  0
 39 75  2  0  0  0  0
 40 67  1  0  0  0  0
 40 71  1  0  0  0  0
 40 81  2  0  0  0  0
 41 44  1  0  0  0  0
 42 51  1  0  0  0  0
 43 66  1  0  0  0  0
 44 46  1  0  0  0  0
 45 47  1  0  0  0  0
 45 48  1  0  0  0  0
 46 50  1  0  0  0  0
 47 52  1  0  0  0  0
 48 67  1  0  0  0  0
 49 52  1  0  0  0  0
 49 67  1  0  0  0  0
 50 72  1  0  0  0  0
 51 66  1  0  0  0  0
 52 65  1  0  0  0  0
 54 62  1  0  0  0  0
 55 63  1  0  0  0  0
 56 63  1  0  0  0  0
 57 63  1  0  0  0  0
 58 76  1  0  0  0  0
 59 60  1  0  0  0  0
 59 75  1  0  0  0  0
 60 83  1  0  0  0  0
 61 63  1  0  0  0  0
 61 73  1  0  0  0  0
 62 76  1  0  0  0  0
 64 65  1  0  0  0  0
M  CHG  3  74   1  75   1  76   1
M  ISO  4  40 100  60 101  71 100  83 101
M  END
> <Batch ID>
0017

> <Smiles>
CNC(C)C(=O)NC(C(=O)N1Cc2cc([101O:1][101CH2:1]CNC(C)=NC(=N)c3ccc([100NH:0][100C:0](=O)N4CCCC(n5nc(-c6ccc(Oc7ccc(F)cc7F)cc6)c(C(N)=O)c5N)C4)cc3)ccc2CC1C(=O)NC1CCCc2ccccc21)C(C)(C)C

> <Shape>
0.240

> <Color>
0.165

> <Negative vol penalty>
0.000

$$$$

  -OEChem-04042321003D

 87 96  0     1  0  0  0  0  0999 V2000
  -16.8466  -29.1209   24.3760 C   0  0  0  0  0  0  0  0  0  0  0  0
  -17.2563  -28.1354   23.4835 C   0  0  0  0  0  0  0  0  0  0  0  0
  -24.9135  -13.0498   19.4556 C   0  0  0  0  0  0  0  0  0  0  0  0
  -26.2239  -13.2674   21.4736 C   0  0  0  0  0  0  0  0  0  0  0  0
  -26.6856  -20.0056   16.0631 C   0  0  0  0  0  0  0  0  0  0  0  0
  -17.5217  -30.3398   24.4249 C   0  0  0  0  0  0  0  0  0  0  0  0
  -18.3408  -28.3687   22.6387 C   0  0  0  0  0  0  0  0  0  0  0  0
  -22.4842  -24.2733   20.7504 C   0  0  0  0  0  0  0  0  0  0  0  0
  -27.6876  -19.2811   15.4171 C   0  0  0  0  0  0  0  0  0  0  0  0
  -24.4615  -11.8016   19.8836 C   0  0  0  0  0  0  0  0  0  0  0  0
  -25.7720  -12.0192   21.9017 C   0  0  0  0  0  0  0  0  0  0  0  0
  -22.6074  -23.5387   19.5718 C   0  0  0  0  0  0  0  0  0  0  0  0
  -22.1596  -10.5928   22.0453 C   0  0  0  0  0  0  0  0  0  0  0  0
  -20.7986  -10.3165   21.9151 C   0  0  0  0  0  0  0  0  0  0  0  0
  -26.0150  -17.8716   14.3972 C   0  0  0  0  0  0  0  0  0  0  0  0
  -24.1220  -25.2019   18.7006 C   0  0  0  0  0  0  0  0  0  0  0  0
  -21.3162   -8.4411   20.4826 C   0  0  0  0  0  0  0  0  0  0  0  0
  -25.7947  -13.7827   20.2506 C   0  0  0  0  0  0  0  0  0  0  0  0
  -25.3344  -19.6739   15.8844 C   0  0  0  0  0  0  0  0  0  0  0  0
  -25.6685  -16.3234   20.0596 C   0  0  0  0  0  0  0  0  0  0  0  0
  -18.6211  -30.5845   23.5870 C   0  0  0  0  0  0  0  0  0  0  0  0
  -23.1716  -25.4853   20.9089 C   0  0  0  0  0  0  0  0  0  0  0  0
  -19.0305  -29.5925   22.6755 C   0  0  0  0  0  0  0  0  0  0  0  0
  -24.9998  -18.5912   15.0421 C   0  0  0  0  0  0  0  0  0  0  0  0
  -24.0079  -25.9487   19.8832 C   0  0  0  0  0  0  0  0  0  0  0  0
  -27.3527  -18.2161   14.5853 C   0  0  0  0  0  0  0  0  0  0  0  0
  -24.8908  -11.2862   21.1067 C   0  0  0  0  0  0  0  0  0  0  0  0
  -23.4242  -24.0044   18.5456 C   0  0  0  0  0  0  0  0  0  0  0  0
  -23.0989   -9.7933   21.3940 C   0  0  0  0  0  0  0  0  0  0  0  0
  -20.3769   -9.2407   21.1338 C   0  0  0  0  0  0  0  0  0  0  0  0
  -22.6772   -8.7174   20.6127 C   0  0  0  0  0  0  0  0  0  0  0  0
  -26.2623  -15.0720   19.8087 C   0  0  0  0  0  0  0  0  0  0  0  0
  -26.4902  -17.2259   19.4297 C   0  0  0  0  0  0  0  0  0  0  0  0
  -24.2755  -20.4523   16.5739 C   0  0  0  0  0  0  0  0  0  0  0  0
  -24.4804  -16.6417   20.7963 C   0  0  0  0  0  0  0  0  0  0  0  0
  -22.3088  -28.5115   21.3575 C   0  0  0  0  0  0  0  0  0  0  0  0
  -25.5025  -28.9632   21.7018 C   0  0  0  0  0  0  0  0  0  0  0  0
  -28.6699  -27.8795   21.0387 C   0  0  0  0  0  0  0  0  0  0  0  0
  -29.6826  -17.2970   14.4511 C   0  0  0  0  0  0  0  0  0  0  0  0
  -19.2899  -31.9352   23.6428 C   0  0  0  0  0  0  0  0  0  0  0  0
  -23.0490  -26.2524   22.1968 C   0  0  0  0  0  0  0  0  0  0  0  0
  -23.5545  -18.2132   14.8391 C   0  0  0  0  0  0  0  0  0  0  0  0
  -24.7831  -27.2336   20.0117 C   0  0  0  0  0  0  0  0  0  0  0  0
  -20.6632  -31.9628   22.9766 C   0  0  0  0  0  0  0  0  0  0  0  0
  -22.7624  -19.2651   14.0576 C   0  0  0  0  0  0  0  0  0  0  0  0
  -31.1621  -17.2158   17.8419 C   0  0  0  0  0  0  0  0  0  0  0  0
  -20.6107  -31.2740   21.6166 C   0  0  0  0  0  0  0  0  0  0  0  0
  -30.0140  -16.6885   18.7005 C   0  0  0  0  0  0  0  0  0  0  0  0
  -23.0810  -20.7128   14.4191 C   0  0  0  0  0  0  0  0  0  0  0  0
  -31.0771  -16.7048   16.4068 C   0  0  0  0  0  0  0  0  0  0  0  0
  -28.6181  -16.4705   16.6063 C   0  0  0  0  0  0  0  0  0  0  0  0
  -20.2179  -29.7987   21.7603 C   0  0  1  0  0  0  0  0  0  0  0  0
  -23.3923  -27.7312   22.0465 C   0  0  1  0  0  0  0  0  0  0  0  0
  -28.6586  -17.0033   18.0463 C   0  0  1  0  0  0  0  0  0  0  0  0
  -31.0769  -28.4778   21.4203 C   0  0  0  0  0  0  0  0  0  0  0  0
  -22.4751  -23.6961   15.2685 C   0  0  0  0  0  0  0  0  0  0  0  0
  -25.2991  -31.1331   19.5662 C   0  0  0  0  0  0  0  0  0  0  0  0
  -27.7872  -31.0186   19.3122 C   0  0  0  0  0  0  0  0  0  0  0  0
  -26.7881  -31.7022   21.4933 C   0  0  0  0  0  0  0  0  0  0  0  0
  -28.1763  -17.0963   12.5217 C   0  0  0  0  0  0  0  0  0  0  0  0
  -29.1789  -25.3701   22.5228 C   0  0  0  0  0  0  0  0  0  0  0  0
  -22.0846  -21.5596   16.5892 C   0  0  0  0  0  0  0  0  0  0  0  0
  -26.6436  -29.2848   20.7672 C   0  0  1  0  0  0  0  0  0  0  0  0
  -29.8799  -27.6946   21.9366 C   0  0  2  0  0  0  0  0  0  0  0  0
  -22.3511  -23.0586   16.6456 C   0  0  1  0  0  0  0  0  0  1  0  0
  -26.6135  -30.7614   20.2812 C   0  0  0  0  0  0  0  0  0  0  0  0
  -27.3753  -15.1669   19.0763 N   0  0  0  0  0  0  0  0  0  0  0  0
  -27.4873  -16.4888   18.8616 N   0  0  0  0  0  0  0  0  0  0  0  0
  -23.1883  -20.8754   15.8884 N   0  0  0  0  0  0  0  0  0  0  0  0
  -24.6252  -27.9509   21.2877 N   0  0  0  0  0  0  0  0  0  0  0  0
  -29.7614  -16.9580   15.8175 N   0  0  0  0  0  0  0  0  0  0  0  0
  -26.4499  -18.5701   19.3117 N   0  0  0  0  0  0  0  0  0  0  0  0
  -23.7550  -15.5939   21.3795 N   0  0  0  0  0  0  0  0  0  0  0  0
  -21.3482  -29.0165   22.2130 N   0  0  0  0  0  0  0  0  0  0  0  0
  -27.8656  -28.9123   21.4718 N   0  0  0  0  0  0  0  0  0  0  0  0
  -28.3908  -17.4690   13.9183 N   0  0  0  0  0  0  0  0  0  0  0  0
  -24.4466  -20.6626   17.8816 N   0  3  0  0  0  0  0  0  0  0  0  0
  -30.2562  -26.2545   22.0087 N   0  3  0  0  0  0  0  0  0  0  0  0
  -24.0650  -17.8189   20.9195 O   0  0  0  0  0  0  0  0  0  0  0  0
  -22.3425  -28.6466   20.1400 O   0  0  0  0  0  0  0  0  0  0  0  0
  -25.3975  -29.5823   22.7635 O   0  0  0  0  0  0  0  0  0  0  0  0
  -28.4612  -27.1802   20.0498 O   0  0  0  0  0  0  0  0  0  0  0  0
  -30.6909  -17.3859   13.7398 O   0  0  0  0  0  0  0  0  0  0  0  0
  -24.4498  -10.0683   21.5248 O   0  0  0  0  0  0  0  0  0  0  0  0
  -23.5464  -23.2854   17.3869 O   0  0  0  0  0  0  0  0  0  1  0  0
  -19.0699   -8.9746   21.0102 F   0  0  0  0  0  0  0  0  0  0  0  0
  -23.5750   -7.9451   19.9856 F   0  0  0  0  0  0  0  0  0  0  0  0
  1  2  1  0  0  0  0
  1  6  2  0  0  0  0
  2  7  2  0  0  0  0
  3 10  2  0  0  0  0
  3 18  1  0  0  0  0
  4 11  1  0  0  0  0
  4 18  2  0  0  0  0
  5  9  2  0  0  0  0
  5 19  1  0  0  0  0
  6 21  1  0  0  0  0
  7 23  1  0  0  0  0
  8 12  2  0  0  0  0
  8 22  1  0  0  0  0
  9 26  1  0  0  0  0
 10 27  1  0  0  0  0
 11 27  2  0  0  0  0
 12 28  1  0  0  0  0
 13 14  2  0  0  0  0
 13 29  1  0  0  0  0
 14 30  1  0  0  0  0
 15 24  1  0  0  0  0
 15 26  2  0  0  0  0
 16 25  1  0  0  0  0
 16 28  2  0  0  0  0
 17 30  2  0  0  0  0
 17 31  1  0  0  0  0
 18 32  1  0  0  0  0
 19 24  2  0  0  0  0
 19 34  1  0  0  0  0
 20 32  1  0  0  0  0
 20 33  2  0  0  0  0
 20 35  1  0  0  0  0
 21 23  2  0  0  0  0
 21 40  1  0  0  0  0
 22 25  2  0  0  0  0
 22 41  1  0  0  0  0
 23 52  1  0  0  0  0
 24 42  1  0  0  0  0
 25 43  1  0  0  0  0
 26 76  1  0  0  0  0
 27 84  1  0  0  0  0
 28 85  1  0  0  0  0
 29 31  2  0  0  0  0
 29 84  1  0  0  0  0
 30 86  1  0  0  0  0
 31 87  1  0  0  0  0
 32 67  2  0  0  0  0
 33 68  1  0  0  0  0
 33 72  1  0  0  0  0
 34 69  1  0  0  0  0
 34 77  2  0  0  0  0
 35 73  1  0  0  0  0
 35 79  2  0  0  0  0
 36 53  1  0  0  0  0
 36 74  1  0  0  0  0
 36 80  2  0  0  0  0
 37 63  1  0  0  0  0
 37 70  1  0  0  0  0
 37 81  2  0  0  0  0
 38 64  1  0  0  0  0
 38 75  1  0  0  0  0
 38 82  2  0  0  0  0
 39 71  1  0  0  0  0
 39 76  1  0  0  0  0
 39 83  2  0  0  0  0
 40 44  1  0  0  0  0
 41 53  1  0  0  0  0
 42 45  1  0  0  0  0
 43 70  1  0  0  0  0
 44 47  1  0  0  0  0
 45 49  1  0  0  0  0
 46 48  1  0  0  0  0
 46 50  1  0  0  0  0
 47 52  1  0  0  0  0
 48 54  1  0  0  0  0
 49 69  1  0  0  0  0
 50 71  1  0  0  0  0
 51 54  1  0  0  0  0
 51 71  1  0  0  0  0
 52 74  1  0  0  0  0
 53 70  1  0  0  0  0
 54 68  1  0  0  0  0
 55 64  1  0  0  0  0
 56 65  1  0  0  0  0
 57 66  1  0  0  0  0
 58 66  1  0  0  0  0
 59 66  1  0  0  0  0
 60 76  1  0  0  0  0
 61 78  1  0  0  0  0
 62 65  1  0  0  0  0
 62 69  1  0  0  0  0
 63 66  1  0  0  0  0
 63 75  1  0  0  0  0
 64 78  1  0  0  0  0
 65 85  1  0  0  0  0
 67 68  1  0  0  0  0
M  CHG  2  77   1  78   1
M  ISO  4  39 100  65 101  76 100  85 101
M  END
> <Batch ID>
0017

> <Smiles>
CNC(C)C(=O)NC(C(=O)N1Cc2cc([101O:1][101CH:1](C)CN3CCCc4cc([100N:0](C)[100C:0](=O)N5CCCC(n6nc(-c7ccc(Oc8ccc(F)cc8F)cc7)c(C(N)=O)c6N)C5)ccc4C3=N)ccc2CC1C(=O)NC1CCCc2ccccc21)C(C)(C)C

> <Shape>
0.188

> <Color>
0.073

> <Negative vol penalty>
0.000

$$$$

  -OEChem-04042321003D

 84 92  0     1  0  0  0  0  0999 V2000
  -31.3851  -25.2396   17.9816 C   0  0  0  0  0  0  0  0  0  0  0  0
  -30.0150  -25.0326   18.1052 C   0  0  0  0  0  0  0  0  0  0  0  0
  -27.6061  -14.9481   19.7239 C   0  0  0  0  0  0  0  0  0  0  0  0
  -25.2245  -15.2319   19.4332 C   0  0  0  0  0  0  0  0  0  0  0  0
  -32.0725  -25.9529   18.9628 C   0  0  0  0  0  0  0  0  0  0  0  0
  -29.3316  -25.5380   19.2106 C   0  0  0  0  0  0  0  0  0  0  0  0
  -23.6015  -27.6965   19.3253 C   0  0  0  0  0  0  0  0  0  0  0  0
  -21.2718  -23.8504   23.6345 C   0  0  0  0  0  0  0  0  0  0  0  0
  -22.5274  -23.5294   23.1187 C   0  0  0  0  0  0  0  0  0  0  0  0
  -27.4015  -13.6224   20.1062 C   0  0  0  0  0  0  0  0  0  0  0  0
  -25.0199  -13.9061   19.8155 C   0  0  0  0  0  0  0  0  0  0  0  0
  -22.3899  -27.1212   19.7058 C   0  0  0  0  0  0  0  0  0  0  0  0
  -24.9111  -12.1308   22.6908 C   0  0  0  0  0  0  0  0  0  0  0  0
  -23.8844  -11.8690   23.5980 C   0  0  0  0  0  0  0  0  0  0  0  0
  -22.6134  -28.1123   21.8938 C   0  0  0  0  0  0  0  0  0  0  0  0
  -20.2238  -22.5222   21.9098 C   0  0  0  0  0  0  0  0  0  0  0  0
  -22.8117  -10.4402   21.9717 C   0  0  0  0  0  0  0  0  0  0  0  0
  -26.5175  -15.7529   19.3874 C   0  0  0  0  0  0  0  0  0  0  0  0
  -26.9449  -17.6082   17.6895 C   0  0  0  0  0  0  0  0  0  0  0  0
  -31.3955  -26.4755   20.0759 C   0  0  0  0  0  0  0  0  0  0  0  0
  -24.3348  -28.4763   20.2312 C   0  0  0  0  0  0  0  0  0  0  0  0
  -30.0108  -26.2578   20.2083 C   0  0  0  0  0  0  0  0  0  0  0  0
  -23.8328  -28.6985   21.5214 C   0  0  0  0  0  0  0  0  0  0  0  0
  -20.1199  -23.3467   23.0300 C   0  0  0  0  0  0  0  0  0  0  0  0
  -21.4794  -22.2013   21.3940 C   0  0  0  0  0  0  0  0  0  0  0  0
  -22.6312  -22.7049   21.9985 C   0  0  0  0  0  0  0  0  0  0  0  0
  -26.1084  -13.1014   20.1519 C   0  0  0  0  0  0  0  0  0  0  0  0
  -21.8971  -27.3266   20.9911 C   0  0  0  0  0  0  0  0  0  0  0  0
  -24.8880  -11.5474   21.4240 C   0  0  0  0  0  0  0  0  0  0  0  0
  -22.8348  -11.0237   23.2385 C   0  0  0  0  0  0  0  0  0  0  0  0
  -23.8384  -10.7021   21.0645 C   0  0  0  0  0  0  0  0  0  0  0  0
  -26.7282  -17.1226   18.9930 C   0  0  0  0  0  0  0  0  0  0  0  0
  -27.0864  -18.9652   17.8477 C   0  0  0  0  0  0  0  0  0  0  0  0
  -27.0122  -16.8963   16.4468 C   0  0  0  0  0  0  0  0  0  0  0  0
  -27.2142  -28.2590   21.5599 C   0  0  0  0  0  0  0  0  0  0  0  0
  -26.4701  -31.1941   22.7236 C   0  0  0  0  0  0  0  0  0  0  0  0
  -24.0501  -33.4405   23.5862 C   0  0  0  0  0  0  0  0  0  0  0  0
  -25.1479  -22.8169   21.9843 C   0  0  0  0  0  0  0  0  0  0  0  0
  -32.1895  -27.1993   21.1344 C   0  0  0  0  0  0  0  0  0  0  0  0
  -25.6269  -29.1120   19.7966 C   0  0  0  0  0  0  0  0  0  0  0  0
  -24.5716  -29.5442   22.5251 C   0  0  0  0  0  0  0  0  0  0  0  0
  -31.3262  -28.0234   22.0863 C   0  0  0  0  0  0  0  0  0  0  0  0
  -28.5300  -22.2331   21.0369 C   0  0  0  0  0  0  0  0  0  0  0  0
  -30.1263  -27.2090   22.5593 C   0  0  0  0  0  0  0  0  0  0  0  0
  -28.4705  -20.9036   20.2814 C   0  0  0  0  0  0  0  0  0  0  0  0
  -27.5585  -22.2596   22.2156 C   0  0  0  0  0  0  0  0  0  0  0  0
  -26.1096  -20.5907   21.1271 C   0  0  0  0  0  0  0  0  0  0  0  0
  -29.2299  -26.8115   21.3803 C   0  0  1  0  0  0  0  0  0  0  0  0
  -26.5421  -29.4642   20.9652 C   0  0  1  0  0  0  0  0  0  0  0  0
  -27.0240  -20.5408   19.8921 C   0  0  2  0  0  0  0  0  0  0  0  0
  -21.5606  -21.3182   20.1910 C   0  0  0  0  0  0  0  0  0  0  0  0
  -23.7484  -35.7401   24.5445 C   0  0  0  0  0  0  0  0  0  0  0  0
  -27.1140  -30.1168   25.5048 C   0  0  0  0  0  0  0  0  0  0  0  0
  -25.9115  -32.0889   26.4709 C   0  0  0  0  0  0  0  0  0  0  0  0
  -27.9436  -32.4350   25.0661 C   0  0  0  0  0  0  0  0  0  0  0  0
  -22.6930  -34.4079   21.1405 C   0  0  0  0  0  0  0  0  0  0  0  0
  -17.4847  -25.5456   24.6426 C   0  0  0  0  0  0  0  0  0  0  0  0
  -18.7693  -23.6939   23.5835 C   0  0  0  0  0  0  0  0  0  0  0  0
  -18.4694  -27.1618   22.1094 C   0  0  0  0  0  0  0  0  0  0  0  0
  -18.1202  -25.6868   22.2389 C   0  0  0  0  0  0  0  0  0  0  0  0
  -19.9445  -27.4653   22.3417 C   0  0  0  0  0  0  0  0  0  1  0  0
  -25.7857  -31.7092   23.9667 C   0  0  1  0  0  0  0  0  0  0  0  0
  -23.8889  -34.9172   23.2734 C   0  0  2  0  0  0  0  0  0  0  0  0
  -26.6755  -31.5699   25.2341 C   0  0  0  0  0  0  0  0  0  0  0  0
  -26.7311  -18.0923   19.9116 N   0  0  0  0  0  0  0  0  0  0  0  0
  -26.9515  -19.2007   19.1843 N   0  0  0  0  0  0  0  0  0  0  0  0
  -25.8336  -30.1390   22.0547 N   0  0  0  0  0  0  0  0  0  0  0  0
  -26.2076  -21.9103   21.7706 N   0  0  0  0  0  0  0  0  0  0  0  0
  -27.3120  -19.9680   16.9725 N   0  0  0  0  0  0  0  0  0  0  0  0
  -26.8451  -15.5048   16.4640 N   0  0  0  0  0  0  0  0  0  0  0  0
  -23.9157  -22.3906   21.4896 N   0  0  0  0  0  0  0  0  0  0  0  0
  -28.4171  -27.9337   20.9627 N   0  0  0  0  0  0  0  0  0  0  0  0
  -25.3779  -33.0783   23.6705 N   0  0  0  0  0  0  0  0  0  0  0  0
  -22.6782  -35.1396   22.4333 N   0  3  0  0  0  0  0  0  0  0  0  0
  -18.4923  -25.1782   23.5799 N   0  3  1  0  0  0  0  0  0  0  0  0
  -27.2309  -17.4749   15.3555 O   0  0  0  0  0  0  0  0  0  0  0  0
  -26.6815  -27.6689   22.4925 O   0  0  0  0  0  0  0  0  0  0  0  0
  -27.5266  -31.7135   22.3556 O   0  0  0  0  0  0  0  0  0  0  0  0
  -23.0938  -32.6848   23.7439 O   0  0  0  0  0  0  0  0  0  0  0  0
  -25.3260  -23.9042   22.5394 O   0  0  0  0  0  0  0  0  0  0  0  0
  -25.9084  -11.8077   20.5247 O   0  0  0  0  0  0  0  0  0  0  0  0
  -20.7151  -26.7657   21.3654 O   0  0  0  0  0  0  0  0  0  1  0  0
  -21.8497  -10.7711   24.1103 F   0  0  0  0  0  0  0  0  0  0  0  0
  -23.8114  -10.1377   19.8493 F   0  0  0  0  0  0  0  0  0  0  0  0
  1  2  1  0  0  0  0
  1  5  2  0  0  0  0
  2  6  2  0  0  0  0
  3 10  2  0  0  0  0
  3 18  1  0  0  0  0
  4 11  1  0  0  0  0
  4 18  2  0  0  0  0
  5 20  1  0  0  0  0
  6 22  1  0  0  0  0
  7 12  2  0  0  0  0
  7 21  1  0  0  0  0
  8  9  2  0  0  0  0
  8 24  1  0  0  0  0
  9 26  1  0  0  0  0
 10 27  1  0  0  0  0
 11 27  2  0  0  0  0
 12 28  1  0  0  0  0
 13 14  2  0  0  0  0
 13 29  1  0  0  0  0
 14 30  1  0  0  0  0
 15 23  1  0  0  0  0
 15 28  2  0  0  0  0
 16 24  2  0  0  0  0
 16 25  1  0  0  0  0
 17 30  2  0  0  0  0
 17 31  1  0  0  0  0
 18 32  1  0  0  0  0
 19 32  1  0  0  0  0
 19 33  2  0  0  0  0
 19 34  1  0  0  0  0
 20 22  2  0  0  0  0
 20 39  1  0  0  0  0
 21 23  2  0  0  0  0
 21 40  1  0  0  0  0
 22 48  1  0  0  0  0
 23 41  1  0  0  0  0
 24 58  1  0  0  0  0
 25 26  2  0  0  0  0
 25 51  1  0  0  0  0
 26 71  1  0  0  0  0
 27 81  1  0  0  0  0
 28 82  1  0  0  0  0
 29 31  2  0  0  0  0
 29 81  1  0  0  0  0
 30 83  1  0  0  0  0
 31 84  1  0  0  0  0
 32 65  2  0  0  0  0
 33 66  1  0  0  0  0
 33 69  1  0  0  0  0
 34 70  1  0  0  0  0
 34 76  2  0  0  0  0
 35 49  1  0  0  0  0
 35 72  1  0  0  0  0
 35 77  2  0  0  0  0
 36 62  1  0  0  0  0
 36 67  1  0  0  0  0
 36 78  2  0  0  0  0
 37 63  1  0  0  0  0
 37 73  1  0  0  0  0
 37 79  2  0  0  0  0
 38 68  1  0  0  0  0
 38 71  1  0  0  0  0
 38 80  2  0  0  0  0
 39 42  1  0  0  0  0
 40 49  1  0  0  0  0
 41 67  1  0  0  0  0
 42 44  1  0  0  0  0
 43 45  1  0  0  0  0
 43 46  1  0  0  0  0
 44 48  1  0  0  0  0
 45 50  1  0  0  0  0
 46 68  1  0  0  0  0
 47 50  1  0  0  0  0
 47 68  1  0  0  0  0
 48 72  1  0  0  0  0
 49 67  1  0  0  0  0
 50 66  1  0  0  0  0
 52 63  1  0  0  0  0
 53 64  1  0  0  0  0
 54 64  1  0  0  0  0
 55 64  1  0  0  0  0
 56 74  1  0  0  0  0
 57 75  1  0  0  0  0
 58 75  1  0  0  0  0
 59 60  1  0  0  0  0
 59 61  1  0  0  0  0
 60 75  1  0  0  0  0
 61 82  1  0  0  0  0
 62 64  1  0  0  0  0
 62 73  1  0  0  0  0
 63 74  1  0  0  0  0
 65 66  1  0  0  0  0
M  CHG  2  74   1  75   1
M  ISO  4  38 100  61 101  71 100  82 101
M  END
> <Batch ID>
0017

> <Smiles>
CNC(C)C(=O)NC(C(=O)N1Cc2cc([101O:1][101CH2:1]CCN(C)Cc3ccc([100NH:0][100C:0](=O)N4CCCC(n5nc(-c6ccc(Oc7ccc(F)cc7F)cc6)c(C(N)=O)c5N)C4)c(C)c3)ccc2CC1C(=O)NC1CCCc2ccccc21)C(C)(C)C

> <Shape>
0.275

> <Color>
0.062

> <Negative vol penalty>
0.000

$$$$

  -OEChem-04042321003D

 87 95  0     1  0  0  0  0  0999 V2000
  -23.9885   -7.3109   22.2012 C   0  0  0  0  0  0  0  0  0  0  0  0
  -25.0828   -8.0846   22.5744 C   0  0  0  0  0  0  0  0  0  0  0  0
  -24.2678  -30.9795   25.3101 C   0  0  0  0  0  0  0  0  0  0  0  0
  -26.6458  -30.6823   25.6171 C   0  0  0  0  0  0  0  0  0  0  0  0
  -23.2392   -7.6608   21.0787 C   0  0  0  0  0  0  0  0  0  0  0  0
  -25.4291   -9.2081   21.8247 C   0  0  0  0  0  0  0  0  0  0  0  0
  -28.2425  -15.7557   22.5529 C   0  0  0  0  0  0  0  0  0  0  0  0
  -30.9175  -23.8135   17.7586 C   0  0  0  0  0  0  0  0  0  0  0  0
  -29.9481  -24.7073   18.2135 C   0  0  0  0  0  0  0  0  0  0  0  0
  -24.0710  -30.8216   26.6819 C   0  0  0  0  0  0  0  0  0  0  0  0
  -26.4489  -30.5245   26.9890 C   0  0  0  0  0  0  0  0  0  0  0  0
  -29.2560  -16.5569   22.0288 C   0  0  0  0  0  0  0  0  0  0  0  0
  -25.8979  -32.5079   29.6691 C   0  0  0  0  0  0  0  0  0  0  0  0
  -26.7594  -33.1896   30.5286 C   0  0  0  0  0  0  0  0  0  0  0  0
  -27.8412  -17.1104   20.1550 C   0  0  0  0  0  0  0  0  0  0  0  0
  -28.5866  -24.2151   16.2793 C   0  0  0  0  0  0  0  0  0  0  0  0
  -27.4752  -31.0868   31.4789 C   0  0  0  0  0  0  0  0  0  0  0  0
  -25.5553  -30.9098   24.7777 C   0  0  0  0  0  0  0  0  0  0  0  0
  -25.9990  -32.2744   22.6686 C   0  0  0  0  0  0  0  0  0  0  0  0
  -23.5706   -8.7947   20.3204 C   0  0  0  0  0  0  0  0  0  0  0  0
  -27.0227  -15.6170   21.8753 C   0  0  0  0  0  0  0  0  0  0  0  0
  -24.6843   -9.5728   20.6902 C   0  0  0  0  0  0  0  0  0  0  0  0
  -26.8129  -16.3089   20.6740 C   0  0  0  0  0  0  0  0  0  0  0  0
  -30.7215  -23.1205   16.5640 C   0  0  0  0  0  0  0  0  0  0  0  0
  -29.5560  -23.3213   15.8244 C   0  0  0  0  0  0  0  0  0  0  0  0
  -28.7826  -24.9081   17.4739 C   0  0  0  0  0  0  0  0  0  0  0  0
  -25.1615  -30.5941   27.5214 C   0  0  0  0  0  0  0  0  0  0  0  0
  -29.0565  -17.2321   20.8283 C   0  0  0  0  0  0  0  0  0  0  0  0
  -25.8250  -31.1156   29.7146 C   0  0  0  0  0  0  0  0  0  0  0  0
  -27.5481  -32.4791   31.4335 C   0  0  0  0  0  0  0  0  0  0  0  0
  -26.6137  -30.4051   30.6195 C   0  0  0  0  0  0  0  0  0  0  0  0
  -25.7592  -31.0722   23.3606 C   0  0  0  0  0  0  0  0  0  0  0  0
  -26.1221  -31.8953   21.3542 C   0  0  0  0  0  0  0  0  0  0  0  0
  -26.1013  -33.6141   23.1691 C   0  0  0  0  0  0  0  0  0  0  0  0
  -25.4476  -13.1860   20.5665 C   0  0  0  0  0  0  0  0  0  0  0  0
  -23.1301  -15.4177   20.1531 C   0  0  0  0  0  0  0  0  0  0  0  0
  -22.3051  -18.7147   19.8433 C   0  0  0  0  0  0  0  0  0  0  0  0
  -27.8240  -26.5863   19.1015 C   0  0  0  0  0  0  0  0  0  0  0  0
  -22.7593   -9.1062   19.0878 C   0  0  0  0  0  0  0  0  0  0  0  0
  -25.9297  -14.7701   22.4675 C   0  0  0  0  0  0  0  0  0  0  0  0
  -25.5141  -16.2094   19.9179 C   0  0  0  0  0  0  0  0  0  0  0  0
  -22.9672  -10.5250   18.5643 C   0  0  0  0  0  0  0  0  0  0  0  0
  -24.3109  -28.1202   18.9289 C   0  0  0  0  0  0  0  0  0  0  0  0
  -24.4536  -10.8640   18.5164 C   0  0  0  0  0  0  0  0  0  0  0  0
  -24.6220  -29.5245   19.4411 C   0  0  0  0  0  0  0  0  0  0  0  0
  -25.5397  -27.4319   18.3481 C   0  0  0  0  0  0  0  0  0  0  0  0
  -26.5770  -28.2436   20.4744 C   0  0  0  0  0  0  0  0  0  0  0  0
  -25.0765  -10.8130   19.9168 C   0  0  1  0  0  0  0  0  0  0  0  0
  -24.9160  -14.2931   21.4320 C   0  0  1  0  0  0  0  0  0  0  0  0
  -25.9970  -29.6245   20.1308 C   0  0  2  0  0  0  0  0  0  0  0  0
  -29.3237  -22.5889   14.5437 C   0  0  0  0  0  0  0  0  0  0  0  0
  -20.3360  -20.2267   19.4774 C   0  0  0  0  0  0  0  0  0  0  0  0
  -34.9163  -21.5827   17.8822 C   0  0  0  0  0  0  0  0  0  0  0  0
  -35.6556  -20.1531   15.9539 C   0  0  0  0  0  0  0  0  0  0  0  0
  -23.0940  -14.6520   17.1998 C   0  0  0  0  0  0  0  0  0  0  0  0
  -21.8547  -16.7774   16.7356 C   0  0  0  0  0  0  0  0  0  0  0  0
  -20.8368  -15.0376   18.2052 C   0  0  0  0  0  0  0  0  0  0  0  0
  -22.7231  -20.0784   22.4365 C   0  0  0  0  0  0  0  0  0  0  0  0
  -31.7787  -22.1650   16.0947 C   0  0  0  0  0  0  0  0  0  0  0  0
  -31.0017  -19.4805   18.6751 C   0  0  0  0  0  0  0  0  0  0  0  0
  -30.8271  -20.2543   17.3769 C   0  0  0  0  0  0  0  0  0  0  0  0
  -33.1989  -20.1883   16.6215 C   0  0  0  0  0  0  0  0  0  0  0  0
  -29.7719  -18.6773   19.0802 C   0  0  0  0  0  0  0  0  0  1  0  0
  -22.7795  -16.4065   19.0676 C   0  0  1  0  0  0  0  0  0  0  0  0
  -21.2259  -19.5498   20.5083 C   0  0  2  0  0  0  0  0  0  0  0  0
  -34.5086  -20.9803   16.5367 C   0  0  0  0  0  0  0  0  0  0  0  0
  -22.1665  -15.7189   17.8151 C   0  0  0  0  0  0  0  0  0  0  0  0
  -25.7311  -30.0089   22.5527 N   0  0  0  0  0  0  0  0  0  0  0  0
  -25.9548  -30.5418   21.3394 N   0  0  0  0  0  0  0  0  0  0  0  0
  -24.4783  -15.3641   20.5345 N   0  0  0  0  0  0  0  0  0  0  0  0
  -26.6765  -27.3974   19.2796 N   0  0  0  0  0  0  0  0  0  0  0  0
  -26.3561  -32.5910   20.2212 N   0  0  0  0  0  0  0  0  0  0  0  0
  -25.9493  -33.8263   24.5461 N   0  0  0  0  0  0  0  0  0  0  0  0
  -27.7964  -25.8148   17.9367 N   0  0  0  0  0  0  0  0  0  0  0  0
  -24.7373  -12.0047   20.6645 N   0  0  0  0  0  0  0  0  0  0  0  0
  -21.9119  -17.4024   19.6873 N   0  0  0  0  0  0  0  0  0  0  0  0
  -21.8403  -20.6043   21.3636 N   0  3  0  0  0  0  0  0  0  0  0  0
  -32.0421  -21.0465   17.0741 N   0  3  1  0  0  0  0  0  0  0  0  0
  -26.3047  -34.5960   22.4154 O   0  0  0  0  0  0  0  0  0  0  0  0
  -26.4287  -13.3888   19.8608 O   0  0  0  0  0  0  0  0  0  0  0  0
  -22.2393  -14.7237   20.6496 O   0  0  0  0  0  0  0  0  0  0  0  0
  -23.3872  -19.1808   19.4935 O   0  0  0  0  0  0  0  0  0  0  0  0
  -28.7533  -26.5919   19.9115 O   0  0  0  0  0  0  0  0  0  0  0  0
  -24.9698  -30.4403   28.8601 O   0  0  0  0  0  0  0  0  0  0  0  0
  -30.0443  -18.0142   20.3141 O   0  0  0  0  0  0  0  0  0  1  0  0
  -28.3765  -33.1338   32.2577 F   0  0  0  0  0  0  0  0  0  0  0  0
  -26.5488  -29.0675   30.6670 F   0  0  0  0  0  0  0  0  0  0  0  0
  1  2  1  0  0  0  0
  1  5  2  0  0  0  0
  2  6  2  0  0  0  0
  3 10  2  0  0  0  0
  3 18  1  0  0  0  0
  4 11  1  0  0  0  0
  4 18  2  0  0  0  0
  5 20  1  0  0  0  0
  6 22  1  0  0  0  0
  7 12  2  0  0  0  0
  7 21  1  0  0  0  0
  8  9  2  0  0  0  0
  8 24  1  0  0  0  0
  9 26  1  0  0  0  0
 10 27  1  0  0  0  0
 11 27  2  0  0  0  0
 12 28  1  0  0  0  0
 13 14  2  0  0  0  0
 13 29  1  0  0  0  0
 14 30  1  0  0  0  0
 15 23  1  0  0  0  0
 15 28  2  0  0  0  0
 16 25  1  0  0  0  0
 16 26  2  0  0  0  0
 17 30  2  0  0  0  0
 17 31  1  0  0  0  0
 18 32  1  0  0  0  0
 19 32  1  0  0  0  0
 19 33  2  0  0  0  0
 19 34  1  0  0  0  0
 20 22  2  0  0  0  0
 20 39  1  0  0  0  0
 21 23  2  0  0  0  0
 21 40  1  0  0  0  0
 22 48  1  0  0  0  0
 23 41  1  0  0  0  0
 24 25  2  0  0  0  0
 24 59  1  0  0  0  0
 25 51  1  0  0  0  0
 26 74  1  0  0  0  0
 27 84  1  0  0  0  0
 28 85  1  0  0  0  0
 29 31  2  0  0  0  0
 29 84  1  0  0  0  0
 30 86  1  0  0  0  0
 31 87  1  0  0  0  0
 32 68  2  0  0  0  0
 33 69  1  0  0  0  0
 33 72  1  0  0  0  0
 34 73  1  0  0  0  0
 34 79  2  0  0  0  0
 35 49  1  0  0  0  0
 35 75  1  0  0  0  0
 35 80  2  0  0  0  0
 36 64  1  0  0  0  0
 36 70  1  0  0  0  0
 36 81  2  0  0  0  0
 37 65  1  0  0  0  0
 37 76  1  0  0  0  0
 37 82  2  0  0  0  0
 38 71  1  0  0  0  0
 38 74  1  0  0  0  0
 38 83  2  0  0  0  0
 39 42  1  0  0  0  0
 40 49  1  0  0  0  0
 41 70  1  0  0  0  0
 42 44  1  0  0  0  0
 43 45  1  0  0  0  0
 43 46  1  0  0  0  0
 44 48  1  0  0  0  0
 45 50  1  0  0  0  0
 46 71  1  0  0  0  0
 47 50  1  0  0  0  0
 47 71  1  0  0  0  0
 48 75  1  0  0  0  0
 49 70  1  0  0  0  0
 50 69  1  0  0  0  0
 52 65  1  0  0  0  0
 53 66  1  0  0  0  0
 54 66  1  0  0  0  0
 55 67  1  0  0  0  0
 56 67  1  0  0  0  0
 57 67  1  0  0  0  0
 58 77  1  0  0  0  0
 59 78  1  0  0  0  0
 60 61  1  0  0  0  0
 60 63  1  0  0  0  0
 61 78  1  0  0  0  0
 62 66  1  0  0  0  0
 62 78  1  0  0  0  0
 63 85  1  0  0  0  0
 64 67  1  0  0  0  0
 64 76  1  0  0  0  0
 65 77  1  0  0  0  0
 68 69  1  0  0  0  0
M  CHG  2  77   1  78   1
M  ISO  4  38 100  63 101  74 100  85 101
M  END
> <Batch ID>
0017

> <Smiles>
CNC(C)C(=O)NC(C(=O)N1Cc2cc([101O:1][101CH2:1]CCN(Cc3ccc([100NH:0][100C:0](=O)N4CCCC(n5nc(-c6ccc(Oc7ccc(F)cc7F)cc6)c(C(N)=O)c5N)C4)cc3C)CC(C)C)ccc2CC1C(=O)NC1CCCc2ccccc21)C(C)(C)C

> <Shape>
0.235

> <Color>
0.093

> <Negative vol penalty>
0.000

$$$$

  -OEChem-04042321003D

 82 90  0     1  0  0  0  0  0999 V2000
  -22.2315  -25.8432   14.8441 C   0  0  0  0  0  0  0  0  0  0  0  0
  -22.1917  -26.2584   16.1713 C   0  0  0  0  0  0  0  0  0  0  0  0
  -26.8015  -14.9624   21.6783 C   0  0  0  0  0  0  0  0  0  0  0  0
  -26.3974  -15.0059   19.2967 C   0  0  0  0  0  0  0  0  0  0  0  0
  -24.0520  -24.9707   22.7518 C   0  0  0  0  0  0  0  0  0  0  0  0
  -23.3886  -25.2574   14.3326 C   0  0  0  0  0  0  0  0  0  0  0  0
  -23.3088  -26.0870   16.9881 C   0  0  0  0  0  0  0  0  0  0  0  0
  -24.3304  -30.1938   19.7693 C   0  0  0  0  0  0  0  0  0  0  0  0
  -23.2365  -26.0976   22.8554 C   0  0  0  0  0  0  0  0  0  0  0  0
  -26.5517  -13.5902   21.6956 C   0  0  0  0  0  0  0  0  0  0  0  0
  -26.1476  -13.6337   19.3140 C   0  0  0  0  0  0  0  0  0  0  0  0
  -23.5448  -30.4080   20.9010 C   0  0  0  0  0  0  0  0  0  0  0  0
  -25.6680  -10.1394   22.4268 C   0  0  0  0  0  0  0  0  0  0  0  0
  -24.8524   -9.6399   23.4422 C   0  0  0  0  0  0  0  0  0  0  0  0
  -22.5177  -23.7320   24.1475 C   0  0  0  0  0  0  0  0  0  0  0  0
  -25.2963  -29.4906   22.2830 C   0  0  0  0  0  0  0  0  0  0  0  0
  -23.0419  -11.0463   22.6798 C   0  0  0  0  0  0  0  0  0  0  0  0
  -26.7243  -15.6703   20.4788 C   0  0  0  0  0  0  0  0  0  0  0  0
  -23.6926  -23.7879   23.3979 C   0  0  0  0  0  0  0  0  0  0  0  0
  -28.2214  -17.7242   20.2614 C   0  0  0  0  0  0  0  0  0  0  0  0
  -24.5238  -25.0875   15.1408 C   0  0  0  0  0  0  0  0  0  0  0  0
  -25.6026  -29.6154   19.8850 C   0  0  0  0  0  0  0  0  0  0  0  0
  -24.4818  -25.4971   16.4873 C   0  0  0  0  0  0  0  0  0  0  0  0
  -26.0971  -29.2725   21.1515 C   0  0  0  0  0  0  0  0  0  0  0  0
  -22.0616  -26.0416   23.6051 C   0  0  0  0  0  0  0  0  0  0  0  0
  -26.2248  -12.9258   20.5135 C   0  0  0  0  0  0  0  0  0  0  0  0
  -24.0265  -30.0537   22.1578 C   0  0  0  0  0  0  0  0  0  0  0  0
  -25.1706  -11.0924   21.5380 C   0  0  0  0  0  0  0  0  0  0  0  0
  -23.5394  -10.0933   23.5686 C   0  0  0  0  0  0  0  0  0  0  0  0
  -21.7023  -24.8588   24.2512 C   0  0  0  0  0  0  0  0  0  0  0  0
  -23.8575  -11.5459   21.6645 C   0  0  0  0  0  0  0  0  0  0  0  0
  -26.9816  -17.0878   20.4603 C   0  0  0  0  0  0  0  0  0  0  0  0
  -27.9345  -19.0655   20.3337 C   0  0  0  0  0  0  0  0  0  0  0  0
  -24.5496  -22.6010   23.2877 C   0  0  0  0  0  0  0  0  0  0  0  0
  -29.5167  -17.1540   20.0316 C   0  0  0  0  0  0  0  0  0  0  0  0
  -26.9623  -26.9520   18.8074 C   0  0  0  0  0  0  0  0  0  0  0  0
  -29.6332  -28.2511   20.1116 C   0  0  0  0  0  0  0  0  0  0  0  0
  -30.9964  -30.3939   22.3913 C   0  0  0  0  0  0  0  0  0  0  0  0
  -25.7357  -24.4061   14.5564 C   0  0  0  0  0  0  0  0  0  0  0  0
  -26.4484  -29.4156   18.6574 C   0  0  0  0  0  0  0  0  0  0  0  0
  -27.4644  -28.6672   21.3318 C   0  0  0  0  0  0  0  0  0  0  0  0
  -27.0031  -24.6019   15.3844 C   0  0  0  0  0  0  0  0  0  0  0  0
  -23.8489  -21.7952   19.8198 C   0  0  0  0  0  0  0  0  0  0  0  0
  -26.7183  -24.3558   16.8626 C   0  0  0  0  0  0  0  0  0  0  0  0
  -24.6992  -20.5397   19.6218 C   0  0  0  0  0  0  0  0  0  0  0  0
  -23.2569  -21.8497   21.2248 C   0  0  0  0  0  0  0  0  0  0  0  0
  -25.1230  -20.4980   22.1214 C   0  0  0  0  0  0  0  0  0  0  0  0
  -25.6816  -25.3508   17.3979 C   0  0  1  0  0  0  0  0  0  0  0  0
  -27.5214  -28.3463   18.8385 C   0  0  1  0  0  0  0  0  0  0  0  0
  -25.7646  -20.4088   20.7258 C   0  0  1  0  0  0  0  0  0  0  0  0
  -33.2085  -31.2121   23.2484 C   0  0  0  0  0  0  0  0  0  0  0  0
  -29.9983  -25.6428   21.6521 C   0  0  0  0  0  0  0  0  0  0  0  0
  -31.6079  -26.8360   23.1534 C   0  0  0  0  0  0  0  0  0  0  0  0
  -32.1088  -26.6083   20.7203 C   0  0  0  0  0  0  0  0  0  0  0  0
  -30.4059  -33.1818   21.5925 C   0  0  0  0  0  0  0  0  0  0  0  0
  -21.5827  -27.9061   26.0855 C   0  0  0  0  0  0  0  0  0  0  0  0
  -21.1862  -27.2551   23.7150 C   0  0  0  0  0  0  0  0  0  0  0  0
  -21.2064  -29.6605   24.3586 C   0  0  0  0  0  0  0  0  0  0  0  0
  -21.8458  -30.2015   23.0950 C   0  0  0  0  0  0  0  0  0  1  0  0
  -30.2935  -28.2011   21.4683 C   0  0  1  0  0  0  0  0  0  0  0  0
  -32.0784  -31.4505   22.2591 C   0  0  2  0  0  0  0  0  0  0  0  0
  -30.9755  -26.8316   21.7453 C   0  0  0  0  0  0  0  0  0  0  0  0
  -25.9814  -17.9536   20.6454 N   0  0  0  0  0  0  0  0  0  0  0  0
  -26.5925  -19.1477   20.5630 N   0  0  0  0  0  0  0  0  0  0  0  0
  -24.3111  -21.7110   22.2376 N   0  0  0  0  0  0  0  0  0  0  0  0
  -28.2509  -28.4857   20.1005 N   0  0  0  0  0  0  0  0  0  0  0  0
  -28.7016  -20.1707   20.2230 N   0  0  0  0  0  0  0  0  0  0  0  0
  -29.6338  -15.7581   19.9870 N   0  0  0  0  0  0  0  0  0  0  0  0
  -26.2950  -26.6394   17.6385 N   0  0  0  0  0  0  0  0  0  0  0  0
  -31.2006  -29.3424   21.5230 N   0  0  0  0  0  0  0  0  0  0  0  0
  -31.5121  -32.8060   22.5102 N   0  3  0  0  0  0  0  0  0  0  0  0
  -21.7468  -28.3067   24.6403 N   0  3  1  0  0  0  0  0  0  0  0  0
  -25.4316  -22.4880   24.1377 O   0  0  0  0  0  0  0  0  0  0  0  0
  -30.5427  -17.8611   19.8870 O   0  0  0  0  0  0  0  0  0  0  0  0
  -27.1256  -26.2139   19.7719 O   0  0  0  0  0  0  0  0  0  0  0  0
  -30.3198  -28.0951   19.0988 O   0  0  0  0  0  0  0  0  0  0  0  0
  -30.0655  -30.4899   23.1879 O   0  0  0  0  0  0  0  0  0  0  0  0
  -25.9813  -11.5868   20.5300 O   0  0  0  0  0  0  0  0  0  0  0  0
  -23.2615  -30.2611   23.2639 O   0  0  0  0  0  0  0  0  0  1  0  0
  -22.7558   -9.6124   24.5428 F   0  0  0  0  0  0  0  0  0  0  0  0
  -20.5752  -24.7958   24.9739 F   0  0  0  0  0  0  0  0  0  0  0  0
  -23.3737  -12.4604   20.8128 F   0  0  0  0  0  0  0  0  0  0  0  0
  1  2  1  0  0  0  0
  1  6  2  0  0  0  0
  2  7  2  0  0  0  0
  3 10  2  0  0  0  0
  3 18  1  0  0  0  0
  4 11  1  0  0  0  0
  4 18  2  0  0  0  0
  5  9  2  0  0  0  0
  5 19  1  0  0  0  0
  6 21  1  0  0  0  0
  7 23  1  0  0  0  0
  8 12  2  0  0  0  0
  8 22  1  0  0  0  0
  9 25  1  0  0  0  0
 10 26  1  0  0  0  0
 11 26  2  0  0  0  0
 12 27  1  0  0  0  0
 13 14  2  0  0  0  0
 13 28  1  0  0  0  0
 14 29  1  0  0  0  0
 15 19  2  0  0  0  0
 15 30  1  0  0  0  0
 16 24  1  0  0  0  0
 16 27  2  0  0  0  0
 17 29  2  0  0  0  0
 17 31  1  0  0  0  0
 18 32  1  0  0  0  0
 19 34  1  0  0  0  0
 20 32  1  0  0  0  0
 20 33  2  0  0  0  0
 20 35  1  0  0  0  0
 21 23  2  0  0  0  0
 21 39  1  0  0  0  0
 22 24  2  0  0  0  0
 22 40  1  0  0  0  0
 23 48  1  0  0  0  0
 24 41  1  0  0  0  0
 25 30  2  0  0  0  0
 25 57  1  0  0  0  0
 26 78  1  0  0  0  0
 27 79  1  0  0  0  0
 28 31  2  0  0  0  0
 28 78  1  0  0  0  0
 29 80  1  0  0  0  0
 30 81  1  0  0  0  0
 31 82  1  0  0  0  0
 32 63  2  0  0  0  0
 33 64  1  0  0  0  0
 33 67  1  0  0  0  0
 34 65  1  0  0  0  0
 34 73  2  0  0  0  0
 35 68  1  0  0  0  0
 35 74  2  0  0  0  0
 36 49  1  0  0  0  0
 36 69  1  0  0  0  0
 36 75  2  0  0  0  0
 37 60  1  0  0  0  0
 37 66  1  0  0  0  0
 37 76  2  0  0  0  0
 38 61  1  0  0  0  0
 38 70  1  0  0  0  0
 38 77  2  0  0  0  0
 39 42  1  0  0  0  0
 40 49  1  0  0  0  0
 41 66  1  0  0  0  0
 42 44  1  0  0  0  0
 43 45  1  0  0  0  0
 43 46  1  0  0  0  0
 44 48  1  0  0  0  0
 45 50  1  0  0  0  0
 46 65  1  0  0  0  0
 47 50  1  0  0  0  0
 47 65  1  0  0  0  0
 48 69  1  0  0  0  0
 49 66  1  0  0  0  0
 50 64  1  0  0  0  0
 51 61  1  0  0  0  0
 52 62  1  0  0  0  0
 53 62  1  0  0  0  0
 54 62  1  0  0  0  0
 55 71  1  0  0  0  0
 56 72  1  0  0  0  0
 57 72  1  0  0  0  0
 58 59  1  0  0  0  0
 58 72  1  0  0  0  0
 59 79  1  0  0  0  0
 60 62  1  0  0  0  0
 60 70  1  0  0  0  0
 61 71  1  0  0  0  0
 63 64  1  0  0  0  0
M  CHG  2  71   1  72   1
M  ISO  4  19 100  34 100  59 101  79 101
M  END
> <Batch ID>
0017

> <Smiles>
CNC(C)C(=O)NC(C(=O)N1Cc2cc([101O:1][101CH2:1]CN(C)Cc3cc[100c:0]([100C:0](=O)N4CCCC(n5nc(-c6ccc(Oc7ccc(F)cc7F)cc6)c(C(N)=O)c5N)C4)cc3F)ccc2CC1C(=O)NC1CCCc2ccccc21)C(C)(C)C

> <Shape>
0.182

> <Color>
0.078

> <Negative vol penalty>
0.000

$$$$

  -OEChem-04042321003D

 84 92  0     1  0  0  0  0  0999 V2000
  -29.8678   -2.0832   36.8256 C   0  0  0  0  0  0  0  0  0  0  0  0
  -29.8000   -2.9386   35.7306 C   0  0  0  0  0  0  0  0  0  0  0  0
  -23.2846   -9.7975   19.9080 C   0  0  0  0  0  0  0  0  0  0  0  0
  -23.7225   -9.9368   22.2799 C   0  0  0  0  0  0  0  0  0  0  0  0
  -28.6956   -1.5915   37.3984 C   0  0  0  0  0  0  0  0  0  0  0  0
  -28.5597   -3.3021   35.2070 C   0  0  0  0  0  0  0  0  0  0  0  0
  -27.0427   -8.6994   32.7426 C   0  0  0  0  0  0  0  0  0  0  0  0
  -28.4291  -11.5084   25.2454 C   0  0  0  0  0  0  0  0  0  0  0  0
  -28.4860  -10.3588   23.1212 C   0  0  0  0  0  0  0  0  0  0  0  0
  -27.7612  -10.4241   25.8143 C   0  0  0  0  0  0  0  0  0  0  0  0
  -27.8181   -9.2744   23.6902 C   0  0  0  0  0  0  0  0  0  0  0  0
  -22.5525   -8.6278   20.1119 C   0  0  0  0  0  0  0  0  0  0  0  0
  -22.9904   -8.7671   22.4838 C   0  0  0  0  0  0  0  0  0  0  0  0
  -26.9560   -9.1361   31.4214 C   0  0  0  0  0  0  0  0  0  0  0  0
  -19.7387   -7.8687   22.6830 C   0  0  0  0  0  0  0  0  0  0  0  0
  -18.8303   -7.8507   23.7413 C   0  0  0  0  0  0  0  0  0  0  0  0
  -24.5870   -8.6809   31.4327 C   0  0  0  0  0  0  0  0  0  0  0  0
  -20.0233   -5.9990   24.7339 C   0  0  0  0  0  0  0  0  0  0  0  0
  -23.8696  -10.4519   20.9921 C   0  0  0  0  0  0  0  0  0  0  0  0
  -24.1400  -12.9809   20.7945 C   0  0  0  0  0  0  0  0  0  0  0  0
  -27.4401   -1.9568   36.8876 C   0  0  0  0  0  0  0  0  0  0  0  0
  -25.9022   -8.2391   33.4164 C   0  0  0  0  0  0  0  0  0  0  0  0
  -27.3696   -2.8138   35.7726 C   0  0  0  0  0  0  0  0  0  0  0  0
  -24.6614   -8.2413   32.7633 C   0  0  0  0  0  0  0  0  0  0  0  0
  -28.7915  -11.4758   23.8987 C   0  0  0  0  0  0  0  0  0  0  0  0
  -27.4557   -9.3071   25.0368 C   0  0  0  0  0  0  0  0  0  0  0  0
  -22.4054   -8.1126   21.3998 C   0  0  0  0  0  0  0  0  0  0  0  0
  -25.7286   -9.1242   30.7653 C   0  0  0  0  0  0  0  0  0  0  0  0
  -20.7894   -6.9518   22.6500 C   0  0  0  0  0  0  0  0  0  0  0  0
  -18.9726   -6.9159   24.7667 C   0  0  0  0  0  0  0  0  0  0  0  0
  -20.9317   -6.0170   23.6755 C   0  0  0  0  0  0  0  0  0  0  0  0
  -24.6265  -11.6599   20.7821 C   0  0  0  0  0  0  0  0  0  0  0  0
  -25.2459  -13.7565   20.5456 C   0  0  0  0  0  0  0  0  0  0  0  0
  -22.8075  -13.4637   21.0117 C   0  0  0  0  0  0  0  0  0  0  0  0
  -25.0315   -5.4755   34.7233 C   0  0  0  0  0  0  0  0  0  0  0  0
  -22.4723   -7.2006   35.7218 C   0  0  0  0  0  0  0  0  0  0  0  0
  -20.4424   -9.9047   35.2594 C   0  0  0  0  0  0  0  0  0  0  0  0
  -31.1496  -12.3509   21.3872 C   0  0  0  0  0  0  0  0  0  0  0  0
  -26.2020   -1.3624   37.5107 C   0  0  0  0  0  0  0  0  0  0  0  0
  -26.0076   -7.7965   34.8501 C   0  0  0  0  0  0  0  0  0  0  0  0
  -23.4036   -7.7759   33.4487 C   0  0  0  0  0  0  0  0  0  0  0  0
  -24.9172   -2.0935   37.1297 C   0  0  0  0  0  0  0  0  0  0  0  0
  -29.4877  -13.6547   18.3475 C   0  0  0  0  0  0  0  0  0  0  0  0
  -24.8769   -2.3545   35.6274 C   0  0  0  0  0  0  0  0  0  0  0  0
  -28.0171  -13.3328   18.6079 C   0  0  0  0  0  0  0  0  0  0  0  0
  -30.4170  -12.6711   19.0522 C   0  0  0  0  0  0  0  0  0  0  0  0
  -28.6994  -12.2294   20.7753 C   0  0  0  0  0  0  0  0  0  0  0  0
  -26.0424   -3.2508   35.1916 C   0  0  1  0  0  0  0  0  0  0  0  0
  -24.8755   -6.8653   35.2727 C   0  0  1  0  0  0  0  0  0  0  0  0
  -27.7370  -13.2295   20.1172 C   0  0  2  0  0  0  0  0  0  0  0  0
  -18.4121  -11.0298   36.2130 C   0  0  0  0  0  0  0  0  0  0  0  0
  -20.6974   -5.0672   34.4536 C   0  0  0  0  0  0  0  0  0  0  0  0
  -18.7849   -6.6772   34.5889 C   0  0  0  0  0  0  0  0  0  0  0  0
  -19.9058   -5.8966   36.6762 C   0  0  0  0  0  0  0  0  0  0  0  0
  -26.4659   -7.0444   24.7913 C   0  0  0  0  0  0  0  0  0  0  0  0
  -31.8627  -12.0559   23.7290 C   0  0  0  0  0  0  0  0  0  0  0  0
  -21.9521  -12.3786   35.8592 C   0  0  0  0  0  0  0  0  0  0  0  0
  -29.5053  -12.6348   23.2894 C   0  0  0  0  0  0  0  0  0  0  0  0
  -25.1026   -8.9645   27.2113 C   0  0  0  0  0  0  0  0  0  0  0  0
  -26.4098   -8.2097   27.0020 C   0  0  0  0  0  0  0  0  0  0  0  0
  -24.6335   -8.9512   28.6614 C   0  0  0  0  0  0  0  0  0  1  0  0
  -21.1096   -7.5176   35.1547 C   0  0  1  0  0  0  0  0  0  0  0  0
  -19.9311  -10.9575   36.2262 C   0  0  2  0  0  0  0  0  0  0  0  0
  -20.1483   -6.2967   35.2045 C   0  0  0  0  0  0  0  0  0  0  0  0
  -25.9392  -11.5961   20.5439 N   0  0  0  0  0  0  0  0  0  0  0  0
  -26.2869  -12.8867   20.4044 N   0  0  0  0  0  0  0  0  0  0  0  0
  -23.5593   -7.3469   34.8484 N   0  0  0  0  0  0  0  0  0  0  0  0
  -30.1009  -12.5599   20.4766 N   0  0  0  0  0  0  0  0  0  0  0  0
  -25.4196  -15.0907   20.4359 N   0  0  0  0  0  0  0  0  0  0  0  0
  -21.7900  -12.5308   21.2536 N   0  0  0  0  0  0  0  0  0  0  0  0
  -25.7716   -4.6317   35.5293 N   0  0  0  0  0  0  0  0  0  0  0  0
  -20.6276   -8.6877   35.8806 N   0  0  0  0  0  0  0  0  0  0  0  0
  -26.7858   -8.2161   25.6089 N   0  0  3  0  0  0  0  0  0  0  0  0
  -30.8090  -12.2608   22.7454 N   0  0  0  0  0  0  0  0  0  0  0  0
  -20.4686  -12.2991   35.8629 N   0  3  0  0  0  0  0  0  0  0  0  0
  -22.5246  -14.6852   20.9756 O   0  0  0  0  0  0  0  0  0  0  0  0
  -24.5171   -5.1895   33.6485 O   0  0  0  0  0  0  0  0  0  0  0  0
  -22.5694   -6.8434   36.8985 O   0  0  0  0  0  0  0  0  0  0  0  0
  -20.6527  -10.1376   34.0711 O   0  0  0  0  0  0  0  0  0  0  0  0
  -32.3246  -12.2600   21.0088 O   0  0  0  0  0  0  0  0  0  0  0  0
  -21.6909   -6.9715   21.5991 O   0  0  0  0  0  0  0  0  0  0  0  0
  -25.6413   -9.5493   29.4756 O   0  0  0  0  0  0  0  0  0  1  0  0
  -18.1010   -6.8998   25.7838 F   0  0  0  0  0  0  0  0  0  0  0  0
  -21.9398   -5.1344   23.6500 F   0  0  0  0  0  0  0  0  0  0  0  0
  1  2  1  0  0  0  0
  1  5  2  0  0  0  0
  2  6  2  0  0  0  0
  3 12  2  0  0  0  0
  3 19  1  0  0  0  0
  4 13  1  0  0  0  0
  4 19  2  0  0  0  0
  5 21  1  0  0  0  0
  6 23  1  0  0  0  0
  7 14  2  0  0  0  0
  7 22  1  0  0  0  0
  8 10  2  0  0  0  0
  8 25  1  0  0  0  0
  9 11  1  0  0  0  0
  9 25  2  0  0  0  0
 10 26  1  0  0  0  0
 11 26  2  0  0  0  0
 12 27  1  0  0  0  0
 13 27  2  0  0  0  0
 14 28  1  0  0  0  0
 15 16  2  0  0  0  0
 15 29  1  0  0  0  0
 16 30  1  0  0  0  0
 17 24  1  0  0  0  0
 17 28  2  0  0  0  0
 18 30  2  0  0  0  0
 18 31  1  0  0  0  0
 19 32  1  0  0  0  0
 20 32  1  0  0  0  0
 20 33  2  0  0  0  0
 20 34  1  0  0  0  0
 21 23  2  0  0  0  0
 21 39  1  0  0  0  0
 22 24  2  0  0  0  0
 22 40  1  0  0  0  0
 23 48  1  0  0  0  0
 24 41  1  0  0  0  0
 25 58  1  0  0  0  0
 26 73  1  0  0  0  0
 27 81  1  0  0  0  0
 28 82  1  0  0  0  0
 29 31  2  0  0  0  0
 29 81  1  0  0  0  0
 30 83  1  0  0  0  0
 31 84  1  0  0  0  0
 32 65  2  0  0  0  0
 33 66  1  0  0  0  0
 33 69  1  0  0  0  0
 34 70  1  0  0  0  0
 34 76  2  0  0  0  0
 35 49  1  0  0  0  0
 35 71  1  0  0  0  0
 35 77  2  0  0  0  0
 36 62  1  0  0  0  0
 36 67  1  0  0  0  0
 36 78  2  0  0  0  0
 37 63  1  0  0  0  0
 37 72  1  0  0  0  0
 37 79  2  0  0  0  0
 38 68  1  0  0  0  0
 38 74  1  0  0  0  0
 38 80  2  0  0  0  0
 39 42  1  0  0  0  0
 40 49  1  0  0  0  0
 41 67  1  0  0  0  0
 42 44  1  0  0  0  0
 43 45  1  0  0  0  0
 43 46  1  0  0  0  0
 44 48  1  0  0  0  0
 45 50  1  0  0  0  0
 46 68  1  0  0  0  0
 47 50  1  0  0  0  0
 47 68  1  0  0  0  0
 48 71  1  0  0  0  0
 49 67  1  0  0  0  0
 50 66  1  0  0  0  0
 51 63  1  0  0  0  0
 52 64  1  0  0  0  0
 53 64  1  0  0  0  0
 54 64  1  0  0  0  0
 55 73  1  0  0  0  0
 56 74  1  0  0  0  0
 57 75  1  0  0  0  0
 58 74  1  0  0  0  0
 59 60  1  0  0  0  0
 59 61  1  0  0  0  0
 60 73  1  0  0  0  0
 61 82  1  0  0  0  0
 62 64  1  0  0  0  0
 62 72  1  0  0  0  0
 63 75  1  0  0  0  0
 65 66  1  0  0  0  0
M  CHG  1  75   1
M  ISO  4  38 100  61 101  74 100  82 101
M  END
> <Batch ID>
0017

> <Smiles>
CNC(C)C(=O)NC(C(=O)N1Cc2cc([101O:1][101CH2:1]CCN(C)c3ccc(C[100N:0](C)[100C:0](=O)N4CCCC(n5nc(-c6ccc(Oc7ccc(F)cc7F)cc6)c(C(N)=O)c5N)C4)cc3)ccc2CC1C(=O)NC1CCCc2ccccc21)C(C)(C)C

> <Shape>
0.132

> <Color>
0.185

> <Negative vol penalty>
0.000

$$$$

  -OEChem-04042321003D

 83 91  0     1  0  0  0  0  0999 V2000
  -26.8598  -19.1699   17.8141 C   0  0  0  0  0  0  0  0  0  0  0  0
  -27.5548  -19.5668   18.9520 C   0  0  0  0  0  0  0  0  0  0  0  0
  -23.0835   -9.9116   19.8944 C   0  0  0  0  0  0  0  0  0  0  0  0
  -23.8455   -9.8531   22.1863 C   0  0  0  0  0  0  0  0  0  0  0  0
  -27.0585  -19.8404   16.6080 C   0  0  0  0  0  0  0  0  0  0  0  0
  -28.4499  -20.6339   18.8841 C   0  0  0  0  0  0  0  0  0  0  0  0
  -27.9549  -23.8356   22.7763 C   0  0  0  0  0  0  0  0  0  0  0  0
  -30.3569  -18.3489   24.2730 C   0  0  0  0  0  0  0  0  0  0  0  0
  -32.5522  -17.5516   23.6549 C   0  0  0  0  0  0  0  0  0  0  0  0
  -29.7810  -17.4873   23.3394 C   0  0  0  0  0  0  0  0  0  0  0  0
  -31.9763  -16.6899   22.7213 C   0  0  0  0  0  0  0  0  0  0  0  0
  -22.3564   -8.7403   20.1062 C   0  0  0  0  0  0  0  0  0  0  0  0
  -23.1184   -8.6818   22.3982 C   0  0  0  0  0  0  0  0  0  0  0  0
  -28.5171  -23.4508   23.9927 C   0  0  0  0  0  0  0  0  0  0  0  0
  -23.4560   -5.3847   21.7304 C   0  0  0  0  0  0  0  0  0  0  0  0
  -24.0868   -4.3450   22.4135 C   0  0  0  0  0  0  0  0  0  0  0  0
  -30.4222  -24.8636   23.5522 C   0  0  0  0  0  0  0  0  0  0  0  0
  -22.3848   -4.4374   24.1257 C   0  0  0  0  0  0  0  0  0  0  0  0
  -23.8281  -10.4680   20.9344 C   0  0  0  0  0  0  0  0  0  0  0  0
  -24.1338  -13.0004   20.8983 C   0  0  0  0  0  0  0  0  0  0  0  0
  -27.9493  -20.9224   16.5275 C   0  0  0  0  0  0  0  0  0  0  0  0
  -28.6284  -24.7304   21.9323 C   0  0  0  0  0  0  0  0  0  0  0  0
  -28.6618  -21.3187   17.6754 C   0  0  0  0  0  0  0  0  0  0  0  0
  -29.8652  -25.2601   22.3268 C   0  0  0  0  0  0  0  0  0  0  0  0
  -31.7424  -18.3811   24.4307 C   0  0  0  0  0  0  0  0  0  0  0  0
  -30.5907  -16.6578   22.5636 C   0  0  0  0  0  0  0  0  0  0  0  0
  -22.3738   -8.1254   21.3581 C   0  0  0  0  0  0  0  0  0  0  0  0
  -29.7523  -23.9626   24.3795 C   0  0  0  0  0  0  0  0  0  0  0  0
  -22.2897   -5.9509   22.2450 C   0  0  0  0  0  0  0  0  0  0  0  0
  -23.5512   -3.8713   23.6111 C   0  0  0  0  0  0  0  0  0  0  0  0
  -21.7541   -5.4772   23.4426 C   0  0  0  0  0  0  0  0  0  0  0  0
  -24.5799  -11.6777   20.7161 C   0  0  0  0  0  0  0  0  0  0  0  0
  -25.2148  -13.7771   20.5596 C   0  0  0  0  0  0  0  0  0  0  0  0
  -22.8566  -13.4838   21.3349 C   0  0  0  0  0  0  0  0  0  0  0  0
  -29.8126  -24.5759   18.9865 C   0  0  0  0  0  0  0  0  0  0  0  0
  -30.3507  -27.7401   19.4559 C   0  0  0  0  0  0  0  0  0  0  0  0
  -30.8365  -30.3008   21.6590 C   0  0  0  0  0  0  0  0  0  0  0  0
  -30.6657  -14.8942   20.7662 C   0  0  0  0  0  0  0  0  0  0  0  0
  -28.1664  -21.5861   15.1907 C   0  0  0  0  0  0  0  0  0  0  0  0
  -27.9961  -25.1561   20.6356 C   0  0  0  0  0  0  0  0  0  0  0  0
  -30.6193  -26.2394   21.4661 C   0  0  0  0  0  0  0  0  0  0  0  0
  -28.8524  -22.9461   15.2901 C   0  0  0  0  0  0  0  0  0  0  0  0
  -29.5835  -12.5449   18.3195 C   0  0  0  0  0  0  0  0  0  0  0  0
  -30.0540  -22.8707   16.2268 C   0  0  0  0  0  0  0  0  0  0  0  0
  -28.1486  -12.2186   18.7398 C   0  0  0  0  0  0  0  0  0  0  0  0
  -30.4964  -12.7466   19.5276 C   0  0  0  0  0  0  0  0  0  0  0  0
  -28.5807  -13.3974   20.9332 C   0  0  0  0  0  0  0  0  0  0  0  0
  -29.6228  -22.4874   17.6475 C   0  0  1  0  0  0  0  0  0  0  0  0
  -29.0084  -25.6759   19.6195 C   0  0  1  0  0  0  0  0  0  0  0  0
  -27.6093  -13.2496   19.7508 C   0  0  2  0  0  0  0  0  0  0  0  0
  -31.2881  -32.7678   21.7435 C   0  0  0  0  0  0  0  0  0  0  0  0
  -33.2598  -27.2315   18.6886 C   0  0  0  0  0  0  0  0  0  0  0  0
  -33.8393  -29.4516   19.6903 C   0  0  0  0  0  0  0  0  0  0  0  0
  -32.2836  -29.3313   17.7440 C   0  0  0  0  0  0  0  0  0  0  0  0
  -28.3174  -30.8295   23.1195 C   0  0  0  0  0  0  0  0  0  0  0  0
  -33.4109  -20.9884   23.9262 C   0  0  0  0  0  0  0  0  0  0  0  0
  -32.3617  -19.3080   25.4349 C   0  0  0  0  0  0  0  0  0  0  0  0
  -31.1551  -21.7727   26.8821 C   0  0  0  0  0  0  0  0  0  0  0  0
  -32.4692  -21.6998   26.1192 C   0  0  0  0  0  0  0  0  0  0  0  0
  -29.9878  -22.2818   26.0454 C   0  0  0  0  0  0  0  0  0  1  0  0
  -31.4879  -28.5596   20.0164 C   0  0  1  0  0  0  0  0  0  0  0  0
  -30.2200  -31.6853   21.7461 C   0  0  2  0  0  0  0  0  0  0  0  0
  -32.7046  -28.6236   19.0504 C   0  0  0  0  0  0  0  0  0  0  0  0
  -25.8456  -11.6139   20.2941 N   0  0  0  0  0  0  0  0  0  0  0  0
  -26.2040  -12.9063   20.2084 N   0  0  0  0  0  0  0  0  0  0  0  0
  -29.9626  -26.6201   20.2046 N   0  0  0  0  0  0  0  0  0  0  0  0
  -29.9237  -13.7396   20.4391 N   0  0  0  0  0  0  0  0  0  0  0  0
  -25.4062  -15.1131   20.5309 N   0  0  0  0  0  0  0  0  0  0  0  0
  -21.8580  -12.5496   21.6422 N   0  0  0  0  0  0  0  0  0  0  0  0
  -30.0061  -15.7821   21.6153 N   0  0  0  0  0  0  0  0  0  0  0  0
  -29.0510  -23.6297   18.3277 N   0  0  0  0  0  0  0  0  0  0  0  0
  -30.9245  -29.8621   20.3548 N   0  0  0  0  0  0  0  0  0  0  0  0
  -29.4194  -31.8180   22.9961 N   0  3  0  0  0  0  0  0  0  0  0  0
  -32.3632  -20.7499   24.9870 N   0  3  1  0  0  0  0  0  0  0  0  0
  -22.6028  -14.7083   21.4333 O   0  0  0  0  0  0  0  0  0  0  0  0
  -31.0339  -24.5856   19.0871 O   0  0  0  0  0  0  0  0  0  0  0  0
  -29.8214  -28.0853   18.3965 O   0  0  0  0  0  0  0  0  0  0  0  0
  -31.2067  -29.6730   22.6486 O   0  0  0  0  0  0  0  0  0  0  0  0
  -31.7919  -15.0945   20.3038 O   0  0  0  0  0  0  0  0  0  0  0  0
  -21.6642   -6.9825   21.5652 O   0  0  0  0  0  0  0  0  0  0  0  0
  -30.3035  -23.5882   25.5660 O   0  0  0  0  0  0  0  0  0  1  0  0
  -24.1562   -2.8717   24.2662 F   0  0  0  0  0  0  0  0  0  0  0  0
  -20.6331   -6.0163   23.9413 F   0  0  0  0  0  0  0  0  0  0  0  0
  1  2  1  0  0  0  0
  1  5  2  0  0  0  0
  2  6  2  0  0  0  0
  3 12  2  0  0  0  0
  3 19  1  0  0  0  0
  4 13  1  0  0  0  0
  4 19  2  0  0  0  0
  5 21  1  0  0  0  0
  6 23  1  0  0  0  0
  7 14  2  0  0  0  0
  7 22  1  0  0  0  0
  8 10  2  0  0  0  0
  8 25  1  0  0  0  0
  9 11  1  0  0  0  0
  9 25  2  0  0  0  0
 10 26  1  0  0  0  0
 11 26  2  0  0  0  0
 12 27  1  0  0  0  0
 13 27  2  0  0  0  0
 14 28  1  0  0  0  0
 15 16  2  0  0  0  0
 15 29  1  0  0  0  0
 16 30  1  0  0  0  0
 17 24  1  0  0  0  0
 17 28  2  0  0  0  0
 18 30  2  0  0  0  0
 18 31  1  0  0  0  0
 19 32  1  0  0  0  0
 20 32  1  0  0  0  0
 20 33  2  0  0  0  0
 20 34  1  0  0  0  0
 21 23  2  0  0  0  0
 21 39  1  0  0  0  0
 22 24  2  0  0  0  0
 22 40  1  0  0  0  0
 23 48  1  0  0  0  0
 24 41  1  0  0  0  0
 25 57  1  0  0  0  0
 26 70  1  0  0  0  0
 27 80  1  0  0  0  0
 28 81  1  0  0  0  0
 29 31  2  0  0  0  0
 29 80  1  0  0  0  0
 30 82  1  0  0  0  0
 31 83  1  0  0  0  0
 32 64  2  0  0  0  0
 33 65  1  0  0  0  0
 33 68  1  0  0  0  0
 34 69  1  0  0  0  0
 34 75  2  0  0  0  0
 35 49  1  0  0  0  0
 35 71  1  0  0  0  0
 35 76  2  0  0  0  0
 36 61  1  0  0  0  0
 36 66  1  0  0  0  0
 36 77  2  0  0  0  0
 37 62  1  0  0  0  0
 37 72  1  0  0  0  0
 37 78  2  0  0  0  0
 38 67  1  0  0  0  0
 38 70  1  0  0  0  0
 38 79  2  0  0  0  0
 39 42  1  0  0  0  0
 40 49  1  0  0  0  0
 41 66  1  0  0  0  0
 42 44  1  0  0  0  0
 43 45  1  0  0  0  0
 43 46  1  0  0  0  0
 44 48  1  0  0  0  0
 45 50  1  0  0  0  0
 46 67  1  0  0  0  0
 47 50  1  0  0  0  0
 47 67  1  0  0  0  0
 48 71  1  0  0  0  0
 49 66  1  0  0  0  0
 50 65  1  0  0  0  0
 51 62  1  0  0  0  0
 52 63  1  0  0  0  0
 53 63  1  0  0  0  0
 54 63  1  0  0  0  0
 55 73  1  0  0  0  0
 56 74  1  0  0  0  0
 57 74  1  0  0  0  0
 58 59  1  0  0  0  0
 58 60  1  0  0  0  0
 59 74  1  0  0  0  0
 60 81  1  0  0  0  0
 61 63  1  0  0  0  0
 61 72  1  0  0  0  0
 62 73  1  0  0  0  0
 64 65  1  0  0  0  0
M  CHG  2  73   1  74   1
M  ISO  4  38 100  60 101  70 100  81 101
M  END
> <Batch ID>
0017

> <Smiles>
CNC(C)C(=O)NC(C(=O)N1Cc2cc([101O:1][101CH2:1]CCN(C)Cc3ccc([100NH:0][100C:0](=O)N4CCCC(n5nc(-c6ccc(Oc7ccc(F)cc7F)cc6)c(C(N)=O)c5N)C4)cc3)ccc2CC1C(=O)NC1CCCc2ccccc21)C(C)(C)C

> <Shape>
0.252

> <Color>
0.203

> <Negative vol penalty>
0.000

$$$$

  -OEChem-04042321003D

 86 95  0     1  0  0  0  0  0999 V2000
  -22.7706  -11.8129   17.9125 C   0  0  0  0  0  0  0  0  0  0  0  0
  -22.5018  -13.1760   17.9851 C   0  0  0  0  0  0  0  0  0  0  0  0
  -29.3430  -25.8111   21.0225 C   0  0  0  0  0  0  0  0  0  0  0  0
  -29.9959  -27.7506   19.7382 C   0  0  0  0  0  0  0  0  0  0  0  0
  -23.6805  -11.2350   18.7969 C   0  0  0  0  0  0  0  0  0  0  0  0
  -23.1420  -13.9617   18.9428 C   0  0  0  0  0  0  0  0  0  0  0  0
  -24.9250  -19.7886   18.3305 C   0  0  0  0  0  0  0  0  0  0  0  0
  -30.6859  -25.5011   21.2370 C   0  0  0  0  0  0  0  0  0  0  0  0
  -31.3389  -27.4406   19.9529 C   0  0  0  0  0  0  0  0  0  0  0  0
  -24.3470  -20.9931   18.7288 C   0  0  0  0  0  0  0  0  0  0  0  0
  -33.1932  -26.5478   23.2497 C   0  0  0  0  0  0  0  0  0  0  0  0
  -33.5770  -26.1880   24.5415 C   0  0  0  0  0  0  0  0  0  0  0  0
  -25.7040  -20.9778   20.7232 C   0  0  0  0  0  0  0  0  0  0  0  0
  -19.5267  -29.5711   23.6251 C   0  0  0  0  0  0  0  0  0  0  0  0
  -34.3250  -24.0420   23.7215 C   0  0  0  0  0  0  0  0  0  0  0  0
  -28.9980  -26.9358   20.2730 C   0  0  0  0  0  0  0  0  0  0  0  0
  -26.6464  -26.4573   19.4079 C   0  0  0  0  0  0  0  0  0  0  0  0
  -24.3394  -12.0158   19.7596 C   0  0  0  0  0  0  0  0  0  0  0  0
  -25.8906  -19.1630   19.1322 C   0  0  0  0  0  0  0  0  0  0  0  0
  -24.0605  -13.3935   19.8417 C   0  0  0  0  0  0  0  0  0  0  0  0
  -26.2946  -19.7667   20.3316 C   0  0  0  0  0  0  0  0  0  0  0  0
  -19.7437  -27.4023   22.5574 C   0  0  0  0  0  0  0  0  0  0  0  0
  -18.5801  -26.9654   23.2142 C   0  0  0  0  0  0  0  0  0  0  0  0
  -20.2023  -28.7112   22.7597 C   0  0  0  0  0  0  0  0  0  0  0  0
  -31.6838  -26.3158   20.7023 C   0  0  0  0  0  0  0  0  0  0  0  0
  -24.7344  -21.5865   19.9267 C   0  0  0  0  0  0  0  0  0  0  0  0
  -33.3752  -25.6547   22.1938 C   0  0  0  0  0  0  0  0  0  0  0  0
  -34.1429  -24.9351   24.7774 C   0  0  0  0  0  0  0  0  0  0  0  0
  -18.3857  -29.1324   24.2920 C   0  0  0  0  0  0  0  0  0  0  0  0
  -33.9411  -24.4018   22.4297 C   0  0  0  0  0  0  0  0  0  0  0  0
  -17.9158  -27.8348   24.0908 C   0  0  0  0  0  0  0  0  0  0  0  0
  -27.6109  -27.2563   20.0505 C   0  0  0  0  0  0  0  0  0  0  0  0
  -25.4953  -27.2052   19.4535 C   0  0  0  0  0  0  0  0  0  0  0  0
  -26.7790  -25.1554   18.8221 C   0  0  0  0  0  0  0  0  0  0  0  0
  -26.0811  -16.3786   20.6536 C   0  0  0  0  0  0  0  0  0  0  0  0
  -29.1174  -17.3537   21.2469 C   0  0  0  0  0  0  0  0  0  0  0  0
  -31.3206  -19.9413   21.5591 C   0  0  0  0  0  0  0  0  0  0  0  0
  -21.9140  -30.4710   22.1944 C   0  0  0  0  0  0  0  0  0  0  0  0
  -25.2793  -11.3378   20.7247 C   0  0  0  0  0  0  0  0  0  0  0  0
  -26.5239  -17.8774   18.6754 C   0  0  0  0  0  0  0  0  0  0  0  0
  -18.0759  -25.5554   23.0396 C   0  0  0  0  0  0  0  0  0  0  0  0
  -27.3418  -19.1459   21.2184 C   0  0  0  0  0  0  0  0  0  0  0  0
  -20.4728  -26.5022   21.5976 C   0  0  0  0  0  0  0  0  0  0  0  0
  -26.1959  -12.3080   21.4655 C   0  0  0  0  0  0  0  0  0  0  0  0
  -24.7602  -32.0441   20.7447 C   0  0  0  0  0  0  0  0  0  0  0  0
  -25.3990  -13.4953   21.9966 C   0  0  0  0  0  0  0  0  0  0  0  0
  -25.6763  -30.8730   20.3820 C   0  0  0  0  0  0  0  0  0  0  0  0
  -24.0122  -31.7948   22.0532 C   0  0  0  0  0  0  0  0  0  0  0  0
  -24.1892  -29.3562   21.7514 C   0  0  0  0  0  0  0  0  0  0  0  0
  -18.5839  -24.8869   21.7669 C   0  0  0  0  0  0  0  0  0  0  0  0
  -24.7534  -14.2835   20.8505 C   0  0  1  0  0  0  0  0  0  0  0  0
  -27.1245  -17.0674   19.8202 C   0  0  1  0  0  0  0  0  0  0  0  0
  -24.9149  -29.5331   20.4077 C   0  0  2  0  0  0  0  0  0  0  0  0
  -33.7250  -20.4284   22.0871 C   0  0  0  0  0  0  0  0  0  0  0  0
  -28.5659  -16.8558   24.2063 C   0  0  0  0  0  0  0  0  0  0  0  0
  -30.5929  -18.2240   24.7427 C   0  0  0  0  0  0  0  0  0  0  0  0
  -30.8247  -16.1171   23.4274 C   0  0  0  0  0  0  0  0  0  0  0  0
  -31.7757  -21.1678   18.9044 C   0  0  0  0  0  0  0  0  0  0  0  0
  -22.1492  -23.8925   20.9395 C   0  0  0  0  0  0  0  0  0  0  0  0
  -20.6980  -24.2130   20.6147 C   0  0  0  0  0  0  0  0  0  0  0  0
  -22.8299  -23.0106   19.8999 C   0  0  0  0  0  0  0  0  0  1  0  0
  -29.7904  -18.1508   22.3382 C   0  0  1  0  0  0  0  0  0  0  0  0
  -32.7106  -20.1553   20.9876 C   0  0  2  0  0  0  0  0  0  0  0  0
  -29.9223  -17.3479   23.6631 C   0  0  0  0  0  0  0  0  0  0  0  0
  -27.1158  -28.4225   20.4733 N   0  0  0  0  0  0  0  0  0  0  0  0
  -25.8275  -28.3618   20.0954 N   0  0  0  0  0  0  0  0  0  0  0  0
  -27.9270  -17.8857   20.7315 N   0  0  0  0  0  0  0  0  0  0  0  0
  -23.3113  -30.5099   22.0029 N   0  0  0  0  0  0  0  0  0  0  0  0
  -24.2415  -26.9798   19.0067 N   0  0  0  0  0  0  0  0  0  0  0  0
  -27.1331  -25.0644   17.4691 N   0  0  0  0  0  0  0  0  0  0  0  0
  -21.3532  -29.1983   22.0920 N   0  0  0  0  0  0  0  0  0  0  0  0
  -25.7361  -15.1210   20.1967 N   0  0  0  0  0  0  0  0  0  0  0  0
  -31.0618  -18.6061   21.7863 N   0  0  0  0  0  0  0  0  0  0  0  0
  -20.0824  -25.0422   21.7055 N   0  3  1  0  0  0  0  0  0  0  0  0
  -32.7120  -21.3126   20.0487 N   0  3  0  0  0  0  0  0  0  0  0  0
  -26.5730  -24.1041   19.4748 O   0  0  0  0  0  0  0  0  0  0  0  0
  -25.6240  -16.9456   21.6392 O   0  0  0  0  0  0  0  0  0  0  0  0
  -29.6329  -16.3016   20.8610 O   0  0  0  0  0  0  0  0  0  0  0  0
  -30.5437  -20.8664   21.7852 O   0  0  0  0  0  0  0  0  0  0  0  0
  -21.2590  -31.4951   22.4047 O   0  0  0  0  0  0  0  0  0  0  0  0
  -32.9944  -26.0138   20.9117 O   0  0  0  0  0  0  0  0  0  0  0  0
  -24.1714  -22.7619   20.3182 O   0  0  0  0  0  0  0  0  0  1  0  0
  -34.5129  -24.5903   26.0177 F   0  0  0  0  0  0  0  0  0  0  0  0
  -17.7393  -29.9561   25.1274 F   0  0  0  0  0  0  0  0  0  0  0  0
  -34.1196  -23.5401   21.4191 F   0  0  0  0  0  0  0  0  0  0  0  0
  -16.8212  -27.4251   24.7478 F   0  0  0  0  0  0  0  0  0  0  0  0
  1  2  1  0  0  0  0
  1  5  2  0  0  0  0
  2  6  2  0  0  0  0
  3  8  2  0  0  0  0
  3 16  1  0  0  0  0
  4  9  1  0  0  0  0
  4 16  2  0  0  0  0
  5 18  1  0  0  0  0
  6 20  1  0  0  0  0
  7 10  2  0  0  0  0
  7 19  1  0  0  0  0
  8 25  1  0  0  0  0
  9 25  2  0  0  0  0
 10 26  1  0  0  0  0
 11 12  2  0  0  0  0
 11 27  1  0  0  0  0
 12 28  1  0  0  0  0
 13 21  1  0  0  0  0
 13 26  2  0  0  0  0
 14 24  2  0  0  0  0
 14 29  1  0  0  0  0
 15 28  2  0  0  0  0
 15 30  1  0  0  0  0
 16 32  1  0  0  0  0
 17 32  1  0  0  0  0
 17 33  2  0  0  0  0
 17 34  1  0  0  0  0
 18 20  2  0  0  0  0
 18 39  1  0  0  0  0
 19 21  2  0  0  0  0
 19 40  1  0  0  0  0
 20 51  1  0  0  0  0
 21 42  1  0  0  0  0
 22 23  2  0  0  0  0
 22 24  1  0  0  0  0
 22 43  1  0  0  0  0
 23 31  1  0  0  0  0
 23 41  1  0  0  0  0
 24 71  1  0  0  0  0
 25 81  1  0  0  0  0
 26 82  1  0  0  0  0
 27 30  2  0  0  0  0
 27 81  1  0  0  0  0
 28 83  1  0  0  0  0
 29 31  2  0  0  0  0
 29 84  1  0  0  0  0
 30 85  1  0  0  0  0
 31 86  1  0  0  0  0
 32 65  2  0  0  0  0
 33 66  1  0  0  0  0
 33 69  1  0  0  0  0
 34 70  1  0  0  0  0
 34 76  2  0  0  0  0
 35 52  1  0  0  0  0
 35 72  1  0  0  0  0
 35 77  2  0  0  0  0
 36 62  1  0  0  0  0
 36 67  1  0  0  0  0
 36 78  2  0  0  0  0
 37 63  1  0  0  0  0
 37 73  1  0  0  0  0
 37 79  2  0  0  0  0
 38 68  1  0  0  0  0
 38 71  1  0  0  0  0
 38 80  2  0  0  0  0
 39 44  1  0  0  0  0
 40 52  1  0  0  0  0
 41 50  1  0  0  0  0
 42 67  1  0  0  0  0
 43 74  1  0  0  0  0
 44 46  1  0  0  0  0
 45 47  1  0  0  0  0
 45 48  1  0  0  0  0
 46 51  1  0  0  0  0
 47 53  1  0  0  0  0
 48 68  1  0  0  0  0
 49 53  1  0  0  0  0
 49 68  1  0  0  0  0
 50 74  1  0  0  0  0
 51 72  1  0  0  0  0
 52 67  1  0  0  0  0
 53 66  1  0  0  0  0
 54 63  1  0  0  0  0
 55 64  1  0  0  0  0
 56 64  1  0  0  0  0
 57 64  1  0  0  0  0
 58 75  1  0  0  0  0
 59 60  1  0  0  0  0
 59 61  1  0  0  0  0
 60 74  1  0  0  0  0
 61 82  1  0  0  0  0
 62 64  1  0  0  0  0
 62 73  1  0  0  0  0
 63 75  1  0  0  0  0
 65 66  1  0  0  0  0
M  CHG  2  74   1  75   1
M  ISO  4  38 100  61 101  71 100  82 101
M  END
> <Batch ID>
0017

> <Smiles>
CNC(C)C(=O)NC(C(=O)N1Cc2cc([101O:1][101CH2:1]CCN3CCc4c(F)c(F)cc([100NH:0][100C:0](=O)N5CCCC(n6nc(-c7ccc(Oc8ccc(F)cc8F)cc7)c(C(N)=O)c6N)C5)c4C3)ccc2CC1C(=O)NC1CCCc2ccccc21)C(C)(C)C

> <Shape>
0.236

> <Color>
0.081

> <Negative vol penalty>
0.000

$$$$

  -OEChem-04042321003D

 83 91  0     1  0  0  0  0  0999 V2000
  -24.0977  -18.3812   26.7316 C   0  0  0  0  0  0  0  0  0  0  0  0
  -24.8562  -19.1307   25.8381 C   0  0  0  0  0  0  0  0  0  0  0  0
  -28.4483  -26.8438   17.5416 C   0  0  0  0  0  0  0  0  0  0  0  0
  -28.0806  -17.8533   19.6653 C   0  0  0  0  0  0  0  0  0  0  0  0
  -29.4044  -18.2766   21.6415 C   0  0  0  0  0  0  0  0  0  0  0  0
  -22.7117  -18.5288   26.7625 C   0  0  0  0  0  0  0  0  0  0  0  0
  -24.2289  -20.0276   24.9741 C   0  0  0  0  0  0  0  0  0  0  0  0
  -26.6084  -24.4920   24.7452 C   0  0  0  0  0  0  0  0  0  0  0  0
  -29.0569  -27.4158   18.6587 C   0  0  0  0  0  0  0  0  0  0  0  0
  -29.2134  -26.1290   16.6199 C   0  0  0  0  0  0  0  0  0  0  0  0
  -27.9458  -16.5170   20.0418 C   0  0  0  0  0  0  0  0  0  0  0  0
  -29.2696  -16.9403   22.0181 C   0  0  0  0  0  0  0  0  0  0  0  0
  -27.7622  -24.5592   23.9656 C   0  0  0  0  0  0  0  0  0  0  0  0
  -29.8120  -13.7008   19.9409 C   0  0  0  0  0  0  0  0  0  0  0  0
  -29.9977  -12.7292   18.9574 C   0  0  0  0  0  0  0  0  0  0  0  0
  -26.4896  -25.5639   22.1795 C   0  0  0  0  0  0  0  0  0  0  0  0
  -31.1957  -26.5584   17.9325 C   0  0  0  0  0  0  0  0  0  0  0  0
  -27.7426  -11.9384   19.3130 C   0  0  0  0  0  0  0  0  0  0  0  0
  -28.8100  -18.7331   20.4651 C   0  0  0  0  0  0  0  0  0  0  0  0
  -27.9179  -21.0507   19.8814 C   0  0  0  0  0  0  0  0  0  0  0  0
  -22.0679  -19.4350   25.9051 C   0  0  0  0  0  0  0  0  0  0  0  0
  -25.3822  -24.9509   24.2429 C   0  0  0  0  0  0  0  0  0  0  0  0
  -22.8328  -20.1865   24.9926 C   0  0  0  0  0  0  0  0  0  0  0  0
  -25.3222  -25.5037   22.9556 C   0  0  0  0  0  0  0  0  0  0  0  0
  -30.4306  -27.2732   18.8542 C   0  0  0  0  0  0  0  0  0  0  0  0
  -30.5871  -25.9863   16.8154 C   0  0  0  0  0  0  0  0  0  0  0  0
  -28.5402  -16.0605   21.2182 C   0  0  0  0  0  0  0  0  0  0  0  0
  -27.7024  -25.0926   22.6814 C   0  0  0  0  0  0  0  0  0  0  0  0
  -28.5917  -13.7911   20.6105 C   0  0  0  0  0  0  0  0  0  0  0  0
  -28.9630  -11.8481   18.6434 C   0  0  0  0  0  0  0  0  0  0  0  0
  -27.5570  -12.9099   20.2965 C   0  0  0  0  0  0  0  0  0  0  0  0
  -28.9501  -20.1135   20.0764 C   0  0  0  0  0  0  0  0  0  0  0  0
  -28.5671  -22.2069   19.5234 C   0  0  0  0  0  0  0  0  0  0  0  0
  -26.4991  -20.8905   20.0123 C   0  0  0  0  0  0  0  0  0  0  0  0
  -22.5672  -23.6095   23.6267 C   0  0  0  0  0  0  0  0  0  0  0  0
  -21.6801  -26.6699   23.0192 C   0  0  0  0  0  0  0  0  0  0  0  0
  -22.6064  -29.8344   22.1389 C   0  0  0  0  0  0  0  0  0  0  0  0
  -32.5432  -24.5374   16.2110 C   0  0  0  0  0  0  0  0  0  0  0  0
  -20.5629  -19.5255   25.9422 C   0  0  0  0  0  0  0  0  0  0  0  0
  -24.1519  -24.8959   25.1064 C   0  0  0  0  0  0  0  0  0  0  0  0
  -24.0344  -26.0288   22.3774 C   0  0  0  0  0  0  0  0  0  0  0  0
  -20.0104  -20.7706   25.2532 C   0  0  0  0  0  0  0  0  0  0  0  0
  -33.4576  -23.4476   19.6270 C   0  0  0  0  0  0  0  0  0  0  0  0
  -20.6811  -20.9730   23.8982 C   0  0  0  0  0  0  0  0  0  0  0  0
  -32.3221  -22.4941   19.9943 C   0  0  0  0  0  0  0  0  0  0  0  0
  -33.7054  -23.4801   18.1219 C   0  0  0  0  0  0  0  0  0  0  0  0
  -31.3467  -22.8532   17.6918 C   0  0  0  0  0  0  0  0  0  0  0  0
  -22.1912  -21.1878   24.0567 C   0  0  1  0  0  0  0  0  0  0  0  0
  -22.8558  -24.9202   24.3021 C   0  0  1  0  0  0  0  0  0  0  0  0
  -31.0505  -22.8330   19.1989 C   0  0  1  0  0  0  0  0  0  0  0  0
  -22.3648  -32.2919   21.6920 C   0  0  0  0  0  0  0  0  0  0  0  0
  -20.6786  -25.7082   20.3022 C   0  0  0  0  0  0  0  0  0  0  0  0
  -20.6308  -28.0964   19.5524 C   0  0  0  0  0  0  0  0  0  0  0  0
  -19.1815  -27.3552   21.4426 C   0  0  0  0  0  0  0  0  0  0  0  0
  -31.1070  -25.4527   14.4415 C   0  0  0  0  0  0  0  0  0  0  0  0
  -23.1590  -30.5206   24.9643 C   0  0  0  0  0  0  0  0  0  0  0  0
  -30.7278  -28.3674   22.4734 C   0  0  0  0  0  0  0  0  0  0  0  0
  -31.0847  -27.8887   20.0559 C   0  0  0  0  0  0  0  0  0  0  0  0
  -31.0612  -26.0224   21.7042 C   0  0  0  0  0  0  0  0  0  0  0  0
  -30.0693  -25.3116   22.6037 C   0  0  0  0  0  0  0  0  0  1  0  0
  -21.6761  -27.5598   21.7997 C   0  0  1  0  0  0  0  0  0  0  0  0
  -22.2582  -31.1877   22.7322 C   0  0  2  0  0  0  0  0  0  0  0  0
  -20.5658  -27.1683   20.7841 C   0  0  0  0  0  0  0  0  0  0  0  0
  -30.1629  -20.6296   19.8601 N   0  0  0  0  0  0  0  0  0  0  0  0
  -29.8969  -21.9037   19.5253 N   0  0  0  0  0  0  0  0  0  0  0  0
  -22.8576  -25.9472   23.2583 N   0  0  0  0  0  0  0  0  0  0  0  0
  -32.4747  -23.7443   17.3748 N   0  0  0  0  0  0  0  0  0  0  0  0
  -28.1245  -23.4432   19.2103 N   0  0  0  0  0  0  0  0  0  0  0  0
  -25.9105  -21.1423   21.2590 N   0  0  0  0  0  0  0  0  0  0  0  0
  -22.4661  -22.5393   24.4951 N   0  0  0  0  0  0  0  0  0  0  0  0
  -21.5781  -28.9290   22.2939 N   0  0  0  0  0  0  0  0  0  0  0  0
  -31.3779  -25.2465   15.8625 N   0  0  0  0  0  0  0  0  0  0  0  0
  -23.1790  -31.5121   23.8581 N   0  3  0  0  0  0  0  0  0  0  0  0
  -30.5346  -27.3673   21.3604 N   0  3  1  0  0  0  0  0  0  0  0  0
  -25.7771  -20.5186   19.0563 O   0  0  0  0  0  0  0  0  0  0  0  0
  -22.4438  -23.5720   22.4081 O   0  0  0  0  0  0  0  0  0  0  0  0
  -20.6782  -26.6234   23.7372 O   0  0  0  0  0  0  0  0  0  0  0  0
  -23.6815  -29.6047   21.5895 O   0  0  0  0  0  0  0  0  0  0  0  0
  -33.5546  -24.5689   15.4992 O   0  0  0  0  0  0  0  0  0  0  0  0
  -28.4087  -14.7567   21.5860 O   0  0  0  0  0  0  0  0  0  0  0  0
  -28.8271  -25.1588   21.9181 O   0  0  0  0  0  0  0  0  0  1  0  0
  -29.1409  -10.9161   17.6979 F   0  0  0  0  0  0  0  0  0  0  0  0
  -26.3820  -12.9926   20.9355 F   0  0  0  0  0  0  0  0  0  0  0  0
  1  2  1  0  0  0  0
  1  6  2  0  0  0  0
  2  7  2  0  0  0  0
  3  9  2  0  0  0  0
  3 10  1  0  0  0  0
  4 11  2  0  0  0  0
  4 19  1  0  0  0  0
  5 12  1  0  0  0  0
  5 19  2  0  0  0  0
  6 21  1  0  0  0  0
  7 23  1  0  0  0  0
  8 13  2  0  0  0  0
  8 22  1  0  0  0  0
  9 25  1  0  0  0  0
 10 26  2  0  0  0  0
 11 27  1  0  0  0  0
 12 27  2  0  0  0  0
 13 28  1  0  0  0  0
 14 15  2  0  0  0  0
 14 29  1  0  0  0  0
 15 30  1  0  0  0  0
 16 24  1  0  0  0  0
 16 28  2  0  0  0  0
 17 25  2  0  0  0  0
 17 26  1  0  0  0  0
 18 30  2  0  0  0  0
 18 31  1  0  0  0  0
 19 32  1  0  0  0  0
 20 32  1  0  0  0  0
 20 33  2  0  0  0  0
 20 34  1  0  0  0  0
 21 23  2  0  0  0  0
 21 39  1  0  0  0  0
 22 24  2  0  0  0  0
 22 40  1  0  0  0  0
 23 48  1  0  0  0  0
 24 41  1  0  0  0  0
 25 58  1  0  0  0  0
 26 72  1  0  0  0  0
 27 80  1  0  0  0  0
 28 81  1  0  0  0  0
 29 31  2  0  0  0  0
 29 80  1  0  0  0  0
 30 82  1  0  0  0  0
 31 83  1  0  0  0  0
 32 64  2  0  0  0  0
 33 65  1  0  0  0  0
 33 68  1  0  0  0  0
 34 69  1  0  0  0  0
 34 75  2  0  0  0  0
 35 49  1  0  0  0  0
 35 70  1  0  0  0  0
 35 76  2  0  0  0  0
 36 61  1  0  0  0  0
 36 66  1  0  0  0  0
 36 77  2  0  0  0  0
 37 62  1  0  0  0  0
 37 71  1  0  0  0  0
 37 78  2  0  0  0  0
 38 67  1  0  0  0  0
 38 72  1  0  0  0  0
 38 79  2  0  0  0  0
 39 42  1  0  0  0  0
 40 49  1  0  0  0  0
 41 66  1  0  0  0  0
 42 44  1  0  0  0  0
 43 45  1  0  0  0  0
 43 46  1  0  0  0  0
 44 48  1  0  0  0  0
 45 50  1  0  0  0  0
 46 67  1  0  0  0  0
 47 50  1  0  0  0  0
 47 67  1  0  0  0  0
 48 70  1  0  0  0  0
 49 66  1  0  0  0  0
 50 65  1  0  0  0  0
 51 62  1  0  0  0  0
 52 63  1  0  0  0  0
 53 63  1  0  0  0  0
 54 63  1  0  0  0  0
 55 72  1  0  0  0  0
 56 73  1  0  0  0  0
 57 74  1  0  0  0  0
 58 74  1  0  0  0  0
 59 60  1  0  0  0  0
 59 74  1  0  0  0  0
 60 81  1  0  0  0  0
 61 63  1  0  0  0  0
 61 71  1  0  0  0  0
 62 73  1  0  0  0  0
 64 65  1  0  0  0  0
M  CHG  2  73   1  74   1
M  ISO  4  38 100  60 101  72 100  81 101
M  END
> <Batch ID>
0017

> <Smiles>
CNC(C)C(=O)NC(C(=O)N1Cc2cc([101O:1][101CH2:1]CN(C)Cc3cccc([100N:0](C)[100C:0](=O)N4CCCC(n5nc(-c6ccc(Oc7ccc(F)cc7F)cc6)c(C(N)=O)c5N)C4)c3)ccc2CC1C(=O)NC1CCCc2ccccc21)C(C)(C)C

> <Shape>
0.206

> <Color>
0.050

> <Negative vol penalty>
0.000

$$$$

  -OEChem-04042321003D

 76 84  0     1  0  0  0  0  0999 V2000
  -18.1672  -26.4704   22.6818 C   0  0  0  0  0  0  0  0  0  0  0  0
  -19.3423  -25.9786   22.1226 C   0  0  0  0  0  0  0  0  0  0  0  0
  -25.0844  -14.5727   20.7659 C   0  0  0  0  0  0  0  0  0  0  0  0
  -26.6130  -12.7068   20.9036 C   0  0  0  0  0  0  0  0  0  0  0  0
  -18.0891  -27.8060   23.0743 C   0  0  0  0  0  0  0  0  0  0  0  0
  -20.4397  -26.8224   21.9547 C   0  0  0  0  0  0  0  0  0  0  0  0
  -24.7867  -24.6686   23.4070 C   0  0  0  0  0  0  0  0  0  0  0  0
  -24.0651  -13.7082   20.3669 C   0  0  0  0  0  0  0  0  0  0  0  0
  -25.5936  -11.8423   20.5046 C   0  0  0  0  0  0  0  0  0  0  0  0
  -25.3668  -23.7518   22.5313 C   0  0  0  0  0  0  0  0  0  0  0  0
  -22.9182  -10.3314   21.9117 C   0  0  0  0  0  0  0  0  0  0  0  0
  -22.7741   -9.1344   22.6131 C   0  0  0  0  0  0  0  0  0  0  0  0
  -26.8949  -25.4558   21.7692 C   0  0  0  0  0  0  0  0  0  0  0  0
  -23.1570   -7.8943   20.5753 C   0  0  0  0  0  0  0  0  0  0  0  0
  -26.3585  -14.0720   21.0342 C   0  0  0  0  0  0  0  0  0  0  0  0
  -27.7463  -15.3353   22.7621 C   0  0  0  0  0  0  0  0  0  0  0  0
  -19.1892  -28.6642   22.9200 C   0  0  0  0  0  0  0  0  0  0  0  0
  -25.2500  -25.9910   23.4626 C   0  0  0  0  0  0  0  0  0  0  0  0
  -20.3757  -28.1711   22.3443 C   0  0  0  0  0  0  0  0  0  0  0  0
  -26.3207  -26.3867   22.6483 C   0  0  0  0  0  0  0  0  0  0  0  0
  -24.3197  -12.3430   20.2363 C   0  0  0  0  0  0  0  0  0  0  0  0
  -26.4191  -24.1461   21.7101 C   0  0  0  0  0  0  0  0  0  0  0  0
  -23.1816  -10.3099   20.5420 C   0  0  0  0  0  0  0  0  0  0  0  0
  -22.8936   -7.9158   21.9449 C   0  0  0  0  0  0  0  0  0  0  0  0
  -23.3011   -9.0913   19.8739 C   0  0  0  0  0  0  0  0  0  0  0  0
  -27.4120  -14.9646   21.4458 C   0  0  0  0  0  0  0  0  0  0  0  0
  -28.8086  -16.1938   22.6177 C   0  0  0  0  0  0  0  0  0  0  0  0
  -27.1499  -14.9389   24.0042 C   0  0  0  0  0  0  0  0  0  0  0  0
  -23.9677  -28.8429   22.8914 C   0  0  0  0  0  0  0  0  0  0  0  0
  -26.8051  -29.9160   24.0403 C   0  0  0  0  0  0  0  0  0  0  0  0
  -30.1123  -29.3069   24.6216 C   0  0  0  0  0  0  0  0  0  0  0  0
  -31.3308  -20.4165   20.0945 C   0  0  0  0  0  0  0  0  0  0  0  0
  -19.0416  -30.1121   23.3156 C   0  0  0  0  0  0  0  0  0  0  0  0
  -24.6312  -26.9606   24.4318 C   0  0  0  0  0  0  0  0  0  0  0  0
  -26.8683  -27.7893   22.6844 C   0  0  0  0  0  0  0  0  0  0  0  0
  -20.3735  -30.8460   23.4485 C   0  0  0  0  0  0  0  0  0  0  0  0
  -31.6615  -17.2762   18.5991 C   0  0  0  0  0  0  0  0  0  0  0  0
  -21.2705  -30.5452   22.2520 C   0  0  0  0  0  0  0  0  0  0  0  0
  -30.6065  -16.4194   19.2961 C   0  0  0  0  0  0  0  0  0  0  0  0
  -28.8771  -22.2974   22.2434 C   0  0  0  0  0  0  0  0  0  0  0  0
  -28.4190  -21.2041   20.4724 C   0  0  0  0  0  0  0  0  0  0  0  0
  -31.1347  -18.6823   18.3410 C   0  0  0  0  0  0  0  0  0  0  0  0
  -29.6257  -18.5442   20.3000 C   0  0  0  0  0  0  0  0  0  0  0  0
  -21.5958  -29.0490   22.1687 C   0  0  1  0  0  0  0  0  0  0  0  0
  -24.8436  -28.4186   24.0361 C   0  0  1  0  0  0  0  0  0  0  0  0
  -30.1050  -17.1045   20.5784 C   0  0  1  0  0  0  0  0  0  0  0  0
  -29.4029  -20.9773   21.6402 C   0  0  0  0  0  0  0  0  0  0  0  0
  -27.5786  -22.0783   21.4320 C   0  0  0  0  0  0  0  0  0  1  0  0
  -32.1831  -30.3882   25.5381 C   0  0  0  0  0  0  0  0  0  0  0  0
  -27.0791  -31.5547   21.4811 C   0  0  0  0  0  0  0  0  0  0  0  0
  -29.5105  -31.8388   22.0062 C   0  0  0  0  0  0  0  0  0  0  0  0
  -27.7858  -32.7460   23.5634 C   0  0  0  0  0  0  0  0  0  0  0  0
  -31.6403  -21.9416   22.0030 C   0  0  0  0  0  0  0  0  0  0  0  0
  -30.3748  -27.2680   26.7507 C   0  0  0  0  0  0  0  0  0  0  0  0
  -28.1475  -30.2471   23.4343 C   0  0  1  0  0  0  0  0  0  0  0  0
  -30.9746  -29.5201   25.8526 C   0  0  2  0  0  0  0  0  0  0  0  0
  -28.1194  -31.5707   22.6189 C   0  0  0  0  0  0  0  0  0  0  0  0
  -28.1982  -15.5406   20.5325 N   0  0  0  0  0  0  0  0  0  0  0  0
  -29.0369  -16.2820   21.2760 N   0  0  0  0  0  0  0  0  0  0  0  0
  -26.2257  -28.7022   23.6442 N   0  0  0  0  0  0  0  0  0  0  0  0
  -30.6507  -19.3068   19.5729 N   0  0  0  0  0  0  0  0  0  0  0  0
  -29.5603  -16.8744   23.5089 N   0  0  0  0  0  0  0  0  0  0  0  0
  -26.0667  -14.0501   23.9718 N   0  0  0  0  0  0  0  0  0  0  0  0
  -22.6151  -28.6989   23.1345 N   0  0  0  0  0  0  0  0  0  0  0  0
  -29.1044  -30.2439   24.5355 N   0  0  0  0  0  0  0  0  0  0  0  0
  -30.8073  -20.9986   21.2636 N   0  0  0  0  0  0  0  0  0  0  0  0
  -31.4592  -28.2126   26.3785 N   0  3  0  0  0  0  0  0  0  0  0  0
  -27.5547  -15.3732   25.1092 O   0  0  0  0  0  0  0  0  0  0  0  0
  -24.4810  -29.2706   21.8641 O   0  0  0  0  0  0  0  0  0  0  0  0
  -26.2928  -30.7019   24.8414 O   0  0  0  0  0  0  0  0  0  0  0  0
  -30.3149  -28.4019   23.8150 O   0  0  0  0  0  0  0  0  0  0  0  0
  -32.3329  -20.8814   19.5363 O   0  0  0  0  0  0  0  0  0  0  0  0
  -23.3252  -11.4991   19.8472 O   0  0  0  0  0  0  0  0  0  0  0  0
  -26.9867  -23.2535   20.8540 O   0  0  0  0  0  0  0  0  0  1  0  0
  -22.7567   -6.7664   22.6189 F   0  0  0  0  0  0  0  0  0  0  0  0
  -23.5552   -9.0643   18.5584 F   0  0  0  0  0  0  0  0  0  0  0  0
  1  2  1  0  0  0  0
  1  5  2  0  0  0  0
  2  6  2  0  0  0  0
  3  8  2  0  0  0  0
  3 15  1  0  0  0  0
  4  9  1  0  0  0  0
  4 15  2  0  0  0  0
  5 17  1  0  0  0  0
  6 19  1  0  0  0  0
  7 10  2  0  0  0  0
  7 18  1  0  0  0  0
  8 21  1  0  0  0  0
  9 21  2  0  0  0  0
 10 22  1  0  0  0  0
 11 12  2  0  0  0  0
 11 23  1  0  0  0  0
 12 24  1  0  0  0  0
 13 20  1  0  0  0  0
 13 22  2  0  0  0  0
 14 24  2  0  0  0  0
 14 25  1  0  0  0  0
 15 26  1  0  0  0  0
 16 26  1  0  0  0  0
 16 27  2  0  0  0  0
 16 28  1  0  0  0  0
 17 19  2  0  0  0  0
 17 33  1  0  0  0  0
 18 20  2  0  0  0  0
 18 34  1  0  0  0  0
 19 44  1  0  0  0  0
 20 35  1  0  0  0  0
 21 73  1  0  0  0  0
 22 74  1  0  0  0  0
 23 25  2  0  0  0  0
 23 73  1  0  0  0  0
 24 75  1  0  0  0  0
 25 76  1  0  0  0  0
 26 58  2  0  0  0  0
 27 59  1  0  0  0  0
 27 62  1  0  0  0  0
 28 63  1  0  0  0  0
 28 68  2  0  0  0  0
 29 45  1  0  0  0  0
 29 64  1  0  0  0  0
 29 69  2  0  0  0  0
 30 55  1  0  0  0  0
 30 60  1  0  0  0  0
 30 70  2  0  0  0  0
 31 56  1  0  0  0  0
 31 65  1  0  0  0  0
 31 71  2  0  0  0  0
 32 61  1  0  0  0  0
 32 66  1  0  0  0  0
 32 72  2  0  0  0  0
 33 36  1  0  0  0  0
 34 45  1  0  0  0  0
 35 60  1  0  0  0  0
 36 38  1  0  0  0  0
 37 39  1  0  0  0  0
 37 42  1  0  0  0  0
 38 44  1  0  0  0  0
 39 46  1  0  0  0  0
 40 47  1  0  0  0  0
 40 48  1  0  0  0  0
 41 47  1  0  0  0  0
 41 48  1  0  0  0  0
 42 61  1  0  0  0  0
 43 46  1  0  0  0  0
 43 61  1  0  0  0  0
 44 64  1  0  0  0  0
 45 60  1  0  0  0  0
 46 59  1  0  0  0  0
 47 66  1  0  0  0  0
 48 74  1  0  0  0  0
 49 56  1  0  0  0  0
 50 57  1  0  0  0  0
 51 57  1  0  0  0  0
 52 57  1  0  0  0  0
 53 66  1  0  0  0  0
 54 67  1  0  0  0  0
 55 57  1  0  0  0  0
 55 65  1  0  0  0  0
 56 67  1  0  0  0  0
 58 59  1  0  0  0  0
M  CHG  1  67   1
M  ISO  4  32 100  48 101  66 100  74 101
M  END
> <Batch ID>
0017

> <Smiles>
CNC(C)C(=O)NC(C(=O)N1Cc2cc([101O:1][101CH:1]3CC([100N:0](C)[100C:0](=O)N4CCCC(n5nc(-c6ccc(Oc7ccc(F)cc7F)cc6)c(C(N)=O)c5N)C4)C3)ccc2CC1C(=O)NC1CCCc2ccccc21)C(C)(C)C

> <Shape>
0.234

> <Color>
0.054

> <Negative vol penalty>
0.000

$$$$

  -OEChem-04042321003D

 88 96  0     1  0  0  0  0  0999 V2000
  -19.9644   -9.9351   21.7969 C   0  0  0  0  0  0  0  0  0  0  0  0
  -20.3892  -10.9915   22.5963 C   0  0  0  0  0  0  0  0  0  0  0  0
  -24.8452  -29.0179   22.0030 C   0  0  0  0  0  0  0  0  0  0  0  0
  -23.9250  -30.0356   20.0144 C   0  0  0  0  0  0  0  0  0  0  0  0
  -20.8940   -9.2023   21.0602 C   0  0  0  0  0  0  0  0  0  0  0  0
  -21.7440  -11.3150   22.6603 C   0  0  0  0  0  0  0  0  0  0  0  0
  -24.1694  -16.9061   23.2633 C   0  0  0  0  0  0  0  0  0  0  0  0
  -26.6753  -20.9840   22.2804 C   0  0  0  0  0  0  0  0  0  0  0  0
  -25.7119  -20.8084   21.2872 C   0  0  0  0  0  0  0  0  0  0  0  0
  -25.4956  -30.2121   22.3133 C   0  0  0  0  0  0  0  0  0  0  0  0
  -24.5753  -31.2299   20.3247 C   0  0  0  0  0  0  0  0  0  0  0  0
  -24.6580  -17.6024   24.3680 C   0  0  0  0  0  0  0  0  0  0  0  0
  -24.6963  -33.2042   23.6702 C   0  0  0  0  0  0  0  0  0  0  0  0
  -24.6321  -33.6536   24.9891 C   0  0  0  0  0  0  0  0  0  0  0  0
  -26.8963  -16.8889   23.8200 C   0  0  0  0  0  0  0  0  0  0  0  0
  -24.9315  -21.4180   23.8953 C   0  0  0  0  0  0  0  0  0  0  0  0
  -27.0412  -33.5530   25.1406 C   0  0  0  0  0  0  0  0  0  0  0  0
  -24.0599  -28.9296   20.8535 C   0  0  0  0  0  0  0  0  0  0  0  0
  -22.0959  -27.3033   20.9290 C   0  0  0  0  0  0  0  0  0  0  0  0
  -22.2598   -9.5232   21.1076 C   0  0  0  0  0  0  0  0  0  0  0  0
  -25.0407  -16.1858   22.4336 C   0  0  0  0  0  0  0  0  0  0  0  0
  -22.6930  -10.5850   21.9245 C   0  0  0  0  0  0  0  0  0  0  0  0
  -26.4166  -16.1864   22.7040 C   0  0  0  0  0  0  0  0  0  0  0  0
  -26.2852  -21.2887   23.5845 C   0  0  0  0  0  0  0  0  0  0  0  0
  -24.3582  -20.9377   21.5980 C   0  0  0  0  0  0  0  0  0  0  0  0
  -25.3607  -31.3182   21.4742 C   0  0  0  0  0  0  0  0  0  0  0  0
  -26.0213  -17.5915   24.6481 C   0  0  0  0  0  0  0  0  0  0  0  0
  -25.9329  -32.9291   23.0865 C   0  0  0  0  0  0  0  0  0  0  0  0
  -25.8046  -33.8280   25.7243 C   0  0  0  0  0  0  0  0  0  0  0  0
  -23.9680  -21.2425   22.9021 C   0  0  0  0  0  0  0  0  0  0  0  0
  -27.1054  -33.1035   23.8217 C   0  0  0  0  0  0  0  0  0  0  0  0
  -23.3882  -27.6960   20.5322 C   0  0  0  0  0  0  0  0  0  0  0  0
  -21.9278  -26.0603   20.3696 C   0  0  0  0  0  0  0  0  0  0  0  0
  -21.1334  -28.0000   21.7315 C   0  0  0  0  0  0  0  0  0  0  0  0
  -25.3598  -13.1260   21.6339 C   0  0  0  0  0  0  0  0  0  0  0  0
  -27.5964  -14.2952   19.5960 C   0  0  0  0  0  0  0  0  0  0  0  0
  -29.7997  -16.7868   18.8321 C   0  0  0  0  0  0  0  0  0  0  0  0
  -23.6417  -21.0651   19.2186 C   0  0  0  0  0  0  0  0  0  0  0  0
  -23.2328   -8.6724   20.3304 C   0  0  0  0  0  0  0  0  0  0  0  0
  -24.5012  -15.4618   21.2306 C   0  0  0  0  0  0  0  0  0  0  0  0
  -27.3963  -15.4453   21.8327 C   0  0  0  0  0  0  0  0  0  0  0  0
  -24.6062   -9.3171   20.1619 C   0  0  0  0  0  0  0  0  0  0  0  0
  -24.6821  -23.5850   16.9358 C   0  0  0  0  0  0  0  0  0  0  0  0
  -25.0949   -9.8870   21.4898 C   0  0  0  0  0  0  0  0  0  0  0  0
  -24.3396  -24.8568   17.7110 C   0  0  0  0  0  0  0  0  0  0  0  0
  -25.2437  -22.4930   17.8469 C   0  0  0  0  0  0  0  0  0  0  0  0
  -24.0389  -23.4502   19.7851 C   0  0  0  0  0  0  0  0  0  0  0  0
  -24.1512  -10.9822   22.0009 C   0  0  1  0  0  0  0  0  0  0  0  0
  -25.4152  -14.3392   20.7492 C   0  0  1  0  0  0  0  0  0  0  0  0
  -23.4184  -24.5453   18.9037 C   0  0  1  0  0  0  0  0  0  0  0  0
  -29.8993  -23.9014   23.2542 C   0  0  0  0  0  0  0  0  0  0  0  0
  -26.1965  -23.5554   26.3698 C   0  0  0  0  0  0  0  0  0  0  0  0
  -31.5154  -17.4436   17.1226 C   0  0  0  0  0  0  0  0  0  0  0  0
  -29.5597  -12.2946   20.8014 C   0  0  0  0  0  0  0  0  0  0  0  0
  -31.4245  -13.6102   19.7719 C   0  0  0  0  0  0  0  0  0  0  0  0
  -29.7081  -12.5340   18.3164 C   0  0  0  0  0  0  0  0  0  0  0  0
  -22.1398  -20.0173   20.8984 C   0  0  0  0  0  0  0  0  0  0  0  0
  -28.3008  -19.2305   18.0969 C   0  0  0  0  0  0  0  0  0  0  0  0
  -28.5235  -23.3700   23.6302 C   0  0  0  0  0  0  0  0  0  0  0  0
  -27.1208  -22.4301   26.8176 C   0  0  0  0  0  0  0  0  0  0  0  0
  -27.9190  -20.0629   26.4580 C   0  0  0  0  0  0  0  0  0  0  0  0
  -28.5778  -21.9754   24.2422 C   0  0  0  0  0  0  0  0  0  0  0  0
  -27.8287  -18.7837   25.6319 C   0  0  0  0  0  0  0  0  0  1  0  0
  -29.0787  -14.5691   19.6782 C   0  0  1  0  0  0  0  0  0  0  0  0
  -30.0569  -17.5434   17.5414 C   0  0  2  0  0  0  0  0  0  0  0  0
  -26.9642  -21.1598   25.9684 C   0  0  2  0  0  0  0  0  0  0  0  0
  -29.9243  -13.2645   19.6597 C   0  0  0  0  0  0  0  0  0  0  0  0
  -23.9979  -26.7768   19.7790 N   0  0  0  0  0  0  0  0  0  0  0  0
  -23.0847  -25.7941   19.6981 N   0  0  0  0  0  0  0  0  0  0  0  0
  -26.8193  -14.7475   20.6718 N   0  0  0  0  0  0  0  0  0  0  0  0
  -24.3515  -22.2593   18.9912 N   0  0  0  0  0  0  0  0  0  0  0  0
  -20.9047  -25.1798   20.3915 N   0  0  0  0  0  0  0  0  0  0  0  0
  -21.4683  -29.2678   22.2263 N   0  0  0  0  0  0  0  0  0  0  0  0
  -24.3775  -12.2191   21.2844 N   0  0  0  0  0  0  0  0  0  0  0  0
  -29.3837  -15.4943   18.5923 N   0  0  0  0  0  0  0  0  0  0  0  0
  -23.3633  -20.7558   20.5673 N   0  0  0  0  0  0  0  0  0  0  0  0
  -27.2516  -21.4641   24.5808 N   0  0  3  0  0  0  0  0  0  0  0  0
  -29.7132  -18.9839   17.7081 N   0  3  0  0  0  0  0  0  0  0  0  0
  -20.0160  -27.5057   22.0155 O   0  0  0  0  0  0  0  0  0  0  0  0
  -26.1507  -13.0197   22.5639 O   0  0  0  0  0  0  0  0  0  0  0  0
  -27.1437  -13.7080   18.6101 O   0  0  0  0  0  0  0  0  0  0  0  0
  -29.9562  -17.2908   19.9421 O   0  0  0  0  0  0  0  0  0  0  0  0
  -23.2630  -20.3443   18.2875 O   0  0  0  0  0  0  0  0  0  0  0  0
  -25.9950  -32.4838   21.7767 O   0  0  0  0  0  0  0  0  0  0  0  0
  -26.5008  -18.2698   25.7260 O   0  0  0  0  0  0  0  0  0  1  0  0
  -25.7429  -34.2611   26.9903 F   0  0  0  0  0  0  0  0  0  0  0  0
  -22.6698  -21.3695   23.2118 F   0  0  0  0  0  0  0  0  0  0  0  0
  -28.2964  -32.8420   23.2659 F   0  0  0  0  0  0  0  0  0  0  0  0
  1  2  1  0  0  0  0
  1  5  2  0  0  0  0
  2  6  2  0  0  0  0
  3 10  2  0  0  0  0
  3 18  1  0  0  0  0
  4 11  1  0  0  0  0
  4 18  2  0  0  0  0
  5 20  1  0  0  0  0
  6 22  1  0  0  0  0
  7 12  2  0  0  0  0
  7 21  1  0  0  0  0
  8  9  2  0  0  0  0
  8 24  1  0  0  0  0
  9 25  1  0  0  0  0
 10 26  1  0  0  0  0
 11 26  2  0  0  0  0
 12 27  1  0  0  0  0
 13 14  2  0  0  0  0
 13 28  1  0  0  0  0
 14 29  1  0  0  0  0
 15 23  1  0  0  0  0
 15 27  2  0  0  0  0
 16 24  2  0  0  0  0
 16 30  1  0  0  0  0
 17 29  2  0  0  0  0
 17 31  1  0  0  0  0
 18 32  1  0  0  0  0
 19 32  1  0  0  0  0
 19 33  2  0  0  0  0
 19 34  1  0  0  0  0
 20 22  2  0  0  0  0
 20 39  1  0  0  0  0
 21 23  2  0  0  0  0
 21 40  1  0  0  0  0
 22 48  1  0  0  0  0
 23 41  1  0  0  0  0
 24 77  1  0  0  0  0
 25 30  2  0  0  0  0
 25 76  1  0  0  0  0
 26 84  1  0  0  0  0
 27 85  1  0  0  0  0
 28 31  2  0  0  0  0
 28 84  1  0  0  0  0
 29 86  1  0  0  0  0
 30 87  1  0  0  0  0
 31 88  1  0  0  0  0
 32 68  2  0  0  0  0
 33 69  1  0  0  0  0
 33 72  1  0  0  0  0
 34 73  1  0  0  0  0
 34 79  2  0  0  0  0
 35 49  1  0  0  0  0
 35 74  1  0  0  0  0
 35 80  2  0  0  0  0
 36 64  1  0  0  0  0
 36 70  1  0  0  0  0
 36 81  2  0  0  0  0
 37 65  1  0  0  0  0
 37 75  1  0  0  0  0
 37 82  2  0  0  0  0
 38 71  1  0  0  0  0
 38 76  1  0  0  0  0
 38 83  2  0  0  0  0
 39 42  1  0  0  0  0
 40 49  1  0  0  0  0
 41 70  1  0  0  0  0
 42 44  1  0  0  0  0
 43 45  1  0  0  0  0
 43 46  1  0  0  0  0
 44 48  1  0  0  0  0
 45 50  1  0  0  0  0
 46 71  1  0  0  0  0
 47 50  1  0  0  0  0
 47 71  1  0  0  0  0
 48 74  1  0  0  0  0
 49 70  1  0  0  0  0
 50 69  1  0  0  0  0
 51 59  1  0  0  0  0
 52 60  1  0  0  0  0
 53 65  1  0  0  0  0
 54 67  1  0  0  0  0
 55 67  1  0  0  0  0
 56 67  1  0  0  0  0
 57 76  1  0  0  0  0
 58 78  1  0  0  0  0
 59 62  1  0  0  0  0
 60 66  1  0  0  0  0
 61 63  1  0  0  0  0
 61 66  1  0  0  0  0
 62 77  1  0  0  0  0
 63 85  1  0  0  0  0
 64 67  1  0  0  0  0
 64 75  1  0  0  0  0
 65 78  1  0  0  0  0
 66 77  1  0  0  0  0
 68 69  1  0  0  0  0
M  CHG  1  78   1
M  ISO  4  38 100  63 101  76 100  85 101
M  END
> <Batch ID>
0017

> <Smiles>
CCCN(c1ccc([100N:0](C)[100C:0](=O)N2CCCC(n3nc(-c4ccc(Oc5ccc(F)cc5F)cc4)c(C(N)=O)c3N)C2)c(F)c1)C(CC)C[101CH2:1][101O:1]c1ccc2c(c1)CN(C(=O)C(NC(=O)C(C)NC)C(C)(C)C)C(C(=O)NC1CCCc3ccccc31)C2

> <Shape>
0.210

> <Color>
0.062

> <Negative vol penalty>
0.000

$$$$

  -OEChem-04042321003D

 84 92  0     1  0  0  0  0  0999 V2000
  -20.1539  -30.2680   26.9705 C   0  0  0  0  0  0  0  0  0  0  0  0
  -21.3847  -29.7778   26.5460 C   0  0  0  0  0  0  0  0  0  0  0  0
  -26.0694  -12.5092   20.7230 C   0  0  0  0  0  0  0  0  0  0  0  0
  -24.5596  -13.6076   19.1897 C   0  0  0  0  0  0  0  0  0  0  0  0
  -19.0423  -30.1763   26.1340 C   0  0  0  0  0  0  0  0  0  0  0  0
  -21.5043  -29.1944   25.2851 C   0  0  0  0  0  0  0  0  0  0  0  0
  -26.3500  -29.4618   21.5497 C   0  0  0  0  0  0  0  0  0  0  0  0
  -28.5130  -21.1947   22.9802 C   0  0  0  0  0  0  0  0  0  0  0  0
  -30.5392  -19.9818   22.4696 C   0  0  0  0  0  0  0  0  0  0  0  0
  -28.5852  -21.8358   21.7435 C   0  0  0  0  0  0  0  0  0  0  0  0
  -30.6113  -20.6228   21.2329 C   0  0  0  0  0  0  0  0  0  0  0  0
  -25.4445  -11.2893   20.4646 C   0  0  0  0  0  0  0  0  0  0  0  0
  -23.9347  -12.3876   18.9312 C   0  0  0  0  0  0  0  0  0  0  0  0
  -27.3930  -28.5707   21.3011 C   0  0  0  0  0  0  0  0  0  0  0  0
  -22.6168   -9.6920   21.4012 C   0  0  0  0  0  0  0  0  0  0  0  0
  -22.3133   -8.8764   22.4912 C   0  0  0  0  0  0  0  0  0  0  0  0
  -26.1963  -27.7124   19.3904 C   0  0  0  0  0  0  0  0  0  0  0  0
  -23.7088   -7.1307   21.5736 C   0  0  0  0  0  0  0  0  0  0  0  0
  -25.6270  -13.6684   20.0856 C   0  0  0  0  0  0  0  0  0  0  0  0
  -27.3699  -15.4838   19.6685 C   0  0  0  0  0  0  0  0  0  0  0  0
  -19.1504  -29.6003   24.8584 C   0  0  0  0  0  0  0  0  0  0  0  0
  -25.2155  -29.4774   20.7255 C   0  0  0  0  0  0  0  0  0  0  0  0
  -20.3927  -29.0937   24.4313 C   0  0  0  0  0  0  0  0  0  0  0  0
  -25.1414  -28.6064   19.6292 C   0  0  0  0  0  0  0  0  0  0  0  0
  -29.4901  -20.2677   23.3433 C   0  0  0  0  0  0  0  0  0  0  0  0
  -29.6342  -21.5499   20.8699 C   0  0  0  0  0  0  0  0  0  0  0  0
  -24.3771  -11.2285   19.5687 C   0  0  0  0  0  0  0  0  0  0  0  0
  -27.3150  -27.6938   20.2231 C   0  0  0  0  0  0  0  0  0  0  0  0
  -23.4662   -9.2270   20.3972 C   0  0  0  0  0  0  0  0  0  0  0  0
  -22.8593   -7.5958   22.5775 C   0  0  0  0  0  0  0  0  0  0  0  0
  -24.0123   -7.9463   20.4835 C   0  0  0  0  0  0  0  0  0  0  0  0
  -26.2718  -14.9290   20.3526 C   0  0  0  0  0  0  0  0  0  0  0  0
  -27.5984  -16.6818   20.3003 C   0  0  0  0  0  0  0  0  0  0  0  0
  -28.1166  -14.9630   18.5608 C   0  0  0  0  0  0  0  0  0  0  0  0
  -22.1151  -28.9328   21.1663 C   0  0  0  0  0  0  0  0  0  0  0  0
  -21.9006  -29.9270   18.0861 C   0  0  0  0  0  0  0  0  0  0  0  0
  -23.4315  -30.3531   15.0659 C   0  0  0  0  0  0  0  0  0  0  0  0
  -28.2024  -19.3330   25.2822 C   0  0  0  0  0  0  0  0  0  0  0  0
  -17.9103  -29.4806   24.0084 C   0  0  0  0  0  0  0  0  0  0  0  0
  -24.1109  -30.4631   20.9913 C   0  0  0  0  0  0  0  0  0  0  0  0
  -23.9543  -28.5974   18.7023 C   0  0  0  0  0  0  0  0  0  0  0  0
  -18.2047  -29.1868   22.5396 C   0  0  0  0  0  0  0  0  0  0  0  0
  -24.8641  -19.2329   23.6888 C   0  0  0  0  0  0  0  0  0  0  0  0
  -19.2375  -28.0711   22.4150 C   0  0  0  0  0  0  0  0  0  0  0  0
  -25.0024  -18.0917   22.6828 C   0  0  0  0  0  0  0  0  0  0  0  0
  -25.7767  -19.0377   24.8957 C   0  0  0  0  0  0  0  0  0  0  0  0
  -27.3531  -17.7060   23.5235 C   0  0  0  0  0  0  0  0  0  0  0  0
  -20.5680  -28.4764   23.0608 C   0  0  1  0  0  0  0  0  0  0  0  0
  -22.7741  -30.0385   20.3913 C   0  0  1  0  0  0  0  0  0  0  0  0
  -26.4736  -17.8997   22.2792 C   0  0  1  0  0  0  0  0  0  0  0  0
  -31.0492  -20.7288   26.0864 C   0  0  0  0  0  0  0  0  0  0  0  0
  -22.9895  -31.1527   12.7287 C   0  0  0  0  0  0  0  0  0  0  0  0
  -20.4048  -27.3363   17.4853 C   0  0  0  0  0  0  0  0  0  0  0  0
  -20.8291  -27.7376   15.0507 C   0  0  0  0  0  0  0  0  0  0  0  0
  -19.4688  -29.3657   16.3628 C   0  0  0  0  0  0  0  0  0  0  0  0
  -30.8073  -21.8933   18.7097 C   0  0  0  0  0  0  0  0  0  0  0  0
  -25.4637  -32.4931   15.2895 C   0  0  0  0  0  0  0  0  0  0  0  0
  -28.9926  -24.5222   19.8040 C   0  0  0  0  0  0  0  0  0  0  0  0
  -30.6536  -19.4460   25.3833 C   0  0  0  0  0  0  0  0  0  0  0  0
  -28.7043  -23.1473   19.2134 C   0  0  0  0  0  0  0  0  0  0  0  0
  -27.9890  -25.5813   19.3633 C   0  0  0  0  0  0  0  0  0  1  0  0
  -21.9665  -29.2515   16.7376 C   0  0  1  0  0  0  0  0  0  0  0  0
  -23.4759  -31.5374   14.1173 C   0  0  2  0  0  0  0  0  0  0  0  0
  -20.6889  -28.4214   16.4275 C   0  0  0  0  0  0  0  0  0  0  0  0
  -25.8332  -15.7102   21.3432 N   0  0  0  0  0  0  0  0  0  0  0  0
  -26.6600  -16.7681   21.2863 N   0  0  0  0  0  0  0  0  0  0  0  0
  -22.8971  -29.5755   19.0075 N   0  0  0  0  0  0  0  0  0  0  0  0
  -27.1635  -18.7963   24.4942 N   0  0  0  0  0  0  0  0  0  0  0  0
  -28.5085  -17.6592   20.1031 N   0  0  0  0  0  0  0  0  0  0  0  0
  -27.7481  -13.7180   18.0330 N   0  0  0  0  0  0  0  0  0  0  0  0
  -21.2995  -29.3727   22.1913 N   0  0  0  0  0  0  0  0  0  0  0  0
  -22.2451  -30.3043   15.7669 N   0  0  0  0  0  0  0  0  0  0  0  0
  -29.4161  -19.6061   24.6230 N   0  0  0  0  0  0  0  0  0  0  0  0
  -29.7058  -22.1940   19.6263 N   0  0  3  0  0  0  0  0  0  0  0  0
  -24.8682  -32.0558   14.0006 N   0  3  0  0  0  0  0  0  0  0  0  0
  -29.0923  -15.5757   18.0647 O   0  0  0  0  0  0  0  0  0  0  0  0
  -22.3294  -27.7667   20.8563 O   0  0  0  0  0  0  0  0  0  0  0  0
  -21.0022  -30.7419   18.3109 O   0  0  0  0  0  0  0  0  0  0  0  0
  -24.3553  -29.5494   15.1716 O   0  0  0  0  0  0  0  0  0  0  0  0
  -28.0771  -19.5053   26.5009 O   0  0  0  0  0  0  0  0  0  0  0  0
  -23.7672  -10.0382   19.3160 O   0  0  0  0  0  0  0  0  0  0  0  0
  -28.3314  -26.8225   19.9786 O   0  0  0  0  0  0  0  0  0  1  0  0
  -22.5690   -6.8133   23.6251 F   0  0  0  0  0  0  0  0  0  0  0  0
  -24.8299   -7.4945   19.5227 F   0  0  0  0  0  0  0  0  0  0  0  0
  1  2  1  0  0  0  0
  1  5  2  0  0  0  0
  2  6  2  0  0  0  0
  3 12  2  0  0  0  0
  3 19  1  0  0  0  0
  4 13  1  0  0  0  0
  4 19  2  0  0  0  0
  5 21  1  0  0  0  0
  6 23  1  0  0  0  0
  7 14  2  0  0  0  0
  7 22  1  0  0  0  0
  8 10  2  0  0  0  0
  8 25  1  0  0  0  0
  9 11  1  0  0  0  0
  9 25  2  0  0  0  0
 10 26  1  0  0  0  0
 11 26  2  0  0  0  0
 12 27  1  0  0  0  0
 13 27  2  0  0  0  0
 14 28  1  0  0  0  0
 15 16  2  0  0  0  0
 15 29  1  0  0  0  0
 16 30  1  0  0  0  0
 17 24  1  0  0  0  0
 17 28  2  0  0  0  0
 18 30  2  0  0  0  0
 18 31  1  0  0  0  0
 19 32  1  0  0  0  0
 20 32  1  0  0  0  0
 20 33  2  0  0  0  0
 20 34  1  0  0  0  0
 21 23  2  0  0  0  0
 21 39  1  0  0  0  0
 22 24  2  0  0  0  0
 22 40  1  0  0  0  0
 23 48  1  0  0  0  0
 24 41  1  0  0  0  0
 25 73  1  0  0  0  0
 26 74  1  0  0  0  0
 27 81  1  0  0  0  0
 28 82  1  0  0  0  0
 29 31  2  0  0  0  0
 29 81  1  0  0  0  0
 30 83  1  0  0  0  0
 31 84  1  0  0  0  0
 32 65  2  0  0  0  0
 33 66  1  0  0  0  0
 33 69  1  0  0  0  0
 34 70  1  0  0  0  0
 34 76  2  0  0  0  0
 35 49  1  0  0  0  0
 35 71  1  0  0  0  0
 35 77  2  0  0  0  0
 36 62  1  0  0  0  0
 36 67  1  0  0  0  0
 36 78  2  0  0  0  0
 37 63  1  0  0  0  0
 37 72  1  0  0  0  0
 37 79  2  0  0  0  0
 38 68  1  0  0  0  0
 38 73  1  0  0  0  0
 38 80  2  0  0  0  0
 39 42  1  0  0  0  0
 40 49  1  0  0  0  0
 41 67  1  0  0  0  0
 42 44  1  0  0  0  0
 43 45  1  0  0  0  0
 43 46  1  0  0  0  0
 44 48  1  0  0  0  0
 45 50  1  0  0  0  0
 46 68  1  0  0  0  0
 47 50  1  0  0  0  0
 47 68  1  0  0  0  0
 48 71  1  0  0  0  0
 49 67  1  0  0  0  0
 50 66  1  0  0  0  0
 51 59  1  0  0  0  0
 52 63  1  0  0  0  0
 53 64  1  0  0  0  0
 54 64  1  0  0  0  0
 55 64  1  0  0  0  0
 56 74  1  0  0  0  0
 57 75  1  0  0  0  0
 58 60  1  0  0  0  0
 58 61  1  0  0  0  0
 59 73  1  0  0  0  0
 60 74  1  0  0  0  0
 61 82  1  0  0  0  0
 62 64  1  0  0  0  0
 62 72  1  0  0  0  0
 63 75  1  0  0  0  0
 65 66  1  0  0  0  0
M  CHG  1  75   1
M  ISO  4  38 100  61 101  73 100  82 101
M  END
> <Batch ID>
0017

> <Smiles>
CC[100N:0](c1ccc(N(C)CC[101CH2:1][101O:1]c2ccc3c(c2)CN(C(=O)C(NC(=O)C(C)NC)C(C)(C)C)C(C(=O)NC2CCCc4ccccc42)C3)cc1)[100C:0](=O)N1CCCC(n2nc(-c3ccc(Oc4ccc(F)cc4F)cc3)c(C(N)=O)c2N)C1

> <Shape>
0.221

> <Color>
0.086

> <Negative vol penalty>
0.000

$$$$

  -OEChem-04042321003D

 84 93  0     1  0  0  0  0  0999 V2000
  -28.0516  -34.6949   24.6956 C   0  0  0  0  0  0  0  0  0  0  0  0
  -28.2255  -33.3803   24.2749 C   0  0  0  0  0  0  0  0  0  0  0  0
  -25.4111  -10.6810   21.4748 C   0  0  0  0  0  0  0  0  0  0  0  0
  -24.3116  -10.8041   23.6226 C   0  0  0  0  0  0  0  0  0  0  0  0
  -26.7880  -35.1410   25.0807 C   0  0  0  0  0  0  0  0  0  0  0  0
  -27.1360  -32.5106   24.2401 C   0  0  0  0  0  0  0  0  0  0  0  0
  -26.9670  -29.7775   19.9803 C   0  0  0  0  0  0  0  0  0  0  0  0
  -28.5874  -20.9953   20.5535 C   0  0  0  0  0  0  0  0  0  0  0  0
  -28.5623  -22.0804   19.6725 C   0  0  0  0  0  0  0  0  0  0  0  0
  -25.3028   -9.2906   21.4990 C   0  0  0  0  0  0  0  0  0  0  0  0
  -24.2033   -9.4137   23.6468 C   0  0  0  0  0  0  0  0  0  0  0  0
  -27.8311  -28.6872   19.8886 C   0  0  0  0  0  0  0  0  0  0  0  0
  -22.2241   -7.0467   22.2680 C   0  0  0  0  0  0  0  0  0  0  0  0
  -21.0007   -6.5002   22.6554 C   0  0  0  0  0  0  0  0  0  0  0  0
  -29.3062  -20.6695   17.8409 C   0  0  0  0  0  0  0  0  0  0  0  0
  -26.0168  -27.2081   20.4716 C   0  0  0  0  0  0  0  0  0  0  0  0
  -22.0870   -5.3726   24.4954 C   0  0  0  0  0  0  0  0  0  0  0  0
  -24.9155  -11.4378   22.5366 C   0  0  0  0  0  0  0  0  0  0  0  0
  -24.0985  -13.7905   21.9844 C   0  0  0  0  0  0  0  0  0  0  0  0
  -25.6807  -34.2791   25.0415 C   0  0  0  0  0  0  0  0  0  0  0  0
  -25.6216  -29.5921   20.3295 C   0  0  0  0  0  0  0  0  0  0  0  0
  -25.8567  -32.9452   24.6264 C   0  0  0  0  0  0  0  0  0  0  0  0
  -29.3209  -19.5974   18.7191 C   0  0  0  0  0  0  0  0  0  0  0  0
  -25.1371  -28.2974   20.5645 C   0  0  0  0  0  0  0  0  0  0  0  0
  -28.9695  -19.7561   20.0609 C   0  0  0  0  0  0  0  0  0  0  0  0
  -28.9189  -21.9191   18.3257 C   0  0  0  0  0  0  0  0  0  0  0  0
  -24.6989   -8.6569   22.5850 C   0  0  0  0  0  0  0  0  0  0  0  0
  -27.3567  -27.4026   20.1371 C   0  0  0  0  0  0  0  0  0  0  0  0
  -23.3791   -6.7562   22.9943 C   0  0  0  0  0  0  0  0  0  0  0  0
  -20.9321   -5.6632   23.7691 C   0  0  0  0  0  0  0  0  0  0  0  0
  -23.3105   -5.9191   24.1080 C   0  0  0  0  0  0  0  0  0  0  0  0
  -25.0276  -12.8741   22.5124 C   0  0  0  0  0  0  0  0  0  0  0  0
  -24.6665  -15.0213   22.2056 C   0  0  0  0  0  0  0  0  0  0  0  0
  -22.8349  -13.5506   21.3508 C   0  0  0  0  0  0  0  0  0  0  0  0
  -23.7761  -30.5487   22.7342 C   0  0  0  0  0  0  0  0  0  0  0  0
  -21.4327  -29.1549   20.9769 C   0  0  0  0  0  0  0  0  0  0  0  0
  -20.5673  -26.8641   18.5999 C   0  0  0  0  0  0  0  0  0  0  0  0
  -29.1033  -18.3832   22.1286 C   0  0  0  0  0  0  0  0  0  0  0  0
  -24.3434  -34.7934   25.5124 C   0  0  0  0  0  0  0  0  0  0  0  0
  -24.6962  -30.7759   20.3980 C   0  0  0  0  0  0  0  0  0  0  0  0
  -29.7610  -18.1979   18.4331 C   0  0  0  0  0  0  0  0  0  0  0  0
  -23.6966  -28.0427   20.9230 C   0  0  0  0  0  0  0  0  0  0  0  0
  -23.1694  -33.9138   25.0899 C   0  0  0  0  0  0  0  0  0  0  0  0
  -28.6365  -16.3798   24.9982 C   0  0  0  0  0  0  0  0  0  0  0  0
  -23.4784  -32.4448   25.3606 C   0  0  0  0  0  0  0  0  0  0  0  0
  -27.6059  -15.3407   24.5646 C   0  0  0  0  0  0  0  0  0  0  0  0
  -29.3600  -17.4769   19.7263 C   0  0  0  0  0  0  0  0  0  0  0  0
  -29.6026  -16.6884   23.8625 C   0  0  0  0  0  0  0  0  0  0  0  0
  -27.8651  -16.1687   22.1679 C   0  0  0  0  0  0  0  0  0  0  0  0
  -24.6947  -31.9787   24.5514 C   0  0  1  0  0  0  0  0  0  0  0  0
  -23.4660  -30.5232   21.2642 C   0  0  1  0  0  0  0  0  0  0  0  0
  -26.8759  -15.7997   23.2927 C   0  0  1  0  0  0  0  0  0  0  0  0
  -18.5716  -25.9268   17.4015 C   0  0  0  0  0  0  0  0  0  0  0  0
  -20.7008  -27.5425   23.4617 C   0  0  0  0  0  0  0  0  0  0  0  0
  -19.3931  -25.9971   21.9886 C   0  0  0  0  0  0  0  0  0  0  0  0
  -18.7445  -28.3997   22.1608 C   0  0  0  0  0  0  0  0  0  0  0  0
  -29.2549  -22.8812   16.0626 C   0  0  0  0  0  0  0  0  0  0  0  0
  -21.5872  -27.7498   15.9666 C   0  0  0  0  0  0  0  0  0  0  0  0
  -29.6422  -25.0409   18.6303 C   0  0  0  0  0  0  0  0  0  0  0  0
  -28.4802  -24.3322   17.9450 C   0  0  0  0  0  0  0  0  0  0  0  0
  -29.2797  -26.4362   19.1251 C   0  0  0  0  0  0  0  0  0  1  0  0
  -20.8394  -27.7692   20.8936 C   0  0  1  0  0  0  0  0  0  0  0  0
  -19.6771  -26.9708   17.3749 C   0  0  2  0  0  0  0  0  0  0  0  0
  -19.9471  -27.4318   22.1213 C   0  0  0  0  0  0  0  0  0  0  0  0
  -26.1042  -13.4717   23.0298 N   0  0  0  0  0  0  0  0  0  0  0  0
  -25.8552  -14.7768   22.8280 N   0  0  0  0  0  0  0  0  0  0  0  0
  -29.0617  -18.5196   20.7393 N   0  0  0  0  0  0  0  0  0  0  0  0
  -22.8325  -29.2332   20.9837 N   0  0  0  0  0  0  0  0  0  0  0  0
  -28.8986  -17.0953   22.6456 N   0  0  0  0  0  0  0  0  0  0  0  0
  -24.2602  -16.2780   21.9263 N   0  0  0  0  0  0  0  0  0  0  0  0
  -22.4018  -12.2258   21.2042 N   0  0  0  0  0  0  0  0  0  0  0  0
  -24.3232  -31.7392   23.1733 N   0  0  0  0  0  0  0  0  0  0  0  0
  -20.1447  -27.6989   19.6127 N   0  0  0  0  0  0  0  0  0  0  0  0
  -28.8895  -23.0310   17.4565 N   0  0  3  0  0  0  0  0  0  0  0  0
  -20.4784  -26.7753   16.1337 N   0  3  0  0  0  0  0  0  0  0  0  0
  -22.1188  -14.4826   20.9125 O   0  0  0  0  0  0  0  0  0  0  0  0
  -23.5353  -29.5618   23.4196 O   0  0  0  0  0  0  0  0  0  0  0  0
  -20.6817  -30.1322   21.0266 O   0  0  0  0  0  0  0  0  0  0  0  0
  -21.5381  -26.1123   18.6544 O   0  0  0  0  0  0  0  0  0  0  0  0
  -29.3764  -19.3284   22.8786 O   0  0  0  0  0  0  0  0  0  0  0  0
  -24.5928   -7.3002   22.6089 O   0  0  0  0  0  0  0  0  0  0  0  0
  -28.2041  -26.3291   20.0483 O   0  0  0  0  0  0  0  0  0  1  0  0
  -19.7569   -5.1396   24.1418 F   0  0  0  0  0  0  0  0  0  0  0  0
  -24.4164   -5.6373   24.8104 F   0  0  0  0  0  0  0  0  0  0  0  0
  1  2  1  0  0  0  0
  1  5  2  0  0  0  0
  2  6  2  0  0  0  0
  3 10  2  0  0  0  0
  3 18  1  0  0  0  0
  4 11  1  0  0  0  0
  4 18  2  0  0  0  0
  5 20  1  0  0  0  0
  6 22  1  0  0  0  0
  7 12  2  0  0  0  0
  7 21  1  0  0  0  0
  8  9  2  0  0  0  0
  8 25  1  0  0  0  0
  9 26  1  0  0  0  0
 10 27  1  0  0  0  0
 11 27  2  0  0  0  0
 12 28  1  0  0  0  0
 13 14  2  0  0  0  0
 13 29  1  0  0  0  0
 14 30  1  0  0  0  0
 15 23  1  0  0  0  0
 15 26  2  0  0  0  0
 16 24  1  0  0  0  0
 16 28  2  0  0  0  0
 17 30  2  0  0  0  0
 17 31  1  0  0  0  0
 18 32  1  0  0  0  0
 19 32  1  0  0  0  0
 19 33  2  0  0  0  0
 19 34  1  0  0  0  0
 20 22  2  0  0  0  0
 20 39  1  0  0  0  0
 21 24  2  0  0  0  0
 21 40  1  0  0  0  0
 22 50  1  0  0  0  0
 23 25  2  0  0  0  0
 23 41  1  0  0  0  0
 24 42  1  0  0  0  0
 25 67  1  0  0  0  0
 26 74  1  0  0  0  0
 27 81  1  0  0  0  0
 28 82  1  0  0  0  0
 29 31  2  0  0  0  0
 29 81  1  0  0  0  0
 30 83  1  0  0  0  0
 31 84  1  0  0  0  0
 32 65  2  0  0  0  0
 33 66  1  0  0  0  0
 33 70  1  0  0  0  0
 34 71  1  0  0  0  0
 34 76  2  0  0  0  0
 35 51  1  0  0  0  0
 35 72  1  0  0  0  0
 35 77  2  0  0  0  0
 36 62  1  0  0  0  0
 36 68  1  0  0  0  0
 36 78  2  0  0  0  0
 37 63  1  0  0  0  0
 37 73  1  0  0  0  0
 37 79  2  0  0  0  0
 38 67  1  0  0  0  0
 38 69  1  0  0  0  0
 38 80  2  0  0  0  0
 39 43  1  0  0  0  0
 40 51  1  0  0  0  0
 41 47  1  0  0  0  0
 42 68  1  0  0  0  0
 43 45  1  0  0  0  0
 44 46  1  0  0  0  0
 44 48  1  0  0  0  0
 45 50  1  0  0  0  0
 46 52  1  0  0  0  0
 47 67  1  0  0  0  0
 48 69  1  0  0  0  0
 49 52  1  0  0  0  0
 49 69  1  0  0  0  0
 50 72  1  0  0  0  0
 51 68  1  0  0  0  0
 52 66  1  0  0  0  0
 53 63  1  0  0  0  0
 54 64  1  0  0  0  0
 55 64  1  0  0  0  0
 56 64  1  0  0  0  0
 57 74  1  0  0  0  0
 58 75  1  0  0  0  0
 59 60  1  0  0  0  0
 59 61  1  0  0  0  0
 60 74  1  0  0  0  0
 61 82  1  0  0  0  0
 62 64  1  0  0  0  0
 62 73  1  0  0  0  0
 63 75  1  0  0  0  0
 65 66  1  0  0  0  0
M  CHG  1  75   1
M  ISO  4  38 100  61 101  67 100  82 101
M  END
> <Batch ID>
0017

> <Smiles>
CNC(C)C(=O)NC(C(=O)N1Cc2cc([101O:1][101CH2:1]CCN(C)c3ccc4c(c3)CC[100N:0]4[100C:0](=O)N3CCCC(n4nc(-c5ccc(Oc6ccc(F)cc6F)cc5)c(C(N)=O)c4N)C3)ccc2CC1C(=O)NC1CCCc2ccccc21)C(C)(C)C

> <Shape>
0.312

> <Color>
0.082

> <Negative vol penalty>
0.000

$$$$

  -OEChem-04042321003D

 87 95  0     1  0  0  0  0  0999 V2000
  -34.6504  -10.2066   21.1567 C   0  0  0  0  0  0  0  0  0  0  0  0
  -34.3902  -11.5722   21.1041 C   0  0  0  0  0  0  0  0  0  0  0  0
  -25.8905  -30.1450   22.2961 C   0  0  0  0  0  0  0  0  0  0  0  0
  -25.1890  -31.2135   24.3463 C   0  0  0  0  0  0  0  0  0  0  0  0
  -33.7887   -9.3092   20.5274 C   0  0  0  0  0  0  0  0  0  0  0  0
  -33.2687  -12.0414   20.4211 C   0  0  0  0  0  0  0  0  0  0  0  0
  -29.8083  -16.8715   21.9048 C   0  0  0  0  0  0  0  0  0  0  0  0
  -23.6866  -23.7368   21.0084 C   0  0  0  0  0  0  0  0  0  0  0  0
  -22.5145  -23.6468   21.7590 C   0  0  0  0  0  0  0  0  0  0  0  0
  -26.7369  -31.2200   22.0254 C   0  0  0  0  0  0  0  0  0  0  0  0
  -26.0355  -32.2886   24.0756 C   0  0  0  0  0  0  0  0  0  0  0  0
  -29.7858  -18.1866   21.4425 C   0  0  0  0  0  0  0  0  0  0  0  0
  -26.0188  -35.0390   22.1095 C   0  0  0  0  0  0  0  0  0  0  0  0
  -25.5118  -36.3254   22.2934 C   0  0  0  0  0  0  0  0  0  0  0  0
  -28.0092  -17.6128   19.9149 C   0  0  0  0  0  0  0  0  0  0  0  0
  -22.4728  -24.8608   19.2476 C   0  0  0  0  0  0  0  0  0  0  0  0
  -27.2330  -36.7699   23.9295 C   0  0  0  0  0  0  0  0  0  0  0  0
  -25.1165  -30.1417   23.4565 C   0  0  0  0  0  0  0  0  0  0  0  0
  -24.5552  -27.8618   24.4538 C   0  0  0  0  0  0  0  0  0  0  0  0
  -32.6508   -9.7669   19.8445 C   0  0  0  0  0  0  0  0  0  0  0  0
  -28.9375  -15.9130   21.3670 C   0  0  0  0  0  0  0  0  0  0  0  0
  -32.3917  -11.1493   19.7809 C   0  0  0  0  0  0  0  0  0  0  0  0
  -28.0209  -16.2868   20.3738 C   0  0  0  0  0  0  0  0  0  0  0  0
  -23.6658  -24.3439   19.7527 C   0  0  0  0  0  0  0  0  0  0  0  0
  -21.3214  -24.1636   21.2539 C   0  0  0  0  0  0  0  0  0  0  0  0
  -26.8095  -32.2918   22.9151 C   0  0  0  0  0  0  0  0  0  0  0  0
  -28.8881  -18.5568   20.4454 C   0  0  0  0  0  0  0  0  0  0  0  0
  -27.1329  -34.6181   22.8357 C   0  0  0  0  0  0  0  0  0  0  0  0
  -26.1189  -37.1908   23.2033 C   0  0  0  0  0  0  0  0  0  0  0  0
  -21.3005  -24.7707   19.9982 C   0  0  0  0  0  0  0  0  0  0  0  0
  -27.7400  -35.4835   23.7456 C   0  0  0  0  0  0  0  0  0  0  0  0
  -24.2414  -29.0317   23.7364 C   0  0  0  0  0  0  0  0  0  0  0  0
  -23.3939  -27.1285   24.4396 C   0  0  0  0  0  0  0  0  0  0  0  0
  -25.7863  -27.4727   25.0772 C   0  0  0  0  0  0  0  0  0  0  0  0
  -29.3092  -13.1867   19.7755 C   0  0  0  0  0  0  0  0  0  0  0  0
  -26.0904  -12.9942   20.1290 C   0  0  0  0  0  0  0  0  0  0  0  0
  -23.1284  -14.6145   20.6263 C   0  0  0  0  0  0  0  0  0  0  0  0
  -19.0906  -25.0391   21.9237 C   0  0  0  0  0  0  0  0  0  0  0  0
  -31.7743   -8.7622   19.1395 C   0  0  0  0  0  0  0  0  0  0  0  0
  -28.9560  -14.5048   21.8953 C   0  0  0  0  0  0  0  0  0  0  0  0
  -27.0512  -15.3005   19.7779 C   0  0  0  0  0  0  0  0  0  0  0  0
  -30.4039   -9.3136   18.7545 C   0  0  0  0  0  0  0  0  0  0  0  0
  -18.7080  -28.3921   23.0433 C   0  0  0  0  0  0  0  0  0  0  0  0
  -30.5444  -10.6853   18.1023 C   0  0  0  0  0  0  0  0  0  0  0  0
  -20.1518  -28.7681   23.3746 C   0  0  0  0  0  0  0  0  0  0  0  0
  -18.6147  -27.5369   21.7792 C   0  0  0  0  0  0  0  0  0  0  0  0
  -20.9185  -26.7066   22.1362 C   0  0  0  0  0  0  0  0  0  0  0  0
  -31.1718  -11.6951   19.0709 C   0  0  1  0  0  0  0  0  0  0  0  0
  -28.3767  -13.4907   20.9138 C   0  0  1  0  0  0  0  0  0  0  0  0
  -21.0479  -27.5185   23.4345 C   0  0  1  0  0  0  0  0  0  0  0  0
  -18.9851  -20.4407   22.6063 C   0  0  0  0  0  0  0  0  0  0  0  0
  -20.6629  -14.1937   20.8313 C   0  0  0  0  0  0  0  0  0  0  0  0
  -25.9070  -12.6116   17.1074 C   0  0  0  0  0  0  0  0  0  0  0  0
  -23.4660  -13.1474   17.2578 C   0  0  0  0  0  0  0  0  0  0  0  0
  -24.3775  -11.1481   18.4390 C   0  0  0  0  0  0  0  0  0  0  0  0
  -24.8222  -25.0721   17.6808 C   0  0  0  0  0  0  0  0  0  0  0  0
  -23.0541  -15.7001   23.3786 C   0  0  0  0  0  0  0  0  0  0  0  0
  -19.2907  -21.7288   21.8547 C   0  0  0  0  0  0  0  0  0  0  0  0
  -26.2091  -22.4195   19.2582 C   0  0  0  0  0  0  0  0  0  0  0  0
  -27.5448  -21.8456   19.7329 C   0  0  0  0  0  0  0  0  0  0  0  0
  -19.8416  -22.8232   22.7610 C   0  0  0  0  0  0  0  0  0  0  0  0
  -26.0985  -23.9232   19.4972 C   0  0  0  0  0  0  0  0  0  0  0  0
  -27.6138  -20.3386   19.5196 C   0  0  0  0  0  0  0  0  0  1  0  0
  -24.8974  -13.4571   19.3282 C   0  0  1  0  0  0  0  0  0  0  0  0
  -21.9787  -14.3418   21.5794 C   0  0  2  0  0  0  0  0  0  0  0  0
  -24.6814  -12.6094   18.0427 C   0  0  0  0  0  0  0  0  0  0  0  0
  -22.9797  -29.0452   23.2983 N   0  0  0  0  0  0  0  0  0  0  0  0
  -22.4904  -27.8746   23.7415 N   0  0  0  0  0  0  0  0  0  0  0  0
  -27.1123  -13.9343   20.3232 N   0  0  0  0  0  0  0  0  0  0  0  0
  -19.5165  -26.3795   21.8655 N   0  0  0  0  0  0  0  0  0  0  0  0
  -23.0677  -25.9247   24.9562 N   0  0  0  0  0  0  0  0  0  0  0  0
  -26.8808  -28.3443   24.9965 N   0  0  0  0  0  0  0  0  0  0  0  0
  -30.1897  -12.1527   20.0303 N   0  0  0  0  0  0  0  0  0  0  0  0
  -23.7629  -13.4511   20.2454 N   0  0  0  0  0  0  0  0  0  0  0  0
  -20.1095  -24.0684   22.0334 N   0  0  0  0  0  0  0  0  0  0  0  0
  -24.8442  -24.4349   18.9986 N   0  0  3  0  0  0  0  0  0  0  0  0
  -21.8403  -15.4581   22.5570 N   0  3  0  0  0  0  0  0  0  0  0  0
  -25.9168  -26.3769   25.6737 O   0  0  0  0  0  0  0  0  0  0  0  0
  -29.2343  -13.8408   18.7419 O   0  0  0  0  0  0  0  0  0  0  0  0
  -26.1116  -11.8432   20.5722 O   0  0  0  0  0  0  0  0  0  0  0  0
  -23.4308  -15.7461   20.2539 O   0  0  0  0  0  0  0  0  0  0  0  0
  -17.8920  -24.7342   21.9056 O   0  0  0  0  0  0  0  0  0  0  0  0
  -27.6356  -33.3409   22.6514 O   0  0  0  0  0  0  0  0  0  0  0  0
  -28.8645  -19.8396   19.9919 O   0  0  0  0  0  0  0  0  0  1  0  0
  -25.6328  -38.4266   23.3787 F   0  0  0  0  0  0  0  0  0  0  0  0
  -20.1593  -25.2704   19.5029 F   0  0  0  0  0  0  0  0  0  0  0  0
  -28.8113  -35.0852   24.4452 F   0  0  0  0  0  0  0  0  0  0  0  0
  1  2  1  0  0  0  0
  1  5  2  0  0  0  0
  2  6  2  0  0  0  0
  3 10  2  0  0  0  0
  3 18  1  0  0  0  0
  4 11  1  0  0  0  0
  4 18  2  0  0  0  0
  5 20  1  0  0  0  0
  6 22  1  0  0  0  0
  7 12  2  0  0  0  0
  7 21  1  0  0  0  0
  8  9  2  0  0  0  0
  8 24  1  0  0  0  0
  9 25  1  0  0  0  0
 10 26  1  0  0  0  0
 11 26  2  0  0  0  0
 12 27  1  0  0  0  0
 13 14  2  0  0  0  0
 13 28  1  0  0  0  0
 14 29  1  0  0  0  0
 15 23  1  0  0  0  0
 15 27  2  0  0  0  0
 16 24  2  0  0  0  0
 16 30  1  0  0  0  0
 17 29  2  0  0  0  0
 17 31  1  0  0  0  0
 18 32  1  0  0  0  0
 19 32  1  0  0  0  0
 19 33  2  0  0  0  0
 19 34  1  0  0  0  0
 20 22  2  0  0  0  0
 20 39  1  0  0  0  0
 21 23  2  0  0  0  0
 21 40  1  0  0  0  0
 22 48  1  0  0  0  0
 23 41  1  0  0  0  0
 24 76  1  0  0  0  0
 25 30  2  0  0  0  0
 25 75  1  0  0  0  0
 26 83  1  0  0  0  0
 27 84  1  0  0  0  0
 28 31  2  0  0  0  0
 28 83  1  0  0  0  0
 29 85  1  0  0  0  0
 30 86  1  0  0  0  0
 31 87  1  0  0  0  0
 32 67  2  0  0  0  0
 33 68  1  0  0  0  0
 33 71  1  0  0  0  0
 34 72  1  0  0  0  0
 34 78  2  0  0  0  0
 35 49  1  0  0  0  0
 35 73  1  0  0  0  0
 35 79  2  0  0  0  0
 36 64  1  0  0  0  0
 36 69  1  0  0  0  0
 36 80  2  0  0  0  0
 37 65  1  0  0  0  0
 37 74  1  0  0  0  0
 37 81  2  0  0  0  0
 38 70  1  0  0  0  0
 38 75  1  0  0  0  0
 38 82  2  0  0  0  0
 39 42  1  0  0  0  0
 40 49  1  0  0  0  0
 41 69  1  0  0  0  0
 42 44  1  0  0  0  0
 43 45  1  0  0  0  0
 43 46  1  0  0  0  0
 44 48  1  0  0  0  0
 45 50  1  0  0  0  0
 46 70  1  0  0  0  0
 47 50  1  0  0  0  0
 47 70  1  0  0  0  0
 48 73  1  0  0  0  0
 49 69  1  0  0  0  0
 50 68  1  0  0  0  0
 51 58  1  0  0  0  0
 52 65  1  0  0  0  0
 53 66  1  0  0  0  0
 54 66  1  0  0  0  0
 55 66  1  0  0  0  0
 56 76  1  0  0  0  0
 57 77  1  0  0  0  0
 58 61  1  0  0  0  0
 59 60  1  0  0  0  0
 59 62  1  0  0  0  0
 60 63  1  0  0  0  0
 61 75  1  0  0  0  0
 62 76  1  0  0  0  0
 63 84  1  0  0  0  0
 64 66  1  0  0  0  0
 64 74  1  0  0  0  0
 65 77  1  0  0  0  0
 67 68  1  0  0  0  0
M  CHG  1  77   1
M  ISO  4  38 100  63 101  75 100  84 101
M  END
> <Batch ID>
0017

> <Smiles>
CCC[100N:0](c1ccc(N(C)CCC[101CH2:1][101O:1]c2ccc3c(c2)CN(C(=O)C(NC(=O)C(C)NC)C(C)(C)C)C(C(=O)NC2CCCc4ccccc42)C3)cc1F)[100C:0](=O)N1CCCC(n2nc(-c3ccc(Oc4ccc(F)cc4F)cc3)c(C(N)=O)c2N)C1

> <Shape>
0.251

> <Color>
0.063

> <Negative vol penalty>
0.000

$$$$

  -OEChem-04042321003D

 85 93  0     1  0  0  0  0  0999 V2000
  -34.1083  -31.6303   17.6705 C   0  0  0  0  0  0  0  0  0  0  0  0
  -34.0274  -30.2697   17.9492 C   0  0  0  0  0  0  0  0  0  0  0  0
  -23.1790   -9.8002   19.8810 C   0  0  0  0  0  0  0  0  0  0  0  0
  -23.5904   -9.8630   22.2608 C   0  0  0  0  0  0  0  0  0  0  0  0
  -33.0023  -32.4517   17.8853 C   0  0  0  0  0  0  0  0  0  0  0  0
  -32.8407  -29.7299   18.4439 C   0  0  0  0  0  0  0  0  0  0  0  0
  -30.5522  -24.1725   17.2672 C   0  0  0  0  0  0  0  0  0  0  0  0
  -30.5565  -15.6363   21.9145 C   0  0  0  0  0  0  0  0  0  0  0  0
  -31.0282  -16.9475   21.8528 C   0  0  0  0  0  0  0  0  0  0  0  0
  -22.4194   -8.6416   20.0428 C   0  0  0  0  0  0  0  0  0  0  0  0
  -22.8308   -8.7044   22.4227 C   0  0  0  0  0  0  0  0  0  0  0  0
  -30.5867  -22.9740   17.9786 C   0  0  0  0  0  0  0  0  0  0  0  0
  -23.2388   -5.3767   21.9861 C   0  0  0  0  0  0  0  0  0  0  0  0
  -23.7527   -4.3746   22.8092 C   0  0  0  0  0  0  0  0  0  0  0  0
  -28.4172  -23.4708   18.9090 C   0  0  0  0  0  0  0  0  0  0  0  0
  -31.1884  -17.0032   24.2629 C   0  0  0  0  0  0  0  0  0  0  0  0
  -21.8153   -4.5571   24.2410 C   0  0  0  0  0  0  0  0  0  0  0  0
  -23.7645  -10.4109   20.9900 C   0  0  0  0  0  0  0  0  0  0  0  0
  -24.0917  -12.9379   20.8676 C   0  0  0  0  0  0  0  0  0  0  0  0
  -31.7985  -31.9200   18.3738 C   0  0  0  0  0  0  0  0  0  0  0  0
  -29.4529  -25.0358   17.3800 C   0  0  0  0  0  0  0  0  0  0  0  0
  -31.7180  -30.5452   18.6667 C   0  0  0  0  0  0  0  0  0  0  0  0
  -28.3700  -24.6784   18.1960 C   0  0  0  0  0  0  0  0  0  0  0  0
  -30.4007  -15.0085   23.1503 C   0  0  0  0  0  0  0  0  0  0  0  0
  -31.3442  -17.6309   23.0270 C   0  0  0  0  0  0  0  0  0  0  0  0
  -22.2453   -8.0937   21.3137 C   0  0  0  0  0  0  0  0  0  0  0  0
  -29.5204  -22.6243   18.8019 C   0  0  0  0  0  0  0  0  0  0  0  0
  -22.0132   -5.9690   22.2906 C   0  0  0  0  0  0  0  0  0  0  0  0
  -23.0409   -3.9648   23.9366 C   0  0  0  0  0  0  0  0  0  0  0  0
  -30.7167  -15.6919   24.3245 C   0  0  0  0  0  0  0  0  0  0  0  0
  -21.3014   -5.5592   23.4180 C   0  0  0  0  0  0  0  0  0  0  0  0
  -24.5498  -11.6075   20.8233 C   0  0  0  0  0  0  0  0  0  0  0  0
  -25.2170  -13.6958   20.6539 C   0  0  0  0  0  0  0  0  0  0  0  0
  -22.7674  -13.4435   21.0827 C   0  0  0  0  0  0  0  0  0  0  0  0
  -29.0370  -28.0161   18.4038 C   0  0  0  0  0  0  0  0  0  0  0  0
  -26.0212  -27.5606   17.2992 C   0  0  0  0  0  0  0  0  0  0  0  0
  -23.5293  -25.3711   16.4974 C   0  0  0  0  0  0  0  0  0  0  0  0
  -31.0783  -12.1383   21.5247 C   0  0  0  0  0  0  0  0  0  0  0  0
  -30.6446  -32.8555   18.6347 C   0  0  0  0  0  0  0  0  0  0  0  0
  -29.4191  -26.3123   16.5852 C   0  0  0  0  0  0  0  0  0  0  0  0
  -27.1574  -25.5607   18.3359 C   0  0  0  0  0  0  0  0  0  0  0  0
  -29.3073  -32.1400   18.8069 C   0  0  0  0  0  0  0  0  0  0  0  0
  -29.4826  -13.5632   18.5039 C   0  0  0  0  0  0  0  0  0  0  0  0
  -29.4565  -30.9486   19.7478 C   0  0  0  0  0  0  0  0  0  0  0  0
  -28.0023  -13.2663   18.7377 C   0  0  0  0  0  0  0  0  0  0  0  0
  -30.3817  -12.5400   19.1913 C   0  0  0  0  0  0  0  0  0  0  0  0
  -28.6338  -12.0876   20.8807 C   0  0  0  0  0  0  0  0  0  0  0  0
  -30.4404  -29.9180   19.1811 C   0  0  1  0  0  0  0  0  0  0  0  0
  -28.4774  -27.3581   17.1743 C   0  0  1  0  0  0  0  0  0  0  0  0
  -27.7014  -13.1268   20.2401 C   0  0  2  0  0  0  0  0  0  0  0  0
  -21.1660  -25.2983   15.6565 C   0  0  0  0  0  0  0  0  0  0  0  0
  -25.0182  -28.4160   20.0509 C   0  0  0  0  0  0  0  0  0  0  0  0
  -22.7915  -27.4305   19.4687 C   0  0  0  0  0  0  0  0  0  0  0  0
  -23.7016  -29.3289   18.1305 C   0  0  0  0  0  0  0  0  0  0  0  0
  -32.1502  -19.6659   24.1972 C   0  0  0  0  0  0  0  0  0  0  0  0
  -31.9631  -12.4003   23.8112 C   0  0  0  0  0  0  0  0  0  0  0  0
  -24.3100  -23.8345   14.0916 C   0  0  0  0  0  0  0  0  0  0  0  0
  -29.8960  -13.6064   23.2127 C   0  0  0  0  0  0  0  0  0  0  0  0
  -30.6877  -20.2039   21.2017 C   0  0  0  0  0  0  0  0  0  0  0  0
  -32.0047  -19.6231   21.7021 C   0  0  0  0  0  0  0  0  0  0  0  0
  -30.8341  -20.9677   19.8909 C   0  0  0  0  0  0  0  0  0  1  0  0
  -24.7350  -27.0341   17.8885 C   0  0  1  0  0  0  0  0  0  0  0  0
  -22.6374  -25.2642   15.2736 C   0  0  2  0  0  0  0  0  0  0  0  0
  -24.0851  -28.0365   18.8837 C   0  0  0  0  0  0  0  0  0  0  0  0
  -25.8636  -11.5217   20.5990 N   0  0  0  0  0  0  0  0  0  0  0  0
  -26.2408  -12.8078   20.5002 N   0  0  0  0  0  0  0  0  0  0  0  0
  -27.1744  -26.8014   17.5435 N   0  0  0  0  0  0  0  0  0  0  0  0
  -30.0456  -12.3958   20.6081 N   0  0  0  0  0  0  0  0  0  0  0  0
  -25.4208  -15.0285   20.5842 N   0  0  0  0  0  0  0  0  0  0  0  0
  -21.7270  -12.5266   21.2860 N   0  0  0  0  0  0  0  0  0  0  0  0
  -29.8077  -29.1330   18.1428 N   0  0  0  0  0  0  0  0  0  0  0  0
  -23.8840  -26.6777   16.7583 N   0  0  0  0  0  0  0  0  0  0  0  0
  -31.8187  -18.9490   22.9644 N   0  0  3  0  0  0  0  0  0  0  0  0
  -30.9145  -12.6318   22.8279 N   0  0  0  0  0  0  0  0  0  0  0  0
  -22.9048  -23.9904   14.5476 N   0  3  0  0  0  0  0  0  0  0  0  0
  -22.5113  -14.6714   21.0780 O   0  0  0  0  0  0  0  0  0  0  0  0
  -28.7867  -27.5463   19.5075 O   0  0  0  0  0  0  0  0  0  0  0  0
  -26.0023  -28.6032   16.6401 O   0  0  0  0  0  0  0  0  0  0  0  0
  -23.8735  -24.3936   17.1582 O   0  0  0  0  0  0  0  0  0  0  0  0
  -32.0933  -11.5117   21.1943 O   0  0  0  0  0  0  0  0  0  0  0  0
  -21.5040   -6.9632   21.4721 O   0  0  0  0  0  0  0  0  0  0  0  0
  -29.5519  -21.4554   19.4979 O   0  0  0  0  0  0  0  0  0  1  0  0
  -23.5338   -3.0014   24.7260 F   0  0  0  0  0  0  0  0  0  0  0  0
  -30.5691  -15.0974   25.5168 F   0  0  0  0  0  0  0  0  0  0  0  0
  -20.1229   -6.1237   23.7149 F   0  0  0  0  0  0  0  0  0  0  0  0
  1  2  1  0  0  0  0
  1  5  2  0  0  0  0
  2  6  2  0  0  0  0
  3 10  2  0  0  0  0
  3 18  1  0  0  0  0
  4 11  1  0  0  0  0
  4 18  2  0  0  0  0
  5 20  1  0  0  0  0
  6 22  1  0  0  0  0
  7 12  2  0  0  0  0
  7 21  1  0  0  0  0
  8  9  2  0  0  0  0
  8 24  1  0  0  0  0
  9 25  1  0  0  0  0
 10 26  1  0  0  0  0
 11 26  2  0  0  0  0
 12 27  1  0  0  0  0
 13 14  2  0  0  0  0
 13 28  1  0  0  0  0
 14 29  1  0  0  0  0
 15 23  1  0  0  0  0
 15 27  2  0  0  0  0
 16 25  2  0  0  0  0
 16 30  1  0  0  0  0
 17 29  2  0  0  0  0
 17 31  1  0  0  0  0
 18 32  1  0  0  0  0
 19 32  1  0  0  0  0
 19 33  2  0  0  0  0
 19 34  1  0  0  0  0
 20 22  2  0  0  0  0
 20 39  1  0  0  0  0
 21 23  2  0  0  0  0
 21 40  1  0  0  0  0
 22 48  1  0  0  0  0
 23 41  1  0  0  0  0
 24 30  2  0  0  0  0
 24 58  1  0  0  0  0
 25 73  1  0  0  0  0
 26 81  1  0  0  0  0
 27 82  1  0  0  0  0
 28 31  2  0  0  0  0
 28 81  1  0  0  0  0
 29 83  1  0  0  0  0
 30 84  1  0  0  0  0
 31 85  1  0  0  0  0
 32 65  2  0  0  0  0
 33 66  1  0  0  0  0
 33 69  1  0  0  0  0
 34 70  1  0  0  0  0
 34 76  2  0  0  0  0
 35 49  1  0  0  0  0
 35 71  1  0  0  0  0
 35 77  2  0  0  0  0
 36 62  1  0  0  0  0
 36 67  1  0  0  0  0
 36 78  2  0  0  0  0
 37 63  1  0  0  0  0
 37 72  1  0  0  0  0
 37 79  2  0  0  0  0
 38 68  1  0  0  0  0
 38 74  1  0  0  0  0
 38 80  2  0  0  0  0
 39 42  1  0  0  0  0
 40 49  1  0  0  0  0
 41 67  1  0  0  0  0
 42 44  1  0  0  0  0
 43 45  1  0  0  0  0
 43 46  1  0  0  0  0
 44 48  1  0  0  0  0
 45 50  1  0  0  0  0
 46 68  1  0  0  0  0
 47 50  1  0  0  0  0
 47 68  1  0  0  0  0
 48 71  1  0  0  0  0
 49 67  1  0  0  0  0
 50 66  1  0  0  0  0
 51 63  1  0  0  0  0
 52 64  1  0  0  0  0
 53 64  1  0  0  0  0
 54 64  1  0  0  0  0
 55 73  1  0  0  0  0
 56 74  1  0  0  0  0
 57 75  1  0  0  0  0
 58 74  1  0  0  0  0
 59 60  1  0  0  0  0
 59 61  1  0  0  0  0
 60 73  1  0  0  0  0
 61 82  1  0  0  0  0
 62 64  1  0  0  0  0
 62 72  1  0  0  0  0
 63 75  1  0  0  0  0
 65 66  1  0  0  0  0
M  CHG  1  75   1
M  ISO  4  38 100  61 101  74 100  82 101
M  END
> <Batch ID>
0017

> <Smiles>
CNC(C)C(=O)NC(C(=O)N1Cc2cc([101O:1][101CH2:1]CCN(C)c3ccc(C[100N:0](C)[100C:0](=O)N4CCCC(n5nc(-c6ccc(Oc7ccc(F)cc7F)cc6)c(C(N)=O)c5N)C4)c(F)c3)ccc2CC1C(=O)NC1CCCc2ccccc21)C(C)(C)C

> <Shape>
0.238

> <Color>
0.207

> <Negative vol penalty>
0.000

$$$$

  -OEChem-04042321003D

 88 97  0     1  0  0  0  0  0999 V2000
  -21.4532  -12.4343   20.0110 C   0  0  0  0  0  0  0  0  0  0  0  0
  -21.6203  -13.6392   20.6861 C   0  0  0  0  0  0  0  0  0  0  0  0
  -18.3717  -27.8913   21.4773 C   0  0  0  0  0  0  0  0  0  0  0  0
  -26.5851  -24.7122   19.5542 C   0  0  0  0  0  0  0  0  0  0  0  0
  -27.7198  -25.8930   17.7780 C   0  0  0  0  0  0  0  0  0  0  0  0
  -22.5568  -11.6223   19.7528 C   0  0  0  0  0  0  0  0  0  0  0  0
  -22.8911  -14.0322   21.1044 C   0  0  0  0  0  0  0  0  0  0  0  0
  -23.8445  -18.9045   20.1058 C   0  0  0  0  0  0  0  0  0  0  0  0
  -19.2891  -28.8803   21.8320 C   0  0  0  0  0  0  0  0  0  0  0  0
  -17.9824  -26.9331   22.4133 C   0  0  0  0  0  0  0  0  0  0  0  0
  -26.5785  -23.5526   18.7792 C   0  0  0  0  0  0  0  0  0  0  0  0
  -27.7133  -24.7334   17.0029 C   0  0  0  0  0  0  0  0  0  0  0  0
  -23.2788  -19.8517   20.9582 C   0  0  0  0  0  0  0  0  0  0  0  0
  -25.5127  -23.0363   15.0772 C   0  0  0  0  0  0  0  0  0  0  0  0
  -25.1472  -23.1551   13.7363 C   0  0  0  0  0  0  0  0  0  0  0  0
  -25.3853  -20.0596   22.1152 C   0  0  0  0  0  0  0  0  0  0  0  0
  -19.4280  -27.9530   24.0587 C   0  0  0  0  0  0  0  0  0  0  0  0
  -27.3071  -22.3004   13.0718 C   0  0  0  0  0  0  0  0  0  0  0  0
  -27.1557  -25.8825   19.0536 C   0  0  0  0  0  0  0  0  0  0  0  0
  -28.1567  -27.4915   20.7615 C   0  0  0  0  0  0  0  0  0  0  0  0
  -23.8431  -12.0102   20.1597 C   0  0  0  0  0  0  0  0  0  0  0  0
  -25.1841  -18.5191   20.2589 C   0  0  0  0  0  0  0  0  0  0  0  0
  -24.0128  -13.2240   20.8526 C   0  0  0  0  0  0  0  0  0  0  0  0
  -25.9663  -19.1092   21.2618 C   0  0  0  0  0  0  0  0  0  0  0  0
  -19.8173  -28.9111   23.1226 C   0  0  0  0  0  0  0  0  0  0  0  0
  -18.5105  -26.9640   23.7040 C   0  0  0  0  0  0  0  0  0  0  0  0
  -27.1427  -23.5631   17.5035 C   0  0  0  0  0  0  0  0  0  0  0  0
  -24.0484  -20.4273   21.9649 C   0  0  0  0  0  0  0  0  0  0  0  0
  -26.7755  -22.5497   15.4153 C   0  0  0  0  0  0  0  0  0  0  0  0
  -26.0443  -22.7871   12.7336 C   0  0  0  0  0  0  0  0  0  0  0  0
  -27.6726  -22.1817   14.4127 C   0  0  0  0  0  0  0  0  0  0  0  0
  -27.1623  -27.0809   19.8536 C   0  0  0  0  0  0  0  0  0  0  0  0
  -27.6952  -28.6855   21.2594 C   0  0  0  0  0  0  0  0  0  0  0  0
  -29.3875  -26.8509   21.1225 C   0  0  0  0  0  0  0  0  0  0  0  0
  -26.6708  -15.7897   20.9254 C   0  0  0  0  0  0  0  0  0  0  0  0
  -29.3323  -17.5475   20.3348 C   0  0  0  0  0  0  0  0  0  0  0  0
  -30.4413  -20.4347   19.7476 C   0  0  0  0  0  0  0  0  0  0  0  0
  -22.2893  -31.0510   21.8602 C   0  0  0  0  0  0  0  0  0  0  0  0
  -24.9990  -11.0769   19.8997 C   0  0  0  0  0  0  0  0  0  0  0  0
  -25.7868  -17.5157   19.3142 C   0  0  0  0  0  0  0  0  0  0  0  0
  -27.4149  -18.7447   21.4552 C   0  0  0  0  0  0  0  0  0  0  0  0
  -26.3646  -11.7431   20.0461 C   0  0  0  0  0  0  0  0  0  0  0  0
  -24.9783  -32.4358   20.1067 C   0  0  0  0  0  0  0  0  0  0  0  0
  -26.4202  -12.5712   21.3259 C   0  0  0  0  0  0  0  0  0  0  0  0
  -25.9386  -31.2645   19.9105 C   0  0  0  0  0  0  0  0  0  0  0  0
  -23.9357  -28.3099   23.1284 C   0  0  0  0  0  0  0  0  0  0  0  0
  -22.6896  -27.6651   23.6578 C   0  0  0  0  0  0  0  0  0  0  0  0
  -23.5325  -31.9867   19.9366 C   0  0  0  0  0  0  0  0  0  0  0  0
  -24.0908  -29.6937   20.6871 C   0  0  0  0  0  0  0  0  0  0  0  0
  -25.3789  -13.6966   21.3005 C   0  0  1  0  0  0  0  0  0  0  0  0
  -27.0173  -16.8195   19.8875 C   0  0  1  0  0  0  0  0  0  0  0  0
  -25.5725  -30.0950   20.8395 C   0  0  1  0  0  0  0  0  0  0  0  0
  -22.6033  -28.6320   22.5089 C   0  0  0  0  0  0  0  0  0  0  0  0
  -31.7032  -22.5482   19.2601 C   0  0  0  0  0  0  0  0  0  0  0  0
  -30.3715  -16.6606   23.0631 C   0  0  0  0  0  0  0  0  0  0  0  0
  -32.0593  -18.5058   22.9424 C   0  0  0  0  0  0  0  0  0  0  0  0
  -32.0906  -16.6764   21.2468 C   0  0  0  0  0  0  0  0  0  0  0  0
  -30.4560  -19.8920   16.8383 C   0  0  0  0  0  0  0  0  0  0  0  0
  -17.4937  -23.5271   24.9430 C   0  0  0  0  0  0  0  0  0  0  0  0
  -20.7971  -29.9698   23.5015 C   0  0  0  0  0  0  0  0  0  0  0  0
  -18.0922  -25.9329   24.7104 C   0  0  0  0  0  0  0  0  0  0  0  0
  -20.2446  -23.1267   23.4456 C   0  0  0  0  0  0  0  0  0  0  0  0
  -21.7028  -22.7114   23.6256 C   0  0  0  0  0  0  0  0  0  0  0  0
  -19.8477  -24.1841   24.4650 C   0  0  0  0  0  0  0  0  0  0  0  0
  -22.1276  -21.6848   22.5852 C   0  0  0  0  0  0  0  0  0  1  0  0
  -30.2510  -18.4090   21.1671 C   0  0  1  0  0  0  0  0  0  0  0  0
  -31.3908  -21.1352   18.7926 C   0  0  2  0  0  0  0  0  0  0  0  0
  -31.1653  -17.5686   22.1027 C   0  0  0  0  0  0  0  0  0  0  0  0
  -26.1457  -27.9439   19.7772 N   0  0  0  0  0  0  0  0  0  0  0  0
  -26.4989  -28.9086   20.6436 N   0  0  0  0  0  0  0  0  0  0  0  0
  -27.9567  -17.7542   20.5103 N   0  0  0  0  0  0  0  0  0  0  0  0
  -23.2130  -30.8656   20.8215 N   0  0  0  0  0  0  0  0  0  0  0  0
  -28.2001  -29.5557   22.1595 N   0  0  0  0  0  0  0  0  0  0  0  0
  -29.7078  -25.6288   20.5157 N   0  0  0  0  0  0  0  0  0  0  0  0
  -25.8353  -14.7887   20.4678 N   0  0  0  0  0  0  0  0  0  0  0  0
  -30.9761  -19.2581   20.2282 N   0  0  0  0  0  0  0  0  0  0  0  0
  -21.9949  -29.9403   22.6696 N   0  0  0  0  0  0  0  0  0  0  0  0
  -30.7916  -21.2126   17.4303 N   0  3  0  0  0  0  0  0  0  0  0  0
  -18.4158  -24.5223   24.2816 N   0  3  1  0  0  0  0  0  0  0  0  0
  -30.1721  -27.3393   21.9707 O   0  0  0  0  0  0  0  0  0  0  0  0
  -27.1288  -15.8947   22.0571 O   0  0  0  0  0  0  0  0  0  0  0  0
  -29.8175  -16.7265   19.5523 O   0  0  0  0  0  0  0  0  0  0  0  0
  -29.3371  -20.8878   20.0411 O   0  0  0  0  0  0  0  0  0  0  0  0
  -21.7375  -32.1437   22.0453 O   0  0  0  0  0  0  0  0  0  0  0  0
  -27.1366  -22.4317   16.7470 O   0  0  0  0  0  0  0  0  0  0  0  0
  -23.4986  -21.3516   22.7987 O   0  0  0  0  0  0  0  0  0  1  0  0
  -25.6926  -22.8997   11.4461 F   0  0  0  0  0  0  0  0  0  0  0  0
  -28.8867  -21.7124   14.7314 F   0  0  0  0  0  0  0  0  0  0  0  0
  1  2  1  0  0  0  0
  1  6  2  0  0  0  0
  2  7  2  0  0  0  0
  3  9  1  0  0  0  0
  3 10  2  0  0  0  0
  4 11  2  0  0  0  0
  4 19  1  0  0  0  0
  5 12  1  0  0  0  0
  5 19  2  0  0  0  0
  6 21  1  0  0  0  0
  7 23  1  0  0  0  0
  8 13  2  0  0  0  0
  8 22  1  0  0  0  0
  9 25  2  0  0  0  0
 10 26  1  0  0  0  0
 11 27  1  0  0  0  0
 12 27  2  0  0  0  0
 13 28  1  0  0  0  0
 14 15  2  0  0  0  0
 14 29  1  0  0  0  0
 15 30  1  0  0  0  0
 16 24  1  0  0  0  0
 16 28  2  0  0  0  0
 17 25  1  0  0  0  0
 17 26  2  0  0  0  0
 18 30  2  0  0  0  0
 18 31  1  0  0  0  0
 19 32  1  0  0  0  0
 20 32  1  0  0  0  0
 20 33  2  0  0  0  0
 20 34  1  0  0  0  0
 21 23  2  0  0  0  0
 21 39  1  0  0  0  0
 22 24  2  0  0  0  0
 22 40  1  0  0  0  0
 23 50  1  0  0  0  0
 24 41  1  0  0  0  0
 25 60  1  0  0  0  0
 26 61  1  0  0  0  0
 27 85  1  0  0  0  0
 28 86  1  0  0  0  0
 29 31  2  0  0  0  0
 29 85  1  0  0  0  0
 30 87  1  0  0  0  0
 31 88  1  0  0  0  0
 32 69  2  0  0  0  0
 33 70  1  0  0  0  0
 33 73  1  0  0  0  0
 34 74  1  0  0  0  0
 34 80  2  0  0  0  0
 35 51  1  0  0  0  0
 35 75  1  0  0  0  0
 35 81  2  0  0  0  0
 36 66  1  0  0  0  0
 36 71  1  0  0  0  0
 36 82  2  0  0  0  0
 37 67  1  0  0  0  0
 37 76  1  0  0  0  0
 37 83  2  0  0  0  0
 38 72  1  0  0  0  0
 38 77  1  0  0  0  0
 38 84  2  0  0  0  0
 39 42  1  0  0  0  0
 40 51  1  0  0  0  0
 41 71  1  0  0  0  0
 42 44  1  0  0  0  0
 43 45  1  0  0  0  0
 43 48  1  0  0  0  0
 44 50  1  0  0  0  0
 45 52  1  0  0  0  0
 46 47  1  0  0  0  0
 46 53  1  0  0  0  0
 47 53  1  0  0  0  0
 48 72  1  0  0  0  0
 49 52  1  0  0  0  0
 49 72  1  0  0  0  0
 50 75  1  0  0  0  0
 51 71  1  0  0  0  0
 52 70  1  0  0  0  0
 53 77  1  0  0  0  0
 54 67  1  0  0  0  0
 55 68  1  0  0  0  0
 56 68  1  0  0  0  0
 57 68  1  0  0  0  0
 58 78  1  0  0  0  0
 59 79  1  0  0  0  0
 60 77  1  0  0  0  0
 61 79  1  0  0  0  0
 62 63  1  0  0  0  0
 62 64  1  0  0  0  0
 63 65  1  0  0  0  0
 64 79  1  0  0  0  0
 65 86  1  0  0  0  0
 66 68  1  0  0  0  0
 66 76  1  0  0  0  0
 67 78  1  0  0  0  0
 69 70  1  0  0  0  0
M  CHG  2  78   1  79   1
M  ISO  4  38 100  65 101  77 100  86 101
M  END
> <Batch ID>
0017

> <Smiles>
CNC(C)C(=O)NC(C(=O)N1Cc2cc([101O:1][101CH2:1]CCCN(C)Cc3cccc(C[100N:0](C4CC4)[100C:0](=O)N4CCCC(n5nc(-c6ccc(Oc7ccc(F)cc7F)cc6)c(C(N)=O)c5N)C4)c3)ccc2CC1C(=O)NC1CCCc2ccccc21)C(C)(C)C

> <Shape>
0.240

> <Color>
0.078

> <Negative vol penalty>
0.000

$$$$

  -OEChem-04042321003D

 84 92  0     1  0  0  0  0  0999 V2000
  -24.2532  -30.2506   14.1020 C   0  0  0  0  0  0  0  0  0  0  0  0
  -25.3463  -29.6673   14.7348 C   0  0  0  0  0  0  0  0  0  0  0  0
  -23.9888   -9.6626   21.6772 C   0  0  0  0  0  0  0  0  0  0  0  0
  -24.4640  -10.9324   23.6769 C   0  0  0  0  0  0  0  0  0  0  0  0
  -23.5115  -31.2322   14.7579 C   0  0  0  0  0  0  0  0  0  0  0  0
  -25.6989  -30.0661   16.0236 C   0  0  0  0  0  0  0  0  0  0  0  0
  -26.7543  -26.1454   19.0500 C   0  0  0  0  0  0  0  0  0  0  0  0
  -31.0810  -20.2161   20.9824 C   0  0  0  0  0  0  0  0  0  0  0  0
  -30.8170  -18.8953   20.6200 C   0  0  0  0  0  0  0  0  0  0  0  0
  -23.5094   -8.6114   22.4586 C   0  0  0  0  0  0  0  0  0  0  0  0
  -23.9846   -9.8811   24.4584 C   0  0  0  0  0  0  0  0  0  0  0  0
  -28.0037  -25.5449   18.9017 C   0  0  0  0  0  0  0  0  0  0  0  0
  -20.6826   -7.8543   24.1524 C   0  0  0  0  0  0  0  0  0  0  0  0
  -19.4850   -7.2528   23.7656 C   0  0  0  0  0  0  0  0  0  0  0  0
  -28.8115  -26.7662   20.8188 C   0  0  0  0  0  0  0  0  0  0  0  0
  -28.7088  -20.6520   21.1226 C   0  0  0  0  0  0  0  0  0  0  0  0
  -20.6249   -5.1358   23.5285 C   0  0  0  0  0  0  0  0  0  0  0  0
  -24.4661  -10.8232   22.2864 C   0  0  0  0  0  0  0  0  0  0  0  0
  -24.2242  -12.9931   20.9671 C   0  0  0  0  0  0  0  0  0  0  0  0
  -23.8494  -31.6363   16.0591 C   0  0  0  0  0  0  0  0  0  0  0  0
  -26.5268  -27.0706   20.0789 C   0  0  0  0  0  0  0  0  0  0  0  0
  -24.9618  -31.0550   16.6970 C   0  0  0  0  0  0  0  0  0  0  0  0
  -27.5575  -27.3751   20.9795 C   0  0  0  0  0  0  0  0  0  0  0  0
  -30.0269  -21.0944   21.2338 C   0  0  0  0  0  0  0  0  0  0  0  0
  -29.4988  -18.4528   20.5089 C   0  0  0  0  0  0  0  0  0  0  0  0
  -23.5073   -8.7206   23.8492 C   0  0  0  0  0  0  0  0  0  0  0  0
  -29.0334  -25.8574   19.7844 C   0  0  0  0  0  0  0  0  0  0  0  0
  -21.8514   -7.0966   24.2271 C   0  0  0  0  0  0  0  0  0  0  0  0
  -19.4562   -5.8935   23.4537 C   0  0  0  0  0  0  0  0  0  0  0  0
  -28.4447  -19.3311   20.7602 C   0  0  0  0  0  0  0  0  0  0  0  0
  -21.8225   -5.7374   23.9152 C   0  0  0  0  0  0  0  0  0  0  0  0
  -24.9619  -11.9093   21.4797 C   0  0  0  0  0  0  0  0  0  0  0  0
  -25.1464  -13.7395   20.2750 C   0  0  0  0  0  0  0  0  0  0  0  0
  -22.8299  -13.2980   21.1042 C   0  0  0  0  0  0  0  0  0  0  0  0
  -25.7312  -30.1458   20.1948 C   0  0  0  0  0  0  0  0  0  0  0  0
  -25.5627  -29.5807   23.3846 C   0  0  0  0  0  0  0  0  0  0  0  0
  -26.5406  -27.6815   26.0461 C   0  0  0  0  0  0  0  0  0  0  0  0
  -30.1658  -16.1128   19.8564 C   0  0  0  0  0  0  0  0  0  0  0  0
  -23.0464  -32.7348   16.7096 C   0  0  0  0  0  0  0  0  0  0  0  0
  -25.1656  -27.6894   20.2415 C   0  0  0  0  0  0  0  0  0  0  0  0
  -27.3587  -28.3466   22.1132 C   0  0  0  0  0  0  0  0  0  0  0  0
  -23.2596  -32.8337   18.2179 C   0  0  0  0  0  0  0  0  0  0  0  0
  -29.9148  -12.6792   18.9484 C   0  0  0  0  0  0  0  0  0  0  0  0
  -24.7468  -32.7752   18.5518 C   0  0  0  0  0  0  0  0  0  0  0  0
  -28.5431  -12.2620   19.4838 C   0  0  0  0  0  0  0  0  0  0  0  0
  -30.6110  -13.6682   19.8816 C   0  0  0  0  0  0  0  0  0  0  0  0
  -28.4454  -14.4342   20.7718 C   0  0  0  0  0  0  0  0  0  0  0  0
  -25.3607  -31.4432   18.1043 C   0  0  1  0  0  0  0  0  0  0  0  0
  -25.1957  -29.0051   21.0132 C   0  0  1  0  0  0  0  0  0  0  0  0
  -27.6778  -13.4885   19.8336 C   0  0  2  0  0  0  0  0  0  0  0  0
  -29.2096  -22.4629   23.7821 C   0  0  0  0  0  0  0  0  0  0  0  0
  -26.2676  -27.4862   28.5330 C   0  0  0  0  0  0  0  0  0  0  0  0
  -27.4604  -31.9377   23.7757 C   0  0  0  0  0  0  0  0  0  0  0  0
  -27.8927  -31.1141   26.1001 C   0  0  0  0  0  0  0  0  0  0  0  0
  -25.5931  -31.8154   25.4348 C   0  0  0  0  0  0  0  0  0  0  0  0
  -25.3432  -24.9845   25.8194 C   0  0  0  0  0  0  0  0  0  0  0  0
  -31.4981  -23.2210   19.6317 C   0  0  0  0  0  0  0  0  0  0  0  0
  -29.3572  -23.1435   22.4639 C   0  0  0  0  0  0  0  0  0  0  0  0
  -31.4838  -23.1021   21.1509 C   0  0  0  0  0  0  0  0  0  0  0  0
  -30.2847  -23.9611   19.0813 C   0  0  0  0  0  0  0  0  0  1  0  0
  -26.5372  -29.6494   24.5354 C   0  0  1  0  0  0  0  0  0  0  0  0
  -25.7490  -27.0438   27.1735 C   0  0  2  0  0  0  0  0  0  0  0  0
  -26.8755  -31.1123   24.9391 C   0  0  0  0  0  0  0  0  0  0  0  0
  -26.2532  -11.9588   21.1420 N   0  0  0  0  0  0  0  0  0  0  0  0
  -26.3341  -13.0827   20.4097 N   0  0  0  0  0  0  0  0  0  0  0  0
  -26.0118  -28.9301   22.2266 N   0  0  0  0  0  0  0  0  0  0  0  0
  -29.7334  -14.8057   20.1652 N   0  0  0  0  0  0  0  0  0  0  0  0
  -25.0490  -14.8869   19.5704 N   0  0  0  0  0  0  0  0  0  0  0  0
  -22.0252  -12.4250   21.8489 N   0  0  0  0  0  0  0  0  0  0  0  0
  -29.2339  -17.1106   20.1401 N   0  0  0  0  0  0  0  0  0  0  0  0
  -25.0185  -30.3904   19.0365 N   0  0  0  0  0  0  0  0  0  0  0  0
  -25.9564  -28.8520   25.6103 N   0  0  0  0  0  0  0  0  0  0  0  0
  -30.2925  -22.4221   21.5987 N   0  0  3  0  0  0  0  0  0  0  0  0
  -25.8417  -25.5584   27.0958 N   0  3  0  0  0  0  0  0  0  0  0  0
  -22.3098  -14.3058   20.5682 O   0  0  0  0  0  0  0  0  0  0  0  0
  -26.7170  -30.7596   20.5861 O   0  0  0  0  0  0  0  0  0  0  0  0
  -24.4415  -30.0794   23.5110 O   0  0  0  0  0  0  0  0  0  0  0  0
  -27.5759  -27.1924   25.5993 O   0  0  0  0  0  0  0  0  0  0  0  0
  -31.2702  -16.3284   19.3504 O   0  0  0  0  0  0  0  0  0  0  0  0
  -23.0394   -7.6951   24.6120 O   0  0  0  0  0  0  0  0  0  0  0  0
  -30.2541  -25.2732   19.6416 O   0  0  0  0  0  0  0  0  0  1  0  0
  -18.3058   -5.3157   23.0838 F   0  0  0  0  0  0  0  0  0  0  0  0
  -27.1740  -18.9166   20.6559 F   0  0  0  0  0  0  0  0  0  0  0  0
  -22.9419   -5.0040   23.9863 F   0  0  0  0  0  0  0  0  0  0  0  0
  1  2  1  0  0  0  0
  1  5  2  0  0  0  0
  2  6  2  0  0  0  0
  3 10  2  0  0  0  0
  3 18  1  0  0  0  0
  4 11  1  0  0  0  0
  4 18  2  0  0  0  0
  5 20  1  0  0  0  0
  6 22  1  0  0  0  0
  7 12  2  0  0  0  0
  7 21  1  0  0  0  0
  8  9  2  0  0  0  0
  8 24  1  0  0  0  0
  9 25  1  0  0  0  0
 10 26  1  0  0  0  0
 11 26  2  0  0  0  0
 12 27  1  0  0  0  0
 13 14  2  0  0  0  0
 13 28  1  0  0  0  0
 14 29  1  0  0  0  0
 15 23  1  0  0  0  0
 15 27  2  0  0  0  0
 16 24  2  0  0  0  0
 16 30  1  0  0  0  0
 17 29  2  0  0  0  0
 17 31  1  0  0  0  0
 18 32  1  0  0  0  0
 19 32  1  0  0  0  0
 19 33  2  0  0  0  0
 19 34  1  0  0  0  0
 20 22  2  0  0  0  0
 20 39  1  0  0  0  0
 21 23  2  0  0  0  0
 21 40  1  0  0  0  0
 22 48  1  0  0  0  0
 23 41  1  0  0  0  0
 24 73  1  0  0  0  0
 25 30  2  0  0  0  0
 25 70  1  0  0  0  0
 26 80  1  0  0  0  0
 27 81  1  0  0  0  0
 28 31  2  0  0  0  0
 28 80  1  0  0  0  0
 29 82  1  0  0  0  0
 30 83  1  0  0  0  0
 31 84  1  0  0  0  0
 32 64  2  0  0  0  0
 33 65  1  0  0  0  0
 33 68  1  0  0  0  0
 34 69  1  0  0  0  0
 34 75  2  0  0  0  0
 35 49  1  0  0  0  0
 35 71  1  0  0  0  0
 35 76  2  0  0  0  0
 36 61  1  0  0  0  0
 36 66  1  0  0  0  0
 36 77  2  0  0  0  0
 37 62  1  0  0  0  0
 37 72  1  0  0  0  0
 37 78  2  0  0  0  0
 38 67  1  0  0  0  0
 38 70  1  0  0  0  0
 38 79  2  0  0  0  0
 39 42  1  0  0  0  0
 40 49  1  0  0  0  0
 41 66  1  0  0  0  0
 42 44  1  0  0  0  0
 43 45  1  0  0  0  0
 43 46  1  0  0  0  0
 44 48  1  0  0  0  0
 45 50  1  0  0  0  0
 46 67  1  0  0  0  0
 47 50  1  0  0  0  0
 47 67  1  0  0  0  0
 48 71  1  0  0  0  0
 49 66  1  0  0  0  0
 50 65  1  0  0  0  0
 51 58  1  0  0  0  0
 52 62  1  0  0  0  0
 53 63  1  0  0  0  0
 54 63  1  0  0  0  0
 55 63  1  0  0  0  0
 56 74  1  0  0  0  0
 57 59  1  0  0  0  0
 57 60  1  0  0  0  0
 58 73  1  0  0  0  0
 59 73  1  0  0  0  0
 60 81  1  0  0  0  0
 61 63  1  0  0  0  0
 61 72  1  0  0  0  0
 62 74  1  0  0  0  0
 64 65  1  0  0  0  0
M  CHG  1  74   1
M  ISO  4  38 100  60 101  70 100  81 101
M  END
> <Batch ID>
0017

> <Smiles>
CCN(CC[101CH2:1][101O:1]c1ccc2c(c1)CN(C(=O)C(NC(=O)C(C)NC)C(C)(C)C)C(C(=O)NC1CCCc3ccccc31)C2)c1ccc([100NH:0][100C:0](=O)N2CCCC(n3nc(-c4ccc(Oc5ccc(F)cc5F)cc4)c(C(N)=O)c3N)C2)c(F)c1

> <Shape>
0.291

> <Color>
0.142

> <Negative vol penalty>
0.000

$$$$

  -OEChem-04042321003D

 84 92  0     1  0  0  0  0  0999 V2000
  -29.8678   -2.0832   36.8256 C   0  0  0  0  0  0  0  0  0  0  0  0
  -29.8000   -2.9386   35.7306 C   0  0  0  0  0  0  0  0  0  0  0  0
  -23.2846   -9.7975   19.9080 C   0  0  0  0  0  0  0  0  0  0  0  0
  -23.7225   -9.9368   22.2799 C   0  0  0  0  0  0  0  0  0  0  0  0
  -28.6956   -1.5915   37.3984 C   0  0  0  0  0  0  0  0  0  0  0  0
  -28.5597   -3.3021   35.2070 C   0  0  0  0  0  0  0  0  0  0  0  0
  -27.0427   -8.6994   32.7426 C   0  0  0  0  0  0  0  0  0  0  0  0
  -28.4291  -11.5084   25.2454 C   0  0  0  0  0  0  0  0  0  0  0  0
  -28.4860  -10.3588   23.1212 C   0  0  0  0  0  0  0  0  0  0  0  0
  -27.7612  -10.4241   25.8143 C   0  0  0  0  0  0  0  0  0  0  0  0
  -27.8181   -9.2744   23.6902 C   0  0  0  0  0  0  0  0  0  0  0  0
  -22.5525   -8.6278   20.1119 C   0  0  0  0  0  0  0  0  0  0  0  0
  -22.9904   -8.7671   22.4838 C   0  0  0  0  0  0  0  0  0  0  0  0
  -26.9560   -9.1361   31.4214 C   0  0  0  0  0  0  0  0  0  0  0  0
  -19.7387   -7.8687   22.6830 C   0  0  0  0  0  0  0  0  0  0  0  0
  -18.8303   -7.8507   23.7413 C   0  0  0  0  0  0  0  0  0  0  0  0
  -24.5870   -8.6809   31.4327 C   0  0  0  0  0  0  0  0  0  0  0  0
  -20.0233   -5.9990   24.7339 C   0  0  0  0  0  0  0  0  0  0  0  0
  -23.8696  -10.4519   20.9921 C   0  0  0  0  0  0  0  0  0  0  0  0
  -24.1400  -12.9809   20.7945 C   0  0  0  0  0  0  0  0  0  0  0  0
  -27.4401   -1.9568   36.8876 C   0  0  0  0  0  0  0  0  0  0  0  0
  -25.9022   -8.2391   33.4164 C   0  0  0  0  0  0  0  0  0  0  0  0
  -27.3696   -2.8138   35.7726 C   0  0  0  0  0  0  0  0  0  0  0  0
  -24.6614   -8.2413   32.7633 C   0  0  0  0  0  0  0  0  0  0  0  0
  -28.7915  -11.4758   23.8987 C   0  0  0  0  0  0  0  0  0  0  0  0
  -27.4557   -9.3071   25.0368 C   0  0  0  0  0  0  0  0  0  0  0  0
  -22.4054   -8.1126   21.3998 C   0  0  0  0  0  0  0  0  0  0  0  0
  -25.7286   -9.1242   30.7653 C   0  0  0  0  0  0  0  0  0  0  0  0
  -20.7894   -6.9518   22.6500 C   0  0  0  0  0  0  0  0  0  0  0  0
  -18.9726   -6.9159   24.7667 C   0  0  0  0  0  0  0  0  0  0  0  0
  -20.9317   -6.0170   23.6755 C   0  0  0  0  0  0  0  0  0  0  0  0
  -24.6265  -11.6599   20.7821 C   0  0  0  0  0  0  0  0  0  0  0  0
  -25.2459  -13.7565   20.5456 C   0  0  0  0  0  0  0  0  0  0  0  0
  -22.8075  -13.4637   21.0117 C   0  0  0  0  0  0  0  0  0  0  0  0
  -25.0315   -5.4755   34.7233 C   0  0  0  0  0  0  0  0  0  0  0  0
  -22.4723   -7.2006   35.7218 C   0  0  0  0  0  0  0  0  0  0  0  0
  -20.4424   -9.9047   35.2594 C   0  0  0  0  0  0  0  0  0  0  0  0
  -31.1496  -12.3509   21.3872 C   0  0  0  0  0  0  0  0  0  0  0  0
  -26.2020   -1.3624   37.5107 C   0  0  0  0  0  0  0  0  0  0  0  0
  -26.0076   -7.7965   34.8501 C   0  0  0  0  0  0  0  0  0  0  0  0
  -23.4036   -7.7759   33.4487 C   0  0  0  0  0  0  0  0  0  0  0  0
  -24.9172   -2.0935   37.1297 C   0  0  0  0  0  0  0  0  0  0  0  0
  -29.4877  -13.6547   18.3475 C   0  0  0  0  0  0  0  0  0  0  0  0
  -24.8769   -2.3545   35.6274 C   0  0  0  0  0  0  0  0  0  0  0  0
  -28.0171  -13.3328   18.6079 C   0  0  0  0  0  0  0  0  0  0  0  0
  -30.4170  -12.6711   19.0522 C   0  0  0  0  0  0  0  0  0  0  0  0
  -28.6994  -12.2294   20.7753 C   0  0  0  0  0  0  0  0  0  0  0  0
  -26.0424   -3.2508   35.1916 C   0  0  1  0  0  0  0  0  0  0  0  0
  -24.8755   -6.8653   35.2727 C   0  0  1  0  0  0  0  0  0  0  0  0
  -27.7370  -13.2295   20.1172 C   0  0  2  0  0  0  0  0  0  0  0  0
  -18.4121  -11.0298   36.2130 C   0  0  0  0  0  0  0  0  0  0  0  0
  -20.6974   -5.0672   34.4536 C   0  0  0  0  0  0  0  0  0  0  0  0
  -18.7849   -6.6772   34.5889 C   0  0  0  0  0  0  0  0  0  0  0  0
  -19.9058   -5.8966   36.6762 C   0  0  0  0  0  0  0  0  0  0  0  0
  -26.4659   -7.0444   24.7913 C   0  0  0  0  0  0  0  0  0  0  0  0
  -31.8627  -12.0559   23.7290 C   0  0  0  0  0  0  0  0  0  0  0  0
  -21.9521  -12.3786   35.8592 C   0  0  0  0  0  0  0  0  0  0  0  0
  -29.5053  -12.6348   23.2894 C   0  0  0  0  0  0  0  0  0  0  0  0
  -25.1026   -8.9645   27.2113 C   0  0  0  0  0  0  0  0  0  0  0  0
  -26.4098   -8.2097   27.0020 C   0  0  0  0  0  0  0  0  0  0  0  0
  -24.6335   -8.9512   28.6614 C   0  0  0  0  0  0  0  0  0  1  0  0
  -21.1096   -7.5176   35.1547 C   0  0  1  0  0  0  0  0  0  0  0  0
  -19.9311  -10.9575   36.2262 C   0  0  2  0  0  0  0  0  0  0  0  0
  -20.1483   -6.2967   35.2045 C   0  0  0  0  0  0  0  0  0  0  0  0
  -25.9392  -11.5961   20.5439 N   0  0  0  0  0  0  0  0  0  0  0  0
  -26.2869  -12.8867   20.4044 N   0  0  0  0  0  0  0  0  0  0  0  0
  -23.5593   -7.3469   34.8484 N   0  0  0  0  0  0  0  0  0  0  0  0
  -30.1009  -12.5599   20.4766 N   0  0  0  0  0  0  0  0  0  0  0  0
  -25.4196  -15.0907   20.4359 N   0  0  0  0  0  0  0  0  0  0  0  0
  -21.7900  -12.5308   21.2536 N   0  0  0  0  0  0  0  0  0  0  0  0
  -25.7716   -4.6317   35.5293 N   0  0  0  0  0  0  0  0  0  0  0  0
  -20.6276   -8.6877   35.8806 N   0  0  0  0  0  0  0  0  0  0  0  0
  -26.7858   -8.2161   25.6089 N   0  0  3  0  0  0  0  0  0  0  0  0
  -30.8090  -12.2608   22.7454 N   0  0  0  0  0  0  0  0  0  0  0  0
  -20.4686  -12.2991   35.8629 N   0  3  0  0  0  0  0  0  0  0  0  0
  -22.5246  -14.6852   20.9756 O   0  0  0  0  0  0  0  0  0  0  0  0
  -24.5171   -5.1895   33.6485 O   0  0  0  0  0  0  0  0  0  0  0  0
  -22.5694   -6.8434   36.8985 O   0  0  0  0  0  0  0  0  0  0  0  0
  -20.6527  -10.1376   34.0711 O   0  0  0  0  0  0  0  0  0  0  0  0
  -32.3246  -12.2600   21.0088 O   0  0  0  0  0  0  0  0  0  0  0  0
  -21.6909   -6.9715   21.5991 O   0  0  0  0  0  0  0  0  0  0  0  0
  -25.6413   -9.5493   29.4756 O   0  0  0  0  0  0  0  0  0  1  0  0
  -18.1010   -6.8998   25.7838 F   0  0  0  0  0  0  0  0  0  0  0  0
  -21.9398   -5.1344   23.6500 F   0  0  0  0  0  0  0  0  0  0  0  0
  1  2  1  0  0  0  0
  1  5  2  0  0  0  0
  2  6  2  0  0  0  0
  3 12  2  0  0  0  0
  3 19  1  0  0  0  0
  4 13  1  0  0  0  0
  4 19  2  0  0  0  0
  5 21  1  0  0  0  0
  6 23  1  0  0  0  0
  7 14  2  0  0  0  0
  7 22  1  0  0  0  0
  8 10  2  0  0  0  0
  8 25  1  0  0  0  0
  9 11  1  0  0  0  0
  9 25  2  0  0  0  0
 10 26  1  0  0  0  0
 11 26  2  0  0  0  0
 12 27  1  0  0  0  0
 13 27  2  0  0  0  0
 14 28  1  0  0  0  0
 15 16  2  0  0  0  0
 15 29  1  0  0  0  0
 16 30  1  0  0  0  0
 17 24  1  0  0  0  0
 17 28  2  0  0  0  0
 18 30  2  0  0  0  0
 18 31  1  0  0  0  0
 19 32  1  0  0  0  0
 20 32  1  0  0  0  0
 20 33  2  0  0  0  0
 20 34  1  0  0  0  0
 21 23  2  0  0  0  0
 21 39  1  0  0  0  0
 22 24  2  0  0  0  0
 22 40  1  0  0  0  0
 23 48  1  0  0  0  0
 24 41  1  0  0  0  0
 25 58  1  0  0  0  0
 26 73  1  0  0  0  0
 27 81  1  0  0  0  0
 28 82  1  0  0  0  0
 29 31  2  0  0  0  0
 29 81  1  0  0  0  0
 30 83  1  0  0  0  0
 31 84  1  0  0  0  0
 32 65  2  0  0  0  0
 33 66  1  0  0  0  0
 33 69  1  0  0  0  0
 34 70  1  0  0  0  0
 34 76  2  0  0  0  0
 35 49  1  0  0  0  0
 35 71  1  0  0  0  0
 35 77  2  0  0  0  0
 36 62  1  0  0  0  0
 36 67  1  0  0  0  0
 36 78  2  0  0  0  0
 37 63  1  0  0  0  0
 37 72  1  0  0  0  0
 37 79  2  0  0  0  0
 38 68  1  0  0  0  0
 38 74  1  0  0  0  0
 38 80  2  0  0  0  0
 39 42  1  0  0  0  0
 40 49  1  0  0  0  0
 41 67  1  0  0  0  0
 42 44  1  0  0  0  0
 43 45  1  0  0  0  0
 43 46  1  0  0  0  0
 44 48  1  0  0  0  0
 45 50  1  0  0  0  0
 46 68  1  0  0  0  0
 47 50  1  0  0  0  0
 47 68  1  0  0  0  0
 48 71  1  0  0  0  0
 49 67  1  0  0  0  0
 50 66  1  0  0  0  0
 51 63  1  0  0  0  0
 52 64  1  0  0  0  0
 53 64  1  0  0  0  0
 54 64  1  0  0  0  0
 55 73  1  0  0  0  0
 56 74  1  0  0  0  0
 57 75  1  0  0  0  0
 58 74  1  0  0  0  0
 59 60  1  0  0  0  0
 59 61  1  0  0  0  0
 60 73  1  0  0  0  0
 61 82  1  0  0  0  0
 62 64  1  0  0  0  0
 62 72  1  0  0  0  0
 63 75  1  0  0  0  0
 65 66  1  0  0  0  0
M  CHG  1  75   1
M  ISO  4  38 100  61 101  74 100  82 101
M  END
> <Batch ID>
0017

> <Smiles>
CNC(C)C(=O)NC(C(=O)N1Cc2cc([101O:1][101CH2:1]CCN(C)c3ccc(C[100N:0](C)[100C:0](=O)N4CCCC(n5nc(-c6ccc(Oc7ccc(F)cc7F)cc6)c(C(N)=O)c5N)C4)cc3)ccc2CC1C(=O)NC1CCCc2ccccc21)C(C)(C)C

> <Shape>
0.132

> <Color>
0.185

> <Negative vol penalty>
0.000

$$$$

  -OEChem-04042321003D

 88 97  0     1  0  0  0  0  0999 V2000
  -17.7971  -30.4322   23.3287 C   0  0  0  0  0  0  0  0  0  0  0  0
  -19.1807  -30.5678   23.2772 C   0  0  0  0  0  0  0  0  0  0  0  0
  -26.1640  -13.6076   20.7556 C   0  0  0  0  0  0  0  0  0  0  0  0
  -24.7231  -14.7483   19.1872 C   0  0  0  0  0  0  0  0  0  0  0  0
  -17.2151  -29.1739   23.1811 C   0  0  0  0  0  0  0  0  0  0  0  0
  -19.9833  -29.4448   23.0792 C   0  0  0  0  0  0  0  0  0  0  0  0
  -25.2545  -29.1888   19.9721 C   0  0  0  0  0  0  0  0  0  0  0  0
  -30.7744  -21.6525   21.5665 C   0  0  0  0  0  0  0  0  0  0  0  0
  -30.6487  -20.9952   22.7903 C   0  0  0  0  0  0  0  0  0  0  0  0
  -25.5356  -12.3993   20.4541 C   0  0  0  0  0  0  0  0  0  0  0  0
  -24.0947  -13.5400   18.8857 C   0  0  0  0  0  0  0  0  0  0  0  0
  -26.5869  -29.2158   20.3815 C   0  0  0  0  0  0  0  0  0  0  0  0
  -24.0683   -9.0734   20.3615 C   0  0  0  0  0  0  0  0  0  0  0  0
  -23.7171   -8.2405   21.4238 C   0  0  0  0  0  0  0  0  0  0  0  0
  -26.6469  -26.8049   20.3249 C   0  0  0  0  0  0  0  0  0  0  0  0
  -28.7455  -22.8836   22.0191 C   0  0  0  0  0  0  0  0  0  0  0  0
  -22.3067   -9.9834   22.3240 C   0  0  0  0  0  0  0  0  0  0  0  0
  -25.7577  -14.7821   20.1222 C   0  0  0  0  0  0  0  0  0  0  0  0
  -27.5344  -16.5840   19.7991 C   0  0  0  0  0  0  0  0  0  0  0  0
  -18.0105  -28.0363   22.9714 C   0  0  0  0  0  0  0  0  0  0  0  0
  -24.6039  -27.9673   19.7461 C   0  0  0  0  0  0  0  0  0  0  0  0
  -19.4115  -28.1699   22.9299 C   0  0  0  0  0  0  0  0  0  0  0  0
  -25.3069  -26.7652   19.9101 C   0  0  0  0  0  0  0  0  0  0  0  0
  -29.8229  -22.5967   21.1809 C   0  0  0  0  0  0  0  0  0  0  0  0
  -29.5713  -21.2821   23.6285 C   0  0  0  0  0  0  0  0  0  0  0  0
  -24.5010  -12.3656   19.5192 C   0  0  0  0  0  0  0  0  0  0  0  0
  -27.2825  -28.0237   20.5608 C   0  0  0  0  0  0  0  0  0  0  0  0
  -23.5387  -10.3613   20.2804 C   0  0  0  0  0  0  0  0  0  0  0  0
  -22.8363   -8.6955   22.4051 C   0  0  0  0  0  0  0  0  0  0  0  0
  -28.6197  -22.2263   23.2430 C   0  0  0  0  0  0  0  0  0  0  0  0
  -22.6579  -10.8163   21.2616 C   0  0  0  0  0  0  0  0  0  0  0  0
  -26.4061  -16.0306   20.4336 C   0  0  0  0  0  0  0  0  0  0  0  0
  -27.7528  -17.7686   20.4589 C   0  0  0  0  0  0  0  0  0  0  0  0
  -30.8753  -26.3726   19.5240 C   0  0  0  0  0  0  0  0  0  0  0  0
  -30.9631  -27.7094   19.3253 C   0  0  0  0  0  0  0  0  0  0  0  0
  -28.3153  -16.0728   18.7107 C   0  0  0  0  0  0  0  0  0  0  0  0
  -22.0959  -26.4914   21.0248 C   0  0  0  0  0  0  0  0  0  0  0  0
  -22.6168  -24.3670   18.6295 C   0  0  0  0  0  0  0  0  0  0  0  0
  -24.8062  -22.9918   16.4018 C   0  0  0  0  0  0  0  0  0  0  0  0
  -28.2036  -20.3304   25.5034 C   0  0  0  0  0  0  0  0  0  0  0  0
  -17.3384  -26.6903   22.8646 C   0  0  0  0  0  0  0  0  0  0  0  0
  -23.1743  -27.9559   19.2789 C   0  0  0  0  0  0  0  0  0  0  0  0
  -24.6602  -25.4280   19.6611 C   0  0  0  0  0  0  0  0  0  0  0  0
  -30.9737  -25.1662   18.6308 C   0  0  0  0  0  0  0  0  0  0  0  0
  -30.6350  -25.4996   20.7251 C   0  0  0  0  0  0  0  0  0  0  0  0
  -18.2399  -25.6038   22.2838 C   0  0  0  0  0  0  0  0  0  0  0  0
  -24.9248  -20.2951   23.7885 C   0  0  0  0  0  0  0  0  0  0  0  0
  -19.6134  -25.6391   22.9465 C   0  0  0  0  0  0  0  0  0  0  0  0
  -25.0872  -19.1690   22.7692 C   0  0  0  0  0  0  0  0  0  0  0  0
  -25.7906  -20.0696   25.0243 C   0  0  0  0  0  0  0  0  0  0  0  0
  -27.4014  -18.7425   23.6879 C   0  0  0  0  0  0  0  0  0  0  0  0
  -20.3144  -26.9790   22.6920 C   0  0  1  0  0  0  0  0  0  0  0  0
  -22.4594  -26.6410   19.5746 C   0  0  1  0  0  0  0  0  0  0  0  0
  -26.5699  -18.9667   22.4160 C   0  0  1  0  0  0  0  0  0  0  0  0
  -31.6946  -29.9665   20.0580 C   0  0  0  0  0  0  0  0  0  0  0  0
  -24.9503  -21.2507   14.6004 C   0  0  0  0  0  0  0  0  0  0  0  0
  -22.6821  -22.1779   20.7540 C   0  0  0  0  0  0  0  0  0  0  0  0
  -23.7494  -20.6681   19.0658 C   0  0  0  0  0  0  0  0  0  0  0  0
  -21.4570  -21.5648   18.6617 C   0  0  0  0  0  0  0  0  0  0  0  0
  -30.6507  -20.4136   25.6953 C   0  0  0  0  0  0  0  0  0  0  0  0
  -25.5134  -25.0052   14.3512 C   0  0  0  0  0  0  0  0  0  0  0  0
  -29.9573  -23.3030   19.8641 C   0  0  0  0  0  0  0  0  0  0  0  0
  -29.3630  -29.1757   20.5684 C   0  0  0  0  0  0  0  0  0  1  0  0
  -30.8274  -28.7565   20.4039 C   0  0  1  0  0  0  0  0  0  0  0  0
  -23.4454  -23.1148   18.4724 C   0  0  1  0  0  0  0  0  0  0  0  0
  -24.6887  -22.7156   14.9137 C   0  0  2  0  0  0  0  0  0  0  0  0
  -22.8454  -21.9064   19.2451 C   0  0  0  0  0  0  0  0  0  0  0  0
  -25.9402  -16.8004   21.4207 N   0  0  0  0  0  0  0  0  0  0  0  0
  -26.7801  -17.8495   21.4115 N   0  0  0  0  0  0  0  0  0  0  0  0
  -23.2588  -25.4691   19.2117 N   0  0  0  0  0  0  0  0  0  0  0  0
  -27.1884  -19.8188   24.6694 N   0  0  0  0  0  0  0  0  0  0  0  0
  -28.6800  -18.7386   20.3114 N   0  0  0  0  0  0  0  0  0  0  0  0
  -27.9527  -14.8410   18.1489 N   0  0  0  0  0  0  0  0  0  0  0  0
  -20.8607  -27.0171   21.3523 N   0  0  0  0  0  0  0  0  0  0  0  0
  -23.5861  -22.8958   17.0369 N   0  0  0  0  0  0  0  0  0  0  0  0
  -29.4435  -20.6004   24.8934 N   0  0  0  0  0  0  0  0  0  0  0  0
  -31.0124  -24.3455   19.8688 N   0  3  0  0  0  0  0  0  0  0  0  0
  -25.6702  -23.5411   14.1546 N   0  3  0  0  0  0  0  0  0  0  0  0
  -29.3150  -16.6823   18.2607 O   0  0  0  0  0  0  0  0  0  0  0  0
  -22.8775  -25.9385   21.7897 O   0  0  0  0  0  0  0  0  0  0  0  0
  -21.4454  -24.3694   18.2431 O   0  0  0  0  0  0  0  0  0  0  0  0
  -25.8741  -23.2618   16.9469 O   0  0  0  0  0  0  0  0  0  0  0  0
  -28.0359  -20.4842   26.7195 O   0  0  0  0  0  0  0  0  0  0  0  0
  -23.8878  -11.1867   19.2246 O   0  0  0  0  0  0  0  0  0  0  0  0
  -28.5829  -28.0472   20.9610 O   0  0  0  0  0  0  0  0  0  1  0  0
  -22.4979   -7.8951   23.4244 F   0  0  0  0  0  0  0  0  0  0  0  0
  -27.5793  -22.5088   24.0400 F   0  0  0  0  0  0  0  0  0  0  0  0
  -22.1451  -12.0522   21.1884 F   0  0  0  0  0  0  0  0  0  0  0  0
  1  2  1  0  0  0  0
  1  5  2  0  0  0  0
  2  6  2  0  0  0  0
  3 10  2  0  0  0  0
  3 18  1  0  0  0  0
  4 11  1  0  0  0  0
  4 18  2  0  0  0  0
  5 20  1  0  0  0  0
  6 22  1  0  0  0  0
  7 12  2  0  0  0  0
  7 21  1  0  0  0  0
  8  9  2  0  0  0  0
  8 24  1  0  0  0  0
  9 25  1  0  0  0  0
 10 26  1  0  0  0  0
 11 26  2  0  0  0  0
 12 27  1  0  0  0  0
 13 14  2  0  0  0  0
 13 28  1  0  0  0  0
 14 29  1  0  0  0  0
 15 23  1  0  0  0  0
 15 27  2  0  0  0  0
 16 24  2  0  0  0  0
 16 30  1  0  0  0  0
 17 29  2  0  0  0  0
 17 31  1  0  0  0  0
 18 32  1  0  0  0  0
 19 32  1  0  0  0  0
 19 33  2  0  0  0  0
 19 36  1  0  0  0  0
 20 22  2  0  0  0  0
 20 41  1  0  0  0  0
 21 23  2  0  0  0  0
 21 42  1  0  0  0  0
 22 52  1  0  0  0  0
 23 43  1  0  0  0  0
 24 62  1  0  0  0  0
 25 30  2  0  0  0  0
 25 76  1  0  0  0  0
 26 84  1  0  0  0  0
 27 85  1  0  0  0  0
 28 31  2  0  0  0  0
 28 84  1  0  0  0  0
 29 86  1  0  0  0  0
 30 87  1  0  0  0  0
 31 88  1  0  0  0  0
 32 68  2  0  0  0  0
 33 69  1  0  0  0  0
 33 72  1  0  0  0  0
 34 35  2  0  0  0  0
 34 44  1  0  0  0  0
 34 45  1  0  0  0  0
 35 64  1  0  0  0  0
 36 73  1  0  0  0  0
 36 79  2  0  0  0  0
 37 53  1  0  0  0  0
 37 74  1  0  0  0  0
 37 80  2  0  0  0  0
 38 65  1  0  0  0  0
 38 70  1  0  0  0  0
 38 81  2  0  0  0  0
 39 66  1  0  0  0  0
 39 75  1  0  0  0  0
 39 82  2  0  0  0  0
 40 71  1  0  0  0  0
 40 76  1  0  0  0  0
 40 83  2  0  0  0  0
 41 46  1  0  0  0  0
 42 53  1  0  0  0  0
 43 70  1  0  0  0  0
 44 77  1  0  0  0  0
 45 77  1  0  0  0  0
 46 48  1  0  0  0  0
 47 49  1  0  0  0  0
 47 50  1  0  0  0  0
 48 52  1  0  0  0  0
 49 54  1  0  0  0  0
 50 71  1  0  0  0  0
 51 54  1  0  0  0  0
 51 71  1  0  0  0  0
 52 74  1  0  0  0  0
 53 70  1  0  0  0  0
 54 69  1  0  0  0  0
 55 64  1  0  0  0  0
 56 66  1  0  0  0  0
 57 67  1  0  0  0  0
 58 67  1  0  0  0  0
 59 67  1  0  0  0  0
 60 76  1  0  0  0  0
 61 78  1  0  0  0  0
 62 77  1  0  0  0  0
 63 64  1  0  0  0  0
 63 85  1  0  0  0  0
 65 67  1  0  0  0  0
 65 75  1  0  0  0  0
 66 78  1  0  0  0  0
 68 69  1  0  0  0  0
M  CHG  2  77   1  78   1
M  ISO  4  40 100  63 101  76 100  85 101
M  END
> <Batch ID>
0017

> <Smiles>
CNC(C)C(=O)NC(C(=O)N1Cc2cc([101O:1][101CH2:1]C(C)C=C3CN(Cc4ccc([100N:0](C)[100C:0](=O)N5CCCC(n6nc(-c7ccc(Oc8ccc(F)cc8F)cc7)c(C(N)=O)c6N)C5)c(F)c4)C3)ccc2CC1C(=O)NC1CCCc2ccccc21)C(C)(C)C

> <Shape>
0.236

> <Color>
0.057

> <Negative vol penalty>
0.000

$$$$

  -OEChem-04042321003D

 85 93  0     1  0  0  0  0  0999 V2000
  -34.1083  -31.6303   17.6705 C   0  0  0  0  0  0  0  0  0  0  0  0
  -34.0274  -30.2697   17.9492 C   0  0  0  0  0  0  0  0  0  0  0  0
  -23.1790   -9.8002   19.8810 C   0  0  0  0  0  0  0  0  0  0  0  0
  -23.5904   -9.8630   22.2608 C   0  0  0  0  0  0  0  0  0  0  0  0
  -33.0023  -32.4517   17.8853 C   0  0  0  0  0  0  0  0  0  0  0  0
  -32.8407  -29.7299   18.4439 C   0  0  0  0  0  0  0  0  0  0  0  0
  -30.5522  -24.1725   17.2672 C   0  0  0  0  0  0  0  0  0  0  0  0
  -30.5565  -15.6363   21.9145 C   0  0  0  0  0  0  0  0  0  0  0  0
  -31.0282  -16.9475   21.8528 C   0  0  0  0  0  0  0  0  0  0  0  0
  -22.4194   -8.6416   20.0428 C   0  0  0  0  0  0  0  0  0  0  0  0
  -22.8308   -8.7044   22.4227 C   0  0  0  0  0  0  0  0  0  0  0  0
  -30.5867  -22.9740   17.9786 C   0  0  0  0  0  0  0  0  0  0  0  0
  -23.2388   -5.3767   21.9861 C   0  0  0  0  0  0  0  0  0  0  0  0
  -23.7527   -4.3746   22.8092 C   0  0  0  0  0  0  0  0  0  0  0  0
  -28.4172  -23.4708   18.9090 C   0  0  0  0  0  0  0  0  0  0  0  0
  -31.1884  -17.0032   24.2629 C   0  0  0  0  0  0  0  0  0  0  0  0
  -21.8153   -4.5571   24.2410 C   0  0  0  0  0  0  0  0  0  0  0  0
  -23.7645  -10.4109   20.9900 C   0  0  0  0  0  0  0  0  0  0  0  0
  -24.0917  -12.9379   20.8676 C   0  0  0  0  0  0  0  0  0  0  0  0
  -31.7985  -31.9200   18.3738 C   0  0  0  0  0  0  0  0  0  0  0  0
  -29.4529  -25.0358   17.3800 C   0  0  0  0  0  0  0  0  0  0  0  0
  -31.7180  -30.5452   18.6667 C   0  0  0  0  0  0  0  0  0  0  0  0
  -28.3700  -24.6784   18.1960 C   0  0  0  0  0  0  0  0  0  0  0  0
  -30.4007  -15.0085   23.1503 C   0  0  0  0  0  0  0  0  0  0  0  0
  -31.3442  -17.6309   23.0270 C   0  0  0  0  0  0  0  0  0  0  0  0
  -22.2453   -8.0937   21.3137 C   0  0  0  0  0  0  0  0  0  0  0  0
  -29.5204  -22.6243   18.8019 C   0  0  0  0  0  0  0  0  0  0  0  0
  -22.0132   -5.9690   22.2906 C   0  0  0  0  0  0  0  0  0  0  0  0
  -23.0409   -3.9648   23.9366 C   0  0  0  0  0  0  0  0  0  0  0  0
  -30.7167  -15.6919   24.3245 C   0  0  0  0  0  0  0  0  0  0  0  0
  -21.3014   -5.5592   23.4180 C   0  0  0  0  0  0  0  0  0  0  0  0
  -24.5498  -11.6075   20.8233 C   0  0  0  0  0  0  0  0  0  0  0  0
  -25.2170  -13.6958   20.6539 C   0  0  0  0  0  0  0  0  0  0  0  0
  -22.7674  -13.4435   21.0827 C   0  0  0  0  0  0  0  0  0  0  0  0
  -29.0370  -28.0161   18.4038 C   0  0  0  0  0  0  0  0  0  0  0  0
  -26.0212  -27.5606   17.2992 C   0  0  0  0  0  0  0  0  0  0  0  0
  -23.5293  -25.3711   16.4974 C   0  0  0  0  0  0  0  0  0  0  0  0
  -31.0783  -12.1383   21.5247 C   0  0  0  0  0  0  0  0  0  0  0  0
  -30.6446  -32.8555   18.6347 C   0  0  0  0  0  0  0  0  0  0  0  0
  -29.4191  -26.3123   16.5852 C   0  0  0  0  0  0  0  0  0  0  0  0
  -27.1574  -25.5607   18.3359 C   0  0  0  0  0  0  0  0  0  0  0  0
  -29.3073  -32.1400   18.8069 C   0  0  0  0  0  0  0  0  0  0  0  0
  -29.4826  -13.5632   18.5039 C   0  0  0  0  0  0  0  0  0  0  0  0
  -29.4565  -30.9486   19.7478 C   0  0  0  0  0  0  0  0  0  0  0  0
  -28.0023  -13.2663   18.7377 C   0  0  0  0  0  0  0  0  0  0  0  0
  -30.3817  -12.5400   19.1913 C   0  0  0  0  0  0  0  0  0  0  0  0
  -28.6338  -12.0876   20.8807 C   0  0  0  0  0  0  0  0  0  0  0  0
  -30.4404  -29.9180   19.1811 C   0  0  1  0  0  0  0  0  0  0  0  0
  -28.4774  -27.3581   17.1743 C   0  0  1  0  0  0  0  0  0  0  0  0
  -27.7014  -13.1268   20.2401 C   0  0  2  0  0  0  0  0  0  0  0  0
  -21.1660  -25.2983   15.6565 C   0  0  0  0  0  0  0  0  0  0  0  0
  -25.0182  -28.4160   20.0509 C   0  0  0  0  0  0  0  0  0  0  0  0
  -22.7915  -27.4305   19.4687 C   0  0  0  0  0  0  0  0  0  0  0  0
  -23.7016  -29.3289   18.1305 C   0  0  0  0  0  0  0  0  0  0  0  0
  -32.1502  -19.6659   24.1972 C   0  0  0  0  0  0  0  0  0  0  0  0
  -31.9631  -12.4003   23.8112 C   0  0  0  0  0  0  0  0  0  0  0  0
  -24.3100  -23.8345   14.0916 C   0  0  0  0  0  0  0  0  0  0  0  0
  -29.8960  -13.6064   23.2127 C   0  0  0  0  0  0  0  0  0  0  0  0
  -30.6877  -20.2039   21.2017 C   0  0  0  0  0  0  0  0  0  0  0  0
  -32.0047  -19.6231   21.7021 C   0  0  0  0  0  0  0  0  0  0  0  0
  -30.8341  -20.9677   19.8909 C   0  0  0  0  0  0  0  0  0  1  0  0
  -24.7350  -27.0341   17.8885 C   0  0  1  0  0  0  0  0  0  0  0  0
  -22.6374  -25.2642   15.2736 C   0  0  2  0  0  0  0  0  0  0  0  0
  -24.0851  -28.0365   18.8837 C   0  0  0  0  0  0  0  0  0  0  0  0
  -25.8636  -11.5217   20.5990 N   0  0  0  0  0  0  0  0  0  0  0  0
  -26.2408  -12.8078   20.5002 N   0  0  0  0  0  0  0  0  0  0  0  0
  -27.1744  -26.8014   17.5435 N   0  0  0  0  0  0  0  0  0  0  0  0
  -30.0456  -12.3958   20.6081 N   0  0  0  0  0  0  0  0  0  0  0  0
  -25.4208  -15.0285   20.5842 N   0  0  0  0  0  0  0  0  0  0  0  0
  -21.7270  -12.5266   21.2860 N   0  0  0  0  0  0  0  0  0  0  0  0
  -29.8077  -29.1330   18.1428 N   0  0  0  0  0  0  0  0  0  0  0  0
  -23.8840  -26.6777   16.7583 N   0  0  0  0  0  0  0  0  0  0  0  0
  -31.8187  -18.9490   22.9644 N   0  0  3  0  0  0  0  0  0  0  0  0
  -30.9145  -12.6318   22.8279 N   0  0  0  0  0  0  0  0  0  0  0  0
  -22.9048  -23.9904   14.5476 N   0  3  0  0  0  0  0  0  0  0  0  0
  -22.5113  -14.6714   21.0780 O   0  0  0  0  0  0  0  0  0  0  0  0
  -28.7867  -27.5463   19.5075 O   0  0  0  0  0  0  0  0  0  0  0  0
  -26.0023  -28.6032   16.6401 O   0  0  0  0  0  0  0  0  0  0  0  0
  -23.8735  -24.3936   17.1582 O   0  0  0  0  0  0  0  0  0  0  0  0
  -32.0933  -11.5117   21.1943 O   0  0  0  0  0  0  0  0  0  0  0  0
  -21.5040   -6.9632   21.4721 O   0  0  0  0  0  0  0  0  0  0  0  0
  -29.5519  -21.4554   19.4979 O   0  0  0  0  0  0  0  0  0  1  0  0
  -23.5338   -3.0014   24.7260 F   0  0  0  0  0  0  0  0  0  0  0  0
  -30.5691  -15.0974   25.5168 F   0  0  0  0  0  0  0  0  0  0  0  0
  -20.1229   -6.1237   23.7149 F   0  0  0  0  0  0  0  0  0  0  0  0
  1  2  1  0  0  0  0
  1  5  2  0  0  0  0
  2  6  2  0  0  0  0
  3 10  2  0  0  0  0
  3 18  1  0  0  0  0
  4 11  1  0  0  0  0
  4 18  2  0  0  0  0
  5 20  1  0  0  0  0
  6 22  1  0  0  0  0
  7 12  2  0  0  0  0
  7 21  1  0  0  0  0
  8  9  2  0  0  0  0
  8 24  1  0  0  0  0
  9 25  1  0  0  0  0
 10 26  1  0  0  0  0
 11 26  2  0  0  0  0
 12 27  1  0  0  0  0
 13 14  2  0  0  0  0
 13 28  1  0  0  0  0
 14 29  1  0  0  0  0
 15 23  1  0  0  0  0
 15 27  2  0  0  0  0
 16 25  2  0  0  0  0
 16 30  1  0  0  0  0
 17 29  2  0  0  0  0
 17 31  1  0  0  0  0
 18 32  1  0  0  0  0
 19 32  1  0  0  0  0
 19 33  2  0  0  0  0
 19 34  1  0  0  0  0
 20 22  2  0  0  0  0
 20 39  1  0  0  0  0
 21 23  2  0  0  0  0
 21 40  1  0  0  0  0
 22 48  1  0  0  0  0
 23 41  1  0  0  0  0
 24 30  2  0  0  0  0
 24 58  1  0  0  0  0
 25 73  1  0  0  0  0
 26 81  1  0  0  0  0
 27 82  1  0  0  0  0
 28 31  2  0  0  0  0
 28 81  1  0  0  0  0
 29 83  1  0  0  0  0
 30 84  1  0  0  0  0
 31 85  1  0  0  0  0
 32 65  2  0  0  0  0
 33 66  1  0  0  0  0
 33 69  1  0  0  0  0
 34 70  1  0  0  0  0
 34 76  2  0  0  0  0
 35 49  1  0  0  0  0
 35 71  1  0  0  0  0
 35 77  2  0  0  0  0
 36 62  1  0  0  0  0
 36 67  1  0  0  0  0
 36 78  2  0  0  0  0
 37 63  1  0  0  0  0
 37 72  1  0  0  0  0
 37 79  2  0  0  0  0
 38 68  1  0  0  0  0
 38 74  1  0  0  0  0
 38 80  2  0  0  0  0
 39 42  1  0  0  0  0
 40 49  1  0  0  0  0
 41 67  1  0  0  0  0
 42 44  1  0  0  0  0
 43 45  1  0  0  0  0
 43 46  1  0  0  0  0
 44 48  1  0  0  0  0
 45 50  1  0  0  0  0
 46 68  1  0  0  0  0
 47 50  1  0  0  0  0
 47 68  1  0  0  0  0
 48 71  1  0  0  0  0
 49 67  1  0  0  0  0
 50 66  1  0  0  0  0
 51 63  1  0  0  0  0
 52 64  1  0  0  0  0
 53 64  1  0  0  0  0
 54 64  1  0  0  0  0
 55 73  1  0  0  0  0
 56 74  1  0  0  0  0
 57 75  1  0  0  0  0
 58 74  1  0  0  0  0
 59 60  1  0  0  0  0
 59 61  1  0  0  0  0
 60 73  1  0  0  0  0
 61 82  1  0  0  0  0
 62 64  1  0  0  0  0
 62 72  1  0  0  0  0
 63 75  1  0  0  0  0
 65 66  1  0  0  0  0
M  CHG  1  75   1
M  ISO  4  38 100  61 101  74 100  82 101
M  END
> <Batch ID>
0017

> <Smiles>
CNC(C)C(=O)NC(C(=O)N1Cc2cc([101O:1][101CH2:1]CCN(C)c3ccc(C[100N:0](C)[100C:0](=O)N4CCCC(n5nc(-c6ccc(Oc7ccc(F)cc7F)cc6)c(C(N)=O)c5N)C4)c(F)c3)ccc2CC1C(=O)NC1CCCc2ccccc21)C(C)(C)C

> <Shape>
0.238

> <Color>
0.207

> <Negative vol penalty>
0.000

$$$$

  -OEChem-04042321003D

 84 92  0     1  0  0  0  0  0999 V2000
  -29.8678   -2.0832   36.8256 C   0  0  0  0  0  0  0  0  0  0  0  0
  -29.8000   -2.9386   35.7306 C   0  0  0  0  0  0  0  0  0  0  0  0
  -23.2846   -9.7975   19.9080 C   0  0  0  0  0  0  0  0  0  0  0  0
  -23.7225   -9.9368   22.2799 C   0  0  0  0  0  0  0  0  0  0  0  0
  -28.6956   -1.5915   37.3984 C   0  0  0  0  0  0  0  0  0  0  0  0
  -28.5597   -3.3021   35.2070 C   0  0  0  0  0  0  0  0  0  0  0  0
  -27.0427   -8.6994   32.7426 C   0  0  0  0  0  0  0  0  0  0  0  0
  -28.4291  -11.5084   25.2454 C   0  0  0  0  0  0  0  0  0  0  0  0
  -28.4860  -10.3588   23.1212 C   0  0  0  0  0  0  0  0  0  0  0  0
  -27.7612  -10.4241   25.8143 C   0  0  0  0  0  0  0  0  0  0  0  0
  -27.8181   -9.2744   23.6902 C   0  0  0  0  0  0  0  0  0  0  0  0
  -22.5525   -8.6278   20.1119 C   0  0  0  0  0  0  0  0  0  0  0  0
  -22.9904   -8.7671   22.4838 C   0  0  0  0  0  0  0  0  0  0  0  0
  -26.9560   -9.1361   31.4214 C   0  0  0  0  0  0  0  0  0  0  0  0
  -19.7387   -7.8687   22.6830 C   0  0  0  0  0  0  0  0  0  0  0  0
  -18.8303   -7.8507   23.7413 C   0  0  0  0  0  0  0  0  0  0  0  0
  -24.5870   -8.6809   31.4327 C   0  0  0  0  0  0  0  0  0  0  0  0
  -20.0233   -5.9990   24.7339 C   0  0  0  0  0  0  0  0  0  0  0  0
  -23.8696  -10.4519   20.9921 C   0  0  0  0  0  0  0  0  0  0  0  0
  -24.1400  -12.9809   20.7945 C   0  0  0  0  0  0  0  0  0  0  0  0
  -27.4401   -1.9568   36.8876 C   0  0  0  0  0  0  0  0  0  0  0  0
  -25.9022   -8.2391   33.4164 C   0  0  0  0  0  0  0  0  0  0  0  0
  -27.3696   -2.8138   35.7726 C   0  0  0  0  0  0  0  0  0  0  0  0
  -24.6614   -8.2413   32.7633 C   0  0  0  0  0  0  0  0  0  0  0  0
  -28.7915  -11.4758   23.8987 C   0  0  0  0  0  0  0  0  0  0  0  0
  -27.4557   -9.3071   25.0368 C   0  0  0  0  0  0  0  0  0  0  0  0
  -22.4054   -8.1126   21.3998 C   0  0  0  0  0  0  0  0  0  0  0  0
  -25.7286   -9.1242   30.7653 C   0  0  0  0  0  0  0  0  0  0  0  0
  -20.7894   -6.9518   22.6500 C   0  0  0  0  0  0  0  0  0  0  0  0
  -18.9726   -6.9159   24.7667 C   0  0  0  0  0  0  0  0  0  0  0  0
  -20.9317   -6.0170   23.6755 C   0  0  0  0  0  0  0  0  0  0  0  0
  -24.6265  -11.6599   20.7821 C   0  0  0  0  0  0  0  0  0  0  0  0
  -25.2459  -13.7565   20.5456 C   0  0  0  0  0  0  0  0  0  0  0  0
  -22.8075  -13.4637   21.0117 C   0  0  0  0  0  0  0  0  0  0  0  0
  -25.0315   -5.4755   34.7233 C   0  0  0  0  0  0  0  0  0  0  0  0
  -22.4723   -7.2006   35.7218 C   0  0  0  0  0  0  0  0  0  0  0  0
  -20.4424   -9.9047   35.2594 C   0  0  0  0  0  0  0  0  0  0  0  0
  -31.1496  -12.3509   21.3872 C   0  0  0  0  0  0  0  0  0  0  0  0
  -26.2020   -1.3624   37.5107 C   0  0  0  0  0  0  0  0  0  0  0  0
  -26.0076   -7.7965   34.8501 C   0  0  0  0  0  0  0  0  0  0  0  0
  -23.4036   -7.7759   33.4487 C   0  0  0  0  0  0  0  0  0  0  0  0
  -24.9172   -2.0935   37.1297 C   0  0  0  0  0  0  0  0  0  0  0  0
  -29.4877  -13.6547   18.3475 C   0  0  0  0  0  0  0  0  0  0  0  0
  -24.8769   -2.3545   35.6274 C   0  0  0  0  0  0  0  0  0  0  0  0
  -28.0171  -13.3328   18.6079 C   0  0  0  0  0  0  0  0  0  0  0  0
  -30.4170  -12.6711   19.0522 C   0  0  0  0  0  0  0  0  0  0  0  0
  -28.6994  -12.2294   20.7753 C   0  0  0  0  0  0  0  0  0  0  0  0
  -26.0424   -3.2508   35.1916 C   0  0  1  0  0  0  0  0  0  0  0  0
  -24.8755   -6.8653   35.2727 C   0  0  1  0  0  0  0  0  0  0  0  0
  -27.7370  -13.2295   20.1172 C   0  0  2  0  0  0  0  0  0  0  0  0
  -18.4121  -11.0298   36.2130 C   0  0  0  0  0  0  0  0  0  0  0  0
  -20.6974   -5.0672   34.4536 C   0  0  0  0  0  0  0  0  0  0  0  0
  -18.7849   -6.6772   34.5889 C   0  0  0  0  0  0  0  0  0  0  0  0
  -19.9058   -5.8966   36.6762 C   0  0  0  0  0  0  0  0  0  0  0  0
  -26.4659   -7.0444   24.7913 C   0  0  0  0  0  0  0  0  0  0  0  0
  -31.8627  -12.0559   23.7290 C   0  0  0  0  0  0  0  0  0  0  0  0
  -21.9521  -12.3786   35.8592 C   0  0  0  0  0  0  0  0  0  0  0  0
  -29.5053  -12.6348   23.2894 C   0  0  0  0  0  0  0  0  0  0  0  0
  -25.1026   -8.9645   27.2113 C   0  0  0  0  0  0  0  0  0  0  0  0
  -26.4098   -8.2097   27.0020 C   0  0  0  0  0  0  0  0  0  0  0  0
  -24.6335   -8.9512   28.6614 C   0  0  0  0  0  0  0  0  0  1  0  0
  -21.1096   -7.5176   35.1547 C   0  0  1  0  0  0  0  0  0  0  0  0
  -19.9311  -10.9575   36.2262 C   0  0  2  0  0  0  0  0  0  0  0  0
  -20.1483   -6.2967   35.2045 C   0  0  0  0  0  0  0  0  0  0  0  0
  -25.9392  -11.5961   20.5439 N   0  0  0  0  0  0  0  0  0  0  0  0
  -26.2869  -12.8867   20.4044 N   0  0  0  0  0  0  0  0  0  0  0  0
  -23.5593   -7.3469   34.8484 N   0  0  0  0  0  0  0  0  0  0  0  0
  -30.1009  -12.5599   20.4766 N   0  0  0  0  0  0  0  0  0  0  0  0
  -25.4196  -15.0907   20.4359 N   0  0  0  0  0  0  0  0  0  0  0  0
  -21.7900  -12.5308   21.2536 N   0  0  0  0  0  0  0  0  0  0  0  0
  -25.7716   -4.6317   35.5293 N   0  0  0  0  0  0  0  0  0  0  0  0
  -20.6276   -8.6877   35.8806 N   0  0  0  0  0  0  0  0  0  0  0  0
  -26.7858   -8.2161   25.6089 N   0  0  3  0  0  0  0  0  0  0  0  0
  -30.8090  -12.2608   22.7454 N   0  0  0  0  0  0  0  0  0  0  0  0
  -20.4686  -12.2991   35.8629 N   0  3  0  0  0  0  0  0  0  0  0  0
  -22.5246  -14.6852   20.9756 O   0  0  0  0  0  0  0  0  0  0  0  0
  -24.5171   -5.1895   33.6485 O   0  0  0  0  0  0  0  0  0  0  0  0
  -22.5694   -6.8434   36.8985 O   0  0  0  0  0  0  0  0  0  0  0  0
  -20.6527  -10.1376   34.0711 O   0  0  0  0  0  0  0  0  0  0  0  0
  -32.3246  -12.2600   21.0088 O   0  0  0  0  0  0  0  0  0  0  0  0
  -21.6909   -6.9715   21.5991 O   0  0  0  0  0  0  0  0  0  0  0  0
  -25.6413   -9.5493   29.4756 O   0  0  0  0  0  0  0  0  0  1  0  0
  -18.1010   -6.8998   25.7838 F   0  0  0  0  0  0  0  0  0  0  0  0
  -21.9398   -5.1344   23.6500 F   0  0  0  0  0  0  0  0  0  0  0  0
  1  2  1  0  0  0  0
  1  5  2  0  0  0  0
  2  6  2  0  0  0  0
  3 12  2  0  0  0  0
  3 19  1  0  0  0  0
  4 13  1  0  0  0  0
  4 19  2  0  0  0  0
  5 21  1  0  0  0  0
  6 23  1  0  0  0  0
  7 14  2  0  0  0  0
  7 22  1  0  0  0  0
  8 10  2  0  0  0  0
  8 25  1  0  0  0  0
  9 11  1  0  0  0  0
  9 25  2  0  0  0  0
 10 26  1  0  0  0  0
 11 26  2  0  0  0  0
 12 27  1  0  0  0  0
 13 27  2  0  0  0  0
 14 28  1  0  0  0  0
 15 16  2  0  0  0  0
 15 29  1  0  0  0  0
 16 30  1  0  0  0  0
 17 24  1  0  0  0  0
 17 28  2  0  0  0  0
 18 30  2  0  0  0  0
 18 31  1  0  0  0  0
 19 32  1  0  0  0  0
 20 32  1  0  0  0  0
 20 33  2  0  0  0  0
 20 34  1  0  0  0  0
 21 23  2  0  0  0  0
 21 39  1  0  0  0  0
 22 24  2  0  0  0  0
 22 40  1  0  0  0  0
 23 48  1  0  0  0  0
 24 41  1  0  0  0  0
 25 58  1  0  0  0  0
 26 73  1  0  0  0  0
 27 81  1  0  0  0  0
 28 82  1  0  0  0  0
 29 31  2  0  0  0  0
 29 81  1  0  0  0  0
 30 83  1  0  0  0  0
 31 84  1  0  0  0  0
 32 65  2  0  0  0  0
 33 66  1  0  0  0  0
 33 69  1  0  0  0  0
 34 70  1  0  0  0  0
 34 76  2  0  0  0  0
 35 49  1  0  0  0  0
 35 71  1  0  0  0  0
 35 77  2  0  0  0  0
 36 62  1  0  0  0  0
 36 67  1  0  0  0  0
 36 78  2  0  0  0  0
 37 63  1  0  0  0  0
 37 72  1  0  0  0  0
 37 79  2  0  0  0  0
 38 68  1  0  0  0  0
 38 74  1  0  0  0  0
 38 80  2  0  0  0  0
 39 42  1  0  0  0  0
 40 49  1  0  0  0  0
 41 67  1  0  0  0  0
 42 44  1  0  0  0  0
 43 45  1  0  0  0  0
 43 46  1  0  0  0  0
 44 48  1  0  0  0  0
 45 50  1  0  0  0  0
 46 68  1  0  0  0  0
 47 50  1  0  0  0  0
 47 68  1  0  0  0  0
 48 71  1  0  0  0  0
 49 67  1  0  0  0  0
 50 66  1  0  0  0  0
 51 63  1  0  0  0  0
 52 64  1  0  0  0  0
 53 64  1  0  0  0  0
 54 64  1  0  0  0  0
 55 73  1  0  0  0  0
 56 74  1  0  0  0  0
 57 75  1  0  0  0  0
 58 74  1  0  0  0  0
 59 60  1  0  0  0  0
 59 61  1  0  0  0  0
 60 73  1  0  0  0  0
 61 82  1  0  0  0  0
 62 64  1  0  0  0  0
 62 72  1  0  0  0  0
 63 75  1  0  0  0  0
 65 66  1  0  0  0  0
M  CHG  1  75   1
M  ISO  4  38 100  61 101  74 100  82 101
M  END
> <Batch ID>
0017

> <Smiles>
CNC(C)C(=O)NC(C(=O)N1Cc2cc([101O:1][101CH2:1]CCN(C)c3ccc(C[100N:0](C)[100C:0](=O)N4CCCC(n5nc(-c6ccc(Oc7ccc(F)cc7F)cc6)c(C(N)=O)c5N)C4)cc3)ccc2CC1C(=O)NC1CCCc2ccccc21)C(C)(C)C

> <Shape>
0.132

> <Color>
0.185

> <Negative vol penalty>
0.000

$$$$

  -OEChem-04042321003D

 84 92  0     1  0  0  0  0  0999 V2000
  -31.3851  -25.2396   17.9816 C   0  0  0  0  0  0  0  0  0  0  0  0
  -30.0150  -25.0326   18.1052 C   0  0  0  0  0  0  0  0  0  0  0  0
  -27.6061  -14.9481   19.7239 C   0  0  0  0  0  0  0  0  0  0  0  0
  -25.2245  -15.2319   19.4332 C   0  0  0  0  0  0  0  0  0  0  0  0
  -32.0725  -25.9529   18.9628 C   0  0  0  0  0  0  0  0  0  0  0  0
  -29.3316  -25.5380   19.2106 C   0  0  0  0  0  0  0  0  0  0  0  0
  -23.6015  -27.6965   19.3253 C   0  0  0  0  0  0  0  0  0  0  0  0
  -21.2718  -23.8504   23.6345 C   0  0  0  0  0  0  0  0  0  0  0  0
  -22.5274  -23.5294   23.1187 C   0  0  0  0  0  0  0  0  0  0  0  0
  -27.4015  -13.6224   20.1062 C   0  0  0  0  0  0  0  0  0  0  0  0
  -25.0199  -13.9061   19.8155 C   0  0  0  0  0  0  0  0  0  0  0  0
  -22.3899  -27.1212   19.7058 C   0  0  0  0  0  0  0  0  0  0  0  0
  -24.9111  -12.1308   22.6908 C   0  0  0  0  0  0  0  0  0  0  0  0
  -23.8844  -11.8690   23.5980 C   0  0  0  0  0  0  0  0  0  0  0  0
  -22.6134  -28.1123   21.8938 C   0  0  0  0  0  0  0  0  0  0  0  0
  -20.2238  -22.5222   21.9098 C   0  0  0  0  0  0  0  0  0  0  0  0
  -22.8117  -10.4402   21.9717 C   0  0  0  0  0  0  0  0  0  0  0  0
  -26.5175  -15.7529   19.3874 C   0  0  0  0  0  0  0  0  0  0  0  0
  -26.9449  -17.6082   17.6895 C   0  0  0  0  0  0  0  0  0  0  0  0
  -31.3955  -26.4755   20.0759 C   0  0  0  0  0  0  0  0  0  0  0  0
  -24.3348  -28.4763   20.2312 C   0  0  0  0  0  0  0  0  0  0  0  0
  -30.0108  -26.2578   20.2083 C   0  0  0  0  0  0  0  0  0  0  0  0
  -23.8328  -28.6985   21.5214 C   0  0  0  0  0  0  0  0  0  0  0  0
  -20.1199  -23.3467   23.0300 C   0  0  0  0  0  0  0  0  0  0  0  0
  -21.4794  -22.2013   21.3940 C   0  0  0  0  0  0  0  0  0  0  0  0
  -22.6312  -22.7049   21.9985 C   0  0  0  0  0  0  0  0  0  0  0  0
  -26.1084  -13.1014   20.1519 C   0  0  0  0  0  0  0  0  0  0  0  0
  -21.8971  -27.3266   20.9911 C   0  0  0  0  0  0  0  0  0  0  0  0
  -24.8880  -11.5474   21.4240 C   0  0  0  0  0  0  0  0  0  0  0  0
  -22.8348  -11.0237   23.2385 C   0  0  0  0  0  0  0  0  0  0  0  0
  -23.8384  -10.7021   21.0645 C   0  0  0  0  0  0  0  0  0  0  0  0
  -26.7282  -17.1226   18.9930 C   0  0  0  0  0  0  0  0  0  0  0  0
  -27.0864  -18.9652   17.8477 C   0  0  0  0  0  0  0  0  0  0  0  0
  -27.0122  -16.8963   16.4468 C   0  0  0  0  0  0  0  0  0  0  0  0
  -27.2142  -28.2590   21.5599 C   0  0  0  0  0  0  0  0  0  0  0  0
  -26.4701  -31.1941   22.7236 C   0  0  0  0  0  0  0  0  0  0  0  0
  -24.0501  -33.4405   23.5862 C   0  0  0  0  0  0  0  0  0  0  0  0
  -25.1479  -22.8169   21.9843 C   0  0  0  0  0  0  0  0  0  0  0  0
  -32.1895  -27.1993   21.1344 C   0  0  0  0  0  0  0  0  0  0  0  0
  -25.6269  -29.1120   19.7966 C   0  0  0  0  0  0  0  0  0  0  0  0
  -24.5716  -29.5442   22.5251 C   0  0  0  0  0  0  0  0  0  0  0  0
  -31.3262  -28.0234   22.0863 C   0  0  0  0  0  0  0  0  0  0  0  0
  -28.5300  -22.2331   21.0369 C   0  0  0  0  0  0  0  0  0  0  0  0
  -30.1263  -27.2090   22.5593 C   0  0  0  0  0  0  0  0  0  0  0  0
  -28.4705  -20.9036   20.2814 C   0  0  0  0  0  0  0  0  0  0  0  0
  -27.5585  -22.2596   22.2156 C   0  0  0  0  0  0  0  0  0  0  0  0
  -26.1096  -20.5907   21.1271 C   0  0  0  0  0  0  0  0  0  0  0  0
  -29.2299  -26.8115   21.3803 C   0  0  1  0  0  0  0  0  0  0  0  0
  -26.5421  -29.4642   20.9652 C   0  0  1  0  0  0  0  0  0  0  0  0
  -27.0240  -20.5408   19.8921 C   0  0  2  0  0  0  0  0  0  0  0  0
  -21.5606  -21.3182   20.1910 C   0  0  0  0  0  0  0  0  0  0  0  0
  -23.7484  -35.7401   24.5445 C   0  0  0  0  0  0  0  0  0  0  0  0
  -27.1140  -30.1168   25.5048 C   0  0  0  0  0  0  0  0  0  0  0  0
  -25.9115  -32.0889   26.4709 C   0  0  0  0  0  0  0  0  0  0  0  0
  -27.9436  -32.4350   25.0661 C   0  0  0  0  0  0  0  0  0  0  0  0
  -22.6930  -34.4079   21.1405 C   0  0  0  0  0  0  0  0  0  0  0  0
  -17.4847  -25.5456   24.6426 C   0  0  0  0  0  0  0  0  0  0  0  0
  -18.7693  -23.6939   23.5835 C   0  0  0  0  0  0  0  0  0  0  0  0
  -18.4694  -27.1618   22.1094 C   0  0  0  0  0  0  0  0  0  0  0  0
  -18.1202  -25.6868   22.2389 C   0  0  0  0  0  0  0  0  0  0  0  0
  -19.9445  -27.4653   22.3417 C   0  0  0  0  0  0  0  0  0  1  0  0
  -25.7857  -31.7092   23.9667 C   0  0  1  0  0  0  0  0  0  0  0  0
  -23.8889  -34.9172   23.2734 C   0  0  2  0  0  0  0  0  0  0  0  0
  -26.6755  -31.5699   25.2341 C   0  0  0  0  0  0  0  0  0  0  0  0
  -26.7311  -18.0923   19.9116 N   0  0  0  0  0  0  0  0  0  0  0  0
  -26.9515  -19.2007   19.1843 N   0  0  0  0  0  0  0  0  0  0  0  0
  -25.8336  -30.1390   22.0547 N   0  0  0  0  0  0  0  0  0  0  0  0
  -26.2076  -21.9103   21.7706 N   0  0  0  0  0  0  0  0  0  0  0  0
  -27.3120  -19.9680   16.9725 N   0  0  0  0  0  0  0  0  0  0  0  0
  -26.8451  -15.5048   16.4640 N   0  0  0  0  0  0  0  0  0  0  0  0
  -23.9157  -22.3906   21.4896 N   0  0  0  0  0  0  0  0  0  0  0  0
  -28.4171  -27.9337   20.9627 N   0  0  0  0  0  0  0  0  0  0  0  0
  -25.3779  -33.0783   23.6705 N   0  0  0  0  0  0  0  0  0  0  0  0
  -22.6782  -35.1396   22.4333 N   0  3  0  0  0  0  0  0  0  0  0  0
  -18.4923  -25.1782   23.5799 N   0  3  1  0  0  0  0  0  0  0  0  0
  -27.2309  -17.4749   15.3555 O   0  0  0  0  0  0  0  0  0  0  0  0
  -26.6815  -27.6689   22.4925 O   0  0  0  0  0  0  0  0  0  0  0  0
  -27.5266  -31.7135   22.3556 O   0  0  0  0  0  0  0  0  0  0  0  0
  -23.0938  -32.6848   23.7439 O   0  0  0  0  0  0  0  0  0  0  0  0
  -25.3260  -23.9042   22.5394 O   0  0  0  0  0  0  0  0  0  0  0  0
  -25.9084  -11.8077   20.5247 O   0  0  0  0  0  0  0  0  0  0  0  0
  -20.7151  -26.7657   21.3654 O   0  0  0  0  0  0  0  0  0  1  0  0
  -21.8497  -10.7711   24.1103 F   0  0  0  0  0  0  0  0  0  0  0  0
  -23.8114  -10.1377   19.8493 F   0  0  0  0  0  0  0  0  0  0  0  0
  1  2  1  0  0  0  0
  1  5  2  0  0  0  0
  2  6  2  0  0  0  0
  3 10  2  0  0  0  0
  3 18  1  0  0  0  0
  4 11  1  0  0  0  0
  4 18  2  0  0  0  0
  5 20  1  0  0  0  0
  6 22  1  0  0  0  0
  7 12  2  0  0  0  0
  7 21  1  0  0  0  0
  8  9  2  0  0  0  0
  8 24  1  0  0  0  0
  9 26  1  0  0  0  0
 10 27  1  0  0  0  0
 11 27  2  0  0  0  0
 12 28  1  0  0  0  0
 13 14  2  0  0  0  0
 13 29  1  0  0  0  0
 14 30  1  0  0  0  0
 15 23  1  0  0  0  0
 15 28  2  0  0  0  0
 16 24  2  0  0  0  0
 16 25  1  0  0  0  0
 17 30  2  0  0  0  0
 17 31  1  0  0  0  0
 18 32  1  0  0  0  0
 19 32  1  0  0  0  0
 19 33  2  0  0  0  0
 19 34  1  0  0  0  0
 20 22  2  0  0  0  0
 20 39  1  0  0  0  0
 21 23  2  0  0  0  0
 21 40  1  0  0  0  0
 22 48  1  0  0  0  0
 23 41  1  0  0  0  0
 24 58  1  0  0  0  0
 25 26  2  0  0  0  0
 25 51  1  0  0  0  0
 26 71  1  0  0  0  0
 27 81  1  0  0  0  0
 28 82  1  0  0  0  0
 29 31  2  0  0  0  0
 29 81  1  0  0  0  0
 30 83  1  0  0  0  0
 31 84  1  0  0  0  0
 32 65  2  0  0  0  0
 33 66  1  0  0  0  0
 33 69  1  0  0  0  0
 34 70  1  0  0  0  0
 34 76  2  0  0  0  0
 35 49  1  0  0  0  0
 35 72  1  0  0  0  0
 35 77  2  0  0  0  0
 36 62  1  0  0  0  0
 36 67  1  0  0  0  0
 36 78  2  0  0  0  0
 37 63  1  0  0  0  0
 37 73  1  0  0  0  0
 37 79  2  0  0  0  0
 38 68  1  0  0  0  0
 38 71  1  0  0  0  0
 38 80  2  0  0  0  0
 39 42  1  0  0  0  0
 40 49  1  0  0  0  0
 41 67  1  0  0  0  0
 42 44  1  0  0  0  0
 43 45  1  0  0  0  0
 43 46  1  0  0  0  0
 44 48  1  0  0  0  0
 45 50  1  0  0  0  0
 46 68  1  0  0  0  0
 47 50  1  0  0  0  0
 47 68  1  0  0  0  0
 48 72  1  0  0  0  0
 49 67  1  0  0  0  0
 50 66  1  0  0  0  0
 52 63  1  0  0  0  0
 53 64  1  0  0  0  0
 54 64  1  0  0  0  0
 55 64  1  0  0  0  0
 56 74  1  0  0  0  0
 57 75  1  0  0  0  0
 58 75  1  0  0  0  0
 59 60  1  0  0  0  0
 59 61  1  0  0  0  0
 60 75  1  0  0  0  0
 61 82  1  0  0  0  0
 62 64  1  0  0  0  0
 62 73  1  0  0  0  0
 63 74  1  0  0  0  0
 65 66  1  0  0  0  0
M  CHG  2  74   1  75   1
M  ISO  4  38 100  61 101  71 100  82 101
M  END
> <Batch ID>
0017

> <Smiles>
CNC(C)C(=O)NC(C(=O)N1Cc2cc([101O:1][101CH2:1]CCN(C)Cc3ccc([100NH:0][100C:0](=O)N4CCCC(n5nc(-c6ccc(Oc7ccc(F)cc7F)cc6)c(C(N)=O)c5N)C4)c(C)c3)ccc2CC1C(=O)NC1CCCc2ccccc21)C(C)(C)C

> <Shape>
0.275

> <Color>
0.062

> <Negative vol penalty>
0.000

$$$$

  -OEChem-04042321003D

 87 95  0     1  0  0  0  0  0999 V2000
  -23.4115  -31.8378   14.5388 C   0  0  0  0  0  0  0  0  0  0  0  0
  -23.6974  -30.7335   15.3351 C   0  0  0  0  0  0  0  0  0  0  0  0
  -23.1558   -9.7580   19.8737 C   0  0  0  0  0  0  0  0  0  0  0  0
  -23.8831   -9.7761   22.1776 C   0  0  0  0  0  0  0  0  0  0  0  0
  -23.7218  -33.1201   14.9898 C   0  0  0  0  0  0  0  0  0  0  0  0
  -24.2949  -30.9108   16.5825 C   0  0  0  0  0  0  0  0  0  0  0  0
  -22.1226  -28.1028   20.1937 C   0  0  0  0  0  0  0  0  0  0  0  0
  -29.6986  -20.1725   19.0478 C   0  0  0  0  0  0  0  0  0  0  0  0
  -30.0986  -19.0020   18.4033 C   0  0  0  0  0  0  0  0  0  0  0  0
  -22.4447   -8.5810   20.1074 C   0  0  0  0  0  0  0  0  0  0  0  0
  -23.1720   -8.5991   22.4113 C   0  0  0  0  0  0  0  0  0  0  0  0
  -22.4555  -26.7496   20.2346 C   0  0  0  0  0  0  0  0  0  0  0  0
  -19.9621   -7.6983   22.9644 C   0  0  0  0  0  0  0  0  0  0  0  0
  -19.1906   -7.6286   24.1243 C   0  0  0  0  0  0  0  0  0  0  0  0
  -24.0068  -27.1916   22.0283 C   0  0  0  0  0  0  0  0  0  0  0  0
  -28.8812  -18.8679   20.9098 C   0  0  0  0  0  0  0  0  0  0  0  0
  -20.4812   -5.7266   24.8685 C   0  0  0  0  0  0  0  0  0  0  0  0
  -23.8750  -10.3555   20.9088 C   0  0  0  0  0  0  0  0  0  0  0  0
  -24.1398  -12.8907   20.8061 C   0  0  0  0  0  0  0  0  0  0  0  0
  -24.3146  -33.3139   16.2474 C   0  0  0  0  0  0  0  0  0  0  0  0
  -22.7383  -29.0139   21.0639 C   0  0  0  0  0  0  0  0  0  0  0  0
  -24.6147  -32.1968   17.0502 C   0  0  0  0  0  0  0  0  0  0  0  0
  -23.6781  -28.5555   21.9981 C   0  0  0  0  0  0  0  0  0  0  0  0
  -29.0900  -20.1055   20.3012 C   0  0  0  0  0  0  0  0  0  0  0  0
  -29.8898  -17.7644   19.0119 C   0  0  0  0  0  0  0  0  0  0  0  0
  -29.2812  -17.6973   20.2652 C   0  0  0  0  0  0  0  0  0  0  0  0
  -22.4528   -8.0015   21.3762 C   0  0  0  0  0  0  0  0  0  0  0  0
  -23.3999  -26.2942   21.1500 C   0  0  0  0  0  0  0  0  0  0  0  0
  -20.9932   -6.7821   22.7564 C   0  0  0  0  0  0  0  0  0  0  0  0
  -19.4501   -6.6427   25.0764 C   0  0  0  0  0  0  0  0  0  0  0  0
  -21.2528   -5.7963   23.7085 C   0  0  0  0  0  0  0  0  0  0  0  0
  -24.6102  -11.5710   20.6678 C   0  0  0  0  0  0  0  0  0  0  0  0
  -25.2131  -13.6756   20.4620 C   0  0  0  0  0  0  0  0  0  0  0  0
  -22.8482  -13.3645   21.2097 C   0  0  0  0  0  0  0  0  0  0  0  0
  -24.5903  -31.5703   20.6916 C   0  0  0  0  0  0  0  0  0  0  0  0
  -24.2128  -31.8287   23.9030 C   0  0  0  0  0  0  0  0  0  0  0  0
  -23.5208  -30.2941   26.8716 C   0  0  0  0  0  0  0  0  0  0  0  0
  -30.7851  -14.5586   21.1624 C   0  0  0  0  0  0  0  0  0  0  0  0
  -24.6749  -34.7156   16.6719 C   0  0  0  0  0  0  0  0  0  0  0  0
  -22.3485  -30.4661   21.0252 C   0  0  0  0  0  0  0  0  0  0  0  0
  -24.3530  -29.4897   22.9678 C   0  0  0  0  0  0  0  0  0  0  0  0
  -24.9645  -34.8443   18.1652 C   0  0  0  0  0  0  0  0  0  0  0  0
  -29.6286  -12.4905   18.3186 C   0  0  0  0  0  0  0  0  0  0  0  0
  -25.8897  -33.7233   18.6281 C   0  0  0  0  0  0  0  0  0  0  0  0
  -28.2047  -12.1221   18.7320 C   0  0  0  0  0  0  0  0  0  0  0  0
  -30.5273  -12.7267   19.5286 C   0  0  0  0  0  0  0  0  0  0  0  0
  -28.5715  -13.3652   20.9001 C   0  0  0  0  0  0  0  0  0  0  0  0
  -25.2397  -32.3501   18.4198 C   0  0  1  0  0  0  0  0  0  0  0  0
  -23.4153  -31.3868   21.6099 C   0  0  1  0  0  0  0  0  0  0  0  0
  -27.6283  -13.1660   19.7042 C   0  0  2  0  0  0  0  0  0  0  0  0
  -30.3255  -16.5247   18.3020 C   0  0  0  0  0  0  0  0  0  0  0  0
  -23.3236  -30.7578   29.3299 C   0  0  0  0  0  0  0  0  0  0  0  0
  -27.2544  -31.9204   24.1273 C   0  0  0  0  0  0  0  0  0  0  0  0
  -27.0195  -31.4265   26.5704 C   0  0  0  0  0  0  0  0  0  0  0  0
  -26.0492  -33.5208   25.6242 C   0  0  0  0  0  0  0  0  0  0  0  0
  -31.1207  -16.7615   22.2178 C   0  0  0  0  0  0  0  0  0  0  0  0
  -20.6759  -29.4794   26.9150 C   0  0  0  0  0  0  0  0  0  0  0  0
  -29.0471  -16.3836   20.9361 C   0  0  0  0  0  0  0  0  0  0  0  0
  -25.4643  -23.3423   20.9361 C   0  0  0  0  0  0  0  0  0  0  0  0
  -27.2207  -21.7367   20.6235 C   0  0  0  0  0  0  0  0  0  0  0  0
  -25.0538  -24.6464   21.6027 C   0  0  0  0  0  0  0  0  0  1  0  0
  -24.9487  -31.3031   25.1117 C   0  0  1  0  0  0  0  0  0  0  0  0
  -22.5828  -30.6690   28.0047 C   0  0  2  0  0  0  0  0  0  0  0  0
  -28.6568  -21.3723   20.9983 C   0  0  0  0  0  0  0  0  0  0  0  0
  -26.3068  -32.0251   25.3389 C   0  0  0  0  0  0  0  0  0  0  0  0
  -25.8832  -11.5167   20.2669 N   0  0  0  0  0  0  0  0  0  0  0  0
  -26.2217  -12.8121   20.1503 N   0  0  0  0  0  0  0  0  0  0  0  0
  -23.9429  -30.9013   22.8867 N   0  0  0  0  0  0  0  0  0  0  0  0
  -29.9355  -13.6904   20.4572 N   0  0  0  0  0  0  0  0  0  0  0  0
  -25.3830  -15.0133   20.3986 N   0  0  0  0  0  0  0  0  0  0  0  0
  -21.8605  -12.4226   21.5282 N   0  0  0  0  0  0  0  0  0  0  0  0
  -24.2617  -32.0917   19.4548 N   0  0  0  0  0  0  0  0  0  0  0  0
  -24.0209  -31.4088   26.2325 N   0  0  0  0  0  0  0  0  0  0  0  0
  -26.8207  -22.9613   21.3038 N   0  0  0  0  0  0  0  0  0  0  0  0
  -30.2740  -15.8218   21.4967 N   0  0  0  0  0  0  0  0  0  0  0  0
  -21.5003  -29.6535   28.1386 N   0  3  0  0  0  0  0  0  0  0  0  0
  -22.5731  -14.5869   21.2698 O   0  0  0  0  0  0  0  0  0  0  0  0
  -25.7122  -31.2630   21.0771 O   0  0  0  0  0  0  0  0  0  0  0  0
  -23.8830  -33.0168   23.8652 O   0  0  0  0  0  0  0  0  0  0  0  0
  -23.7865  -29.1289   26.5847 O   0  0  0  0  0  0  0  0  0  0  0  0
  -31.9381  -14.2272   21.4670 O   0  0  0  0  0  0  0  0  0  0  0  0
  -21.7588   -6.8531   21.6047 O   0  0  0  0  0  0  0  0  0  0  0  0
  -23.7272  -24.9740   21.1916 O   0  0  0  0  0  0  0  0  0  1  0  0
  -18.7101   -6.5769   26.1909 F   0  0  0  0  0  0  0  0  0  0  0  0
  -22.2428   -4.9141   23.5149 F   0  0  0  0  0  0  0  0  0  0  0  0
  -28.7292  -21.2584   22.3573 F   0  0  0  0  0  0  0  0  0  0  0  0
  -29.4626  -22.4295   20.6851 F   0  0  0  0  0  0  0  0  0  0  0  0
  1  2  1  0  0  0  0
  1  5  2  0  0  0  0
  2  6  2  0  0  0  0
  3 10  2  0  0  0  0
  3 18  1  0  0  0  0
  4 11  1  0  0  0  0
  4 18  2  0  0  0  0
  5 20  1  0  0  0  0
  6 22  1  0  0  0  0
  7 12  2  0  0  0  0
  7 21  1  0  0  0  0
  8  9  2  0  0  0  0
  8 24  1  0  0  0  0
  9 25  1  0  0  0  0
 10 27  1  0  0  0  0
 11 27  2  0  0  0  0
 12 28  1  0  0  0  0
 13 14  2  0  0  0  0
 13 29  1  0  0  0  0
 14 30  1  0  0  0  0
 15 23  1  0  0  0  0
 15 28  2  0  0  0  0
 16 24  2  0  0  0  0
 16 26  1  0  0  0  0
 17 30  2  0  0  0  0
 17 31  1  0  0  0  0
 18 32  1  0  0  0  0
 19 32  1  0  0  0  0
 19 33  2  0  0  0  0
 19 34  1  0  0  0  0
 20 22  2  0  0  0  0
 20 39  1  0  0  0  0
 21 23  2  0  0  0  0
 21 40  1  0  0  0  0
 22 48  1  0  0  0  0
 23 41  1  0  0  0  0
 24 64  1  0  0  0  0
 25 26  2  0  0  0  0
 25 51  1  0  0  0  0
 26 58  1  0  0  0  0
 27 82  1  0  0  0  0
 28 83  1  0  0  0  0
 29 31  2  0  0  0  0
 29 82  1  0  0  0  0
 30 84  1  0  0  0  0
 31 85  1  0  0  0  0
 32 66  2  0  0  0  0
 33 67  1  0  0  0  0
 33 70  1  0  0  0  0
 34 71  1  0  0  0  0
 34 77  2  0  0  0  0
 35 49  1  0  0  0  0
 35 72  1  0  0  0  0
 35 78  2  0  0  0  0
 36 62  1  0  0  0  0
 36 68  1  0  0  0  0
 36 79  2  0  0  0  0
 37 63  1  0  0  0  0
 37 73  1  0  0  0  0
 37 80  2  0  0  0  0
 38 69  1  0  0  0  0
 38 75  1  0  0  0  0
 38 81  2  0  0  0  0
 39 42  1  0  0  0  0
 40 49  1  0  0  0  0
 41 68  1  0  0  0  0
 42 44  1  0  0  0  0
 43 45  1  0  0  0  0
 43 46  1  0  0  0  0
 44 48  1  0  0  0  0
 45 50  1  0  0  0  0
 46 69  1  0  0  0  0
 47 50  1  0  0  0  0
 47 69  1  0  0  0  0
 48 72  1  0  0  0  0
 49 68  1  0  0  0  0
 50 67  1  0  0  0  0
 52 63  1  0  0  0  0
 53 65  1  0  0  0  0
 54 65  1  0  0  0  0
 55 65  1  0  0  0  0
 56 75  1  0  0  0  0
 57 76  1  0  0  0  0
 58 75  1  0  0  0  0
 59 61  1  0  0  0  0
 59 74  1  0  0  0  0
 60 64  1  0  0  0  0
 60 74  1  0  0  0  0
 61 83  1  0  0  0  0
 62 65  1  0  0  0  0
 62 73  1  0  0  0  0
 63 76  1  0  0  0  0
 64 86  1  0  0  0  0
 64 87  1  0  0  0  0
 66 67  1  0  0  0  0
M  CHG  1  76   1
M  ISO  4  38 100  61 101  75 100  83 101
M  END
> <Batch ID>
0017

> <Smiles>
CNC(C)C(=O)NC(C(=O)N1Cc2cc([101O:1][101CH2:1]CNCC(F)(F)c3ccc(C)c(C[100N:0](C)[100C:0](=O)N4CCCC(n5nc(-c6ccc(Oc7ccc(F)cc7F)cc6)c(C(N)=O)c5N)C4)c3)ccc2CC1C(=O)NC1CCCc2ccccc21)C(C)(C)C

> <Shape>
0.340

> <Color>
0.200

> <Negative vol penalty>
0.000

$$$$

  -OEChem-04042321003D

 84 92  0     1  0  0  0  0  0999 V2000
  -29.8678   -2.0832   36.8256 C   0  0  0  0  0  0  0  0  0  0  0  0
  -29.8000   -2.9386   35.7306 C   0  0  0  0  0  0  0  0  0  0  0  0
  -23.2846   -9.7975   19.9080 C   0  0  0  0  0  0  0  0  0  0  0  0
  -23.7225   -9.9368   22.2799 C   0  0  0  0  0  0  0  0  0  0  0  0
  -28.6956   -1.5915   37.3984 C   0  0  0  0  0  0  0  0  0  0  0  0
  -28.5597   -3.3021   35.2070 C   0  0  0  0  0  0  0  0  0  0  0  0
  -27.0427   -8.6994   32.7426 C   0  0  0  0  0  0  0  0  0  0  0  0
  -28.4291  -11.5084   25.2454 C   0  0  0  0  0  0  0  0  0  0  0  0
  -28.4860  -10.3588   23.1212 C   0  0  0  0  0  0  0  0  0  0  0  0
  -27.7612  -10.4241   25.8143 C   0  0  0  0  0  0  0  0  0  0  0  0
  -27.8181   -9.2744   23.6902 C   0  0  0  0  0  0  0  0  0  0  0  0
  -22.5525   -8.6278   20.1119 C   0  0  0  0  0  0  0  0  0  0  0  0
  -22.9904   -8.7671   22.4838 C   0  0  0  0  0  0  0  0  0  0  0  0
  -26.9560   -9.1361   31.4214 C   0  0  0  0  0  0  0  0  0  0  0  0
  -19.7387   -7.8687   22.6830 C   0  0  0  0  0  0  0  0  0  0  0  0
  -18.8303   -7.8507   23.7413 C   0  0  0  0  0  0  0  0  0  0  0  0
  -24.5870   -8.6809   31.4327 C   0  0  0  0  0  0  0  0  0  0  0  0
  -20.0233   -5.9990   24.7339 C   0  0  0  0  0  0  0  0  0  0  0  0
  -23.8696  -10.4519   20.9921 C   0  0  0  0  0  0  0  0  0  0  0  0
  -24.1400  -12.9809   20.7945 C   0  0  0  0  0  0  0  0  0  0  0  0
  -27.4401   -1.9568   36.8876 C   0  0  0  0  0  0  0  0  0  0  0  0
  -25.9022   -8.2391   33.4164 C   0  0  0  0  0  0  0  0  0  0  0  0
  -27.3696   -2.8138   35.7726 C   0  0  0  0  0  0  0  0  0  0  0  0
  -24.6614   -8.2413   32.7633 C   0  0  0  0  0  0  0  0  0  0  0  0
  -28.7915  -11.4758   23.8987 C   0  0  0  0  0  0  0  0  0  0  0  0
  -27.4557   -9.3071   25.0368 C   0  0  0  0  0  0  0  0  0  0  0  0
  -22.4054   -8.1126   21.3998 C   0  0  0  0  0  0  0  0  0  0  0  0
  -25.7286   -9.1242   30.7653 C   0  0  0  0  0  0  0  0  0  0  0  0
  -20.7894   -6.9518   22.6500 C   0  0  0  0  0  0  0  0  0  0  0  0
  -18.9726   -6.9159   24.7667 C   0  0  0  0  0  0  0  0  0  0  0  0
  -20.9317   -6.0170   23.6755 C   0  0  0  0  0  0  0  0  0  0  0  0
  -24.6265  -11.6599   20.7821 C   0  0  0  0  0  0  0  0  0  0  0  0
  -25.2459  -13.7565   20.5456 C   0  0  0  0  0  0  0  0  0  0  0  0
  -22.8075  -13.4637   21.0117 C   0  0  0  0  0  0  0  0  0  0  0  0
  -25.0315   -5.4755   34.7233 C   0  0  0  0  0  0  0  0  0  0  0  0
  -22.4723   -7.2006   35.7218 C   0  0  0  0  0  0  0  0  0  0  0  0
  -20.4424   -9.9047   35.2594 C   0  0  0  0  0  0  0  0  0  0  0  0
  -31.1496  -12.3509   21.3872 C   0  0  0  0  0  0  0  0  0  0  0  0
  -26.2020   -1.3624   37.5107 C   0  0  0  0  0  0  0  0  0  0  0  0
  -26.0076   -7.7965   34.8501 C   0  0  0  0  0  0  0  0  0  0  0  0
  -23.4036   -7.7759   33.4487 C   0  0  0  0  0  0  0  0  0  0  0  0
  -24.9172   -2.0935   37.1297 C   0  0  0  0  0  0  0  0  0  0  0  0
  -29.4877  -13.6547   18.3475 C   0  0  0  0  0  0  0  0  0  0  0  0
  -24.8769   -2.3545   35.6274 C   0  0  0  0  0  0  0  0  0  0  0  0
  -28.0171  -13.3328   18.6079 C   0  0  0  0  0  0  0  0  0  0  0  0
  -30.4170  -12.6711   19.0522 C   0  0  0  0  0  0  0  0  0  0  0  0
  -28.6994  -12.2294   20.7753 C   0  0  0  0  0  0  0  0  0  0  0  0
  -26.0424   -3.2508   35.1916 C   0  0  1  0  0  0  0  0  0  0  0  0
  -24.8755   -6.8653   35.2727 C   0  0  1  0  0  0  0  0  0  0  0  0
  -27.7370  -13.2295   20.1172 C   0  0  2  0  0  0  0  0  0  0  0  0
  -18.4121  -11.0298   36.2130 C   0  0  0  0  0  0  0  0  0  0  0  0
  -20.6974   -5.0672   34.4536 C   0  0  0  0  0  0  0  0  0  0  0  0
  -18.7849   -6.6772   34.5889 C   0  0  0  0  0  0  0  0  0  0  0  0
  -19.9058   -5.8966   36.6762 C   0  0  0  0  0  0  0  0  0  0  0  0
  -26.4659   -7.0444   24.7913 C   0  0  0  0  0  0  0  0  0  0  0  0
  -31.8627  -12.0559   23.7290 C   0  0  0  0  0  0  0  0  0  0  0  0
  -21.9521  -12.3786   35.8592 C   0  0  0  0  0  0  0  0  0  0  0  0
  -29.5053  -12.6348   23.2894 C   0  0  0  0  0  0  0  0  0  0  0  0
  -25.1026   -8.9645   27.2113 C   0  0  0  0  0  0  0  0  0  0  0  0
  -26.4098   -8.2097   27.0020 C   0  0  0  0  0  0  0  0  0  0  0  0
  -24.6335   -8.9512   28.6614 C   0  0  0  0  0  0  0  0  0  1  0  0
  -21.1096   -7.5176   35.1547 C   0  0  1  0  0  0  0  0  0  0  0  0
  -19.9311  -10.9575   36.2262 C   0  0  2  0  0  0  0  0  0  0  0  0
  -20.1483   -6.2967   35.2045 C   0  0  0  0  0  0  0  0  0  0  0  0
  -25.9392  -11.5961   20.5439 N   0  0  0  0  0  0  0  0  0  0  0  0
  -26.2869  -12.8867   20.4044 N   0  0  0  0  0  0  0  0  0  0  0  0
  -23.5593   -7.3469   34.8484 N   0  0  0  0  0  0  0  0  0  0  0  0
  -30.1009  -12.5599   20.4766 N   0  0  0  0  0  0  0  0  0  0  0  0
  -25.4196  -15.0907   20.4359 N   0  0  0  0  0  0  0  0  0  0  0  0
  -21.7900  -12.5308   21.2536 N   0  0  0  0  0  0  0  0  0  0  0  0
  -25.7716   -4.6317   35.5293 N   0  0  0  0  0  0  0  0  0  0  0  0
  -20.6276   -8.6877   35.8806 N   0  0  0  0  0  0  0  0  0  0  0  0
  -26.7858   -8.2161   25.6089 N   0  0  3  0  0  0  0  0  0  0  0  0
  -30.8090  -12.2608   22.7454 N   0  0  0  0  0  0  0  0  0  0  0  0
  -20.4686  -12.2991   35.8629 N   0  3  0  0  0  0  0  0  0  0  0  0
  -22.5246  -14.6852   20.9756 O   0  0  0  0  0  0  0  0  0  0  0  0
  -24.5171   -5.1895   33.6485 O   0  0  0  0  0  0  0  0  0  0  0  0
  -22.5694   -6.8434   36.8985 O   0  0  0  0  0  0  0  0  0  0  0  0
  -20.6527  -10.1376   34.0711 O   0  0  0  0  0  0  0  0  0  0  0  0
  -32.3246  -12.2600   21.0088 O   0  0  0  0  0  0  0  0  0  0  0  0
  -21.6909   -6.9715   21.5991 O   0  0  0  0  0  0  0  0  0  0  0  0
  -25.6413   -9.5493   29.4756 O   0  0  0  0  0  0  0  0  0  1  0  0
  -18.1010   -6.8998   25.7838 F   0  0  0  0  0  0  0  0  0  0  0  0
  -21.9398   -5.1344   23.6500 F   0  0  0  0  0  0  0  0  0  0  0  0
  1  2  1  0  0  0  0
  1  5  2  0  0  0  0
  2  6  2  0  0  0  0
  3 12  2  0  0  0  0
  3 19  1  0  0  0  0
  4 13  1  0  0  0  0
  4 19  2  0  0  0  0
  5 21  1  0  0  0  0
  6 23  1  0  0  0  0
  7 14  2  0  0  0  0
  7 22  1  0  0  0  0
  8 10  2  0  0  0  0
  8 25  1  0  0  0  0
  9 11  1  0  0  0  0
  9 25  2  0  0  0  0
 10 26  1  0  0  0  0
 11 26  2  0  0  0  0
 12 27  1  0  0  0  0
 13 27  2  0  0  0  0
 14 28  1  0  0  0  0
 15 16  2  0  0  0  0
 15 29  1  0  0  0  0
 16 30  1  0  0  0  0
 17 24  1  0  0  0  0
 17 28  2  0  0  0  0
 18 30  2  0  0  0  0
 18 31  1  0  0  0  0
 19 32  1  0  0  0  0
 20 32  1  0  0  0  0
 20 33  2  0  0  0  0
 20 34  1  0  0  0  0
 21 23  2  0  0  0  0
 21 39  1  0  0  0  0
 22 24  2  0  0  0  0
 22 40  1  0  0  0  0
 23 48  1  0  0  0  0
 24 41  1  0  0  0  0
 25 58  1  0  0  0  0
 26 73  1  0  0  0  0
 27 81  1  0  0  0  0
 28 82  1  0  0  0  0
 29 31  2  0  0  0  0
 29 81  1  0  0  0  0
 30 83  1  0  0  0  0
 31 84  1  0  0  0  0
 32 65  2  0  0  0  0
 33 66  1  0  0  0  0
 33 69  1  0  0  0  0
 34 70  1  0  0  0  0
 34 76  2  0  0  0  0
 35 49  1  0  0  0  0
 35 71  1  0  0  0  0
 35 77  2  0  0  0  0
 36 62  1  0  0  0  0
 36 67  1  0  0  0  0
 36 78  2  0  0  0  0
 37 63  1  0  0  0  0
 37 72  1  0  0  0  0
 37 79  2  0  0  0  0
 38 68  1  0  0  0  0
 38 74  1  0  0  0  0
 38 80  2  0  0  0  0
 39 42  1  0  0  0  0
 40 49  1  0  0  0  0
 41 67  1  0  0  0  0
 42 44  1  0  0  0  0
 43 45  1  0  0  0  0
 43 46  1  0  0  0  0
 44 48  1  0  0  0  0
 45 50  1  0  0  0  0
 46 68  1  0  0  0  0
 47 50  1  0  0  0  0
 47 68  1  0  0  0  0
 48 71  1  0  0  0  0
 49 67  1  0  0  0  0
 50 66  1  0  0  0  0
 51 63  1  0  0  0  0
 52 64  1  0  0  0  0
 53 64  1  0  0  0  0
 54 64  1  0  0  0  0
 55 73  1  0  0  0  0
 56 74  1  0  0  0  0
 57 75  1  0  0  0  0
 58 74  1  0  0  0  0
 59 60  1  0  0  0  0
 59 61  1  0  0  0  0
 60 73  1  0  0  0  0
 61 82  1  0  0  0  0
 62 64  1  0  0  0  0
 62 72  1  0  0  0  0
 63 75  1  0  0  0  0
 65 66  1  0  0  0  0
M  CHG  1  75   1
M  ISO  4  38 100  61 101  74 100  82 101
M  END
> <Batch ID>
0017

> <Smiles>
CNC(C)C(=O)NC(C(=O)N1Cc2cc([101O:1][101CH2:1]CCN(C)c3ccc(C[100N:0](C)[100C:0](=O)N4CCCC(n5nc(-c6ccc(Oc7ccc(F)cc7F)cc6)c(C(N)=O)c5N)C4)cc3)ccc2CC1C(=O)NC1CCCc2ccccc21)C(C)(C)C

> <Shape>
0.132

> <Color>
0.185

> <Negative vol penalty>
0.000

$$$$

  -OEChem-04042321003D

 90 99  0     1  0  0  0  0  0999 V2000
  -24.1961  -31.1993   21.2363 C   0  0  0  0  0  0  0  0  0  0  0  0
  -23.1999  -30.4211   20.6555 C   0  0  0  0  0  0  0  0  0  0  0  0
  -21.4009  -26.0791   22.0569 C   0  0  0  0  0  0  0  0  0  0  0  0
  -21.1731  -26.2261   24.4576 C   0  0  0  0  0  0  0  0  0  0  0  0
  -25.4972  -30.7075   21.3306 C   0  0  0  0  0  0  0  0  0  0  0  0
  -23.5046  -29.1509   20.1675 C   0  0  0  0  0  0  0  0  0  0  0  0
  -20.6181  -22.6468   19.3424 C   0  0  0  0  0  0  0  0  0  0  0  0
  -22.3194  -27.1286   22.0797 C   0  0  0  0  0  0  0  0  0  0  0  0
  -22.0916  -27.2756   24.4805 C   0  0  0  0  0  0  0  0  0  0  0  0
  -20.4071  -21.6786   18.3616 C   0  0  0  0  0  0  0  0  0  0  0  0
  -24.6485  -29.7547   25.2118 C   0  0  0  0  0  0  0  0  0  0  0  0
  -25.6448  -29.7244   26.1875 C   0  0  0  0  0  0  0  0  0  0  0  0
  -22.6724  -20.9012   18.6502 C   0  0  0  0  0  0  0  0  0  0  0  0
  -22.0455  -15.9387   19.5227 C   0  0  0  0  0  0  0  0  0  0  0  0
  -21.4646  -17.0176   22.0290 C   0  0  0  0  0  0  0  0  0  0  0  0
  -26.4451  -27.6225   25.3051 C   0  0  0  0  0  0  0  0  0  0  0  0
  -20.8277  -25.6279   23.2458 C   0  0  0  0  0  0  0  0  0  0  0  0
  -18.6456  -24.5082   22.5440 C   0  0  0  0  0  0  0  0  0  0  0  0
  -25.8160  -29.4268   20.8523 C   0  0  0  0  0  0  0  0  0  0  0  0
  -21.8633  -22.7567   19.9777 C   0  0  0  0  0  0  0  0  0  0  0  0
  -24.8116  -28.6420   20.2543 C   0  0  0  0  0  0  0  0  0  0  0  0
  -22.8959  -21.8700   19.6405 C   0  0  0  0  0  0  0  0  0  0  0  0
  -22.8822  -15.6740   20.6069 C   0  0  0  0  0  0  0  0  0  0  0  0
  -20.6279  -17.2823   20.9448 C   0  0  0  0  0  0  0  0  0  0  0  0
  -22.6648  -27.7268   23.2915 C   0  0  0  0  0  0  0  0  0  0  0  0
  -21.4352  -20.8075   18.0134 C   0  0  0  0  0  0  0  0  0  0  0  0
  -24.5504  -28.7189   24.2828 C   0  0  0  0  0  0  0  0  0  0  0  0
  -20.9183  -16.7429   19.6917 C   0  0  0  0  0  0  0  0  0  0  0  0
  -26.5431  -28.6583   26.2342 C   0  0  0  0  0  0  0  0  0  0  0  0
  -22.5918  -16.2134   21.8600 C   0  0  0  0  0  0  0  0  0  0  0  0
  -25.4487  -27.6528   24.3294 C   0  0  0  0  0  0  0  0  0  0  0  0
  -19.8784  -24.5442   23.2228 C   0  0  0  0  0  0  0  0  0  0  0  0
  -18.1281  -23.2703   22.8375 C   0  0  0  0  0  0  0  0  0  0  0  0
  -18.0240  -25.5047   21.7216 C   0  0  0  0  0  0  0  0  0  0  0  0
  -24.0865  -25.0196   20.1797 C   0  0  0  0  0  0  0  0  0  0  0  0
  -25.4445  -22.9527   22.2788 C   0  0  0  0  0  0  0  0  0  0  0  0
  -25.7789  -19.7378   23.3741 C   0  0  0  0  0  0  0  0  0  0  0  0
  -18.6067  -17.8375   23.5191 C   0  0  0  0  0  0  0  0  0  0  0  0
  -27.2468  -28.9568   20.9336 C   0  0  0  0  0  0  0  0  0  0  0  0
  -22.0666  -23.7891   21.0526 C   0  0  0  0  0  0  0  0  0  0  0  0
  -24.2449  -21.9333   20.3072 C   0  0  0  0  0  0  0  0  0  0  0  0
  -27.4062  -27.4522   20.7311 C   0  0  0  0  0  0  0  0  0  0  0  0
  -19.5728  -19.8007   26.2096 C   0  0  0  0  0  0  0  0  0  0  0  0
  -26.8984  -16.7378   18.9986 C   0  0  0  0  0  0  0  0  0  0  0  0
  -27.3416  -15.2896   19.0539 C   0  0  0  0  0  0  0  0  0  0  0  0
  -26.5938  -26.9866   19.5268 C   0  0  0  0  0  0  0  0  0  0  0  0
  -19.6442  -21.2119   25.6279 C   0  0  0  0  0  0  0  0  0  0  0  0
  -20.1312  -18.7781   25.2272 C   0  0  0  0  0  0  0  0  0  0  0  0
  -19.5147  -20.1980   23.2973 C   0  0  0  0  0  0  0  0  0  0  0  0
  -25.4226  -16.6435   19.3211 C   0  0  0  0  0  0  0  0  0  0  0  0
  -26.6119  -14.7265   20.2607 C   0  0  0  0  0  0  0  0  0  0  0  0
  -25.0975  -27.2493   19.7358 C   0  0  1  0  0  0  0  0  0  0  0  0
  -23.5342  -24.1449   21.2694 C   0  0  1  0  0  0  0  0  0  0  0  0
  -18.9600  -21.2758   24.2512 C   0  0  2  0  0  0  0  0  0  0  0  0
  -26.5197  -17.8441   24.8446 C   0  0  0  0  0  0  0  0  0  0  0  0
  -28.0000  -23.1457   20.6230 C   0  0  0  0  0  0  0  0  0  0  0  0
  -28.8221  -21.0827   21.7791 C   0  0  0  0  0  0  0  0  0  0  0  0
  -28.3580  -23.1485   23.0981 C   0  0  0  0  0  0  0  0  0  0  0  0
  -17.6387  -16.5266   21.6692 C   0  0  0  0  0  0  0  0  0  0  0  0
  -23.4215  -20.0328   25.1389 C   0  0  0  0  0  0  0  0  0  0  0  0
  -19.4256  -18.1447   21.1443 C   0  0  0  0  0  0  0  0  0  0  0  0
  -24.0870  -14.8141   20.4238 C   0  0  0  0  0  0  0  0  0  0  0  0
  -19.9516  -17.9248   16.4008 C   0  0  0  0  0  0  0  0  0  0  0  0
  -19.9056  -19.3553   16.9146 C   0  0  0  0  0  0  0  0  0  1  0  0
  -20.7251  -17.0089   17.3363 C   0  0  0  0  0  0  0  0  0  0  0  0
  -26.4243  -21.8093   22.1712 C   0  0  1  0  0  0  0  0  0  0  0  0
  -25.7234  -19.1374   24.7672 C   0  0  2  0  0  0  0  0  0  0  0  0
  -27.8764  -22.2964   21.9037 C   0  0  0  0  0  0  0  0  0  0  0  0
  -20.1289  -23.4186   23.8969 N   0  0  0  0  0  0  0  0  0  0  0  0
  -19.0464  -22.6638   23.6432 N   0  0  0  0  0  0  0  0  0  0  0  0
  -24.3965  -22.9640   21.3474 N   0  0  0  0  0  0  0  0  0  0  0  0
  -19.4624  -18.8706   23.9292 N   0  0  0  0  0  0  0  0  0  0  0  0
  -16.9816  -22.6523   22.4825 N   0  0  0  0  0  0  0  0  0  0  0  0
  -17.1744  -26.4384   22.3304 N   0  0  0  0  0  0  0  0  0  0  0  0
  -24.5280  -26.2534   20.6180 N   0  0  0  0  0  0  0  0  0  0  0  0
  -26.2724  -21.0253   23.3921 N   0  0  0  0  0  0  0  0  0  0  0  0
  -18.5082  -17.5950   22.1407 N   0  0  0  0  0  0  0  0  0  0  0  0
  -25.3678  -15.5846   20.4003 N   0  3  0  0  0  0  0  0  0  0  0  0
  -24.3130  -18.8445   25.1492 N   0  3  0  0  0  0  0  0  0  0  0  0
  -18.2033  -25.5551   20.4811 O   0  0  0  0  0  0  0  0  0  0  0  0
  -24.1117  -24.6051   19.0268 O   0  0  0  0  0  0  0  0  0  0  0  0
  -25.5991  -23.8005   23.1614 O   0  0  0  0  0  0  0  0  0  0  0  0
  -25.4238  -19.1247   22.3699 O   0  0  0  0  0  0  0  0  0  0  0  0
  -17.9707  -17.1628   24.3391 O   0  0  0  0  0  0  0  0  0  0  0  0
  -23.5612  -28.7508   23.3142 O   0  0  0  0  0  0  0  0  0  0  0  0
  -21.2321  -19.8620   17.0560 O   0  0  0  0  0  0  0  0  0  1  0  0
  -20.1067  -16.9927   18.6158 O   0  0  0  0  0  0  0  0  0  0  0  0
  -27.5008  -28.6301   27.1703 F   0  0  0  0  0  0  0  0  0  0  0  0
  -23.3900  -15.9642   22.9076 F   0  0  0  0  0  0  0  0  0  0  0  0
  -25.3602  -26.6554   23.4388 F   0  0  0  0  0  0  0  0  0  0  0  0
  1  2  1  0  0  0  0
  1  5  2  0  0  0  0
  2  6  2  0  0  0  0
  3  8  2  0  0  0  0
  3 17  1  0  0  0  0
  4  9  1  0  0  0  0
  4 17  2  0  0  0  0
  5 19  1  0  0  0  0
  6 21  1  0  0  0  0
  7 10  2  0  0  0  0
  7 20  1  0  0  0  0
  8 25  1  0  0  0  0
  9 25  2  0  0  0  0
 10 26  1  0  0  0  0
 11 12  2  0  0  0  0
 11 27  1  0  0  0  0
 12 29  1  0  0  0  0
 13 22  1  0  0  0  0
 13 26  2  0  0  0  0
 14 23  2  0  0  0  0
 14 28  1  0  0  0  0
 15 24  1  0  0  0  0
 15 30  2  0  0  0  0
 16 29  2  0  0  0  0
 16 31  1  0  0  0  0
 17 32  1  0  0  0  0
 18 32  1  0  0  0  0
 18 33  2  0  0  0  0
 18 34  1  0  0  0  0
 19 21  2  0  0  0  0
 19 39  1  0  0  0  0
 20 22  2  0  0  0  0
 20 40  1  0  0  0  0
 21 52  1  0  0  0  0
 22 41  1  0  0  0  0
 23 30  1  0  0  0  0
 23 62  1  0  0  0  0
 24 28  2  0  0  0  0
 24 61  1  0  0  0  0
 25 85  1  0  0  0  0
 26 86  1  0  0  0  0
 27 31  2  0  0  0  0
 27 85  1  0  0  0  0
 28 87  1  0  0  0  0
 29 88  1  0  0  0  0
 30 89  1  0  0  0  0
 31 90  1  0  0  0  0
 32 69  2  0  0  0  0
 33 70  1  0  0  0  0
 33 73  1  0  0  0  0
 34 74  1  0  0  0  0
 34 80  2  0  0  0  0
 35 53  1  0  0  0  0
 35 75  1  0  0  0  0
 35 81  2  0  0  0  0
 36 66  1  0  0  0  0
 36 71  1  0  0  0  0
 36 82  2  0  0  0  0
 37 67  1  0  0  0  0
 37 76  1  0  0  0  0
 37 83  2  0  0  0  0
 38 72  1  0  0  0  0
 38 77  1  0  0  0  0
 38 84  2  0  0  0  0
 39 42  1  0  0  0  0
 40 53  1  0  0  0  0
 41 71  1  0  0  0  0
 42 46  1  0  0  0  0
 43 47  1  0  0  0  0
 43 48  1  0  0  0  0
 44 45  1  0  0  0  0
 44 50  1  0  0  0  0
 45 51  1  0  0  0  0
 46 52  1  0  0  0  0
 47 54  1  0  0  0  0
 48 72  1  0  0  0  0
 49 54  1  0  0  0  0
 49 72  1  0  0  0  0
 50 78  1  0  0  0  0
 51 78  1  0  0  0  0
 52 75  1  0  0  0  0
 53 71  1  0  0  0  0
 54 70  1  0  0  0  0
 55 67  1  0  0  0  0
 56 68  1  0  0  0  0
 57 68  1  0  0  0  0
 58 68  1  0  0  0  0
 59 77  1  0  0  0  0
 60 79  1  0  0  0  0
 61 77  1  0  0  0  0
 62 78  1  0  0  0  0
 63 64  1  0  0  0  0
 63 65  1  0  0  0  0
 64 86  1  0  0  0  0
 65 87  1  0  0  0  0
 66 68  1  0  0  0  0
 66 76  1  0  0  0  0
 67 79  1  0  0  0  0
 69 70  1  0  0  0  0
M  CHG  2  78   1  79   1
M  ISO  4  38 100  64 101  77 100  86 101
M  END
> <Batch ID>
0017

> <Smiles>
CNC(C)C(=O)NC(C(=O)N1Cc2cc([101O:1][101CH2:1]CCOc3cc(CN4CCCC4)c(F)cc3C[100N:0](C)[100C:0](=O)N3CCCC(n4nc(-c5ccc(Oc6ccc(F)cc6F)cc5)c(C(N)=O)c4N)C3)ccc2CC1C(=O)NC1CCCc2ccccc21)C(C)(C)C

> <Shape>
0.128

> <Color>
0.068

> <Negative vol penalty>
0.000

$$$$

  -OEChem-04042321003D

 85 93  0     1  0  0  0  0  0999 V2000
  -16.9296  -30.1130   23.3773 C   0  0  0  0  0  0  0  0  0  0  0  0
  -18.1527  -30.7012   23.0718 C   0  0  0  0  0  0  0  0  0  0  0  0
  -25.3237  -14.2040   21.2713 C   0  0  0  0  0  0  0  0  0  0  0  0
  -26.2884  -13.0407   19.3864 C   0  0  0  0  0  0  0  0  0  0  0  0
  -16.8553  -28.7394   23.6044 C   0  0  0  0  0  0  0  0  0  0  0  0
  -19.3026  -29.9163   22.9944 C   0  0  0  0  0  0  0  0  0  0  0  0
  -25.5236  -29.4595   19.4721 C   0  0  0  0  0  0  0  0  0  0  0  0
  -31.6802  -24.4572   22.1219 C   0  0  0  0  0  0  0  0  0  0  0  0
  -31.3206  -23.4602   21.2151 C   0  0  0  0  0  0  0  0  0  0  0  0
  -24.3271  -13.2323   21.3610 C   0  0  0  0  0  0  0  0  0  0  0  0
  -25.2919  -12.0688   19.4761 C   0  0  0  0  0  0  0  0  0  0  0  0
  -26.8921  -29.3459   19.7133 C   0  0  0  0  0  0  0  0  0  0  0  0
  -24.0144  -10.0888   22.5668 C   0  0  0  0  0  0  0  0  0  0  0  0
  -23.7057   -9.5918   23.8330 C   0  0  0  0  0  0  0  0  0  0  0  0
  -26.6300  -26.9712   20.0471 C   0  0  0  0  0  0  0  0  0  0  0  0
  -29.6119  -24.1116   23.3220 C   0  0  0  0  0  0  0  0  0  0  0  0
  -21.4305  -10.3647   23.5817 C   0  0  0  0  0  0  0  0  0  0  0  0
  -26.3043  -14.1083   20.2840 C   0  0  0  0  0  0  0  0  0  0  0  0
  -28.5860  -15.1081   20.8336 C   0  0  0  0  0  0  0  0  0  0  0  0
  -18.0032  -27.9357   23.5203 C   0  0  0  0  0  0  0  0  0  0  0  0
  -24.6949  -28.3296   19.5274 C   0  0  0  0  0  0  0  0  0  0  0  0
  -19.2439  -28.5308   23.2220 C   0  0  0  0  0  0  0  0  0  0  0  0
  -25.2518  -27.0727   19.8037 C   0  0  0  0  0  0  0  0  0  0  0  0
  -30.8259  -24.7829   23.1754 C   0  0  0  0  0  0  0  0  0  0  0  0
  -30.1067  -22.7889   21.3617 C   0  0  0  0  0  0  0  0  0  0  0  0
  -24.3112  -12.1647   20.4634 C   0  0  0  0  0  0  0  0  0  0  0  0
  -27.4450  -28.1021   20.0037 C   0  0  0  0  0  0  0  0  0  0  0  0
  -23.0312  -10.7239   21.8081 C   0  0  0  0  0  0  0  0  0  0  0  0
  -22.4138   -9.7297   24.3405 C   0  0  0  0  0  0  0  0  0  0  0  0
  -21.7392  -10.8618   22.3155 C   0  0  0  0  0  0  0  0  0  0  0  0
  -29.2523  -23.1146   22.4151 C   0  0  0  0  0  0  0  0  0  0  0  0
  -27.3337  -15.1121   20.1904 C   0  0  0  0  0  0  0  0  0  0  0  0
  -29.1872  -16.2723   20.4217 C   0  0  0  0  0  0  0  0  0  0  0  0
  -29.1549  -14.1387   21.7237 C   0  0  0  0  0  0  0  0  0  0  0  0
  -22.2183  -27.4495   21.3150 C   0  0  0  0  0  0  0  0  0  0  0  0
  -22.1216  -24.9439   19.2572 C   0  0  0  0  0  0  0  0  0  0  0  0
  -23.7835  -22.9452   17.0457 C   0  0  0  0  0  0  0  0  0  0  0  0
  -28.6056  -21.8575   19.6083 C   0  0  0  0  0  0  0  0  0  0  0  0
  -17.8816  -26.4627   23.8204 C   0  0  0  0  0  0  0  0  0  0  0  0
  -23.2250  -28.4646   19.2385 C   0  0  0  0  0  0  0  0  0  0  0  0
  -24.4086  -25.8257   19.8549 C   0  0  0  0  0  0  0  0  0  0  0  0
  -19.0816  -25.6443   23.3507 C   0  0  0  0  0  0  0  0  0  0  0  0
  -27.9087  -19.5589   16.8082 C   0  0  0  0  0  0  0  0  0  0  0  0
  -20.3845  -26.3263   23.7558 C   0  0  0  0  0  0  0  0  0  0  0  0
  -27.7362  -18.2120   17.5082 C   0  0  0  0  0  0  0  0  0  0  0  0
  -27.4970  -20.7214   17.7065 C   0  0  0  0  0  0  0  0  0  0  0  0
  -28.0192  -19.3885   19.7266 C   0  0  0  0  0  0  0  0  0  0  0  0
  -20.5091  -27.7090   23.1045 C   0  0  1  0  0  0  0  0  0  0  0  0
  -22.3935  -27.3293   19.8276 C   0  0  1  0  0  0  0  0  0  0  0  0
  -28.4664  -18.1998   18.8623 C   0  0  1  0  0  0  0  0  0  0  0  0
  -23.4489  -20.9578   15.5506 C   0  0  0  0  0  0  0  0  0  0  0  0
  -22.1961  -23.1041   21.6902 C   0  0  0  0  0  0  0  0  0  0  0  0
  -22.8137  -21.2210   20.1603 C   0  0  0  0  0  0  0  0  0  0  0  0
  -20.6235  -22.3826   19.8845 C   0  0  0  0  0  0  0  0  0  0  0  0
  -30.7665  -20.7344   20.0968 C   0  0  0  0  0  0  0  0  0  0  0  0
  -24.4548  -24.5082   14.6239 C   0  0  0  0  0  0  0  0  0  0  0  0
  -31.9338  -28.2144   24.4924 C   0  0  0  0  0  0  0  0  0  0  0  0
  -31.2131  -25.8556   24.1503 C   0  0  0  0  0  0  0  0  0  0  0  0
  -30.6152  -28.6248   21.6478 C   0  0  0  0  0  0  0  0  0  0  0  0
  -30.2211  -27.6733   22.7675 C   0  0  0  0  0  0  0  0  0  0  0  0
  -29.4360  -29.1168   20.8177 C   0  0  0  0  0  0  0  0  0  1  0  0
  -22.7507  -23.5723   19.2124 C   0  0  1  0  0  0  0  0  0  0  0  0
  -23.4259  -22.4753   15.6473 C   0  0  2  0  0  0  0  0  0  0  0  0
  -22.1118  -22.5936   20.2379 C   0  0  0  0  0  0  0  0  0  0  0  0
  -27.1491  -16.1932   19.4281 N   0  0  0  0  0  0  0  0  0  0  0  0
  -28.2933  -16.8794   19.5896 N   0  0  0  0  0  0  0  0  0  0  0  0
  -22.9758  -26.0104   19.5714 N   0  0  0  0  0  0  0  0  0  0  0  0
  -28.1711  -20.6608   19.0039 N   0  0  0  0  0  0  0  0  0  0  0  0
  -30.3881  -16.8257   20.6939 N   0  0  0  0  0  0  0  0  0  0  0  0
  -28.4015  -13.0003   22.0416 N   0  0  0  0  0  0  0  0  0  0  0  0
  -20.9030  -27.5808   21.7178 N   0  0  0  0  0  0  0  0  0  0  0  0
  -22.6612  -23.1273   17.8259 N   0  0  0  0  0  0  0  0  0  0  0  0
  -29.7664  -21.7616   20.4059 N   0  0  0  0  0  0  0  0  0  0  0  0
  -24.3914  -23.0242   14.6536 N   0  3  0  0  0  0  0  0  0  0  0  0
  -31.4208  -27.2011   23.4976 N   0  3  1  0  0  0  0  0  0  0  0  0
  -30.2907  -14.2857   22.2352 O   0  0  0  0  0  0  0  0  0  0  0  0
  -23.2034  -27.4236   22.0435 O   0  0  0  0  0  0  0  0  0  0  0  0
  -20.9182  -25.0655   19.0149 O   0  0  0  0  0  0  0  0  0  0  0  0
  -24.9426  -23.1287   17.4107 O   0  0  0  0  0  0  0  0  0  0  0  0
  -28.0196  -22.9312   19.4250 O   0  0  0  0  0  0  0  0  0  0  0  0
  -23.3390  -11.2161   20.5508 O   0  0  0  0  0  0  0  0  0  0  0  0
  -28.7803  -27.9885   20.2402 O   0  0  0  0  0  0  0  0  0  1  0  0
  -22.1171   -9.2510   25.5558 F   0  0  0  0  0  0  0  0  0  0  0  0
  -20.7901  -11.4699   21.5908 F   0  0  0  0  0  0  0  0  0  0  0  0
  -27.7398  -22.3087   22.6333 Cl  0  0  0  0  0  0  0  0  0  0  0  0
  1  2  1  0  0  0  0
  1  5  2  0  0  0  0
  2  6  2  0  0  0  0
  3 10  2  0  0  0  0
  3 18  1  0  0  0  0
  4 11  1  0  0  0  0
  4 18  2  0  0  0  0
  5 20  1  0  0  0  0
  6 22  1  0  0  0  0
  7 12  2  0  0  0  0
  7 21  1  0  0  0  0
  8  9  2  0  0  0  0
  8 24  1  0  0  0  0
  9 25  1  0  0  0  0
 10 26  1  0  0  0  0
 11 26  2  0  0  0  0
 12 27  1  0  0  0  0
 13 14  2  0  0  0  0
 13 28  1  0  0  0  0
 14 29  1  0  0  0  0
 15 23  1  0  0  0  0
 15 27  2  0  0  0  0
 16 24  2  0  0  0  0
 16 31  1  0  0  0  0
 17 29  2  0  0  0  0
 17 30  1  0  0  0  0
 18 32  1  0  0  0  0
 19 32  1  0  0  0  0
 19 33  2  0  0  0  0
 19 34  1  0  0  0  0
 20 22  2  0  0  0  0
 20 39  1  0  0  0  0
 21 23  2  0  0  0  0
 21 40  1  0  0  0  0
 22 48  1  0  0  0  0
 23 41  1  0  0  0  0
 24 58  1  0  0  0  0
 25 31  2  0  0  0  0
 25 73  1  0  0  0  0
 26 81  1  0  0  0  0
 27 82  1  0  0  0  0
 28 30  2  0  0  0  0
 28 81  1  0  0  0  0
 29 83  1  0  0  0  0
 30 84  1  0  0  0  0
 31 85  1  0  0  0  0
 32 65  2  0  0  0  0
 33 66  1  0  0  0  0
 33 69  1  0  0  0  0
 34 70  1  0  0  0  0
 34 76  2  0  0  0  0
 35 49  1  0  0  0  0
 35 71  1  0  0  0  0
 35 77  2  0  0  0  0
 36 62  1  0  0  0  0
 36 67  1  0  0  0  0
 36 78  2  0  0  0  0
 37 63  1  0  0  0  0
 37 72  1  0  0  0  0
 37 79  2  0  0  0  0
 38 68  1  0  0  0  0
 38 73  1  0  0  0  0
 38 80  2  0  0  0  0
 39 42  1  0  0  0  0
 40 49  1  0  0  0  0
 41 67  1  0  0  0  0
 42 44  1  0  0  0  0
 43 45  1  0  0  0  0
 43 46  1  0  0  0  0
 44 48  1  0  0  0  0
 45 50  1  0  0  0  0
 46 68  1  0  0  0  0
 47 50  1  0  0  0  0
 47 68  1  0  0  0  0
 48 71  1  0  0  0  0
 49 67  1  0  0  0  0
 50 66  1  0  0  0  0
 51 63  1  0  0  0  0
 52 64  1  0  0  0  0
 53 64  1  0  0  0  0
 54 64  1  0  0  0  0
 55 73  1  0  0  0  0
 56 74  1  0  0  0  0
 57 75  1  0  0  0  0
 58 75  1  0  0  0  0
 59 60  1  0  0  0  0
 59 61  1  0  0  0  0
 60 75  1  0  0  0  0
 61 82  1  0  0  0  0
 62 64  1  0  0  0  0
 62 72  1  0  0  0  0
 63 74  1  0  0  0  0
 65 66  1  0  0  0  0
M  CHG  2  74   1  75   1
M  ISO  4  38 100  61 101  73 100  82 101
M  END
> <Batch ID>
0017

> <Smiles>
CNC(C)C(=O)NC(C(=O)N1Cc2cc([101O:1][101CH2:1]CCN(C)Cc3ccc([100N:0](C)[100C:0](=O)N4CCCC(n5nc(-c6ccc(Oc7ccc(F)cc7F)cc6)c(C(N)=O)c5N)C4)c(Cl)c3)ccc2CC1C(=O)NC1CCCc2ccccc21)C(C)(C)C

> <Shape>
0.238

> <Color>
0.071

> <Negative vol penalty>
0.000

$$$$

  -OEChem-04042321003D

 83 91  0     1  0  0  0  0  0999 V2000
  -30.2380  -13.0240   20.2889 C   0  0  0  0  0  0  0  0  0  0  0  0
  -29.6438  -14.2363   19.9531 C   0  0  0  0  0  0  0  0  0  0  0  0
  -23.1863  -30.1987   18.9701 C   0  0  0  0  0  0  0  0  0  0  0  0
  -27.8785  -24.7287   21.0434 C   0  0  0  0  0  0  0  0  0  0  0  0
  -29.9194  -25.9087   20.5147 C   0  0  0  0  0  0  0  0  0  0  0  0
  -29.5094  -11.8398   20.1864 C   0  0  0  0  0  0  0  0  0  0  0  0
  -28.3208  -14.2648   19.5134 C   0  0  0  0  0  0  0  0  0  0  0  0
  -25.6315  -17.9660   21.6845 C   0  0  0  0  0  0  0  0  0  0  0  0
  -22.8611  -28.8783   18.6599 C   0  0  0  0  0  0  0  0  0  0  0  0
  -23.2199  -30.6146   20.3011 C   0  0  0  0  0  0  0  0  0  0  0  0
  -28.1389  -23.8191   20.0185 C   0  0  0  0  0  0  0  0  0  0  0  0
  -30.1799  -24.9990   19.4898 C   0  0  0  0  0  0  0  0  0  0  0  0
  -25.8147  -19.2581   21.1940 C   0  0  0  0  0  0  0  0  0  0  0  0
  -30.1071  -21.1134   19.5300 C   0  0  0  0  0  0  0  0  0  0  0  0
  -29.9304  -19.7577   19.8062 C   0  0  0  0  0  0  0  0  0  0  0  0
  -23.7887  -19.0482   19.9015 C   0  0  0  0  0  0  0  0  0  0  0  0
  -22.6029  -28.3894   21.0118 C   0  0  0  0  0  0  0  0  0  0  0  0
  -28.2739  -19.6163   18.0531 C   0  0  0  0  0  0  0  0  0  0  0  0
  -28.7688  -25.7736   21.2914 C   0  0  0  0  0  0  0  0  0  0  0  0
  -28.9040  -26.6183   23.6947 C   0  0  0  0  0  0  0  0  0  0  0  0
  -28.1738  -11.8548   19.7546 C   0  0  0  0  0  0  0  0  0  0  0  0
  -24.5294  -17.2000   21.2781 C   0  0  0  0  0  0  0  0  0  0  0  0
  -27.5740  -13.0794   19.4038 C   0  0  0  0  0  0  0  0  0  0  0  0
  -23.5924  -17.7476   20.3903 C   0  0  0  0  0  0  0  0  0  0  0  0
  -22.5694  -27.9736   19.6808 C   0  0  0  0  0  0  0  0  0  0  0  0
  -22.9281  -29.7099   21.3220 C   0  0  0  0  0  0  0  0  0  0  0  0
  -29.2896  -23.9542   19.2418 C   0  0  0  0  0  0  0  0  0  0  0  0
  -24.8949  -19.7983   20.3001 C   0  0  0  0  0  0  0  0  0  0  0  0
  -29.3671  -21.7207   18.5154 C   0  0  0  0  0  0  0  0  0  0  0  0
  -29.0139  -19.0091   19.0678 C   0  0  0  0  0  0  0  0  0  0  0  0
  -28.4506  -20.9721   17.7769 C   0  0  0  0  0  0  0  0  0  0  0  0
  -28.5000  -26.7139   22.3496 C   0  0  0  0  0  0  0  0  0  0  0  0
  -28.4024  -27.7523   24.2853 C   0  0  0  0  0  0  0  0  0  0  0  0
  -29.6648  -25.5959   24.3516 C   0  0  0  0  0  0  0  0  0  0  0  0
  -24.1582  -14.4512   19.7256 C   0  0  0  0  0  0  0  0  0  0  0  0
  -21.0318  -14.9074   20.4604 C   0  0  0  0  0  0  0  0  0  0  0  0
  -18.5321  -17.0886   21.2604 C   0  0  0  0  0  0  0  0  0  0  0  0
  -23.8322  -31.1698   23.1228 C   0  0  0  0  0  0  0  0  0  0  0  0
  -27.4412  -10.5439   19.6147 C   0  0  0  0  0  0  0  0  0  0  0  0
  -24.3317  -15.8176   21.8372 C   0  0  0  0  0  0  0  0  0  0  0  0
  -22.3816  -16.9740   19.9386 C   0  0  0  0  0  0  0  0  0  0  0  0
  -25.9274  -10.7015   19.4982 C   0  0  0  0  0  0  0  0  0  0  0  0
  -27.2067  -32.2739   23.3142 C   0  0  0  0  0  0  0  0  0  0  0  0
  -25.5803  -11.7969   18.4950 C   0  0  0  0  0  0  0  0  0  0  0  0
  -27.9652  -30.9515   23.2076 C   0  0  0  0  0  0  0  0  0  0  0  0
  -25.9883  -32.3111   22.3911 C   0  0  0  0  0  0  0  0  0  0  0  0
  -25.8241  -29.8428   22.4607 C   0  0  0  0  0  0  0  0  0  0  0  0
  -26.1334  -13.1540   18.9465 C   0  0  1  0  0  0  0  0  0  0  0  0
  -23.4488  -14.9380   20.9574 C   0  0  1  0  0  0  0  0  0  0  0  0
  -27.0213  -29.7548   23.4201 C   0  0  1  0  0  0  0  0  0  0  0  0
  -16.0752  -17.1700   21.7650 C   0  0  0  0  0  0  0  0  0  0  0  0
  -20.4134  -14.5631   17.4924 C   0  0  0  0  0  0  0  0  0  0  0  0
  -18.1634  -15.5767   17.9150 C   0  0  0  0  0  0  0  0  0  0  0  0
  -18.7957  -13.4380   19.0325 C   0  0  0  0  0  0  0  0  0  0  0  0
  -21.9151  -29.6652   23.6088 C   0  0  0  0  0  0  0  0  0  0  0  0
  -19.0070  -18.1727   23.9731 C   0  0  0  0  0  0  0  0  0  0  0  0
  -22.2196  -26.5534   19.3466 C   0  0  0  0  0  0  0  0  0  0  0  0
  -24.1803  -23.2815   19.6809 C   0  0  0  0  0  0  0  0  0  0  0  0
  -22.9897  -24.1775   19.3741 C   0  0  0  0  0  0  0  0  0  0  0  0
  -23.8972  -21.7972   19.4845 C   0  0  0  0  0  0  0  0  0  1  0  0
  -19.8667  -15.5980   19.7937 C   0  0  1  0  0  0  0  0  0  0  0  0
  -17.4746  -17.0534   22.3490 C   0  0  2  0  0  0  0  0  0  0  0  0
  -19.3335  -14.8081   18.5652 C   0  0  0  0  0  0  0  0  0  0  0  0
  -27.7959  -27.8212   22.1001 N   0  0  0  0  0  0  0  0  0  0  0  0
  -27.7534  -28.4316   23.2966 N   0  0  0  0  0  0  0  0  0  0  0  0
  -22.2357  -15.6244   20.5084 N   0  0  0  0  0  0  0  0  0  0  0  0
  -25.1391  -31.1300   22.6014 N   0  0  0  0  0  0  0  0  0  0  0  0
  -28.4574  -28.2247   25.5488 N   0  0  0  0  0  0  0  0  0  0  0  0
  -30.1023  -24.4992   23.5964 N   0  0  0  0  0  0  0  0  0  0  0  0
  -25.3003  -13.7185   19.9867 N   0  0  0  0  0  0  0  0  0  0  0  0
  -18.8726  -15.8210   20.8380 N   0  0  0  0  0  0  0  0  0  0  0  0
  -22.9637  -30.1406   22.6999 N   0  0  0  0  0  0  0  0  0  0  0  0
  -17.6793  -18.1768   23.3066 N   0  3  0  0  0  0  0  0  0  0  0  0
  -23.3247  -25.5974   19.6335 N   0  3  0  0  0  0  0  0  0  0  0  0
  -29.9342  -25.6449   25.5758 O   0  0  0  0  0  0  0  0  0  0  0  0
  -23.7024  -14.7193   18.6201 O   0  0  0  0  0  0  0  0  0  0  0  0
  -20.8775  -13.7763   20.9279 O   0  0  0  0  0  0  0  0  0  0  0  0
  -19.0059  -18.1360   20.8256 O   0  0  0  0  0  0  0  0  0  0  0  0
  -23.4761  -32.0418   23.9245 O   0  0  0  0  0  0  0  0  0  0  0  0
  -29.5442  -23.0666   18.2418 O   0  0  0  0  0  0  0  0  0  0  0  0
  -25.0717  -21.0590   19.8192 O   0  0  0  0  0  0  0  0  0  1  0  0
  -28.8455  -17.7068   19.3321 F   0  0  0  0  0  0  0  0  0  0  0  0
  -27.7377  -21.5497   16.8002 F   0  0  0  0  0  0  0  0  0  0  0  0
  1  2  1  0  0  0  0
  1  6  2  0  0  0  0
  2  7  2  0  0  0  0
  3  9  2  0  0  0  0
  3 10  1  0  0  0  0
  4 11  2  0  0  0  0
  4 19  1  0  0  0  0
  5 12  1  0  0  0  0
  5 19  2  0  0  0  0
  6 21  1  0  0  0  0
  7 23  1  0  0  0  0
  8 13  2  0  0  0  0
  8 22  1  0  0  0  0
  9 25  1  0  0  0  0
 10 26  2  0  0  0  0
 11 27  1  0  0  0  0
 12 27  2  0  0  0  0
 13 28  1  0  0  0  0
 14 15  2  0  0  0  0
 14 29  1  0  0  0  0
 15 30  1  0  0  0  0
 16 24  1  0  0  0  0
 16 28  2  0  0  0  0
 17 25  2  0  0  0  0
 17 26  1  0  0  0  0
 18 30  2  0  0  0  0
 18 31  1  0  0  0  0
 19 32  1  0  0  0  0
 20 32  1  0  0  0  0
 20 33  2  0  0  0  0
 20 34  1  0  0  0  0
 21 23  2  0  0  0  0
 21 39  1  0  0  0  0
 22 24  2  0  0  0  0
 22 40  1  0  0  0  0
 23 48  1  0  0  0  0
 24 41  1  0  0  0  0
 25 57  1  0  0  0  0
 26 72  1  0  0  0  0
 27 80  1  0  0  0  0
 28 81  1  0  0  0  0
 29 31  2  0  0  0  0
 29 80  1  0  0  0  0
 30 82  1  0  0  0  0
 31 83  1  0  0  0  0
 32 64  2  0  0  0  0
 33 65  1  0  0  0  0
 33 68  1  0  0  0  0
 34 69  1  0  0  0  0
 34 75  2  0  0  0  0
 35 49  1  0  0  0  0
 35 70  1  0  0  0  0
 35 76  2  0  0  0  0
 36 61  1  0  0  0  0
 36 66  1  0  0  0  0
 36 77  2  0  0  0  0
 37 62  1  0  0  0  0
 37 71  1  0  0  0  0
 37 78  2  0  0  0  0
 38 67  1  0  0  0  0
 38 72  1  0  0  0  0
 38 79  2  0  0  0  0
 39 42  1  0  0  0  0
 40 49  1  0  0  0  0
 41 66  1  0  0  0  0
 42 44  1  0  0  0  0
 43 45  1  0  0  0  0
 43 46  1  0  0  0  0
 44 48  1  0  0  0  0
 45 50  1  0  0  0  0
 46 67  1  0  0  0  0
 47 50  1  0  0  0  0
 47 67  1  0  0  0  0
 48 70  1  0  0  0  0
 49 66  1  0  0  0  0
 50 65  1  0  0  0  0
 51 62  1  0  0  0  0
 52 63  1  0  0  0  0
 53 63  1  0  0  0  0
 54 63  1  0  0  0  0
 55 72  1  0  0  0  0
 56 73  1  0  0  0  0
 57 74  1  0  0  0  0
 58 59  1  0  0  0  0
 58 60  1  0  0  0  0
 59 74  1  0  0  0  0
 60 81  1  0  0  0  0
 61 63  1  0  0  0  0
 61 71  1  0  0  0  0
 62 73  1  0  0  0  0
 64 65  1  0  0  0  0
M  CHG  2  73   1  74   1
M  ISO  4  38 100  60 101  72 100  81 101
M  END
> <Batch ID>
0017

> <Smiles>
CNC(C)C(=O)NC(C(=O)N1Cc2cc([101O:1][101CH2:1]CCNCc3cccc([100N:0](C)[100C:0](=O)N4CCCC(n5nc(-c6ccc(Oc7ccc(F)cc7F)cc6)c(C(N)=O)c5N)C4)c3)ccc2CC1C(=O)NC1CCCc2ccccc21)C(C)(C)C

> <Shape>
0.203

> <Color>
0.047

> <Negative vol penalty>
0.000

$$$$

  -OEChem-04042321003D

 87 95  0     1  0  0  0  0  0999 V2000
  -23.6161  -20.3995   28.0854 C   0  0  0  0  0  0  0  0  0  0  0  0
  -23.3622  -21.7335   27.7826 C   0  0  0  0  0  0  0  0  0  0  0  0
  -25.5241  -15.8853   21.7410 C   0  0  0  0  0  0  0  0  0  0  0  0
  -25.2603  -16.4161   19.3988 C   0  0  0  0  0  0  0  0  0  0  0  0
  -23.9366  -19.5035   27.0664 C   0  0  0  0  0  0  0  0  0  0  0  0
  -23.4298  -22.1724   26.4608 C   0  0  0  0  0  0  0  0  0  0  0  0
  -19.9575  -26.4757   23.8283 C   0  0  0  0  0  0  0  0  0  0  0  0
  -26.8391  -28.5810   20.8079 C   0  0  0  0  0  0  0  0  0  0  0  0
  -28.6839  -30.1367   20.9251 C   0  0  0  0  0  0  0  0  0  0  0  0
  -27.6731  -27.6373   20.2084 C   0  0  0  0  0  0  0  0  0  0  0  0
  -29.5179  -29.1929   20.3256 C   0  0  0  0  0  0  0  0  0  0  0  0
  -24.2716  -15.2714   21.7429 C   0  0  0  0  0  0  0  0  0  0  0  0
  -24.0078  -15.8021   19.4007 C   0  0  0  0  0  0  0  0  0  0  0  0
  -20.1781  -27.8265   23.5634 C   0  0  0  0  0  0  0  0  0  0  0  0
  -21.2995  -13.2470   22.2752 C   0  0  0  0  0  0  0  0  0  0  0  0
  -21.1845  -12.0102   22.9097 C   0  0  0  0  0  0  0  0  0  0  0  0
  -20.8670  -27.2679   21.3201 C   0  0  0  0  0  0  0  0  0  0  0  0
  -22.8265  -11.0828   21.3995 C   0  0  0  0  0  0  0  0  0  0  0  0
  -26.0184  -16.4578   20.5689 C   0  0  0  0  0  0  0  0  0  0  0  0
  -28.5539  -16.4905   20.2898 C   0  0  0  0  0  0  0  0  0  0  0  0
  -23.9987  -19.9295   25.7303 C   0  0  0  0  0  0  0  0  0  0  0  0
  -20.2007  -25.5081   22.8429 C   0  0  0  0  0  0  0  0  0  0  0  0
  -23.7528  -21.2814   25.4232 C   0  0  0  0  0  0  0  0  0  0  0  0
  -20.6462  -25.9056   21.5742 C   0  0  0  0  0  0  0  0  0  0  0  0
  -27.3445  -29.8308   21.1662 C   0  0  0  0  0  0  0  0  0  0  0  0
  -29.0124  -27.9431   19.9673 C   0  0  0  0  0  0  0  0  0  0  0  0
  -23.5135  -15.2297   20.5728 C   0  0  0  0  0  0  0  0  0  0  0  0
  -20.6357  -28.2226   22.3101 C   0  0  0  0  0  0  0  0  0  0  0  0
  -22.1779  -13.4017   21.2027 C   0  0  0  0  0  0  0  0  0  0  0  0
  -21.9480  -10.9281   22.4719 C   0  0  0  0  0  0  0  0  0  0  0  0
  -22.9414  -12.3196   20.7649 C   0  0  0  0  0  0  0  0  0  0  0  0
  -27.3118  -17.0927   20.5664 C   0  0  0  0  0  0  0  0  0  0  0  0
  -29.4656  -17.5097   20.4173 C   0  0  0  0  0  0  0  0  0  0  0  0
  -28.8564  -15.1312   19.9482 C   0  0  0  0  0  0  0  0  0  0  0  0
  -22.1612  -23.0202   22.5777 C   0  0  0  0  0  0  0  0  0  0  0  0
  -28.8410  -23.3872   19.8336 C   0  0  0  0  0  0  0  0  0  0  0  0
  -20.5010  -22.4998   19.8400 C   0  0  0  0  0  0  0  0  0  0  0  0
  -18.5693  -23.7808   17.3351 C   0  0  0  0  0  0  0  0  0  0  0  0
  -24.3955  -18.9344   24.6687 C   0  0  0  0  0  0  0  0  0  0  0  0
  -19.9322  -24.0574   23.1360 C   0  0  0  0  0  0  0  0  0  0  0  0
  -20.9032  -24.9081   20.4754 C   0  0  0  0  0  0  0  0  0  0  0  0
  -24.0792  -19.3991   23.2495 C   0  0  0  0  0  0  0  0  0  0  0  0
  -30.1873  -21.6325   22.7207 C   0  0  0  0  0  0  0  0  0  0  0  0
  -24.5312  -20.8418   23.0469 C   0  0  0  0  0  0  0  0  0  0  0  0
  -29.6842  -20.2105   22.4761 C   0  0  0  0  0  0  0  0  0  0  0  0
  -29.1757  -22.6745   22.2505 C   0  0  0  0  0  0  0  0  0  0  0  0
  -28.2670  -21.0972   20.5739 C   0  0  0  0  0  0  0  0  0  0  0  0
  -23.7921  -21.7903   23.9985 C   0  0  1  0  0  0  0  0  0  0  0  0
  -20.7041  -23.1105   22.2223 C   0  0  1  0  0  0  0  0  0  0  0  0
  -29.2716  -20.0162   21.0065 C   0  0  2  0  0  0  0  0  0  0  0  0
  -17.3946  -23.1190   15.2187 C   0  0  0  0  0  0  0  0  0  0  0  0
  -23.1774  -22.4401   18.3760 C   0  0  0  0  0  0  0  0  0  0  0  0
  -21.9288  -22.7333   16.2259 C   0  0  0  0  0  0  0  0  0  0  0  0
  -21.5392  -20.7058   17.6259 C   0  0  0  0  0  0  0  0  0  0  0  0
  -31.2495  -27.2969   19.1083 C   0  0  0  0  0  0  0  0  0  0  0  0
  -15.9261  -24.5429   18.4268 C   0  0  0  0  0  0  0  0  0  0  0  0
  -26.2061  -32.4933   19.9584 C   0  0  0  0  0  0  0  0  0  0  0  0
  -26.4482  -30.8468   21.8107 C   0  0  0  0  0  0  0  0  0  0  0  0
  -29.3427  -24.7584   20.2102 C   0  0  0  0  0  0  0  0  0  0  0  0
  -23.3993  -30.9393   21.9769 C   0  0  0  0  0  0  0  0  0  0  0  0
  -22.1325  -31.4846   22.6320 C   0  0  0  0  0  0  0  0  0  0  0  0
  -29.3452  -25.6813   19.0012 C   0  0  0  0  0  0  0  0  0  0  0  0
  -24.3010  -32.0704   21.5056 C   0  0  0  0  0  0  0  0  0  0  0  0
  -21.2395  -30.3650   23.1476 C   0  0  0  0  0  0  0  0  0  1  0  0
  -20.6444  -22.9391   18.4028 C   0  0  1  0  0  0  0  0  0  0  0  0
  -17.2656  -23.3013   16.7230 C   0  0  2  0  0  0  0  0  0  0  0  0
  -21.8195  -22.2234   17.6788 C   0  0  0  0  0  0  0  0  0  0  0  0
  -27.4210  -18.3936   20.8484 N   0  0  0  0  0  0  0  0  0  0  0  0
  -28.7425  -18.6173   20.7498 N   0  0  0  0  0  0  0  0  0  0  0  0
  -20.6319  -23.5009   20.8128 N   0  0  0  0  0  0  0  0  0  0  0  0
  -28.7876  -22.4383   20.8548 N   0  0  0  0  0  0  0  0  0  0  0  0
  -30.8073  -17.5577   20.2763 N   0  0  0  0  0  0  0  0  0  0  0  0
  -27.8006  -14.2137   19.8599 N   0  0  0  0  0  0  0  0  0  0  0  0
  -22.4524  -22.0480   23.5156 N   0  0  0  0  0  0  0  0  0  0  0  0
  -19.3420  -22.7290   17.7799 N   0  0  0  0  0  0  0  0  0  0  0  0
  -29.8564  -26.9885   19.3629 N   0  0  3  0  0  0  0  0  0  0  0  0
  -16.1773  -24.2851   16.9855 N   0  3  0  0  0  0  0  0  0  0  0  0
  -25.4932  -31.4948   20.8378 N   0  3  1  0  0  0  0  0  0  0  0  0
  -30.0300  -14.7383   19.7438 O   0  0  0  0  0  0  0  0  0  0  0  0
  -22.9623  -23.7756   22.0398 O   0  0  0  0  0  0  0  0  0  0  0  0
  -28.5095  -23.1672   18.6657 O   0  0  0  0  0  0  0  0  0  0  0  0
  -20.2740  -21.3133   20.0899 O   0  0  0  0  0  0  0  0  0  0  0  0
  -18.8736  -24.9694   17.4079 O   0  0  0  0  0  0  0  0  0  0  0  0
  -22.2914  -14.6305   20.5743 O   0  0  0  0  0  0  0  0  0  0  0  0
  -20.8526  -29.5404   22.0491 O   0  0  0  0  0  0  0  0  0  1  0  0
  -21.8387   -9.7408   23.0823 F   0  0  0  0  0  0  0  0  0  0  0  0
  -23.7879  -12.4624   19.7358 F   0  0  0  0  0  0  0  0  0  0  0  0
  1  2  1  0  0  0  0
  1  5  2  0  0  0  0
  2  6  2  0  0  0  0
  3 12  2  0  0  0  0
  3 19  1  0  0  0  0
  4 13  1  0  0  0  0
  4 19  2  0  0  0  0
  5 21  1  0  0  0  0
  6 23  1  0  0  0  0
  7 14  2  0  0  0  0
  7 22  1  0  0  0  0
  8 10  2  0  0  0  0
  8 25  1  0  0  0  0
  9 11  1  0  0  0  0
  9 25  2  0  0  0  0
 10 26  1  0  0  0  0
 11 26  2  0  0  0  0
 12 27  1  0  0  0  0
 13 27  2  0  0  0  0
 14 28  1  0  0  0  0
 15 16  2  0  0  0  0
 15 29  1  0  0  0  0
 16 30  1  0  0  0  0
 17 24  1  0  0  0  0
 17 28  2  0  0  0  0
 18 30  2  0  0  0  0
 18 31  1  0  0  0  0
 19 32  1  0  0  0  0
 20 32  1  0  0  0  0
 20 33  2  0  0  0  0
 20 34  1  0  0  0  0
 21 23  2  0  0  0  0
 21 39  1  0  0  0  0
 22 24  2  0  0  0  0
 22 40  1  0  0  0  0
 23 48  1  0  0  0  0
 24 41  1  0  0  0  0
 25 58  1  0  0  0  0
 26 76  1  0  0  0  0
 27 84  1  0  0  0  0
 28 85  1  0  0  0  0
 29 31  2  0  0  0  0
 29 84  1  0  0  0  0
 30 86  1  0  0  0  0
 31 87  1  0  0  0  0
 32 68  2  0  0  0  0
 33 69  1  0  0  0  0
 33 72  1  0  0  0  0
 34 73  1  0  0  0  0
 34 79  2  0  0  0  0
 35 49  1  0  0  0  0
 35 74  1  0  0  0  0
 35 80  2  0  0  0  0
 36 59  1  0  0  0  0
 36 71  1  0  0  0  0
 36 81  2  0  0  0  0
 37 65  1  0  0  0  0
 37 70  1  0  0  0  0
 37 82  2  0  0  0  0
 38 66  1  0  0  0  0
 38 75  1  0  0  0  0
 38 83  2  0  0  0  0
 39 42  1  0  0  0  0
 40 49  1  0  0  0  0
 41 70  1  0  0  0  0
 42 44  1  0  0  0  0
 43 45  1  0  0  0  0
 43 46  1  0  0  0  0
 44 48  1  0  0  0  0
 45 50  1  0  0  0  0
 46 71  1  0  0  0  0
 47 50  1  0  0  0  0
 47 71  1  0  0  0  0
 48 74  1  0  0  0  0
 49 70  1  0  0  0  0
 50 69  1  0  0  0  0
 51 66  1  0  0  0  0
 52 67  1  0  0  0  0
 53 67  1  0  0  0  0
 54 67  1  0  0  0  0
 55 76  1  0  0  0  0
 56 77  1  0  0  0  0
 57 78  1  0  0  0  0
 58 78  1  0  0  0  0
 59 62  1  0  0  0  0
 60 61  1  0  0  0  0
 60 63  1  0  0  0  0
 61 64  1  0  0  0  0
 62 76  1  0  0  0  0
 63 78  1  0  0  0  0
 64 85  1  0  0  0  0
 65 67  1  0  0  0  0
 65 75  1  0  0  0  0
 66 77  1  0  0  0  0
 68 69  1  0  0  0  0
M  CHG  2  77   1  78   1
M  ISO  4  36 100  59 100  64 101  85 101
M  END
> <Batch ID>
0017

> <Smiles>
CNC(C)C(=O)NC(C(=O)N1Cc2cc([101O:1][101CH2:1]CCCN(C)Cc3ccc(N(C)C[100CH2:0][100C:0](=O)N4CCCC(n5nc(-c6ccc(Oc7ccc(F)cc7F)cc6)c(C(N)=O)c5N)C4)cc3)ccc2CC1C(=O)NC1CCCc2ccccc21)C(C)(C)C

> <Shape>
0.228

> <Color>
0.051

> <Negative vol penalty>
0.000

$$$$

  -OEChem-04042321003D

 81 89  0     1  0  0  0  0  0999 V2000
  -28.8483  -36.7651   23.2335 C   0  0  0  0  0  0  0  0  0  0  0  0
  -29.1659  -35.4565   22.8839 C   0  0  0  0  0  0  0  0  0  0  0  0
  -24.3257   -9.7629   22.0480 C   0  0  0  0  0  0  0  0  0  0  0  0
  -24.8477  -11.3497   23.7934 C   0  0  0  0  0  0  0  0  0  0  0  0
  -30.0279  -20.7730   19.1454 C   0  0  0  0  0  0  0  0  0  0  0  0
  -27.6321  -37.0436   23.8556 C   0  0  0  0  0  0  0  0  0  0  0  0
  -28.2678  -34.4255   23.1572 C   0  0  0  0  0  0  0  0  0  0  0  0
  -27.2713  -29.4179   19.7753 C   0  0  0  0  0  0  0  0  0  0  0  0
  -29.8855  -19.3937   18.9943 C   0  0  0  0  0  0  0  0  0  0  0  0
  -24.0536   -8.7921   23.0119 C   0  0  0  0  0  0  0  0  0  0  0  0
  -24.5756  -10.3790   24.7574 C   0  0  0  0  0  0  0  0  0  0  0  0
  -27.7391  -28.1086   19.8777 C   0  0  0  0  0  0  0  0  0  0  0  0
  -21.5195   -8.0034   25.1069 C   0  0  0  0  0  0  0  0  0  0  0  0
  -20.3678   -7.2336   24.9445 C   0  0  0  0  0  0  0  0  0  0  0  0
  -27.6470  -20.9800   19.5000 C   0  0  0  0  0  0  0  0  0  0  0  0
  -25.7289  -27.4893   21.0588 C   0  0  0  0  0  0  0  0  0  0  0  0
  -21.7179   -5.2318   24.8592 C   0  0  0  0  0  0  0  0  0  0  0  0
  -24.7228  -11.0417   22.4387 C   0  0  0  0  0  0  0  0  0  0  0  0
  -28.9086  -21.5662   19.3983 C   0  0  0  0  0  0  0  0  0  0  0  0
  -24.0972  -12.9625   20.8808 C   0  0  0  0  0  0  0  0  0  0  0  0
  -26.7144  -36.0167   24.1280 C   0  0  0  0  0  0  0  0  0  0  0  0
  -26.0317  -29.7759   20.3244 C   0  0  0  0  0  0  0  0  0  0  0  0
  -27.0387  -34.6903   23.7848 C   0  0  0  0  0  0  0  0  0  0  0  0
  -25.2466  -28.8033   20.9598 C   0  0  0  0  0  0  0  0  0  0  0  0
  -28.6239  -18.8075   19.0961 C   0  0  0  0  0  0  0  0  0  0  0  0
  -24.1785   -9.1001   24.3666 C   0  0  0  0  0  0  0  0  0  0  0  0
  -26.9692  -27.1446   20.5221 C   0  0  0  0  0  0  0  0  0  0  0  0
  -22.7705   -7.3875   25.1454 C   0  0  0  0  0  0  0  0  0  0  0  0
  -20.4669   -5.8478   24.8207 C   0  0  0  0  0  0  0  0  0  0  0  0
  -27.5046  -19.6006   19.3489 C   0  0  0  0  0  0  0  0  0  0  0  0
  -22.8696   -6.0017   25.0216 C   0  0  0  0  0  0  0  0  0  0  0  0
  -25.0045  -12.0448   21.4435 C   0  0  0  0  0  0  0  0  0  0  0  0
  -24.8515  -13.6912   19.9940 C   0  0  0  0  0  0  0  0  0  0  0  0
  -29.0586  -23.0224   19.5569 C   0  0  0  0  0  0  0  0  0  0  0  0
  -28.0711  -23.9214   19.4233 C   0  0  0  0  0  0  0  0  0  0  0  0
  -22.6978  -13.1404   21.1370 C   0  0  0  0  0  0  0  0  0  0  0  0
  -25.0796  -31.7955   22.5868 C   0  0  0  0  0  0  0  0  0  0  0  0
  -22.1233  -30.9232   21.5759 C   0  0  0  0  0  0  0  0  0  0  0  0
  -20.1573  -28.5976   20.0355 C   0  0  0  0  0  0  0  0  0  0  0  0
  -29.4911  -16.4780   18.6862 C   0  0  0  0  0  0  0  0  0  0  0  0
  -25.4326  -36.3600   24.8448 C   0  0  0  0  0  0  0  0  0  0  0  0
  -25.5294  -31.1865   20.1820 C   0  0  0  0  0  0  0  0  0  0  0  0
  -23.8996  -29.1318   21.5483 C   0  0  0  0  0  0  0  0  0  0  0  0
  -24.3750  -35.2623   24.7608 C   0  0  0  0  0  0  0  0  0  0  0  0
  -29.5535  -12.9418   18.2759 C   0  0  0  0  0  0  0  0  0  0  0  0
  -24.9930  -33.9013   25.0648 C   0  0  0  0  0  0  0  0  0  0  0  0
  -28.3009  -12.4687   19.0171 C   0  0  0  0  0  0  0  0  0  0  0  0
  -30.2195  -14.1208   18.9830 C   0  0  0  0  0  0  0  0  0  0  0  0
  -28.0797  -14.7827   20.0088 C   0  0  0  0  0  0  0  0  0  0  0  0
  -26.0799  -33.5481   24.0423 C   0  0  1  0  0  0  0  0  0  0  0  0
  -24.4829  -31.5566   21.2286 C   0  0  1  0  0  0  0  0  0  0  0  0
  -27.3376  -13.6383   19.2994 C   0  0  2  0  0  0  0  0  0  0  0  0
  -17.7738  -28.1484   19.3914 C   0  0  0  0  0  0  0  0  0  0  0  0
  -21.4726  -30.2319   24.4757 C   0  0  0  0  0  0  0  0  0  0  0  0
  -19.4969  -28.9345   23.6499 C   0  0  0  0  0  0  0  0  0  0  0  0
  -19.6324  -31.3916   23.2415 C   0  0  0  0  0  0  0  0  0  0  0  0
  -20.8332  -28.4939   17.1561 C   0  0  0  0  0  0  0  0  0  0  0  0
  -28.2751  -25.3942   19.5805 C   0  0  0  0  0  0  0  0  0  1  0  0
  -21.1451  -29.8345   21.9457 C   0  0  1  0  0  0  0  0  0  0  0  0
  -19.1076  -28.7280   18.9467 C   0  0  2  0  0  0  0  0  0  0  0  0
  -20.4629  -30.0921   23.3189 C   0  0  0  0  0  0  0  0  0  0  0  0
  -26.2406  -12.1764   20.9549 N   0  0  0  0  0  0  0  0  0  0  0  0
  -26.1154  -13.1852   20.0758 N   0  0  0  0  0  0  0  0  0  0  0  0
  -23.4550  -30.5262   21.3891 N   0  0  0  0  0  0  0  0  0  0  0  0
  -29.2478  -15.1921   19.2134 N   0  0  0  0  0  0  0  0  0  0  0  0
  -24.5502  -14.7089   19.1598 N   0  0  0  0  0  0  0  0  0  0  0  0
  -22.0797  -12.3066   22.0789 N   0  0  0  0  0  0  0  0  0  0  0  0
  -28.4821  -17.4062   18.9414 N   0  0  0  0  0  0  0  0  0  0  0  0
  -25.4816  -33.0997   22.8032 N   0  0  0  0  0  0  0  0  0  0  0  0
  -20.2145  -29.7249   20.8274 N   0  0  0  0  0  0  0  0  0  0  0  0
  -19.5454  -28.0097   17.7165 N   0  3  0  0  0  0  0  0  0  0  0  0
  -22.0120  -14.0019   20.5362 O   0  0  0  0  0  0  0  0  0  0  0  0
  -25.1673  -30.8657   23.3802 O   0  0  0  0  0  0  0  0  0  0  0  0
  -21.7195  -32.0820   21.4503 O   0  0  0  0  0  0  0  0  0  0  0  0
  -20.8540  -27.5944   20.1724 O   0  0  0  0  0  0  0  0  0  0  0  0
  -30.5061  -16.7297   18.0317 O   0  0  0  0  0  0  0  0  0  0  0  0
  -23.9129   -8.1531   25.3074 O   0  0  0  0  0  0  0  0  0  0  0  0
  -27.4236  -25.8660   20.6240 O   0  0  0  0  0  0  0  0  0  1  0  0
  -19.3607   -5.1085   24.6663 F   0  0  0  0  0  0  0  0  0  0  0  0
  -26.2871  -19.0480   19.4476 F   0  0  0  0  0  0  0  0  0  0  0  0
  -24.0685   -5.4042   25.0590 F   0  0  0  0  0  0  0  0  0  0  0  0
  1  2  1  0  0  0  0
  1  6  2  0  0  0  0
  2  7  2  0  0  0  0
  3 10  2  0  0  0  0
  3 18  1  0  0  0  0
  4 11  1  0  0  0  0
  4 18  2  0  0  0  0
  5  9  2  0  0  0  0
  5 19  1  0  0  0  0
  6 21  1  0  0  0  0
  7 23  1  0  0  0  0
  8 12  2  0  0  0  0
  8 22  1  0  0  0  0
  9 25  1  0  0  0  0
 10 26  1  0  0  0  0
 11 26  2  0  0  0  0
 12 27  1  0  0  0  0
 13 14  2  0  0  0  0
 13 28  1  0  0  0  0
 14 29  1  0  0  0  0
 15 19  2  0  0  0  0
 15 30  1  0  0  0  0
 16 24  1  0  0  0  0
 16 27  2  0  0  0  0
 17 29  2  0  0  0  0
 17 31  1  0  0  0  0
 18 32  1  0  0  0  0
 19 34  1  0  0  0  0
 20 32  1  0  0  0  0
 20 33  2  0  0  0  0
 20 36  1  0  0  0  0
 21 23  2  0  0  0  0
 21 41  1  0  0  0  0
 22 24  2  0  0  0  0
 22 42  1  0  0  0  0
 23 50  1  0  0  0  0
 24 43  1  0  0  0  0
 25 30  2  0  0  0  0
 25 68  1  0  0  0  0
 26 77  1  0  0  0  0
 27 78  1  0  0  0  0
 28 31  2  0  0  0  0
 28 77  1  0  0  0  0
 29 79  1  0  0  0  0
 30 80  1  0  0  0  0
 31 81  1  0  0  0  0
 32 62  2  0  0  0  0
 33 63  1  0  0  0  0
 33 66  1  0  0  0  0
 34 35  2  0  0  0  0
 35 58  1  0  0  0  0
 36 67  1  0  0  0  0
 36 72  2  0  0  0  0
 37 51  1  0  0  0  0
 37 69  1  0  0  0  0
 37 73  2  0  0  0  0
 38 59  1  0  0  0  0
 38 64  1  0  0  0  0
 38 74  2  0  0  0  0
 39 60  1  0  0  0  0
 39 70  1  0  0  0  0
 39 75  2  0  0  0  0
 40 65  1  0  0  0  0
 40 68  1  0  0  0  0
 40 76  2  0  0  0  0
 41 44  1  0  0  0  0
 42 51  1  0  0  0  0
 43 64  1  0  0  0  0
 44 46  1  0  0  0  0
 45 47  1  0  0  0  0
 45 48  1  0  0  0  0
 46 50  1  0  0  0  0
 47 52  1  0  0  0  0
 48 65  1  0  0  0  0
 49 52  1  0  0  0  0
 49 65  1  0  0  0  0
 50 69  1  0  0  0  0
 51 64  1  0  0  0  0
 52 63  1  0  0  0  0
 53 60  1  0  0  0  0
 54 61  1  0  0  0  0
 55 61  1  0  0  0  0
 56 61  1  0  0  0  0
 57 71  1  0  0  0  0
 58 78  1  0  0  0  0
 59 61  1  0  0  0  0
 59 70  1  0  0  0  0
 60 71  1  0  0  0  0
 62 63  1  0  0  0  0
M  CHG  1  71   1
M  ISO  4  40 100  58 101  68 100  78 101
M  END
> <Batch ID>
0017

> <Smiles>
CNC(C)C(=O)NC(C(=O)N1Cc2cc([101O:1][101CH2:1]C=Cc3ccc([100NH:0][100C:0](=O)N4CCCC(n5nc(-c6ccc(Oc7ccc(F)cc7F)cc6)c(C(N)=O)c5N)C4)c(F)c3)ccc2CC1C(=O)NC1CCCc2ccccc21)C(C)(C)C

> <Shape>
0.323

> <Color>
0.110

> <Negative vol penalty>
0.000

$$$$

  -OEChem-04042321003D

 78 85  0     1  0  0  0  0  0999 V2000
  -23.2787  -32.0418   13.8623 C   0  0  0  0  0  0  0  0  0  0  0  0
  -24.1113  -31.1300   14.5032 C   0  0  0  0  0  0  0  0  0  0  0  0
  -24.6634   -8.8865   21.8319 C   0  0  0  0  0  0  0  0  0  0  0  0
  -22.9887  -10.1057   20.5886 C   0  0  0  0  0  0  0  0  0  0  0  0
  -23.1955  -33.3539   14.3263 C   0  0  0  0  0  0  0  0  0  0  0  0
  -24.8621  -31.5301   15.6080 C   0  0  0  0  0  0  0  0  0  0  0  0
  -24.6991  -28.1658   19.3895 C   0  0  0  0  0  0  0  0  0  0  0  0
  -23.6587   -8.1759   22.4885 C   0  0  0  0  0  0  0  0  0  0  0  0
  -21.9839   -9.3950   21.2451 C   0  0  0  0  0  0  0  0  0  0  0  0
  -25.4987  -27.0304   19.2664 C   0  0  0  0  0  0  0  0  0  0  0  0
  -21.6090   -5.5702   21.8235 C   0  0  0  0  0  0  0  0  0  0  0  0
  -21.7680   -4.1902   21.9503 C   0  0  0  0  0  0  0  0  0  0  0  0
  -27.1382  -28.0343   20.7236 C   0  0  0  0  0  0  0  0  0  0  0  0
  -21.7022   -4.4037   24.3560 C   0  0  0  0  0  0  0  0  0  0  0  0
  -24.3285   -9.8515   20.8820 C   0  0  0  0  0  0  0  0  0  0  0  0
  -26.0061  -10.2378   18.9995 C   0  0  0  0  0  0  0  0  0  0  0  0
  -23.9384  -33.7678   15.4432 C   0  0  0  0  0  0  0  0  0  0  0  0
  -25.1188  -29.2503   20.1731 C   0  0  0  0  0  0  0  0  0  0  0  0
  -24.7899  -32.8494   16.0866 C   0  0  0  0  0  0  0  0  0  0  0  0
  -26.3409  -29.1813   20.8571 C   0  0  0  0  0  0  0  0  0  0  0  0
  -22.3189   -8.4301   22.1950 C   0  0  0  0  0  0  0  0  0  0  0  0
  -26.7198  -26.9656   19.9312 C   0  0  0  0  0  0  0  0  0  0  0  0
  -21.4968   -6.3669   22.9629 C   0  0  0  0  0  0  0  0  0  0  0  0
  -21.8146   -3.6070   23.2165 C   0  0  0  0  0  0  0  0  0  0  0  0
  -21.5433   -5.7837   24.2291 C   0  0  0  0  0  0  0  0  0  0  0  0
  -25.3659  -10.5863   20.2039 C   0  0  0  0  0  0  0  0  0  0  0  0
  -26.9053  -11.2532   18.7824 C   0  0  0  0  0  0  0  0  0  0  0  0
  -25.8059   -9.0983   18.1527 C   0  0  0  0  0  0  0  0  0  0  0  0
  -25.7922  -32.3037   19.6009 C   0  0  0  0  0  0  0  0  0  0  0  0
  -26.9016  -16.9098   20.5928 C   0  0  0  0  0  0  0  0  0  0  0  0
  -26.0605  -32.4456   22.8304 C   0  0  0  0  0  0  0  0  0  0  0  0
  -26.6384  -30.8015   25.7647 C   0  0  0  0  0  0  0  0  0  0  0  0
  -23.8517  -35.2090   15.8792 C   0  0  0  0  0  0  0  0  0  0  0  0
  -24.2324  -30.4570   20.3171 C   0  0  0  0  0  0  0  0  0  0  0  0
  -26.8277  -30.3103   21.7271 C   0  0  0  0  0  0  0  0  0  0  0  0
  -24.3950  -35.4539   17.2846 C   0  0  0  0  0  0  0  0  0  0  0  0
  -29.5568  -14.4778   21.1051 C   0  0  0  0  0  0  0  0  0  0  0  0
  -25.7399  -34.7575   17.4659 C   0  0  0  0  0  0  0  0  0  0  0  0
  -28.8215  -13.1635   20.8462 C   0  0  0  0  0  0  0  0  0  0  0  0
  -28.6520  -15.5028   21.7838 C   0  0  0  0  0  0  0  0  0  0  0  0
  -26.6450  -14.4564   20.7831 C   0  0  0  0  0  0  0  0  0  0  0  0
  -25.6012  -33.2390   17.3032 C   0  0  1  0  0  0  0  0  0  0  0  0
  -24.9948  -31.7127   20.7289 C   0  0  1  0  0  0  0  0  0  0  0  0
  -27.5141  -13.4058   20.0719 C   0  0  2  0  0  0  0  0  0  0  0  0
  -26.8309  -31.1911   28.2362 C   0  0  0  0  0  0  0  0  0  0  0  0
  -28.8333  -33.6517   22.4219 C   0  0  0  0  0  0  0  0  0  0  0  0
  -29.3343  -33.1368   24.8202 C   0  0  0  0  0  0  0  0  0  0  0  0
  -27.4910  -34.7157   24.2441 C   0  0  0  0  0  0  0  0  0  0  0  0
  -24.3638  -28.9987   26.3434 C   0  0  0  0  0  0  0  0  0  0  0  0
  -27.7163  -18.1341   20.9264 C   0  0  0  0  0  0  0  0  0  0  0  0
  -27.6839  -23.4970   20.1897 C   0  0  0  0  0  0  0  0  0  0  0  0
  -26.8387  -24.6140   19.5968 C   0  0  0  0  0  0  0  0  0  1  0  0
  -27.0492  -19.3868   20.3904 C   0  0  0  0  0  0  0  0  0  0  0  0
  -27.0259  -22.1403   20.0085 C   0  0  0  0  0  0  0  0  0  0  0  0
  -27.1824  -32.2425   23.8200 C   0  0  1  0  0  0  0  0  0  0  0  0
  -25.9012  -30.8195   27.0915 C   0  0  2  0  0  0  0  0  0  0  0  0
  -28.2023  -33.4160   23.8087 C   0  0  0  0  0  0  0  0  0  0  0  0
  -25.8199  -11.7332   20.7161 N   0  0  0  0  0  0  0  0  0  0  0  0
  -26.7551  -12.1143   19.8293 N   0  0  0  0  0  0  0  0  0  0  0  0
  -25.9282  -31.4712   21.8310 N   0  0  0  0  0  0  0  0  0  0  0  0
  -27.4056  -15.6847   21.0303 N   0  0  0  0  0  0  0  0  0  0  0  0
  -27.8019  -11.4844   17.8000 N   0  0  0  0  0  0  0  0  0  0  0  0
  -24.8418   -8.1512   18.5239 N   0  0  0  0  0  0  0  0  0  0  0  0
  -25.0350  -32.6522   18.4988 N   0  0  0  0  0  0  0  0  0  0  0  0
  -26.5489  -32.0139   25.1141 N   0  0  0  0  0  0  0  0  0  0  0  0
  -25.3163  -29.4790   27.3774 N   0  3  0  0  0  0  0  0  0  0  0  0
  -26.4739   -8.9168   17.1066 O   0  0  0  0  0  0  0  0  0  0  0  0
  -27.0045  -32.4352   19.7220 O   0  0  0  0  0  0  0  0  0  0  0  0
  -25.8506  -17.0402   19.9600 O   0  0  0  0  0  0  0  0  0  0  0  0
  -25.3242  -33.4286   22.9445 O   0  0  0  0  0  0  0  0  0  0  0  0
  -27.2373  -29.8120   25.3488 O   0  0  0  0  0  0  0  0  0  0  0  0
  -29.2388  -20.7496   19.9645 O   0  0  0  0  0  0  0  0  0  0  0  0
  -28.0275  -21.0438   22.1595 O   0  0  0  0  0  0  0  0  0  0  0  0
  -21.3382   -7.7367   22.8353 O   0  0  0  0  0  0  0  0  0  0  0  0
  -27.5024  -25.8588   19.8123 O   0  0  0  0  0  0  0  0  0  1  0  0
  -21.9656   -2.2816   23.3381 F   0  0  0  0  0  0  0  0  0  0  0  0
  -21.4348   -6.5439   25.3274 F   0  0  0  0  0  0  0  0  0  0  0  0
  -28.0010  -20.8527   20.7191 S   0  0  0  0  0  0  0  0  0  0  0  0
  1  2  1  0  0  0  0
  1  5  2  0  0  0  0
  2  6  2  0  0  0  0
  3  8  2  0  0  0  0
  3 15  1  0  0  0  0
  4  9  1  0  0  0  0
  4 15  2  0  0  0  0
  5 17  1  0  0  0  0
  6 19  1  0  0  0  0
  7 10  2  0  0  0  0
  7 18  1  0  0  0  0
  8 21  1  0  0  0  0
  9 21  2  0  0  0  0
 10 22  1  0  0  0  0
 11 12  2  0  0  0  0
 11 23  1  0  0  0  0
 12 24  1  0  0  0  0
 13 20  1  0  0  0  0
 13 22  2  0  0  0  0
 14 24  2  0  0  0  0
 14 25  1  0  0  0  0
 15 26  1  0  0  0  0
 16 26  1  0  0  0  0
 16 27  2  0  0  0  0
 16 28  1  0  0  0  0
 17 19  2  0  0  0  0
 17 33  1  0  0  0  0
 18 20  2  0  0  0  0
 18 34  1  0  0  0  0
 19 42  1  0  0  0  0
 20 35  1  0  0  0  0
 21 74  1  0  0  0  0
 22 75  1  0  0  0  0
 23 25  2  0  0  0  0
 23 74  1  0  0  0  0
 24 76  1  0  0  0  0
 25 77  1  0  0  0  0
 26 58  2  0  0  0  0
 27 59  1  0  0  0  0
 27 62  1  0  0  0  0
 28 63  1  0  0  0  0
 28 67  2  0  0  0  0
 29 43  1  0  0  0  0
 29 64  1  0  0  0  0
 29 68  2  0  0  0  0
 30 50  1  0  0  0  0
 30 61  1  0  0  0  0
 30 69  2  0  0  0  0
 31 55  1  0  0  0  0
 31 60  1  0  0  0  0
 31 70  2  0  0  0  0
 32 56  1  0  0  0  0
 32 65  1  0  0  0  0
 32 71  2  0  0  0  0
 33 36  1  0  0  0  0
 34 43  1  0  0  0  0
 35 60  1  0  0  0  0
 36 38  1  0  0  0  0
 37 39  1  0  0  0  0
 37 40  1  0  0  0  0
 38 42  1  0  0  0  0
 39 44  1  0  0  0  0
 40 61  1  0  0  0  0
 41 44  1  0  0  0  0
 41 61  1  0  0  0  0
 42 64  1  0  0  0  0
 43 60  1  0  0  0  0
 44 59  1  0  0  0  0
 45 56  1  0  0  0  0
 46 57  1  0  0  0  0
 47 57  1  0  0  0  0
 48 57  1  0  0  0  0
 49 66  1  0  0  0  0
 50 53  1  0  0  0  0
 51 52  1  0  0  0  0
 51 54  1  0  0  0  0
 52 75  1  0  0  0  0
 53 78  1  0  0  0  0
 54 78  1  0  0  0  0
 55 57  1  0  0  0  0
 55 65  1  0  0  0  0
 56 66  1  0  0  0  0
 58 59  1  0  0  0  0
 72 78  2  0  0  0  0
 73 78  2  0  0  0  0
M  CHG  1  66   1
M  ISO  4  30 100  50 100  52 101  75 101
M  END
> <Batch ID>
0017

> <Smiles>
CNC(C)C(=O)NC(C(=O)N1Cc2cc([101O:1][101CH2:1]CCS(=O)(=O)C[100CH2:0][100C:0](=O)N3CCCC(n4nc(-c5ccc(Oc6ccc(F)cc6F)cc5)c(C(N)=O)c4N)C3)ccc2CC1C(=O)NC1CCCc2ccccc21)C(C)(C)C

> <Shape>
0.287

> <Color>
0.107

> <Negative vol penalty>
0.000

$$$$

  -OEChem-04042321003D

 84 92  0     1  0  0  0  0  0999 V2000
  -29.8678   -2.0832   36.8256 C   0  0  0  0  0  0  0  0  0  0  0  0
  -29.8000   -2.9386   35.7306 C   0  0  0  0  0  0  0  0  0  0  0  0
  -23.2846   -9.7975   19.9080 C   0  0  0  0  0  0  0  0  0  0  0  0
  -23.7225   -9.9368   22.2799 C   0  0  0  0  0  0  0  0  0  0  0  0
  -28.6956   -1.5915   37.3984 C   0  0  0  0  0  0  0  0  0  0  0  0
  -28.5597   -3.3021   35.2070 C   0  0  0  0  0  0  0  0  0  0  0  0
  -27.0427   -8.6994   32.7426 C   0  0  0  0  0  0  0  0  0  0  0  0
  -28.4291  -11.5084   25.2454 C   0  0  0  0  0  0  0  0  0  0  0  0
  -28.4860  -10.3588   23.1212 C   0  0  0  0  0  0  0  0  0  0  0  0
  -27.7612  -10.4241   25.8143 C   0  0  0  0  0  0  0  0  0  0  0  0
  -27.8181   -9.2744   23.6902 C   0  0  0  0  0  0  0  0  0  0  0  0
  -22.5525   -8.6278   20.1119 C   0  0  0  0  0  0  0  0  0  0  0  0
  -22.9904   -8.7671   22.4838 C   0  0  0  0  0  0  0  0  0  0  0  0
  -26.9560   -9.1361   31.4214 C   0  0  0  0  0  0  0  0  0  0  0  0
  -19.7387   -7.8687   22.6830 C   0  0  0  0  0  0  0  0  0  0  0  0
  -18.8303   -7.8507   23.7413 C   0  0  0  0  0  0  0  0  0  0  0  0
  -24.5870   -8.6809   31.4327 C   0  0  0  0  0  0  0  0  0  0  0  0
  -20.0233   -5.9990   24.7339 C   0  0  0  0  0  0  0  0  0  0  0  0
  -23.8696  -10.4519   20.9921 C   0  0  0  0  0  0  0  0  0  0  0  0
  -24.1400  -12.9809   20.7945 C   0  0  0  0  0  0  0  0  0  0  0  0
  -27.4401   -1.9568   36.8876 C   0  0  0  0  0  0  0  0  0  0  0  0
  -25.9022   -8.2391   33.4164 C   0  0  0  0  0  0  0  0  0  0  0  0
  -27.3696   -2.8138   35.7726 C   0  0  0  0  0  0  0  0  0  0  0  0
  -24.6614   -8.2413   32.7633 C   0  0  0  0  0  0  0  0  0  0  0  0
  -28.7915  -11.4758   23.8987 C   0  0  0  0  0  0  0  0  0  0  0  0
  -27.4557   -9.3071   25.0368 C   0  0  0  0  0  0  0  0  0  0  0  0
  -22.4054   -8.1126   21.3998 C   0  0  0  0  0  0  0  0  0  0  0  0
  -25.7286   -9.1242   30.7653 C   0  0  0  0  0  0  0  0  0  0  0  0
  -20.7894   -6.9518   22.6500 C   0  0  0  0  0  0  0  0  0  0  0  0
  -18.9726   -6.9159   24.7667 C   0  0  0  0  0  0  0  0  0  0  0  0
  -20.9317   -6.0170   23.6755 C   0  0  0  0  0  0  0  0  0  0  0  0
  -24.6265  -11.6599   20.7821 C   0  0  0  0  0  0  0  0  0  0  0  0
  -25.2459  -13.7565   20.5456 C   0  0  0  0  0  0  0  0  0  0  0  0
  -22.8075  -13.4637   21.0117 C   0  0  0  0  0  0  0  0  0  0  0  0
  -25.0315   -5.4755   34.7233 C   0  0  0  0  0  0  0  0  0  0  0  0
  -22.4723   -7.2006   35.7218 C   0  0  0  0  0  0  0  0  0  0  0  0
  -20.4424   -9.9047   35.2594 C   0  0  0  0  0  0  0  0  0  0  0  0
  -31.1496  -12.3509   21.3872 C   0  0  0  0  0  0  0  0  0  0  0  0
  -26.2020   -1.3624   37.5107 C   0  0  0  0  0  0  0  0  0  0  0  0
  -26.0076   -7.7965   34.8501 C   0  0  0  0  0  0  0  0  0  0  0  0
  -23.4036   -7.7759   33.4487 C   0  0  0  0  0  0  0  0  0  0  0  0
  -24.9172   -2.0935   37.1297 C   0  0  0  0  0  0  0  0  0  0  0  0
  -29.4877  -13.6547   18.3475 C   0  0  0  0  0  0  0  0  0  0  0  0
  -24.8769   -2.3545   35.6274 C   0  0  0  0  0  0  0  0  0  0  0  0
  -28.0171  -13.3328   18.6079 C   0  0  0  0  0  0  0  0  0  0  0  0
  -30.4170  -12.6711   19.0522 C   0  0  0  0  0  0  0  0  0  0  0  0
  -28.6994  -12.2294   20.7753 C   0  0  0  0  0  0  0  0  0  0  0  0
  -26.0424   -3.2508   35.1916 C   0  0  1  0  0  0  0  0  0  0  0  0
  -24.8755   -6.8653   35.2727 C   0  0  1  0  0  0  0  0  0  0  0  0
  -27.7370  -13.2295   20.1172 C   0  0  2  0  0  0  0  0  0  0  0  0
  -18.4121  -11.0298   36.2130 C   0  0  0  0  0  0  0  0  0  0  0  0
  -20.6974   -5.0672   34.4536 C   0  0  0  0  0  0  0  0  0  0  0  0
  -18.7849   -6.6772   34.5889 C   0  0  0  0  0  0  0  0  0  0  0  0
  -19.9058   -5.8966   36.6762 C   0  0  0  0  0  0  0  0  0  0  0  0
  -26.4659   -7.0444   24.7913 C   0  0  0  0  0  0  0  0  0  0  0  0
  -31.8627  -12.0559   23.7290 C   0  0  0  0  0  0  0  0  0  0  0  0
  -21.9521  -12.3786   35.8592 C   0  0  0  0  0  0  0  0  0  0  0  0
  -29.5053  -12.6348   23.2894 C   0  0  0  0  0  0  0  0  0  0  0  0
  -25.1026   -8.9645   27.2113 C   0  0  0  0  0  0  0  0  0  0  0  0
  -26.4098   -8.2097   27.0020 C   0  0  0  0  0  0  0  0  0  0  0  0
  -24.6335   -8.9512   28.6614 C   0  0  0  0  0  0  0  0  0  1  0  0
  -21.1096   -7.5176   35.1547 C   0  0  1  0  0  0  0  0  0  0  0  0
  -19.9311  -10.9575   36.2262 C   0  0  2  0  0  0  0  0  0  0  0  0
  -20.1483   -6.2967   35.2045 C   0  0  0  0  0  0  0  0  0  0  0  0
  -25.9392  -11.5961   20.5439 N   0  0  0  0  0  0  0  0  0  0  0  0
  -26.2869  -12.8867   20.4044 N   0  0  0  0  0  0  0  0  0  0  0  0
  -23.5593   -7.3469   34.8484 N   0  0  0  0  0  0  0  0  0  0  0  0
  -30.1009  -12.5599   20.4766 N   0  0  0  0  0  0  0  0  0  0  0  0
  -25.4196  -15.0907   20.4359 N   0  0  0  0  0  0  0  0  0  0  0  0
  -21.7900  -12.5308   21.2536 N   0  0  0  0  0  0  0  0  0  0  0  0
  -25.7716   -4.6317   35.5293 N   0  0  0  0  0  0  0  0  0  0  0  0
  -20.6276   -8.6877   35.8806 N   0  0  0  0  0  0  0  0  0  0  0  0
  -26.7858   -8.2161   25.6089 N   0  0  3  0  0  0  0  0  0  0  0  0
  -30.8090  -12.2608   22.7454 N   0  0  0  0  0  0  0  0  0  0  0  0
  -20.4686  -12.2991   35.8629 N   0  3  0  0  0  0  0  0  0  0  0  0
  -22.5246  -14.6852   20.9756 O   0  0  0  0  0  0  0  0  0  0  0  0
  -24.5171   -5.1895   33.6485 O   0  0  0  0  0  0  0  0  0  0  0  0
  -22.5694   -6.8434   36.8985 O   0  0  0  0  0  0  0  0  0  0  0  0
  -20.6527  -10.1376   34.0711 O   0  0  0  0  0  0  0  0  0  0  0  0
  -32.3246  -12.2600   21.0088 O   0  0  0  0  0  0  0  0  0  0  0  0
  -21.6909   -6.9715   21.5991 O   0  0  0  0  0  0  0  0  0  0  0  0
  -25.6413   -9.5493   29.4756 O   0  0  0  0  0  0  0  0  0  1  0  0
  -18.1010   -6.8998   25.7838 F   0  0  0  0  0  0  0  0  0  0  0  0
  -21.9398   -5.1344   23.6500 F   0  0  0  0  0  0  0  0  0  0  0  0
  1  2  1  0  0  0  0
  1  5  2  0  0  0  0
  2  6  2  0  0  0  0
  3 12  2  0  0  0  0
  3 19  1  0  0  0  0
  4 13  1  0  0  0  0
  4 19  2  0  0  0  0
  5 21  1  0  0  0  0
  6 23  1  0  0  0  0
  7 14  2  0  0  0  0
  7 22  1  0  0  0  0
  8 10  2  0  0  0  0
  8 25  1  0  0  0  0
  9 11  1  0  0  0  0
  9 25  2  0  0  0  0
 10 26  1  0  0  0  0
 11 26  2  0  0  0  0
 12 27  1  0  0  0  0
 13 27  2  0  0  0  0
 14 28  1  0  0  0  0
 15 16  2  0  0  0  0
 15 29  1  0  0  0  0
 16 30  1  0  0  0  0
 17 24  1  0  0  0  0
 17 28  2  0  0  0  0
 18 30  2  0  0  0  0
 18 31  1  0  0  0  0
 19 32  1  0  0  0  0
 20 32  1  0  0  0  0
 20 33  2  0  0  0  0
 20 34  1  0  0  0  0
 21 23  2  0  0  0  0
 21 39  1  0  0  0  0
 22 24  2  0  0  0  0
 22 40  1  0  0  0  0
 23 48  1  0  0  0  0
 24 41  1  0  0  0  0
 25 58  1  0  0  0  0
 26 73  1  0  0  0  0
 27 81  1  0  0  0  0
 28 82  1  0  0  0  0
 29 31  2  0  0  0  0
 29 81  1  0  0  0  0
 30 83  1  0  0  0  0
 31 84  1  0  0  0  0
 32 65  2  0  0  0  0
 33 66  1  0  0  0  0
 33 69  1  0  0  0  0
 34 70  1  0  0  0  0
 34 76  2  0  0  0  0
 35 49  1  0  0  0  0
 35 71  1  0  0  0  0
 35 77  2  0  0  0  0
 36 62  1  0  0  0  0
 36 67  1  0  0  0  0
 36 78  2  0  0  0  0
 37 63  1  0  0  0  0
 37 72  1  0  0  0  0
 37 79  2  0  0  0  0
 38 68  1  0  0  0  0
 38 74  1  0  0  0  0
 38 80  2  0  0  0  0
 39 42  1  0  0  0  0
 40 49  1  0  0  0  0
 41 67  1  0  0  0  0
 42 44  1  0  0  0  0
 43 45  1  0  0  0  0
 43 46  1  0  0  0  0
 44 48  1  0  0  0  0
 45 50  1  0  0  0  0
 46 68  1  0  0  0  0
 47 50  1  0  0  0  0
 47 68  1  0  0  0  0
 48 71  1  0  0  0  0
 49 67  1  0  0  0  0
 50 66  1  0  0  0  0
 51 63  1  0  0  0  0
 52 64  1  0  0  0  0
 53 64  1  0  0  0  0
 54 64  1  0  0  0  0
 55 73  1  0  0  0  0
 56 74  1  0  0  0  0
 57 75  1  0  0  0  0
 58 74  1  0  0  0  0
 59 60  1  0  0  0  0
 59 61  1  0  0  0  0
 60 73  1  0  0  0  0
 61 82  1  0  0  0  0
 62 64  1  0  0  0  0
 62 72  1  0  0  0  0
 63 75  1  0  0  0  0
 65 66  1  0  0  0  0
M  CHG  1  75   1
M  ISO  4  38 100  61 101  74 100  82 101
M  END
> <Batch ID>
0017

> <Smiles>
CNC(C)C(=O)NC(C(=O)N1Cc2cc([101O:1][101CH2:1]CCN(C)c3ccc(C[100N:0](C)[100C:0](=O)N4CCCC(n5nc(-c6ccc(Oc7ccc(F)cc7F)cc6)c(C(N)=O)c5N)C4)cc3)ccc2CC1C(=O)NC1CCCc2ccccc21)C(C)(C)C

> <Shape>
0.132

> <Color>
0.185

> <Negative vol penalty>
0.000

$$$$

  -OEChem-04042321003D

 86 95  0     1  0  0  0  0  0999 V2000
  -28.5703  -35.5755   27.4077 C   0  0  0  0  0  0  0  0  0  0  0  0
  -28.9758  -34.4607   26.6809 C   0  0  0  0  0  0  0  0  0  0  0  0
  -23.6011   -9.7623   22.3007 C   0  0  0  0  0  0  0  0  0  0  0  0
  -24.8620   -8.0927   21.0926 C   0  0  0  0  0  0  0  0  0  0  0  0
  -27.2127  -35.8644   27.5392 C   0  0  0  0  0  0  0  0  0  0  0  0
  -28.0238  -33.6335   26.0862 C   0  0  0  0  0  0  0  0  0  0  0  0
  -28.5556  -30.6368   20.7717 C   0  0  0  0  0  0  0  0  0  0  0  0
  -30.2918  -23.6445   17.8697 C   0  0  0  0  0  0  0  0  0  0  0  0
  -29.6594  -22.9918   20.1082 C   0  0  0  0  0  0  0  0  0  0  0  0
  -30.1392  -24.9865   18.2178 C   0  0  0  0  0  0  0  0  0  0  0  0
  -29.5068  -24.3338   20.4564 C   0  0  0  0  0  0  0  0  0  0  0  0
  -22.4333   -9.0269   22.0981 C   0  0  0  0  0  0  0  0  0  0  0  0
  -23.6942   -7.3572   20.8901 C   0  0  0  0  0  0  0  0  0  0  0  0
  -28.8860  -29.3168   20.4682 C   0  0  0  0  0  0  0  0  0  0  0  0
  -21.1046   -4.8598   20.3656 C   0  0  0  0  0  0  0  0  0  0  0  0
  -21.1595   -3.4825   20.5790 C   0  0  0  0  0  0  0  0  0  0  0  0
  -26.5410  -28.7669   20.3349 C   0  0  0  0  0  0  0  0  0  0  0  0
  -21.7972   -3.8640   22.8779 C   0  0  0  0  0  0  0  0  0  0  0  0
  -24.8155   -9.2952   21.7979 C   0  0  0  0  0  0  0  0  0  0  0  0
  -26.9174   -9.9483   23.0875 C   0  0  0  0  0  0  0  0  0  0  0  0
  -26.2439  -35.0457   26.9376 C   0  0  0  0  0  0  0  0  0  0  0  0
  -27.2132  -31.0300   20.8700 C   0  0  0  0  0  0  0  0  0  0  0  0
  -26.6519  -33.9109   26.2109 C   0  0  0  0  0  0  0  0  0  0  0  0
  -26.1962  -30.0931   20.6373 C   0  0  0  0  0  0  0  0  0  0  0  0
  -30.0519  -22.6471   18.8148 C   0  0  0  0  0  0  0  0  0  0  0  0
  -29.7467  -25.3312   19.5112 C   0  0  0  0  0  0  0  0  0  0  0  0
  -22.4798   -7.8244   21.3928 C   0  0  0  0  0  0  0  0  0  0  0  0
  -27.8787  -28.3809   20.2526 C   0  0  0  0  0  0  0  0  0  0  0  0
  -21.3962   -5.7393   21.4084 C   0  0  0  0  0  0  0  0  0  0  0  0
  -21.5057   -2.9846   21.8351 C   0  0  0  0  0  0  0  0  0  0  0  0
  -21.7424   -5.2414   22.6645 C   0  0  0  0  0  0  0  0  0  0  0  0
  -26.0221  -10.0547   22.0063 C   0  0  0  0  0  0  0  0  0  0  0  0
  -27.8922  -10.8778   22.8187 C   0  0  0  0  0  0  0  0  0  0  0  0
  -26.8720   -9.0863   24.2323 C   0  0  0  0  0  0  0  0  0  0  0  0
  -25.3836  -32.2040   23.1892 C   0  0  0  0  0  0  0  0  0  0  0  0
  -23.2023  -32.4673   20.8028 C   0  0  0  0  0  0  0  0  0  0  0  0
  -22.1018  -31.4024   17.7529 C   0  0  0  0  0  0  0  0  0  0  0  0
  -27.5473  -15.8225   19.3625 C   0  0  0  0  0  0  0  0  0  0  0  0
  -24.7863  -35.3718   27.1472 C   0  0  0  0  0  0  0  0  0  0  0  0
  -26.8734  -32.4638   21.1719 C   0  0  0  0  0  0  0  0  0  0  0  0
  -24.7396  -30.4690   20.7110 C   0  0  0  0  0  0  0  0  0  0  0  0
  -23.8557  -34.6556   26.1719 C   0  0  0  0  0  0  0  0  0  0  0  0
  -30.0566  -13.0977   19.1781 C   0  0  0  0  0  0  0  0  0  0  0  0
  -24.2250  -33.1792   26.0681 C   0  0  0  0  0  0  0  0  0  0  0  0
  -29.3481  -11.9845   19.9513 C   0  0  0  0  0  0  0  0  0  0  0  0
  -30.2116  -18.3423   19.1098 C   0  0  0  0  0  0  0  0  0  0  0  0
  -29.0501  -13.9944   18.4690 C   0  0  0  0  0  0  0  0  0  0  0  0
  -29.8646  -16.8605   19.0059 C   0  0  0  0  0  0  0  0  0  0  0  0
  -27.3126  -13.4931   20.1443 C   0  0  0  0  0  0  0  0  0  0  0  0
  -27.8821  -18.1689   18.6354 C   0  0  0  0  0  0  0  0  0  0  0  0
  -25.6502  -33.0035   25.5302 C   0  0  1  0  0  0  0  0  0  0  0  0
  -25.4734  -32.6365   21.7530 C   0  0  1  0  0  0  0  0  0  0  0  0
  -28.2763  -12.5580   20.8962 C   0  0  1  0  0  0  0  0  0  0  0  0
  -29.1136  -18.9771   18.2696 C   0  0  1  0  0  0  0  0  0  0  0  0
  -28.0907  -20.9859   16.3579 C   0  0  0  0  0  0  0  0  0  0  0  0
  -20.2716  -31.7785   16.0778 C   0  0  0  0  0  0  0  0  0  0  0  0
  -21.2691  -30.8979   22.5662 C   0  0  0  0  0  0  0  0  0  0  0  0
  -19.8601  -30.4889   20.5375 C   0  0  0  0  0  0  0  0  0  0  0  0
  -20.2385  -32.8197   21.3419 C   0  0  0  0  0  0  0  0  0  0  0  0
  -24.0253  -32.2445   15.6673 C   0  0  0  0  0  0  0  0  0  0  0  0
  -30.2158  -21.2033   18.4412 C   0  0  0  0  0  0  0  0  0  0  0  0
  -29.5854  -26.7665   19.8832 C   0  0  0  0  0  0  0  0  0  1  0  0
  -27.8036  -21.0514   17.8421 C   0  0  0  0  0  0  0  0  0  0  0  0
  -22.1331  -31.5699   20.2279 C   0  0  1  0  0  0  0  0  0  0  0  0
  -21.6762  -32.1670   16.5125 C   0  0  2  0  0  0  0  0  0  0  0  0
  -20.9025  -31.4363   21.1688 C   0  0  0  0  0  0  0  0  0  0  0  0
  -26.3949  -10.9789   21.1171 N   0  0  0  0  0  0  0  0  0  0  0  0
  -27.5353  -11.4619   21.6390 N   0  0  0  0  0  0  0  0  0  0  0  0
  -24.4583  -31.8816   21.0155 N   0  0  0  0  0  0  0  0  0  0  0  0
  -28.0541  -14.5188   19.4075 N   0  0  0  0  0  0  0  0  0  0  0  0
  -28.4008  -16.8316   18.9187 N   0  0  0  0  0  0  0  0  0  0  0  0
  -29.0113  -11.2443   23.4788 N   0  0  0  0  0  0  0  0  0  0  0  0
  -25.8003   -8.1911   24.3525 N   0  0  0  0  0  0  0  0  0  0  0  0
  -25.6777  -33.2033   24.0971 N   0  0  0  0  0  0  0  0  0  0  0  0
  -21.8198  -32.1031   18.9065 N   0  0  0  0  0  0  0  0  0  0  0  0
  -22.6109  -31.8878   15.3858 N   0  3  0  0  0  0  0  0  0  0  0  0
  -28.9418  -20.4015   18.5991 N   0  3  1  0  0  0  0  0  0  0  0  0
  -27.7469   -9.1208   25.1306 O   0  0  0  0  0  0  0  0  0  0  0  0
  -25.0694  -31.0495   23.4539 O   0  0  0  0  0  0  0  0  0  0  0  0
  -22.9349  -33.6465   21.0474 O   0  0  0  0  0  0  0  0  0  0  0  0
  -22.6282  -30.2929   17.7037 O   0  0  0  0  0  0  0  0  0  0  0  0
  -26.3995  -16.0815   19.7477 O   0  0  0  0  0  0  0  0  0  0  0  0
  -21.3405   -7.1064   21.1952 O   0  0  0  0  0  0  0  0  0  0  0  0
  -28.2006  -27.0828   19.9548 O   0  0  0  0  0  0  0  0  0  1  0  0
  -21.5568   -1.6619   22.0403 F   0  0  0  0  0  0  0  0  0  0  0  0
  -22.0224   -6.0813   23.6704 F   0  0  0  0  0  0  0  0  0  0  0  0
  1  2  1  0  0  0  0
  1  5  2  0  0  0  0
  2  6  2  0  0  0  0
  3 12  2  0  0  0  0
  3 19  1  0  0  0  0
  4 13  1  0  0  0  0
  4 19  2  0  0  0  0
  5 21  1  0  0  0  0
  6 23  1  0  0  0  0
  7 14  2  0  0  0  0
  7 22  1  0  0  0  0
  8 10  2  0  0  0  0
  8 25  1  0  0  0  0
  9 11  1  0  0  0  0
  9 25  2  0  0  0  0
 10 26  1  0  0  0  0
 11 26  2  0  0  0  0
 12 27  1  0  0  0  0
 13 27  2  0  0  0  0
 14 28  1  0  0  0  0
 15 16  2  0  0  0  0
 15 29  1  0  0  0  0
 16 30  1  0  0  0  0
 17 24  1  0  0  0  0
 17 28  2  0  0  0  0
 18 30  2  0  0  0  0
 18 31  1  0  0  0  0
 19 32  1  0  0  0  0
 20 32  1  0  0  0  0
 20 33  2  0  0  0  0
 20 34  1  0  0  0  0
 21 23  2  0  0  0  0
 21 39  1  0  0  0  0
 22 24  2  0  0  0  0
 22 40  1  0  0  0  0
 23 51  1  0  0  0  0
 24 41  1  0  0  0  0
 25 61  1  0  0  0  0
 26 62  1  0  0  0  0
 27 83  1  0  0  0  0
 28 84  1  0  0  0  0
 29 31  2  0  0  0  0
 29 83  1  0  0  0  0
 30 85  1  0  0  0  0
 31 86  1  0  0  0  0
 32 67  2  0  0  0  0
 33 68  1  0  0  0  0
 33 72  1  0  0  0  0
 34 73  1  0  0  0  0
 34 78  2  0  0  0  0
 35 52  1  0  0  0  0
 35 74  1  0  0  0  0
 35 79  2  0  0  0  0
 36 64  1  0  0  0  0
 36 69  1  0  0  0  0
 36 80  2  0  0  0  0
 37 65  1  0  0  0  0
 37 75  1  0  0  0  0
 37 81  2  0  0  0  0
 38 70  1  0  0  0  0
 38 71  1  0  0  0  0
 38 82  2  0  0  0  0
 39 42  1  0  0  0  0
 40 52  1  0  0  0  0
 41 69  1  0  0  0  0
 42 44  1  0  0  0  0
 43 45  1  0  0  0  0
 43 47  1  0  0  0  0
 44 51  1  0  0  0  0
 45 53  1  0  0  0  0
 46 48  1  0  0  0  0
 46 54  1  0  0  0  0
 47 70  1  0  0  0  0
 48 71  1  0  0  0  0
 49 53  1  0  0  0  0
 49 70  1  0  0  0  0
 50 54  1  0  0  0  0
 50 71  1  0  0  0  0
 51 74  1  0  0  0  0
 52 69  1  0  0  0  0
 53 68  1  0  0  0  0
 54 77  1  0  0  0  0
 55 63  1  0  0  0  0
 56 65  1  0  0  0  0
 57 66  1  0  0  0  0
 58 66  1  0  0  0  0
 59 66  1  0  0  0  0
 60 76  1  0  0  0  0
 61 77  1  0  0  0  0
 62 84  1  0  0  0  0
 63 77  1  0  0  0  0
 64 66  1  0  0  0  0
 64 75  1  0  0  0  0
 65 76  1  0  0  0  0
 67 68  1  0  0  0  0
M  CHG  2  76   1  77   1
M  ISO  4  38 100  62 101  71 100  84 101
M  END
> <Batch ID>
0017

> <Smiles>
CCN(Cc1ccc([101CH2:1][101O:1]c2ccc3c(c2)CN(C(=O)C(NC(=O)C(C)NC)C(C)(C)C)C(C(=O)NC2CCCc4ccccc42)C3)cc1)C1CC[100N:0]([100C:0](=O)N2CCCC(n3nc(-c4ccc(Oc5ccc(F)cc5F)cc4)c(C(N)=O)c3N)C2)C1

> <Shape>
0.278

> <Color>
0.076

> <Negative vol penalty>
0.000

$$$$

  -OEChem-04042321003D

 82 90  0     1  0  0  0  0  0999 V2000
  -35.9187  -30.2920   22.8748 C   0  0  0  0  0  0  0  0  0  0  0  0
  -34.8692  -29.4480   23.2234 C   0  0  0  0  0  0  0  0  0  0  0  0
  -23.2830   -9.7788   19.8993 C   0  0  0  0  0  0  0  0  0  0  0  0
  -23.7041   -9.9126   22.2746 C   0  0  0  0  0  0  0  0  0  0  0  0
  -36.1181  -30.6397   21.5394 C   0  0  0  0  0  0  0  0  0  0  0  0
  -34.0177  -28.9520   22.2368 C   0  0  0  0  0  0  0  0  0  0  0  0
  -31.3354  -23.4478   22.1156 C   0  0  0  0  0  0  0  0  0  0  0  0
  -27.2634  -18.1696   19.2566 C   0  0  0  0  0  0  0  0  0  0  0  0
  -29.2221  -17.4422   20.4697 C   0  0  0  0  0  0  0  0  0  0  0  0
  -27.6144  -17.3395   18.1920 C   0  0  0  0  0  0  0  0  0  0  0  0
  -29.5731  -16.6121   19.4051 C   0  0  0  0  0  0  0  0  0  0  0  0
  -22.5496   -8.6086   20.0953 C   0  0  0  0  0  0  0  0  0  0  0  0
  -22.9706   -8.7425   22.4706 C   0  0  0  0  0  0  0  0  0  0  0  0
  -30.0550  -23.0204   22.4645 C   0  0  0  0  0  0  0  0  0  0  0  0
  -19.7177   -7.8434   22.6446 C   0  0  0  0  0  0  0  0  0  0  0  0
  -18.8018   -7.8229   23.6964 C   0  0  0  0  0  0  0  0  0  0  0  0
  -29.3722  -23.2024   20.1581 C   0  0  0  0  0  0  0  0  0  0  0  0
  -19.9878   -5.9690   24.6931 C   0  0  0  0  0  0  0  0  0  0  0  0
  -23.8603  -10.4308   20.9890 C   0  0  0  0  0  0  0  0  0  0  0  0
  -24.1318  -12.9602   20.7992 C   0  0  0  0  0  0  0  0  0  0  0  0
  -35.2744  -30.1400   20.5348 C   0  0  0  0  0  0  0  0  0  0  0  0
  -31.6413  -23.7667   20.7847 C   0  0  0  0  0  0  0  0  0  0  0  0
  -34.2051  -29.2944   20.8869 C   0  0  0  0  0  0  0  0  0  0  0  0
  -30.6579  -23.6312   19.7944 C   0  0  0  0  0  0  0  0  0  0  0  0
  -28.0673  -18.2210   20.3954 C   0  0  0  0  0  0  0  0  0  0  0  0
  -28.7692  -16.5608   18.2662 C   0  0  0  0  0  0  0  0  0  0  0  0
  -22.3934   -8.0905   21.3809 C   0  0  0  0  0  0  0  0  0  0  0  0
  -29.0724  -22.9004   21.4862 C   0  0  0  0  0  0  0  0  0  0  0  0
  -20.7686   -6.9266   22.6170 C   0  0  0  0  0  0  0  0  0  0  0  0
  -18.9368   -6.8858   24.7207 C   0  0  0  0  0  0  0  0  0  0  0  0
  -20.9037   -5.9895   23.6413 C   0  0  0  0  0  0  0  0  0  0  0  0
  -24.6185  -11.6393   20.7871 C   0  0  0  0  0  0  0  0  0  0  0  0
  -25.2394  -13.7364   20.5599 C   0  0  0  0  0  0  0  0  0  0  0  0
  -22.7979  -13.4424   21.0080 C   0  0  0  0  0  0  0  0  0  0  0  0
  -32.5821  -26.3967   19.2676 C   0  0  0  0  0  0  0  0  0  0  0  0
  -32.8356  -24.3790   16.7404 C   0  0  0  0  0  0  0  0  0  0  0  0
  -31.8642  -21.4670   15.2492 C   0  0  0  0  0  0  0  0  0  0  0  0
  -29.8419  -14.4971   17.3270 C   0  0  0  0  0  0  0  0  0  0  0  0
  -35.5008  -30.5817   19.1106 C   0  0  0  0  0  0  0  0  0  0  0  0
  -33.0346  -24.2007   20.4204 C   0  0  0  0  0  0  0  0  0  0  0  0
  -30.9410  -23.9416   18.3481 C   0  0  0  0  0  0  0  0  0  0  0  0
  -34.7807  -29.7136   18.0819 C   0  0  0  0  0  0  0  0  0  0  0  0
  -30.1536  -12.5912   20.4835 C   0  0  0  0  0  0  0  0  0  0  0  0
  -33.3366  -29.4684   18.5076 C   0  0  0  0  0  0  0  0  0  0  0  0
  -28.7071  -12.2120   20.7951 C   0  0  0  0  0  0  0  0  0  0  0  0
  -30.3888  -12.7432   18.9837 C   0  0  0  0  0  0  0  0  0  0  0  0
  -28.0056  -13.3300   18.6412 C   0  0  0  0  0  0  0  0  0  0  0  0
  -33.2750  -28.7162   19.8425 C   0  0  1  0  0  0  0  0  0  0  0  0
  -33.0924  -24.9915   19.1170 C   0  0  1  0  0  0  0  0  0  0  0  0
  -27.7331  -13.2105   20.1481 C   0  0  1  0  0  0  0  0  0  0  0  0
  -32.2147  -20.1061   13.1701 C   0  0  0  0  0  0  0  0  0  0  0  0
  -31.0639  -26.3116   15.1797 C   0  0  0  0  0  0  0  0  0  0  0  0
  -30.6754  -24.4926   13.5039 C   0  0  0  0  0  0  0  0  0  0  0  0
  -32.9804  -25.3701   13.8777 C   0  0  0  0  0  0  0  0  0  0  0  0
  -28.9863  -16.2287   15.8100 C   0  0  0  0  0  0  0  0  0  0  0  0
  -32.9268  -19.1741   16.7896 C   0  0  0  0  0  0  0  0  0  0  0  0
  -26.4843  -20.7142   22.7397 C   0  0  0  0  0  0  0  0  0  0  0  0
  -26.5462  -19.8870   21.4613 C   0  0  0  0  0  0  0  0  0  0  0  0
  -27.7108  -21.5974   22.9368 C   0  0  0  0  0  0  0  0  0  1  0  0
  -31.9060  -23.9157   15.6448 C   0  0  1  0  0  0  0  0  0  0  0  0
  -32.6644  -20.3510   14.6021 C   0  0  2  0  0  0  0  0  0  0  0  0
  -31.6502  -25.0184   14.5790 C   0  0  0  0  0  0  0  0  0  0  0  0
  -25.9329  -11.5761   20.5582 N   0  0  0  0  0  0  0  0  0  0  0  0
  -26.2815  -12.8670   20.4240 N   0  0  0  0  0  0  0  0  0  0  0  0
  -32.3166  -24.3683   18.0429 N   0  0  0  0  0  0  0  0  0  0  0  0
  -29.4168  -13.6500   18.3710 N   0  0  0  0  0  0  0  0  0  0  0  0
  -25.4138  -15.0709   20.4545 N   0  0  0  0  0  0  0  0  0  0  0  0
  -21.7787  -12.5089   21.2406 N   0  0  0  0  0  0  0  0  0  0  0  0
  -27.7196  -19.0472   21.4527 N   0  0  0  0  0  0  0  0  0  0  0  0
  -33.5494  -27.3093   19.6430 N   0  0  0  0  0  0  0  0  0  0  0  0
  -32.4865  -22.6894   15.1084 N   0  0  0  0  0  0  0  0  0  0  0  0
  -29.1322  -15.7023   17.1653 N   0  0  0  0  0  0  0  0  0  0  0  0
  -32.5003  -19.0839   15.3694 N   0  3  0  0  0  0  0  0  0  0  0  0
  -22.5151  -14.6640   20.9727 O   0  0  0  0  0  0  0  0  0  0  0  0
  -31.3987  -26.6355   19.0573 O   0  0  0  0  0  0  0  0  0  0  0  0
  -33.9823  -24.7304   16.4521 O   0  0  0  0  0  0  0  0  0  0  0  0
  -30.7925  -21.2743   15.8190 O   0  0  0  0  0  0  0  0  0  0  0  0
  -30.7549  -14.1777   16.5557 O   0  0  0  0  0  0  0  0  0  0  0  0
  -21.6776   -6.9488   21.5725 O   0  0  0  0  0  0  0  0  0  0  0  0
  -27.8217  -22.4841   21.8242 O   0  0  0  0  0  0  0  0  0  1  0  0
  -18.0581   -6.8672   25.7315 F   0  0  0  0  0  0  0  0  0  0  0  0
  -21.9120   -5.1070   23.6208 F   0  0  0  0  0  0  0  0  0  0  0  0
  1  2  1  0  0  0  0
  1  5  2  0  0  0  0
  2  6  2  0  0  0  0
  3 12  2  0  0  0  0
  3 19  1  0  0  0  0
  4 13  1  0  0  0  0
  4 19  2  0  0  0  0
  5 21  1  0  0  0  0
  6 23  1  0  0  0  0
  7 14  2  0  0  0  0
  7 22  1  0  0  0  0
  8 10  2  0  0  0  0
  8 25  1  0  0  0  0
  9 11  1  0  0  0  0
  9 25  2  0  0  0  0
 10 26  1  0  0  0  0
 11 26  2  0  0  0  0
 12 27  1  0  0  0  0
 13 27  2  0  0  0  0
 14 28  1  0  0  0  0
 15 16  2  0  0  0  0
 15 29  1  0  0  0  0
 16 30  1  0  0  0  0
 17 24  1  0  0  0  0
 17 28  2  0  0  0  0
 18 30  2  0  0  0  0
 18 31  1  0  0  0  0
 19 32  1  0  0  0  0
 20 32  1  0  0  0  0
 20 33  2  0  0  0  0
 20 34  1  0  0  0  0
 21 23  2  0  0  0  0
 21 39  1  0  0  0  0
 22 24  2  0  0  0  0
 22 40  1  0  0  0  0
 23 48  1  0  0  0  0
 24 41  1  0  0  0  0
 25 69  1  0  0  0  0
 26 72  1  0  0  0  0
 27 79  1  0  0  0  0
 28 80  1  0  0  0  0
 29 31  2  0  0  0  0
 29 79  1  0  0  0  0
 30 81  1  0  0  0  0
 31 82  1  0  0  0  0
 32 63  2  0  0  0  0
 33 64  1  0  0  0  0
 33 67  1  0  0  0  0
 34 68  1  0  0  0  0
 34 74  2  0  0  0  0
 35 49  1  0  0  0  0
 35 70  1  0  0  0  0
 35 75  2  0  0  0  0
 36 60  1  0  0  0  0
 36 65  1  0  0  0  0
 36 76  2  0  0  0  0
 37 61  1  0  0  0  0
 37 71  1  0  0  0  0
 37 77  2  0  0  0  0
 38 66  1  0  0  0  0
 38 72  1  0  0  0  0
 38 78  2  0  0  0  0
 39 42  1  0  0  0  0
 40 49  1  0  0  0  0
 41 65  1  0  0  0  0
 42 44  1  0  0  0  0
 43 45  1  0  0  0  0
 43 46  1  0  0  0  0
 44 48  1  0  0  0  0
 45 50  1  0  0  0  0
 46 66  1  0  0  0  0
 47 50  1  0  0  0  0
 47 66  1  0  0  0  0
 48 70  1  0  0  0  0
 49 65  1  0  0  0  0
 50 64  1  0  0  0  0
 51 61  1  0  0  0  0
 52 62  1  0  0  0  0
 53 62  1  0  0  0  0
 54 62  1  0  0  0  0
 55 72  1  0  0  0  0
 56 73  1  0  0  0  0
 57 58  1  0  0  0  0
 57 59  1  0  0  0  0
 58 69  1  0  0  0  0
 59 80  1  0  0  0  0
 60 62  1  0  0  0  0
 60 71  1  0  0  0  0
 61 73  1  0  0  0  0
 63 64  1  0  0  0  0
M  CHG  1  73   1
M  ISO  4  38 100  59 101  72 100  80 101
M  END
> <Batch ID>
0017

> <Smiles>
CNC(C)C(=O)NC(C(=O)N1Cc2cc([101O:1][101CH2:1]CCNc3ccc([100N:0](C)[100C:0](=O)N4CCCC(n5nc(-c6ccc(Oc7ccc(F)cc7F)cc6)c(C(N)=O)c5N)C4)cc3)ccc2CC1C(=O)NC1CCCc2ccccc21)C(C)(C)C

> <Shape>
0.203

> <Color>
0.183

> <Negative vol penalty>
0.000

$$$$

  -OEChem-04042321003D

 83 91  0     1  0  0  0  0  0999 V2000
  -16.9440  -27.8233   22.0000 C   0  0  0  0  0  0  0  0  0  0  0  0
  -18.0622  -27.8531   21.1728 C   0  0  0  0  0  0  0  0  0  0  0  0
  -27.6998  -17.6037   19.5495 C   0  0  0  0  0  0  0  0  0  0  0  0
  -28.1819  -18.0259   21.8789 C   0  0  0  0  0  0  0  0  0  0  0  0
  -17.0656  -28.1622   23.3470 C   0  0  0  0  0  0  0  0  0  0  0  0
  -19.3025  -28.2229   21.6920 C   0  0  0  0  0  0  0  0  0  0  0  0
  -23.0392  -25.1683   20.1586 C   0  0  0  0  0  0  0  0  0  0  0  0
  -28.2765  -23.8979   14.7470 C   0  0  0  0  0  0  0  0  0  0  0  0
  -29.4731  -23.1937   14.8798 C   0  0  0  0  0  0  0  0  0  0  0  0
  -27.6547  -16.2336   19.8071 C   0  0  0  0  0  0  0  0  0  0  0  0
  -28.1368  -16.6558   22.1366 C   0  0  0  0  0  0  0  0  0  0  0  0
  -23.5300  -25.3610   18.8680 C   0  0  0  0  0  0  0  0  0  0  0  0
  -27.7686  -12.5991   19.7835 C   0  0  0  0  0  0  0  0  0  0  0  0
  -28.4272  -11.7486   18.8954 C   0  0  0  0  0  0  0  0  0  0  0  0
  -25.4016  -26.5872   19.7694 C   0  0  0  0  0  0  0  0  0  0  0  0
  -29.1933  -25.7043   16.0634 C   0  0  0  0  0  0  0  0  0  0  0  0
  -30.5170  -12.8594   19.3815 C   0  0  0  0  0  0  0  0  0  0  0  0
  -27.9635  -18.4999   20.5854 C   0  0  0  0  0  0  0  0  0  0  0  0
  -26.9396  -20.8271   20.3764 C   0  0  0  0  0  0  0  0  0  0  0  0
  -18.3098  -28.5270   23.8851 C   0  0  0  0  0  0  0  0  0  0  0  0
  -23.7213  -25.6938   21.2654 C   0  0  0  0  0  0  0  0  0  0  0  0
  -19.4405  -28.5683   23.0471 C   0  0  0  0  0  0  0  0  0  0  0  0
  -24.9187  -26.3976   21.0732 C   0  0  0  0  0  0  0  0  0  0  0  0
  -28.1365  -25.1532   15.3387 C   0  0  0  0  0  0  0  0  0  0  0  0
  -30.5299  -23.7448   15.6045 C   0  0  0  0  0  0  0  0  0  0  0  0
  -27.8732  -15.7596   21.1006 C   0  0  0  0  0  0  0  0  0  0  0  0
  -24.7099  -26.0730   18.6730 C   0  0  0  0  0  0  0  0  0  0  0  0
  -28.4842  -13.5798   20.4705 C   0  0  0  0  0  0  0  0  0  0  0  0
  -29.8014  -11.8788   18.6945 C   0  0  0  0  0  0  0  0  0  0  0  0
  -30.3900  -25.0001   16.1963 C   0  0  0  0  0  0  0  0  0  0  0  0
  -29.8583  -13.7099   20.2695 C   0  0  0  0  0  0  0  0  0  0  0  0
  -28.0107  -19.9153   20.3198 C   0  0  0  0  0  0  0  0  0  0  0  0
  -27.4997  -22.0359   20.0423 C   0  0  0  0  0  0  0  0  0  0  0  0
  -25.5617  -20.6015   20.7020 C   0  0  0  0  0  0  0  0  0  0  0  0
  -23.0246  -27.8115   23.5312 C   0  0  0  0  0  0  0  0  0  0  0  0
  -25.8823  -26.8710   24.7442 C   0  0  0  0  0  0  0  0  0  0  0  0
  -28.9578  -25.5017   24.1847 C   0  0  0  0  0  0  0  0  0  0  0  0
  -32.6129  -23.1297   16.8591 C   0  0  0  0  0  0  0  0  0  0  0  0
  -18.3828  -28.9307   25.3364 C   0  0  0  0  0  0  0  0  0  0  0  0
  -23.1928  -25.4543   22.6531 C   0  0  0  0  0  0  0  0  0  0  0  0
  -25.6995  -26.9648   22.2296 C   0  0  0  0  0  0  0  0  0  0  0  0
  -19.8043  -28.9493   25.8927 C   0  0  0  0  0  0  0  0  0  0  0  0
  -31.6279  -24.4417   20.1760 C   0  0  0  0  0  0  0  0  0  0  0  0
  -20.7454  -29.6647   24.9287 C   0  0  0  0  0  0  0  0  0  0  0  0
  -30.5546  -23.4527   20.6269 C   0  0  0  0  0  0  0  0  0  0  0  0
  -32.6437  -23.7889   19.2434 C   0  0  0  0  0  0  0  0  0  0  0  0
  -30.9476  -22.1399   18.5047 C   0  0  0  0  0  0  0  0  0  0  0  0
  -20.8077  -28.9402   23.5787 C   0  0  1  0  0  0  0  0  0  0  0  0
  -23.6969  -26.4748   23.6689 C   0  0  1  0  0  0  0  0  0  0  0  0
  -29.8892  -22.7835   19.4130 C   0  0  1  0  0  0  0  0  0  0  0  0
  -31.2223  -24.5643   24.7238 C   0  0  0  0  0  0  0  0  0  0  0  0
  -26.6880  -29.8136   24.7943 C   0  0  0  0  0  0  0  0  0  0  0  0
  -29.0690  -29.0852   25.0564 C   0  0  0  0  0  0  0  0  0  0  0  0
  -27.3893  -28.5055   26.8072 C   0  0  0  0  0  0  0  0  0  0  0  0
  -32.2875  -22.3258   14.5614 C   0  0  0  0  0  0  0  0  0  0  0  0
  -25.8250  -25.2847   14.4445 C   0  0  0  0  0  0  0  0  0  0  0  0
  -27.8711  -22.7720   24.5406 C   0  0  0  0  0  0  0  0  0  0  0  0
  -26.7522  -27.1572   15.8165 C   0  0  0  0  0  0  0  0  0  0  0  0
  -26.4050  -27.0022   17.2877 C   0  0  0  0  0  0  0  0  0  1  0  0
  -27.3144  -27.3183   24.5762 C   0  0  1  0  0  0  0  0  0  0  0  0
  -29.7211  -24.4088   24.9109 C   0  0  2  0  0  0  0  0  0  0  0  0
  -27.5996  -28.6718   25.2864 C   0  0  0  0  0  0  0  0  0  0  0  0
  -29.1639  -20.4952   19.9766 N   0  0  0  0  0  0  0  0  0  0  0  0
  -28.8207  -21.7844   19.8144 N   0  0  0  0  0  0  0  0  0  0  0  0
  -25.1386  -26.7094   23.5666 N   0  0  0  0  0  0  0  0  0  0  0  0
  -31.9926  -23.1047   18.1251 N   0  0  0  0  0  0  0  0  0  0  0  0
  -26.9862  -23.2787   19.9241 N   0  0  0  0  0  0  0  0  0  0  0  0
  -25.1551  -19.2988   21.0214 N   0  0  0  0  0  0  0  0  0  0  0  0
  -21.6508  -27.7676   23.6728 N   0  0  0  0  0  0  0  0  0  0  0  0
  -28.1446  -26.2127   25.0417 N   0  0  0  0  0  0  0  0  0  0  0  0
  -31.7660  -23.0138   15.7404 N   0  0  0  0  0  0  0  0  0  0  0  0
  -26.9345  -25.8608   15.2047 N   0  0  3  0  0  0  0  0  0  0  0  0
  -29.3199  -23.0683   24.3981 N   0  3  0  0  0  0  0  0  0  0  0  0
  -24.7126  -21.5249   20.6934 O   0  0  0  0  0  0  0  0  0  0  0  0
  -23.7024  -28.8092   23.3141 O   0  0  0  0  0  0  0  0  0  0  0  0
  -25.4420  -26.6655   25.8780 O   0  0  0  0  0  0  0  0  0  0  0  0
  -29.0744  -25.7068   22.9785 O   0  0  0  0  0  0  0  0  0  0  0  0
  -33.8420  -23.1947   16.7338 O   0  0  0  0  0  0  0  0  0  0  0  0
  -27.8290  -14.4228   21.3524 O   0  0  0  0  0  0  0  0  0  0  0  0
  -25.1908  -26.2631   17.4143 O   0  0  0  0  0  0  0  0  0  1  0  0
  -30.4340  -11.0611   17.8428 F   0  0  0  0  0  0  0  0  0  0  0  0
  -31.3991  -25.5391   16.8954 F   0  0  0  0  0  0  0  0  0  0  0  0
  -30.5513  -14.6494   20.9276 F   0  0  0  0  0  0  0  0  0  0  0  0
  1  2  1  0  0  0  0
  1  5  2  0  0  0  0
  2  6  2  0  0  0  0
  3 10  2  0  0  0  0
  3 18  1  0  0  0  0
  4 11  1  0  0  0  0
  4 18  2  0  0  0  0
  5 20  1  0  0  0  0
  6 22  1  0  0  0  0
  7 12  2  0  0  0  0
  7 21  1  0  0  0  0
  8  9  2  0  0  0  0
  8 24  1  0  0  0  0
  9 25  1  0  0  0  0
 10 26  1  0  0  0  0
 11 26  2  0  0  0  0
 12 27  1  0  0  0  0
 13 14  2  0  0  0  0
 13 28  1  0  0  0  0
 14 29  1  0  0  0  0
 15 23  1  0  0  0  0
 15 27  2  0  0  0  0
 16 24  2  0  0  0  0
 16 30  1  0  0  0  0
 17 29  2  0  0  0  0
 17 31  1  0  0  0  0
 18 32  1  0  0  0  0
 19 32  1  0  0  0  0
 19 33  2  0  0  0  0
 19 34  1  0  0  0  0
 20 22  2  0  0  0  0
 20 39  1  0  0  0  0
 21 23  2  0  0  0  0
 21 40  1  0  0  0  0
 22 48  1  0  0  0  0
 23 41  1  0  0  0  0
 24 72  1  0  0  0  0
 25 30  2  0  0  0  0
 25 71  1  0  0  0  0
 26 79  1  0  0  0  0
 27 80  1  0  0  0  0
 28 31  2  0  0  0  0
 28 79  1  0  0  0  0
 29 81  1  0  0  0  0
 30 82  1  0  0  0  0
 31 83  1  0  0  0  0
 32 63  2  0  0  0  0
 33 64  1  0  0  0  0
 33 67  1  0  0  0  0
 34 68  1  0  0  0  0
 34 74  2  0  0  0  0
 35 49  1  0  0  0  0
 35 69  1  0  0  0  0
 35 75  2  0  0  0  0
 36 60  1  0  0  0  0
 36 65  1  0  0  0  0
 36 76  2  0  0  0  0
 37 61  1  0  0  0  0
 37 70  1  0  0  0  0
 37 77  2  0  0  0  0
 38 66  1  0  0  0  0
 38 71  1  0  0  0  0
 38 78  2  0  0  0  0
 39 42  1  0  0  0  0
 40 49  1  0  0  0  0
 41 65  1  0  0  0  0
 42 44  1  0  0  0  0
 43 45  1  0  0  0  0
 43 46  1  0  0  0  0
 44 48  1  0  0  0  0
 45 50  1  0  0  0  0
 46 66  1  0  0  0  0
 47 50  1  0  0  0  0
 47 66  1  0  0  0  0
 48 69  1  0  0  0  0
 49 65  1  0  0  0  0
 50 64  1  0  0  0  0
 51 61  1  0  0  0  0
 52 62  1  0  0  0  0
 53 62  1  0  0  0  0
 54 62  1  0  0  0  0
 55 71  1  0  0  0  0
 56 72  1  0  0  0  0
 57 73  1  0  0  0  0
 58 59  1  0  0  0  0
 58 72  1  0  0  0  0
 59 80  1  0  0  0  0
 60 62  1  0  0  0  0
 60 70  1  0  0  0  0
 61 73  1  0  0  0  0
 63 64  1  0  0  0  0
M  CHG  1  73   1
M  ISO  4  38 100  59 101  71 100  80 101
M  END
> <Batch ID>
0017

> <Smiles>
CNC(C)C(=O)NC(C(=O)N1Cc2cc([101O:1][101CH2:1]CN(C)c3ccc([100N:0](C)[100C:0](=O)N4CCCC(n5nc(-c6ccc(Oc7ccc(F)cc7F)cc6)c(C(N)=O)c5N)C4)c(F)c3)ccc2CC1C(=O)NC1CCCc2ccccc21)C(C)(C)C

> <Shape>
0.190

> <Color>
0.064

> <Negative vol penalty>
0.000

$$$$

  -OEChem-04042321003D

 84 92  0     1  0  0  0  0  0999 V2000
  -21.5944  -31.2141   13.6997 C   0  0  0  0  0  0  0  0  0  0  0  0
  -22.7359  -30.7233   14.3256 C   0  0  0  0  0  0  0  0  0  0  0  0
  -23.0114   -9.8663   19.9584 C   0  0  0  0  0  0  0  0  0  0  0  0
  -23.7899   -9.8280   22.2452 C   0  0  0  0  0  0  0  0  0  0  0  0
  -21.0967  -32.4698   14.0452 C   0  0  0  0  0  0  0  0  0  0  0  0
  -23.3810  -31.4886   15.2965 C   0  0  0  0  0  0  0  0  0  0  0  0
  -24.6710  -28.7718   19.3708 C   0  0  0  0  0  0  0  0  0  0  0  0
  -31.5658  -18.7878   20.6120 C   0  0  0  0  0  0  0  0  0  0  0  0
  -31.3402  -17.4114   20.6090 C   0  0  0  0  0  0  0  0  0  0  0  0
  -22.2333   -8.7351   20.2043 C   0  0  0  0  0  0  0  0  0  0  0  0
  -23.0118   -8.6967   22.4912 C   0  0  0  0  0  0  0  0  0  0  0  0
  -25.8027  -27.9645   19.2655 C   0  0  0  0  0  0  0  0  0  0  0  0
  -19.7650   -7.9961   23.1140 C   0  0  0  0  0  0  0  0  0  0  0  0
  -19.0168   -7.9694   24.2908 C   0  0  0  0  0  0  0  0  0  0  0  0
  -27.0960  -29.6360   20.4286 C   0  0  0  0  0  0  0  0  0  0  0  0
  -29.9618  -19.0468   22.4001 C   0  0  0  0  0  0  0  0  0  0  0  0
  -20.2021   -5.9868   24.9992 C   0  0  0  0  0  0  0  0  0  0  0  0
  -23.7897  -10.4128   20.9789 C   0  0  0  0  0  0  0  0  0  0  0  0
  -24.2107  -12.9268   20.8787 C   0  0  0  0  0  0  0  0  0  0  0  0
  -21.7305  -33.2468   15.0277 C   0  0  0  0  0  0  0  0  0  0  0  0
  -24.7458  -30.0242   19.9972 C   0  0  0  0  0  0  0  0  0  0  0  0
  -22.8921  -32.7565   15.6544 C   0  0  0  0  0  0  0  0  0  0  0  0
  -25.9631  -30.4563   20.5428 C   0  0  0  0  0  0  0  0  0  0  0  0
  -30.8766  -19.6056   21.5076 C   0  0  0  0  0  0  0  0  0  0  0  0
  -29.7361  -17.6704   22.3970 C   0  0  0  0  0  0  0  0  0  0  0  0
  -30.4253  -16.8526   21.5014 C   0  0  0  0  0  0  0  0  0  0  0  0
  -22.2335   -8.1503   21.4707 C   0  0  0  0  0  0  0  0  0  0  0  0
  -27.0161  -28.3978   19.7919 C   0  0  0  0  0  0  0  0  0  0  0  0
  -20.7317   -7.0182   22.8796 C   0  0  0  0  0  0  0  0  0  0  0  0
  -19.2354   -6.9647   25.2335 C   0  0  0  0  0  0  0  0  0  0  0  0
  -20.9502   -6.0136   23.8223 C   0  0  0  0  0  0  0  0  0  0  0  0
  -24.5941  -11.5810   20.7253 C   0  0  0  0  0  0  0  0  0  0  0  0
  -25.3230  -13.6446   20.5129 C   0  0  0  0  0  0  0  0  0  0  0  0
  -22.9607  -13.4788   21.3130 C   0  0  0  0  0  0  0  0  0  0  0  0
  -24.2770  -33.0280   19.0693 C   0  0  0  0  0  0  0  0  0  0  0  0
  -24.7164  -33.6593   22.2206 C   0  0  0  0  0  0  0  0  0  0  0  0
  -26.0418  -32.6896   25.2122 C   0  0  0  0  0  0  0  0  0  0  0  0
  -30.8209  -14.5148   20.6504 C   0  0  0  0  0  0  0  0  0  0  0  0
  -21.1827  -34.6182   15.3337 C   0  0  0  0  0  0  0  0  0  0  0  0
  -23.5098  -30.8716   20.1262 C   0  0  0  0  0  0  0  0  0  0  0  0
  -26.0917  -31.7836   21.2429 C   0  0  0  0  0  0  0  0  0  0  0  0
  -21.7095  -35.2070   16.6399 C   0  0  0  0  0  0  0  0  0  0  0  0
  -29.6110  -12.1595   18.2701 C   0  0  0  0  0  0  0  0  0  0  0  0
  -23.2218  -35.0309   16.7332 C   0  0  0  0  0  0  0  0  0  0  0  0
  -28.1664  -11.9098   18.7093 C   0  0  0  0  0  0  0  0  0  0  0  0
  -30.5427  -12.3481   19.4659 C   0  0  0  0  0  0  0  0  0  0  0  0
  -28.6712  -13.1198   20.8698 C   0  0  0  0  0  0  0  0  0  0  0  0
  -23.6056  -33.5463   16.7301 C   0  0  1  0  0  0  0  0  0  0  0  0
  -23.8186  -32.3516   20.3302 C   0  0  1  0  0  0  0  0  0  0  0  0
  -27.6837  -12.9884   19.6988 C   0  0  2  0  0  0  0  0  0  0  0  0
  -28.7481  -17.0995   23.3621 C   0  0  0  0  0  0  0  0  0  0  0  0
  -26.2689  -33.4307   27.5990 C   0  0  0  0  0  0  0  0  0  0  0  0
  -26.8624  -35.6636   21.3915 C   0  0  0  0  0  0  0  0  0  0  0  0
  -27.6857  -35.6545   23.7559 C   0  0  0  0  0  0  0  0  0  0  0  0
  -25.3728  -36.4373   23.2454 C   0  0  0  0  0  0  0  0  0  0  0  0
  -24.5807  -30.3170   26.2095 C   0  0  0  0  0  0  0  0  0  0  0  0
  -31.1177  -21.0864   21.5092 C   0  0  0  0  0  0  0  0  0  0  0  0
  -28.9785  -23.9970   20.2871 C   0  0  0  0  0  0  0  0  0  0  0  0
  -29.1380  -25.5153   20.2646 C   0  0  0  0  0  0  0  0  0  0  0  0
  -30.1879  -23.3299   20.9250 C   0  0  0  0  0  0  0  0  0  0  0  0
  -27.9166  -26.2001   19.6680 C   0  0  0  0  0  0  0  0  0  1  0  0
  -25.9088  -33.9712   23.0923 C   0  0  1  0  0  0  0  0  0  0  0  0
  -25.4436  -32.6271   26.6060 C   0  0  2  0  0  0  0  0  0  0  0  0
  -26.4558  -35.4074   22.8564 C   0  0  0  0  0  0  0  0  0  0  0  0
  -25.8518  -11.4490   20.2954 N   0  0  0  0  0  0  0  0  0  0  0  0
  -26.2683  -12.7211   20.1755 N   0  0  0  0  0  0  0  0  0  0  0  0
  -24.8563  -32.5788   21.3381 N   0  0  0  0  0  0  0  0  0  0  0  0
  -30.0240  -13.3879   20.3573 N   0  0  0  0  0  0  0  0  0  0  0  0
  -25.5751  -14.9694   20.4500 N   0  0  0  0  0  0  0  0  0  0  0  0
  -21.9232  -12.5990   21.6507 N   0  0  0  0  0  0  0  0  0  0  0  0
  -30.2101  -15.4522   21.4826 N   0  0  0  0  0  0  0  0  0  0  0  0
  -23.3670  -32.9599   18.0316 N   0  0  0  0  0  0  0  0  0  0  0  0
  -25.4906  -33.7091   24.4651 N   0  0  0  0  0  0  0  0  0  0  0  0
  -25.3814  -31.2157   27.0802 N   0  3  0  0  0  0  0  0  0  0  0  0
  -30.0091  -21.8585   20.8838 N   0  3  0  0  0  0  0  0  0  0  0  0
  -22.7641  -14.7157   21.3834 O   0  0  0  0  0  0  0  0  0  0  0  0
  -25.3743  -33.5728   19.0404 O   0  0  0  0  0  0  0  0  0  0  0  0
  -23.6959  -34.3444   22.3241 O   0  0  0  0  0  0  0  0  0  0  0  0
  -26.9137  -31.9142   24.8262 O   0  0  0  0  0  0  0  0  0  0  0  0
  -31.9510  -14.6519   20.1748 O   0  0  0  0  0  0  0  0  0  0  0  0
  -21.4742   -7.0466   21.7111 O   0  0  0  0  0  0  0  0  0  0  0  0
  -28.1225  -27.6120   19.6899 O   0  0  0  0  0  0  0  0  0  1  0  0
  -18.5179   -6.9401   26.3643 F   0  0  0  0  0  0  0  0  0  0  0  0
  -21.8783   -5.0720   23.6033 F   0  0  0  0  0  0  0  0  0  0  0  0
  1  2  1  0  0  0  0
  1  5  2  0  0  0  0
  2  6  2  0  0  0  0
  3 10  2  0  0  0  0
  3 18  1  0  0  0  0
  4 11  1  0  0  0  0
  4 18  2  0  0  0  0
  5 20  1  0  0  0  0
  6 22  1  0  0  0  0
  7 12  2  0  0  0  0
  7 21  1  0  0  0  0
  8  9  2  0  0  0  0
  8 24  1  0  0  0  0
  9 26  1  0  0  0  0
 10 27  1  0  0  0  0
 11 27  2  0  0  0  0
 12 28  1  0  0  0  0
 13 14  2  0  0  0  0
 13 29  1  0  0  0  0
 14 30  1  0  0  0  0
 15 23  1  0  0  0  0
 15 28  2  0  0  0  0
 16 24  2  0  0  0  0
 16 25  1  0  0  0  0
 17 30  2  0  0  0  0
 17 31  1  0  0  0  0
 18 32  1  0  0  0  0
 19 32  1  0  0  0  0
 19 33  2  0  0  0  0
 19 34  1  0  0  0  0
 20 22  2  0  0  0  0
 20 39  1  0  0  0  0
 21 23  2  0  0  0  0
 21 40  1  0  0  0  0
 22 48  1  0  0  0  0
 23 41  1  0  0  0  0
 24 57  1  0  0  0  0
 25 26  2  0  0  0  0
 25 51  1  0  0  0  0
 26 71  1  0  0  0  0
 27 81  1  0  0  0  0
 28 82  1  0  0  0  0
 29 31  2  0  0  0  0
 29 81  1  0  0  0  0
 30 83  1  0  0  0  0
 31 84  1  0  0  0  0
 32 65  2  0  0  0  0
 33 66  1  0  0  0  0
 33 69  1  0  0  0  0
 34 70  1  0  0  0  0
 34 76  2  0  0  0  0
 35 49  1  0  0  0  0
 35 72  1  0  0  0  0
 35 77  2  0  0  0  0
 36 62  1  0  0  0  0
 36 67  1  0  0  0  0
 36 78  2  0  0  0  0
 37 63  1  0  0  0  0
 37 73  1  0  0  0  0
 37 79  2  0  0  0  0
 38 68  1  0  0  0  0
 38 71  1  0  0  0  0
 38 80  2  0  0  0  0
 39 42  1  0  0  0  0
 40 49  1  0  0  0  0
 41 67  1  0  0  0  0
 42 44  1  0  0  0  0
 43 45  1  0  0  0  0
 43 46  1  0  0  0  0
 44 48  1  0  0  0  0
 45 50  1  0  0  0  0
 46 68  1  0  0  0  0
 47 50  1  0  0  0  0
 47 68  1  0  0  0  0
 48 72  1  0  0  0  0
 49 67  1  0  0  0  0
 50 66  1  0  0  0  0
 52 63  1  0  0  0  0
 53 64  1  0  0  0  0
 54 64  1  0  0  0  0
 55 64  1  0  0  0  0
 56 74  1  0  0  0  0
 57 75  1  0  0  0  0
 58 59  1  0  0  0  0
 58 60  1  0  0  0  0
 59 61  1  0  0  0  0
 60 75  1  0  0  0  0
 61 82  1  0  0  0  0
 62 64  1  0  0  0  0
 62 73  1  0  0  0  0
 63 74  1  0  0  0  0
 65 66  1  0  0  0  0
M  CHG  2  74   1  75   1
M  ISO  4  38 100  61 101  71 100  82 101
M  END
> <Batch ID>
0017

> <Smiles>
CNC(C)C(=O)NC(C(=O)N1Cc2cc([101O:1][101CH2:1]CCCNCc3ccc([100NH:0][100C:0](=O)N4CCCC(n5nc(-c6ccc(Oc7ccc(F)cc7F)cc6)c(C(N)=O)c5N)C4)c(C)c3)ccc2CC1C(=O)NC1CCCc2ccccc21)C(C)(C)C

> <Shape>
0.347

> <Color>
0.236

> <Negative vol penalty>
0.000

$$$$

  -OEChem-04042321003D

 85 94  0     1  0  0  0  0  0999 V2000
  -27.4136  -24.3055   16.7928 C   0  0  0  0  0  0  0  0  0  0  0  0
  -26.2661  -24.5928   17.5249 C   0  0  0  0  0  0  0  0  0  0  0  0
  -26.8103  -13.4368   20.7566 C   0  0  0  0  0  0  0  0  0  0  0  0
  -24.4483  -13.8577   20.4724 C   0  0  0  0  0  0  0  0  0  0  0  0
  -28.6566  -24.7452   17.2461 C   0  0  0  0  0  0  0  0  0  0  0  0
  -26.3610  -25.3191   18.7115 C   0  0  0  0  0  0  0  0  0  0  0  0
  -22.8255  -28.9271   19.0691 C   0  0  0  0  0  0  0  0  0  0  0  0
  -21.2964  -23.3735   23.1119 C   0  0  0  0  0  0  0  0  0  0  0  0
  -22.5129  -22.8746   22.6462 C   0  0  0  0  0  0  0  0  0  0  0  0
  -26.5192  -12.2226   21.3782 C   0  0  0  0  0  0  0  0  0  0  0  0
  -24.1571  -12.6434   21.0939 C   0  0  0  0  0  0  0  0  0  0  0  0
  -21.5394  -28.5250   19.4266 C   0  0  0  0  0  0  0  0  0  0  0  0
  -22.8005   -9.4867   22.2825 C   0  0  0  0  0  0  0  0  0  0  0  0
  -21.8323   -8.6723   21.6950 C   0  0  0  0  0  0  0  0  0  0  0  0
  -21.9574  -29.2268   21.6964 C   0  0  0  0  0  0  0  0  0  0  0  0
  -20.1142  -21.8366   21.6706 C   0  0  0  0  0  0  0  0  0  0  0  0
  -23.1582   -8.5504   19.6790 C   0  0  0  0  0  0  0  0  0  0  0  0
  -25.7748  -14.2545   20.3038 C   0  0  0  0  0  0  0  0  0  0  0  0
  -26.2801  -15.7335   18.2876 C   0  0  0  0  0  0  0  0  0  0  0  0
  -28.7658  -25.4856   18.4338 C   0  0  0  0  0  0  0  0  0  0  0  0
  -23.6926  -29.4729   20.0265 C   0  0  0  0  0  0  0  0  0  0  0  0
  -27.6069  -25.7680   19.1818 C   0  0  0  0  0  0  0  0  0  0  0  0
  -23.2532  -29.6375   21.3479 C   0  0  0  0  0  0  0  0  0  0  0  0
  -20.0970  -22.8545   22.6241 C   0  0  0  0  0  0  0  0  0  0  0  0
  -22.5300  -21.8567   21.6926 C   0  0  0  0  0  0  0  0  0  0  0  0
  -25.1926  -11.8258   21.5468 C   0  0  0  0  0  0  0  0  0  0  0  0
  -21.1061  -28.6722   20.7411 C   0  0  0  0  0  0  0  0  0  0  0  0
  -23.9475   -9.8330   21.5681 C   0  0  0  0  0  0  0  0  0  0  0  0
  -22.0112   -8.2042   20.3933 C   0  0  0  0  0  0  0  0  0  0  0  0
  -21.3306  -21.3377   21.2048 C   0  0  0  0  0  0  0  0  0  0  0  0
  -24.1263   -9.3648   20.2664 C   0  0  0  0  0  0  0  0  0  0  0  0
  -26.0749  -15.5092   19.6621 C   0  0  0  0  0  0  0  0  0  0  0  0
  -26.5307  -17.0806   18.1931 C   0  0  0  0  0  0  0  0  0  0  0  0
  -18.5122  -25.8682   23.6754 C   0  0  0  0  0  0  0  0  0  0  0  0
  -26.2471  -14.8069   17.1939 C   0  0  0  0  0  0  0  0  0  0  0  0
  -26.5116  -28.6382   21.2348 C   0  0  0  0  0  0  0  0  0  0  0  0
  -26.2911  -31.5159   22.7157 C   0  0  0  0  0  0  0  0  0  0  0  0
  -24.2985  -34.0303   23.8792 C   0  0  0  0  0  0  0  0  0  0  0  0
  -25.0456  -21.7579   21.6022 C   0  0  0  0  0  0  0  0  0  0  0  0
  -30.1365  -25.8988   18.9082 C   0  0  0  0  0  0  0  0  0  0  0  0
  -25.0676  -29.9265   19.6189 C   0  0  0  0  0  0  0  0  0  0  0  0
  -24.1383  -30.2366   22.4091 C   0  0  0  0  0  0  0  0  0  0  0  0
  -30.1081  -26.9847   19.9807 C   0  0  0  0  0  0  0  0  0  0  0  0
  -28.3361  -20.7388   20.7016 C   0  0  0  0  0  0  0  0  0  0  0  0
  -29.0783  -26.6478   21.0544 C   0  0  0  0  0  0  0  0  0  0  0  0
  -28.1474  -19.3045   20.2020 C   0  0  0  0  0  0  0  0  0  0  0  0
  -27.4134  -21.0559   21.8771 C   0  0  0  0  0  0  0  0  0  0  0  0
  -18.7521  -25.5239   21.6163 C   0  0  0  0  0  0  0  0  0  0  0  0
  -25.8022  -19.3429   21.1430 C   0  0  0  0  0  0  0  0  0  0  0  0
  -27.6662  -26.5746   20.4608 C   0  0  1  0  0  0  0  0  0  0  0  0
  -18.5377  -26.8149   22.4520 C   0  0  2  0  0  0  0  0  0  0  0  0
  -26.0452  -29.9949   20.7881 C   0  0  1  0  0  0  0  0  0  0  0  0
  -26.6641  -18.9974   19.9176 C   0  0  2  0  0  0  0  0  0  0  0  0
  -24.4036  -36.2330   25.0769 C   0  0  0  0  0  0  0  0  0  0  0  0
  -26.7816  -30.0572   25.3504 C   0  0  0  0  0  0  0  0  0  0  0  0
  -25.9437  -32.0883   26.5505 C   0  0  0  0  0  0  0  0  0  0  0  0
  -27.9855  -32.2376   25.1253 C   0  0  0  0  0  0  0  0  0  0  0  0
  -23.0914  -35.4648   21.5892 C   0  0  0  0  0  0  0  0  0  0  0  0
  -18.7876  -23.3922   23.1244 C   0  0  0  0  0  0  0  0  0  0  0  0
  -19.6636  -27.8306   22.4342 C   0  0  0  0  0  0  0  0  0  1  0  0
  -25.7210  -32.0031   24.0258 C   0  0  1  0  0  0  0  0  0  0  0  0
  -24.3854  -35.5380   23.7244 C   0  0  2  0  0  0  0  0  0  0  0  0
  -26.5917  -31.5835   25.2437 C   0  0  0  0  0  0  0  0  0  0  0  0
  -26.1857  -16.6245   20.3887 N   0  0  0  0  0  0  0  0  0  0  0  0
  -26.4633  -17.5625   19.4672 N   0  0  0  0  0  0  0  0  0  0  0  0
  -18.6511  -24.7930   22.8684 N   0  0  0  0  0  0  0  0  0  0  0  0
  -25.4761  -30.6589   21.9626 N   0  0  0  0  0  0  0  0  0  0  0  0
  -26.0244  -20.7440   21.5333 N   0  0  0  0  0  0  0  0  0  0  0  0
  -26.7999  -17.8880   17.1453 N   0  0  0  0  0  0  0  0  0  0  0  0
  -25.9748  -13.4596   17.4677 N   0  0  0  0  0  0  0  0  0  0  0  0
  -23.7672  -21.3521   21.2209 N   0  0  0  0  0  0  0  0  0  0  0  0
  -27.1388  -27.9050   20.2457 N   0  0  0  0  0  0  0  0  0  0  0  0
  -25.5468  -33.4447   23.8843 N   0  0  0  0  0  0  0  0  0  0  0  0
  -23.2184  -36.0472   22.9500 N   0  3  0  0  0  0  0  0  0  0  0  0
  -18.4187  -25.9925   24.8748 O   0  0  0  0  0  0  0  0  0  0  0  0
  -26.4691  -15.1603   16.0110 O   0  0  0  0  0  0  0  0  0  0  0  0
  -26.3181  -28.2836   22.3918 O   0  0  0  0  0  0  0  0  0  0  0  0
  -27.4153  -31.8878   22.3697 O   0  0  0  0  0  0  0  0  0  0  0  0
  -23.2303  -33.4324   23.9888 O   0  0  0  0  0  0  0  0  0  0  0  0
  -25.3266  -22.9089   21.9461 O   0  0  0  0  0  0  0  0  0  0  0  0
  -24.9081  -10.6409   22.1530 O   0  0  0  0  0  0  0  0  0  0  0  0
  -19.8515  -28.2799   21.0929 O   0  0  0  0  0  0  0  0  0  1  0  0
  -21.0821   -7.4209   19.8299 F   0  0  0  0  0  0  0  0  0  0  0  0
  -21.3352  -20.3603   20.2871 F   0  0  0  0  0  0  0  0  0  0  0  0
  -25.2267   -9.6931   19.5757 F   0  0  0  0  0  0  0  0  0  0  0  0
  1  2  1  0  0  0  0
  1  5  2  0  0  0  0
  2  6  2  0  0  0  0
  3 10  2  0  0  0  0
  3 18  1  0  0  0  0
  4 11  1  0  0  0  0
  4 18  2  0  0  0  0
  5 20  1  0  0  0  0
  6 22  1  0  0  0  0
  7 12  2  0  0  0  0
  7 21  1  0  0  0  0
  8  9  2  0  0  0  0
  8 24  1  0  0  0  0
  9 25  1  0  0  0  0
 10 26  1  0  0  0  0
 11 26  2  0  0  0  0
 12 27  1  0  0  0  0
 13 14  2  0  0  0  0
 13 28  1  0  0  0  0
 14 29  1  0  0  0  0
 15 23  1  0  0  0  0
 15 27  2  0  0  0  0
 16 24  2  0  0  0  0
 16 30  1  0  0  0  0
 17 29  2  0  0  0  0
 17 31  1  0  0  0  0
 18 32  1  0  0  0  0
 19 32  1  0  0  0  0
 19 33  2  0  0  0  0
 19 35  1  0  0  0  0
 20 22  2  0  0  0  0
 20 40  1  0  0  0  0
 21 23  2  0  0  0  0
 21 41  1  0  0  0  0
 22 50  1  0  0  0  0
 23 42  1  0  0  0  0
 24 59  1  0  0  0  0
 25 30  2  0  0  0  0
 25 71  1  0  0  0  0
 26 81  1  0  0  0  0
 27 82  1  0  0  0  0
 28 31  2  0  0  0  0
 28 81  1  0  0  0  0
 29 83  1  0  0  0  0
 30 84  1  0  0  0  0
 31 85  1  0  0  0  0
 32 64  2  0  0  0  0
 33 65  1  0  0  0  0
 33 69  1  0  0  0  0
 34 51  1  0  0  0  0
 34 66  1  0  0  0  0
 34 75  2  0  0  0  0
 35 70  1  0  0  0  0
 35 76  2  0  0  0  0
 36 52  1  0  0  0  0
 36 72  1  0  0  0  0
 36 77  2  0  0  0  0
 37 61  1  0  0  0  0
 37 67  1  0  0  0  0
 37 78  2  0  0  0  0
 38 62  1  0  0  0  0
 38 73  1  0  0  0  0
 38 79  2  0  0  0  0
 39 68  1  0  0  0  0
 39 71  1  0  0  0  0
 39 80  2  0  0  0  0
 40 43  1  0  0  0  0
 41 52  1  0  0  0  0
 42 67  1  0  0  0  0
 43 45  1  0  0  0  0
 44 46  1  0  0  0  0
 44 47  1  0  0  0  0
 45 50  1  0  0  0  0
 46 53  1  0  0  0  0
 47 68  1  0  0  0  0
 48 51  1  0  0  0  0
 48 66  1  0  0  0  0
 49 53  1  0  0  0  0
 49 68  1  0  0  0  0
 50 72  1  0  0  0  0
 51 60  1  0  0  0  0
 52 67  1  0  0  0  0
 53 65  1  0  0  0  0
 54 62  1  0  0  0  0
 55 63  1  0  0  0  0
 56 63  1  0  0  0  0
 57 63  1  0  0  0  0
 58 74  1  0  0  0  0
 59 66  1  0  0  0  0
 60 82  1  0  0  0  0
 61 63  1  0  0  0  0
 61 73  1  0  0  0  0
 62 74  1  0  0  0  0
 64 65  1  0  0  0  0
M  CHG  1  74   1
M  ISO  4  39 100  60 101  71 100  82 101
M  END
> <Batch ID>
0017

> <Smiles>
CNC(C)C(=O)NC(C(=O)N1Cc2cc([101O:1][101CH2:1]C3CN(Cc4ccc([100NH:0][100C:0](=O)N5CCCC(n6nc(-c7ccc(Oc8ccc(F)cc8F)cc7)c(C(N)=O)c6N)C5)c(F)c4)C3=O)ccc2CC1C(=O)NC1CCCc2ccccc21)C(C)(C)C

> <Shape>
0.300

> <Color>
0.088

> <Negative vol penalty>
0.000

$$$$

  -OEChem-04042321003D

 85 93  0     1  0  0  0  0  0999 V2000
  -34.1083  -31.6303   17.6705 C   0  0  0  0  0  0  0  0  0  0  0  0
  -34.0274  -30.2697   17.9492 C   0  0  0  0  0  0  0  0  0  0  0  0
  -23.1790   -9.8002   19.8810 C   0  0  0  0  0  0  0  0  0  0  0  0
  -23.5904   -9.8630   22.2608 C   0  0  0  0  0  0  0  0  0  0  0  0
  -33.0023  -32.4517   17.8853 C   0  0  0  0  0  0  0  0  0  0  0  0
  -32.8407  -29.7299   18.4439 C   0  0  0  0  0  0  0  0  0  0  0  0
  -30.5522  -24.1725   17.2672 C   0  0  0  0  0  0  0  0  0  0  0  0
  -30.5565  -15.6363   21.9145 C   0  0  0  0  0  0  0  0  0  0  0  0
  -31.0282  -16.9475   21.8528 C   0  0  0  0  0  0  0  0  0  0  0  0
  -22.4194   -8.6416   20.0428 C   0  0  0  0  0  0  0  0  0  0  0  0
  -22.8308   -8.7044   22.4227 C   0  0  0  0  0  0  0  0  0  0  0  0
  -30.5867  -22.9740   17.9786 C   0  0  0  0  0  0  0  0  0  0  0  0
  -23.2388   -5.3767   21.9861 C   0  0  0  0  0  0  0  0  0  0  0  0
  -23.7527   -4.3746   22.8092 C   0  0  0  0  0  0  0  0  0  0  0  0
  -28.4172  -23.4708   18.9090 C   0  0  0  0  0  0  0  0  0  0  0  0
  -31.1884  -17.0032   24.2629 C   0  0  0  0  0  0  0  0  0  0  0  0
  -21.8153   -4.5571   24.2410 C   0  0  0  0  0  0  0  0  0  0  0  0
  -23.7645  -10.4109   20.9900 C   0  0  0  0  0  0  0  0  0  0  0  0
  -24.0917  -12.9379   20.8676 C   0  0  0  0  0  0  0  0  0  0  0  0
  -31.7985  -31.9200   18.3738 C   0  0  0  0  0  0  0  0  0  0  0  0
  -29.4529  -25.0358   17.3800 C   0  0  0  0  0  0  0  0  0  0  0  0
  -31.7180  -30.5452   18.6667 C   0  0  0  0  0  0  0  0  0  0  0  0
  -28.3700  -24.6784   18.1960 C   0  0  0  0  0  0  0  0  0  0  0  0
  -30.4007  -15.0085   23.1503 C   0  0  0  0  0  0  0  0  0  0  0  0
  -31.3442  -17.6309   23.0270 C   0  0  0  0  0  0  0  0  0  0  0  0
  -22.2453   -8.0937   21.3137 C   0  0  0  0  0  0  0  0  0  0  0  0
  -29.5204  -22.6243   18.8019 C   0  0  0  0  0  0  0  0  0  0  0  0
  -22.0132   -5.9690   22.2906 C   0  0  0  0  0  0  0  0  0  0  0  0
  -23.0409   -3.9648   23.9366 C   0  0  0  0  0  0  0  0  0  0  0  0
  -30.7167  -15.6919   24.3245 C   0  0  0  0  0  0  0  0  0  0  0  0
  -21.3014   -5.5592   23.4180 C   0  0  0  0  0  0  0  0  0  0  0  0
  -24.5498  -11.6075   20.8233 C   0  0  0  0  0  0  0  0  0  0  0  0
  -25.2170  -13.6958   20.6539 C   0  0  0  0  0  0  0  0  0  0  0  0
  -22.7674  -13.4435   21.0827 C   0  0  0  0  0  0  0  0  0  0  0  0
  -29.0370  -28.0161   18.4038 C   0  0  0  0  0  0  0  0  0  0  0  0
  -26.0212  -27.5606   17.2992 C   0  0  0  0  0  0  0  0  0  0  0  0
  -23.5293  -25.3711   16.4974 C   0  0  0  0  0  0  0  0  0  0  0  0
  -31.0783  -12.1383   21.5247 C   0  0  0  0  0  0  0  0  0  0  0  0
  -30.6446  -32.8555   18.6347 C   0  0  0  0  0  0  0  0  0  0  0  0
  -29.4191  -26.3123   16.5852 C   0  0  0  0  0  0  0  0  0  0  0  0
  -27.1574  -25.5607   18.3359 C   0  0  0  0  0  0  0  0  0  0  0  0
  -29.3073  -32.1400   18.8069 C   0  0  0  0  0  0  0  0  0  0  0  0
  -29.4826  -13.5632   18.5039 C   0  0  0  0  0  0  0  0  0  0  0  0
  -29.4565  -30.9486   19.7478 C   0  0  0  0  0  0  0  0  0  0  0  0
  -28.0023  -13.2663   18.7377 C   0  0  0  0  0  0  0  0  0  0  0  0
  -30.3817  -12.5400   19.1913 C   0  0  0  0  0  0  0  0  0  0  0  0
  -28.6338  -12.0876   20.8807 C   0  0  0  0  0  0  0  0  0  0  0  0
  -30.4404  -29.9180   19.1811 C   0  0  1  0  0  0  0  0  0  0  0  0
  -28.4774  -27.3581   17.1743 C   0  0  1  0  0  0  0  0  0  0  0  0
  -27.7014  -13.1268   20.2401 C   0  0  2  0  0  0  0  0  0  0  0  0
  -21.1660  -25.2983   15.6565 C   0  0  0  0  0  0  0  0  0  0  0  0
  -25.0182  -28.4160   20.0509 C   0  0  0  0  0  0  0  0  0  0  0  0
  -22.7915  -27.4305   19.4687 C   0  0  0  0  0  0  0  0  0  0  0  0
  -23.7016  -29.3289   18.1305 C   0  0  0  0  0  0  0  0  0  0  0  0
  -32.1502  -19.6659   24.1972 C   0  0  0  0  0  0  0  0  0  0  0  0
  -31.9631  -12.4003   23.8112 C   0  0  0  0  0  0  0  0  0  0  0  0
  -24.3100  -23.8345   14.0916 C   0  0  0  0  0  0  0  0  0  0  0  0
  -29.8960  -13.6064   23.2127 C   0  0  0  0  0  0  0  0  0  0  0  0
  -30.6877  -20.2039   21.2017 C   0  0  0  0  0  0  0  0  0  0  0  0
  -32.0047  -19.6231   21.7021 C   0  0  0  0  0  0  0  0  0  0  0  0
  -30.8341  -20.9677   19.8909 C   0  0  0  0  0  0  0  0  0  1  0  0
  -24.7350  -27.0341   17.8885 C   0  0  1  0  0  0  0  0  0  0  0  0
  -22.6374  -25.2642   15.2736 C   0  0  2  0  0  0  0  0  0  0  0  0
  -24.0851  -28.0365   18.8837 C   0  0  0  0  0  0  0  0  0  0  0  0
  -25.8636  -11.5217   20.5990 N   0  0  0  0  0  0  0  0  0  0  0  0
  -26.2408  -12.8078   20.5002 N   0  0  0  0  0  0  0  0  0  0  0  0
  -27.1744  -26.8014   17.5435 N   0  0  0  0  0  0  0  0  0  0  0  0
  -30.0456  -12.3958   20.6081 N   0  0  0  0  0  0  0  0  0  0  0  0
  -25.4208  -15.0285   20.5842 N   0  0  0  0  0  0  0  0  0  0  0  0
  -21.7270  -12.5266   21.2860 N   0  0  0  0  0  0  0  0  0  0  0  0
  -29.8077  -29.1330   18.1428 N   0  0  0  0  0  0  0  0  0  0  0  0
  -23.8840  -26.6777   16.7583 N   0  0  0  0  0  0  0  0  0  0  0  0
  -31.8187  -18.9490   22.9644 N   0  0  3  0  0  0  0  0  0  0  0  0
  -30.9145  -12.6318   22.8279 N   0  0  0  0  0  0  0  0  0  0  0  0
  -22.9048  -23.9904   14.5476 N   0  3  0  0  0  0  0  0  0  0  0  0
  -22.5113  -14.6714   21.0780 O   0  0  0  0  0  0  0  0  0  0  0  0
  -28.7867  -27.5463   19.5075 O   0  0  0  0  0  0  0  0  0  0  0  0
  -26.0023  -28.6032   16.6401 O   0  0  0  0  0  0  0  0  0  0  0  0
  -23.8735  -24.3936   17.1582 O   0  0  0  0  0  0  0  0  0  0  0  0
  -32.0933  -11.5117   21.1943 O   0  0  0  0  0  0  0  0  0  0  0  0
  -21.5040   -6.9632   21.4721 O   0  0  0  0  0  0  0  0  0  0  0  0
  -29.5519  -21.4554   19.4979 O   0  0  0  0  0  0  0  0  0  1  0  0
  -23.5338   -3.0014   24.7260 F   0  0  0  0  0  0  0  0  0  0  0  0
  -30.5691  -15.0974   25.5168 F   0  0  0  0  0  0  0  0  0  0  0  0
  -20.1229   -6.1237   23.7149 F   0  0  0  0  0  0  0  0  0  0  0  0
  1  2  1  0  0  0  0
  1  5  2  0  0  0  0
  2  6  2  0  0  0  0
  3 10  2  0  0  0  0
  3 18  1  0  0  0  0
  4 11  1  0  0  0  0
  4 18  2  0  0  0  0
  5 20  1  0  0  0  0
  6 22  1  0  0  0  0
  7 12  2  0  0  0  0
  7 21  1  0  0  0  0
  8  9  2  0  0  0  0
  8 24  1  0  0  0  0
  9 25  1  0  0  0  0
 10 26  1  0  0  0  0
 11 26  2  0  0  0  0
 12 27  1  0  0  0  0
 13 14  2  0  0  0  0
 13 28  1  0  0  0  0
 14 29  1  0  0  0  0
 15 23  1  0  0  0  0
 15 27  2  0  0  0  0
 16 25  2  0  0  0  0
 16 30  1  0  0  0  0
 17 29  2  0  0  0  0
 17 31  1  0  0  0  0
 18 32  1  0  0  0  0
 19 32  1  0  0  0  0
 19 33  2  0  0  0  0
 19 34  1  0  0  0  0
 20 22  2  0  0  0  0
 20 39  1  0  0  0  0
 21 23  2  0  0  0  0
 21 40  1  0  0  0  0
 22 48  1  0  0  0  0
 23 41  1  0  0  0  0
 24 30  2  0  0  0  0
 24 58  1  0  0  0  0
 25 73  1  0  0  0  0
 26 81  1  0  0  0  0
 27 82  1  0  0  0  0
 28 31  2  0  0  0  0
 28 81  1  0  0  0  0
 29 83  1  0  0  0  0
 30 84  1  0  0  0  0
 31 85  1  0  0  0  0
 32 65  2  0  0  0  0
 33 66  1  0  0  0  0
 33 69  1  0  0  0  0
 34 70  1  0  0  0  0
 34 76  2  0  0  0  0
 35 49  1  0  0  0  0
 35 71  1  0  0  0  0
 35 77  2  0  0  0  0
 36 62  1  0  0  0  0
 36 67  1  0  0  0  0
 36 78  2  0  0  0  0
 37 63  1  0  0  0  0
 37 72  1  0  0  0  0
 37 79  2  0  0  0  0
 38 68  1  0  0  0  0
 38 74  1  0  0  0  0
 38 80  2  0  0  0  0
 39 42  1  0  0  0  0
 40 49  1  0  0  0  0
 41 67  1  0  0  0  0
 42 44  1  0  0  0  0
 43 45  1  0  0  0  0
 43 46  1  0  0  0  0
 44 48  1  0  0  0  0
 45 50  1  0  0  0  0
 46 68  1  0  0  0  0
 47 50  1  0  0  0  0
 47 68  1  0  0  0  0
 48 71  1  0  0  0  0
 49 67  1  0  0  0  0
 50 66  1  0  0  0  0
 51 63  1  0  0  0  0
 52 64  1  0  0  0  0
 53 64  1  0  0  0  0
 54 64  1  0  0  0  0
 55 73  1  0  0  0  0
 56 74  1  0  0  0  0
 57 75  1  0  0  0  0
 58 74  1  0  0  0  0
 59 60  1  0  0  0  0
 59 61  1  0  0  0  0
 60 73  1  0  0  0  0
 61 82  1  0  0  0  0
 62 64  1  0  0  0  0
 62 72  1  0  0  0  0
 63 75  1  0  0  0  0
 65 66  1  0  0  0  0
M  CHG  1  75   1
M  ISO  4  38 100  61 101  74 100  82 101
M  END
> <Batch ID>
0017

> <Smiles>
CNC(C)C(=O)NC(C(=O)N1Cc2cc([101O:1][101CH2:1]CCN(C)c3ccc(C[100N:0](C)[100C:0](=O)N4CCCC(n5nc(-c6ccc(Oc7ccc(F)cc7F)cc6)c(C(N)=O)c5N)C4)c(F)c3)ccc2CC1C(=O)NC1CCCc2ccccc21)C(C)(C)C

> <Shape>
0.238

> <Color>
0.207

> <Negative vol penalty>
0.000

$$$$

  -OEChem-04042321003D

 86 94  0     1  0  0  0  0  0999 V2000
  -16.6258  -28.4864   23.5463 C   0  0  0  0  0  0  0  0  0  0  0  0
  -17.4151  -27.8962   22.5644 C   0  0  0  0  0  0  0  0  0  0  0  0
  -27.7717  -17.9082   20.8724 C   0  0  0  0  0  0  0  0  0  0  0  0
  -29.8259  -18.0692   22.1340 C   0  0  0  0  0  0  0  0  0  0  0  0
  -17.1745  -29.4449   24.3972 C   0  0  0  0  0  0  0  0  0  0  0  0
  -18.7533  -28.2650   22.4321 C   0  0  0  0  0  0  0  0  0  0  0  0
  -23.4233  -24.6544   20.8008 C   0  0  0  0  0  0  0  0  0  0  0  0
  -30.8985  -27.1363   15.5017 C   0  0  0  0  0  0  0  0  0  0  0  0
  -29.6850  -27.3173   14.8382 C   0  0  0  0  0  0  0  0  0  0  0  0
  -27.7738  -16.5242   21.0456 C   0  0  0  0  0  0  0  0  0  0  0  0
  -29.8280  -16.6851   22.3072 C   0  0  0  0  0  0  0  0  0  0  0  0
  -24.0739  -24.4547   19.5840 C   0  0  0  0  0  0  0  0  0  0  0  0
  -29.3370  -13.8480   19.6970 C   0  0  0  0  0  0  0  0  0  0  0  0
  -29.0560  -13.0559   18.5838 C   0  0  0  0  0  0  0  0  0  0  0  0
  -25.7677  -26.0438   20.2358 C   0  0  0  0  0  0  0  0  0  0  0  0
  -30.1684  -28.6388   17.2471 C   0  0  0  0  0  0  0  0  0  0  0  0
  -27.1496  -12.1169   19.7332 C   0  0  0  0  0  0  0  0  0  0  0  0
  -28.7978  -18.6807   21.4166 C   0  0  0  0  0  0  0  0  0  0  0  0
  -28.2049  -21.0720   22.0785 C   0  0  0  0  0  0  0  0  0  0  0  0
  -18.5227  -29.8187   24.2816 C   0  0  0  0  0  0  0  0  0  0  0  0
  -23.9349  -25.5600   21.7413 C   0  0  0  0  0  0  0  0  0  0  0  0
  -19.3202  -29.2304   23.2814 C   0  0  0  0  0  0  0  0  0  0  0  0
  -25.1231  -26.2513   21.4648 C   0  0  0  0  0  0  0  0  0  0  0  0
  -31.1402  -27.7970   16.7062 C   0  0  0  0  0  0  0  0  0  0  0  0
  -28.7132  -28.1591   15.3792 C   0  0  0  0  0  0  0  0  0  0  0  0
  -28.8019  -15.9126   21.7630 C   0  0  0  0  0  0  0  0  0  0  0  0
  -25.2447  -25.1516   19.3001 C   0  0  0  0  0  0  0  0  0  0  0  0
  -28.5243  -13.7745   20.8284 C   0  0  0  0  0  0  0  0  0  0  0  0
  -27.9623  -12.1903   18.6019 C   0  0  0  0  0  0  0  0  0  0  0  0
  -28.9549  -28.8198   16.5836 C   0  0  0  0  0  0  0  0  0  0  0  0
  -27.4306  -12.9090   20.8464 C   0  0  0  0  0  0  0  0  0  0  0  0
  -28.7965  -20.1104   21.2375 C   0  0  0  0  0  0  0  0  0  0  0  0
  -28.4826  -22.2738   21.4745 C   0  0  0  0  0  0  0  0  0  0  0  0
  -27.4701  -20.8946   23.2968 C   0  0  0  0  0  0  0  0  0  0  0  0
  -22.8742  -28.2391   23.0833 C   0  0  0  0  0  0  0  0  0  0  0  0
  -25.5761  -27.9600   24.8565 C   0  0  0  0  0  0  0  0  0  0  0  0
  -28.7426  -26.7183   25.1362 C   0  0  0  0  0  0  0  0  0  0  0  0
  -31.7992  -25.5723   18.6568 C   0  0  0  0  0  0  0  0  0  0  0  0
  -19.0588  -30.8937   25.1935 C   0  0  0  0  0  0  0  0  0  0  0  0
  -23.2358  -25.7442   23.0602 C   0  0  0  0  0  0  0  0  0  0  0  0
  -25.7246  -27.2196   22.4492 C   0  0  0  0  0  0  0  0  0  0  0  0
  -20.5836  -30.9561   25.2310 C   0  0  0  0  0  0  0  0  0  0  0  0
  -31.1963  -22.0875   17.3953 C   0  0  0  0  0  0  0  0  0  0  0  0
  -21.1550  -30.9013   23.8178 C   0  0  0  0  0  0  0  0  0  0  0  0
  -29.7769  -22.3635   17.8915 C   0  0  0  0  0  0  0  0  0  0  0  0
  -32.0842  -23.3338   17.4848 C   0  0  0  0  0  0  0  0  0  0  0  0
  -31.1305  -23.4653   19.7627 C   0  0  0  0  0  0  0  0  0  0  0  0
  -20.7826  -29.5861   23.1227 C   0  0  1  0  0  0  0  0  0  0  0  0
  -23.5666  -27.0737   23.7314 C   0  0  1  0  0  0  0  0  0  0  0  0
  -29.7505  -22.9433   19.3256 C   0  0  2  0  0  0  0  0  0  0  0  0
  -30.9458  -26.1790   26.2097 C   0  0  0  0  0  0  0  0  0  0  0  0
  -26.2693  -30.8116   24.0213 C   0  0  0  0  0  0  0  0  0  0  0  0
  -28.6176  -30.3885   24.7793 C   0  0  0  0  0  0  0  0  0  0  0  0
  -26.7413  -30.2831   26.4197 C   0  0  0  0  0  0  0  0  0  0  0  0
  -33.9545  -25.6615   17.3284 C   0  0  0  0  0  0  0  0  0  0  0  0
  -27.7101  -24.1778   26.2494 C   0  0  0  0  0  0  0  0  0  0  0  0
  -25.7104  -27.1535   13.2930 C   0  0  0  0  0  0  0  0  0  0  0  0
  -32.4377  -27.6038   17.4154 C   0  0  0  0  0  0  0  0  0  0  0  0
  -27.4093  -28.3528   14.6627 C   0  0  0  0  0  0  0  0  0  0  0  0
  -25.7387  -25.1327   15.7249 C   0  0  0  0  0  0  0  0  0  0  0  0
  -25.9422  -26.6403   15.7188 C   0  0  0  0  0  0  0  0  0  0  0  0
  -25.0719  -24.6092   16.9911 C   0  0  0  0  0  0  0  0  0  1  0  0
  -27.0020  -28.4349   24.7144 C   0  0  1  0  0  0  0  0  0  0  0  0
  -29.4391  -25.9803   26.2653 C   0  0  2  0  0  0  0  0  0  0  0  0
  -27.1454  -29.9628   24.9641 C   0  0  0  0  0  0  0  0  0  0  0  0
  -29.4040  -20.6545   20.1797 N   0  0  0  0  0  0  0  0  0  0  0  0
  -29.1956  -21.9709   20.3520 N   0  0  0  0  0  0  0  0  0  0  0  0
  -25.0006  -27.3700   23.7222 N   0  0  0  0  0  0  0  0  0  0  0  0
  -31.7798  -24.1674   18.6570 N   0  0  0  0  0  0  0  0  0  0  0  0
  -28.1839  -23.5497   21.7993 N   0  0  0  0  0  0  0  0  0  0  0  0
  -27.2765  -19.5921   23.7767 N   0  0  0  0  0  0  0  0  0  0  0  0
  -21.6209  -28.5072   23.5998 N   0  0  0  0  0  0  0  0  0  0  0  0
  -27.7998  -27.6054   25.6110 N   0  0  0  0  0  0  0  0  0  0  0  0
  -32.6749  -26.2102   17.7665 N   0  0  0  0  0  0  0  0  0  0  0  0
  -29.1542  -24.5198   26.1829 N   0  3  0  0  0  0  0  0  0  0  0  0
  -26.6370  -27.0681   14.4820 N   0  3  1  0  0  0  0  0  0  0  0  0
  -26.9849  -21.8613   23.9321 O   0  0  0  0  0  0  0  0  0  0  0  0
  -23.4361  -28.8509   22.1823 O   0  0  0  0  0  0  0  0  0  0  0  0
  -24.9966  -28.1006   25.9364 O   0  0  0  0  0  0  0  0  0  0  0  0
  -29.0108  -26.5295   23.9518 O   0  0  0  0  0  0  0  0  0  0  0  0
  -31.0587  -26.2255   19.4040 O   0  0  0  0  0  0  0  0  0  0  0  0
  -28.8041  -14.5621   21.9324 O   0  0  0  0  0  0  0  0  0  0  0  0
  -25.8814  -24.9590   18.1129 O   0  0  0  0  0  0  0  0  0  1  0  0
  -27.6917  -11.4309   17.5322 F   0  0  0  0  0  0  0  0  0  0  0  0
  -28.0273  -29.6314   17.1106 F   0  0  0  0  0  0  0  0  0  0  0  0
  -26.6456  -12.8349   21.9299 F   0  0  0  0  0  0  0  0  0  0  0  0
  1  2  1  0  0  0  0
  1  5  2  0  0  0  0
  2  6  2  0  0  0  0
  3 10  2  0  0  0  0
  3 18  1  0  0  0  0
  4 11  1  0  0  0  0
  4 18  2  0  0  0  0
  5 20  1  0  0  0  0
  6 22  1  0  0  0  0
  7 12  2  0  0  0  0
  7 21  1  0  0  0  0
  8  9  2  0  0  0  0
  8 24  1  0  0  0  0
  9 25  1  0  0  0  0
 10 26  1  0  0  0  0
 11 26  2  0  0  0  0
 12 27  1  0  0  0  0
 13 14  2  0  0  0  0
 13 28  1  0  0  0  0
 14 29  1  0  0  0  0
 15 23  1  0  0  0  0
 15 27  2  0  0  0  0
 16 24  2  0  0  0  0
 16 30  1  0  0  0  0
 17 29  2  0  0  0  0
 17 31  1  0  0  0  0
 18 32  1  0  0  0  0
 19 32  1  0  0  0  0
 19 33  2  0  0  0  0
 19 34  1  0  0  0  0
 20 22  2  0  0  0  0
 20 39  1  0  0  0  0
 21 23  2  0  0  0  0
 21 40  1  0  0  0  0
 22 48  1  0  0  0  0
 23 41  1  0  0  0  0
 24 58  1  0  0  0  0
 25 30  2  0  0  0  0
 25 59  1  0  0  0  0
 26 82  1  0  0  0  0
 27 83  1  0  0  0  0
 28 31  2  0  0  0  0
 28 82  1  0  0  0  0
 29 84  1  0  0  0  0
 30 85  1  0  0  0  0
 31 86  1  0  0  0  0
 32 66  2  0  0  0  0
 33 67  1  0  0  0  0
 33 70  1  0  0  0  0
 34 71  1  0  0  0  0
 34 77  2  0  0  0  0
 35 49  1  0  0  0  0
 35 72  1  0  0  0  0
 35 78  2  0  0  0  0
 36 63  1  0  0  0  0
 36 68  1  0  0  0  0
 36 79  2  0  0  0  0
 37 64  1  0  0  0  0
 37 73  1  0  0  0  0
 37 80  2  0  0  0  0
 38 69  1  0  0  0  0
 38 74  1  0  0  0  0
 38 81  2  0  0  0  0
 39 42  1  0  0  0  0
 40 49  1  0  0  0  0
 41 68  1  0  0  0  0
 42 44  1  0  0  0  0
 43 45  1  0  0  0  0
 43 46  1  0  0  0  0
 44 48  1  0  0  0  0
 45 50  1  0  0  0  0
 46 69  1  0  0  0  0
 47 50  1  0  0  0  0
 47 69  1  0  0  0  0
 48 72  1  0  0  0  0
 49 68  1  0  0  0  0
 50 67  1  0  0  0  0
 51 64  1  0  0  0  0
 52 65  1  0  0  0  0
 53 65  1  0  0  0  0
 54 65  1  0  0  0  0
 55 74  1  0  0  0  0
 56 75  1  0  0  0  0
 57 76  1  0  0  0  0
 58 74  1  0  0  0  0
 59 76  1  0  0  0  0
 60 61  1  0  0  0  0
 60 62  1  0  0  0  0
 61 76  1  0  0  0  0
 62 83  1  0  0  0  0
 63 65  1  0  0  0  0
 63 73  1  0  0  0  0
 64 75  1  0  0  0  0
 66 67  1  0  0  0  0
M  CHG  2  75   1  76   1
M  ISO  4  38 100  62 101  74 100  83 101
M  END
> <Batch ID>
0017

> <Smiles>
CNC(C)C(=O)NC(C(=O)N1Cc2cc([101O:1][101CH2:1]CCN(C)Cc3ccc(C[100N:0](C)[100C:0](=O)N4CCCC(n5nc(-c6ccc(Oc7ccc(F)cc7F)cc6)c(C(N)=O)c5N)C4)cc3F)ccc2CC1C(=O)NC1CCCc2ccccc21)C(C)(C)C

> <Shape>
0.219

> <Color>
0.061

> <Negative vol penalty>
0.000

$$$$

  -OEChem-04042321003D

 87 95  0     1  0  0  0  0  0999 V2000
  -22.3238  -10.9177   19.4658 C   0  0  0  0  0  0  0  0  0  0  0  0
  -21.8249  -12.1896   19.7281 C   0  0  0  0  0  0  0  0  0  0  0  0
  -31.0624  -26.0243   20.7890 C   0  0  0  0  0  0  0  0  0  0  0  0
  -30.0389  -26.8118   22.8309 C   0  0  0  0  0  0  0  0  0  0  0  0
  -23.6565  -10.6210   19.7484 C   0  0  0  0  0  0  0  0  0  0  0  0
  -22.6582  -13.1652   20.2742 C   0  0  0  0  0  0  0  0  0  0  0  0
  -22.5238  -19.1806   19.1328 C   0  0  0  0  0  0  0  0  0  0  0  0
  -19.6812  -26.6819   21.3417 C   0  0  0  0  0  0  0  0  0  0  0  0
  -20.2930  -27.9303   21.2283 C   0  0  0  0  0  0  0  0  0  0  0  0
  -32.3208  -26.1196   21.3830 C   0  0  0  0  0  0  0  0  0  0  0  0
  -31.2974  -26.9071   23.4250 C   0  0  0  0  0  0  0  0  0  0  0  0
  -21.9636  -20.2542   19.8238 C   0  0  0  0  0  0  0  0  0  0  0  0
  -35.8330  -26.4984   22.2459 C   0  0  0  0  0  0  0  0  0  0  0  0
  -36.8602  -27.0802   21.5029 C   0  0  0  0  0  0  0  0  0  0  0  0
  -24.0942  -20.6847   20.8699 C   0  0  0  0  0  0  0  0  0  0  0  0
  -19.3474  -27.0601   23.7045 C   0  0  0  0  0  0  0  0  0  0  0  0
  -35.5908  -29.1304   21.3534 C   0  0  0  0  0  0  0  0  0  0  0  0
  -29.9214  -26.3705   21.5130 C   0  0  0  0  0  0  0  0  0  0  0  0
  -27.7628  -25.1570   20.9001 C   0  0  0  0  0  0  0  0  0  0  0  0
  -24.5090  -11.5963   20.2892 C   0  0  0  0  0  0  0  0  0  0  0  0
  -23.8729  -18.8437   19.3138 C   0  0  0  0  0  0  0  0  0  0  0  0
  -24.0032  -12.8809   20.5655 C   0  0  0  0  0  0  0  0  0  0  0  0
  -24.6697  -19.6080   20.1781 C   0  0  0  0  0  0  0  0  0  0  0  0
  -19.2083  -26.2468   22.5798 C   0  0  0  0  0  0  0  0  0  0  0  0
  -20.4321  -28.7436   22.3530 C   0  0  0  0  0  0  0  0  0  0  0  0
  -32.4383  -26.5610   22.7010 C   0  0  0  0  0  0  0  0  0  0  0  0
  -22.7481  -21.0046   20.6947 C   0  0  0  0  0  0  0  0  0  0  0  0
  -34.6847  -27.2326   22.5426 C   0  0  0  0  0  0  0  0  0  0  0  0
  -36.7391  -28.3962   21.0567 C   0  0  0  0  0  0  0  0  0  0  0  0
  -19.9593  -28.3085   23.5911 C   0  0  0  0  0  0  0  0  0  0  0  0
  -34.5636  -28.5486   22.0964 C   0  0  0  0  0  0  0  0  0  0  0  0
  -28.6212  -26.2728   20.8997 C   0  0  0  0  0  0  0  0  0  0  0  0
  -26.6622  -25.5703   20.1899 C   0  0  0  0  0  0  0  0  0  0  0  0
  -27.9441  -23.8627   21.4896 C   0  0  0  0  0  0  0  0  0  0  0  0
  -25.4207  -16.2892   20.4011 C   0  0  0  0  0  0  0  0  0  0  0  0
  -23.4849  -30.3653   19.3773 C   0  0  0  0  0  0  0  0  0  0  0  0
  -28.0373  -17.9502   19.4438 C   0  0  0  0  0  0  0  0  0  0  0  0
  -29.4500  -20.9753   18.7369 C   0  0  0  0  0  0  0  0  0  0  0  0
  -25.9298  -11.2148   20.6218 C   0  0  0  0  0  0  0  0  0  0  0  0
  -24.4688  -17.6993   18.5407 C   0  0  0  0  0  0  0  0  0  0  0  0
  -26.1284  -19.3001   20.3921 C   0  0  0  0  0  0  0  0  0  0  0  0
  -26.8450  -12.4148   20.8509 C   0  0  0  0  0  0  0  0  0  0  0  0
  -25.7650  -29.1386   16.9001 C   0  0  0  0  0  0  0  0  0  0  0  0
  -26.1714  -13.4331   21.7654 C   0  0  0  0  0  0  0  0  0  0  0  0
  -26.6711  -28.1904   17.6844 C   0  0  0  0  0  0  0  0  0  0  0  0
  -25.3434  -30.3356   17.7465 C   0  0  0  0  0  0  0  0  0  0  0  0
  -25.5956  -29.0179   19.8254 C   0  0  0  0  0  0  0  0  0  0  0  0
  -24.8823  -13.9733   21.1345 C   0  0  1  0  0  0  0  0  0  0  0  0
  -25.7244  -17.1278   19.1919 C   0  0  1  0  0  0  0  0  0  0  0  0
  -26.0197  -27.7791   19.0167 C   0  0  2  0  0  0  0  0  0  0  0  0
  -16.2404  -25.3091   23.2515 C   0  0  0  0  0  0  0  0  0  0  0  0
  -31.6158  -22.0177   18.0154 C   0  0  0  0  0  0  0  0  0  0  0  0
  -29.1580  -17.5617   22.2550 C   0  0  0  0  0  0  0  0  0  0  0  0
  -30.8115  -19.3784   21.7716 C   0  0  0  0  0  0  0  0  0  0  0  0
  -30.8313  -17.2836   20.4173 C   0  0  0  0  0  0  0  0  0  0  0  0
  -21.2023  -30.8594   23.3971 C   0  0  0  0  0  0  0  0  0  0  0  0
  -28.2343  -22.0737   16.2722 C   0  0  0  0  0  0  0  0  0  0  0  0
  -22.9383  -29.8733   20.6938 C   0  0  0  0  0  0  0  0  0  0  0  0
  -20.4064  -23.5102   22.0068 C   0  0  0  0  0  0  0  0  0  0  0  0
  -17.5564  -24.7759   23.7058 C   0  0  0  0  0  0  0  0  0  0  0  0
  -21.5588  -30.4578   20.9557 C   0  0  0  0  0  0  0  0  0  0  0  0
  -18.9445  -23.8984   21.8212 C   0  0  0  0  0  0  0  0  0  0  0  0
  -20.8225  -22.3273   21.1404 C   0  0  0  0  0  0  0  0  0  1  0  0
  -28.9618  -18.9538   20.0895 C   0  0  1  0  0  0  0  0  0  0  0  0
  -30.2820  -21.4477   17.5583 C   0  0  2  0  0  0  0  0  0  0  0  0
  -29.9127  -18.2992   21.1311 C   0  0  0  0  0  0  0  0  0  0  0  0
  -28.1100  -27.3165   20.2415 N   0  0  0  0  0  0  0  0  0  0  0  0
  -26.9184  -26.8583   19.8215 N   0  0  0  0  0  0  0  0  0  0  0  0
  -26.6632  -18.1675   19.6182 N   0  0  0  0  0  0  0  0  0  0  0  0
  -24.7498  -29.9034   19.0130 N   0  0  0  0  0  0  0  0  0  0  0  0
  -25.5099  -24.9541   19.8509 N   0  0  0  0  0  0  0  0  0  0  0  0
  -29.1339  -23.6056   22.1843 N   0  0  0  0  0  0  0  0  0  0  0  0
  -25.1906  -14.9564   20.1181 N   0  0  0  0  0  0  0  0  0  0  0  0
  -29.6494  -19.6363   18.9987 N   0  0  0  0  0  0  0  0  0  0  0  0
  -21.0517  -30.0049   22.2360 N   0  0  3  0  0  0  0  0  0  0  0  0
  -18.5920  -24.9924   22.6936 N   0  0  3  0  0  0  0  0  0  0  0  0
  -29.5540  -22.5048   16.8009 N   0  3  0  0  0  0  0  0  0  0  0  0
  -27.0837  -22.9555   21.3890 O   0  0  0  0  0  0  0  0  0  0  0  0
  -25.3983  -16.8123   21.5091 O   0  0  0  0  0  0  0  0  0  0  0  0
  -22.8052  -31.1347   18.6931 O   0  0  0  0  0  0  0  0  0  0  0  0
  -28.5166  -17.0120   18.8020 O   0  0  0  0  0  0  0  0  0  0  0  0
  -28.7012  -21.7205   19.3649 O   0  0  0  0  0  0  0  0  0  0  0  0
  -33.6661  -26.6538   23.2810 O   0  0  0  0  0  0  0  0  0  0  0  0
  -22.2037  -22.0526   21.3709 O   0  0  0  0  0  0  0  0  0  1  0  0
  -37.7262  -28.9552   20.3445 F   0  0  0  0  0  0  0  0  0  0  0  0
  -20.0868  -29.0822   24.6785 F   0  0  0  0  0  0  0  0  0  0  0  0
  -33.4633  -29.2593   22.3793 F   0  0  0  0  0  0  0  0  0  0  0  0
  1  2  1  0  0  0  0
  1  5  2  0  0  0  0
  2  6  2  0  0  0  0
  3 10  2  0  0  0  0
  3 18  1  0  0  0  0
  4 11  1  0  0  0  0
  4 18  2  0  0  0  0
  5 20  1  0  0  0  0
  6 22  1  0  0  0  0
  7 12  2  0  0  0  0
  7 21  1  0  0  0  0
  8  9  2  0  0  0  0
  8 24  1  0  0  0  0
  9 25  1  0  0  0  0
 10 26  1  0  0  0  0
 11 26  2  0  0  0  0
 12 27  1  0  0  0  0
 13 14  2  0  0  0  0
 13 28  1  0  0  0  0
 14 29  1  0  0  0  0
 15 23  1  0  0  0  0
 15 27  2  0  0  0  0
 16 24  2  0  0  0  0
 16 30  1  0  0  0  0
 17 29  2  0  0  0  0
 17 31  1  0  0  0  0
 18 32  1  0  0  0  0
 19 32  1  0  0  0  0
 19 33  2  0  0  0  0
 19 34  1  0  0  0  0
 20 22  2  0  0  0  0
 20 39  1  0  0  0  0
 21 23  2  0  0  0  0
 21 40  1  0  0  0  0
 22 48  1  0  0  0  0
 23 41  1  0  0  0  0
 24 76  1  0  0  0  0
 25 30  2  0  0  0  0
 25 75  1  0  0  0  0
 26 83  1  0  0  0  0
 27 84  1  0  0  0  0
 28 31  2  0  0  0  0
 28 83  1  0  0  0  0
 29 85  1  0  0  0  0
 30 86  1  0  0  0  0
 31 87  1  0  0  0  0
 32 67  2  0  0  0  0
 33 68  1  0  0  0  0
 33 71  1  0  0  0  0
 34 72  1  0  0  0  0
 34 78  2  0  0  0  0
 35 49  1  0  0  0  0
 35 73  1  0  0  0  0
 35 79  2  0  0  0  0
 36 58  1  0  0  0  0
 36 70  1  0  0  0  0
 36 80  2  0  0  0  0
 37 64  1  0  0  0  0
 37 69  1  0  0  0  0
 37 81  2  0  0  0  0
 38 65  1  0  0  0  0
 38 74  1  0  0  0  0
 38 82  2  0  0  0  0
 39 42  1  0  0  0  0
 40 49  1  0  0  0  0
 41 69  1  0  0  0  0
 42 44  1  0  0  0  0
 43 45  1  0  0  0  0
 43 46  1  0  0  0  0
 44 48  1  0  0  0  0
 45 50  1  0  0  0  0
 46 70  1  0  0  0  0
 47 50  1  0  0  0  0
 47 70  1  0  0  0  0
 48 73  1  0  0  0  0
 49 69  1  0  0  0  0
 50 68  1  0  0  0  0
 51 60  1  0  0  0  0
 52 65  1  0  0  0  0
 53 66  1  0  0  0  0
 54 66  1  0  0  0  0
 55 66  1  0  0  0  0
 56 75  1  0  0  0  0
 57 77  1  0  0  0  0
 58 61  1  0  0  0  0
 59 62  1  0  0  0  0
 59 63  1  0  0  0  0
 60 76  1  0  0  0  0
 61 75  1  0  0  0  0
 62 76  1  0  0  0  0
 63 84  1  0  0  0  0
 64 66  1  0  0  0  0
 64 74  1  0  0  0  0
 65 77  1  0  0  0  0
 67 68  1  0  0  0  0
M  CHG  1  77   1
M  ISO  4  36 100  58 100  63 101  84 101
M  END
> <Batch ID>
0017

> <Smiles>
CCN(CC[101CH2:1][101O:1]c1ccc2c(c1)CN(C(=O)C(NC(=O)C(C)NC)C(C)(C)C)C(C(=O)NC1CCCc3ccccc31)C2)c1ccc(N(C)C[100CH2:0][100C:0](=O)N2CCCC(n3nc(-c4ccc(Oc5ccc(F)cc5F)cc4)c(C(N)=O)c3N)C2)c(F)c1

> <Shape>
0.225

> <Color>
0.070

> <Negative vol penalty>
0.000

$$$$

  -OEChem-04042321003D

 78 86  0     1  0  0  0  0  0999 V2000
  -30.6640  -31.3123   25.6284 C   0  0  0  0  0  0  0  0  0  0  0  0
  -30.4587  -30.0107   25.1823 C   0  0  0  0  0  0  0  0  0  0  0  0
  -24.6100   -9.1991   21.9653 C   0  0  0  0  0  0  0  0  0  0  0  0
  -23.0964  -10.0844   20.3032 C   0  0  0  0  0  0  0  0  0  0  0  0
  -29.6133  -32.2286   25.6090 C   0  0  0  0  0  0  0  0  0  0  0  0
  -29.2021  -29.6242   24.7175 C   0  0  0  0  0  0  0  0  0  0  0  0
  -28.0050  -25.6600   20.2056 C   0  0  0  0  0  0  0  0  0  0  0  0
  -23.5573   -8.4938   22.5482 C   0  0  0  0  0  0  0  0  0  0  0  0
  -22.0437   -9.3790   20.8862 C   0  0  0  0  0  0  0  0  0  0  0  0
  -27.6557  -24.3103   20.2109 C   0  0  0  0  0  0  0  0  0  0  0  0
  -21.8331   -5.6471   21.9507 C   0  0  0  0  0  0  0  0  0  0  0  0
  -22.0604   -4.3166   22.3023 C   0  0  0  0  0  0  0  0  0  0  0  0
  -25.3270  -24.9184   20.0487 C   0  0  0  0  0  0  0  0  0  0  0  0
  -21.5667   -4.8416   24.6083 C   0  0  0  0  0  0  0  0  0  0  0  0
  -24.3796   -9.9945   20.8428 C   0  0  0  0  0  0  0  0  0  0  0  0
  -26.3267  -10.2778   19.2192 C   0  0  0  0  0  0  0  0  0  0  0  0
  -28.3457  -31.8558   25.1347 C   0  0  0  0  0  0  0  0  0  0  0  0
  -27.0155  -26.6510   20.1326 C   0  0  0  0  0  0  0  0  0  0  0  0
  -28.1331  -30.5360   24.6930 C   0  0  0  0  0  0  0  0  0  0  0  0
  -25.6664  -26.2799   20.0399 C   0  0  0  0  0  0  0  0  0  0  0  0
  -22.2741   -8.5837   22.0087 C   0  0  0  0  0  0  0  0  0  0  0  0
  -26.3164  -23.9393   20.1354 C   0  0  0  0  0  0  0  0  0  0  0  0
  -21.4727   -6.5750   22.9279 C   0  0  0  0  0  0  0  0  0  0  0  0
  -21.9272   -3.9138   23.6310 C   0  0  0  0  0  0  0  0  0  0  0  0
  -21.3395   -6.1722   24.2567 C   0  0  0  0  0  0  0  0  0  0  0  0
  -25.4665  -10.7238   20.2404 C   0  0  0  0  0  0  0  0  0  0  0  0
  -27.1794  -11.3327   19.0035 C   0  0  0  0  0  0  0  0  0  0  0  0
  -26.3527   -9.0222   18.5274 C   0  0  0  0  0  0  0  0  0  0  0  0
  -26.0699  -29.0207   22.0284 C   0  0  0  0  0  0  0  0  0  0  0  0
  -24.1671  -29.7579   19.5068 C   0  0  0  0  0  0  0  0  0  0  0  0
  -22.5545  -28.7059   16.6890 C   0  0  0  0  0  0  0  0  0  0  0  0
  -28.2122  -16.5625   18.2663 C   0  0  0  0  0  0  0  0  0  0  0  0
  -27.2283  -32.8679   25.1771 C   0  0  0  0  0  0  0  0  0  0  0  0
  -27.4103  -28.1020   20.1008 C   0  0  0  0  0  0  0  0  0  0  0  0
  -24.5672  -27.3047   19.9394 C   0  0  0  0  0  0  0  0  0  0  0  0
  -26.0256  -32.4837   24.3190 C   0  0  0  0  0  0  0  0  0  0  0  0
  -27.9267  -15.5709   21.6437 C   0  0  0  0  0  0  0  0  0  0  0  0
  -25.6456  -31.0253   24.5549 C   0  0  0  0  0  0  0  0  0  0  0  0
  -27.3181  -14.1767   21.4993 C   0  0  0  0  0  0  0  0  0  0  0  0
  -27.1618  -19.9287   17.8057 C   0  0  0  0  0  0  0  0  0  0  0  0
  -28.2513  -19.6217   20.0697 C   0  0  0  0  0  0  0  0  0  0  0  0
  -26.2556  -21.0076   18.3926 C   0  0  0  0  0  0  0  0  0  0  0  0
  -27.3424  -20.7024   20.6493 C   0  0  0  0  0  0  0  0  0  0  0  0
  -27.3293  -16.5648   20.6458 C   0  0  0  0  0  0  0  0  0  0  0  0
  -26.7846  -14.7161   19.0939 C   0  0  0  0  0  0  0  0  0  0  0  0
  -26.7908  -30.0858   24.1583 C   0  0  1  0  0  0  0  0  0  0  0  0
  -26.2879  -29.0364   20.5418 C   0  0  1  0  0  0  0  0  0  0  0  0
  -27.4104  -13.6841   20.0447 C   0  0  2  0  0  0  0  0  0  0  0  0
  -27.5962  -18.9227   18.8755 C   0  0  0  0  0  0  0  0  0  0  0  0
  -26.9083  -21.7064   19.5830 C   0  0  0  0  0  0  0  0  0  1  0  0
  -21.0466  -29.5279   14.8593 C   0  0  0  0  0  0  0  0  0  0  0  0
  -21.8042  -29.7118   21.4368 C   0  0  0  0  0  0  0  0  0  0  0  0
  -20.2782  -29.5874   19.4558 C   0  0  0  0  0  0  0  0  0  0  0  0
  -21.7529  -31.5748   19.7692 C   0  0  0  0  0  0  0  0  0  0  0  0
  -29.5899  -18.4676   17.5241 C   0  0  0  0  0  0  0  0  0  0  0  0
  -24.5493  -28.0651   14.5987 C   0  0  0  0  0  0  0  0  0  0  0  0
  -22.7751  -29.3711   19.0688 C   0  0  1  0  0  0  0  0  0  0  0  0
  -22.4858  -29.2911   15.2900 C   0  0  2  0  0  0  0  0  0  0  0  0
  -21.6730  -30.0418   19.9365 C   0  0  0  0  0  0  0  0  0  0  0  0
  -25.7471  -11.9652   20.6455 N   0  0  0  0  0  0  0  0  0  0  0  0
  -26.7933  -12.3083   19.8749 N   0  0  0  0  0  0  0  0  0  0  0  0
  -25.0036  -28.7106   19.9184 N   0  0  0  0  0  0  0  0  0  0  0  0
  -27.3946  -16.0354   19.2767 N   0  0  0  0  0  0  0  0  0  0  0  0
  -28.2143  -11.5117   18.1553 N   0  0  0  0  0  0  0  0  0  0  0  0
  -25.4051   -8.0492   18.8732 N   0  0  0  0  0  0  0  0  0  0  0  0
  -26.8439  -29.9327   22.7202 N   0  0  0  0  0  0  0  0  0  0  0  0
  -22.6917  -29.6880   17.6472 N   0  0  0  0  0  0  0  0  0  0  0  0
  -28.4890  -17.9370   18.3158 N   0  0  0  0  0  0  0  0  0  0  0  0
  -23.1236  -28.3670   14.3101 N   0  3  0  0  0  0  0  0  0  0  0  0
  -27.2018   -8.7646   17.6407 O   0  0  0  0  0  0  0  0  0  0  0  0
  -25.2584  -28.2400   22.5118 O   0  0  0  0  0  0  0  0  0  0  0  0
  -24.5023  -30.9447   19.4778 O   0  0  0  0  0  0  0  0  0  0  0  0
  -22.4891  -27.4987   16.9101 O   0  0  0  0  0  0  0  0  0  0  0  0
  -28.6645  -15.8466   17.3634 O   0  0  0  0  0  0  0  0  0  0  0  0
  -21.2467   -7.8954   22.5771 O   0  0  0  0  0  0  0  0  0  0  0  0
  -25.9727  -22.6226   20.1411 O   0  0  0  0  0  0  0  0  0  1  0  0
  -22.1439   -2.6358   23.9683 F   0  0  0  0  0  0  0  0  0  0  0  0
  -20.9923   -7.0587   25.1997 F   0  0  0  0  0  0  0  0  0  0  0  0
  1  2  1  0  0  0  0
  1  5  2  0  0  0  0
  2  6  2  0  0  0  0
  3  8  2  0  0  0  0
  3 15  1  0  0  0  0
  4  9  1  0  0  0  0
  4 15  2  0  0  0  0
  5 17  1  0  0  0  0
  6 19  1  0  0  0  0
  7 10  2  0  0  0  0
  7 18  1  0  0  0  0
  8 21  1  0  0  0  0
  9 21  2  0  0  0  0
 10 22  1  0  0  0  0
 11 12  2  0  0  0  0
 11 23  1  0  0  0  0
 12 24  1  0  0  0  0
 13 20  1  0  0  0  0
 13 22  2  0  0  0  0
 14 24  2  0  0  0  0
 14 25  1  0  0  0  0
 15 26  1  0  0  0  0
 16 26  1  0  0  0  0
 16 27  2  0  0  0  0
 16 28  1  0  0  0  0
 17 19  2  0  0  0  0
 17 33  1  0  0  0  0
 18 20  2  0  0  0  0
 18 34  1  0  0  0  0
 19 46  1  0  0  0  0
 20 35  1  0  0  0  0
 21 75  1  0  0  0  0
 22 76  1  0  0  0  0
 23 25  2  0  0  0  0
 23 75  1  0  0  0  0
 24 77  1  0  0  0  0
 25 78  1  0  0  0  0
 26 60  2  0  0  0  0
 27 61  1  0  0  0  0
 27 64  1  0  0  0  0
 28 65  1  0  0  0  0
 28 70  2  0  0  0  0
 29 47  1  0  0  0  0
 29 66  1  0  0  0  0
 29 71  2  0  0  0  0
 30 57  1  0  0  0  0
 30 62  1  0  0  0  0
 30 72  2  0  0  0  0
 31 58  1  0  0  0  0
 31 67  1  0  0  0  0
 31 73  2  0  0  0  0
 32 63  1  0  0  0  0
 32 68  1  0  0  0  0
 32 74  2  0  0  0  0
 33 36  1  0  0  0  0
 34 47  1  0  0  0  0
 35 62  1  0  0  0  0
 36 38  1  0  0  0  0
 37 39  1  0  0  0  0
 37 44  1  0  0  0  0
 38 46  1  0  0  0  0
 39 48  1  0  0  0  0
 40 42  1  0  0  0  0
 40 49  1  0  0  0  0
 41 43  1  0  0  0  0
 41 49  1  0  0  0  0
 42 50  1  0  0  0  0
 43 50  1  0  0  0  0
 44 63  1  0  0  0  0
 45 48  1  0  0  0  0
 45 63  1  0  0  0  0
 46 66  1  0  0  0  0
 47 62  1  0  0  0  0
 48 61  1  0  0  0  0
 49 68  1  0  0  0  0
 50 76  1  0  0  0  0
 51 58  1  0  0  0  0
 52 59  1  0  0  0  0
 53 59  1  0  0  0  0
 54 59  1  0  0  0  0
 55 68  1  0  0  0  0
 56 69  1  0  0  0  0
 57 59  1  0  0  0  0
 57 67  1  0  0  0  0
 58 69  1  0  0  0  0
 60 61  1  0  0  0  0
M  CHG  1  69   1
M  ISO  4  32 100  50 101  68 100  76 101
M  END
> <Batch ID>
0017

> <Smiles>
CNC(C)C(=O)NC(C(=O)N1Cc2cc([101O:1][101CH:1]3CCC([100N:0](C)[100C:0](=O)N4CCCC(n5nc(-c6ccc(Oc7ccc(F)cc7F)cc6)c(C(N)=O)c5N)C4)CC3)ccc2CC1C(=O)NC1CCCc2ccccc21)C(C)(C)C

> <Shape>
0.271

> <Color>
0.072

> <Negative vol penalty>
0.000

$$$$

  -OEChem-04042321003D

 81 89  0     1  0  0  0  0  0999 V2000
  -22.2354   -6.5467   23.0097 C   0  0  0  0  0  0  0  0  0  0  0  0
  -23.3911   -7.1347   23.5135 C   0  0  0  0  0  0  0  0  0  0  0  0
  -24.8561  -31.3587   19.9258 C   0  0  0  0  0  0  0  0  0  0  0  0
  -24.6668  -30.5234   22.1849 C   0  0  0  0  0  0  0  0  0  0  0  0
  -21.7277   -6.9543   21.7768 C   0  0  0  0  0  0  0  0  0  0  0  0
  -24.0406   -8.1300   22.7841 C   0  0  0  0  0  0  0  0  0  0  0  0
  -27.8886  -14.1041   23.6895 C   0  0  0  0  0  0  0  0  0  0  0  0
  -29.1904  -19.7703   19.4767 C   0  0  0  0  0  0  0  0  0  0  0  0
  -28.0475  -20.5593   19.6063 C   0  0  0  0  0  0  0  0  0  0  0  0
  -24.2023  -32.5311   20.3045 C   0  0  0  0  0  0  0  0  0  0  0  0
  -24.0130  -31.6959   22.5636 C   0  0  0  0  0  0  0  0  0  0  0  0
  -29.0959  -14.6779   23.2935 C   0  0  0  0  0  0  0  0  0  0  0  0
  -24.8537  -34.8772   23.3337 C   0  0  0  0  0  0  0  0  0  0  0  0
  -25.2518  -35.4834   24.5252 C   0  0  0  0  0  0  0  0  0  0  0  0
  -28.0833  -15.3576   21.2122 C   0  0  0  0  0  0  0  0  0  0  0  0
  -30.2427  -21.0000   21.2705 C   0  0  0  0  0  0  0  0  0  0  0  0
  -23.0152  -35.2278   25.4024 C   0  0  0  0  0  0  0  0  0  0  0  0
  -25.0883  -30.3547   20.8660 C   0  0  0  0  0  0  0  0  0  0  0  0
  -27.1487  -28.8959   20.5002 C   0  0  0  0  0  0  0  0  0  0  0  0
  -22.3658   -7.9619   21.0365 C   0  0  0  0  0  0  0  0  0  0  0  0
  -26.7707  -14.1432   22.8438 C   0  0  0  0  0  0  0  0  0  0  0  0
  -23.5417   -8.5506   21.5396 C   0  0  0  0  0  0  0  0  0  0  0  0
  -26.8622  -14.7857   21.6009 C   0  0  0  0  0  0  0  0  0  0  0  0
  -30.2880  -19.9906   20.3089 C   0  0  0  0  0  0  0  0  0  0  0  0
  -28.0021  -21.5686   20.5679 C   0  0  0  0  0  0  0  0  0  0  0  0
  -23.7807  -32.6998   21.6234 C   0  0  0  0  0  0  0  0  0  0  0  0
  -29.1942  -15.3023   22.0535 C   0  0  0  0  0  0  0  0  0  0  0  0
  -23.5364  -34.4463   23.1766 C   0  0  0  0  0  0  0  0  0  0  0  0
  -24.3326  -35.6587   25.5595 C   0  0  0  0  0  0  0  0  0  0  0  0
  -29.0997  -21.7890   21.4001 C   0  0  0  0  0  0  0  0  0  0  0  0
  -22.6172  -34.6216   24.2109 C   0  0  0  0  0  0  0  0  0  0  0  0
  -25.7631  -29.1431   20.4752 C   0  0  0  0  0  0  0  0  0  0  0  0
  -27.2764  -27.6095   20.0361 C   0  0  0  0  0  0  0  0  0  0  0  0
  -28.2243  -29.7524   20.9065 C   0  0  0  0  0  0  0  0  0  0  0  0
  -24.9707  -11.9553   21.4027 C   0  0  0  0  0  0  0  0  0  0  0  0
  -23.1873  -14.5342   20.5715 C   0  0  0  0  0  0  0  0  0  0  0  0
  -23.0386  -17.8999   20.0262 C   0  0  0  0  0  0  0  0  0  0  0  0
  -25.6659  -22.2801   19.9499 C   0  0  0  0  0  0  0  0  0  0  0  0
  -21.8061   -8.3361   19.6869 C   0  0  0  0  0  0  0  0  0  0  0  0
  -25.4681  -13.5429   23.2969 C   0  0  0  0  0  0  0  0  0  0  0  0
  -25.6857  -14.8726   20.6646 C   0  0  0  0  0  0  0  0  0  0  0  0
  -22.3440   -9.6600   19.1501 C   0  0  0  0  0  0  0  0  0  0  0  0
  -23.8915  -24.5445   17.8519 C   0  0  0  0  0  0  0  0  0  0  0  0
  -23.8594   -9.7252   19.3113 C   0  0  0  0  0  0  0  0  0  0  0  0
  -24.3342  -25.9224   18.3494 C   0  0  0  0  0  0  0  0  0  0  0  0
  -23.7503  -23.5458   18.9992 C   0  0  0  0  0  0  0  0  0  0  0  0
  -25.3727  -24.8019   20.3626 C   0  0  0  0  0  0  0  0  0  0  0  0
  -24.2607   -9.6508   20.7895 C   0  0  1  0  0  0  0  0  0  0  0  0
  -24.5380  -13.1909   22.1401 C   0  0  1  0  0  0  0  0  0  0  0  0
  -25.5915  -25.8244   19.2356 C   0  0  2  0  0  0  0  0  0  0  0  0
  -21.4541  -19.7128   19.3191 C   0  0  0  0  0  0  0  0  0  0  0  0
  -23.4219  -13.6060   17.6744 C   0  0  0  0  0  0  0  0  0  0  0  0
  -22.6747  -15.8852   16.9566 C   0  0  0  0  0  0  0  0  0  0  0  0
  -21.1575  -14.4489   18.3196 C   0  0  0  0  0  0  0  0  0  0  0  0
  -23.3363  -19.3251   22.6028 C   0  0  0  0  0  0  0  0  0  0  0  0
  -31.5241  -19.1386   20.1682 C   0  0  0  0  0  0  0  0  0  0  0  0
  -31.5081  -17.8814   21.0404 C   0  0  0  0  0  0  0  0  0  0  0  0
  -30.2977  -16.9892   20.7915 C   0  0  0  0  0  0  0  0  0  1  0  0
  -23.1807  -15.5006   19.4117 C   0  0  1  0  0  0  0  0  0  0  0  0
  -22.0507  -18.9534   20.4938 C   0  0  2  0  0  0  0  0  0  0  0  0
  -22.6316  -14.8570   18.1071 C   0  0  0  0  0  0  0  0  0  0  0  0
  -25.0607  -28.0977   20.0304 N   0  0  0  0  0  0  0  0  0  0  0  0
  -26.0088  -27.1812   19.7714 N   0  0  0  0  0  0  0  0  0  0  0  0
  -24.4356  -14.2651   21.1502 N   0  0  0  0  0  0  0  0  0  0  0  0
  -24.9806  -23.5034   19.7925 N   0  0  0  0  0  0  0  0  0  0  0  0
  -28.3481  -26.8142   19.8326 N   0  0  0  0  0  0  0  0  0  0  0  0
  -27.9166  -31.0434   21.3573 N   0  0  0  0  0  0  0  0  0  0  0  0
  -26.8399  -22.3689   20.6970 N   0  0  0  0  0  0  0  0  0  0  0  0
  -24.0473  -10.9279   21.4360 N   0  0  0  0  0  0  0  0  0  0  0  0
  -22.4347  -16.6714   19.8601 N   0  0  0  0  0  0  0  0  0  0  0  0
  -22.7245  -19.9325   21.3929 N   0  3  0  0  0  0  0  0  0  0  0  0
  -29.4240  -29.3897   20.8555 O   0  0  0  0  0  0  0  0  0  0  0  0
  -26.0609  -11.9361   20.8435 O   0  0  0  0  0  0  0  0  0  0  0  0
  -22.1230  -14.0420   20.9545 O   0  0  0  0  0  0  0  0  0  0  0  0
  -24.2263  -18.1432   19.8246 O   0  0  0  0  0  0  0  0  0  0  0  0
  -25.2567  -21.2362   19.4352 O   0  0  0  0  0  0  0  0  0  0  0  0
  -23.1430  -33.8439   21.9934 O   0  0  0  0  0  0  0  0  0  0  0  0
  -30.3717  -15.8626   21.6643 O   0  0  0  0  0  0  0  0  0  1  0  0
  -24.7154  -36.2395   26.7042 F   0  0  0  0  0  0  0  0  0  0  0  0
  -29.0677  -22.7573   22.3268 F   0  0  0  0  0  0  0  0  0  0  0  0
  -21.3506  -34.2086   24.0663 F   0  0  0  0  0  0  0  0  0  0  0  0
  1  2  1  0  0  0  0
  1  5  2  0  0  0  0
  2  6  2  0  0  0  0
  3 10  2  0  0  0  0
  3 18  1  0  0  0  0
  4 11  1  0  0  0  0
  4 18  2  0  0  0  0
  5 20  1  0  0  0  0
  6 22  1  0  0  0  0
  7 12  2  0  0  0  0
  7 21  1  0  0  0  0
  8  9  2  0  0  0  0
  8 24  1  0  0  0  0
  9 25  1  0  0  0  0
 10 26  1  0  0  0  0
 11 26  2  0  0  0  0
 12 27  1  0  0  0  0
 13 14  2  0  0  0  0
 13 28  1  0  0  0  0
 14 29  1  0  0  0  0
 15 23  1  0  0  0  0
 15 27  2  0  0  0  0
 16 24  2  0  0  0  0
 16 30  1  0  0  0  0
 17 29  2  0  0  0  0
 17 31  1  0  0  0  0
 18 32  1  0  0  0  0
 19 32  1  0  0  0  0
 19 33  2  0  0  0  0
 19 34  1  0  0  0  0
 20 22  2  0  0  0  0
 20 39  1  0  0  0  0
 21 23  2  0  0  0  0
 21 40  1  0  0  0  0
 22 48  1  0  0  0  0
 23 41  1  0  0  0  0
 24 56  1  0  0  0  0
 25 30  2  0  0  0  0
 25 68  1  0  0  0  0
 26 77  1  0  0  0  0
 27 78  1  0  0  0  0
 28 31  2  0  0  0  0
 28 77  1  0  0  0  0
 29 79  1  0  0  0  0
 30 80  1  0  0  0  0
 31 81  1  0  0  0  0
 32 62  2  0  0  0  0
 33 63  1  0  0  0  0
 33 66  1  0  0  0  0
 34 67  1  0  0  0  0
 34 72  2  0  0  0  0
 35 49  1  0  0  0  0
 35 69  1  0  0  0  0
 35 73  2  0  0  0  0
 36 59  1  0  0  0  0
 36 64  1  0  0  0  0
 36 74  2  0  0  0  0
 37 60  1  0  0  0  0
 37 70  1  0  0  0  0
 37 75  2  0  0  0  0
 38 65  1  0  0  0  0
 38 68  1  0  0  0  0
 38 76  2  0  0  0  0
 39 42  1  0  0  0  0
 40 49  1  0  0  0  0
 41 64  1  0  0  0  0
 42 44  1  0  0  0  0
 43 45  1  0  0  0  0
 43 46  1  0  0  0  0
 44 48  1  0  0  0  0
 45 50  1  0  0  0  0
 46 65  1  0  0  0  0
 47 50  1  0  0  0  0
 47 65  1  0  0  0  0
 48 69  1  0  0  0  0
 49 64  1  0  0  0  0
 50 63  1  0  0  0  0
 51 60  1  0  0  0  0
 52 61  1  0  0  0  0
 53 61  1  0  0  0  0
 54 61  1  0  0  0  0
 55 71  1  0  0  0  0
 56 57  1  0  0  0  0
 57 58  1  0  0  0  0
 58 78  1  0  0  0  0
 59 61  1  0  0  0  0
 59 70  1  0  0  0  0
 60 71  1  0  0  0  0
 62 63  1  0  0  0  0
M  CHG  1  71   1
M  ISO  4  38 100  58 101  68 100  78 101
M  END
> <Batch ID>
0017

> <Smiles>
CNC(C)C(=O)NC(C(=O)N1Cc2cc([101O:1][101CH2:1]CCc3ccc([100NH:0][100C:0](=O)N4CCCC(n5nc(-c6ccc(Oc7ccc(F)cc7F)cc6)c(C(N)=O)c5N)C4)c(F)c3)ccc2CC1C(=O)NC1CCCc2ccccc21)C(C)(C)C

> <Shape>
0.242

> <Color>
0.079

> <Negative vol penalty>
0.000

$$$$

  -OEChem-04042321003D

 84 92  0     1  0  0  0  0  0999 V2000
  -31.3851  -25.2396   17.9816 C   0  0  0  0  0  0  0  0  0  0  0  0
  -30.0150  -25.0326   18.1052 C   0  0  0  0  0  0  0  0  0  0  0  0
  -27.6061  -14.9481   19.7239 C   0  0  0  0  0  0  0  0  0  0  0  0
  -25.2245  -15.2319   19.4332 C   0  0  0  0  0  0  0  0  0  0  0  0
  -32.0725  -25.9529   18.9628 C   0  0  0  0  0  0  0  0  0  0  0  0
  -29.3316  -25.5380   19.2106 C   0  0  0  0  0  0  0  0  0  0  0  0
  -23.6015  -27.6965   19.3253 C   0  0  0  0  0  0  0  0  0  0  0  0
  -21.2718  -23.8504   23.6345 C   0  0  0  0  0  0  0  0  0  0  0  0
  -22.5274  -23.5294   23.1187 C   0  0  0  0  0  0  0  0  0  0  0  0
  -27.4015  -13.6224   20.1062 C   0  0  0  0  0  0  0  0  0  0  0  0
  -25.0199  -13.9061   19.8155 C   0  0  0  0  0  0  0  0  0  0  0  0
  -22.3899  -27.1212   19.7058 C   0  0  0  0  0  0  0  0  0  0  0  0
  -24.9111  -12.1308   22.6908 C   0  0  0  0  0  0  0  0  0  0  0  0
  -23.8844  -11.8690   23.5980 C   0  0  0  0  0  0  0  0  0  0  0  0
  -22.6134  -28.1123   21.8938 C   0  0  0  0  0  0  0  0  0  0  0  0
  -20.2238  -22.5222   21.9098 C   0  0  0  0  0  0  0  0  0  0  0  0
  -22.8117  -10.4402   21.9717 C   0  0  0  0  0  0  0  0  0  0  0  0
  -26.5175  -15.7529   19.3874 C   0  0  0  0  0  0  0  0  0  0  0  0
  -26.9449  -17.6082   17.6895 C   0  0  0  0  0  0  0  0  0  0  0  0
  -31.3955  -26.4755   20.0759 C   0  0  0  0  0  0  0  0  0  0  0  0
  -24.3348  -28.4763   20.2312 C   0  0  0  0  0  0  0  0  0  0  0  0
  -30.0108  -26.2578   20.2083 C   0  0  0  0  0  0  0  0  0  0  0  0
  -23.8328  -28.6985   21.5214 C   0  0  0  0  0  0  0  0  0  0  0  0
  -20.1199  -23.3467   23.0300 C   0  0  0  0  0  0  0  0  0  0  0  0
  -21.4794  -22.2013   21.3940 C   0  0  0  0  0  0  0  0  0  0  0  0
  -22.6312  -22.7049   21.9985 C   0  0  0  0  0  0  0  0  0  0  0  0
  -26.1084  -13.1014   20.1519 C   0  0  0  0  0  0  0  0  0  0  0  0
  -21.8971  -27.3266   20.9911 C   0  0  0  0  0  0  0  0  0  0  0  0
  -24.8880  -11.5474   21.4240 C   0  0  0  0  0  0  0  0  0  0  0  0
  -22.8348  -11.0237   23.2385 C   0  0  0  0  0  0  0  0  0  0  0  0
  -23.8384  -10.7021   21.0645 C   0  0  0  0  0  0  0  0  0  0  0  0
  -26.7282  -17.1226   18.9930 C   0  0  0  0  0  0  0  0  0  0  0  0
  -27.0864  -18.9652   17.8477 C   0  0  0  0  0  0  0  0  0  0  0  0
  -27.0122  -16.8963   16.4468 C   0  0  0  0  0  0  0  0  0  0  0  0
  -27.2142  -28.2590   21.5599 C   0  0  0  0  0  0  0  0  0  0  0  0
  -26.4701  -31.1941   22.7236 C   0  0  0  0  0  0  0  0  0  0  0  0
  -24.0501  -33.4405   23.5862 C   0  0  0  0  0  0  0  0  0  0  0  0
  -25.1479  -22.8169   21.9843 C   0  0  0  0  0  0  0  0  0  0  0  0
  -32.1895  -27.1993   21.1344 C   0  0  0  0  0  0  0  0  0  0  0  0
  -25.6269  -29.1120   19.7966 C   0  0  0  0  0  0  0  0  0  0  0  0
  -24.5716  -29.5442   22.5251 C   0  0  0  0  0  0  0  0  0  0  0  0
  -31.3262  -28.0234   22.0863 C   0  0  0  0  0  0  0  0  0  0  0  0
  -28.5300  -22.2331   21.0369 C   0  0  0  0  0  0  0  0  0  0  0  0
  -30.1263  -27.2090   22.5593 C   0  0  0  0  0  0  0  0  0  0  0  0
  -28.4705  -20.9036   20.2814 C   0  0  0  0  0  0  0  0  0  0  0  0
  -27.5585  -22.2596   22.2156 C   0  0  0  0  0  0  0  0  0  0  0  0
  -26.1096  -20.5907   21.1271 C   0  0  0  0  0  0  0  0  0  0  0  0
  -29.2299  -26.8115   21.3803 C   0  0  1  0  0  0  0  0  0  0  0  0
  -26.5421  -29.4642   20.9652 C   0  0  1  0  0  0  0  0  0  0  0  0
  -27.0240  -20.5408   19.8921 C   0  0  2  0  0  0  0  0  0  0  0  0
  -21.5606  -21.3182   20.1910 C   0  0  0  0  0  0  0  0  0  0  0  0
  -23.7484  -35.7401   24.5445 C   0  0  0  0  0  0  0  0  0  0  0  0
  -27.1140  -30.1168   25.5048 C   0  0  0  0  0  0  0  0  0  0  0  0
  -25.9115  -32.0889   26.4709 C   0  0  0  0  0  0  0  0  0  0  0  0
  -27.9436  -32.4350   25.0661 C   0  0  0  0  0  0  0  0  0  0  0  0
  -22.6930  -34.4079   21.1405 C   0  0  0  0  0  0  0  0  0  0  0  0
  -17.4847  -25.5456   24.6426 C   0  0  0  0  0  0  0  0  0  0  0  0
  -18.7693  -23.6939   23.5835 C   0  0  0  0  0  0  0  0  0  0  0  0
  -18.4694  -27.1618   22.1094 C   0  0  0  0  0  0  0  0  0  0  0  0
  -18.1202  -25.6868   22.2389 C   0  0  0  0  0  0  0  0  0  0  0  0
  -19.9445  -27.4653   22.3417 C   0  0  0  0  0  0  0  0  0  1  0  0
  -25.7857  -31.7092   23.9667 C   0  0  1  0  0  0  0  0  0  0  0  0
  -23.8889  -34.9172   23.2734 C   0  0  2  0  0  0  0  0  0  0  0  0
  -26.6755  -31.5699   25.2341 C   0  0  0  0  0  0  0  0  0  0  0  0
  -26.7311  -18.0923   19.9116 N   0  0  0  0  0  0  0  0  0  0  0  0
  -26.9515  -19.2007   19.1843 N   0  0  0  0  0  0  0  0  0  0  0  0
  -25.8336  -30.1390   22.0547 N   0  0  0  0  0  0  0  0  0  0  0  0
  -26.2076  -21.9103   21.7706 N   0  0  0  0  0  0  0  0  0  0  0  0
  -27.3120  -19.9680   16.9725 N   0  0  0  0  0  0  0  0  0  0  0  0
  -26.8451  -15.5048   16.4640 N   0  0  0  0  0  0  0  0  0  0  0  0
  -23.9157  -22.3906   21.4896 N   0  0  0  0  0  0  0  0  0  0  0  0
  -28.4171  -27.9337   20.9627 N   0  0  0  0  0  0  0  0  0  0  0  0
  -25.3779  -33.0783   23.6705 N   0  0  0  0  0  0  0  0  0  0  0  0
  -22.6782  -35.1396   22.4333 N   0  3  0  0  0  0  0  0  0  0  0  0
  -18.4923  -25.1782   23.5799 N   0  3  1  0  0  0  0  0  0  0  0  0
  -27.2309  -17.4749   15.3555 O   0  0  0  0  0  0  0  0  0  0  0  0
  -26.6815  -27.6689   22.4925 O   0  0  0  0  0  0  0  0  0  0  0  0
  -27.5266  -31.7135   22.3556 O   0  0  0  0  0  0  0  0  0  0  0  0
  -23.0938  -32.6848   23.7439 O   0  0  0  0  0  0  0  0  0  0  0  0
  -25.3260  -23.9042   22.5394 O   0  0  0  0  0  0  0  0  0  0  0  0
  -25.9084  -11.8077   20.5247 O   0  0  0  0  0  0  0  0  0  0  0  0
  -20.7151  -26.7657   21.3654 O   0  0  0  0  0  0  0  0  0  1  0  0
  -21.8497  -10.7711   24.1103 F   0  0  0  0  0  0  0  0  0  0  0  0
  -23.8114  -10.1377   19.8493 F   0  0  0  0  0  0  0  0  0  0  0  0
  1  2  1  0  0  0  0
  1  5  2  0  0  0  0
  2  6  2  0  0  0  0
  3 10  2  0  0  0  0
  3 18  1  0  0  0  0
  4 11  1  0  0  0  0
  4 18  2  0  0  0  0
  5 20  1  0  0  0  0
  6 22  1  0  0  0  0
  7 12  2  0  0  0  0
  7 21  1  0  0  0  0
  8  9  2  0  0  0  0
  8 24  1  0  0  0  0
  9 26  1  0  0  0  0
 10 27  1  0  0  0  0
 11 27  2  0  0  0  0
 12 28  1  0  0  0  0
 13 14  2  0  0  0  0
 13 29  1  0  0  0  0
 14 30  1  0  0  0  0
 15 23  1  0  0  0  0
 15 28  2  0  0  0  0
 16 24  2  0  0  0  0
 16 25  1  0  0  0  0
 17 30  2  0  0  0  0
 17 31  1  0  0  0  0
 18 32  1  0  0  0  0
 19 32  1  0  0  0  0
 19 33  2  0  0  0  0
 19 34  1  0  0  0  0
 20 22  2  0  0  0  0
 20 39  1  0  0  0  0
 21 23  2  0  0  0  0
 21 40  1  0  0  0  0
 22 48  1  0  0  0  0
 23 41  1  0  0  0  0
 24 58  1  0  0  0  0
 25 26  2  0  0  0  0
 25 51  1  0  0  0  0
 26 71  1  0  0  0  0
 27 81  1  0  0  0  0
 28 82  1  0  0  0  0
 29 31  2  0  0  0  0
 29 81  1  0  0  0  0
 30 83  1  0  0  0  0
 31 84  1  0  0  0  0
 32 65  2  0  0  0  0
 33 66  1  0  0  0  0
 33 69  1  0  0  0  0
 34 70  1  0  0  0  0
 34 76  2  0  0  0  0
 35 49  1  0  0  0  0
 35 72  1  0  0  0  0
 35 77  2  0  0  0  0
 36 62  1  0  0  0  0
 36 67  1  0  0  0  0
 36 78  2  0  0  0  0
 37 63  1  0  0  0  0
 37 73  1  0  0  0  0
 37 79  2  0  0  0  0
 38 68  1  0  0  0  0
 38 71  1  0  0  0  0
 38 80  2  0  0  0  0
 39 42  1  0  0  0  0
 40 49  1  0  0  0  0
 41 67  1  0  0  0  0
 42 44  1  0  0  0  0
 43 45  1  0  0  0  0
 43 46  1  0  0  0  0
 44 48  1  0  0  0  0
 45 50  1  0  0  0  0
 46 68  1  0  0  0  0
 47 50  1  0  0  0  0
 47 68  1  0  0  0  0
 48 72  1  0  0  0  0
 49 67  1  0  0  0  0
 50 66  1  0  0  0  0
 52 63  1  0  0  0  0
 53 64  1  0  0  0  0
 54 64  1  0  0  0  0
 55 64  1  0  0  0  0
 56 74  1  0  0  0  0
 57 75  1  0  0  0  0
 58 75  1  0  0  0  0
 59 60  1  0  0  0  0
 59 61  1  0  0  0  0
 60 75  1  0  0  0  0
 61 82  1  0  0  0  0
 62 64  1  0  0  0  0
 62 73  1  0  0  0  0
 63 74  1  0  0  0  0
 65 66  1  0  0  0  0
M  CHG  2  74   1  75   1
M  ISO  4  38 100  61 101  71 100  82 101
M  END
> <Batch ID>
0017

> <Smiles>
CNC(C)C(=O)NC(C(=O)N1Cc2cc([101O:1][101CH2:1]CCN(C)Cc3ccc([100NH:0][100C:0](=O)N4CCCC(n5nc(-c6ccc(Oc7ccc(F)cc7F)cc6)c(C(N)=O)c5N)C4)c(C)c3)ccc2CC1C(=O)NC1CCCc2ccccc21)C(C)(C)C

> <Shape>
0.275

> <Color>
0.062

> <Negative vol penalty>
0.000

$$$$

  -OEChem-04042321003D

 84 93  0     1  0  0  0  0  0999 V2000
  -27.9681  -22.8380   18.9473 C   0  0  0  0  0  0  0  0  0  0  0  0
  -26.7645  -23.2735   19.4925 C   0  0  0  0  0  0  0  0  0  0  0  0
  -27.3444  -14.9636   22.0907 C   0  0  0  0  0  0  0  0  0  0  0  0
  -25.4207  -15.5650   20.7585 C   0  0  0  0  0  0  0  0  0  0  0  0
  -29.1718  -23.3807   19.3951 C   0  0  0  0  0  0  0  0  0  0  0  0
  -26.7641  -24.2511   20.4869 C   0  0  0  0  0  0  0  0  0  0  0  0
  -23.2498  -27.8130   19.7076 C   0  0  0  0  0  0  0  0  0  0  0  0
  -20.4191  -24.4131   24.1900 C   0  0  0  0  0  0  0  0  0  0  0  0
  -21.1995  -23.3971   24.7416 C   0  0  0  0  0  0  0  0  0  0  0  0
  -27.1962  -13.6318   21.7036 C   0  0  0  0  0  0  0  0  0  0  0  0
  -25.2725  -14.2331   20.3713 C   0  0  0  0  0  0  0  0  0  0  0  0
  -21.9332  -27.4907   20.0340 C   0  0  0  0  0  0  0  0  0  0  0  0
  -27.9101  -11.7291   19.0012 C   0  0  0  0  0  0  0  0  0  0  0  0
  -29.0564  -11.0352   18.6138 C   0  0  0  0  0  0  0  0  0  0  0  0
  -22.1605  -28.6935   22.1126 C   0  0  0  0  0  0  0  0  0  0  0  0
  -20.6422  -21.9592   22.8817 C   0  0  0  0  0  0  0  0  0  0  0  0
  -28.6899   -9.4383   20.3893 C   0  0  0  0  0  0  0  0  0  0  0  0
  -26.4566  -15.9302   21.6182 C   0  0  0  0  0  0  0  0  0  0  0  0
  -27.3671  -18.3004   21.3716 C   0  0  0  0  0  0  0  0  0  0  0  0
  -29.1855  -24.3724   20.3886 C   0  0  0  0  0  0  0  0  0  0  0  0
  -24.0364  -28.5701   20.5877 C   0  0  0  0  0  0  0  0  0  0  0  0
  -27.9692  -24.8065   20.9494 C   0  0  0  0  0  0  0  0  0  0  0  0
  -23.4859  -29.0262   21.7939 C   0  0  0  0  0  0  0  0  0  0  0  0
  -19.7501  -24.2021   22.9843 C   0  0  0  0  0  0  0  0  0  0  0  0
  -21.3111  -22.1702   24.0875 C   0  0  0  0  0  0  0  0  0  0  0  0
  -26.1603  -13.2665   20.8439 C   0  0  0  0  0  0  0  0  0  0  0  0
  -21.3893  -27.9285   21.2379 C   0  0  0  0  0  0  0  0  0  0  0  0
  -27.1537  -11.2776   20.0828 C   0  0  0  0  0  0  0  0  0  0  0  0
  -29.4463   -9.8898   19.3078 C   0  0  0  0  0  0  0  0  0  0  0  0
  -19.8617  -22.9752   22.3302 C   0  0  0  0  0  0  0  0  0  0  0  0
  -27.5436  -10.1322   20.7768 C   0  0  0  0  0  0  0  0  0  0  0  0
  -26.6088  -17.3061   22.0182 C   0  0  0  0  0  0  0  0  0  0  0  0
  -27.1855  -19.4245   22.1398 C   0  0  0  0  0  0  0  0  0  0  0  0
  -28.1643  -18.2156   20.1830 C   0  0  0  0  0  0  0  0  0  0  0  0
  -26.7309  -28.0577   22.1942 C   0  0  0  0  0  0  0  0  0  0  0  0
  -26.4138  -31.1943   22.9582 C   0  0  0  0  0  0  0  0  0  0  0  0
  -24.3549  -33.8887   23.3430 C   0  0  0  0  0  0  0  0  0  0  0  0
  -22.8326  -21.1834   25.8361 C   0  0  0  0  0  0  0  0  0  0  0  0
  -30.5142  -24.8952   20.8741 C   0  0  0  0  0  0  0  0  0  0  0  0
  -25.4463  -28.9319   20.2088 C   0  0  0  0  0  0  0  0  0  0  0  0
  -24.2820  -29.8589   22.7642 C   0  0  0  0  0  0  0  0  0  0  0  0
  -30.4046  -26.1960   21.6655 C   0  0  0  0  0  0  0  0  0  0  0  0
  -26.2764  -20.7759   26.6432 C   0  0  0  0  0  0  0  0  0  0  0  0
  -17.5672  -26.4083   20.9631 C   0  0  0  0  0  0  0  0  0  0  0  0
  -29.2820  -26.1022   22.6940 C   0  0  0  0  0  0  0  0  0  0  0  0
  -26.8228  -19.9355   25.4868 C   0  0  0  0  0  0  0  0  0  0  0  0
  -17.3895  -26.9478   22.3735 C   0  0  0  0  0  0  0  0  0  0  0  0
  -18.2468  -25.0600   21.1803 C   0  0  0  0  0  0  0  0  0  0  0  0
  -24.8556  -20.3624   27.0229 C   0  0  0  0  0  0  0  0  0  0  0  0
  -24.4444  -19.4965   24.7535 C   0  0  0  0  0  0  0  0  0  0  0  0
  -27.9261  -25.8830   22.0122 C   0  0  1  0  0  0  0  0  0  0  0  0
  -26.3196  -29.2731   21.4123 C   0  0  1  0  0  0  0  0  0  0  0  0
  -25.8488  -19.9195   24.2924 C   0  0  2  0  0  0  0  0  0  0  0  0
  -18.6537  -26.4783   23.1069 C   0  0  2  0  0  0  0  0  0  0  0  0
  -24.3794  -36.3067   24.0138 C   0  0  0  0  0  0  0  0  0  0  0  0
  -26.6582  -30.3765   25.8876 C   0  0  0  0  0  0  0  0  0  0  0  0
  -25.7413  -32.6193   26.5179 C   0  0  0  0  0  0  0  0  0  0  0  0
  -27.9005  -32.4600   25.2790 C   0  0  0  0  0  0  0  0  0  0  0  0
  -23.3663  -34.7544   20.6912 C   0  0  0  0  0  0  0  0  0  0  0  0
  -19.7964  -27.4800   22.9460 C   0  0  0  0  0  0  0  0  0  1  0  0
  -25.7374  -31.9610   24.0689 C   0  0  1  0  0  0  0  0  0  0  0  0
  -24.4710  -35.3225   22.8581 C   0  0  2  0  0  0  0  0  0  0  0  0
  -26.4947  -31.8369   25.4212 C   0  0  0  0  0  0  0  0  0  0  0  0
  -25.9916  -17.7586   23.1129 N   0  0  0  0  0  0  0  0  0  0  0  0
  -26.3619  -19.0496   23.1601 N   0  0  0  0  0  0  0  0  0  0  0  0
  -18.9763  -25.2103   22.4409 N   0  0  3  0  0  0  0  0  0  0  0  0
  -25.6580  -30.1812   22.3514 N   0  0  0  0  0  0  0  0  0  0  0  0
  -23.9886  -20.3745   25.8426 N   0  0  0  0  0  0  0  0  0  0  0  0
  -27.6517  -20.6870   22.0352 N   0  0  0  0  0  0  0  0  0  0  0  0
  -28.2418  -16.9849   19.5169 N   0  0  0  0  0  0  0  0  0  0  0  0
  -22.1040  -21.1382   24.6480 N   0  0  0  0  0  0  0  0  0  0  0  0
  -27.4336  -27.1249   21.4556 N   0  0  0  0  0  0  0  0  0  0  0  0
  -25.5917  -33.3310   23.5892 N   0  0  0  0  0  0  0  0  0  0  0  0
  -23.3811  -35.6318   21.8899 N   0  3  0  0  0  0  0  0  0  0  0  0
  -28.8026  -19.1978   19.7342 O   0  0  0  0  0  0  0  0  0  0  0  0
  -26.4341  -27.9732   23.3801 O   0  0  0  0  0  0  0  0  0  0  0  0
  -27.5676  -31.4883   22.6359 O   0  0  0  0  0  0  0  0  0  0  0  0
  -23.2749  -33.3214   23.4922 O   0  0  0  0  0  0  0  0  0  0  0  0
  -22.5272  -21.8868   26.8025 O   0  0  0  0  0  0  0  0  0  0  0  0
  -26.0155  -11.9671   20.4657 O   0  0  0  0  0  0  0  0  0  0  0  0
  -20.1047  -27.6148   21.5592 O   0  0  0  0  0  0  0  0  0  1  0  0
  -30.5463   -9.2227   18.9346 F   0  0  0  0  0  0  0  0  0  0  0  0
  -19.2218  -22.7617   21.1716 F   0  0  0  0  0  0  0  0  0  0  0  0
  -26.8204   -9.6929   21.8159 F   0  0  0  0  0  0  0  0  0  0  0  0
  1  2  1  0  0  0  0
  1  5  2  0  0  0  0
  2  6  2  0  0  0  0
  3 10  2  0  0  0  0
  3 18  1  0  0  0  0
  4 11  1  0  0  0  0
  4 18  2  0  0  0  0
  5 20  1  0  0  0  0
  6 22  1  0  0  0  0
  7 12  2  0  0  0  0
  7 21  1  0  0  0  0
  8  9  2  0  0  0  0
  8 24  1  0  0  0  0
  9 25  1  0  0  0  0
 10 26  1  0  0  0  0
 11 26  2  0  0  0  0
 12 27  1  0  0  0  0
 13 14  2  0  0  0  0
 13 28  1  0  0  0  0
 14 29  1  0  0  0  0
 15 23  1  0  0  0  0
 15 27  2  0  0  0  0
 16 25  2  0  0  0  0
 16 30  1  0  0  0  0
 17 29  2  0  0  0  0
 17 31  1  0  0  0  0
 18 32  1  0  0  0  0
 19 32  1  0  0  0  0
 19 33  2  0  0  0  0
 19 34  1  0  0  0  0
 20 22  2  0  0  0  0
 20 39  1  0  0  0  0
 21 23  2  0  0  0  0
 21 40  1  0  0  0  0
 22 51  1  0  0  0  0
 23 41  1  0  0  0  0
 24 30  2  0  0  0  0
 24 66  1  0  0  0  0
 25 71  1  0  0  0  0
 26 80  1  0  0  0  0
 27 81  1  0  0  0  0
 28 31  2  0  0  0  0
 28 80  1  0  0  0  0
 29 82  1  0  0  0  0
 30 83  1  0  0  0  0
 31 84  1  0  0  0  0
 32 64  2  0  0  0  0
 33 65  1  0  0  0  0
 33 69  1  0  0  0  0
 34 70  1  0  0  0  0
 34 75  2  0  0  0  0
 35 52  1  0  0  0  0
 35 72  1  0  0  0  0
 35 76  2  0  0  0  0
 36 61  1  0  0  0  0
 36 67  1  0  0  0  0
 36 77  2  0  0  0  0
 37 62  1  0  0  0  0
 37 73  1  0  0  0  0
 37 78  2  0  0  0  0
 38 68  1  0  0  0  0
 38 71  1  0  0  0  0
 38 79  2  0  0  0  0
 39 42  1  0  0  0  0
 40 52  1  0  0  0  0
 41 67  1  0  0  0  0
 42 45  1  0  0  0  0
 43 46  1  0  0  0  0
 43 49  1  0  0  0  0
 44 47  1  0  0  0  0
 44 48  1  0  0  0  0
 45 51  1  0  0  0  0
 46 53  1  0  0  0  0
 47 54  1  0  0  0  0
 48 66  1  0  0  0  0
 49 68  1  0  0  0  0
 50 53  1  0  0  0  0
 50 68  1  0  0  0  0
 51 72  1  0  0  0  0
 52 67  1  0  0  0  0
 53 65  1  0  0  0  0
 54 60  1  0  0  0  0
 54 66  1  0  0  0  0
 55 62  1  0  0  0  0
 56 63  1  0  0  0  0
 57 63  1  0  0  0  0
 58 63  1  0  0  0  0
 59 74  1  0  0  0  0
 60 81  1  0  0  0  0
 61 63  1  0  0  0  0
 61 73  1  0  0  0  0
 62 74  1  0  0  0  0
 64 65  1  0  0  0  0
M  CHG  1  74   1
M  ISO  4  38 100  60 101  71 100  81 101
M  END
> <Batch ID>
0017

> <Smiles>
CNC(C)C(=O)NC(C(=O)N1Cc2cc([101O:1][101CH2:1]C3CCCN3c3ccc([100NH:0][100C:0](=O)N4CCCC(n5nc(-c6ccc(Oc7ccc(F)cc7F)cc6)c(C(N)=O)c5N)C4)cc3F)ccc2CC1C(=O)NC1CCCc2ccccc21)C(C)(C)C

> <Shape>
0.248

> <Color>
0.056

> <Negative vol penalty>
0.000

$$$$

  -OEChem-04042321003D

 84 92  0     1  0  0  0  0  0999 V2000
  -18.9778  -24.9994   25.3521 C   0  0  0  0  0  0  0  0  0  0  0  0
  -20.1643  -24.5960   24.7479 C   0  0  0  0  0  0  0  0  0  0  0  0
  -23.8399  -16.5321   21.3437 C   0  0  0  0  0  0  0  0  0  0  0  0
  -23.1261  -15.6673   19.2037 C   0  0  0  0  0  0  0  0  0  0  0  0
  -18.2833  -26.1014   24.8549 C   0  0  0  0  0  0  0  0  0  0  0  0
  -20.6563  -25.2938   23.6454 C   0  0  0  0  0  0  0  0  0  0  0  0
  -25.6330  -26.1740   23.9664 C   0  0  0  0  0  0  0  0  0  0  0  0
  -29.9958  -18.1588   21.5719 C   0  0  0  0  0  0  0  0  0  0  0  0
  -31.0437  -17.5026   19.4963 C   0  0  0  0  0  0  0  0  0  0  0  0
  -30.2096  -16.8793   22.0844 C   0  0  0  0  0  0  0  0  0  0  0  0
  -31.2576  -16.2230   20.0088 C   0  0  0  0  0  0  0  0  0  0  0  0
  -23.0679  -17.6757   21.1391 C   0  0  0  0  0  0  0  0  0  0  0  0
  -22.3540  -16.8109   18.9991 C   0  0  0  0  0  0  0  0  0  0  0  0
  -26.4877  -25.1138   23.6677 C   0  0  0  0  0  0  0  0  0  0  0  0
  -23.3029  -20.5591   19.3913 C   0  0  0  0  0  0  0  0  0  0  0  0
  -23.8835  -21.7930   19.6845 C   0  0  0  0  0  0  0  0  0  0  0  0
  -26.8429  -26.0288   21.4641 C   0  0  0  0  0  0  0  0  0  0  0  0
  -22.1505  -22.2215   21.3125 C   0  0  0  0  0  0  0  0  0  0  0  0
  -23.8690  -15.5279   20.3760 C   0  0  0  0  0  0  0  0  0  0  0  0
  -24.2638  -13.1479   21.2051 C   0  0  0  0  0  0  0  0  0  0  0  0
  -18.7721  -26.8188   23.7517 C   0  0  0  0  0  0  0  0  0  0  0  0
  -25.3678  -27.1654   23.0108 C   0  0  0  0  0  0  0  0  0  0  0  0
  -19.9669  -26.4056   23.1322 C   0  0  0  0  0  0  0  0  0  0  0  0
  -25.9864  -27.1019   21.7540 C   0  0  0  0  0  0  0  0  0  0  0  0
  -30.4128  -18.4705   20.2778 C   0  0  0  0  0  0  0  0  0  0  0  0
  -30.8405  -15.9114   21.3029 C   0  0  0  0  0  0  0  0  0  0  0  0
  -22.3250  -17.8151   19.9668 C   0  0  0  0  0  0  0  0  0  0  0  0
  -27.0905  -25.0395   22.4155 C   0  0  0  0  0  0  0  0  0  0  0  0
  -22.1461  -20.1564   20.0586 C   0  0  0  0  0  0  0  0  0  0  0  0
  -23.3073  -22.6242   20.6451 C   0  0  0  0  0  0  0  0  0  0  0  0
  -21.5699  -20.9876   21.0192 C   0  0  0  0  0  0  0  0  0  0  0  0
  -24.6667  -14.3466   20.5865 C   0  0  0  0  0  0  0  0  0  0  0  0
  -25.3775  -12.3455   21.1570 C   0  0  0  0  0  0  0  0  0  0  0  0
  -22.9962  -12.7916   21.7724 C   0  0  0  0  0  0  0  0  0  0  0  0
  -22.7635  -28.1868   21.5015 C   0  0  0  0  0  0  0  0  0  0  0  0
  -24.7839  -30.4587   20.3704 C   0  0  0  0  0  0  0  0  0  0  0  0
  -27.9879  -31.3881   19.6515 C   0  0  0  0  0  0  0  0  0  0  0  0
  -31.0921  -13.4559   20.9892 C   0  0  0  0  0  0  0  0  0  0  0  0
  -17.9617  -27.9747   23.2207 C   0  0  0  0  0  0  0  0  0  0  0  0
  -24.4644  -28.3169   23.3578 C   0  0  0  0  0  0  0  0  0  0  0  0
  -25.7506  -28.1517   20.7001 C   0  0  0  0  0  0  0  0  0  0  0  0
  -18.7455  -28.8870   22.2806 C   0  0  0  0  0  0  0  0  0  0  0  0
  -29.3155  -11.5431   18.5750 C   0  0  0  0  0  0  0  0  0  0  0  0
  -19.5219  -28.0614   21.2597 C   0  0  0  0  0  0  0  0  0  0  0  0
  -27.8710  -11.9420   18.8751 C   0  0  0  0  0  0  0  0  0  0  0  0
  -30.2727  -12.7300   18.6895 C   0  0  0  0  0  0  0  0  0  0  0  0
  -28.7435  -13.8466   20.2831 C   0  0  0  0  0  0  0  0  0  0  0  0
  -20.5457  -27.1518   21.9497 C   0  0  1  0  0  0  0  0  0  0  0  0
  -23.8627  -28.9951   22.1308 C   0  0  1  0  0  0  0  0  0  0  0  0
  -27.7671  -12.6611   20.2317 C   0  0  1  0  0  0  0  0  0  0  0  0
  -29.3212  -33.2897   18.7008 C   0  0  0  0  0  0  0  0  0  0  0  0
  -23.8862  -29.6799   17.5602 C   0  0  0  0  0  0  0  0  0  0  0  0
  -25.8838  -30.8925   16.6614 C   0  0  0  0  0  0  0  0  0  0  0  0
  -24.1364  -32.1404   17.9310 C   0  0  0  0  0  0  0  0  0  0  0  0
  -31.4982  -14.4553   23.2278 C   0  0  0  0  0  0  0  0  0  0  0  0
  -29.4952  -31.7447   22.1734 C   0  0  0  0  0  0  0  0  0  0  0  0
  -28.3945  -19.3822   18.0572 C   0  0  0  0  0  0  0  0  0  0  0  0
  -30.1827  -19.8468   19.7266 C   0  0  0  0  0  0  0  0  0  0  0  0
  -28.2898  -22.0983   20.7130 C   0  0  0  0  0  0  0  0  0  0  0  0
  -28.4052  -21.5384   19.3032 C   0  0  0  0  0  0  0  0  0  0  0  0
  -27.9899  -23.5916   20.7570 C   0  0  0  0  0  0  0  0  0  1  0  0
  -25.6922  -30.5801   19.1708 C   0  0  1  0  0  0  0  0  0  0  0  0
  -28.7638  -32.6546   19.9652 C   0  0  2  0  0  0  0  0  0  0  0  0
  -24.9028  -30.8022   17.8498 C   0  0  0  0  0  0  0  0  0  0  0  0
  -25.9372  -14.3132   20.1757 N   0  0  0  0  0  0  0  0  0  0  0  0
  -26.3423  -13.0838   20.5369 N   0  0  0  0  0  0  0  0  0  0  0  0
  -24.8544  -29.2545   21.0851 N   0  0  0  0  0  0  0  0  0  0  0  0
  -30.1089  -13.4086   19.9829 N   0  0  0  0  0  0  0  0  0  0  0  0
  -25.6159  -11.0876   21.5850 N   0  0  0  0  0  0  0  0  0  0  0  0
  -21.9600  -13.7346   21.7378 N   0  0  0  0  0  0  0  0  0  0  0  0
  -21.7088  -27.9136   22.3514 N   0  0  0  0  0  0  0  0  0  0  0  0
  -26.6429  -31.6414   19.4844 N   0  0  0  0  0  0  0  0  0  0  0  0
  -31.0623  -14.5867   21.8333 N   0  0  0  0  0  0  0  0  0  0  0  0
  -29.9009  -32.3522   20.8799 N   0  3  0  0  0  0  0  0  0  0  0  0
  -28.7447  -20.0966   19.3404 N   0  3  1  0  0  0  0  0  0  0  0  0
  -22.7935  -11.6761   22.3093 O   0  0  0  0  0  0  0  0  0  0  0  0
  -22.8641  -27.8383   20.3310 O   0  0  0  0  0  0  0  0  0  0  0  0
  -24.0443  -31.4004   20.6669 O   0  0  0  0  0  0  0  0  0  0  0  0
  -28.5222  -30.2851   19.5599 O   0  0  0  0  0  0  0  0  0  0  0  0
  -31.9165  -12.5459   21.1387 O   0  0  0  0  0  0  0  0  0  0  0  0
  -21.5714  -18.9307   19.7669 O   0  0  0  0  0  0  0  0  0  0  0  0
  -27.9246  -24.0054   22.1211 O   0  0  0  0  0  0  0  0  0  1  0  0
  -23.8658  -23.8085   20.9277 F   0  0  0  0  0  0  0  0  0  0  0  0
  -20.4592  -20.6056   21.6644 F   0  0  0  0  0  0  0  0  0  0  0  0
  1  2  1  0  0  0  0
  1  5  2  0  0  0  0
  2  6  2  0  0  0  0
  3 12  2  0  0  0  0
  3 19  1  0  0  0  0
  4 13  1  0  0  0  0
  4 19  2  0  0  0  0
  5 21  1  0  0  0  0
  6 23  1  0  0  0  0
  7 14  2  0  0  0  0
  7 22  1  0  0  0  0
  8 10  2  0  0  0  0
  8 25  1  0  0  0  0
  9 11  1  0  0  0  0
  9 25  2  0  0  0  0
 10 26  1  0  0  0  0
 11 26  2  0  0  0  0
 12 27  1  0  0  0  0
 13 27  2  0  0  0  0
 14 28  1  0  0  0  0
 15 16  2  0  0  0  0
 15 29  1  0  0  0  0
 16 30  1  0  0  0  0
 17 24  1  0  0  0  0
 17 28  2  0  0  0  0
 18 30  2  0  0  0  0
 18 31  1  0  0  0  0
 19 32  1  0  0  0  0
 20 32  1  0  0  0  0
 20 33  2  0  0  0  0
 20 34  1  0  0  0  0
 21 23  2  0  0  0  0
 21 39  1  0  0  0  0
 22 24  2  0  0  0  0
 22 40  1  0  0  0  0
 23 48  1  0  0  0  0
 24 41  1  0  0  0  0
 25 58  1  0  0  0  0
 26 73  1  0  0  0  0
 27 81  1  0  0  0  0
 28 82  1  0  0  0  0
 29 31  2  0  0  0  0
 29 81  1  0  0  0  0
 30 83  1  0  0  0  0
 31 84  1  0  0  0  0
 32 65  2  0  0  0  0
 33 66  1  0  0  0  0
 33 69  1  0  0  0  0
 34 70  1  0  0  0  0
 34 76  2  0  0  0  0
 35 49  1  0  0  0  0
 35 71  1  0  0  0  0
 35 77  2  0  0  0  0
 36 62  1  0  0  0  0
 36 67  1  0  0  0  0
 36 78  2  0  0  0  0
 37 63  1  0  0  0  0
 37 72  1  0  0  0  0
 37 79  2  0  0  0  0
 38 68  1  0  0  0  0
 38 73  1  0  0  0  0
 38 80  2  0  0  0  0
 39 42  1  0  0  0  0
 40 49  1  0  0  0  0
 41 67  1  0  0  0  0
 42 44  1  0  0  0  0
 43 45  1  0  0  0  0
 43 46  1  0  0  0  0
 44 48  1  0  0  0  0
 45 50  1  0  0  0  0
 46 68  1  0  0  0  0
 47 50  1  0  0  0  0
 47 68  1  0  0  0  0
 48 71  1  0  0  0  0
 49 67  1  0  0  0  0
 50 66  1  0  0  0  0
 51 63  1  0  0  0  0
 52 64  1  0  0  0  0
 53 64  1  0  0  0  0
 54 64  1  0  0  0  0
 55 73  1  0  0  0  0
 56 74  1  0  0  0  0
 57 75  1  0  0  0  0
 58 75  1  0  0  0  0
 59 60  1  0  0  0  0
 59 61  1  0  0  0  0
 60 75  1  0  0  0  0
 61 82  1  0  0  0  0
 62 64  1  0  0  0  0
 62 72  1  0  0  0  0
 63 74  1  0  0  0  0
 65 66  1  0  0  0  0
M  CHG  2  74   1  75   1
M  ISO  4  38 100  61 101  73 100  82 101
M  END
> <Batch ID>
0017

> <Smiles>
CNC(C)C(=O)NC(C(=O)N1Cc2cc([101O:1][101CH2:1]CCN(C)Cc3ccc([100N:0](C)[100C:0](=O)N4CCCC(n5nc(-c6ccc(Oc7ccc(F)cc7F)cc6)c(C(N)=O)c5N)C4)cc3)ccc2CC1C(=O)NC1CCCc2ccccc21)C(C)(C)C

> <Shape>
0.244

> <Color>
0.069

> <Negative vol penalty>
0.000

$$$$

  -OEChem-04042321003D

 85 93  0     1  0  0  0  0  0999 V2000
  -24.9440  -18.7411   24.7700 C   0  0  0  0  0  0  0  0  0  0  0  0
  -26.1370  -18.0415   24.9206 C   0  0  0  0  0  0  0  0  0  0  0  0
  -23.2725   -9.7930   19.9303 C   0  0  0  0  0  0  0  0  0  0  0  0
  -23.7508   -9.9420   22.2938 C   0  0  0  0  0  0  0  0  0  0  0  0
  -24.7390  -19.5324   23.6406 C   0  0  0  0  0  0  0  0  0  0  0  0
  -27.1254  -18.1321   23.9412 C   0  0  0  0  0  0  0  0  0  0  0  0
  -31.7490  -18.7835   25.9017 C   0  0  0  0  0  0  0  0  0  0  0  0
  -31.7202  -12.2872   26.1409 C   0  0  0  0  0  0  0  0  0  0  0  0
  -33.6297  -11.9553   24.6984 C   0  0  0  0  0  0  0  0  0  0  0  0
  -30.9355  -12.5986   25.0306 C   0  0  0  0  0  0  0  0  0  0  0  0
  -32.8450  -12.2666   23.5881 C   0  0  0  0  0  0  0  0  0  0  0  0
  -22.5471   -8.6223   20.1509 C   0  0  0  0  0  0  0  0  0  0  0  0
  -23.0254   -8.7712   22.5144 C   0  0  0  0  0  0  0  0  0  0  0  0
  -32.3824  -17.6579   26.4265 C   0  0  0  0  0  0  0  0  0  0  0  0
  -20.9967   -6.0184   23.7491 C   0  0  0  0  0  0  0  0  0  0  0  0
  -20.1074   -5.9983   24.8235 C   0  0  0  0  0  0  0  0  0  0  0  0
  -33.6747  -17.4478   24.4004 C   0  0  0  0  0  0  0  0  0  0  0  0
  -18.8890   -7.8433   23.8496 C   0  0  0  0  0  0  0  0  0  0  0  0
  -23.8745  -10.4529   21.0018 C   0  0  0  0  0  0  0  0  0  0  0  0
  -24.1348  -12.9817   20.7906 C   0  0  0  0  0  0  0  0  0  0  0  0
  -25.7293  -19.6404   22.6515 C   0  0  0  0  0  0  0  0  0  0  0  0
  -32.0663  -19.2441   24.6157 C   0  0  0  0  0  0  0  0  0  0  0  0
  -26.9330  -18.9246   22.7968 C   0  0  0  0  0  0  0  0  0  0  0  0
  -33.0457  -18.5810   23.8625 C   0  0  0  0  0  0  0  0  0  0  0  0
  -33.0673  -11.9656   25.9749 C   0  0  0  0  0  0  0  0  0  0  0  0
  -31.4979  -12.5883   23.7541 C   0  0  0  0  0  0  0  0  0  0  0  0
  -22.4235   -8.1114   21.4429 C   0  0  0  0  0  0  0  0  0  0  0  0
  -33.3433  -16.9881   25.6748 C   0  0  0  0  0  0  0  0  0  0  0  0
  -20.8322   -6.9510   22.7249 C   0  0  0  0  0  0  0  0  0  0  0  0
  -19.0536   -6.9107   24.8738 C   0  0  0  0  0  0  0  0  0  0  0  0
  -19.7784   -7.8634   22.7751 C   0  0  0  0  0  0  0  0  0  0  0  0
  -24.6245  -11.6620   20.7745 C   0  0  0  0  0  0  0  0  0  0  0  0
  -25.2343  -13.7592   20.5200 C   0  0  0  0  0  0  0  0  0  0  0  0
  -22.8051  -13.4620   21.0290 C   0  0  0  0  0  0  0  0  0  0  0  0
  -30.4520  -19.6093   21.9020 C   0  0  0  0  0  0  0  0  0  0  0  0
  -33.2075  -21.0005   20.9049 C   0  0  0  0  0  0  0  0  0  0  0  0
  -36.5862  -21.3207   21.2633 C   0  0  0  0  0  0  0  0  0  0  0  0
  -31.1028  -12.9402   21.2911 C   0  0  0  0  0  0  0  0  0  0  0  0
  -25.4432  -20.4708   21.4254 C   0  0  0  0  0  0  0  0  0  0  0  0
  -31.3933  -20.4755   24.0745 C   0  0  0  0  0  0  0  0  0  0  0  0
  -33.4371  -19.0470   22.4848 C   0  0  0  0  0  0  0  0  0  0  0  0
  -26.6913  -20.8098   20.6145 C   0  0  0  0  0  0  0  0  0  0  0  0
  -29.4348  -13.6351   18.2233 C   0  0  0  0  0  0  0  0  0  0  0  0
  -27.5559  -19.5680   20.4212 C   0  0  0  0  0  0  0  0  0  0  0  0
  -27.9665  -13.3339   18.5326 C   0  0  0  0  0  0  0  0  0  0  0  0
  -30.3749  -12.6614   18.9316 C   0  0  0  0  0  0  0  0  0  0  0  0
  -28.7013  -12.2422   20.6902 C   0  0  0  0  0  0  0  0  0  0  0  0
  -28.0391  -19.0170   21.7682 C   0  0  1  0  0  0  0  0  0  0  0  0
  -31.4245  -20.5529   22.5512 C   0  0  1  0  0  0  0  0  0  0  0  0
  -27.7189  -13.2370   20.0508 C   0  0  2  0  0  0  0  0  0  0  0  0
  -33.4733  -11.9352   31.6183 C   0  0  0  0  0  0  0  0  0  0  0  0
  -38.5683  -22.5034   20.2784 C   0  0  0  0  0  0  0  0  0  0  0  0
  -33.1735  -19.0788   18.5351 C   0  0  0  0  0  0  0  0  0  0  0  0
  -35.5819  -19.6358   18.1382 C   0  0  0  0  0  0  0  0  0  0  0  0
  -33.8467  -21.4201   17.9700 C   0  0  0  0  0  0  0  0  0  0  0  0
  -37.1756  -22.7021   23.8134 C   0  0  0  0  0  0  0  0  0  0  0  0
  -33.9113  -11.6307   27.1693 C   0  0  0  0  0  0  0  0  0  0  0  0
  -33.2462  -12.2734   30.1538 C   0  0  0  0  0  0  0  0  0  0  0  0
  -35.3912  -15.0496   27.9189 C   0  0  0  0  0  0  0  0  0  0  0  0
  -34.5654  -12.4646   29.4226 C   0  0  0  0  0  0  0  0  0  0  0  0
  -35.3847  -13.6275   27.3788 C   0  0  0  0  0  0  0  0  0  0  0  0
  -34.1227  -15.8319   27.6014 C   0  0  0  0  0  0  0  0  0  1  0  0
  -34.4739  -20.5116   20.2445 C   0  0  1  0  0  0  0  0  0  0  0  0
  -37.4795  -22.5458   21.3392 C   0  0  2  0  0  0  0  0  0  0  0  0
  -34.2604  -20.1514   18.7471 C   0  0  0  0  0  0  0  0  0  0  0  0
  -25.9331  -11.6006   20.5141 N   0  0  0  0  0  0  0  0  0  0  0  0
  -26.2750  -12.8916   20.3640 N   0  0  0  0  0  0  0  0  0  0  0  0
  -32.7461  -20.2520   21.9970 N   0  0  0  0  0  0  0  0  0  0  0  0
  -30.0845  -12.6253   20.3666 N   0  0  0  0  0  0  0  0  0  0  0  0
  -25.4027  -15.0935   20.4026 N   0  0  0  0  0  0  0  0  0  0  0  0
  -21.7942  -12.5274   21.2917 N   0  0  0  0  0  0  0  0  0  0  0  0
  -30.7009  -12.9042   22.6260 N   0  0  0  0  0  0  0  0  0  0  0  0
  -29.1370  -19.8122   22.2749 N   0  0  0  0  0  0  0  0  0  0  0  0
  -35.4785  -21.5445   20.4732 N   0  0  0  0  0  0  0  0  0  0  0  0
  -38.1300  -22.6304   22.6773 N   0  3  0  0  0  0  0  0  0  0  0  0
  -34.2852  -12.8429   27.9880 N   0  3  1  0  0  0  0  0  0  0  0  0
  -22.5184  -14.6827   20.9934 O   0  0  0  0  0  0  0  0  0  0  0  0
  -30.8640  -18.7609   21.1195 O   0  0  0  0  0  0  0  0  0  0  0  0
  -32.6520  -22.0135   20.4723 O   0  0  0  0  0  0  0  0  0  0  0  0
  -36.8470  -20.2692   21.8435 O   0  0  0  0  0  0  0  0  0  0  0  0
  -32.2399  -13.2476   20.9244 O   0  0  0  0  0  0  0  0  0  0  0  0
  -21.7155   -6.9691   21.6586 O   0  0  0  0  0  0  0  0  0  0  0  0
  -33.9626  -15.8888   26.1845 O   0  0  0  0  0  0  0  0  0  1  0  0
  -18.1988   -6.8903   25.9048 F   0  0  0  0  0  0  0  0  0  0  0  0
  -19.6145   -8.7609   21.7936 F   0  0  0  0  0  0  0  0  0  0  0  0
  1  2  1  0  0  0  0
  1  5  2  0  0  0  0
  2  6  2  0  0  0  0
  3 12  2  0  0  0  0
  3 19  1  0  0  0  0
  4 13  1  0  0  0  0
  4 19  2  0  0  0  0
  5 21  1  0  0  0  0
  6 23  1  0  0  0  0
  7 14  2  0  0  0  0
  7 22  1  0  0  0  0
  8 10  2  0  0  0  0
  8 25  1  0  0  0  0
  9 11  1  0  0  0  0
  9 25  2  0  0  0  0
 10 26  1  0  0  0  0
 11 26  2  0  0  0  0
 12 27  1  0  0  0  0
 13 27  2  0  0  0  0
 14 28  1  0  0  0  0
 15 16  2  0  0  0  0
 15 29  1  0  0  0  0
 16 30  1  0  0  0  0
 17 24  1  0  0  0  0
 17 28  2  0  0  0  0
 18 30  2  0  0  0  0
 18 31  1  0  0  0  0
 19 32  1  0  0  0  0
 20 32  1  0  0  0  0
 20 33  2  0  0  0  0
 20 34  1  0  0  0  0
 21 23  2  0  0  0  0
 21 39  1  0  0  0  0
 22 24  2  0  0  0  0
 22 40  1  0  0  0  0
 23 48  1  0  0  0  0
 24 41  1  0  0  0  0
 25 57  1  0  0  0  0
 26 72  1  0  0  0  0
 27 82  1  0  0  0  0
 28 83  1  0  0  0  0
 29 31  2  0  0  0  0
 29 82  1  0  0  0  0
 30 84  1  0  0  0  0
 31 85  1  0  0  0  0
 32 66  2  0  0  0  0
 33 67  1  0  0  0  0
 33 70  1  0  0  0  0
 34 71  1  0  0  0  0
 34 77  2  0  0  0  0
 35 49  1  0  0  0  0
 35 73  1  0  0  0  0
 35 78  2  0  0  0  0
 36 63  1  0  0  0  0
 36 68  1  0  0  0  0
 36 79  2  0  0  0  0
 37 64  1  0  0  0  0
 37 74  1  0  0  0  0
 37 80  2  0  0  0  0
 38 69  1  0  0  0  0
 38 72  1  0  0  0  0
 38 81  2  0  0  0  0
 39 42  1  0  0  0  0
 40 49  1  0  0  0  0
 41 68  1  0  0  0  0
 42 44  1  0  0  0  0
 43 45  1  0  0  0  0
 43 46  1  0  0  0  0
 44 48  1  0  0  0  0
 45 50  1  0  0  0  0
 46 69  1  0  0  0  0
 47 50  1  0  0  0  0
 47 69  1  0  0  0  0
 48 73  1  0  0  0  0
 49 68  1  0  0  0  0
 50 67  1  0  0  0  0
 51 58  1  0  0  0  0
 52 64  1  0  0  0  0
 53 65  1  0  0  0  0
 54 65  1  0  0  0  0
 55 65  1  0  0  0  0
 56 75  1  0  0  0  0
 57 76  1  0  0  0  0
 58 60  1  0  0  0  0
 59 61  1  0  0  0  0
 59 62  1  0  0  0  0
 60 76  1  0  0  0  0
 61 76  1  0  0  0  0
 62 83  1  0  0  0  0
 63 65  1  0  0  0  0
 63 74  1  0  0  0  0
 64 75  1  0  0  0  0
 66 67  1  0  0  0  0
M  CHG  2  75   1  76   1
M  ISO  4  38 100  62 101  72 100  83 101
M  END
> <Batch ID>
0017

> <Smiles>
CCCN(CC[101CH2:1][101O:1]c1ccc2c(c1)CN(C(=O)C(NC(=O)C(C)NC)C(C)(C)C)C(C(=O)NC1CCCc3ccccc31)C2)Cc1ccc([100NH:0][100C:0](=O)N2CCCC(n3nc(-c4ccc(Oc5ccc(F)cc5F)cc4)c(C(N)=O)c3N)C2)cc1

> <Shape>
0.148

> <Color>
0.172

> <Negative vol penalty>
0.000

$$$$

  -OEChem-04042321003D

 85 93  0     1  0  0  0  0  0999 V2000
  -16.8400  -29.0450   24.1773 C   0  0  0  0  0  0  0  0  0  0  0  0
  -17.4544  -28.1113   23.3491 C   0  0  0  0  0  0  0  0  0  0  0  0
  -24.9219  -10.6487   21.5447 C   0  0  0  0  0  0  0  0  0  0  0  0
  -24.0597  -10.5754   23.8004 C   0  0  0  0  0  0  0  0  0  0  0  0
  -17.3286  -30.3494   24.2382 C   0  0  0  0  0  0  0  0  0  0  0  0
  -18.5573  -28.4817   22.5804 C   0  0  0  0  0  0  0  0  0  0  0  0
  -22.2788  -25.0511   22.7426 C   0  0  0  0  0  0  0  0  0  0  0  0
  -27.2864  -17.7948   19.0229 C   0  0  0  0  0  0  0  0  0  0  0  0
  -28.2993  -17.0669   19.6472 C   0  0  0  0  0  0  0  0  0  0  0  0
  -24.8895   -9.2555   21.4869 C   0  0  0  0  0  0  0  0  0  0  0  0
  -24.0273   -9.1821   23.7427 C   0  0  0  0  0  0  0  0  0  0  0  0
  -22.1257  -23.9081   21.9591 C   0  0  0  0  0  0  0  0  0  0  0  0
  -23.3772   -5.6191   24.0601 C   0  0  0  0  0  0  0  0  0  0  0  0
  -22.2359   -4.9759   24.5388 C   0  0  0  0  0  0  0  0  0  0  0  0
  -23.5815  -24.8645   20.2902 C   0  0  0  0  0  0  0  0  0  0  0  0
  -27.1820  -19.2808   20.9250 C   0  0  0  0  0  0  0  0  0  0  0  0
  -20.8923   -6.1449   22.9063 C   0  0  0  0  0  0  0  0  0  0  0  0
  -24.5071  -11.3087   22.7014 C   0  0  0  0  0  0  0  0  0  0  0  0
  -23.5129  -13.6384   22.3981 C   0  0  0  0  0  0  0  0  0  0  0  0
  -18.4440  -30.7334   23.4772 C   0  0  0  0  0  0  0  0  0  0  0  0
  -23.0770  -26.1158   22.3001 C   0  0  0  0  0  0  0  0  0  0  0  0
  -19.0605  -29.7928   22.6302 C   0  0  0  0  0  0  0  0  0  0  0  0
  -23.7451  -26.0189   21.0711 C   0  0  0  0  0  0  0  0  0  0  0  0
  -26.7278  -18.9018   19.6618 C   0  0  0  0  0  0  0  0  0  0  0  0
  -28.7536  -17.4458   20.9104 C   0  0  0  0  0  0  0  0  0  0  0  0
  -24.4422   -8.5221   22.5859 C   0  0  0  0  0  0  0  0  0  0  0  0
  -22.7748  -23.8159   20.7314 C   0  0  0  0  0  0  0  0  0  0  0  0
  -23.2761   -6.5253   23.0045 C   0  0  0  0  0  0  0  0  0  0  0  0
  -20.9934   -5.2387   23.9619 C   0  0  0  0  0  0  0  0  0  0  0  0
  -28.1949  -18.5528   21.5493 C   0  0  0  0  0  0  0  0  0  0  0  0
  -22.0336   -6.7882   22.4276 C   0  0  0  0  0  0  0  0  0  0  0  0
  -24.5408  -12.7479   22.7618 C   0  0  0  0  0  0  0  0  0  0  0  0
  -24.0369  -14.8848   22.6398 C   0  0  0  0  0  0  0  0  0  0  0  0
  -22.2017  -13.3635   21.8875 C   0  0  0  0  0  0  0  0  0  0  0  0
  -22.5522  -29.1703   21.5943 C   0  0  0  0  0  0  0  0  0  0  0  0
  -25.7805  -29.2498   21.2867 C   0  0  0  0  0  0  0  0  0  0  0  0
  -28.6774  -27.5452   20.6960 C   0  0  0  0  0  0  0  0  0  0  0  0
  -23.5790  -21.6966   20.2156 C   0  0  0  0  0  0  0  0  0  1  0  0
  -29.9152  -16.5649   22.9514 C   0  0  0  0  0  0  0  0  0  0  0  0
  -18.9071  -32.1674   23.5405 C   0  0  0  0  0  0  0  0  0  0  0  0
  -23.2533  -27.3307   23.1692 C   0  0  0  0  0  0  0  0  0  0  0  0
  -24.6296  -27.1256   20.5599 C   0  0  0  0  0  0  0  0  0  0  0  0
  -20.3101  -32.3798   22.9778 C   0  0  0  0  0  0  0  0  0  0  0  0
  -27.2034  -17.1717   25.3950 C   0  0  0  0  0  0  0  0  0  0  0  0
  -20.4629  -31.6632   21.6399 C   0  0  0  0  0  0  0  0  0  0  0  0
  -26.1621  -16.1211   25.0140 C   0  0  0  0  0  0  0  0  0  0  0  0
  -28.6188  -16.7163   25.0530 C   0  0  0  0  0  0  0  0  0  0  0  0
  -27.7456  -15.2719   23.2384 C   0  0  0  0  0  0  0  0  0  0  0  0
  -20.2743  -30.1498   21.7999 C   0  0  1  0  0  0  0  0  0  0  0  0
  -23.6787  -28.5689   22.3861 C   0  0  1  0  0  0  0  0  0  0  0  0
  -26.3080  -15.7238   23.5358 C   0  0  1  0  0  0  0  0  0  0  0  0
  -31.1531  -27.8871   20.4699 C   0  0  0  0  0  0  0  0  0  0  0  0
  -25.3611  -30.4282   18.5037 C   0  0  0  0  0  0  0  0  0  0  0  0
  -27.7436  -29.8633   17.9815 C   0  0  0  0  0  0  0  0  0  0  0  0
  -27.2180  -31.4756   19.8110 C   0  0  0  0  0  0  0  0  0  0  0  0
  -30.9322  -16.2567   20.7373 C   0  0  0  0  0  0  0  0  0  0  0  0
  -29.2502  -25.7609   22.9867 C   0  0  0  0  0  0  0  0  0  0  0  0
  -23.7437  -18.0751   19.1489 C   0  0  0  0  0  0  0  0  0  0  0  0
  -25.6375  -19.6843   18.9911 C   0  0  0  0  0  0  0  0  0  0  0  0
  -23.3151  -20.5228   19.3140 C   0  0  0  0  0  0  0  0  0  0  0  0
  -26.7528  -29.0146   20.1562 C   0  0  1  0  0  0  0  0  0  0  0  0
  -30.0130  -27.5483   21.4175 C   0  0  2  0  0  0  0  0  0  0  0  0
  -26.7507  -30.1752   19.1216 C   0  0  0  0  0  0  0  0  0  0  0  0
  -25.6351  -13.3753   23.2010 N   0  0  0  0  0  0  0  0  0  0  0  0
  -25.2978  -14.6734   23.1148 N   0  0  0  0  0  0  0  0  0  0  0  0
  -24.7652  -28.2956   21.4431 N   0  0  0  0  0  0  0  0  0  0  0  0
  -28.7281  -16.2844   23.6587 N   0  0  0  0  0  0  0  0  0  0  0  0
  -23.5375  -16.1300   22.4902 N   0  0  0  0  0  0  0  0  0  0  0  0
  -21.8247  -12.0268   21.6992 N   0  0  0  0  0  0  0  0  0  0  0  0
  -21.4657  -29.5484   22.3597 N   0  0  0  0  0  0  0  0  0  0  0  0
  -28.0500  -28.7703   20.7776 N   0  0  0  0  0  0  0  0  0  0  0  0
  -29.8009  -16.6909   21.5538 N   0  0  0  0  0  0  0  0  0  0  0  0
  -30.2814  -26.2102   22.0162 N   0  3  0  0  0  0  0  0  0  0  0  0
  -24.2730  -19.4212   19.5794 N   0  3  1  0  0  0  0  0  0  0  0  0
  -21.3943  -14.2766   21.5911 O   0  0  0  0  0  0  0  0  0  0  0  0
  -22.6614  -29.2843   20.3790 O   0  0  0  0  0  0  0  0  0  0  0  0
  -25.9210  -30.2398   22.0091 O   0  0  0  0  0  0  0  0  0  0  0  0
  -28.2366  -26.5560   20.1147 O   0  0  0  0  0  0  0  0  0  0  0  0
  -24.4811  -21.7671   21.0394 O   0  0  0  0  0  0  0  0  0  0  0  0
  -31.0120  -16.6427   23.5185 O   0  0  0  0  0  0  0  0  0  0  0  0
  -24.4102   -7.1626   22.5299 O   0  0  0  0  0  0  0  0  0  0  0  0
  -22.6266  -22.7016   19.9644 O   0  0  0  0  0  0  0  0  0  1  0  0
  -19.8977   -4.6197   24.4207 F   0  0  0  0  0  0  0  0  0  0  0  0
  -28.6227  -18.9252   22.7641 F   0  0  0  0  0  0  0  0  0  0  0  0
  -21.9304   -7.6569   21.4124 F   0  0  0  0  0  0  0  0  0  0  0  0
  1  2  1  0  0  0  0
  1  5  2  0  0  0  0
  2  6  2  0  0  0  0
  3 10  2  0  0  0  0
  3 18  1  0  0  0  0
  4 11  1  0  0  0  0
  4 18  2  0  0  0  0
  5 20  1  0  0  0  0
  6 22  1  0  0  0  0
  7 12  2  0  0  0  0
  7 21  1  0  0  0  0
  8  9  2  0  0  0  0
  8 24  1  0  0  0  0
  9 25  1  0  0  0  0
 10 26  1  0  0  0  0
 11 26  2  0  0  0  0
 12 27  1  0  0  0  0
 13 14  2  0  0  0  0
 13 28  1  0  0  0  0
 14 29  1  0  0  0  0
 15 23  1  0  0  0  0
 15 27  2  0  0  0  0
 16 24  2  0  0  0  0
 16 30  1  0  0  0  0
 17 29  2  0  0  0  0
 17 31  1  0  0  0  0
 18 32  1  0  0  0  0
 19 32  1  0  0  0  0
 19 33  2  0  0  0  0
 19 34  1  0  0  0  0
 20 22  2  0  0  0  0
 20 40  1  0  0  0  0
 21 23  2  0  0  0  0
 21 41  1  0  0  0  0
 22 49  1  0  0  0  0
 23 42  1  0  0  0  0
 24 59  1  0  0  0  0
 25 30  2  0  0  0  0
 25 72  1  0  0  0  0
 26 81  1  0  0  0  0
 27 82  1  0  0  0  0
 28 31  2  0  0  0  0
 28 81  1  0  0  0  0
 29 83  1  0  0  0  0
 30 84  1  0  0  0  0
 31 85  1  0  0  0  0
 32 64  2  0  0  0  0
 33 65  1  0  0  0  0
 33 68  1  0  0  0  0
 34 69  1  0  0  0  0
 34 75  2  0  0  0  0
 35 50  1  0  0  0  0
 35 70  1  0  0  0  0
 35 76  2  0  0  0  0
 36 61  1  0  0  0  0
 36 66  1  0  0  0  0
 36 77  2  0  0  0  0
 37 62  1  0  0  0  0
 37 71  1  0  0  0  0
 37 78  2  0  0  0  0
 38 60  1  0  0  0  0
 38 79  2  0  0  0  0
 38 82  1  0  0  0  0
 39 67  1  0  0  0  0
 39 72  1  0  0  0  0
 39 80  2  0  0  0  0
 40 43  1  0  0  0  0
 41 50  1  0  0  0  0
 42 66  1  0  0  0  0
 43 45  1  0  0  0  0
 44 46  1  0  0  0  0
 44 47  1  0  0  0  0
 45 49  1  0  0  0  0
 46 51  1  0  0  0  0
 47 67  1  0  0  0  0
 48 51  1  0  0  0  0
 48 67  1  0  0  0  0
 49 70  1  0  0  0  0
 50 66  1  0  0  0  0
 51 65  1  0  0  0  0
 52 62  1  0  0  0  0
 53 63  1  0  0  0  0
 54 63  1  0  0  0  0
 55 63  1  0  0  0  0
 56 72  1  0  0  0  0
 57 73  1  0  0  0  0
 58 74  1  0  0  0  0
 59 74  1  0  0  0  0
 60 74  1  0  0  0  0
 61 63  1  0  0  0  0
 61 71  1  0  0  0  0
 62 73  1  0  0  0  0
 64 65  1  0  0  0  0
M  CHG  2  73   1  74   1
M  ISO  4  38 101  39 100  72 100  82 101
M  END
> <Batch ID>
0017

> <Smiles>
CNC(C)C(=O)NC(C(=O)N1Cc2cc([101O:1][101C:1](=O)CN(C)Cc3ccc([100N:0](C)[100C:0](=O)N4CCCC(n5nc(-c6ccc(Oc7ccc(F)cc7F)cc6)c(C(N)=O)c5N)C4)c(F)c3)ccc2CC1C(=O)NC1CCCc2ccccc21)C(C)(C)C

> <Shape>
0.233

> <Color>
0.078

> <Negative vol penalty>
0.000

$$$$

  -OEChem-04042321003D

 83 91  0     1  0  0  0  0  0999 V2000
  -29.8956  -11.4048   19.3779 C   0  0  0  0  0  0  0  0  0  0  0  0
  -30.2276  -12.6821   18.9378 C   0  0  0  0  0  0  0  0  0  0  0  0
  -22.7236  -28.0434   22.1280 C   0  0  0  0  0  0  0  0  0  0  0  0
  -22.3014  -27.8511   19.7569 C   0  0  0  0  0  0  0  0  0  0  0  0
  -28.6732  -11.1825   20.0105 C   0  0  0  0  0  0  0  0  0  0  0  0
  -29.3368  -13.7377   19.1291 C   0  0  0  0  0  0  0  0  0  0  0  0
  -30.7494  -19.5811   20.2977 C   0  0  0  0  0  0  0  0  0  0  0  0
  -31.3848  -30.0731   19.4132 C   0  0  0  0  0  0  0  0  0  0  0  0
  -31.5351  -28.3040   21.0518 C   0  0  0  0  0  0  0  0  0  0  0  0
  -31.6228  -29.1501   18.3948 C   0  0  0  0  0  0  0  0  0  0  0  0
  -31.7731  -27.3810   20.0334 C   0  0  0  0  0  0  0  0  0  0  0  0
  -21.3538  -27.9637   22.3784 C   0  0  0  0  0  0  0  0  0  0  0  0
  -20.9315  -27.7713   20.0074 C   0  0  0  0  0  0  0  0  0  0  0  0
  -30.8330  -20.7074   19.4802 C   0  0  0  0  0  0  0  0  0  0  0  0
  -17.9410  -28.1721   23.6165 C   0  0  0  0  0  0  0  0  0  0  0  0
  -17.3939  -29.0722   24.5309 C   0  0  0  0  0  0  0  0  0  0  0  0
  -28.5830  -21.3172   20.1003 C   0  0  0  0  0  0  0  0  0  0  0  0
  -18.1227  -30.9168   23.1513 C   0  0  0  0  0  0  0  0  0  0  0  0
  -23.1975  -27.9872   20.8172 C   0  0  0  0  0  0  0  0  0  0  0  0
  -25.5266  -27.0023   20.4814 C   0  0  0  0  0  0  0  0  0  0  0  0
  -27.7711  -12.2378   20.2183 C   0  0  0  0  0  0  0  0  0  0  0  0
  -29.5760  -19.3080   21.0153 C   0  0  0  0  0  0  0  0  0  0  0  0
  -28.1006  -13.5290   19.7640 C   0  0  0  0  0  0  0  0  0  0  0  0
  -28.4878  -20.1881   20.9282 C   0  0  0  0  0  0  0  0  0  0  0  0
  -31.3410  -29.6501   20.7417 C   0  0  0  0  0  0  0  0  0  0  0  0
  -31.8169  -27.8041   18.7049 C   0  0  0  0  0  0  0  0  0  0  0  0
  -20.4577  -27.8276   21.3182 C   0  0  0  0  0  0  0  0  0  0  0  0
  -29.7487  -21.5741   19.3792 C   0  0  0  0  0  0  0  0  0  0  0  0
  -18.5790  -28.6444   22.4695 C   0  0  0  0  0  0  0  0  0  0  0  0
  -17.4847  -30.4445   24.2983 C   0  0  0  0  0  0  0  0  0  0  0  0
  -18.6698  -30.0167   22.2369 C   0  0  0  0  0  0  0  0  0  0  0  0
  -24.6124  -28.0701   20.5578 C   0  0  0  0  0  0  0  0  0  0  0  0
  -26.7336  -27.6020   20.2170 C   0  0  0  0  0  0  0  0  0  0  0  0
  -25.3046  -25.5942   20.6356 C   0  0  0  0  0  0  0  0  0  0  0  0
  -27.4561  -16.9395   21.0312 C   0  0  0  0  0  0  0  0  0  0  0  0
  -26.2437  -18.5627   23.5645 C   0  0  0  0  0  0  0  0  0  0  0  0
  -25.9153  -21.5319   25.2147 C   0  0  0  0  0  0  0  0  0  0  0  0
  -30.3237  -31.7687   21.6179 C   0  0  0  0  0  0  0  0  0  0  0  0
  -26.4415  -11.9395   20.8647 C   0  0  0  0  0  0  0  0  0  0  0  0
  -29.5112  -18.1033   21.9135 C   0  0  0  0  0  0  0  0  0  0  0  0
  -27.2127  -19.9509   21.6938 C   0  0  0  0  0  0  0  0  0  0  0  0
  -25.7139  -13.1851   21.3640 C   0  0  0  0  0  0  0  0  0  0  0  0
  -27.8806  -32.3358   18.8971 C   0  0  0  0  0  0  0  0  0  0  0  0
  -25.7347  -14.2780   20.3000 C   0  0  0  0  0  0  0  0  0  0  0  0
  -26.8452  -31.2385   19.1367 C   0  0  0  0  0  0  0  0  0  0  0  0
  -28.5629  -32.7634   20.1930 C   0  0  0  0  0  0  0  0  0  0  0  0
  -28.1479  -30.5291   21.1815 C   0  0  0  0  0  0  0  0  0  0  0  0
  -27.1714  -14.7046   19.9754 C   0  0  1  0  0  0  0  0  0  0  0  0
  -28.0838  -17.6468   22.1989 C   0  0  1  0  0  0  0  0  0  0  0  0
  -27.4752  -30.0525   19.8855 C   0  0  1  0  0  0  0  0  0  0  0  0
  -24.8344  -22.5532   27.2360 C   0  0  0  0  0  0  0  0  0  0  0  0
  -23.5467  -18.5251   22.1383 C   0  0  0  0  0  0  0  0  0  0  0  0
  -22.7758  -20.3263   23.6970 C   0  0  0  0  0  0  0  0  0  0  0  0
  -23.4314  -18.0950   24.5992 C   0  0  0  0  0  0  0  0  0  0  0  0
  -31.8914  -30.4961   23.0158 C   0  0  0  0  0  0  0  0  0  0  0  0
  -32.1002  -27.3220   16.2868 C   0  0  0  0  0  0  0  0  0  0  0  0
  -28.5296  -22.3104   26.3629 C   0  0  0  0  0  0  0  0  0  0  0  0
  -30.9471  -24.7518   18.1485 C   0  0  0  0  0  0  0  0  0  0  0  0
  -32.2739  -25.4790   17.9665 C   0  0  0  0  0  0  0  0  0  0  0  0
  -31.1172  -23.2597   18.4086 C   0  0  0  0  0  0  0  0  0  1  0  0
  -25.2222  -19.6601   23.7415 C   0  0  1  0  0  0  0  0  0  0  0  0
  -26.0870  -21.8951   26.6786 C   0  0  2  0  0  0  0  0  0  0  0  0
  -23.7672  -19.1554   23.5279 C   0  0  0  0  0  0  0  0  0  0  0  0
  -25.1892  -29.2581   20.3582 N   0  0  0  0  0  0  0  0  0  0  0  0
  -26.4790  -28.9404   20.1539 N   0  0  0  0  0  0  0  0  0  0  0  0
  -27.1960  -18.7560   22.5537 N   0  0  0  0  0  0  0  0  0  0  0  0
  -29.1052  -31.6175   20.9247 N   0  0  0  0  0  0  0  0  0  0  0  0
  -27.9773  -27.1097   20.0347 N   0  0  0  0  0  0  0  0  0  0  0  0
  -24.0033  -25.1485   20.9043 N   0  0  0  0  0  0  0  0  0  0  0  0
  -27.6854  -15.5770   21.0094 N   0  0  0  0  0  0  0  0  0  0  0  0
  -25.4672  -20.2373   25.0588 N   0  0  0  0  0  0  0  0  0  0  0  0
  -31.0964  -30.6051   21.7947 N   0  0  0  0  0  0  0  0  0  0  0  0
  -32.0554  -26.8764   17.6807 N   0  0  3  0  0  0  0  0  0  0  0  0
  -27.2284  -22.8382   26.8479 N   0  3  0  0  0  0  0  0  0  0  0  0
  -26.2356  -24.7575   20.5543 O   0  0  0  0  0  0  0  0  0  0  0  0
  -26.8104  -17.5822   20.2116 O   0  0  0  0  0  0  0  0  0  0  0  0
  -26.2028  -17.5740   24.3009 O   0  0  0  0  0  0  0  0  0  0  0  0
  -26.1514  -22.3193   24.3009 O   0  0  0  0  0  0  0  0  0  0  0  0
  -30.6742  -32.8547   22.0959 O   0  0  0  0  0  0  0  0  0  0  0  0
  -19.1210  -27.7495   21.5622 O   0  0  0  0  0  0  0  0  0  0  0  0
  -29.8275  -22.6738   18.5815 O   0  0  0  0  0  0  0  0  0  1  0  0
  -16.9579  -31.3086   25.1758 F   0  0  0  0  0  0  0  0  0  0  0  0
  -19.2805  -30.4764   21.1362 F   0  0  0  0  0  0  0  0  0  0  0  0
  1  2  1  0  0  0  0
  1  5  2  0  0  0  0
  2  6  2  0  0  0  0
  3 12  2  0  0  0  0
  3 19  1  0  0  0  0
  4 13  1  0  0  0  0
  4 19  2  0  0  0  0
  5 21  1  0  0  0  0
  6 23  1  0  0  0  0
  7 14  2  0  0  0  0
  7 22  1  0  0  0  0
  8 10  2  0  0  0  0
  8 25  1  0  0  0  0
  9 11  1  0  0  0  0
  9 25  2  0  0  0  0
 10 26  1  0  0  0  0
 11 26  2  0  0  0  0
 12 27  1  0  0  0  0
 13 27  2  0  0  0  0
 14 28  1  0  0  0  0
 15 16  2  0  0  0  0
 15 29  1  0  0  0  0
 16 30  1  0  0  0  0
 17 24  1  0  0  0  0
 17 28  2  0  0  0  0
 18 30  2  0  0  0  0
 18 31  1  0  0  0  0
 19 32  1  0  0  0  0
 20 32  1  0  0  0  0
 20 33  2  0  0  0  0
 20 34  1  0  0  0  0
 21 23  2  0  0  0  0
 21 39  1  0  0  0  0
 22 24  2  0  0  0  0
 22 40  1  0  0  0  0
 23 48  1  0  0  0  0
 24 41  1  0  0  0  0
 25 72  1  0  0  0  0
 26 73  1  0  0  0  0
 27 80  1  0  0  0  0
 28 81  1  0  0  0  0
 29 31  2  0  0  0  0
 29 80  1  0  0  0  0
 30 82  1  0  0  0  0
 31 83  1  0  0  0  0
 32 64  2  0  0  0  0
 33 65  1  0  0  0  0
 33 68  1  0  0  0  0
 34 69  1  0  0  0  0
 34 75  2  0  0  0  0
 35 49  1  0  0  0  0
 35 70  1  0  0  0  0
 35 76  2  0  0  0  0
 36 61  1  0  0  0  0
 36 66  1  0  0  0  0
 36 77  2  0  0  0  0
 37 62  1  0  0  0  0
 37 71  1  0  0  0  0
 37 78  2  0  0  0  0
 38 67  1  0  0  0  0
 38 72  1  0  0  0  0
 38 79  2  0  0  0  0
 39 42  1  0  0  0  0
 40 49  1  0  0  0  0
 41 66  1  0  0  0  0
 42 44  1  0  0  0  0
 43 45  1  0  0  0  0
 43 46  1  0  0  0  0
 44 48  1  0  0  0  0
 45 50  1  0  0  0  0
 46 67  1  0  0  0  0
 47 50  1  0  0  0  0
 47 67  1  0  0  0  0
 48 70  1  0  0  0  0
 49 66  1  0  0  0  0
 50 65  1  0  0  0  0
 51 62  1  0  0  0  0
 52 63  1  0  0  0  0
 53 63  1  0  0  0  0
 54 63  1  0  0  0  0
 55 72  1  0  0  0  0
 56 73  1  0  0  0  0
 57 74  1  0  0  0  0
 58 59  1  0  0  0  0
 58 60  1  0  0  0  0
 59 73  1  0  0  0  0
 60 81  1  0  0  0  0
 61 63  1  0  0  0  0
 61 71  1  0  0  0  0
 62 74  1  0  0  0  0
 64 65  1  0  0  0  0
M  CHG  1  74   1
M  ISO  4  38 100  60 101  72 100  81 101
M  END
> <Batch ID>
0017

> <Smiles>
CNC(C)C(=O)NC(C(=O)N1Cc2cc([101O:1][101CH2:1]CCN(C)c3ccc([100N:0](C)[100C:0](=O)N4CCCC(n5nc(-c6ccc(Oc7ccc(F)cc7F)cc6)c(C(N)=O)c5N)C4)cc3)ccc2CC1C(=O)NC1CCCc2ccccc21)C(C)(C)C

> <Shape>
0.220

> <Color>
0.079

> <Negative vol penalty>
0.000

$$$$

  -OEChem-04042321003D

 86 95  0     1  0  0  0  0  0999 V2000
  -16.5628  -28.5702   23.4104 C   0  0  0  0  0  0  0  0  0  0  0  0
  -17.5137  -27.6755   22.9300 C   0  0  0  0  0  0  0  0  0  0  0  0
  -23.5236  -18.8985   22.2972 C   0  0  0  0  0  0  0  0  0  0  0  0
  -22.3631  -16.8546   22.8564 C   0  0  0  0  0  0  0  0  0  0  0  0
  -16.9519  -29.8432   23.8252 C   0  0  0  0  0  0  0  0  0  0  0  0
  -18.8542  -28.0537   22.8632 C   0  0  0  0  0  0  0  0  0  0  0  0
  -23.7392  -24.4711   23.7622 C   0  0  0  0  0  0  0  0  0  0  0  0
  -28.7999  -19.1005   19.1102 C   0  0  0  0  0  0  0  0  0  0  0  0
  -29.5683  -17.9792   19.4229 C   0  0  0  0  0  0  0  0  0  0  0  0
  -22.3093  -19.4950   21.9576 C   0  0  0  0  0  0  0  0  0  0  0  0
  -21.1488  -17.4511   22.5169 C   0  0  0  0  0  0  0  0  0  0  0  0
  -24.5953  -23.8137   22.8798 C   0  0  0  0  0  0  0  0  0  0  0  0
  -19.6858  -20.8952   23.5669 C   0  0  0  0  0  0  0  0  0  0  0  0
  -19.4467  -22.1885   24.0313 C   0  0  0  0  0  0  0  0  0  0  0  0
  -26.1468  -25.6553   23.0224 C   0  0  0  0  0  0  0  0  0  0  0  0
  -29.1961  -19.9889   21.3217 C   0  0  0  0  0  0  0  0  0  0  0  0
  -19.2359  -22.9673   21.7540 C   0  0  0  0  0  0  0  0  0  0  0  0
  -23.5505  -17.5782   22.7465 C   0  0  0  0  0  0  0  0  0  0  0  0
  -25.4250  -16.9546   24.3605 C   0  0  0  0  0  0  0  0  0  0  0  0
  -18.2993  -30.2338   23.7725 C   0  0  0  0  0  0  0  0  0  0  0  0
  -24.0760  -25.7327   24.2736 C   0  0  0  0  0  0  0  0  0  0  0  0
  -19.2615  -29.3335   23.2765 C   0  0  0  0  0  0  0  0  0  0  0  0
  -25.2944  -26.3256   23.9130 C   0  0  0  0  0  0  0  0  0  0  0  0
  -28.6138  -20.1054   20.0595 C   0  0  0  0  0  0  0  0  0  0  0  0
  -30.1506  -17.8627   20.6851 C   0  0  0  0  0  0  0  0  0  0  0  0
  -21.1219  -18.7714   22.0675 C   0  0  0  0  0  0  0  0  0  0  0  0
  -25.7980  -24.4070   22.5075 C   0  0  0  0  0  0  0  0  0  0  0  0
  -19.7001  -20.6379   22.1960 C   0  0  0  0  0  0  0  0  0  0  0  0
  -19.2217  -23.2246   23.1249 C   0  0  0  0  0  0  0  0  0  0  0  0
  -29.9645  -18.8675   21.6345 C   0  0  0  0  0  0  0  0  0  0  0  0
  -19.4750  -21.6740   21.2896 C   0  0  0  0  0  0  0  0  0  0  0  0
  -24.8046  -16.9613   23.0968 C   0  0  0  0  0  0  0  0  0  0  0  0
  -26.5844  -16.2432   24.1700 C   0  0  0  0  0  0  0  0  0  0  0  0
  -24.9919  -17.5390   25.5961 C   0  0  0  0  0  0  0  0  0  0  0  0
  -22.7942  -28.6365   24.1053 C   0  0  0  0  0  0  0  0  0  0  0  0
  -25.1387  -29.3692   26.2240 C   0  0  0  0  0  0  0  0  0  0  0  0
  -28.2053  -28.6251   27.5237 C   0  0  0  0  0  0  0  0  0  0  0  0
  -30.6812  -15.4469   20.4136 C   0  0  0  0  0  0  0  0  0  0  0  0
  -18.6651  -31.6368   24.1877 C   0  0  0  0  0  0  0  0  0  0  0  0
  -23.1540  -26.4169   25.2453 C   0  0  0  0  0  0  0  0  0  0  0  0
  -25.7119  -27.6695   24.4498 C   0  0  0  0  0  0  0  0  0  0  0  0
  -20.1591  -31.8285   24.4359 C   0  0  0  0  0  0  0  0  0  0  0  0
  -28.1664  -12.9685   20.8337 C   0  0  0  0  0  0  0  0  0  0  0  0
  -30.0014  -24.1146   18.7362 C   0  0  0  0  0  0  0  0  0  0  0  0
  -20.9722  -31.2093   23.3034 C   0  0  0  0  0  0  0  0  0  0  0  0
  -27.0892  -13.7530   21.5819 C   0  0  0  0  0  0  0  0  0  0  0  0
  -28.5909  -24.6364   18.5299 C   0  0  0  0  0  0  0  0  0  0  0  0
  -28.8428  -13.8127   19.7531 C   0  0  0  0  0  0  0  0  0  0  0  0
  -28.3071  -15.8848   20.9957 C   0  0  0  0  0  0  0  0  0  0  0  0
  -29.7841  -22.6337   18.9507 C   0  0  0  0  0  0  0  0  0  0  0  0
  -20.7288  -29.6981   23.2119 C   0  0  1  0  0  0  0  0  0  0  0  0
  -23.3606  -27.9273   25.3027 C   0  0  1  0  0  0  0  0  0  0  0  0
  -27.6496  -15.0786   22.1268 C   0  0  1  0  0  0  0  0  0  0  0  0
  -27.7285  -23.8400   19.5089 C   0  0  2  0  0  0  0  0  0  0  0  0
  -29.8744  -29.4273   29.2172 C   0  0  0  0  0  0  0  0  0  0  0  0
  -25.9692  -31.6181   24.3366 C   0  0  0  0  0  0  0  0  0  0  0  0
  -28.1458  -31.7523   25.5664 C   0  0  0  0  0  0  0  0  0  0  0  0
  -26.0083  -32.2244   26.7625 C   0  0  0  0  0  0  0  0  0  0  0  0
  -32.1830  -16.8886   21.7706 C   0  0  0  0  0  0  0  0  0  0  0  0
  -28.0336  -26.1013   29.0598 C   0  0  0  0  0  0  0  0  0  0  0  0
  -27.7864  -21.3110   19.7238 C   0  0  0  0  0  0  0  0  0  0  0  0
  -27.4513  -24.5843   20.8072 C   0  0  0  0  0  0  0  0  0  1  0  0
  -26.5672  -29.8451   26.1155 C   0  0  1  0  0  0  0  0  0  0  0  0
  -28.6904  -28.5089   28.9574 C   0  0  2  0  0  0  0  0  0  0  0  0
  -26.6642  -31.3355   25.6835 C   0  0  0  0  0  0  0  0  0  0  0  0
  -25.5114  -16.3063   22.1719 N   0  0  0  0  0  0  0  0  0  0  0  0
  -26.5880  -15.8815   22.8550 N   0  0  0  0  0  0  0  0  0  0  0  0
  -24.7735  -28.3015   25.3919 N   0  0  0  0  0  0  0  0  0  0  0  0
  -29.3250  -15.0842   20.3109 N   0  0  0  0  0  0  0  0  0  0  0  0
  -27.5909  -15.8982   25.0008 N   0  0  0  0  0  0  0  0  0  0  0  0
  -23.7759  -18.2356   25.6157 N   0  0  0  0  0  0  0  0  0  0  0  0
  -21.4692  -29.0035   24.2434 N   0  0  0  0  0  0  0  0  0  0  0  0
  -27.1933  -29.5536   27.4006 N   0  0  0  0  0  0  0  0  0  0  0  0
  -30.9452  -16.7005   21.0063 N   0  0  0  0  0  0  0  0  0  0  0  0
  -28.5511  -22.5928   19.8229 N   0  3  1  0  0  0  0  0  0  0  0  0
  -29.1083  -27.1089   29.2510 N   0  3  0  0  0  0  0  0  0  0  0  0
  -25.6713  -17.4603   26.6476 O   0  0  0  0  0  0  0  0  0  0  0  0
  -23.5071  -28.8373   23.1289 O   0  0  0  0  0  0  0  0  0  0  0  0
  -24.3769  -29.9197   27.0230 O   0  0  0  0  0  0  0  0  0  0  0  0
  -28.6794  -27.9616   26.6042 O   0  0  0  0  0  0  0  0  0  0  0  0
  -31.5875  -14.6977   20.0298 O   0  0  0  0  0  0  0  0  0  0  0  0
  -19.9368  -19.3532   21.7365 O   0  0  0  0  0  0  0  0  0  0  0  0
  -26.6351  -23.7677   21.6459 O   0  0  0  0  0  0  0  0  0  1  0  0
  -18.9905  -24.4662   23.5711 F   0  0  0  0  0  0  0  0  0  0  0  0
  -30.5182  -18.7653   22.8512 F   0  0  0  0  0  0  0  0  0  0  0  0
  -19.4863  -21.4327   19.9715 F   0  0  0  0  0  0  0  0  0  0  0  0
  1  2  1  0  0  0  0
  1  5  2  0  0  0  0
  2  6  2  0  0  0  0
  3 10  2  0  0  0  0
  3 18  1  0  0  0  0
  4 11  1  0  0  0  0
  4 18  2  0  0  0  0
  5 20  1  0  0  0  0
  6 22  1  0  0  0  0
  7 12  2  0  0  0  0
  7 21  1  0  0  0  0
  8  9  2  0  0  0  0
  8 24  1  0  0  0  0
  9 25  1  0  0  0  0
 10 26  1  0  0  0  0
 11 26  2  0  0  0  0
 12 27  1  0  0  0  0
 13 14  2  0  0  0  0
 13 28  1  0  0  0  0
 14 29  1  0  0  0  0
 15 23  1  0  0  0  0
 15 27  2  0  0  0  0
 16 24  2  0  0  0  0
 16 30  1  0  0  0  0
 17 29  2  0  0  0  0
 17 31  1  0  0  0  0
 18 32  1  0  0  0  0
 19 32  1  0  0  0  0
 19 33  2  0  0  0  0
 19 34  1  0  0  0  0
 20 22  2  0  0  0  0
 20 39  1  0  0  0  0
 21 23  2  0  0  0  0
 21 40  1  0  0  0  0
 22 51  1  0  0  0  0
 23 41  1  0  0  0  0
 24 61  1  0  0  0  0
 25 30  2  0  0  0  0
 25 74  1  0  0  0  0
 26 82  1  0  0  0  0
 27 83  1  0  0  0  0
 28 31  2  0  0  0  0
 28 82  1  0  0  0  0
 29 84  1  0  0  0  0
 30 85  1  0  0  0  0
 31 86  1  0  0  0  0
 32 66  2  0  0  0  0
 33 67  1  0  0  0  0
 33 70  1  0  0  0  0
 34 71  1  0  0  0  0
 34 77  2  0  0  0  0
 35 52  1  0  0  0  0
 35 72  1  0  0  0  0
 35 78  2  0  0  0  0
 36 63  1  0  0  0  0
 36 68  1  0  0  0  0
 36 79  2  0  0  0  0
 37 64  1  0  0  0  0
 37 73  1  0  0  0  0
 37 80  2  0  0  0  0
 38 69  1  0  0  0  0
 38 74  1  0  0  0  0
 38 81  2  0  0  0  0
 39 42  1  0  0  0  0
 40 52  1  0  0  0  0
 41 68  1  0  0  0  0
 42 45  1  0  0  0  0
 43 46  1  0  0  0  0
 43 48  1  0  0  0  0
 44 47  1  0  0  0  0
 44 50  1  0  0  0  0
 45 51  1  0  0  0  0
 46 53  1  0  0  0  0
 47 54  1  0  0  0  0
 48 69  1  0  0  0  0
 49 53  1  0  0  0  0
 49 69  1  0  0  0  0
 50 75  1  0  0  0  0
 51 72  1  0  0  0  0
 52 68  1  0  0  0  0
 53 67  1  0  0  0  0
 54 62  1  0  0  0  0
 54 75  1  0  0  0  0
 55 64  1  0  0  0  0
 56 65  1  0  0  0  0
 57 65  1  0  0  0  0
 58 65  1  0  0  0  0
 59 74  1  0  0  0  0
 60 76  1  0  0  0  0
 61 75  1  0  0  0  0
 62 83  1  0  0  0  0
 63 65  1  0  0  0  0
 63 73  1  0  0  0  0
 64 76  1  0  0  0  0
 66 67  1  0  0  0  0
M  CHG  2  75   1  76   1
M  ISO  4  38 100  62 101  74 100  83 101
M  END
> <Batch ID>
0017

> <Smiles>
CNC(C)C(=O)NC(C(=O)N1Cc2cc([101O:1][101CH2:1]C3CCCN3Cc3ccc([100N:0](C)[100C:0](=O)N4CCCC(n5nc(-c6ccc(Oc7ccc(F)cc7F)cc6)c(C(N)=O)c5N)C4)c(F)c3)ccc2CC1C(=O)NC1CCCc2ccccc21)C(C)(C)C

> <Shape>
0.199

> <Color>
0.070

> <Negative vol penalty>
0.000

$$$$

  -OEChem-04042321003D

 86 94  0     1  0  0  0  0  0999 V2000
  -30.8420  -25.4032   17.8502 C   0  0  0  0  0  0  0  0  0  0  0  0
  -29.4619  -25.2849   17.9797 C   0  0  0  0  0  0  0  0  0  0  0  0
  -24.7521  -14.2887   20.4967 C   0  0  0  0  0  0  0  0  0  0  0  0
  -23.6538  -12.2113   19.9356 C   0  0  0  0  0  0  0  0  0  0  0  0
  -31.5819  -26.0425   18.8440 C   0  0  0  0  0  0  0  0  0  0  0  0
  -28.8210  -25.8050   19.1037 C   0  0  0  0  0  0  0  0  0  0  0  0
  -23.2491  -28.3371   19.3227 C   0  0  0  0  0  0  0  0  0  0  0  0
  -17.4818  -20.9232   23.7984 C   0  0  0  0  0  0  0  0  0  0  0  0
  -19.7891  -21.5283   23.4145 C   0  0  0  0  0  0  0  0  0  0  0  0
  -17.1773  -22.2568   24.0707 C   0  0  0  0  0  0  0  0  0  0  0  0
  -19.4846  -22.8620   23.6868 C   0  0  0  0  0  0  0  0  0  0  0  0
  -25.9521  -13.6033   20.6859 C   0  0  0  0  0  0  0  0  0  0  0  0
  -24.8538  -11.5258   20.1246 C   0  0  0  0  0  0  0  0  0  0  0  0
  -22.0043  -27.8339   19.6980 C   0  0  0  0  0  0  0  0  0  0  0  0
  -29.3885  -12.4509   20.9653 C   0  0  0  0  0  0  0  0  0  0  0  0
  -30.5451  -13.0045   20.4164 C   0  0  0  0  0  0  0  0  0  0  0  0
  -22.3079  -28.7490   21.9093 C   0  0  0  0  0  0  0  0  0  0  0  0
  -29.5680  -12.8594   18.2115 C   0  0  0  0  0  0  0  0  0  0  0  0
  -23.6029  -13.5927   20.1216 C   0  0  0  0  0  0  0  0  0  0  0  0
  -21.8899  -14.8730   18.7308 C   0  0  0  0  0  0  0  0  0  0  0  0
  -30.9487  -26.5792   19.9761 C   0  0  0  0  0  0  0  0  0  0  0  0
  -24.0388  -29.0418   20.2425 C   0  0  0  0  0  0  0  0  0  0  0  0
  -29.5534  -26.4509   20.1142 C   0  0  0  0  0  0  0  0  0  0  0  0
  -23.5613  -29.2623   21.5423 C   0  0  0  0  0  0  0  0  0  0  0  0
  -18.7877  -20.5589   23.4703 C   0  0  0  0  0  0  0  0  0  0  0  0
  -18.1787  -23.2263   24.0149 C   0  0  0  0  0  0  0  0  0  0  0  0
  -26.0029  -12.2218   20.4998 C   0  0  0  0  0  0  0  0  0  0  0  0
  -21.5347  -28.0373   20.9923 C   0  0  0  0  0  0  0  0  0  0  0  0
  -28.3216  -12.1014   20.1374 C   0  0  0  0  0  0  0  0  0  0  0  0
  -30.6348  -13.2088   19.0395 C   0  0  0  0  0  0  0  0  0  0  0  0
  -28.4114  -12.3057   18.7605 C   0  0  0  0  0  0  0  0  0  0  0  0
  -22.3629  -14.3002   19.9266 C   0  0  0  0  0  0  0  0  0  0  0  0
  -20.6772  -15.4218   19.0692 C   0  0  0  0  0  0  0  0  0  0  0  0
  -22.4929  -14.9060   17.4304 C   0  0  0  0  0  0  0  0  0  0  0  0
  -26.9059  -28.5974   21.5411 C   0  0  0  0  0  0  0  0  0  0  0  0
  -26.3674  -31.5433   22.7876 C   0  0  0  0  0  0  0  0  0  0  0  0
  -24.1089  -33.9224   23.7290 C   0  0  0  0  0  0  0  0  0  0  0  0
  -18.3867  -18.1244   23.7982 C   0  0  0  0  0  0  0  0  0  0  0  0
  -31.7962  -27.2199   21.0466 C   0  0  0  0  0  0  0  0  0  0  0  0
  -25.3677  -29.6012   19.8141 C   0  0  0  0  0  0  0  0  0  0  0  0
  -24.3616  -30.0297   22.5616 C   0  0  0  0  0  0  0  0  0  0  0  0
  -30.9963  -28.0740   22.0269 C   0  0  0  0  0  0  0  0  0  0  0  0
  -17.4185  -14.7344   22.7116 C   0  0  0  0  0  0  0  0  0  0  0  0
  -29.7478  -27.3291   22.4884 C   0  0  0  0  0  0  0  0  0  0  0  0
  -18.5892  -14.3138   21.8247 C   0  0  0  0  0  0  0  0  0  0  0  0
  -17.8557  -15.7047   23.8049 C   0  0  0  0  0  0  0  0  0  0  0  0
  -19.7389  -16.4888   22.4017 C   0  0  0  0  0  0  0  0  0  0  0  0
  -28.8191  -27.0240   21.3069 C   0  0  1  0  0  0  0  0  0  0  0  0
  -26.3121  -29.8602   20.9839 C   0  0  1  0  0  0  0  0  0  0  0  0
  -19.3224  -15.5445   21.2638 C   0  0  1  0  0  0  0  0  0  0  0  0
  -23.8062  -18.0455   21.9004 C   0  0  0  0  0  0  0  0  0  0  0  0
  -23.9680  -36.2105   24.7499 C   0  0  0  0  0  0  0  0  0  0  0  0
  -26.9561  -30.3515   25.5341 C   0  0  0  0  0  0  0  0  0  0  0  0
  -25.8946  -32.3728   26.5616 C   0  0  0  0  0  0  0  0  0  0  0  0
  -27.9360  -32.6201   25.1495 C   0  0  0  0  0  0  0  0  0  0  0  0
  -16.5004  -24.9478   24.6313 C   0  0  0  0  0  0  0  0  0  0  0  0
  -22.8036  -35.0432   21.3209 C   0  0  0  0  0  0  0  0  0  0  0  0
  -22.3907  -18.2878   21.3999 C   0  0  0  0  0  0  0  0  0  0  0  0
  -21.4303  -18.5731   22.5566 C   0  0  0  0  0  0  0  0  0  0  0  0
  -19.1238  -26.0673   22.8240 C   0  0  0  0  0  0  0  0  0  0  0  0
  -20.0142  -18.8794   22.0804 C   0  0  0  0  0  0  0  0  0  0  0  0
  -18.8854  -25.5936   24.2527 C   0  0  0  0  0  0  0  0  0  0  0  0
  -20.1550  -27.1859   22.7322 C   0  0  0  0  0  0  0  0  0  1  0  0
  -25.7272  -32.0696   24.0495 C   0  0  1  0  0  0  0  0  0  0  0  0
  -24.0449  -35.4144   23.4564 C   0  0  2  0  0  0  0  0  0  0  0  0
  -26.6140  -31.8373   25.3053 C   0  0  0  0  0  0  0  0  0  0  0  0
  -21.5195  -14.4695   20.9484 N   0  0  0  0  0  0  0  0  0  0  0  0
  -20.5043  -15.1551   20.3955 N   0  0  0  0  0  0  0  0  0  0  0  0
  -25.6574  -30.5513   22.0965 N   0  0  0  0  0  0  0  0  0  0  0  0
  -18.5898  -16.8423   23.2494 N   0  0  0  0  0  0  0  0  0  0  0  0
  -19.7525  -16.1018   18.3586 N   0  0  0  0  0  0  0  0  0  0  0  0
  -23.7416  -14.2935   17.2572 N   0  0  0  0  0  0  0  0  0  0  0  0
  -28.0804  -28.2086   20.9256 N   0  0  0  0  0  0  0  0  0  0  0  0
  -25.4100  -33.4702   23.7927 N   0  0  0  0  0  0  0  0  0  0  0  0
  -19.1029  -19.1780   23.1901 N   0  0  0  0  0  0  0  0  0  0  0  0
  -17.8719  -24.5671   24.2879 N   0  0  3  0  0  0  0  0  0  0  0  0
  -22.8463  -35.7394   22.6325 N   0  3  0  0  0  0  0  0  0  0  0  0
  -21.9483  -15.4764   16.4550 O   0  0  0  0  0  0  0  0  0  0  0  0
  -26.3411  -28.0194   22.4623 O   0  0  0  0  0  0  0  0  0  0  0  0
  -27.4540  -32.0008   22.4246 O   0  0  0  0  0  0  0  0  0  0  0  0
  -23.1053  -33.2282   23.8748 O   0  0  0  0  0  0  0  0  0  0  0  0
  -17.6047  -18.3158   24.7372 O   0  0  0  0  0  0  0  0  0  0  0  0
  -27.1737  -11.5526   20.6840 O   0  0  0  0  0  0  0  0  0  0  0  0
  -20.3203  -27.5467   21.3615 O   0  0  0  0  0  0  0  0  0  1  0  0
  -31.7450  -13.7419   18.5126 F   0  0  0  0  0  0  0  0  0  0  0  0
  -27.3893  -11.9731   17.9602 F   0  0  0  0  0  0  0  0  0  0  0  0
  1  2  1  0  0  0  0
  1  5  2  0  0  0  0
  2  6  2  0  0  0  0
  3 12  2  0  0  0  0
  3 19  1  0  0  0  0
  4 13  1  0  0  0  0
  4 19  2  0  0  0  0
  5 21  1  0  0  0  0
  6 23  1  0  0  0  0
  7 14  2  0  0  0  0
  7 22  1  0  0  0  0
  8 10  2  0  0  0  0
  8 25  1  0  0  0  0
  9 11  1  0  0  0  0
  9 25  2  0  0  0  0
 10 26  1  0  0  0  0
 11 26  2  0  0  0  0
 12 27  1  0  0  0  0
 13 27  2  0  0  0  0
 14 28  1  0  0  0  0
 15 16  2  0  0  0  0
 15 29  1  0  0  0  0
 16 30  1  0  0  0  0
 17 24  1  0  0  0  0
 17 28  2  0  0  0  0
 18 30  2  0  0  0  0
 18 31  1  0  0  0  0
 19 32  1  0  0  0  0
 20 32  1  0  0  0  0
 20 33  2  0  0  0  0
 20 34  1  0  0  0  0
 21 23  2  0  0  0  0
 21 39  1  0  0  0  0
 22 24  2  0  0  0  0
 22 40  1  0  0  0  0
 23 48  1  0  0  0  0
 24 41  1  0  0  0  0
 25 75  1  0  0  0  0
 26 76  1  0  0  0  0
 27 83  1  0  0  0  0
 28 84  1  0  0  0  0
 29 31  2  0  0  0  0
 29 83  1  0  0  0  0
 30 85  1  0  0  0  0
 31 86  1  0  0  0  0
 32 67  2  0  0  0  0
 33 68  1  0  0  0  0
 33 71  1  0  0  0  0
 34 72  1  0  0  0  0
 34 78  2  0  0  0  0
 35 49  1  0  0  0  0
 35 73  1  0  0  0  0
 35 79  2  0  0  0  0
 36 64  1  0  0  0  0
 36 69  1  0  0  0  0
 36 80  2  0  0  0  0
 37 65  1  0  0  0  0
 37 74  1  0  0  0  0
 37 81  2  0  0  0  0
 38 70  1  0  0  0  0
 38 75  1  0  0  0  0
 38 82  2  0  0  0  0
 39 42  1  0  0  0  0
 40 49  1  0  0  0  0
 41 69  1  0  0  0  0
 42 44  1  0  0  0  0
 43 45  1  0  0  0  0
 43 46  1  0  0  0  0
 44 48  1  0  0  0  0
 45 50  1  0  0  0  0
 46 70  1  0  0  0  0
 47 50  1  0  0  0  0
 47 70  1  0  0  0  0
 48 73  1  0  0  0  0
 49 69  1  0  0  0  0
 50 68  1  0  0  0  0
 51 58  1  0  0  0  0
 52 65  1  0  0  0  0
 53 66  1  0  0  0  0
 54 66  1  0  0  0  0
 55 66  1  0  0  0  0
 56 76  1  0  0  0  0
 57 77  1  0  0  0  0
 58 59  1  0  0  0  0
 59 61  1  0  0  0  0
 60 62  1  0  0  0  0
 60 63  1  0  0  0  0
 61 75  1  0  0  0  0
 62 76  1  0  0  0  0
 63 84  1  0  0  0  0
 64 66  1  0  0  0  0
 64 74  1  0  0  0  0
 65 77  1  0  0  0  0
 67 68  1  0  0  0  0
M  CHG  1  77   1
M  ISO  4  38 100  63 101  75 100  84 101
M  END
> <Batch ID>
0017

> <Smiles>
CCCC[100N:0](c1ccc(N(C)CC[101CH2:1][101O:1]c2ccc3c(c2)CN(C(=O)C(NC(=O)C(C)NC)C(C)(C)C)C(C(=O)NC2CCCc4ccccc42)C3)cc1)[100C:0](=O)N1CCCC(n2nc(-c3ccc(Oc4ccc(F)cc4F)cc3)c(C(N)=O)c2N)C1

> <Shape>
0.282

> <Color>
0.094

> <Negative vol penalty>
0.000

$$$$

  -OEChem-04042321003D

 85 93  0     1  0  0  0  0  0999 V2000
  -24.5310  -34.1186   27.8399 C   0  0  0  0  0  0  0  0  0  0  0  0
  -25.4214  -33.3241   27.1247 C   0  0  0  0  0  0  0  0  0  0  0  0
  -28.3069  -12.1028   20.6670 C   0  0  0  0  0  0  0  0  0  0  0  0
  -29.8915  -13.4087   19.3939 C   0  0  0  0  0  0  0  0  0  0  0  0
  -23.1644  -33.8460   27.7953 C   0  0  0  0  0  0  0  0  0  0  0  0
  -24.9456  -32.2558   26.3653 C   0  0  0  0  0  0  0  0  0  0  0  0
  -27.1961  -30.2335   21.0407 C   0  0  0  0  0  0  0  0  0  0  0  0
  -27.7060  -23.5113   18.6262 C   0  0  0  0  0  0  0  0  0  0  0  0
  -27.4115  -22.5515   19.5946 C   0  0  0  0  0  0  0  0  0  0  0  0
  -28.2983  -11.1345   19.6631 C   0  0  0  0  0  0  0  0  0  0  0  0
  -29.8830  -12.4403   18.3900 C   0  0  0  0  0  0  0  0  0  0  0  0
  -28.0530  -29.1803   20.7241 C   0  0  0  0  0  0  0  0  0  0  0  0
  -26.8842  -10.7122   16.6223 C   0  0  0  0  0  0  0  0  0  0  0  0
  -25.6477  -10.2065   16.2211 C   0  0  0  0  0  0  0  0  0  0  0  0
  -26.1471  -27.7827   20.2410 C   0  0  0  0  0  0  0  0  0  0  0  0
  -29.5756  -21.5355   19.2456 C   0  0  0  0  0  0  0  0  0  0  0  0
  -26.3458   -7.9860   16.8683 C   0  0  0  0  0  0  0  0  0  0  0  0
  -29.1034  -13.2400   20.5323 C   0  0  0  0  0  0  0  0  0  0  0  0
  -29.9644  -14.2983   22.6879 C   0  0  0  0  0  0  0  0  0  0  0  0
  -22.6708  -32.7797   27.0272 C   0  0  0  0  0  0  0  0  0  0  0  0
  -25.8057  -30.0656   20.9702 C   0  0  0  0  0  0  0  0  0  0  0  0
  -23.5712  -31.9678   26.3114 C   0  0  0  0  0  0  0  0  0  0  0  0
  -25.2747  -28.8361   20.5548 C   0  0  0  0  0  0  0  0  0  0  0  0
  -28.9352  -23.4832   17.9675 C   0  0  0  0  0  0  0  0  0  0  0  0
  -28.3463  -21.5637   19.9043 C   0  0  0  0  0  0  0  0  0  0  0  0
  -29.8700  -22.4953   18.2771 C   0  0  0  0  0  0  0  0  0  0  0  0
  -29.0864  -11.3032   18.5246 C   0  0  0  0  0  0  0  0  0  0  0  0
  -27.5285  -27.9538   20.3269 C   0  0  0  0  0  0  0  0  0  0  0  0
  -27.8516   -9.8547   17.1464 C   0  0  0  0  0  0  0  0  0  0  0  0
  -25.3785   -8.8435   16.3441 C   0  0  0  0  0  0  0  0  0  0  0  0
  -27.5824   -8.4916   17.2694 C   0  0  0  0  0  0  0  0  0  0  0  0
  -29.1123  -14.2409   21.5688 C   0  0  0  0  0  0  0  0  0  0  0  0
  -29.5727  -15.4303   23.3599 C   0  0  0  0  0  0  0  0  0  0  0  0
  -31.0159  -13.4080   23.0845 C   0  0  0  0  0  0  0  0  0  0  0  0
  -23.4200  -30.2081   23.0659 C   0  0  0  0  0  0  0  0  0  0  0  0
  -21.5868  -29.8402   20.4152 C   0  0  0  0  0  0  0  0  0  0  0  0
  -21.3374  -28.7369   17.1953 C   0  0  0  0  0  0  0  0  0  0  0  0
  -26.8738  -20.4743   21.6338 C   0  0  0  0  0  0  0  0  0  0  0  0
  -21.1899  -32.4949   27.0477 C   0  0  0  0  0  0  0  0  0  0  0  0
  -24.8953  -31.2196   21.2894 C   0  0  0  0  0  0  0  0  0  0  0  0
  -23.7897  -28.6106   20.4433 C   0  0  0  0  0  0  0  0  0  0  0  0
  -20.7311  -31.5738   25.9201 C   0  0  0  0  0  0  0  0  0  0  0  0
  -25.7370  -18.1947   24.1214 C   0  0  0  0  0  0  0  0  0  0  0  0
  -21.6636  -30.3728   25.7991 C   0  0  0  0  0  0  0  0  0  0  0  0
  -26.5554  -16.9293   23.8548 C   0  0  0  0  0  0  0  0  0  0  0  0
  -25.3566  -18.9077   22.8250 C   0  0  0  0  0  0  0  0  0  0  0  0
  -27.2982  -17.9376   21.6597 C   0  0  0  0  0  0  0  0  0  0  0  0
  -23.0913  -30.8151   25.4564 C   0  0  1  0  0  0  0  0  0  0  0  0
  -23.4871  -30.7800   21.6781 C   0  0  1  0  0  0  0  0  0  0  0  0
  -27.7602  -17.2201   22.9385 C   0  0  2  0  0  0  0  0  0  0  0  0
  -19.7024  -28.5384   15.3021 C   0  0  0  0  0  0  0  0  0  0  0  0
  -20.2533  -27.4811   21.8174 C   0  0  0  0  0  0  0  0  0  0  0  0
  -19.3516  -26.7601   19.5958 C   0  0  0  0  0  0  0  0  0  0  0  0
  -18.6862  -28.9651   20.5539 C   0  0  0  0  0  0  0  0  0  0  0  0
  -31.2762  -21.6901   16.3972 C   0  0  0  0  0  0  0  0  0  0  0  0
  -32.2527  -23.1788   18.1518 C   0  0  0  0  0  0  0  0  0  0  0  0
  -22.9853  -30.4567   15.4387 C   0  0  0  0  0  0  0  0  0  0  0  0
  -29.3611  -26.9531   16.3822 C   0  0  0  0  0  0  0  0  0  0  0  0
  -29.2255  -24.5279   16.9305 C   0  0  0  0  0  0  0  0  0  0  0  0
  -30.1378  -26.1329   18.6016 C   0  0  0  0  0  0  0  0  0  0  0  0
  -29.6416  -27.2622   19.4829 C   0  0  0  0  0  0  0  0  0  1  0  0
  -21.0299  -28.6603   19.6558 C   0  0  1  0  0  0  0  0  0  0  0  0
  -20.7819  -29.3950   15.9452 C   0  0  2  0  0  0  0  0  0  0  0  0
  -19.8582  -27.9700   20.4096 C   0  0  0  0  0  0  0  0  0  0  0  0
  -28.2446  -15.2556   21.5287 N   0  0  0  0  0  0  0  0  0  0  0  0
  -28.5494  -15.9613   22.6311 N   0  0  0  0  0  0  0  0  0  0  0  0
  -22.9407  -29.7676   20.7722 N   0  0  0  0  0  0  0  0  0  0  0  0
  -26.5483  -19.1540   22.0102 N   0  0  0  0  0  0  0  0  0  0  0  0
  -30.0071  -16.0133   24.4974 N   0  0  0  0  0  0  0  0  0  0  0  0
  -31.2867  -12.2932   22.2794 N   0  0  0  0  0  0  0  0  0  0  0  0
  -28.0464  -20.5887   20.8878 N   0  0  0  0  0  0  0  0  0  0  0  0
  -23.1936  -31.1493   24.0520 N   0  0  0  0  0  0  0  0  0  0  0  0
  -20.6772  -29.1575   18.3304 N   0  0  0  0  0  0  0  0  0  0  0  0
  -31.1190  -22.4515   17.6192 N   0  0  0  0  0  0  0  0  0  0  0  0
  -21.8675  -29.6105   14.9473 N   0  3  0  0  0  0  0  0  0  0  0  0
  -29.1863  -25.9326   17.4796 N   0  3  1  0  0  0  0  0  0  0  0  0
  -31.6845  -13.5866   24.1308 O   0  0  0  0  0  0  0  0  0  0  0  0
  -23.5616  -29.0019   23.2298 O   0  0  0  0  0  0  0  0  0  0  0  0
  -20.8496  -30.7943   20.6756 O   0  0  0  0  0  0  0  0  0  0  0  0
  -22.2620  -27.9276   17.1673 O   0  0  0  0  0  0  0  0  0  0  0  0
  -26.1792  -21.4357   21.9731 O   0  0  0  0  0  0  0  0  0  0  0  0
  -29.0785  -10.3584   17.5449 O   0  0  0  0  0  0  0  0  0  0  0  0
  -28.3627  -26.9240   20.0179 O   0  0  0  0  0  0  0  0  0  1  0  0
  -24.1905   -8.3583   15.9603 F   0  0  0  0  0  0  0  0  0  0  0  0
  -28.5073   -7.6631   17.7732 F   0  0  0  0  0  0  0  0  0  0  0  0
  1  2  1  0  0  0  0
  1  5  2  0  0  0  0
  2  6  2  0  0  0  0
  3 10  2  0  0  0  0
  3 18  1  0  0  0  0
  4 11  1  0  0  0  0
  4 18  2  0  0  0  0
  5 20  1  0  0  0  0
  6 22  1  0  0  0  0
  7 12  2  0  0  0  0
  7 21  1  0  0  0  0
  8  9  2  0  0  0  0
  8 24  1  0  0  0  0
  9 25  1  0  0  0  0
 10 27  1  0  0  0  0
 11 27  2  0  0  0  0
 12 28  1  0  0  0  0
 13 14  2  0  0  0  0
 13 29  1  0  0  0  0
 14 30  1  0  0  0  0
 15 23  1  0  0  0  0
 15 28  2  0  0  0  0
 16 25  2  0  0  0  0
 16 26  1  0  0  0  0
 17 30  2  0  0  0  0
 17 31  1  0  0  0  0
 18 32  1  0  0  0  0
 19 32  1  0  0  0  0
 19 33  2  0  0  0  0
 19 34  1  0  0  0  0
 20 22  2  0  0  0  0
 20 39  1  0  0  0  0
 21 23  2  0  0  0  0
 21 40  1  0  0  0  0
 22 48  1  0  0  0  0
 23 41  1  0  0  0  0
 24 26  2  0  0  0  0
 24 59  1  0  0  0  0
 25 71  1  0  0  0  0
 26 74  1  0  0  0  0
 27 82  1  0  0  0  0
 28 83  1  0  0  0  0
 29 31  2  0  0  0  0
 29 82  1  0  0  0  0
 30 84  1  0  0  0  0
 31 85  1  0  0  0  0
 32 65  2  0  0  0  0
 33 66  1  0  0  0  0
 33 69  1  0  0  0  0
 34 70  1  0  0  0  0
 34 77  2  0  0  0  0
 35 49  1  0  0  0  0
 35 72  1  0  0  0  0
 35 78  2  0  0  0  0
 36 62  1  0  0  0  0
 36 67  1  0  0  0  0
 36 79  2  0  0  0  0
 37 63  1  0  0  0  0
 37 73  1  0  0  0  0
 37 80  2  0  0  0  0
 38 68  1  0  0  0  0
 38 71  1  0  0  0  0
 38 81  2  0  0  0  0
 39 42  1  0  0  0  0
 40 49  1  0  0  0  0
 41 67  1  0  0  0  0
 42 44  1  0  0  0  0
 43 45  1  0  0  0  0
 43 46  1  0  0  0  0
 44 48  1  0  0  0  0
 45 50  1  0  0  0  0
 46 68  1  0  0  0  0
 47 50  1  0  0  0  0
 47 68  1  0  0  0  0
 48 72  1  0  0  0  0
 49 67  1  0  0  0  0
 50 66  1  0  0  0  0
 51 63  1  0  0  0  0
 52 64  1  0  0  0  0
 53 64  1  0  0  0  0
 54 64  1  0  0  0  0
 55 74  1  0  0  0  0
 56 74  1  0  0  0  0
 57 75  1  0  0  0  0
 58 76  1  0  0  0  0
 59 76  1  0  0  0  0
 60 61  1  0  0  0  0
 60 76  1  0  0  0  0
 61 83  1  0  0  0  0
 62 64  1  0  0  0  0
 62 73  1  0  0  0  0
 63 75  1  0  0  0  0
 65 66  1  0  0  0  0
M  CHG  2  75   1  76   1
M  ISO  4  38 100  61 101  71 100  83 101
M  END
> <Batch ID>
0017

> <Smiles>
CNC(C)C(=O)NC(C(=O)N1Cc2cc([101O:1][101CH2:1]CN(C)Cc3ccc([100NH:0][100C:0](=O)N4CCCC(n5nc(-c6ccc(Oc7ccc(F)cc7F)cc6)c(C(N)=O)c5N)C4)cc3N(C)C)ccc2CC1C(=O)NC1CCCc2ccccc21)C(C)(C)C

> <Shape>
0.215

> <Color>
0.073

> <Negative vol penalty>
0.000

$$$$

  -OEChem-04042321003D

 84 92  0     1  0  0  0  0  0999 V2000
  -29.8678   -2.0832   36.8256 C   0  0  0  0  0  0  0  0  0  0  0  0
  -29.8000   -2.9386   35.7306 C   0  0  0  0  0  0  0  0  0  0  0  0
  -23.2846   -9.7975   19.9080 C   0  0  0  0  0  0  0  0  0  0  0  0
  -23.7225   -9.9368   22.2799 C   0  0  0  0  0  0  0  0  0  0  0  0
  -28.6956   -1.5915   37.3984 C   0  0  0  0  0  0  0  0  0  0  0  0
  -28.5597   -3.3021   35.2070 C   0  0  0  0  0  0  0  0  0  0  0  0
  -27.0427   -8.6994   32.7426 C   0  0  0  0  0  0  0  0  0  0  0  0
  -28.4291  -11.5084   25.2454 C   0  0  0  0  0  0  0  0  0  0  0  0
  -28.4860  -10.3588   23.1212 C   0  0  0  0  0  0  0  0  0  0  0  0
  -27.7612  -10.4241   25.8143 C   0  0  0  0  0  0  0  0  0  0  0  0
  -27.8181   -9.2744   23.6902 C   0  0  0  0  0  0  0  0  0  0  0  0
  -22.5525   -8.6278   20.1119 C   0  0  0  0  0  0  0  0  0  0  0  0
  -22.9904   -8.7671   22.4838 C   0  0  0  0  0  0  0  0  0  0  0  0
  -26.9560   -9.1361   31.4214 C   0  0  0  0  0  0  0  0  0  0  0  0
  -19.7387   -7.8687   22.6830 C   0  0  0  0  0  0  0  0  0  0  0  0
  -18.8303   -7.8507   23.7413 C   0  0  0  0  0  0  0  0  0  0  0  0
  -24.5870   -8.6809   31.4327 C   0  0  0  0  0  0  0  0  0  0  0  0
  -20.0233   -5.9990   24.7339 C   0  0  0  0  0  0  0  0  0  0  0  0
  -23.8696  -10.4519   20.9921 C   0  0  0  0  0  0  0  0  0  0  0  0
  -24.1400  -12.9809   20.7945 C   0  0  0  0  0  0  0  0  0  0  0  0
  -27.4401   -1.9568   36.8876 C   0  0  0  0  0  0  0  0  0  0  0  0
  -25.9022   -8.2391   33.4164 C   0  0  0  0  0  0  0  0  0  0  0  0
  -27.3696   -2.8138   35.7726 C   0  0  0  0  0  0  0  0  0  0  0  0
  -24.6614   -8.2413   32.7633 C   0  0  0  0  0  0  0  0  0  0  0  0
  -28.7915  -11.4758   23.8987 C   0  0  0  0  0  0  0  0  0  0  0  0
  -27.4557   -9.3071   25.0368 C   0  0  0  0  0  0  0  0  0  0  0  0
  -22.4054   -8.1126   21.3998 C   0  0  0  0  0  0  0  0  0  0  0  0
  -25.7286   -9.1242   30.7653 C   0  0  0  0  0  0  0  0  0  0  0  0
  -20.7894   -6.9518   22.6500 C   0  0  0  0  0  0  0  0  0  0  0  0
  -18.9726   -6.9159   24.7667 C   0  0  0  0  0  0  0  0  0  0  0  0
  -20.9317   -6.0170   23.6755 C   0  0  0  0  0  0  0  0  0  0  0  0
  -24.6265  -11.6599   20.7821 C   0  0  0  0  0  0  0  0  0  0  0  0
  -25.2459  -13.7565   20.5456 C   0  0  0  0  0  0  0  0  0  0  0  0
  -22.8075  -13.4637   21.0117 C   0  0  0  0  0  0  0  0  0  0  0  0
  -25.0315   -5.4755   34.7233 C   0  0  0  0  0  0  0  0  0  0  0  0
  -22.4723   -7.2006   35.7218 C   0  0  0  0  0  0  0  0  0  0  0  0
  -20.4424   -9.9047   35.2594 C   0  0  0  0  0  0  0  0  0  0  0  0
  -31.1496  -12.3509   21.3872 C   0  0  0  0  0  0  0  0  0  0  0  0
  -26.2020   -1.3624   37.5107 C   0  0  0  0  0  0  0  0  0  0  0  0
  -26.0076   -7.7965   34.8501 C   0  0  0  0  0  0  0  0  0  0  0  0
  -23.4036   -7.7759   33.4487 C   0  0  0  0  0  0  0  0  0  0  0  0
  -24.9172   -2.0935   37.1297 C   0  0  0  0  0  0  0  0  0  0  0  0
  -29.4877  -13.6547   18.3475 C   0  0  0  0  0  0  0  0  0  0  0  0
  -24.8769   -2.3545   35.6274 C   0  0  0  0  0  0  0  0  0  0  0  0
  -28.0171  -13.3328   18.6079 C   0  0  0  0  0  0  0  0  0  0  0  0
  -30.4170  -12.6711   19.0522 C   0  0  0  0  0  0  0  0  0  0  0  0
  -28.6994  -12.2294   20.7753 C   0  0  0  0  0  0  0  0  0  0  0  0
  -26.0424   -3.2508   35.1916 C   0  0  1  0  0  0  0  0  0  0  0  0
  -24.8755   -6.8653   35.2727 C   0  0  1  0  0  0  0  0  0  0  0  0
  -27.7370  -13.2295   20.1172 C   0  0  2  0  0  0  0  0  0  0  0  0
  -18.4121  -11.0298   36.2130 C   0  0  0  0  0  0  0  0  0  0  0  0
  -20.6974   -5.0672   34.4536 C   0  0  0  0  0  0  0  0  0  0  0  0
  -18.7849   -6.6772   34.5889 C   0  0  0  0  0  0  0  0  0  0  0  0
  -19.9058   -5.8966   36.6762 C   0  0  0  0  0  0  0  0  0  0  0  0
  -26.4659   -7.0444   24.7913 C   0  0  0  0  0  0  0  0  0  0  0  0
  -31.8627  -12.0559   23.7290 C   0  0  0  0  0  0  0  0  0  0  0  0
  -21.9521  -12.3786   35.8592 C   0  0  0  0  0  0  0  0  0  0  0  0
  -29.5053  -12.6348   23.2894 C   0  0  0  0  0  0  0  0  0  0  0  0
  -25.1026   -8.9645   27.2113 C   0  0  0  0  0  0  0  0  0  0  0  0
  -26.4098   -8.2097   27.0020 C   0  0  0  0  0  0  0  0  0  0  0  0
  -24.6335   -8.9512   28.6614 C   0  0  0  0  0  0  0  0  0  1  0  0
  -21.1096   -7.5176   35.1547 C   0  0  1  0  0  0  0  0  0  0  0  0
  -19.9311  -10.9575   36.2262 C   0  0  2  0  0  0  0  0  0  0  0  0
  -20.1483   -6.2967   35.2045 C   0  0  0  0  0  0  0  0  0  0  0  0
  -25.9392  -11.5961   20.5439 N   0  0  0  0  0  0  0  0  0  0  0  0
  -26.2869  -12.8867   20.4044 N   0  0  0  0  0  0  0  0  0  0  0  0
  -23.5593   -7.3469   34.8484 N   0  0  0  0  0  0  0  0  0  0  0  0
  -30.1009  -12.5599   20.4766 N   0  0  0  0  0  0  0  0  0  0  0  0
  -25.4196  -15.0907   20.4359 N   0  0  0  0  0  0  0  0  0  0  0  0
  -21.7900  -12.5308   21.2536 N   0  0  0  0  0  0  0  0  0  0  0  0
  -25.7716   -4.6317   35.5293 N   0  0  0  0  0  0  0  0  0  0  0  0
  -20.6276   -8.6877   35.8806 N   0  0  0  0  0  0  0  0  0  0  0  0
  -26.7858   -8.2161   25.6089 N   0  0  3  0  0  0  0  0  0  0  0  0
  -30.8090  -12.2608   22.7454 N   0  0  0  0  0  0  0  0  0  0  0  0
  -20.4686  -12.2991   35.8629 N   0  3  0  0  0  0  0  0  0  0  0  0
  -22.5246  -14.6852   20.9756 O   0  0  0  0  0  0  0  0  0  0  0  0
  -24.5171   -5.1895   33.6485 O   0  0  0  0  0  0  0  0  0  0  0  0
  -22.5694   -6.8434   36.8985 O   0  0  0  0  0  0  0  0  0  0  0  0
  -20.6527  -10.1376   34.0711 O   0  0  0  0  0  0  0  0  0  0  0  0
  -32.3246  -12.2600   21.0088 O   0  0  0  0  0  0  0  0  0  0  0  0
  -21.6909   -6.9715   21.5991 O   0  0  0  0  0  0  0  0  0  0  0  0
  -25.6413   -9.5493   29.4756 O   0  0  0  0  0  0  0  0  0  1  0  0
  -18.1010   -6.8998   25.7838 F   0  0  0  0  0  0  0  0  0  0  0  0
  -21.9398   -5.1344   23.6500 F   0  0  0  0  0  0  0  0  0  0  0  0
  1  2  1  0  0  0  0
  1  5  2  0  0  0  0
  2  6  2  0  0  0  0
  3 12  2  0  0  0  0
  3 19  1  0  0  0  0
  4 13  1  0  0  0  0
  4 19  2  0  0  0  0
  5 21  1  0  0  0  0
  6 23  1  0  0  0  0
  7 14  2  0  0  0  0
  7 22  1  0  0  0  0
  8 10  2  0  0  0  0
  8 25  1  0  0  0  0
  9 11  1  0  0  0  0
  9 25  2  0  0  0  0
 10 26  1  0  0  0  0
 11 26  2  0  0  0  0
 12 27  1  0  0  0  0
 13 27  2  0  0  0  0
 14 28  1  0  0  0  0
 15 16  2  0  0  0  0
 15 29  1  0  0  0  0
 16 30  1  0  0  0  0
 17 24  1  0  0  0  0
 17 28  2  0  0  0  0
 18 30  2  0  0  0  0
 18 31  1  0  0  0  0
 19 32  1  0  0  0  0
 20 32  1  0  0  0  0
 20 33  2  0  0  0  0
 20 34  1  0  0  0  0
 21 23  2  0  0  0  0
 21 39  1  0  0  0  0
 22 24  2  0  0  0  0
 22 40  1  0  0  0  0
 23 48  1  0  0  0  0
 24 41  1  0  0  0  0
 25 58  1  0  0  0  0
 26 73  1  0  0  0  0
 27 81  1  0  0  0  0
 28 82  1  0  0  0  0
 29 31  2  0  0  0  0
 29 81  1  0  0  0  0
 30 83  1  0  0  0  0
 31 84  1  0  0  0  0
 32 65  2  0  0  0  0
 33 66  1  0  0  0  0
 33 69  1  0  0  0  0
 34 70  1  0  0  0  0
 34 76  2  0  0  0  0
 35 49  1  0  0  0  0
 35 71  1  0  0  0  0
 35 77  2  0  0  0  0
 36 62  1  0  0  0  0
 36 67  1  0  0  0  0
 36 78  2  0  0  0  0
 37 63  1  0  0  0  0
 37 72  1  0  0  0  0
 37 79  2  0  0  0  0
 38 68  1  0  0  0  0
 38 74  1  0  0  0  0
 38 80  2  0  0  0  0
 39 42  1  0  0  0  0
 40 49  1  0  0  0  0
 41 67  1  0  0  0  0
 42 44  1  0  0  0  0
 43 45  1  0  0  0  0
 43 46  1  0  0  0  0
 44 48  1  0  0  0  0
 45 50  1  0  0  0  0
 46 68  1  0  0  0  0
 47 50  1  0  0  0  0
 47 68  1  0  0  0  0
 48 71  1  0  0  0  0
 49 67  1  0  0  0  0
 50 66  1  0  0  0  0
 51 63  1  0  0  0  0
 52 64  1  0  0  0  0
 53 64  1  0  0  0  0
 54 64  1  0  0  0  0
 55 73  1  0  0  0  0
 56 74  1  0  0  0  0
 57 75  1  0  0  0  0
 58 74  1  0  0  0  0
 59 60  1  0  0  0  0
 59 61  1  0  0  0  0
 60 73  1  0  0  0  0
 61 82  1  0  0  0  0
 62 64  1  0  0  0  0
 62 72  1  0  0  0  0
 63 75  1  0  0  0  0
 65 66  1  0  0  0  0
M  CHG  1  75   1
M  ISO  4  38 100  61 101  74 100  82 101
M  END
> <Batch ID>
0017

> <Smiles>
CNC(C)C(=O)NC(C(=O)N1Cc2cc([101O:1][101CH2:1]CCN(C)c3ccc(C[100N:0](C)[100C:0](=O)N4CCCC(n5nc(-c6ccc(Oc7ccc(F)cc7F)cc6)c(C(N)=O)c5N)C4)cc3)ccc2CC1C(=O)NC1CCCc2ccccc21)C(C)(C)C

> <Shape>
0.132

> <Color>
0.185

> <Negative vol penalty>
0.000

$$$$

  -OEChem-04042321003D

 84 92  0     1  0  0  0  0  0999 V2000
  -16.5296  -25.4980   21.1017 C   0  0  0  0  0  0  0  0  0  0  0  0
  -17.6996  -24.7716   20.9048 C   0  0  0  0  0  0  0  0  0  0  0  0
  -23.1002   -9.8265   19.9784 C   0  0  0  0  0  0  0  0  0  0  0  0
  -23.9528   -9.8736   22.2384 C   0  0  0  0  0  0  0  0  0  0  0  0
  -16.5576  -26.8908   21.0464 C   0  0  0  0  0  0  0  0  0  0  0  0
  -18.8982  -25.4376   20.6515 C   0  0  0  0  0  0  0  0  0  0  0  0
  -24.4998  -23.7555   22.4675 C   0  0  0  0  0  0  0  0  0  0  0  0
  -29.9058  -18.4599   20.4578 C   0  0  0  0  0  0  0  0  0  0  0  0
  -28.7987  -18.5077   22.6047 C   0  0  0  0  0  0  0  0  0  0  0  0
  -30.1155  -19.8367   20.5353 C   0  0  0  0  0  0  0  0  0  0  0  0
  -29.0085  -19.8845   22.6823 C   0  0  0  0  0  0  0  0  0  0  0  0
  -22.4016   -8.6541   20.2663 C   0  0  0  0  0  0  0  0  0  0  0  0
  -23.2542   -8.7011   22.5264 C   0  0  0  0  0  0  0  0  0  0  0  0
  -25.5346  -23.0844   21.8173 C   0  0  0  0  0  0  0  0  0  0  0  0
  -20.0785   -7.8137   23.2665 C   0  0  0  0  0  0  0  0  0  0  0  0
  -19.3716   -7.7607   24.4677 C   0  0  0  0  0  0  0  0  0  0  0  0
  -26.5489  -25.2010   21.2599 C   0  0  0  0  0  0  0  0  0  0  0  0
  -20.6990   -5.8663   25.1652 C   0  0  0  0  0  0  0  0  0  0  0  0
  -23.8758  -10.4363   20.9644 C   0  0  0  0  0  0  0  0  0  0  0  0
  -24.1374  -12.9694   20.8139 C   0  0  0  0  0  0  0  0  0  0  0  0
  -17.7589  -27.5747   20.8019 C   0  0  0  0  0  0  0  0  0  0  0  0
  -24.4761  -25.1570   22.5094 C   0  0  0  0  0  0  0  0  0  0  0  0
  -18.9420  -26.8409   20.5916 C   0  0  0  0  0  0  0  0  0  0  0  0
  -25.5141  -25.8874   21.9135 C   0  0  0  0  0  0  0  0  0  0  0  0
  -29.2473  -17.7954   21.4925 C   0  0  0  0  0  0  0  0  0  0  0  0
  -29.6669  -20.5490   21.6476 C   0  0  0  0  0  0  0  0  0  0  0  0
  -22.4786   -8.0914   21.5403 C   0  0  0  0  0  0  0  0  0  0  0  0
  -26.5578  -23.8072   21.2109 C   0  0  0  0  0  0  0  0  0  0  0  0
  -21.0956   -6.8929   23.0145 C   0  0  0  0  0  0  0  0  0  0  0  0
  -19.6819   -6.7870   25.4171 C   0  0  0  0  0  0  0  0  0  0  0  0
  -21.4058   -5.9193   23.9638 C   0  0  0  0  0  0  0  0  0  0  0  0
  -24.5980  -11.6472   20.6675 C   0  0  0  0  0  0  0  0  0  0  0  0
  -25.1911  -13.7478   20.4011 C   0  0  0  0  0  0  0  0  0  0  0  0
  -22.8705  -13.4510   21.2813 C   0  0  0  0  0  0  0  0  0  0  0  0
  -22.4951  -27.3999   21.4376 C   0  0  0  0  0  0  0  0  0  0  0  0
  -24.4754  -29.3806   23.0741 C   0  0  0  0  0  0  0  0  0  0  0  0
  -27.5703  -29.9348   24.4010 C   0  0  0  0  0  0  0  0  0  0  0  0
  -30.7941  -14.6295   20.7832 C   0  0  0  0  0  0  0  0  0  0  0  0
  -17.7308  -29.0795   20.7045 C   0  0  0  0  0  0  0  0  0  0  0  0
  -23.3669  -25.8652   23.2378 C   0  0  0  0  0  0  0  0  0  0  0  0
  -25.5457  -27.3928   21.9478 C   0  0  0  0  0  0  0  0  0  0  0  0
  -19.1119  -29.7221   20.8028 C   0  0  0  0  0  0  0  0  0  0  0  0
  -29.4811  -12.5263   18.0347 C   0  0  0  0  0  0  0  0  0  0  0  0
  -20.1061  -28.9906   19.9065 C   0  0  0  0  0  0  0  0  0  0  0  0
  -28.0816  -12.1660   18.5304 C   0  0  0  0  0  0  0  0  0  0  0  0
  -30.4451  -12.7767   19.1904 C   0  0  0  0  0  0  0  0  0  0  0  0
  -28.5681  -13.4368   20.6585 C   0  0  0  0  0  0  0  0  0  0  0  0
  -20.2664  -27.5282   20.3389 C   0  0  1  0  0  0  0  0  0  0  0  0
  -23.1729  -27.3060   22.7753 C   0  0  1  0  0  0  0  0  0  0  0  0
  -27.5605  -13.2238   19.5188 C   0  0  2  0  0  0  0  0  0  0  0  0
  -28.8995  -31.6612   25.6460 C   0  0  0  0  0  0  0  0  0  0  0  0
  -31.3299  -23.4027   20.4739 C   0  0  0  0  0  0  0  0  0  0  0  0
  -24.7772  -30.9978   20.5043 C   0  0  0  0  0  0  0  0  0  0  0  0
  -26.7891  -32.0944   21.5132 C   0  0  0  0  0  0  0  0  0  0  0  0
  -24.5522  -32.3722   22.5816 C   0  0  0  0  0  0  0  0  0  0  0  0
  -30.0415  -22.5792   23.0253 C   0  0  0  0  0  0  0  0  0  0  0  0
  -31.0335  -16.0191   22.8059 C   0  0  0  0  0  0  0  0  0  0  0  0
  -27.9907  -28.1205   26.7011 C   0  0  0  0  0  0  0  0  0  0  0  0
  -29.0222  -16.3234   21.4103 C   0  0  0  0  0  0  0  0  0  0  0  0
  -28.8443  -23.7941   20.5569 C   0  0  0  0  0  0  0  0  0  1  0  0
  -25.7354  -30.1439   22.7446 C   0  0  1  0  0  0  0  0  0  0  0  0
  -28.0060  -30.4365   25.7659 C   0  0  2  0  0  0  0  0  0  0  0  0
  -29.9563  -22.7475   20.5327 C   0  0  2  0  0  0  0  0  0  0  0  0
  -25.4622  -31.3738   21.8334 C   0  0  0  0  0  0  0  0  0  0  0  0
  -25.8470  -11.5853   20.1981 N   0  0  0  0  0  0  0  0  0  0  0  0
  -26.1801  -12.8783   20.0460 N   0  0  0  0  0  0  0  0  0  0  0  0
  -24.4356  -28.0396   22.6667 N   0  0  0  0  0  0  0  0  0  0  0  0
  -29.9062  -13.7537   20.1371 N   0  0  0  0  0  0  0  0  0  0  0  0
  -25.3588  -15.0842   20.3107 N   0  0  0  0  0  0  0  0  0  0  0  0
  -21.9006  -12.5152   21.6659 N   0  0  0  0  0  0  0  0  0  0  0  0
  -21.1156  -27.4368   21.5073 N   0  0  0  0  0  0  0  0  0  0  0  0
  -26.3589  -30.4732   24.0217 N   0  0  0  0  0  0  0  0  0  0  0  0
  -29.8787  -21.9296   21.7266 N   0  0  3  0  0  0  0  0  0  0  0  0
  -30.2394  -15.5595   21.6753 N   0  0  0  0  0  0  0  0  0  0  0  0
  -28.7588  -29.3748   26.4920 N   0  3  0  0  0  0  0  0  0  0  0  0
  -22.6004  -14.6745   21.3403 O   0  0  0  0  0  0  0  0  0  0  0  0
  -23.1736  -27.4377   20.4179 O   0  0  0  0  0  0  0  0  0  0  0  0
  -23.5630  -29.9510   23.6772 O   0  0  0  0  0  0  0  0  0  0  0  0
  -28.2396  -29.1472   23.7360 O   0  0  0  0  0  0  0  0  0  0  0  0
  -32.0122  -14.5890   20.5673 O   0  0  0  0  0  0  0  0  0  0  0  0
  -21.7969   -6.9474   21.8217 O   0  0  0  0  0  0  0  0  0  0  0  0
  -27.5686  -23.1547   20.5750 O   0  0  0  0  0  0  0  0  0  1  0  0
  -19.0040   -6.7372   26.5713 F   0  0  0  0  0  0  0  0  0  0  0  0
  -22.3827   -5.0328   23.7279 F   0  0  0  0  0  0  0  0  0  0  0  0
  1  2  1  0  0  0  0
  1  5  2  0  0  0  0
  2  6  2  0  0  0  0
  3 12  2  0  0  0  0
  3 19  1  0  0  0  0
  4 13  1  0  0  0  0
  4 19  2  0  0  0  0
  5 21  1  0  0  0  0
  6 23  1  0  0  0  0
  7 14  2  0  0  0  0
  7 22  1  0  0  0  0
  8 10  2  0  0  0  0
  8 25  1  0  0  0  0
  9 11  1  0  0  0  0
  9 25  2  0  0  0  0
 10 26  1  0  0  0  0
 11 26  2  0  0  0  0
 12 27  1  0  0  0  0
 13 27  2  0  0  0  0
 14 28  1  0  0  0  0
 15 16  2  0  0  0  0
 15 29  1  0  0  0  0
 16 30  1  0  0  0  0
 17 24  1  0  0  0  0
 17 28  2  0  0  0  0
 18 30  2  0  0  0  0
 18 31  1  0  0  0  0
 19 32  1  0  0  0  0
 20 32  1  0  0  0  0
 20 33  2  0  0  0  0
 20 34  1  0  0  0  0
 21 23  2  0  0  0  0
 21 39  1  0  0  0  0
 22 24  2  0  0  0  0
 22 40  1  0  0  0  0
 23 48  1  0  0  0  0
 24 41  1  0  0  0  0
 25 59  1  0  0  0  0
 26 73  1  0  0  0  0
 27 81  1  0  0  0  0
 28 82  1  0  0  0  0
 29 31  2  0  0  0  0
 29 81  1  0  0  0  0
 30 83  1  0  0  0  0
 31 84  1  0  0  0  0
 32 65  2  0  0  0  0
 33 66  1  0  0  0  0
 33 69  1  0  0  0  0
 34 70  1  0  0  0  0
 34 76  2  0  0  0  0
 35 49  1  0  0  0  0
 35 71  1  0  0  0  0
 35 77  2  0  0  0  0
 36 61  1  0  0  0  0
 36 67  1  0  0  0  0
 36 78  2  0  0  0  0
 37 62  1  0  0  0  0
 37 72  1  0  0  0  0
 37 79  2  0  0  0  0
 38 68  1  0  0  0  0
 38 74  1  0  0  0  0
 38 80  2  0  0  0  0
 39 42  1  0  0  0  0
 40 49  1  0  0  0  0
 41 67  1  0  0  0  0
 42 44  1  0  0  0  0
 43 45  1  0  0  0  0
 43 46  1  0  0  0  0
 44 48  1  0  0  0  0
 45 50  1  0  0  0  0
 46 68  1  0  0  0  0
 47 50  1  0  0  0  0
 47 68  1  0  0  0  0
 48 71  1  0  0  0  0
 49 67  1  0  0  0  0
 50 66  1  0  0  0  0
 51 62  1  0  0  0  0
 52 63  1  0  0  0  0
 53 64  1  0  0  0  0
 54 64  1  0  0  0  0
 55 64  1  0  0  0  0
 56 73  1  0  0  0  0
 57 74  1  0  0  0  0
 58 75  1  0  0  0  0
 59 74  1  0  0  0  0
 60 63  1  0  0  0  0
 60 82  1  0  0  0  0
 61 64  1  0  0  0  0
 61 72  1  0  0  0  0
 62 75  1  0  0  0  0
 63 73  1  0  0  0  0
 65 66  1  0  0  0  0
M  CHG  1  75   1
M  ISO  4  38 100  60 101  74 100  82 101
M  END
> <Batch ID>
0017

> <Smiles>
CNC(C)C(=O)NC(C(=O)N1Cc2cc([101O:1][101CH2:1]C(C)N(C)c3ccc(C[100N:0](C)[100C:0](=O)N4CCCC(n5nc(-c6ccc(Oc7ccc(F)cc7F)cc6)c(C(N)=O)c5N)C4)cc3)ccc2CC1C(=O)NC1CCCc2ccccc21)C(C)(C)C

> <Shape>
0.331

> <Color>
0.201

> <Negative vol penalty>
0.000

$$$$

  -OEChem-04042321003D

 83 92  0     1  0  0  0  0  0999 V2000
  -30.0305  -33.2709   25.9182 C   0  0  0  0  0  0  0  0  0  0  0  0
  -29.3164  -32.1821   25.4282 C   0  0  0  0  0  0  0  0  0  0  0  0
  -24.6883   -8.7143   21.0376 C   0  0  0  0  0  0  0  0  0  0  0  0
  -22.8977  -10.2410   20.4903 C   0  0  0  0  0  0  0  0  0  0  0  0
  -29.3615  -34.4461   26.2576 C   0  0  0  0  0  0  0  0  0  0  0  0
  -27.9327  -32.2676   25.2784 C   0  0  0  0  0  0  0  0  0  0  0  0
  -25.5656  -22.8543   19.0636 C   0  0  0  0  0  0  0  0  0  0  0  0
  -25.3091  -22.7267   21.4625 C   0  0  0  0  0  0  0  0  0  0  0  0
  -26.3374  -30.3850   20.8562 C   0  0  0  0  0  0  0  0  0  0  0  0
  -25.8457  -24.2168   19.1659 C   0  0  0  0  0  0  0  0  0  0  0  0
  -25.5892  -24.0893   21.5649 C   0  0  0  0  0  0  0  0  0  0  0  0
  -23.7533   -7.7176   21.3169 C   0  0  0  0  0  0  0  0  0  0  0  0
  -21.9626   -9.2444   20.7696 C   0  0  0  0  0  0  0  0  0  0  0  0
  -26.2562  -28.9975   20.7470 C   0  0  0  0  0  0  0  0  0  0  0  0
  -21.6736   -6.8934   23.8507 C   0  0  0  0  0  0  0  0  0  0  0  0
  -21.8557   -6.1418   25.0115 C   0  0  0  0  0  0  0  0  0  0  0  0
  -23.8780  -29.1122   21.1342 C   0  0  0  0  0  0  0  0  0  0  0  0
  -22.0066   -4.1286   23.6842 C   0  0  0  0  0  0  0  0  0  0  0  0
  -24.2605   -9.9760   20.6244 C   0  0  0  0  0  0  0  0  0  0  0  0
  -26.2463  -10.9679   19.3671 C   0  0  0  0  0  0  0  0  0  0  0  0
  -25.2973  -22.1092   20.2118 C   0  0  0  0  0  0  0  0  0  0  0  0
  -27.9701  -34.5494   26.1028 C   0  0  0  0  0  0  0  0  0  0  0  0
  -25.1892  -31.1469   21.1165 C   0  0  0  0  0  0  0  0  0  0  0  0
  -27.2443  -33.4449   25.6173 C   0  0  0  0  0  0  0  0  0  0  0  0
  -23.9468  -30.5094   21.2437 C   0  0  0  0  0  0  0  0  0  0  0  0
  -25.8575  -24.8344   20.4166 C   0  0  0  0  0  0  0  0  0  0  0  0
  -22.3904   -7.9827   21.1828 C   0  0  0  0  0  0  0  0  0  0  0  0
  -25.0269  -28.3606   20.8889 C   0  0  0  0  0  0  0  0  0  0  0  0
  -21.6579   -6.2626   22.6066 C   0  0  0  0  0  0  0  0  0  0  0  0
  -22.0223   -4.7594   24.9283 C   0  0  0  0  0  0  0  0  0  0  0  0
  -21.8244   -4.8803   22.5234 C   0  0  0  0  0  0  0  0  0  0  0  0
  -25.2259  -11.0061   20.3363 C   0  0  0  0  0  0  0  0  0  0  0  0
  -26.8827  -12.1787   19.4907 C   0  0  0  0  0  0  0  0  0  0  0  0
  -26.5881   -9.9306   18.4382 C   0  0  0  0  0  0  0  0  0  0  0  0
  -24.2624  -33.0760   23.4667 C   0  0  0  0  0  0  0  0  0  0  0  0
  -21.7446  -33.6262   21.4969 C   0  0  0  0  0  0  0  0  0  0  0  0
  -19.7727  -32.5246   18.9386 C   0  0  0  0  0  0  0  0  0  0  0  0
  -26.8932  -17.5358   20.0039 C   0  0  0  0  0  0  0  0  0  0  0  0
  -27.2850  -35.8241   26.5276 C   0  0  0  0  0  0  0  0  0  0  0  0
  -25.2893  -32.6451   21.2048 C   0  0  0  0  0  0  0  0  0  0  0  0
  -22.6813  -31.2836   21.5036 C   0  0  0  0  0  0  0  0  0  0  0  0
  -25.8644  -35.9618   25.9861 C   0  0  0  0  0  0  0  0  0  0  0  0
  -26.5157  -15.7585   23.0322 C   0  0  0  0  0  0  0  0  0  0  0  0
  -23.6825  -20.0158   20.7699 C   0  0  0  0  0  0  0  0  0  0  0  0
  -25.0897  -34.6627   26.1833 C   0  0  0  0  0  0  0  0  0  0  0  0
  -26.2183  -14.3495   22.5211 C   0  0  0  0  0  0  0  0  0  0  0  0
  -24.4505  -18.7094   21.0434 C   0  0  0  0  0  0  0  0  0  0  0  0
  -25.8202  -16.8326   22.1938 C   0  0  0  0  0  0  0  0  0  0  0  0
  -25.8025  -15.3243   20.2323 C   0  0  0  0  0  0  0  0  0  0  0  0
  -24.9787  -20.5589   20.0950 C   0  0  2  0  0  0  0  0  0  0  0  0
  -25.7456  -33.5074   25.4173 C   0  0  1  0  0  0  0  0  0  0  0  0
  -24.1385  -33.2759   21.9826 C   0  0  1  0  0  0  0  0  0  0  0  0
  -26.5377  -14.2296   21.0208 C   0  0  2  0  0  0  0  0  0  0  0  0
  -25.7445  -19.5521   21.0138 C   0  0  2  0  0  0  0  0  0  0  0  0
  -17.7703  -33.1762   17.5736 C   0  0  0  0  0  0  0  0  0  0  0  0
  -19.9197  -32.9021   23.8326 C   0  0  0  0  0  0  0  0  0  0  0  0
  -18.0431  -32.6433   22.1956 C   0  0  0  0  0  0  0  0  0  0  0  0
  -19.1531  -34.8594   22.4777 C   0  0  0  0  0  0  0  0  0  0  0  0
  -27.9157  -19.7748   19.8639 C   0  0  0  0  0  0  0  0  0  0  0  0
  -21.3378  -32.5175   16.4268 C   0  0  0  0  0  0  0  0  0  0  0  0
  -26.1582  -26.3003   20.5266 C   0  0  0  0  0  0  0  0  0  1  0  0
  -20.3874  -32.9966   21.2952 C   0  0  1  0  0  0  0  0  0  0  0  0
  -19.2874  -33.2098   17.6739 C   0  0  2  0  0  0  0  0  0  0  0  0
  -19.3998  -33.3353   22.4473 C   0  0  0  0  0  0  0  0  0  0  0  0
  -25.2114  -12.1505   21.0249 N   0  0  0  0  0  0  0  0  0  0  0  0
  -26.2305  -12.8426   20.4877 N   0  0  0  0  0  0  0  0  0  0  0  0
  -22.8318  -32.7457   21.5880 N   0  0  0  0  0  0  0  0  0  0  0  0
  -26.1131  -16.6530   20.7652 N   0  0  0  0  0  0  0  0  0  0  0  0
  -27.9310  -12.7297   18.8427 N   0  0  0  0  0  0  0  0  0  0  0  0
  -25.9783   -9.9362   17.1763 N   0  0  0  0  0  0  0  0  0  0  0  0
  -25.4255  -33.5891   24.0083 N   0  0  0  0  0  0  0  0  0  0  0  0
  -19.9332  -33.4198   19.9750 N   0  0  0  0  0  0  0  0  0  0  0  0
  -26.8795  -18.8886   20.3753 N   0  0  0  0  0  0  0  0  0  0  0  0
  -19.8530  -32.5368   16.4705 N   0  3  0  0  0  0  0  0  0  0  0  0
  -27.3977   -9.0163   18.7248 O   0  0  0  0  0  0  0  0  0  0  0  0
  -23.3683  -32.5001   24.0755 O   0  0  0  0  0  0  0  0  0  0  0  0
  -21.8375  -34.8544   21.5638 O   0  0  0  0  0  0  0  0  0  0  0  0
  -19.9844  -31.3156   19.0019 O   0  0  0  0  0  0  0  0  0  0  0  0
  -27.5599  -17.1394   19.0392 O   0  0  0  0  0  0  0  0  0  0  0  0
  -21.4777   -7.0103   21.4550 O   0  0  0  0  0  0  0  0  0  0  0  0
  -24.9450  -27.0063   20.7835 O   0  0  0  0  0  0  0  0  0  1  0  0
  -22.1987   -4.0380   26.0430 F   0  0  0  0  0  0  0  0  0  0  0  0
  -21.8114   -4.2688   21.3310 F   0  0  0  0  0  0  0  0  0  0  0  0
  1  2  1  0  0  0  0
  1  5  2  0  0  0  0
  2  6  2  0  0  0  0
  3 12  2  0  0  0  0
  3 19  1  0  0  0  0
  4 13  1  0  0  0  0
  4 19  2  0  0  0  0
  5 22  1  0  0  0  0
  6 24  1  0  0  0  0
  7 10  2  0  0  0  0
  7 21  1  0  0  0  0
  8 11  1  0  0  0  0
  8 21  2  0  0  0  0
  9 14  2  0  0  0  0
  9 23  1  0  0  0  0
 10 26  1  0  0  0  0
 11 26  2  0  0  0  0
 12 27  1  0  0  0  0
 13 27  2  0  0  0  0
 14 28  1  0  0  0  0
 15 16  2  0  0  0  0
 15 29  1  0  0  0  0
 16 30  1  0  0  0  0
 17 25  1  0  0  0  0
 17 28  2  0  0  0  0
 18 30  2  0  0  0  0
 18 31  1  0  0  0  0
 19 32  1  0  0  0  0
 20 32  1  0  0  0  0
 20 33  2  0  0  0  0
 20 34  1  0  0  0  0
 21 50  1  0  0  0  0
 22 24  2  0  0  0  0
 22 39  1  0  0  0  0
 23 25  2  0  0  0  0
 23 40  1  0  0  0  0
 24 51  1  0  0  0  0
 25 41  1  0  0  0  0
 26 61  1  0  0  0  0
 27 80  1  0  0  0  0
 28 81  1  0  0  0  0
 29 31  2  0  0  0  0
 29 80  1  0  0  0  0
 30 82  1  0  0  0  0
 31 83  1  0  0  0  0
 32 65  2  0  0  0  0
 33 66  1  0  0  0  0
 33 69  1  0  0  0  0
 34 70  1  0  0  0  0
 34 75  2  0  0  0  0
 35 52  1  0  0  0  0
 35 71  1  0  0  0  0
 35 76  2  0  0  0  0
 36 62  1  0  0  0  0
 36 67  1  0  0  0  0
 36 77  2  0  0  0  0
 37 63  1  0  0  0  0
 37 72  1  0  0  0  0
 37 78  2  0  0  0  0
 38 68  1  0  0  0  0
 38 73  1  0  0  0  0
 38 79  2  0  0  0  0
 39 42  1  0  0  0  0
 40 52  1  0  0  0  0
 41 67  1  0  0  0  0
 42 45  1  0  0  0  0
 43 46  1  0  0  0  0
 43 48  1  0  0  0  0
 44 47  1  0  0  0  0
 44 50  1  0  0  0  0
 45 51  1  0  0  0  0
 46 53  1  0  0  0  0
 47 54  1  0  0  0  0
 48 68  1  0  0  0  0
 49 53  1  0  0  0  0
 49 68  1  0  0  0  0
 50 54  1  0  0  0  0
 51 71  1  0  0  0  0
 52 67  1  0  0  0  0
 53 66  1  0  0  0  0
 54 73  1  0  0  0  0
 55 63  1  0  0  0  0
 56 64  1  0  0  0  0
 57 64  1  0  0  0  0
 58 64  1  0  0  0  0
 59 73  1  0  0  0  0
 60 74  1  0  0  0  0
 61 81  1  0  0  0  0
 62 64  1  0  0  0  0
 62 72  1  0  0  0  0
 63 74  1  0  0  0  0
 65 66  1  0  0  0  0
M  CHG  1  74   1
M  ISO  4  38 100  61 101  73 100  81 101
M  END
> <Batch ID>
0017

> <Smiles>
CNC(C)C(=O)NC(C(=O)N1Cc2cc([101O:1][101CH2:1]c3ccc(C4CCC4[100N:0](C)[100C:0](=O)N4CCCC(n5nc(-c6ccc(Oc7ccc(F)cc7F)cc6)c(C(N)=O)c5N)C4)cc3)ccc2CC1C(=O)NC1CCCc2ccccc21)C(C)(C)C

> <Shape>
0.230

> <Color>
0.119

> <Negative vol penalty>
0.000

$$$$

  -OEChem-04042321003D

 84 92  0     1  0  0  0  0  0999 V2000
  -31.4236  -25.3022   17.9806 C   0  0  0  0  0  0  0  0  0  0  0  0
  -30.0554  -25.0846   18.1076 C   0  0  0  0  0  0  0  0  0  0  0  0
  -27.6019  -14.9096   19.6827 C   0  0  0  0  0  0  0  0  0  0  0  0
  -25.2173  -15.2028   19.4290 C   0  0  0  0  0  0  0  0  0  0  0  0
  -32.1076  -26.0220   18.9593 C   0  0  0  0  0  0  0  0  0  0  0  0
  -29.3706  -25.5858   19.2140 C   0  0  0  0  0  0  0  0  0  0  0  0
  -23.6239  -27.6992   19.3395 C   0  0  0  0  0  0  0  0  0  0  0  0
  -20.2889  -22.4991   21.9390 C   0  0  0  0  0  0  0  0  0  0  0  0
  -21.5442  -22.1818   21.4200 C   0  0  0  0  0  0  0  0  0  0  0  0
  -27.3979  -13.5855   20.0709 C   0  0  0  0  0  0  0  0  0  0  0  0
  -25.0132  -13.8787   19.8171 C   0  0  0  0  0  0  0  0  0  0  0  0
  -22.4178  -27.1148   19.7235 C   0  0  0  0  0  0  0  0  0  0  0  0
  -24.9422  -12.1095   22.6974 C   0  0  0  0  0  0  0  0  0  0  0  0
  -23.9289  -11.8538   23.6211 C   0  0  0  0  0  0  0  0  0  0  0  0
  -22.6385  -28.1101   21.9097 C   0  0  0  0  0  0  0  0  0  0  0  0
  -22.5923  -23.5189   23.1378 C   0  0  0  0  0  0  0  0  0  0  0  0
  -22.8248  -10.4263   22.0148 C   0  0  0  0  0  0  0  0  0  0  0  0
  -26.5116  -15.7183   19.3618 C   0  0  0  0  0  0  0  0  0  0  0  0
  -26.9200  -17.5684   17.6536 C   0  0  0  0  0  0  0  0  0  0  0  0
  -31.4290  -26.5406   20.0735 C   0  0  0  0  0  0  0  0  0  0  0  0
  -24.3531  -28.4858   20.2427 C   0  0  0  0  0  0  0  0  0  0  0  0
  -30.0464  -26.3121   20.2093 C   0  0  0  0  0  0  0  0  0  0  0  0
  -23.8524  -28.7055   21.5339 C   0  0  0  0  0  0  0  0  0  0  0  0
  -20.1854  -23.3264   23.0573 C   0  0  0  0  0  0  0  0  0  0  0  0
  -22.6959  -22.6917   22.0194 C   0  0  0  0  0  0  0  0  0  0  0  0
  -26.1035  -13.0700   20.1381 C   0  0  0  0  0  0  0  0  0  0  0  0
  -21.9263  -27.3178   21.0097 C   0  0  0  0  0  0  0  0  0  0  0  0
  -24.8968  -11.5237   21.4323 C   0  0  0  0  0  0  0  0  0  0  0  0
  -22.8702  -11.0122   23.2799 C   0  0  0  0  0  0  0  0  0  0  0  0
  -21.3370  -23.8363   23.6567 C   0  0  0  0  0  0  0  0  0  0  0  0
  -23.8381  -10.6820   21.0910 C   0  0  0  0  0  0  0  0  0  0  0  0
  -26.7217  -17.0864   18.9613 C   0  0  0  0  0  0  0  0  0  0  0  0
  -27.0696  -18.9251   17.8068 C   0  0  0  0  0  0  0  0  0  0  0  0
  -26.9647  -16.8538   16.4115 C   0  0  0  0  0  0  0  0  0  0  0  0
  -27.2372  -28.2928   21.5650 C   0  0  0  0  0  0  0  0  0  0  0  0
  -26.4726  -31.2233   22.7271 C   0  0  0  0  0  0  0  0  0  0  0  0
  -24.0370  -33.4516   23.5926 C   0  0  0  0  0  0  0  0  0  0  0  0
  -25.2124  -22.7931   21.9655 C   0  0  0  0  0  0  0  0  0  0  0  0
  -32.2197  -27.2719   21.1293 C   0  0  0  0  0  0  0  0  0  0  0  0
  -25.6392  -29.1311   19.8045 C   0  0  0  0  0  0  0  0  0  0  0  0
  -24.5868  -29.5583   22.5348 C   0  0  0  0  0  0  0  0  0  0  0  0
  -31.3522  -28.0903   22.0822 C   0  0  0  0  0  0  0  0  0  0  0  0
  -28.5768  -22.1933   20.9662 C   0  0  0  0  0  0  0  0  0  0  0  0
  -30.1598  -27.2670   22.5590 C   0  0  0  0  0  0  0  0  0  0  0  0
  -28.4999  -20.8625   20.2144 C   0  0  0  0  0  0  0  0  0  0  0  0
  -27.6240  -22.2261   22.1599 C   0  0  0  0  0  0  0  0  0  0  0  0
  -26.1513  -20.5612   21.0978 C   0  0  0  0  0  0  0  0  0  0  0  0
  -29.2639  -26.8611   21.3825 C   0  0  1  0  0  0  0  0  0  0  0  0
  -26.5543  -29.4920   20.9705 C   0  0  1  0  0  0  0  0  0  0  0  0
  -27.0459  -20.5050   19.8487 C   0  0  2  0  0  0  0  0  0  0  0  0
  -23.7193  -35.7498   24.5490 C   0  0  0  0  0  0  0  0  0  0  0  0
  -27.1315  -30.1544   25.5080 C   0  0  0  0  0  0  0  0  0  0  0  0
  -25.9157  -32.1180   26.4746 C   0  0  0  0  0  0  0  0  0  0  0  0
  -27.9417  -32.4785   25.0647 C   0  0  0  0  0  0  0  0  0  0  0  0
  -22.6667  -34.4053   21.1489 C   0  0  0  0  0  0  0  0  0  0  0  0
  -17.5366  -25.5063   24.6734 C   0  0  0  0  0  0  0  0  0  0  0  0
  -18.8333  -23.6636   23.6135 C   0  0  0  0  0  0  0  0  0  0  0  0
  -18.5027  -27.1272   22.1361 C   0  0  0  0  0  0  0  0  0  0  0  0
  -18.1654  -25.6497   22.2680 C   0  0  0  0  0  0  0  0  0  0  0  0
  -19.9758  -27.4426   22.3646 C   0  0  0  0  0  0  0  0  0  1  0  0
  -25.7871  -31.7345   23.9711 C   0  0  1  0  0  0  0  0  0  0  0  0
  -23.8634  -34.9266   23.2785 C   0  0  2  0  0  0  0  0  0  0  0  0
  -26.6809  -31.6037   25.2366 C   0  0  0  0  0  0  0  0  0  0  0  0
  -26.7432  -18.0578   19.8778 N   0  0  0  0  0  0  0  0  0  0  0  0
  -26.9567  -19.1639   19.1449 N   0  0  0  0  0  0  0  0  0  0  0  0
  -25.8429  -30.1624   22.0608 N   0  0  0  0  0  0  0  0  0  0  0  0
  -26.2649  -21.8816   21.7369 N   0  0  0  0  0  0  0  0  0  0  0  0
  -27.2855  -19.9252   16.9261 N   0  0  0  0  0  0  0  0  0  0  0  0
  -26.7921  -15.4631   16.4341 N   0  0  0  0  0  0  0  0  0  0  0  0
  -23.9709  -22.3710   21.4911 N   0  0  0  0  0  0  0  0  0  0  0  0
  -28.4412  -27.9763   20.9654 N   0  0  0  0  0  0  0  0  0  0  0  0
  -25.3678  -33.0999   23.6743 N   0  0  0  0  0  0  0  0  0  0  0  0
  -22.6491  -35.1384   22.4409 N   0  3  0  0  0  0  0  0  0  0  0  0
  -18.5446  -25.1456   23.6088 N   0  3  1  0  0  0  0  0  0  0  0  0
  -27.1686  -17.4293   15.3157 O   0  0  0  0  0  0  0  0  0  0  0  0
  -26.7114  -27.6996   22.4996 O   0  0  0  0  0  0  0  0  0  0  0  0
  -27.5242  -31.7506   22.3560 O   0  0  0  0  0  0  0  0  0  0  0  0
  -23.0871  -32.6885   23.7535 O   0  0  0  0  0  0  0  0  0  0  0  0
  -25.4038  -23.8807   22.5155 O   0  0  0  0  0  0  0  0  0  0  0  0
  -25.9040  -11.7779   20.5166 O   0  0  0  0  0  0  0  0  0  0  0  0
  -20.7496  -26.7481   21.3873 O   0  0  0  0  0  0  0  0  0  1  0  0
  -21.8979  -10.7655   24.1676 F   0  0  0  0  0  0  0  0  0  0  0  0
  -21.2477  -24.6318   24.7316 F   0  0  0  0  0  0  0  0  0  0  0  0
  -23.7897  -10.1154   19.8776 F   0  0  0  0  0  0  0  0  0  0  0  0
  1  2  1  0  0  0  0
  1  5  2  0  0  0  0
  2  6  2  0  0  0  0
  3 10  2  0  0  0  0
  3 18  1  0  0  0  0
  4 11  1  0  0  0  0
  4 18  2  0  0  0  0
  5 20  1  0  0  0  0
  6 22  1  0  0  0  0
  7 12  2  0  0  0  0
  7 21  1  0  0  0  0
  8  9  2  0  0  0  0
  8 24  1  0  0  0  0
  9 25  1  0  0  0  0
 10 26  1  0  0  0  0
 11 26  2  0  0  0  0
 12 27  1  0  0  0  0
 13 14  2  0  0  0  0
 13 28  1  0  0  0  0
 14 29  1  0  0  0  0
 15 23  1  0  0  0  0
 15 27  2  0  0  0  0
 16 25  2  0  0  0  0
 16 30  1  0  0  0  0
 17 29  2  0  0  0  0
 17 31  1  0  0  0  0
 18 32  1  0  0  0  0
 19 32  1  0  0  0  0
 19 33  2  0  0  0  0
 19 34  1  0  0  0  0
 20 22  2  0  0  0  0
 20 39  1  0  0  0  0
 21 23  2  0  0  0  0
 21 40  1  0  0  0  0
 22 48  1  0  0  0  0
 23 41  1  0  0  0  0
 24 30  2  0  0  0  0
 24 57  1  0  0  0  0
 25 70  1  0  0  0  0
 26 80  1  0  0  0  0
 27 81  1  0  0  0  0
 28 31  2  0  0  0  0
 28 80  1  0  0  0  0
 29 82  1  0  0  0  0
 30 83  1  0  0  0  0
 31 84  1  0  0  0  0
 32 64  2  0  0  0  0
 33 65  1  0  0  0  0
 33 68  1  0  0  0  0
 34 69  1  0  0  0  0
 34 75  2  0  0  0  0
 35 49  1  0  0  0  0
 35 71  1  0  0  0  0
 35 76  2  0  0  0  0
 36 61  1  0  0  0  0
 36 66  1  0  0  0  0
 36 77  2  0  0  0  0
 37 62  1  0  0  0  0
 37 72  1  0  0  0  0
 37 78  2  0  0  0  0
 38 67  1  0  0  0  0
 38 70  1  0  0  0  0
 38 79  2  0  0  0  0
 39 42  1  0  0  0  0
 40 49  1  0  0  0  0
 41 66  1  0  0  0  0
 42 44  1  0  0  0  0
 43 45  1  0  0  0  0
 43 46  1  0  0  0  0
 44 48  1  0  0  0  0
 45 50  1  0  0  0  0
 46 67  1  0  0  0  0
 47 50  1  0  0  0  0
 47 67  1  0  0  0  0
 48 71  1  0  0  0  0
 49 66  1  0  0  0  0
 50 65  1  0  0  0  0
 51 62  1  0  0  0  0
 52 63  1  0  0  0  0
 53 63  1  0  0  0  0
 54 63  1  0  0  0  0
 55 73  1  0  0  0  0
 56 74  1  0  0  0  0
 57 74  1  0  0  0  0
 58 59  1  0  0  0  0
 58 60  1  0  0  0  0
 59 74  1  0  0  0  0
 60 81  1  0  0  0  0
 61 63  1  0  0  0  0
 61 72  1  0  0  0  0
 62 73  1  0  0  0  0
 64 65  1  0  0  0  0
M  CHG  2  73   1  74   1
M  ISO  4  38 100  60 101  70 100  81 101
M  END
> <Batch ID>
0017

> <Smiles>
CNC(C)C(=O)NC(C(=O)N1Cc2cc([101O:1][101CH2:1]CCN(C)Cc3ccc([100NH:0][100C:0](=O)N4CCCC(n5nc(-c6ccc(Oc7ccc(F)cc7F)cc6)c(C(N)=O)c5N)C4)cc3F)ccc2CC1C(=O)NC1CCCc2ccccc21)C(C)(C)C

> <Shape>
0.275

> <Color>
0.062

> <Negative vol penalty>
0.000

$$$$

  -OEChem-04042321003D

 83 91  0     1  0  0  0  0  0999 V2000
  -28.2474  -33.1438   26.1787 C   0  0  0  0  0  0  0  0  0  0  0  0
  -28.3441  -31.9424   25.4838 C   0  0  0  0  0  0  0  0  0  0  0  0
  -22.9504  -11.5939   22.0274 C   0  0  0  0  0  0  0  0  0  0  0  0
  -22.5682  -13.6523   20.8216 C   0  0  0  0  0  0  0  0  0  0  0  0
  -26.9966  -33.6316   26.5547 C   0  0  0  0  0  0  0  0  0  0  0  0
  -27.1899  -31.2276   25.1654 C   0  0  0  0  0  0  0  0  0  0  0  0
  -27.2096  -29.5312   20.3940 C   0  0  0  0  0  0  0  0  0  0  0  0
  -30.8089  -18.0975   19.3674 C   0  0  0  0  0  0  0  0  0  0  0  0
  -21.8507  -11.8664   22.8412 C   0  0  0  0  0  0  0  0  0  0  0  0
  -21.4685  -13.9248   21.6353 C   0  0  0  0  0  0  0  0  0  0  0  0
  -27.9767  -28.3988   20.1240 C   0  0  0  0  0  0  0  0  0  0  0  0
  -30.9922  -19.4706   19.2043 C   0  0  0  0  0  0  0  0  0  0  0  0
  -18.2438  -12.9424   21.8733 C   0  0  0  0  0  0  0  0  0  0  0  0
  -17.0760  -13.3879   21.2542 C   0  0  0  0  0  0  0  0  0  0  0  0
  -25.9867  -27.0380   20.2086 C   0  0  0  0  0  0  0  0  0  0  0  0
  -28.7341  -18.2282   18.1364 C   0  0  0  0  0  0  0  0  0  0  0  0
  -17.1741  -15.4313   22.5395 C   0  0  0  0  0  0  0  0  0  0  0  0
  -23.3091  -12.4869   21.0177 C   0  0  0  0  0  0  0  0  0  0  0  0
  -24.4489  -11.4953   18.9621 C   0  0  0  0  0  0  0  0  0  0  0  0
  -25.8258  -32.9272   26.2323 C   0  0  0  0  0  0  0  0  0  0  0  0
  -25.8245  -29.4238   20.5844 C   0  0  0  0  0  0  0  0  0  0  0  0
  -25.9223  -31.7058   25.5386 C   0  0  0  0  0  0  0  0  0  0  0  0
  -25.2039  -28.1709   20.4783 C   0  0  0  0  0  0  0  0  0  0  0  0
  -29.6799  -17.4763   18.8334 C   0  0  0  0  0  0  0  0  0  0  0  0
  -21.1098  -13.0318   22.6451 C   0  0  0  0  0  0  0  0  0  0  0  0
  -27.3657  -27.1515   20.0341 C   0  0  0  0  0  0  0  0  0  0  0  0
  -18.8768  -13.7413   22.8256 C   0  0  0  0  0  0  0  0  0  0  0  0
  -30.0465  -20.2225   18.5073 C   0  0  0  0  0  0  0  0  0  0  0  0
  -16.5412  -14.6323   21.5873 C   0  0  0  0  0  0  0  0  0  0  0  0
  -18.3420  -14.9857   23.1586 C   0  0  0  0  0  0  0  0  0  0  0  0
  -28.9174  -19.6013   17.9733 C   0  0  0  0  0  0  0  0  0  0  0  0
  -24.4453  -12.2062   20.1772 C   0  0  0  0  0  0  0  0  0  0  0  0
  -25.7628  -11.5058   18.5620 C   0  0  0  0  0  0  0  0  0  0  0  0
  -23.3617  -10.8805   18.2580 C   0  0  0  0  0  0  0  0  0  0  0  0
  -23.8375  -30.0280   22.9908 C   0  0  0  0  0  0  0  0  0  0  0  0
  -21.5691  -29.3217   20.7822 C   0  0  0  0  0  0  0  0  0  0  0  0
  -20.7472  -27.7182   17.8840 C   0  0  0  0  0  0  0  0  0  0  0  0
  -30.3361  -15.1903   19.6640 C   0  0  0  0  0  0  0  0  0  0  0  0
  -24.4994  -33.4706   26.7013 C   0  0  0  0  0  0  0  0  0  0  0  0
  -25.0073  -30.6587   20.8484 C   0  0  0  0  0  0  0  0  0  0  0  0
  -23.7173  -28.0048   20.6544 C   0  0  0  0  0  0  0  0  0  0  0  0
  -23.3000  -32.8406   25.9978 C   0  0  0  0  0  0  0  0  0  0  0  0
  -30.2122  -11.6935   20.3232 C   0  0  0  0  0  0  0  0  0  0  0  0
  -23.4463  -31.3230   25.9492 C   0  0  0  0  0  0  0  0  0  0  0  0
  -28.7202  -11.3623   20.2439 C   0  0  0  0  0  0  0  0  0  0  0  0
  -30.4561  -13.0661   20.9479 C   0  0  0  0  0  0  0  0  0  0  0  0
  -28.2253  -13.8407   20.2458 C   0  0  0  0  0  0  0  0  0  0  0  0
  -24.6916  -30.9140   25.1533 C   0  0  1  0  0  0  0  0  0  0  0  0
  -23.6777  -30.3600   21.5341 C   0  0  1  0  0  0  0  0  0  0  0  0
  -27.9267  -12.4954   19.5641 C   0  0  2  0  0  0  0  0  0  0  0  0
  -18.8075  -27.2934   16.3495 C   0  0  0  0  0  0  0  0  0  0  0  0
  -20.4459  -27.2948   22.7672 C   0  0  0  0  0  0  0  0  0  0  0  0
  -19.1610  -26.2646   20.8814 C   0  0  0  0  0  0  0  0  0  0  0  0
  -18.7173  -28.6276   21.5464 C   0  0  0  0  0  0  0  0  0  0  0  0
  -22.1054  -29.0413   15.6117 C   0  0  0  0  0  0  0  0  0  0  0  0
  -29.9160  -24.6246   20.5204 C   0  0  0  0  0  0  0  0  0  0  0  0
  -29.8558  -23.7486   19.2739 C   0  0  0  0  0  0  0  0  0  0  0  0
  -29.4642  -26.0493   20.2281 C   0  0  0  0  0  0  0  0  0  1  0  0
  -30.3478  -22.3360   19.5553 C   0  0  0  0  0  0  0  0  0  0  0  0
  -20.8650  -28.0624   20.3380 C   0  0  1  0  0  0  0  0  0  0  0  0
  -19.9995  -28.1889   16.6495 C   0  0  2  0  0  0  0  0  0  0  0  0
  -19.8256  -27.5649   21.3818 C   0  0  0  0  0  0  0  0  0  0  0  0
  -25.6605  -12.6369   20.5262 N   0  0  0  0  0  0  0  0  0  0  0  0
  -26.4400  -12.1953   19.5244 N   0  0  0  0  0  0  0  0  0  0  0  0
  -22.9623  -29.2411   20.9172 N   0  0  0  0  0  0  0  0  0  0  0  0
  -29.6754  -14.0898   20.2498 N   0  0  0  0  0  0  0  0  0  0  0  0
  -26.3933  -10.9925   17.4844 N   0  0  0  0  0  0  0  0  0  0  0  0
  -22.0760  -10.9641   18.8096 N   0  0  0  0  0  0  0  0  0  0  0  0
  -29.4941  -16.0814   18.9995 N   0  0  0  0  0  0  0  0  0  0  0  0
  -24.4422  -31.0252   23.7321 N   0  0  0  0  0  0  0  0  0  0  0  0
  -20.3007  -28.3521   19.0242 N   0  0  0  0  0  0  0  0  0  0  0  0
  -20.9020  -28.1829   15.4636 N   0  3  0  0  0  0  0  0  0  0  0  0
  -23.5282  -10.2608   17.1801 O   0  0  0  0  0  0  0  0  0  0  0  0
  -23.4403  -28.9477   23.4114 O   0  0  0  0  0  0  0  0  0  0  0  0
  -20.9081  -30.3413   20.9946 O   0  0  0  0  0  0  0  0  0  0  0  0
  -21.6357  -26.8701   17.8416 O   0  0  0  0  0  0  0  0  0  0  0  0
  -31.5619  -15.3174   19.7224 O   0  0  0  0  0  0  0  0  0  0  0  0
  -20.0366  -13.2979   23.4388 O   0  0  0  0  0  0  0  0  0  0  0  0
  -28.1122  -26.0445   19.7714 O   0  0  0  0  0  0  0  0  0  1  0  0
  -30.2526  -21.5699   18.3623 O   0  0  0  0  0  0  0  0  0  0  0  0
  -15.4205  -15.0607   20.9915 F   0  0  0  0  0  0  0  0  0  0  0  0
  -18.9462  -15.7582   24.0719 F   0  0  0  0  0  0  0  0  0  0  0  0
  -27.7321  -20.5074   17.1071 Cl  0  0  0  0  0  0  0  0  0  0  0  0
  1  2  1  0  0  0  0
  1  5  2  0  0  0  0
  2  6  2  0  0  0  0
  3  9  2  0  0  0  0
  3 18  1  0  0  0  0
  4 10  1  0  0  0  0
  4 18  2  0  0  0  0
  5 20  1  0  0  0  0
  6 22  1  0  0  0  0
  7 11  2  0  0  0  0
  7 21  1  0  0  0  0
  8 12  2  0  0  0  0
  8 24  1  0  0  0  0
  9 25  1  0  0  0  0
 10 25  2  0  0  0  0
 11 26  1  0  0  0  0
 12 28  1  0  0  0  0
 13 14  2  0  0  0  0
 13 27  1  0  0  0  0
 14 29  1  0  0  0  0
 15 23  1  0  0  0  0
 15 26  2  0  0  0  0
 16 24  2  0  0  0  0
 16 31  1  0  0  0  0
 17 29  2  0  0  0  0
 17 30  1  0  0  0  0
 18 32  1  0  0  0  0
 19 32  1  0  0  0  0
 19 33  2  0  0  0  0
 19 34  1  0  0  0  0
 20 22  2  0  0  0  0
 20 39  1  0  0  0  0
 21 23  2  0  0  0  0
 21 40  1  0  0  0  0
 22 48  1  0  0  0  0
 23 41  1  0  0  0  0
 24 69  1  0  0  0  0
 25 78  1  0  0  0  0
 26 79  1  0  0  0  0
 27 30  2  0  0  0  0
 27 78  1  0  0  0  0
 28 31  2  0  0  0  0
 28 80  1  0  0  0  0
 29 81  1  0  0  0  0
 30 82  1  0  0  0  0
 31 83  1  0  0  0  0
 32 63  2  0  0  0  0
 33 64  1  0  0  0  0
 33 67  1  0  0  0  0
 34 68  1  0  0  0  0
 34 73  2  0  0  0  0
 35 49  1  0  0  0  0
 35 70  1  0  0  0  0
 35 74  2  0  0  0  0
 36 60  1  0  0  0  0
 36 65  1  0  0  0  0
 36 75  2  0  0  0  0
 37 61  1  0  0  0  0
 37 71  1  0  0  0  0
 37 76  2  0  0  0  0
 38 66  1  0  0  0  0
 38 69  1  0  0  0  0
 38 77  2  0  0  0  0
 39 42  1  0  0  0  0
 40 49  1  0  0  0  0
 41 65  1  0  0  0  0
 42 44  1  0  0  0  0
 43 45  1  0  0  0  0
 43 46  1  0  0  0  0
 44 48  1  0  0  0  0
 45 50  1  0  0  0  0
 46 66  1  0  0  0  0
 47 50  1  0  0  0  0
 47 66  1  0  0  0  0
 48 70  1  0  0  0  0
 49 65  1  0  0  0  0
 50 64  1  0  0  0  0
 51 61  1  0  0  0  0
 52 62  1  0  0  0  0
 53 62  1  0  0  0  0
 54 62  1  0  0  0  0
 55 72  1  0  0  0  0
 56 57  1  0  0  0  0
 56 58  1  0  0  0  0
 57 59  1  0  0  0  0
 58 79  1  0  0  0  0
 59 80  1  0  0  0  0
 60 62  1  0  0  0  0
 60 71  1  0  0  0  0
 61 72  1  0  0  0  0
 63 64  1  0  0  0  0
M  CHG  1  72   1
M  ISO  4  38 100  58 101  69 100  79 101
M  END
> <Batch ID>
0017

> <Smiles>
CNC(C)C(=O)NC(C(=O)N1Cc2cc([101O:1][101CH2:1]CCCOc3ccc([100NH:0][100C:0](=O)N4CCCC(n5nc(-c6ccc(Oc7ccc(F)cc7F)cc6)c(C(N)=O)c5N)C4)cc3Cl)ccc2CC1C(=O)NC1CCCc2ccccc21)C(C)(C)C

> <Shape>
0.298

> <Color>
0.088

> <Negative vol penalty>
0.000

$$$$

  -OEChem-04042321003D

 86 94  0     1  0  0  0  0  0999 V2000
  -19.7840  -28.9166   22.9633 C   0  0  0  0  0  0  0  0  0  0  0  0
  -20.6212  -27.8612   23.3105 C   0  0  0  0  0  0  0  0  0  0  0  0
  -27.6913  -23.2895   20.5736 C   0  0  0  0  0  0  0  0  0  0  0  0
  -28.9976  -23.4252   18.5457 C   0  0  0  0  0  0  0  0  0  0  0  0
  -18.6878  -28.6908   22.1318 C   0  0  0  0  0  0  0  0  0  0  0  0
  -20.3621  -26.5791   22.8274 C   0  0  0  0  0  0  0  0  0  0  0  0
  -23.7315  -20.6009   20.7718 C   0  0  0  0  0  0  0  0  0  0  0  0
  -27.8200  -16.6161   23.9883 C   0  0  0  0  0  0  0  0  0  0  0  0
  -26.6801  -15.9774   23.5004 C   0  0  0  0  0  0  0  0  0  0  0  0
  -27.7009  -24.6807   20.6729 C   0  0  0  0  0  0  0  0  0  0  0  0
  -29.0071  -24.8165   18.6450 C   0  0  0  0  0  0  0  0  0  0  0  0
  -23.7320  -19.2277   21.0128 C   0  0  0  0  0  0  0  0  0  0  0  0
  -27.0747  -28.2126   21.2638 C   0  0  0  0  0  0  0  0  0  0  0  0
  -25.8728  -28.8489   21.5738 C   0  0  0  0  0  0  0  0  0  0  0  0
  -29.2099  -15.1366   22.6783 C   0  0  0  0  0  0  0  0  0  0  0  0
  -21.8549  -18.9711   19.5194 C   0  0  0  0  0  0  0  0  0  0  0  0
  -24.8701  -27.9272   19.5783 C   0  0  0  0  0  0  0  0  0  0  0  0
  -28.3397  -22.6617   19.5100 C   0  0  0  0  0  0  0  0  0  0  0  0
  -28.0699  -14.4977   22.1904 C   0  0  0  0  0  0  0  0  0  0  0  0
  -27.3813  -20.4258   18.7420 C   0  0  0  0  0  0  0  0  0  0  0  0
  -18.4206  -27.4071   21.6304 C   0  0  0  0  0  0  0  0  0  0  0  0
  -22.7842  -21.1720   19.9098 C   0  0  0  0  0  0  0  0  0  0  0  0
  -19.2605  -26.3356   21.9895 C   0  0  0  0  0  0  0  0  0  0  0  0
  -21.8462  -20.3515   19.2672 C   0  0  0  0  0  0  0  0  0  0  0  0
  -29.0849  -16.1958   23.5772 C   0  0  0  0  0  0  0  0  0  0  0  0
  -26.8050  -14.9181   22.6015 C   0  0  0  0  0  0  0  0  0  0  0  0
  -28.3587  -25.4442   19.7086 C   0  0  0  0  0  0  0  0  0  0  0  0
  -22.7918  -18.4130   20.3888 C   0  0  0  0  0  0  0  0  0  0  0  0
  -27.1744  -27.4336   20.1110 C   0  0  0  0  0  0  0  0  0  0  0  0
  -24.7705  -28.7062   20.7311 C   0  0  0  0  0  0  0  0  0  0  0  0
  -26.0721  -27.2909   19.2682 C   0  0  0  0  0  0  0  0  0  0  0  0
  -28.3307  -21.2245   19.4072 C   0  0  0  0  0  0  0  0  0  0  0  0
  -27.8188  -19.1384   18.9367 C   0  0  0  0  0  0  0  0  0  0  0  0
  -28.8375  -13.4464   20.0465 C   0  0  0  0  0  0  0  0  0  0  0  0
  -28.2390  -13.3938   21.2531 C   0  0  0  0  0  0  0  0  0  0  0  0
  -26.2089  -20.8129   18.0132 C   0  0  0  0  0  0  0  0  0  0  0  0
  -20.4548  -23.3099   20.2370 C   0  0  0  0  0  0  0  0  0  0  0  0
  -20.2432  -22.9951   17.0154 C   0  0  0  0  0  0  0  0  0  0  0  0
  -20.8031  -21.0768   14.2489 C   0  0  0  0  0  0  0  0  0  0  0  0
  -31.4612  -16.9661   23.3512 C   0  0  0  0  0  0  0  0  0  0  0  0
  -17.1967  -27.2028   20.7732 C   0  0  0  0  0  0  0  0  0  0  0  0
  -22.8139  -22.6514   19.6397 C   0  0  0  0  0  0  0  0  0  0  0  0
  -20.8208  -20.9125   18.3173 C   0  0  0  0  0  0  0  0  0  0  0  0
  -17.2070  -25.8862   20.0006 C   0  0  0  0  0  0  0  0  0  0  0  0
  -31.7861  -16.5795   19.6854 C   0  0  0  0  0  0  0  0  0  0  0  0
  -17.6096  -24.7337   20.9152 C   0  0  0  0  0  0  0  0  0  0  0  0
  -30.9196  -17.7161   19.1462 C   0  0  0  0  0  0  0  0  0  0  0  0
  -32.3743  -16.9152   21.0525 C   0  0  0  0  0  0  0  0  0  0  0  0
  -30.4763  -18.4365   21.5266 C   0  0  0  0  0  0  0  0  0  0  0  0
  -19.0267  -24.9353   21.4655 C   0  0  1  0  0  0  0  0  0  0  0  0
  -21.4779  -23.1949   19.1426 C   0  0  1  0  0  0  0  0  0  0  0  0
  -29.8393  -18.1064   20.1684 C   0  0  1  0  0  0  0  0  0  0  0  0
  -20.4893  -21.0714   11.7591 C   0  0  0  0  0  0  0  0  0  0  0  0
  -17.2733  -22.4065   17.3935 C   0  0  0  0  0  0  0  0  0  0  0  0
  -17.2285  -21.4949   15.0621 C   0  0  0  0  0  0  0  0  0  0  0  0
  -17.8038  -23.8907   15.4518 C   0  0  0  0  0  0  0  0  0  0  0  0
  -30.3007  -17.1973   25.5032 C   0  0  0  0  0  0  0  0  0  0  0  0
  -24.7200  -13.6549   23.0676 C   0  0  0  0  0  0  0  0  0  0  0  0
  -23.7162  -20.8787   13.7657 C   0  0  0  0  0  0  0  0  0  0  0  0
  -24.0118  -15.0137   20.4585 C   0  0  0  0  0  0  0  0  0  0  0  0
  -25.3184  -14.2746   20.7210 C   0  0  0  0  0  0  0  0  0  0  0  0
  -24.0443  -16.4640   20.9260 C   0  0  0  0  0  0  0  0  0  1  0  0
  -19.4729  -22.0977   16.0772 C   0  0  1  0  0  0  0  0  0  0  0  0
  -21.4307  -21.4045   12.9061 C   0  0  2  0  0  0  0  0  0  0  0  0
  -17.9626  -22.4618   16.0155 C   0  0  0  0  0  0  0  0  0  0  0  0
  -29.2982  -20.5048   19.9817 N   0  0  0  0  0  0  0  0  0  0  0  0
  -28.9590  -19.2404   19.6781 N   0  0  0  0  0  0  0  0  0  0  0  0
  -20.8866  -22.3657   18.0905 N   0  0  0  0  0  0  0  0  0  0  0  0
  -31.3416  -17.3427   21.9976 N   0  0  0  0  0  0  0  0  0  0  0  0
  -27.3355  -17.9406   18.5444 N   0  0  0  0  0  0  0  0  0  0  0  0
  -25.9062  -22.1775   17.9104 N   0  0  0  0  0  0  0  0  0  0  0  0
  -20.0119  -24.5997   20.4599 N   0  0  0  0  0  0  0  0  0  0  0  0
  -20.1576  -22.1680   14.7909 N   0  0  0  0  0  0  0  0  0  0  0  0
  -30.2633  -16.8566   24.0828 N   0  0  0  0  0  0  0  0  0  0  0  0
  -25.6424  -14.2938   22.1270 N   0  0  3  0  0  0  0  0  0  0  0  0
  -22.6903  -20.6301   12.7203 N   0  3  0  0  0  0  0  0  0  0  0  0
  -25.4431  -19.9726   17.4831 O   0  0  0  0  0  0  0  0  0  0  0  0
  -20.0928  -22.3027   20.8339 O   0  0  0  0  0  0  0  0  0  0  0  0
  -20.2790  -24.2088   16.7982 O   0  0  0  0  0  0  0  0  0  0  0  0
  -20.8748  -19.9631   14.7637 O   0  0  0  0  0  0  0  0  0  0  0  0
  -32.5627  -16.7932   23.8874 O   0  0  0  0  0  0  0  0  0  0  0  0
  -28.3681  -26.8019   19.8050 O   0  0  0  0  0  0  0  0  0  0  0  0
  -22.7897  -17.0724   20.6228 O   0  0  0  0  0  0  0  0  0  1  0  0
  -23.6159  -29.3160   21.0297 F   0  0  0  0  0  0  0  0  0  0  0  0
  -26.1614  -26.5429   18.1599 F   0  0  0  0  0  0  0  0  0  0  0  0
  -27.7650  -12.1750   21.6321 F   0  0  0  0  0  0  0  0  0  0  0  0
  1  2  1  0  0  0  0
  1  5  2  0  0  0  0
  2  6  2  0  0  0  0
  3 10  2  0  0  0  0
  3 18  1  0  0  0  0
  4 11  1  0  0  0  0
  4 18  2  0  0  0  0
  5 21  1  0  0  0  0
  6 23  1  0  0  0  0
  7 12  2  0  0  0  0
  7 22  1  0  0  0  0
  8  9  2  0  0  0  0
  8 25  1  0  0  0  0
  9 26  1  0  0  0  0
 10 27  1  0  0  0  0
 11 27  2  0  0  0  0
 12 28  1  0  0  0  0
 13 14  2  0  0  0  0
 13 29  1  0  0  0  0
 14 30  1  0  0  0  0
 15 19  1  0  0  0  0
 15 25  2  0  0  0  0
 16 24  1  0  0  0  0
 16 28  2  0  0  0  0
 17 30  2  0  0  0  0
 17 31  1  0  0  0  0
 18 32  1  0  0  0  0
 19 26  2  0  0  0  0
 19 35  1  0  0  0  0
 20 32  1  0  0  0  0
 20 33  2  0  0  0  0
 20 36  1  0  0  0  0
 21 23  2  0  0  0  0
 21 41  1  0  0  0  0
 22 24  2  0  0  0  0
 22 42  1  0  0  0  0
 23 50  1  0  0  0  0
 24 43  1  0  0  0  0
 25 74  1  0  0  0  0
 26 75  1  0  0  0  0
 27 82  1  0  0  0  0
 28 83  1  0  0  0  0
 29 31  2  0  0  0  0
 29 82  1  0  0  0  0
 30 84  1  0  0  0  0
 31 85  1  0  0  0  0
 32 66  2  0  0  0  0
 33 67  1  0  0  0  0
 33 70  1  0  0  0  0
 34 35  2  0  0  0  0
 35 86  1  0  0  0  0
 36 71  1  0  0  0  0
 36 77  2  0  0  0  0
 37 51  1  0  0  0  0
 37 72  1  0  0  0  0
 37 78  2  0  0  0  0
 38 63  1  0  0  0  0
 38 68  1  0  0  0  0
 38 79  2  0  0  0  0
 39 64  1  0  0  0  0
 39 73  1  0  0  0  0
 39 80  2  0  0  0  0
 40 69  1  0  0  0  0
 40 74  1  0  0  0  0
 40 81  2  0  0  0  0
 41 44  1  0  0  0  0
 42 51  1  0  0  0  0
 43 68  1  0  0  0  0
 44 46  1  0  0  0  0
 45 47  1  0  0  0  0
 45 48  1  0  0  0  0
 46 50  1  0  0  0  0
 47 52  1  0  0  0  0
 48 69  1  0  0  0  0
 49 52  1  0  0  0  0
 49 69  1  0  0  0  0
 50 72  1  0  0  0  0
 51 68  1  0  0  0  0
 52 67  1  0  0  0  0
 53 64  1  0  0  0  0
 54 65  1  0  0  0  0
 55 65  1  0  0  0  0
 56 65  1  0  0  0  0
 57 74  1  0  0  0  0
 58 75  1  0  0  0  0
 59 76  1  0  0  0  0
 60 61  1  0  0  0  0
 60 62  1  0  0  0  0
 61 75  1  0  0  0  0
 62 83  1  0  0  0  0
 63 65  1  0  0  0  0
 63 73  1  0  0  0  0
 64 76  1  0  0  0  0
 66 67  1  0  0  0  0
M  CHG  1  76   1
M  ISO  4  40 100  62 101  74 100  83 101
M  END
> <Batch ID>
0017

> <Smiles>
C=C(F)c1cc([100N:0](C)[100C:0](=O)N2CCCC(n3nc(-c4ccc(Oc5ccc(F)cc5F)cc4)c(C(N)=O)c3N)C2)ccc1N(C)CC[101CH2:1][101O:1]c1ccc2c(c1)CN(C(=O)C(NC(=O)C(C)NC)C(C)(C)C)C(C(=O)NC1CCCc3ccccc31)C2

> <Shape>
0.204

> <Color>
0.077

> <Negative vol penalty>
0.000

$$$$

  -OEChem-04042321003D

 85 93  0     1  0  0  0  0  0999 V2000
  -23.2227  -20.2588   16.3095 C   0  0  0  0  0  0  0  0  0  0  0  0
  -24.4395  -19.6033   16.4687 C   0  0  0  0  0  0  0  0  0  0  0  0
  -35.6033  -18.4869   23.1745 C   0  0  0  0  0  0  0  0  0  0  0  0
  -25.5136  -24.6620   22.3379 C   0  0  0  0  0  0  0  0  0  0  0  0
  -24.1393  -22.9138   21.3935 C   0  0  0  0  0  0  0  0  0  0  0  0
  -22.1983  -20.0589   17.2340 C   0  0  0  0  0  0  0  0  0  0  0  0
  -24.6329  -18.7484   17.5532 C   0  0  0  0  0  0  0  0  0  0  0  0
  -27.9445  -13.5974   17.6353 C   0  0  0  0  0  0  0  0  0  0  0  0
  -35.7093  -17.4505   22.2470 C   0  0  0  0  0  0  0  0  0  0  0  0
  -34.3832  -19.1381   23.3562 C   0  0  0  0  0  0  0  0  0  0  0  0
  -24.3913  -25.2077   22.9611 C   0  0  0  0  0  0  0  0  0  0  0  0
  -23.0170  -23.4594   22.0167 C   0  0  0  0  0  0  0  0  0  0  0  0
  -29.2401  -13.3221   18.0705 C   0  0  0  0  0  0  0  0  0  0  0  0
  -21.7516  -27.1331   22.0956 C   0  0  0  0  0  0  0  0  0  0  0  0
  -21.5783  -28.5152   22.0224 C   0  0  0  0  0  0  0  0  0  0  0  0
  -28.3631  -12.5767   20.1905 C   0  0  0  0  0  0  0  0  0  0  0  0
  -33.3752  -17.7167   21.6828 C   0  0  0  0  0  0  0  0  0  0  0  0
  -21.6519  -28.6521   24.4334 C   0  0  0  0  0  0  0  0  0  0  0  0
  -25.3876  -23.5151   21.5540 C   0  0  0  0  0  0  0  0  0  0  0  0
  -27.3834  -23.5773   19.9665 C   0  0  0  0  0  0  0  0  0  0  0  0
  -22.3760  -19.1936   18.3250 C   0  0  0  0  0  0  0  0  0  0  0  0
  -26.8475  -13.3743   18.4798 C   0  0  0  0  0  0  0  0  0  0  0  0
  -23.6104  -18.5377   18.4938 C   0  0  0  0  0  0  0  0  0  0  0  0
  -27.0544  -12.8476   19.7627 C   0  0  0  0  0  0  0  0  0  0  0  0
  -34.5953  -17.0654   21.5011 C   0  0  0  0  0  0  0  0  0  0  0  0
  -33.2692  -18.7531   22.6103 C   0  0  0  0  0  0  0  0  0  0  0  0
  -23.1430  -24.6063   22.8005 C   0  0  0  0  0  0  0  0  0  0  0  0
  -29.4498  -12.8144   19.3493 C   0  0  0  0  0  0  0  0  0  0  0  0
  -21.8749  -26.5105   23.3377 C   0  0  0  0  0  0  0  0  0  0  0  0
  -21.5285  -29.2747   23.1912 C   0  0  0  0  0  0  0  0  0  0  0  0
  -21.8251  -27.2700   24.5066 C   0  0  0  0  0  0  0  0  0  0  0  0
  -26.5464  -22.9513   20.9096 C   0  0  0  0  0  0  0  0  0  0  0  0
  -28.3305  -22.6292   19.6653 C   0  0  0  0  0  0  0  0  0  0  0  0
  -27.3114  -24.8977   19.4124 C   0  0  0  0  0  0  0  0  0  0  0  0
  -24.5991  -15.2140   19.7699 C   0  0  0  0  0  0  0  0  0  0  0  0
  -23.3946  -12.3720   20.7670 C   0  0  0  0  0  0  0  0  0  0  0  0
  -32.7737  -14.4029   20.7703 C   0  0  0  0  0  0  0  0  0  0  0  0
  -23.9596   -9.0948   21.5337 C   0  0  0  0  0  0  0  0  0  0  0  0
  -30.0660  -17.7886   22.9962 C   0  0  0  0  0  0  0  0  0  0  0  0
  -21.2560  -19.0458   19.3242 C   0  0  0  0  0  0  0  0  0  0  0  0
  -25.4540  -13.6513   17.9857 C   0  0  0  0  0  0  0  0  0  0  0  0
  -25.9089  -12.5712   20.7008 C   0  0  0  0  0  0  0  0  0  0  0  0
  -21.4120  -17.8339   20.2392 C   0  0  0  0  0  0  0  0  0  0  0  0
  -28.9777  -17.8991   19.4599 C   0  0  0  0  0  0  0  0  0  0  0  0
  -22.8357  -17.7537   20.7809 C   0  0  0  0  0  0  0  0  0  0  0  0
  -28.2397  -19.2344   19.3801 C   0  0  0  0  0  0  0  0  0  0  0  0
  -28.9224  -17.3035   20.8635 C   0  0  0  0  0  0  0  0  0  0  0  0
  -28.6721  -19.5581   21.8477 C   0  0  0  0  0  0  0  0  0  0  0  0
  -23.8500  -17.5833   19.6435 C   0  0  1  0  0  0  0  0  0  0  0  0
  -24.4520  -13.8696   19.1152 C   0  0  1  0  0  0  0  0  0  0  0  0
  -28.7485  -20.2076   20.4578 C   0  0  2  0  0  0  0  0  0  0  0  0
  -22.7878   -7.0340   22.3566 C   0  0  0  0  0  0  0  0  0  0  0  0
  -23.3797  -13.5134   23.5967 C   0  0  0  0  0  0  0  0  0  0  0  0
  -23.1252  -11.1780   24.4625 C   0  0  0  0  0  0  0  0  0  0  0  0
  -21.3580  -12.1654   23.0048 C   0  0  0  0  0  0  0  0  0  0  0  0
  -31.2855  -18.5512   24.9988 C   0  0  0  0  0  0  0  0  0  0  0  0
  -24.5956   -7.6037   19.0576 C   0  0  0  0  0  0  0  0  0  0  0  0
  -34.7099  -15.9488   20.5040 C   0  0  0  0  0  0  0  0  0  0  0  0
  -31.9648  -19.4500   22.8042 C   0  0  0  0  0  0  0  0  0  0  0  0
  -32.4199  -13.0613   21.3930 C   0  0  0  0  0  0  0  0  0  0  0  0
  -30.9662  -12.6705   21.1756 C   0  0  0  0  0  0  0  0  0  1  0  0
  -23.5762  -11.5033   21.9882 C   0  0  1  0  0  0  0  0  0  0  0  0
  -23.2270   -7.8263   21.1352 C   0  0  2  0  0  0  0  0  0  0  0  0
  -22.8818  -12.0969   23.2463 C   0  0  0  0  0  0  0  0  0  0  0  0
  -26.9280  -21.7022   21.1888 N   0  0  0  0  0  0  0  0  0  0  0  0
  -28.0152  -21.5355   20.4167 N   0  0  0  0  0  0  0  0  0  0  0  0
  -24.5658  -12.8644   20.1739 N   0  0  0  0  0  0  0  0  0  0  0  0
  -29.3703  -18.2640   21.8724 N   0  0  0  0  0  0  0  0  0  0  0  0
  -29.3938  -22.6327   18.8335 N   0  0  0  0  0  0  0  0  0  0  0  0
  -26.5653  -25.0913   18.2419 N   0  0  0  0  0  0  0  0  0  0  0  0
  -23.8564  -16.2148   19.1729 N   0  0  0  0  0  0  0  0  0  0  0  0
  -34.1049  -14.7283   20.9869 N   0  0  0  0  0  0  0  0  0  0  0  0
  -23.1047  -10.1735   21.6170 N   0  0  0  0  0  0  0  0  0  0  0  0
  -31.0149  -18.6473   23.5715 N   0  0  0  0  0  0  0  0  0  0  0  0
  -24.1085   -6.9585   20.3040 N   0  3  0  0  0  0  0  0  0  0  0  0
  -27.9050  -25.8738   19.9306 O   0  0  0  0  0  0  0  0  0  0  0  0
  -25.3311  -15.3342   20.7453 O   0  0  0  0  0  0  0  0  0  0  0  0
  -22.2561  -12.5992   20.3503 O   0  0  0  0  0  0  0  0  0  0  0  0
  -31.9657  -15.0947   20.1568 O   0  0  0  0  0  0  0  0  0  0  0  0
  -25.1685   -9.1249   21.7530 O   0  0  0  0  0  0  0  0  0  0  0  0
  -29.8580  -16.6573   23.4531 O   0  0  0  0  0  0  0  0  0  0  0  0
  -22.0477  -25.1383   23.4087 O   0  0  0  0  0  0  0  0  0  0  0  0
  -30.7134  -12.5454   19.7768 O   0  0  0  0  0  0  0  0  0  1  0  0
  -21.3637  -30.6021   23.1207 F   0  0  0  0  0  0  0  0  0  0  0  0
  -21.9442  -26.6776   25.7027 F   0  0  0  0  0  0  0  0  0  0  0  0
  1  2  1  0  0  0  0
  1  6  2  0  0  0  0
  2  7  2  0  0  0  0
  3  9  2  0  0  0  0
  3 10  1  0  0  0  0
  4 11  2  0  0  0  0
  4 19  1  0  0  0  0
  5 12  1  0  0  0  0
  5 19  2  0  0  0  0
  6 21  1  0  0  0  0
  7 23  1  0  0  0  0
  8 13  2  0  0  0  0
  8 22  1  0  0  0  0
  9 25  1  0  0  0  0
 10 26  2  0  0  0  0
 11 27  1  0  0  0  0
 12 27  2  0  0  0  0
 13 28  1  0  0  0  0
 14 15  2  0  0  0  0
 14 29  1  0  0  0  0
 15 30  1  0  0  0  0
 16 24  1  0  0  0  0
 16 28  2  0  0  0  0
 17 25  2  0  0  0  0
 17 26  1  0  0  0  0
 18 30  2  0  0  0  0
 18 31  1  0  0  0  0
 19 32  1  0  0  0  0
 20 32  1  0  0  0  0
 20 33  2  0  0  0  0
 20 34  1  0  0  0  0
 21 23  2  0  0  0  0
 21 40  1  0  0  0  0
 22 24  2  0  0  0  0
 22 41  1  0  0  0  0
 23 49  1  0  0  0  0
 24 42  1  0  0  0  0
 25 58  1  0  0  0  0
 26 59  1  0  0  0  0
 27 82  1  0  0  0  0
 28 83  1  0  0  0  0
 29 31  2  0  0  0  0
 29 82  1  0  0  0  0
 30 84  1  0  0  0  0
 31 85  1  0  0  0  0
 32 65  2  0  0  0  0
 33 66  1  0  0  0  0
 33 69  1  0  0  0  0
 34 70  1  0  0  0  0
 34 76  2  0  0  0  0
 35 50  1  0  0  0  0
 35 71  1  0  0  0  0
 35 77  2  0  0  0  0
 36 62  1  0  0  0  0
 36 67  1  0  0  0  0
 36 78  2  0  0  0  0
 37 60  1  0  0  0  0
 37 72  1  0  0  0  0
 37 79  2  0  0  0  0
 38 63  1  0  0  0  0
 38 73  1  0  0  0  0
 38 80  2  0  0  0  0
 39 68  1  0  0  0  0
 39 74  1  0  0  0  0
 39 81  2  0  0  0  0
 40 43  1  0  0  0  0
 41 50  1  0  0  0  0
 42 67  1  0  0  0  0
 43 45  1  0  0  0  0
 44 46  1  0  0  0  0
 44 47  1  0  0  0  0
 45 49  1  0  0  0  0
 46 51  1  0  0  0  0
 47 68  1  0  0  0  0
 48 51  1  0  0  0  0
 48 68  1  0  0  0  0
 49 71  1  0  0  0  0
 50 67  1  0  0  0  0
 51 66  1  0  0  0  0
 52 63  1  0  0  0  0
 53 64  1  0  0  0  0
 54 64  1  0  0  0  0
 55 64  1  0  0  0  0
 56 74  1  0  0  0  0
 57 75  1  0  0  0  0
 58 72  1  0  0  0  0
 59 74  1  0  0  0  0
 60 61  1  0  0  0  0
 61 83  1  0  0  0  0
 62 64  1  0  0  0  0
 62 73  1  0  0  0  0
 63 75  1  0  0  0  0
 65 66  1  0  0  0  0
M  CHG  1  75   1
M  ISO  4  39 100  61 101  74 100  83 101
M  END
> <Batch ID>
0017

> <Smiles>
CNC(C)C(=O)NC(C(=O)N1Cc2cc([101O:1][101CH2:1]CC(=O)NCc3cccc(C[100N:0](C)[100C:0](=O)N4CCCC(n5nc(-c6ccc(Oc7ccc(F)cc7F)cc6)c(C(N)=O)c5N)C4)c3)ccc2CC1C(=O)NC1CCCc2ccccc21)C(C)(C)C

> <Shape>
0.216

> <Color>
0.061

> <Negative vol penalty>
0.000

$$$$

  -OEChem-04042321003D

 83 92  0     1  0  0  0  0  0999 V2000
  -26.3503  -33.0290   26.7044 C   0  0  0  0  0  0  0  0  0  0  0  0
  -27.0430  -32.1868   25.8420 C   0  0  0  0  0  0  0  0  0  0  0  0
  -22.7400  -12.5172   18.7358 C   0  0  0  0  0  0  0  0  0  0  0  0
  -22.7130  -10.6560   20.2760 C   0  0  0  0  0  0  0  0  0  0  0  0
  -30.4742  -15.8328   21.8228 C   0  0  0  0  0  0  0  0  0  0  0  0
  -30.2899  -16.6851   19.5697 C   0  0  0  0  0  0  0  0  0  0  0  0
  -24.9580  -32.9928   26.7390 C   0  0  0  0  0  0  0  0  0  0  0  0
  -26.3432  -31.3166   25.0053 C   0  0  0  0  0  0  0  0  0  0  0  0
  -28.3589  -27.0447   21.1562 C   0  0  0  0  0  0  0  0  0  0  0  0
  -30.0596  -17.0670   22.3235 C   0  0  0  0  0  0  0  0  0  0  0  0
  -29.8754  -17.9192   20.0704 C   0  0  0  0  0  0  0  0  0  0  0  0
  -21.6006  -12.0142   18.1078 C   0  0  0  0  0  0  0  0  0  0  0  0
  -21.5735  -10.1530   19.6481 C   0  0  0  0  0  0  0  0  0  0  0  0
  -28.6419  -25.6799   21.1901 C   0  0  0  0  0  0  0  0  0  0  0  0
  -18.2677  -11.9496   18.6740 C   0  0  0  0  0  0  0  0  0  0  0  0
  -17.2434  -12.8474   18.3734 C   0  0  0  0  0  0  0  0  0  0  0  0
  -26.4569  -25.2105   20.2820 C   0  0  0  0  0  0  0  0  0  0  0  0
  -17.4619  -12.3112   16.0278 C   0  0  0  0  0  0  0  0  0  0  0  0
  -23.2962  -11.8381   19.8198 C   0  0  0  0  0  0  0  0  0  0  0  0
  -30.5893  -15.6419   20.4459 C   0  0  0  0  0  0  0  0  0  0  0  0
  -24.5214  -13.2534   21.5530 C   0  0  0  0  0  0  0  0  0  0  0  0
  -24.2420  -32.1126   25.9110 C   0  0  0  0  0  0  0  0  0  0  0  0
  -27.1166  -27.5028   20.6945 C   0  0  0  0  0  0  0  0  0  0  0  0
  -24.9370  -31.2822   25.0083 C   0  0  0  0  0  0  0  0  0  0  0  0
  -26.1616  -26.5817   20.2409 C   0  0  0  0  0  0  0  0  0  0  0  0
  -29.7602  -18.1102   21.4473 C   0  0  0  0  0  0  0  0  0  0  0  0
  -21.0174  -10.8321   18.5640 C   0  0  0  0  0  0  0  0  0  0  0  0
  -27.6898  -24.7624   20.7556 C   0  0  0  0  0  0  0  0  0  0  0  0
  -18.8892  -11.2326   17.6515 C   0  0  0  0  0  0  0  0  0  0  0  0
  -16.8405  -13.0282   17.0503 C   0  0  0  0  0  0  0  0  0  0  0  0
  -18.4862  -11.4134   16.3284 C   0  0  0  0  0  0  0  0  0  0  0  0
  -24.4735  -12.3570   20.4686 C   0  0  0  0  0  0  0  0  0  0  0  0
  -25.8621  -13.4311   21.7926 C   0  0  0  0  0  0  0  0  0  0  0  0
  -28.9979  -20.5165   21.2075 C   0  0  0  0  0  0  0  0  0  0  0  0
  -31.0263  -14.3426   19.9190 C   0  0  0  0  0  0  0  0  0  0  0  0
  -23.4497  -13.8702   22.2788 C   0  0  0  0  0  0  0  0  0  0  0  0
  -24.7067  -29.1290   21.9795 C   0  0  0  0  0  0  0  0  0  0  0  0
  -23.5601  -29.0682   18.9457 C   0  0  0  0  0  0  0  0  0  0  0  0
  -23.5213  -27.5426   15.8931 C   0  0  0  0  0  0  0  0  0  0  0  0
  -22.7354  -32.1203   25.9836 C   0  0  0  0  0  0  0  0  0  0  0  0
  -26.8368  -28.9796   20.6393 C   0  0  0  0  0  0  0  0  0  0  0  0
  -24.8203  -27.0232   19.7170 C   0  0  0  0  0  0  0  0  0  0  0  0
  -22.1051  -30.8645   25.3902 C   0  0  0  0  0  0  0  0  0  0  0  0
  -29.8962  -10.9578   20.0080 C   0  0  0  0  0  0  0  0  0  0  0  0
  -22.6934  -30.5879   24.0147 C   0  0  0  0  0  0  0  0  0  0  0  0
  -28.3851  -11.0907   20.2052 C   0  0  0  0  0  0  0  0  0  0  0  0
  -29.0978  -21.1125   23.5095 C   0  0  0  0  0  0  0  0  0  0  0  0
  -30.4497  -12.0737   19.1254 C   0  0  0  0  0  0  0  0  0  0  0  0
  -29.1439  -19.6031   23.3797 C   0  0  0  0  0  0  0  0  0  0  0  0
  -28.5996  -13.5752   19.7789 C   0  0  0  0  0  0  0  0  0  0  0  0
  -24.1981  -30.3058   24.1110 C   0  0  1  0  0  0  0  0  0  0  0  0
  -28.4821  -21.5553   22.1902 C   0  0  1  0  0  0  0  0  0  0  0  0
  -25.3465  -29.3055   20.6315 C   0  0  1  0  0  0  0  0  0  0  0  0
  -28.0095  -12.4986   20.7045 C   0  0  1  0  0  0  0  0  0  0  0  0
  -22.4580  -27.7002   13.6255 C   0  0  0  0  0  0  0  0  0  0  0  0
  -20.9776  -27.9029   20.0783 C   0  0  0  0  0  0  0  0  0  0  0  0
  -20.3532  -27.2102   17.7549 C   0  0  0  0  0  0  0  0  0  0  0  0
  -20.6507  -29.6270   18.2964 C   0  0  0  0  0  0  0  0  0  0  0  0
  -26.1371  -27.9371   14.5661 C   0  0  0  0  0  0  0  0  0  0  0  0
  -28.8553  -22.9744   21.8046 C   0  0  0  0  0  0  0  0  0  1  0  0
  -22.6828  -28.1296   18.1529 C   0  0  1  0  0  0  0  0  0  0  0  0
  -23.6459  -28.1002   14.4867 C   0  0  2  0  0  0  0  0  0  0  0  0
  -21.1905  -28.2087   18.5823 C   0  0  0  0  0  0  0  0  0  0  0  0
  -25.6874  -11.9909   20.0483 N   0  0  0  0  0  0  0  0  0  0  0  0
  -26.5105  -12.6607   20.8728 N   0  0  0  0  0  0  0  0  0  0  0  0
  -29.3347  -19.3723   21.9598 N   0  0  0  0  0  0  0  0  0  0  0  0
  -30.0499  -13.3842   19.6367 N   0  0  0  0  0  0  0  0  0  0  0  0
  -24.5918  -28.4773   19.6888 N   0  0  0  0  0  0  0  0  0  0  0  0
  -26.5377  -14.1698   22.6983 N   0  0  0  0  0  0  0  0  0  0  0  0
  -22.1320  -13.5779   21.9013 N   0  0  0  0  0  0  0  0  0  0  0  0
  -24.7554  -30.2562   22.7773 N   0  0  0  0  0  0  0  0  0  0  0  0
  -22.9174  -28.4411   16.7471 N   0  0  0  0  0  0  0  0  0  0  0  0
  -24.8885  -27.5950   13.8374 N   0  3  0  0  0  0  0  0  0  0  0  0
  -29.0237  -20.6936   19.9982 O   0  0  0  0  0  0  0  0  0  0  0  0
  -32.2390  -14.1938   19.7767 O   0  0  0  0  0  0  0  0  0  0  0  0
  -23.6548  -14.6699   23.2232 O   0  0  0  0  0  0  0  0  0  0  0  0
  -24.2046  -28.0505   22.2734 O   0  0  0  0  0  0  0  0  0  0  0  0
  -23.3426  -30.2816   18.9013 O   0  0  0  0  0  0  0  0  0  0  0  0
  -23.9166  -26.4207   16.2023 O   0  0  0  0  0  0  0  0  0  0  0  0
  -19.9054  -10.3411   17.9516 O   0  0  0  0  0  0  0  0  0  0  0  0
  -27.9632  -23.4298   20.7882 O   0  0  0  0  0  0  0  0  0  1  0  0
  -15.8558  -13.8892   16.7619 F   0  0  0  0  0  0  0  0  0  0  0  0
  -19.0786  -10.7266   15.3419 F   0  0  0  0  0  0  0  0  0  0  0  0
  1  2  1  0  0  0  0
  1  7  2  0  0  0  0
  2  8  2  0  0  0  0
  3 12  2  0  0  0  0
  3 19  1  0  0  0  0
  4 13  1  0  0  0  0
  4 19  2  0  0  0  0
  5 10  2  0  0  0  0
  5 20  1  0  0  0  0
  6 11  1  0  0  0  0
  6 20  2  0  0  0  0
  7 22  1  0  0  0  0
  8 24  1  0  0  0  0
  9 14  2  0  0  0  0
  9 23  1  0  0  0  0
 10 26  1  0  0  0  0
 11 26  2  0  0  0  0
 12 27  1  0  0  0  0
 13 27  2  0  0  0  0
 14 28  1  0  0  0  0
 15 16  2  0  0  0  0
 15 29  1  0  0  0  0
 16 30  1  0  0  0  0
 17 25  1  0  0  0  0
 17 28  2  0  0  0  0
 18 30  2  0  0  0  0
 18 31  1  0  0  0  0
 19 32  1  0  0  0  0
 20 35  1  0  0  0  0
 21 32  1  0  0  0  0
 21 33  2  0  0  0  0
 21 36  1  0  0  0  0
 22 24  2  0  0  0  0
 22 40  1  0  0  0  0
 23 25  2  0  0  0  0
 23 41  1  0  0  0  0
 24 51  1  0  0  0  0
 25 42  1  0  0  0  0
 26 66  1  0  0  0  0
 27 80  1  0  0  0  0
 28 81  1  0  0  0  0
 29 31  2  0  0  0  0
 29 80  1  0  0  0  0
 30 82  1  0  0  0  0
 31 83  1  0  0  0  0
 32 64  2  0  0  0  0
 33 65  1  0  0  0  0
 33 69  1  0  0  0  0
 34 52  1  0  0  0  0
 34 66  1  0  0  0  0
 34 74  2  0  0  0  0
 35 67  1  0  0  0  0
 35 75  2  0  0  0  0
 36 70  1  0  0  0  0
 36 76  2  0  0  0  0
 37 53  1  0  0  0  0
 37 71  1  0  0  0  0
 37 77  2  0  0  0  0
 38 61  1  0  0  0  0
 38 68  1  0  0  0  0
 38 78  2  0  0  0  0
 39 62  1  0  0  0  0
 39 72  1  0  0  0  0
 39 79  2  0  0  0  0
 40 43  1  0  0  0  0
 41 53  1  0  0  0  0
 42 68  1  0  0  0  0
 43 45  1  0  0  0  0
 44 46  1  0  0  0  0
 44 48  1  0  0  0  0
 45 51  1  0  0  0  0
 46 54  1  0  0  0  0
 47 49  1  0  0  0  0
 47 52  1  0  0  0  0
 48 67  1  0  0  0  0
 49 66  1  0  0  0  0
 50 54  1  0  0  0  0
 50 67  1  0  0  0  0
 51 71  1  0  0  0  0
 52 60  1  0  0  0  0
 53 68  1  0  0  0  0
 54 65  1  0  0  0  0
 55 62  1  0  0  0  0
 56 63  1  0  0  0  0
 57 63  1  0  0  0  0
 58 63  1  0  0  0  0
 59 73  1  0  0  0  0
 60 81  1  0  0  0  0
 61 63  1  0  0  0  0
 61 72  1  0  0  0  0
 62 73  1  0  0  0  0
 64 65  1  0  0  0  0
M  CHG  1  73   1
M  ISO  4  20 100  35 100  60 101  81 101
M  END
> <Batch ID>
0017

> <Smiles>
CNC(C)C(=O)NC(C(=O)N1Cc2cc([101O:1][101CH2:1]C3CCN(c4cc[100c:0]([100C:0](=O)N5CCCC(n6nc(-c7ccc(Oc8ccc(F)cc8F)cc7)c(C(N)=O)c6N)C5)cc4)C3=O)ccc2CC1C(=O)NC1CCCc2ccccc21)C(C)(C)C

> <Shape>
0.255

> <Color>
0.104

> <Negative vol penalty>
0.000

$$$$

  -OEChem-04042321003D

 84 92  0     1  0  0  0  0  0999 V2000
  -21.4282  -26.3348   11.2692 C   0  0  0  0  0  0  0  0  0  0  0  0
  -22.3804  -25.7543   12.1010 C   0  0  0  0  0  0  0  0  0  0  0  0
  -23.8032  -16.6000   22.4669 C   0  0  0  0  0  0  0  0  0  0  0  0
  -22.7912  -16.4018   20.2820 C   0  0  0  0  0  0  0  0  0  0  0  0
  -20.9485  -27.6141   11.5472 C   0  0  0  0  0  0  0  0  0  0  0  0
  -22.8543  -26.4533   13.2106 C   0  0  0  0  0  0  0  0  0  0  0  0
  -24.4805  -24.0992   18.6253 C   0  0  0  0  0  0  0  0  0  0  0  0
  -29.8463  -18.6153   22.3697 C   0  0  0  0  0  0  0  0  0  0  0  0
  -30.1903  -17.2638   22.3940 C   0  0  0  0  0  0  0  0  0  0  0  0
  -22.9629  -17.6745   22.7586 C   0  0  0  0  0  0  0  0  0  0  0  0
  -21.9509  -17.4762   20.5737 C   0  0  0  0  0  0  0  0  0  0  0  0
  -25.7203  -23.7661   19.1690 C   0  0  0  0  0  0  0  0  0  0  0  0
  -21.3298  -20.7001   23.9427 C   0  0  0  0  0  0  0  0  0  0  0  0
  -21.8964  -21.8239   24.5441 C   0  0  0  0  0  0  0  0  0  0  0  0
  -25.8014  -25.9059   20.2798 C   0  0  0  0  0  0  0  0  0  0  0  0
  -23.3645  -22.0999   22.6452 C   0  0  0  0  0  0  0  0  0  0  0  0
  -23.7174  -15.9637   21.2285 C   0  0  0  0  0  0  0  0  0  0  0  0
  -24.3356  -13.4895   21.1657 C   0  0  0  0  0  0  0  0  0  0  0  0
  -21.4097  -28.3252   12.6662 C   0  0  0  0  0  0  0  0  0  0  0  0
  -23.8959  -25.3447   18.8965 C   0  0  0  0  0  0  0  0  0  0  0  0
  -22.3813  -27.7438   13.5030 C   0  0  0  0  0  0  0  0  0  0  0  0
  -24.5529  -26.2514   19.7404 C   0  0  0  0  0  0  0  0  0  0  0  0
  -30.0380  -19.3631   21.2079 C   0  0  0  0  0  0  0  0  0  0  0  0
  -30.7261  -16.6601   21.2564 C   0  0  0  0  0  0  0  0  0  0  0  0
  -22.0367  -18.1125   21.8120 C   0  0  0  0  0  0  0  0  0  0  0  0
  -26.3823  -24.6706   19.9941 C   0  0  0  0  0  0  0  0  0  0  0  0
  -21.7806  -20.2762   22.6926 C   0  0  0  0  0  0  0  0  0  0  0  0
  -22.9137  -22.5238   23.8954 C   0  0  0  0  0  0  0  0  0  0  0  0
  -22.7979  -20.9761   22.0438 C   0  0  0  0  0  0  0  0  0  0  0  0
  -30.5738  -18.7594   20.0704 C   0  0  0  0  0  0  0  0  0  0  0  0
  -30.9179  -17.4078   20.0946 C   0  0  0  0  0  0  0  0  0  0  0  0
  -24.5855  -14.8541   20.9264 C   0  0  0  0  0  0  0  0  0  0  0  0
  -25.4587  -12.8485   20.7028 C   0  0  0  0  0  0  0  0  0  0  0  0
  -23.1907  -12.8579   21.7538 C   0  0  0  0  0  0  0  0  0  0  0  0
  -23.0346  -27.8488   17.1383 C   0  0  0  0  0  0  0  0  0  0  0  0
  -21.8092  -28.9078   19.9488 C   0  0  0  0  0  0  0  0  0  0  0  0
  -21.8730  -28.8046   23.3594 C   0  0  0  0  0  0  0  0  0  0  0  0
  -31.0230  -14.4660   20.1209 C   0  0  0  0  0  0  0  0  0  0  0  0
  -20.8965  -29.7242   12.8993 C   0  0  0  0  0  0  0  0  0  0  0  0
  -22.5456  -25.6782   18.3238 C   0  0  0  0  0  0  0  0  0  0  0  0
  -23.9587  -27.5933   20.0789 C   0  0  0  0  0  0  0  0  0  0  0  0
  -21.1738  -30.2482   14.3060 C   0  0  0  0  0  0  0  0  0  0  0  0
  -28.9612  -13.2704   17.4822 C   0  0  0  0  0  0  0  0  0  0  0  0
  -22.6190  -29.9674   14.7050 C   0  0  0  0  0  0  0  0  0  0  0  0
  -27.5686  -13.4206   18.0935 C   0  0  0  0  0  0  0  0  0  0  0  0
  -29.8757  -14.4402   17.8472 C   0  0  0  0  0  0  0  0  0  0  0  0
  -28.5778  -14.8475   19.9146 C   0  0  0  0  0  0  0  0  0  0  0  0
  -22.9016  -28.4604   14.7302 C   0  0  1  0  0  0  0  0  0  0  0  0
  -22.2810  -27.1790   18.2524 C   0  0  1  0  0  0  0  0  0  0  0  0
  -27.6545  -13.6572   19.6117 C   0  0  1  0  0  0  0  0  0  0  0  0
  -20.7784  -29.8098   25.3814 C   0  0  0  0  0  0  0  0  0  0  0  0
  -23.4052  -31.4749   19.5335 C   0  0  0  0  0  0  0  0  0  0  0  0
  -23.0442  -32.0083   21.9529 C   0  0  0  0  0  0  0  0  0  0  0  0
  -21.0898  -31.8171   20.4146 C   0  0  0  0  0  0  0  0  0  0  0  0
  -31.7419  -14.7320   22.4847 C   0  0  0  0  0  0  0  0  0  0  0  0
  -20.8881  -26.1698   24.2796 C   0  0  0  0  0  0  0  0  0  0  0  0
  -28.8155  -22.8522   21.9491 C   0  0  0  0  0  0  0  0  0  0  0  0
  -29.1365  -21.4085   22.3166 C   0  0  0  0  0  0  0  0  0  0  0  0
  -27.8429  -22.9667   20.7812 C   0  0  0  0  0  0  0  0  0  1  0  0
  -22.3344  -29.7268   21.1031 C   0  0  1  0  0  0  0  0  0  0  0  0
  -20.7618  -28.6622   24.3838 C   0  0  2  0  0  0  0  0  0  0  0  0
  -22.4808  -31.2324   20.7433 C   0  0  0  0  0  0  0  0  0  0  0  0
  -25.7740  -15.0684   20.3559 N   0  0  0  0  0  0  0  0  0  0  0  0
  -26.2811  -13.8299   20.2329 N   0  0  0  0  0  0  0  0  0  0  0  0
  -22.6395  -27.8756   19.4895 N   0  0  0  0  0  0  0  0  0  0  0  0
  -29.8940  -14.6533   19.3013 N   0  0  0  0  0  0  0  0  0  0  0  0
  -25.8131  -11.5467   20.6559 N   0  0  0  0  0  0  0  0  0  0  0  0
  -22.1251  -13.6650   22.1749 N   0  0  0  0  0  0  0  0  0  0  0  0
  -29.6952  -20.7061   21.1868 N   0  0  0  0  0  0  0  0  0  0  0  0
  -22.3597  -27.8646   15.9326 N   0  0  0  0  0  0  0  0  0  0  0  0
  -21.4431  -29.4653   22.2281 N   0  0  0  0  0  0  0  0  0  0  0  0
  -31.0833  -15.2612   21.2856 N   0  0  0  0  0  0  0  0  0  0  0  0
  -20.9109  -27.3839   25.1354 N   0  3  0  0  0  0  0  0  0  0  0  0
  -23.1218  -11.6160   21.9164 O   0  0  0  0  0  0  0  0  0  0  0  0
  -24.1454  -28.3179   17.3568 O   0  0  0  0  0  0  0  0  0  0  0  0
  -20.6999  -29.1695   19.4769 O   0  0  0  0  0  0  0  0  0  0  0  0
  -23.0097  -28.3761   23.5458 O   0  0  0  0  0  0  0  0  0  0  0  0
  -31.8967  -13.6343   19.8473 O   0  0  0  0  0  0  0  0  0  0  0  0
  -21.2165  -19.1608   22.0964 O   0  0  0  0  0  0  0  0  0  0  0  0
  -27.5929  -24.3482   20.5255 O   0  0  0  0  0  0  0  0  0  1  0  0
  -23.4567  -23.6038   24.4724 F   0  0  0  0  0  0  0  0  0  0  0  0
  -23.2342  -20.5743   20.8422 F   0  0  0  0  0  0  0  0  0  0  0  0
  -30.7624  -19.4686   18.9485 F   0  0  0  0  0  0  0  0  0  0  0  0
  -31.4331  -16.8372   18.9963 F   0  0  0  0  0  0  0  0  0  0  0  0
  1  2  1  0  0  0  0
  1  5  2  0  0  0  0
  2  6  2  0  0  0  0
  3 10  2  0  0  0  0
  3 17  1  0  0  0  0
  4 11  1  0  0  0  0
  4 17  2  0  0  0  0
  5 19  1  0  0  0  0
  6 21  1  0  0  0  0
  7 12  2  0  0  0  0
  7 20  1  0  0  0  0
  8  9  2  0  0  0  0
  8 23  1  0  0  0  0
  9 24  1  0  0  0  0
 10 25  1  0  0  0  0
 11 25  2  0  0  0  0
 12 26  1  0  0  0  0
 13 14  2  0  0  0  0
 13 27  1  0  0  0  0
 14 28  1  0  0  0  0
 15 22  1  0  0  0  0
 15 26  2  0  0  0  0
 16 28  2  0  0  0  0
 16 29  1  0  0  0  0
 17 32  1  0  0  0  0
 18 32  1  0  0  0  0
 18 33  2  0  0  0  0
 18 34  1  0  0  0  0
 19 21  2  0  0  0  0
 19 39  1  0  0  0  0
 20 22  2  0  0  0  0
 20 40  1  0  0  0  0
 21 48  1  0  0  0  0
 22 41  1  0  0  0  0
 23 30  2  0  0  0  0
 23 69  1  0  0  0  0
 24 31  2  0  0  0  0
 24 72  1  0  0  0  0
 25 79  1  0  0  0  0
 26 80  1  0  0  0  0
 27 29  2  0  0  0  0
 27 79  1  0  0  0  0
 28 81  1  0  0  0  0
 29 82  1  0  0  0  0
 30 31  1  0  0  0  0
 30 83  1  0  0  0  0
 31 84  1  0  0  0  0
 32 63  2  0  0  0  0
 33 64  1  0  0  0  0
 33 67  1  0  0  0  0
 34 68  1  0  0  0  0
 34 74  2  0  0  0  0
 35 49  1  0  0  0  0
 35 70  1  0  0  0  0
 35 75  2  0  0  0  0
 36 60  1  0  0  0  0
 36 65  1  0  0  0  0
 36 76  2  0  0  0  0
 37 61  1  0  0  0  0
 37 71  1  0  0  0  0
 37 77  2  0  0  0  0
 38 66  1  0  0  0  0
 38 72  1  0  0  0  0
 38 78  2  0  0  0  0
 39 42  1  0  0  0  0
 40 49  1  0  0  0  0
 41 65  1  0  0  0  0
 42 44  1  0  0  0  0
 43 45  1  0  0  0  0
 43 46  1  0  0  0  0
 44 48  1  0  0  0  0
 45 50  1  0  0  0  0
 46 66  1  0  0  0  0
 47 50  1  0  0  0  0
 47 66  1  0  0  0  0
 48 70  1  0  0  0  0
 49 65  1  0  0  0  0
 50 64  1  0  0  0  0
 51 61  1  0  0  0  0
 52 62  1  0  0  0  0
 53 62  1  0  0  0  0
 54 62  1  0  0  0  0
 55 72  1  0  0  0  0
 56 73  1  0  0  0  0
 57 58  1  0  0  0  0
 57 59  1  0  0  0  0
 58 69  1  0  0  0  0
 59 80  1  0  0  0  0
 60 62  1  0  0  0  0
 60 71  1  0  0  0  0
 61 73  1  0  0  0  0
 63 64  1  0  0  0  0
M  CHG  1  73   1
M  ISO  4  38 100  59 101  72 100  80 101
M  END
> <Batch ID>
0017

> <Smiles>
CNC(C)C(=O)NC(C(=O)N1Cc2cc([101O:1][101CH2:1]CCNc3ccc([100N:0](C)[100C:0](=O)N4CCCC(n5nc(-c6ccc(Oc7ccc(F)cc7F)cc6)c(C(N)=O)c5N)C4)c(F)c3F)ccc2CC1C(=O)NC1CCCc2ccccc21)C(C)(C)C

> <Shape>
0.192

> <Color>
0.090

> <Negative vol penalty>
0.000

$$$$

  -OEChem-04042321003D

 86 94  0     1  0  0  0  0  0999 V2000
  -27.0739  -33.3674   26.5023 C   0  0  0  0  0  0  0  0  0  0  0  0
  -27.4183  -32.2537   25.7431 C   0  0  0  0  0  0  0  0  0  0  0  0
  -27.3755  -11.4784   20.7293 C   0  0  0  0  0  0  0  0  0  0  0  0
  -26.8720  -12.6638   18.6852 C   0  0  0  0  0  0  0  0  0  0  0  0
  -25.7469  -33.5694   26.8793 C   0  0  0  0  0  0  0  0  0  0  0  0
  -26.4359  -31.3407   25.3612 C   0  0  0  0  0  0  0  0  0  0  0  0
  -26.8413  -29.9691   20.5033 C   0  0  0  0  0  0  0  0  0  0  0  0
  -30.0989  -22.2833   18.1429 C   0  0  0  0  0  0  0  0  0  0  0  0
  -27.7845  -22.9762   18.1611 C   0  0  0  0  0  0  0  0  0  0  0  0
  -29.8067  -21.2829   19.0699 C   0  0  0  0  0  0  0  0  0  0  0  0
  -27.4922  -21.9757   19.0880 C   0  0  0  0  0  0  0  0  0  0  0  0
  -26.2922  -10.6292   20.5037 C   0  0  0  0  0  0  0  0  0  0  0  0
  -25.7887  -11.8145   18.4595 C   0  0  0  0  0  0  0  0  0  0  0  0
  -27.8245  -29.0330   20.1859 C   0  0  0  0  0  0  0  0  0  0  0  0
  -22.9326  -10.7294   20.8614 C   0  0  0  0  0  0  0  0  0  0  0  0
  -22.0920  -10.4522   21.9394 C   0  0  0  0  0  0  0  0  0  0  0  0
  -26.1511  -27.2958   20.1527 C   0  0  0  0  0  0  0  0  0  0  0  0
  -22.6000   -8.0994   21.7304 C   0  0  0  0  0  0  0  0  0  0  0  0
  -27.6654  -12.4957   19.8200 C   0  0  0  0  0  0  0  0  0  0  0  0
  -30.1114  -13.1922   19.6205 C   0  0  0  0  0  0  0  0  0  0  0  0
  -24.7462  -32.6636   26.4937 C   0  0  0  0  0  0  0  0  0  0  0  0
  -25.5051  -29.5731   20.6587 C   0  0  0  0  0  0  0  0  0  0  0  0
  -25.0944  -31.5301   25.7345 C   0  0  0  0  0  0  0  0  0  0  0  0
  -25.1525  -28.2293   20.4695 C   0  0  0  0  0  0  0  0  0  0  0  0
  -29.0878  -23.1300   17.6885 C   0  0  0  0  0  0  0  0  0  0  0  0
  -28.5034  -21.1290   19.5424 C   0  0  0  0  0  0  0  0  0  0  0  0
  -25.4988  -10.7973   19.3688 C   0  0  0  0  0  0  0  0  0  0  0  0
  -27.4800  -27.6956   20.0134 C   0  0  0  0  0  0  0  0  0  0  0  0
  -23.6069   -9.6917   20.2178 C   0  0  0  0  0  0  0  0  0  0  0  0
  -21.9257   -9.1372   22.3739 C   0  0  0  0  0  0  0  0  0  0  0  0
  -23.4407   -8.3767   20.6524 C   0  0  0  0  0  0  0  0  0  0  0  0
  -28.7840  -13.3736   20.0528 C   0  0  0  0  0  0  0  0  0  0  0  0
  -30.7803  -14.2944   20.0939 C   0  0  0  0  0  0  0  0  0  0  0  0
  -26.4353  -18.9971   21.6908 C   0  0  0  0  0  0  0  0  0  0  0  0
  -26.9559  -19.4822   20.5614 C   0  0  0  0  0  0  0  0  0  0  0  0
  -30.6881  -12.1230   18.8590 C   0  0  0  0  0  0  0  0  0  0  0  0
  -23.4158  -29.6199   23.0538 C   0  0  0  0  0  0  0  0  0  0  0  0
  -21.3573  -28.6023   20.7626 C   0  0  0  0  0  0  0  0  0  0  0  0
  -20.9032  -27.0405   17.7624 C   0  0  0  0  0  0  0  0  0  0  0  0
  -29.1493  -19.7976   21.5179 C   0  0  0  0  0  0  0  0  0  0  0  0
  -23.3330  -32.8991   26.9650 C   0  0  0  0  0  0  0  0  0  0  0  0
  -24.4522  -30.5997   20.9749 C   0  0  0  0  0  0  0  0  0  0  0  0
  -23.7290  -27.7563   20.6053 C   0  0  0  0  0  0  0  0  0  0  0  0
  -22.2926  -32.0827   26.2026 C   0  0  0  0  0  0  0  0  0  0  0  0
  -30.7044  -17.4978   23.6349 C   0  0  0  0  0  0  0  0  0  0  0  0
  -22.7440  -30.6315   26.0716 C   0  0  0  0  0  0  0  0  0  0  0  0
  -30.5160  -16.1572   22.9254 C   0  0  0  0  0  0  0  0  0  0  0  0
  -29.4523  -18.3594   23.5176 C   0  0  0  0  0  0  0  0  0  0  0  0
  -28.8258  -17.2707   21.3855 C   0  0  0  0  0  0  0  0  0  0  0  0
  -24.0533  -30.5303   25.2799 C   0  0  1  0  0  0  0  0  0  0  0  0
  -23.2048  -29.9986   21.6151 C   0  0  1  0  0  0  0  0  0  0  0  0
  -30.0688  -16.3620   21.4673 C   0  0  2  0  0  0  0  0  0  0  0  0
  -19.1036  -26.3245   16.1667 C   0  0  0  0  0  0  0  0  0  0  0  0
  -27.4504  -26.2605   15.5040 C   0  0  0  0  0  0  0  0  0  0  0  0
  -29.9264  -26.3708   15.0230 C   0  0  0  0  0  0  0  0  0  0  0  0
  -20.6510  -26.2763   22.6068 C   0  0  0  0  0  0  0  0  0  0  0  0
  -19.6184  -25.1215   20.6399 C   0  0  0  0  0  0  0  0  0  0  0  0
  -18.6989  -27.3025   21.4275 C   0  0  0  0  0  0  0  0  0  0  0  0
  -21.9849  -28.7430   15.5966 C   0  0  0  0  0  0  0  0  0  0  0  0
  -29.4022  -24.2062   16.6915 C   0  0  0  0  0  0  0  0  0  0  0  0
  -30.1318  -26.0949   18.1410 C   0  0  0  0  0  0  0  0  0  0  0  0
  -29.5585  -27.2409   18.9510 C   0  0  0  0  0  0  0  0  0  1  0  0
  -20.9271  -27.2554   20.2337 C   0  0  1  0  0  0  0  0  0  0  0  0
  -20.0866  -27.4228   16.5412 C   0  0  2  0  0  0  0  0  0  0  0  0
  -28.8337  -26.5484   16.0649 C   0  0  0  0  0  0  0  0  0  0  0  0
  -20.0011  -26.4972   21.2263 C   0  0  0  0  0  0  0  0  0  0  0  0
  -28.6177  -14.5022   20.7476 N   0  0  0  0  0  0  0  0  0  0  0  0
  -29.8493  -15.0398   20.7555 N   0  0  0  0  0  0  0  0  0  0  0  0
  -22.7367  -28.7969   20.9215 N   0  0  0  0  0  0  0  0  0  0  0  0
  -29.0574  -18.5262   22.1185 N   0  0  0  0  0  0  0  0  0  0  0  0
  -32.0683  -14.6889   20.0046 N   0  0  0  0  0  0  0  0  0  0  0  0
  -29.8585  -11.0688   18.4529 N   0  0  0  0  0  0  0  0  0  0  0  0
  -23.7991  -30.6729   23.8623 N   0  0  0  0  0  0  0  0  0  0  0  0
  -20.3274  -27.5025   18.9270 N   0  0  0  0  0  0  0  0  0  0  0  0
  -28.1996  -20.0900   20.5048 N   0  0  0  0  0  0  0  0  0  0  0  0
  -20.9820  -27.6695   15.3757 N   0  3  0  0  0  0  0  0  0  0  0  0
  -29.0971  -25.5926   17.2022 N   0  3  1  0  0  0  0  0  0  0  0  0
  -31.9065  -12.0949   18.5619 O   0  0  0  0  0  0  0  0  0  0  0  0
  -23.2422  -28.4586   23.4046 O   0  0  0  0  0  0  0  0  0  0  0  0
  -20.5014  -29.4530   21.0184 O   0  0  0  0  0  0  0  0  0  0  0  0
  -21.9456  -26.3933   17.6907 O   0  0  0  0  0  0  0  0  0  0  0  0
  -30.0008  -20.6241   21.8703 O   0  0  0  0  0  0  0  0  0  0  0  0
  -24.4418   -9.9687   19.1483 O   0  0  0  0  0  0  0  0  0  0  0  0
  -28.4377  -26.7796   19.7043 O   0  0  0  0  0  0  0  0  0  1  0  0
  -21.1196   -8.8713   23.4101 F   0  0  0  0  0  0  0  0  0  0  0  0
  -24.0867   -7.3757   20.0389 F   0  0  0  0  0  0  0  0  0  0  0  0
  1  2  1  0  0  0  0
  1  5  2  0  0  0  0
  2  6  2  0  0  0  0
  3 12  2  0  0  0  0
  3 19  1  0  0  0  0
  4 13  1  0  0  0  0
  4 19  2  0  0  0  0
  5 21  1  0  0  0  0
  6 23  1  0  0  0  0
  7 14  2  0  0  0  0
  7 22  1  0  0  0  0
  8 10  2  0  0  0  0
  8 25  1  0  0  0  0
  9 11  1  0  0  0  0
  9 25  2  0  0  0  0
 10 26  1  0  0  0  0
 11 26  2  0  0  0  0
 12 27  1  0  0  0  0
 13 27  2  0  0  0  0
 14 28  1  0  0  0  0
 15 16  2  0  0  0  0
 15 29  1  0  0  0  0
 16 30  1  0  0  0  0
 17 24  1  0  0  0  0
 17 28  2  0  0  0  0
 18 30  2  0  0  0  0
 18 31  1  0  0  0  0
 19 32  1  0  0  0  0
 20 32  1  0  0  0  0
 20 33  2  0  0  0  0
 20 36  1  0  0  0  0
 21 23  2  0  0  0  0
 21 41  1  0  0  0  0
 22 24  2  0  0  0  0
 22 42  1  0  0  0  0
 23 50  1  0  0  0  0
 24 43  1  0  0  0  0
 25 60  1  0  0  0  0
 26 75  1  0  0  0  0
 27 83  1  0  0  0  0
 28 84  1  0  0  0  0
 29 31  2  0  0  0  0
 29 83  1  0  0  0  0
 30 85  1  0  0  0  0
 31 86  1  0  0  0  0
 32 67  2  0  0  0  0
 33 68  1  0  0  0  0
 33 71  1  0  0  0  0
 34 35  2  0  0  0  0
 35 75  1  0  0  0  0
 36 72  1  0  0  0  0
 36 78  2  0  0  0  0
 37 51  1  0  0  0  0
 37 73  1  0  0  0  0
 37 79  2  0  0  0  0
 38 63  1  0  0  0  0
 38 69  1  0  0  0  0
 38 80  2  0  0  0  0
 39 64  1  0  0  0  0
 39 74  1  0  0  0  0
 39 81  2  0  0  0  0
 40 70  1  0  0  0  0
 40 75  1  0  0  0  0
 40 82  2  0  0  0  0
 41 44  1  0  0  0  0
 42 51  1  0  0  0  0
 43 69  1  0  0  0  0
 44 46  1  0  0  0  0
 45 47  1  0  0  0  0
 45 48  1  0  0  0  0
 46 50  1  0  0  0  0
 47 52  1  0  0  0  0
 48 70  1  0  0  0  0
 49 52  1  0  0  0  0
 49 70  1  0  0  0  0
 50 73  1  0  0  0  0
 51 69  1  0  0  0  0
 52 68  1  0  0  0  0
 53 64  1  0  0  0  0
 54 65  1  0  0  0  0
 55 65  1  0  0  0  0
 56 66  1  0  0  0  0
 57 66  1  0  0  0  0
 58 66  1  0  0  0  0
 59 76  1  0  0  0  0
 60 77  1  0  0  0  0
 61 62  1  0  0  0  0
 61 77  1  0  0  0  0
 62 84  1  0  0  0  0
 63 66  1  0  0  0  0
 63 74  1  0  0  0  0
 64 76  1  0  0  0  0
 65 77  1  0  0  0  0
 67 68  1  0  0  0  0
M  CHG  2  76   1  77   1
M  ISO  4  40 100  62 101  75 100  84 101
M  END
> <Batch ID>
0017

> <Smiles>
C=C[100N:0](c1ccc(CN(C[101CH2:1][101O:1]c2ccc3c(c2)CN(C(=O)C(NC(=O)C(C)NC)C(C)(C)C)C(C(=O)NC2CCCc4ccccc42)C3)C(C)C)cc1)[100C:0](=O)N1CCCC(n2nc(-c3ccc(Oc4ccc(F)cc4F)cc3)c(C(N)=O)c2N)C1

> <Shape>
0.332

> <Color>
0.088

> <Negative vol penalty>
0.000

$$$$

  -OEChem-04042321003D

 85 93  0     1  0  0  0  0  0999 V2000
  -30.7556  -19.6754   18.5105 C   0  0  0  0  0  0  0  0  0  0  0  0
  -30.4713  -18.5423   18.2305 C   0  0  0  0  0  0  0  0  0  0  0  0
  -17.6034  -32.3205   22.8560 C   0  0  0  0  0  0  0  0  0  0  0  0
  -18.8947  -32.6013   22.4211 C   0  0  0  0  0  0  0  0  0  0  0  0
  -31.7434  -21.8312   17.9126 C   0  0  0  0  0  0  0  0  0  0  0  0
  -23.5056  -14.6922   24.6920 C   0  0  0  0  0  0  0  0  0  0  0  0
  -23.0421  -16.1053   22.7879 C   0  0  0  0  0  0  0  0  0  0  0  0
  -17.3381  -31.1249   23.5224 C   0  0  0  0  0  0  0  0  0  0  0  0
  -19.9217  -31.6871   22.6533 C   0  0  0  0  0  0  0  0  0  0  0  0
  -25.9863  -29.2414   19.7282 C   0  0  0  0  0  0  0  0  0  0  0  0
  -32.0734  -23.1464   18.2395 C   0  0  0  0  0  0  0  0  0  0  0  0
  -22.6308  -15.4517   25.4687 C   0  0  0  0  0  0  0  0  0  0  0  0
  -22.1672  -16.8648   23.5647 C   0  0  0  0  0  0  0  0  0  0  0  0
  -27.3270  -29.0302   20.0469 C   0  0  0  0  0  0  0  0  0  0  0  0
  -22.6749  -18.4163   27.0915 C   0  0  0  0  0  0  0  0  0  0  0  0
  -23.0964  -18.7839   28.3693 C   0  0  0  0  0  0  0  0  0  0  0  0
  -30.7743  -21.5294   20.1050 C   0  0  0  0  0  0  0  0  0  0  0  0
  -26.7355  -26.9618   21.1382 C   0  0  0  0  0  0  0  0  0  0  0  0
  -21.2169  -17.6067   29.3279 C   0  0  0  0  0  0  0  0  0  0  0  0
  -31.0938  -21.0227   18.8454 C   0  0  0  0  0  0  0  0  0  0  0  0
  -23.7113  -15.0190   23.3516 C   0  0  0  0  0  0  0  0  0  0  0  0
  -24.3020  -13.0977   21.7808 C   0  0  0  0  0  0  0  0  0  0  0  0
  -18.3604  -30.1912   23.7544 C   0  0  0  0  0  0  0  0  0  0  0  0
  -25.0070  -28.3183   20.1223 C   0  0  0  0  0  0  0  0  0  0  0  0
  -19.6701  -30.4785   23.3246 C   0  0  0  0  0  0  0  0  0  0  0  0
  -25.3833  -27.1623   20.8210 C   0  0  0  0  0  0  0  0  0  0  0  0
  -31.7540  -23.6531   19.4992 C   0  0  0  0  0  0  0  0  0  0  0  0
  -21.9615  -16.5380   24.9051 C   0  0  0  0  0  0  0  0  0  0  0  0
  -27.7014  -27.8917   20.7545 C   0  0  0  0  0  0  0  0  0  0  0  0
  -21.5243  -17.6440   26.9318 C   0  0  0  0  0  0  0  0  0  0  0  0
  -22.3674  -18.3791   29.4875 C   0  0  0  0  0  0  0  0  0  0  0  0
  -31.1044  -22.8446   20.4320 C   0  0  0  0  0  0  0  0  0  0  0  0
  -20.7954  -17.2392   28.0500 C   0  0  0  0  0  0  0  0  0  0  0  0
  -24.6153  -14.2351   22.5489 C   0  0  0  0  0  0  0  0  0  0  0  0
  -25.4965  -12.7266   21.2136 C   0  0  0  0  0  0  0  0  0  0  0  0
  -23.0435  -12.4358   21.5965 C   0  0  0  0  0  0  0  0  0  0  0  0
  -22.4461  -28.4299   22.0020 C   0  0  0  0  0  0  0  0  0  0  0  0
  -21.9797  -25.4190   20.8886 C   0  0  0  0  0  0  0  0  0  0  0  0
  -23.3244  -22.5912   19.5315 C   0  0  0  0  0  0  0  0  0  0  0  0
  -30.4945  -15.7469   19.8907 C   0  0  0  0  0  0  0  0  0  0  0  0
  -18.0348  -28.9337   24.5207 C   0  0  0  0  0  0  0  0  0  0  0  0
  -23.5685  -28.5474   19.7475 C   0  0  0  0  0  0  0  0  0  0  0  0
  -24.3732  -26.1306   21.2495 C   0  0  0  0  0  0  0  0  0  0  0  0
  -19.1034  -27.8506   24.3962 C   0  0  0  0  0  0  0  0  0  0  0  0
  -30.2159  -12.8809   21.9849 C   0  0  0  0  0  0  0  0  0  0  0  0
  -20.4928  -28.4452   24.6032 C   0  0  0  0  0  0  0  0  0  0  0  0
  -28.7207  -12.8003   22.2976 C   0  0  0  0  0  0  0  0  0  0  0  0
  -30.6998  -14.3274   21.9105 C   0  0  0  0  0  0  0  0  0  0  0  0
  -28.4436  -15.1077   21.2984 C   0  0  0  0  0  0  0  0  0  0  0  0
  -20.8057  -29.5009   23.5359 C   0  0  1  0  0  0  0  0  0  0  0  0
  -22.5901  -27.7977   20.6465 C   0  0  1  0  0  0  0  0  0  0  0  0
  -27.8975  -13.6699   21.3283 C   0  0  2  0  0  0  0  0  0  0  0  0
  -22.7004  -20.2837   18.7676 C   0  0  0  0  0  0  0  0  0  0  0  0
  -21.8145  -24.5043   23.7948 C   0  0  0  0  0  0  0  0  0  0  0  0
  -22.1474  -22.1533   23.0008 C   0  0  0  0  0  0  0  0  0  0  0  0
  -20.1406  -23.4422   22.2700 C   0  0  0  0  0  0  0  0  0  0  0  0
  -24.1891  -23.1502   16.7568 C   0  0  0  0  0  0  0  0  0  0  0  0
  -30.1267  -17.1638   17.8867 C   0  0  0  0  0  0  0  0  0  0  0  0
  -32.1104  -25.0682   19.8475 C   0  0  0  0  0  0  0  0  0  0  0  0
  -31.2477  -27.3786   20.2431 C   0  0  0  0  0  0  0  0  0  0  0  0
  -29.9842  -28.2132   20.1700 C   0  0  0  0  0  0  0  0  0  1  0  0
  -22.4086  -24.0392   21.3256 C   0  0  1  0  0  0  0  0  0  0  0  0
  -22.8924  -21.7348   18.3549 C   0  0  2  0  0  0  0  0  0  0  0  0
  -21.6468  -23.5549   22.5916 C   0  0  0  0  0  0  0  0  0  0  0  0
  -25.9077  -14.5648   22.4784 N   0  0  0  0  0  0  0  0  0  0  0  0
  -26.4170  -13.6290   21.6593 N   0  0  0  0  0  0  0  0  0  0  0  0
  -22.9784  -26.4028   20.8649 N   0  0  0  0  0  0  0  0  0  0  0  0
  -29.8785  -15.0974   20.9732 N   0  0  0  0  0  0  0  0  0  0  0  0
  -25.8389  -11.7198   20.3820 N   0  0  0  0  0  0  0  0  0  0  0  0
  -21.9163  -12.9488   22.2526 N   0  0  0  0  0  0  0  0  0  0  0  0
  -21.1659  -28.8652   22.2866 N   0  0  0  0  0  0  0  0  0  0  0  0
  -22.2457  -23.1736   20.1626 N   0  0  0  0  0  0  0  0  0  0  0  0
  -29.6428  -16.4494   19.0470 N   0  0  0  0  0  0  0  0  0  0  0  0
  -23.9173  -21.7843   17.2741 N   0  3  0  0  0  0  0  0  0  0  0  0
  -30.9368  -25.9828   19.8438 N   0  3  0  0  0  0  0  0  0  0  0  0
  -22.9255  -11.4098   20.8845 O   0  0  0  0  0  0  0  0  0  0  0  0
  -23.4238  -28.5149   22.7359 O   0  0  0  0  0  0  0  0  0  0  0  0
  -20.8035  -25.6150   20.5728 O   0  0  0  0  0  0  0  0  0  0  0  0
  -24.5009  -22.7267   19.8602 O   0  0  0  0  0  0  0  0  0  0  0  0
  -31.7125  -15.6994   19.6880 O   0  0  0  0  0  0  0  0  0  0  0  0
  -21.1076  -17.2793   25.6626 O   0  0  0  0  0  0  0  0  0  0  0  0
  -29.0093  -27.6833   21.0674 O   0  0  0  0  0  0  0  0  0  1  0  0
  -22.7732  -18.7308   30.7146 F   0  0  0  0  0  0  0  0  0  0  0  0
  -30.7934  -23.3228   21.6449 F   0  0  0  0  0  0  0  0  0  0  0  0
  -19.6899  -16.4962   27.9030 F   0  0  0  0  0  0  0  0  0  0  0  0
  1  2  3  0  0  0  0
  1 20  1  0  0  0  0
  2 58  1  0  0  0  0
  3  4  1  0  0  0  0
  3  8  2  0  0  0  0
  4  9  2  0  0  0  0
  5 11  2  0  0  0  0
  5 20  1  0  0  0  0
  6 12  2  0  0  0  0
  6 21  1  0  0  0  0
  7 13  1  0  0  0  0
  7 21  2  0  0  0  0
  8 23  1  0  0  0  0
  9 25  1  0  0  0  0
 10 14  2  0  0  0  0
 10 24  1  0  0  0  0
 11 27  1  0  0  0  0
 12 28  1  0  0  0  0
 13 28  2  0  0  0  0
 14 29  1  0  0  0  0
 15 16  2  0  0  0  0
 15 30  1  0  0  0  0
 16 31  1  0  0  0  0
 17 20  2  0  0  0  0
 17 32  1  0  0  0  0
 18 26  1  0  0  0  0
 18 29  2  0  0  0  0
 19 31  2  0  0  0  0
 19 33  1  0  0  0  0
 21 34  1  0  0  0  0
 22 34  1  0  0  0  0
 22 35  2  0  0  0  0
 22 36  1  0  0  0  0
 23 25  2  0  0  0  0
 23 41  1  0  0  0  0
 24 26  2  0  0  0  0
 24 42  1  0  0  0  0
 25 50  1  0  0  0  0
 26 43  1  0  0  0  0
 27 32  2  0  0  0  0
 27 59  1  0  0  0  0
 28 81  1  0  0  0  0
 29 82  1  0  0  0  0
 30 33  2  0  0  0  0
 30 81  1  0  0  0  0
 31 83  1  0  0  0  0
 32 84  1  0  0  0  0
 33 85  1  0  0  0  0
 34 65  2  0  0  0  0
 35 66  1  0  0  0  0
 35 69  1  0  0  0  0
 36 70  1  0  0  0  0
 36 76  2  0  0  0  0
 37 51  1  0  0  0  0
 37 71  1  0  0  0  0
 37 77  2  0  0  0  0
 38 62  1  0  0  0  0
 38 67  1  0  0  0  0
 38 78  2  0  0  0  0
 39 63  1  0  0  0  0
 39 72  1  0  0  0  0
 39 79  2  0  0  0  0
 40 68  1  0  0  0  0
 40 73  1  0  0  0  0
 40 80  2  0  0  0  0
 41 44  1  0  0  0  0
 42 51  1  0  0  0  0
 43 67  1  0  0  0  0
 44 46  1  0  0  0  0
 45 47  1  0  0  0  0
 45 48  1  0  0  0  0
 46 50  1  0  0  0  0
 47 52  1  0  0  0  0
 48 68  1  0  0  0  0
 49 52  1  0  0  0  0
 49 68  1  0  0  0  0
 50 71  1  0  0  0  0
 51 67  1  0  0  0  0
 52 66  1  0  0  0  0
 53 63  1  0  0  0  0
 54 64  1  0  0  0  0
 55 64  1  0  0  0  0
 56 64  1  0  0  0  0
 57 74  1  0  0  0  0
 58 73  1  0  0  0  0
 59 75  1  0  0  0  0
 60 61  1  0  0  0  0
 60 75  1  0  0  0  0
 61 82  1  0  0  0  0
 62 64  1  0  0  0  0
 62 72  1  0  0  0  0
 63 74  1  0  0  0  0
 65 66  1  0  0  0  0
M  CHG  2  74   1  75   1
M  ISO  4  40 100  61 101  73 100  82 101
M  END
> <Batch ID>
0017

> <Smiles>
CNC(C)C(=O)NC(C(=O)N1Cc2cc([101O:1][101CH2:1]CNCc3ccc(C#CC[100NH:0][100C:0](=O)N4CCCC(n5nc(-c6ccc(Oc7ccc(F)cc7F)cc6)c(C(N)=O)c5N)C4)cc3F)ccc2CC1C(=O)NC1CCCc2ccccc21)C(C)(C)C

> <Shape>
0.195

> <Color>
0.090

> <Negative vol penalty>
0.000

$$$$
