
  -OEChem-04042321033D

 84 92  0     1  0  0  0  0  0999 V2000
  -31.4236  -25.3022   17.9806 C   0  0  0  0  0  0  0  0  0  0  0  0
  -30.0554  -25.0846   18.1076 C   0  0  0  0  0  0  0  0  0  0  0  0
  -27.6019  -14.9096   19.6827 C   0  0  0  0  0  0  0  0  0  0  0  0
  -25.2173  -15.2028   19.4290 C   0  0  0  0  0  0  0  0  0  0  0  0
  -32.1076  -26.0220   18.9593 C   0  0  0  0  0  0  0  0  0  0  0  0
  -29.3706  -25.5858   19.2140 C   0  0  0  0  0  0  0  0  0  0  0  0
  -23.6239  -27.6992   19.3395 C   0  0  0  0  0  0  0  0  0  0  0  0
  -20.2889  -22.4991   21.9390 C   0  0  0  0  0  0  0  0  0  0  0  0
  -21.5442  -22.1818   21.4200 C   0  0  0  0  0  0  0  0  0  0  0  0
  -27.3979  -13.5855   20.0709 C   0  0  0  0  0  0  0  0  0  0  0  0
  -25.0132  -13.8787   19.8171 C   0  0  0  0  0  0  0  0  0  0  0  0
  -22.4178  -27.1148   19.7235 C   0  0  0  0  0  0  0  0  0  0  0  0
  -24.9422  -12.1095   22.6974 C   0  0  0  0  0  0  0  0  0  0  0  0
  -23.9289  -11.8538   23.6211 C   0  0  0  0  0  0  0  0  0  0  0  0
  -22.6385  -28.1101   21.9097 C   0  0  0  0  0  0  0  0  0  0  0  0
  -22.5923  -23.5189   23.1378 C   0  0  0  0  0  0  0  0  0  0  0  0
  -22.8248  -10.4263   22.0148 C   0  0  0  0  0  0  0  0  0  0  0  0
  -26.5116  -15.7183   19.3618 C   0  0  0  0  0  0  0  0  0  0  0  0
  -26.9200  -17.5684   17.6536 C   0  0  0  0  0  0  0  0  0  0  0  0
  -31.4290  -26.5406   20.0735 C   0  0  0  0  0  0  0  0  0  0  0  0
  -24.3531  -28.4858   20.2427 C   0  0  0  0  0  0  0  0  0  0  0  0
  -30.0464  -26.3121   20.2093 C   0  0  0  0  0  0  0  0  0  0  0  0
  -23.8524  -28.7055   21.5339 C   0  0  0  0  0  0  0  0  0  0  0  0
  -20.1854  -23.3264   23.0573 C   0  0  0  0  0  0  0  0  0  0  0  0
  -22.6959  -22.6917   22.0194 C   0  0  0  0  0  0  0  0  0  0  0  0
  -26.1035  -13.0700   20.1381 C   0  0  0  0  0  0  0  0  0  0  0  0
  -21.9263  -27.3178   21.0097 C   0  0  0  0  0  0  0  0  0  0  0  0
  -24.8968  -11.5237   21.4323 C   0  0  0  0  0  0  0  0  0  0  0  0
  -22.8702  -11.0122   23.2799 C   0  0  0  0  0  0  0  0  0  0  0  0
  -21.3370  -23.8363   23.6567 C   0  0  0  0  0  0  0  0  0  0  0  0
  -23.8381  -10.6820   21.0910 C   0  0  0  0  0  0  0  0  0  0  0  0
  -26.7217  -17.0864   18.9613 C   0  0  0  0  0  0  0  0  0  0  0  0
  -27.0696  -18.9251   17.8068 C   0  0  0  0  0  0  0  0  0  0  0  0
  -26.9647  -16.8538   16.4115 C   0  0  0  0  0  0  0  0  0  0  0  0
  -27.2372  -28.2928   21.5650 C   0  0  0  0  0  0  0  0  0  0  0  0
  -26.4726  -31.2233   22.7271 C   0  0  0  0  0  0  0  0  0  0  0  0
  -24.0370  -33.4516   23.5926 C   0  0  0  0  0  0  0  0  0  0  0  0
  -25.2124  -22.7931   21.9655 C   0  0  0  0  0  0  0  0  0  0  0  0
  -32.2197  -27.2719   21.1293 C   0  0  0  0  0  0  0  0  0  0  0  0
  -25.6392  -29.1311   19.8045 C   0  0  0  0  0  0  0  0  0  0  0  0
  -24.5868  -29.5583   22.5348 C   0  0  0  0  0  0  0  0  0  0  0  0
  -31.3522  -28.0903   22.0822 C   0  0  0  0  0  0  0  0  0  0  0  0
  -28.5768  -22.1933   20.9662 C   0  0  0  0  0  0  0  0  0  0  0  0
  -30.1598  -27.2670   22.5590 C   0  0  0  0  0  0  0  0  0  0  0  0
  -28.4999  -20.8625   20.2144 C   0  0  0  0  0  0  0  0  0  0  0  0
  -27.6240  -22.2261   22.1599 C   0  0  0  0  0  0  0  0  0  0  0  0
  -26.1513  -20.5612   21.0978 C   0  0  0  0  0  0  0  0  0  0  0  0
  -29.2639  -26.8611   21.3825 C   0  0  1  0  0  0  0  0  0  0  0  0
  -26.5543  -29.4920   20.9705 C   0  0  1  0  0  0  0  0  0  0  0  0
  -27.0459  -20.5050   19.8487 C   0  0  2  0  0  0  0  0  0  0  0  0
  -23.7193  -35.7498   24.5490 C   0  0  0  0  0  0  0  0  0  0  0  0
  -27.1315  -30.1544   25.5080 C   0  0  0  0  0  0  0  0  0  0  0  0
  -25.9157  -32.1180   26.4746 C   0  0  0  0  0  0  0  0  0  0  0  0
  -27.9417  -32.4785   25.0647 C   0  0  0  0  0  0  0  0  0  0  0  0
  -22.6667  -34.4053   21.1489 C   0  0  0  0  0  0  0  0  0  0  0  0
  -17.5366  -25.5063   24.6734 C   0  0  0  0  0  0  0  0  0  0  0  0
  -18.8333  -23.6636   23.6135 C   0  0  0  0  0  0  0  0  0  0  0  0
  -18.5027  -27.1272   22.1361 C   0  0  0  0  0  0  0  0  0  0  0  0
  -18.1654  -25.6497   22.2680 C   0  0  0  0  0  0  0  0  0  0  0  0
  -19.9758  -27.4426   22.3646 C   0  0  0  0  0  0  0  0  0  1  0  0
  -25.7871  -31.7345   23.9711 C   0  0  1  0  0  0  0  0  0  0  0  0
  -23.8634  -34.9266   23.2785 C   0  0  2  0  0  0  0  0  0  0  0  0
  -26.6809  -31.6037   25.2366 C   0  0  0  0  0  0  0  0  0  0  0  0
  -26.7432  -18.0578   19.8778 N   0  0  0  0  0  0  0  0  0  0  0  0
  -26.9567  -19.1639   19.1449 N   0  0  0  0  0  0  0  0  0  0  0  0
  -25.8429  -30.1624   22.0608 N   0  0  0  0  0  0  0  0  0  0  0  0
  -26.2649  -21.8816   21.7369 N   0  0  0  0  0  0  0  0  0  0  0  0
  -27.2855  -19.9252   16.9261 N   0  0  0  0  0  0  0  0  0  0  0  0
  -26.7921  -15.4631   16.4341 N   0  0  0  0  0  0  0  0  0  0  0  0
  -23.9709  -22.3710   21.4911 N   0  0  0  0  0  0  0  0  0  0  0  0
  -28.4412  -27.9763   20.9654 N   0  0  0  0  0  0  0  0  0  0  0  0
  -25.3678  -33.0999   23.6743 N   0  0  0  0  0  0  0  0  0  0  0  0
  -22.6491  -35.1384   22.4409 N   0  3  0  0  0  0  0  0  0  0  0  0
  -18.5446  -25.1456   23.6088 N   0  3  1  0  0  0  0  0  0  0  0  0
  -27.1686  -17.4293   15.3157 O   0  0  0  0  0  0  0  0  0  0  0  0
  -26.7114  -27.6996   22.4996 O   0  0  0  0  0  0  0  0  0  0  0  0
  -27.5242  -31.7506   22.3560 O   0  0  0  0  0  0  0  0  0  0  0  0
  -23.0871  -32.6885   23.7535 O   0  0  0  0  0  0  0  0  0  0  0  0
  -25.4038  -23.8807   22.5155 O   0  0  0  0  0  0  0  0  0  0  0  0
  -25.9040  -11.7779   20.5166 O   0  0  0  0  0  0  0  0  0  0  0  0
  -20.7496  -26.7481   21.3873 O   0  0  0  0  0  0  0  0  0  1  0  0
  -21.8979  -10.7655   24.1676 F   0  0  0  0  0  0  0  0  0  0  0  0
  -21.2477  -24.6318   24.7316 F   0  0  0  0  0  0  0  0  0  0  0  0
  -23.7897  -10.1154   19.8776 F   0  0  0  0  0  0  0  0  0  0  0  0
  1  2  1  0  0  0  0
  1  5  2  0  0  0  0
  2  6  2  0  0  0  0
  3 10  2  0  0  0  0
  3 18  1  0  0  0  0
  4 11  1  0  0  0  0
  4 18  2  0  0  0  0
  5 20  1  0  0  0  0
  6 22  1  0  0  0  0
  7 12  2  0  0  0  0
  7 21  1  0  0  0  0
  8  9  2  0  0  0  0
  8 24  1  0  0  0  0
  9 25  1  0  0  0  0
 10 26  1  0  0  0  0
 11 26  2  0  0  0  0
 12 27  1  0  0  0  0
 13 14  2  0  0  0  0
 13 28  1  0  0  0  0
 14 29  1  0  0  0  0
 15 23  1  0  0  0  0
 15 27  2  0  0  0  0
 16 25  2  0  0  0  0
 16 30  1  0  0  0  0
 17 29  2  0  0  0  0
 17 31  1  0  0  0  0
 18 32  1  0  0  0  0
 19 32  1  0  0  0  0
 19 33  2  0  0  0  0
 19 34  1  0  0  0  0
 20 22  2  0  0  0  0
 20 39  1  0  0  0  0
 21 23  2  0  0  0  0
 21 40  1  0  0  0  0
 22 48  1  0  0  0  0
 23 41  1  0  0  0  0
 24 30  2  0  0  0  0
 24 57  1  0  0  0  0
 25 70  1  0  0  0  0
 26 80  1  0  0  0  0
 27 81  1  0  0  0  0
 28 31  2  0  0  0  0
 28 80  1  0  0  0  0
 29 82  1  0  0  0  0
 30 83  1  0  0  0  0
 31 84  1  0  0  0  0
 32 64  2  0  0  0  0
 33 65  1  0  0  0  0
 33 68  1  0  0  0  0
 34 69  1  0  0  0  0
 34 75  2  0  0  0  0
 35 49  1  0  0  0  0
 35 71  1  0  0  0  0
 35 76  2  0  0  0  0
 36 61  1  0  0  0  0
 36 66  1  0  0  0  0
 36 77  2  0  0  0  0
 37 62  1  0  0  0  0
 37 72  1  0  0  0  0
 37 78  2  0  0  0  0
 38 67  1  0  0  0  0
 38 70  1  0  0  0  0
 38 79  2  0  0  0  0
 39 42  1  0  0  0  0
 40 49  1  0  0  0  0
 41 66  1  0  0  0  0
 42 44  1  0  0  0  0
 43 45  1  0  0  0  0
 43 46  1  0  0  0  0
 44 48  1  0  0  0  0
 45 50  1  0  0  0  0
 46 67  1  0  0  0  0
 47 50  1  0  0  0  0
 47 67  1  0  0  0  0
 48 71  1  0  0  0  0
 49 66  1  0  0  0  0
 50 65  1  0  0  0  0
 51 62  1  0  0  0  0
 52 63  1  0  0  0  0
 53 63  1  0  0  0  0
 54 63  1  0  0  0  0
 55 73  1  0  0  0  0
 56 74  1  0  0  0  0
 57 74  1  0  0  0  0
 58 59  1  0  0  0  0
 58 60  1  0  0  0  0
 59 74  1  0  0  0  0
 60 81  1  0  0  0  0
 61 63  1  0  0  0  0
 61 72  1  0  0  0  0
 62 73  1  0  0  0  0
 64 65  1  0  0  0  0
M  CHG  2  73   1  74   1
M  ISO  4  38 100  60 101  70 100  81 101
M  END
> <Batch ID>
0018

> <Smiles>
CNC(C)C(=O)NC(C(=O)N1Cc2cc([101O:1][101CH2:1]CCN(C)Cc3ccc([100NH:0][100C:0](=O)N4CCCC(n5nc(-c6ccc(Oc7ccc(F)cc7F)cc6)c(C(N)=O)c5N)C4)cc3F)ccc2CC1C(=O)NC1CCCc2ccccc21)C(C)(C)C

> <Shape>
0.275

> <Color>
0.062

> <Negative vol penalty>
0.000

$$$$

  -OEChem-04042321033D

 83 91  0     1  0  0  0  0  0999 V2000
  -21.7056   -8.2790   24.5864 C   0  0  0  0  0  0  0  0  0  0  0  0
  -23.0074   -8.7022   24.8346 C   0  0  0  0  0  0  0  0  0  0  0  0
  -22.4182  -25.5337   22.0134 C   0  0  0  0  0  0  0  0  0  0  0  0
  -21.8174  -27.4492   20.6691 C   0  0  0  0  0  0  0  0  0  0  0  0
  -21.1534   -8.4350   23.3157 C   0  0  0  0  0  0  0  0  0  0  0  0
  -23.7581   -9.2808   23.8118 C   0  0  0  0  0  0  0  0  0  0  0  0
  -28.8247  -14.2251   22.7164 C   0  0  0  0  0  0  0  0  0  0  0  0
  -31.2215  -19.4270   18.2656 C   0  0  0  0  0  0  0  0  0  0  0  0
  -30.4969  -20.5314   17.8175 C   0  0  0  0  0  0  0  0  0  0  0  0
  -21.7187  -26.0722   23.0934 C   0  0  0  0  0  0  0  0  0  0  0  0
  -21.1179  -27.9877   21.7491 C   0  0  0  0  0  0  0  0  0  0  0  0
  -30.0700  -14.3747   22.1076 C   0  0  0  0  0  0  0  0  0  0  0  0
  -18.8718  -29.6954   24.0420 C   0  0  0  0  0  0  0  0  0  0  0  0
  -17.6063  -30.2275   23.7955 C   0  0  0  0  0  0  0  0  0  0  0  0
  -28.9847  -14.6657   19.9729 C   0  0  0  0  0  0  0  0  0  0  0  0
  -30.8354  -20.1019   20.5531 C   0  0  0  0  0  0  0  0  0  0  0  0
  -16.8547  -28.0727   23.0025 C   0  0  0  0  0  0  0  0  0  0  0  0
  -22.4676  -26.2223   20.8013 C   0  0  0  0  0  0  0  0  0  0  0  0
  -22.6875  -24.8096   18.6886 C   0  0  0  0  0  0  0  0  0  0  0  0
  -21.8944   -9.0246   22.2794 C   0  0  0  0  0  0  0  0  0  0  0  0
  -27.6486  -14.2840   21.9550 C   0  0  0  0  0  0  0  0  0  0  0  0
  -23.2158   -9.4436   22.5257 C   0  0  0  0  0  0  0  0  0  0  0  0
  -27.7257  -14.5192   20.5748 C   0  0  0  0  0  0  0  0  0  0  0  0
  -30.1108  -21.2063   20.1050 C   0  0  0  0  0  0  0  0  0  0  0  0
  -31.3907  -19.2122   19.6334 C   0  0  0  0  0  0  0  0  0  0  0  0
  -29.9416  -21.4211   18.7371 C   0  0  0  0  0  0  0  0  0  0  0  0
  -21.0685  -27.2992   22.9612 C   0  0  0  0  0  0  0  0  0  0  0  0
  -30.1503  -14.5921   20.7352 C   0  0  0  0  0  0  0  0  0  0  0  0
  -19.1289  -28.3519   23.7687 C   0  0  0  0  0  0  0  0  0  0  0  0
  -16.5977  -29.4162   23.2757 C   0  0  0  0  0  0  0  0  0  0  0  0
  -18.1203  -27.5405   23.2490 C   0  0  0  0  0  0  0  0  0  0  0  0
  -23.1905  -25.6668   19.6855 C   0  0  0  0  0  0  0  0  0  0  0  0
  -23.7619  -24.5709   17.8668 C   0  0  0  0  0  0  0  0  0  0  0  0
  -21.3671  -24.2768   18.5203 C   0  0  0  0  0  0  0  0  0  0  0  0
  -25.2853  -12.2561   21.3175 C   0  0  0  0  0  0  0  0  0  0  0  0
  -23.9833  -14.8420   19.8544 C   0  0  0  0  0  0  0  0  0  0  0  0
  -24.4642  -17.8666   18.3487 C   0  0  0  0  0  0  0  0  0  0  0  0
  -29.5895  -23.8783   18.5547 C   0  0  0  0  0  0  0  0  0  0  0  0
  -21.2712   -9.1290   20.9099 C   0  0  0  0  0  0  0  0  0  0  0  0
  -26.3118  -14.1474   22.6309 C   0  0  0  0  0  0  0  0  0  0  0  0
  -26.4919  -14.6110   19.7159 C   0  0  0  0  0  0  0  0  0  0  0  0
  -22.0030  -10.0931   19.9797 C   0  0  0  0  0  0  0  0  0  0  0  0
  -28.0546  -26.8359   16.9714 C   0  0  0  0  0  0  0  0  0  0  0  0
  -23.5080   -9.8512   20.0369 C   0  0  0  0  0  0  0  0  0  0  0  0
  -26.6138  -26.7834   17.4768 C   0  0  0  0  0  0  0  0  0  0  0  0
  -29.0287  -26.2195   17.9710 C   0  0  0  0  0  0  0  0  0  0  0  0
  -27.2346  -24.7746   18.8785 C   0  0  0  0  0  0  0  0  0  0  0  0
  -24.0532  -10.0984   21.4487 C   0  0  1  0  0  0  0  0  0  0  0  0
  -25.2023  -13.7123   21.6785 C   0  0  1  0  0  0  0  0  0  0  0  0
  -26.2238  -25.3493   17.8745 C   0  0  1  0  0  0  0  0  0  0  0  0
  -29.5259  -22.1421   21.1125 C   0  0  0  0  0  0  0  0  0  0  0  0
  -23.2132  -19.7262   17.2199 C   0  0  0  0  0  0  0  0  0  0  0  0
  -23.6876  -13.1211   17.3522 C   0  0  0  0  0  0  0  0  0  0  0  0
  -23.3447  -15.2212   16.0331 C   0  0  0  0  0  0  0  0  0  0  0  0
  -21.7332  -14.6050   17.8347 C   0  0  0  0  0  0  0  0  0  0  0  0
  -28.1564  -22.3324   17.2407 C   0  0  0  0  0  0  0  0  0  0  0  0
  -25.3421  -19.8408   20.3713 C   0  0  0  0  0  0  0  0  0  0  0  0
  -33.3814  -16.0311   20.0017 C   0  0  0  0  0  0  0  0  0  0  0  0
  -32.7178  -17.1442   19.1998 C   0  0  0  0  0  0  0  0  0  0  0  0
  -32.4115  -15.3039   20.9256 C   0  0  0  0  0  0  0  0  0  1  0  0
  -24.0408  -15.4249   18.4631 C   0  0  1  0  0  0  0  0  0  0  0  0
  -23.7733  -19.2055   18.5344 C   0  0  2  0  0  0  0  0  0  0  0  0
  -23.2251  -14.5894   17.4364 C   0  0  0  0  0  0  0  0  0  0  0  0
  -24.4839  -25.9532   19.5147 N   0  0  0  0  0  0  0  0  0  0  0  0
  -24.8027  -25.2721   18.4010 N   0  0  0  0  0  0  0  0  0  0  0  0
  -25.2085  -14.4647   20.4223 N   0  0  0  0  0  0  0  0  0  0  0  0
  -28.6102  -24.8743   18.3671 N   0  0  0  0  0  0  0  0  0  0  0  0
  -23.9084  -23.8317   16.7468 N   0  0  0  0  0  0  0  0  0  0  0  0
  -20.3825  -24.6234   19.4556 N   0  0  0  0  0  0  0  0  0  0  0  0
  -32.1103  -18.1142   20.0786 N   0  0  0  0  0  0  0  0  0  0  0  0
  -24.1814  -11.5180   21.6996 N   0  0  0  0  0  0  0  0  0  0  0  0
  -23.6069  -16.8125   18.5835 N   0  0  0  0  0  0  0  0  0  0  0  0
  -29.1936  -22.5572   18.2530 N   0  0  0  0  0  0  0  0  0  0  0  0
  -24.7321  -20.2134   19.0690 N   0  3  0  0  0  0  0  0  0  0  0  0
  -21.0733  -23.5027   17.5779 O   0  0  0  0  0  0  0  0  0  0  0  0
  -26.2767  -11.8338   20.7340 O   0  0  0  0  0  0  0  0  0  0  0  0
  -22.8923  -14.7323   20.4195 O   0  0  0  0  0  0  0  0  0  0  0  0
  -25.6453  -17.7659   18.0238 O   0  0  0  0  0  0  0  0  0  0  0  0
  -30.7347  -24.1523   18.9328 O   0  0  0  0  0  0  0  0  0  0  0  0
  -20.3856  -27.8248   24.0147 O   0  0  0  0  0  0  0  0  0  0  0  0
  -31.3646  -14.7377   20.1383 O   0  0  0  0  0  0  0  0  0  1  0  0
  -15.3820  -29.9270   23.0405 F   0  0  0  0  0  0  0  0  0  0  0  0
  -18.3609  -26.2488   22.9855 F   0  0  0  0  0  0  0  0  0  0  0  0
  1  2  1  0  0  0  0
  1  5  2  0  0  0  0
  2  6  2  0  0  0  0
  3 10  2  0  0  0  0
  3 18  1  0  0  0  0
  4 11  1  0  0  0  0
  4 18  2  0  0  0  0
  5 20  1  0  0  0  0
  6 22  1  0  0  0  0
  7 12  2  0  0  0  0
  7 21  1  0  0  0  0
  8  9  2  0  0  0  0
  8 25  1  0  0  0  0
  9 26  1  0  0  0  0
 10 27  1  0  0  0  0
 11 27  2  0  0  0  0
 12 28  1  0  0  0  0
 13 14  2  0  0  0  0
 13 29  1  0  0  0  0
 14 30  1  0  0  0  0
 15 23  1  0  0  0  0
 15 28  2  0  0  0  0
 16 24  1  0  0  0  0
 16 25  2  0  0  0  0
 17 30  2  0  0  0  0
 17 31  1  0  0  0  0
 18 32  1  0  0  0  0
 19 32  1  0  0  0  0
 19 33  2  0  0  0  0
 19 34  1  0  0  0  0
 20 22  2  0  0  0  0
 20 39  1  0  0  0  0
 21 23  2  0  0  0  0
 21 40  1  0  0  0  0
 22 48  1  0  0  0  0
 23 41  1  0  0  0  0
 24 26  2  0  0  0  0
 24 51  1  0  0  0  0
 25 70  1  0  0  0  0
 26 73  1  0  0  0  0
 27 80  1  0  0  0  0
 28 81  1  0  0  0  0
 29 31  2  0  0  0  0
 29 80  1  0  0  0  0
 30 82  1  0  0  0  0
 31 83  1  0  0  0  0
 32 64  2  0  0  0  0
 33 65  1  0  0  0  0
 33 68  1  0  0  0  0
 34 69  1  0  0  0  0
 34 75  2  0  0  0  0
 35 49  1  0  0  0  0
 35 71  1  0  0  0  0
 35 76  2  0  0  0  0
 36 61  1  0  0  0  0
 36 66  1  0  0  0  0
 36 77  2  0  0  0  0
 37 62  1  0  0  0  0
 37 72  1  0  0  0  0
 37 78  2  0  0  0  0
 38 67  1  0  0  0  0
 38 73  1  0  0  0  0
 38 79  2  0  0  0  0
 39 42  1  0  0  0  0
 40 49  1  0  0  0  0
 41 66  1  0  0  0  0
 42 44  1  0  0  0  0
 43 45  1  0  0  0  0
 43 46  1  0  0  0  0
 44 48  1  0  0  0  0
 45 50  1  0  0  0  0
 46 67  1  0  0  0  0
 47 50  1  0  0  0  0
 47 67  1  0  0  0  0
 48 71  1  0  0  0  0
 49 66  1  0  0  0  0
 50 65  1  0  0  0  0
 52 62  1  0  0  0  0
 53 63  1  0  0  0  0
 54 63  1  0  0  0  0
 55 63  1  0  0  0  0
 56 73  1  0  0  0  0
 57 74  1  0  0  0  0
 58 59  1  0  0  0  0
 58 60  1  0  0  0  0
 59 70  1  0  0  0  0
 60 81  1  0  0  0  0
 61 63  1  0  0  0  0
 61 72  1  0  0  0  0
 62 74  1  0  0  0  0
 64 65  1  0  0  0  0
M  CHG  1  74   1
M  ISO  4  38 100  60 101  73 100  81 101
M  END
> <Batch ID>
0018

> <Smiles>
CNC(C)C(=O)NC(C(=O)N1Cc2cc([101O:1][101CH2:1]CCNc3ccc([100N:0](C)[100C:0](=O)N4CCCC(n5nc(-c6ccc(Oc7ccc(F)cc7F)cc6)c(C(N)=O)c5N)C4)c(C)c3)ccc2CC1C(=O)NC1CCCc2ccccc21)C(C)(C)C

> <Shape>
0.220

> <Color>
0.081

> <Negative vol penalty>
0.000

$$$$

  -OEChem-04042321033D

 85 94  0     1  0  0  0  0  0999 V2000
  -24.2478  -33.1395   21.8739 C   0  0  0  0  0  0  0  0  0  0  0  0
  -24.7204  -31.8312   21.8943 C   0  0  0  0  0  0  0  0  0  0  0  0
  -23.3297  -16.2047   22.6296 C   0  0  0  0  0  0  0  0  0  0  0  0
  -22.3996  -16.0678   20.4040 C   0  0  0  0  0  0  0  0  0  0  0  0
  -22.9777  -33.4285   22.3712 C   0  0  0  0  0  0  0  0  0  0  0  0
  -23.9235  -30.8112   22.4130 C   0  0  0  0  0  0  0  0  0  0  0  0
  -23.9229  -26.6720   19.4954 C   0  0  0  0  0  0  0  0  0  0  0  0
  -29.8399  -19.3454   20.6228 C   0  0  0  0  0  0  0  0  0  0  0  0
  -30.3460  -18.0473   20.5581 C   0  0  0  0  0  0  0  0  0  0  0  0
  -22.3581  -17.1428   22.9780 C   0  0  0  0  0  0  0  0  0  0  0  0
  -21.4279  -17.0059   20.7524 C   0  0  0  0  0  0  0  0  0  0  0  0
  -25.0349  -25.8351   19.5774 C   0  0  0  0  0  0  0  0  0  0  0  0
  -19.9022  -19.3047   24.5622 C   0  0  0  0  0  0  0  0  0  0  0  0
  -19.2591  -19.1469   25.7898 C   0  0  0  0  0  0  0  0  0  0  0  0
  -23.8071  -24.3567   21.0355 C   0  0  0  0  0  0  0  0  0  0  0  0
  -29.0804  -18.9369   22.8797 C   0  0  0  0  0  0  0  0  0  0  0  0
  -18.4499  -16.9815   25.0876 C   0  0  0  0  0  0  0  0  0  0  0  0
  -23.3505  -15.6672   21.3426 C   0  0  0  0  0  0  0  0  0  0  0  0
  -24.2676  -13.2987   21.1040 C   0  0  0  0  0  0  0  0  0  0  0  0
  -22.1610  -32.4100   22.8873 C   0  0  0  0  0  0  0  0  0  0  0  0
  -22.7462  -26.3627   20.1927 C   0  0  0  0  0  0  0  0  0  0  0  0
  -22.6418  -31.0870   22.9188 C   0  0  0  0  0  0  0  0  0  0  0  0
  -22.6807  -25.1900   20.9586 C   0  0  0  0  0  0  0  0  0  0  0  0
  -29.2071  -19.7903   21.7836 C   0  0  0  0  0  0  0  0  0  0  0  0
  -30.2193  -17.1939   21.6542 C   0  0  0  0  0  0  0  0  0  0  0  0
  -21.4072  -17.5434   22.0395 C   0  0  0  0  0  0  0  0  0  0  0  0
  -24.9781  -24.6787   20.3498 C   0  0  0  0  0  0  0  0  0  0  0  0
  -19.8191  -18.3009   23.5972 C   0  0  0  0  0  0  0  0  0  0  0  0
  -18.5330  -17.9853   26.0525 C   0  0  0  0  0  0  0  0  0  0  0  0
  -29.5865  -17.6387   22.8150 C   0  0  0  0  0  0  0  0  0  0  0  0
  -19.0930  -17.1393   23.8599 C   0  0  0  0  0  0  0  0  0  0  0  0
  -24.3543  -14.6984   20.9819 C   0  0  0  0  0  0  0  0  0  0  0  0
  -25.4707  -12.8373   20.6286 C   0  0  0  0  0  0  0  0  0  0  0  0
  -28.0607  -21.7384   22.8375 C   0  0  0  0  0  0  0  0  0  0  0  0
  -23.1952  -12.4879   21.6025 C   0  0  0  0  0  0  0  0  0  0  0  0
  -21.0667  -27.7716   22.4945 C   0  0  0  0  0  0  0  0  0  0  0  0
  -18.9814  -25.3553   21.9157 C   0  0  0  0  0  0  0  0  0  0  0  0
  -18.4624  -22.1983   20.7280 C   0  0  0  0  0  0  0  0  0  0  0  0
  -30.8077  -15.1527   20.3586 C   0  0  0  0  0  0  0  0  0  0  0  0
  -20.8140  -32.7783   23.4570 C   0  0  0  0  0  0  0  0  0  0  0  0
  -21.5466  -27.2620   20.0725 C   0  0  0  0  0  0  0  0  0  0  0  0
  -21.4344  -24.8024   21.7103 C   0  0  0  0  0  0  0  0  0  0  0  0
  -19.8847  -31.5820   23.6456 C   0  0  0  0  0  0  0  0  0  0  0  0
  -28.9679  -13.9407   17.5676 C   0  0  0  0  0  0  0  0  0  0  0  0
  -20.6266  -30.4303   24.3165 C   0  0  0  0  0  0  0  0  0  0  0  0
  -27.5538  -13.8718   18.1431 C   0  0  0  0  0  0  0  0  0  0  0  0
  -29.7242  -15.1775   18.0538 C   0  0  0  0  0  0  0  0  0  0  0  0
  -28.4504  -22.0458   20.7951 C   0  0  0  0  0  0  0  0  0  0  0  0
  -28.3396  -15.2541   20.1035 C   0  0  0  0  0  0  0  0  0  0  0  0
  -21.7973  -29.9494   23.4506 C   0  0  1  0  0  0  0  0  0  0  0  0
  -27.7099  -22.8868   21.8661 C   0  0  1  0  0  0  0  0  0  0  0  0
  -20.5713  -27.1161   21.2365 C   0  0  1  0  0  0  0  0  0  0  0  0
  -27.5756  -13.9907   19.6773 C   0  0  1  0  0  0  0  0  0  0  0  0
  -16.6589  -20.4803   20.4223 C   0  0  0  0  0  0  0  0  0  0  0  0
  -19.0880  -24.7164   24.8974 C   0  0  0  0  0  0  0  0  0  0  0  0
  -18.0689  -22.4876   24.3852 C   0  0  0  0  0  0  0  0  0  0  0  0
  -16.8066  -24.5796   23.8821 C   0  0  0  0  0  0  0  0  0  0  0  0
  -31.4347  -15.3066   22.7583 C   0  0  0  0  0  0  0  0  0  0  0  0
  -18.8112  -22.1862   17.7891 C   0  0  0  0  0  0  0  0  0  0  0  0
  -26.2288  -23.1227   21.6422 C   0  0  0  0  0  0  0  0  0  1  0  0
  -18.7929  -23.9552   22.4479 C   0  0  1  0  0  0  0  0  0  0  0  0
  -17.4137  -21.6365   19.7850 C   0  0  2  0  0  0  0  0  0  0  0  0
  -18.2134  -23.9427   23.8907 C   0  0  0  0  0  0  0  0  0  0  0  0
  -25.5205  -15.1000   20.4693 N   0  0  0  0  0  0  0  0  0  0  0  0
  -26.1776  -13.9456   20.2651 N   0  0  0  0  0  0  0  0  0  0  0  0
  -28.7071  -21.0709   21.8474 N   0  0  0  0  0  0  0  0  0  0  0  0
  -20.2900  -25.7173   21.5662 N   0  0  0  0  0  0  0  0  0  0  0  0
  -29.6832  -15.2704   19.5200 N   0  0  0  0  0  0  0  0  0  0  0  0
  -25.9824  -11.5958   20.4903 N   0  0  0  0  0  0  0  0  0  0  0  0
  -22.0297  -13.1239   22.0514 N   0  0  0  0  0  0  0  0  0  0  0  0
  -21.3162  -29.1244   22.3633 N   0  0  0  0  0  0  0  0  0  0  0  0
  -17.9714  -23.2531   21.4679 N   0  0  0  0  0  0  0  0  0  0  0  0
  -30.7439  -15.8503   21.5840 N   0  0  0  0  0  0  0  0  0  0  0  0
  -18.0536  -21.1461   18.5317 N   0  3  0  0  0  0  0  0  0  0  0  0
  -27.8364  -21.4794   23.9980 O   0  0  0  0  0  0  0  0  0  0  0  0
  -23.2748  -11.2376   21.6639 O   0  0  0  0  0  0  0  0  0  0  0  0
  -21.2105  -27.1001   23.5094 O   0  0  0  0  0  0  0  0  0  0  0  0
  -18.0024  -26.0979   21.8071 O   0  0  0  0  0  0  0  0  0  0  0  0
  -19.6020  -21.7442   20.8035 O   0  0  0  0  0  0  0  0  0  0  0  0
  -31.7824  -14.4572   20.0486 O   0  0  0  0  0  0  0  0  0  0  0  0
  -20.4588  -18.4587   22.3792 O   0  0  0  0  0  0  0  0  0  0  0  0
  -26.0622  -23.8604   20.4321 O   0  0  0  0  0  0  0  0  0  1  0  0
  -17.9167  -17.8333   27.2321 F   0  0  0  0  0  0  0  0  0  0  0  0
  -29.4577  -16.8267   23.8741 F   0  0  0  0  0  0  0  0  0  0  0  0
  -19.0106  -16.1709   22.9372 F   0  0  0  0  0  0  0  0  0  0  0  0
  1  2  1  0  0  0  0
  1  5  2  0  0  0  0
  2  6  2  0  0  0  0
  3 10  2  0  0  0  0
  3 18  1  0  0  0  0
  4 11  1  0  0  0  0
  4 18  2  0  0  0  0
  5 20  1  0  0  0  0
  6 22  1  0  0  0  0
  7 12  2  0  0  0  0
  7 21  1  0  0  0  0
  8  9  2  0  0  0  0
  8 24  1  0  0  0  0
  9 25  1  0  0  0  0
 10 26  1  0  0  0  0
 11 26  2  0  0  0  0
 12 27  1  0  0  0  0
 13 14  2  0  0  0  0
 13 28  1  0  0  0  0
 14 29  1  0  0  0  0
 15 23  1  0  0  0  0
 15 27  2  0  0  0  0
 16 24  2  0  0  0  0
 16 30  1  0  0  0  0
 17 29  2  0  0  0  0
 17 31  1  0  0  0  0
 18 32  1  0  0  0  0
 19 32  1  0  0  0  0
 19 33  2  0  0  0  0
 19 35  1  0  0  0  0
 20 22  2  0  0  0  0
 20 40  1  0  0  0  0
 21 23  2  0  0  0  0
 21 41  1  0  0  0  0
 22 50  1  0  0  0  0
 23 42  1  0  0  0  0
 24 66  1  0  0  0  0
 25 30  2  0  0  0  0
 25 73  1  0  0  0  0
 26 81  1  0  0  0  0
 27 82  1  0  0  0  0
 28 31  2  0  0  0  0
 28 81  1  0  0  0  0
 29 83  1  0  0  0  0
 30 84  1  0  0  0  0
 31 85  1  0  0  0  0
 32 64  2  0  0  0  0
 33 65  1  0  0  0  0
 33 69  1  0  0  0  0
 34 51  1  0  0  0  0
 34 66  1  0  0  0  0
 34 75  2  0  0  0  0
 35 70  1  0  0  0  0
 35 76  2  0  0  0  0
 36 52  1  0  0  0  0
 36 71  1  0  0  0  0
 36 77  2  0  0  0  0
 37 61  1  0  0  0  0
 37 67  1  0  0  0  0
 37 78  2  0  0  0  0
 38 62  1  0  0  0  0
 38 72  1  0  0  0  0
 38 79  2  0  0  0  0
 39 68  1  0  0  0  0
 39 73  1  0  0  0  0
 39 80  2  0  0  0  0
 40 43  1  0  0  0  0
 41 52  1  0  0  0  0
 42 67  1  0  0  0  0
 43 45  1  0  0  0  0
 44 46  1  0  0  0  0
 44 47  1  0  0  0  0
 45 50  1  0  0  0  0
 46 53  1  0  0  0  0
 47 68  1  0  0  0  0
 48 51  1  0  0  0  0
 48 66  1  0  0  0  0
 49 53  1  0  0  0  0
 49 68  1  0  0  0  0
 50 71  1  0  0  0  0
 51 60  1  0  0  0  0
 52 67  1  0  0  0  0
 53 65  1  0  0  0  0
 54 62  1  0  0  0  0
 55 63  1  0  0  0  0
 56 63  1  0  0  0  0
 57 63  1  0  0  0  0
 58 73  1  0  0  0  0
 59 74  1  0  0  0  0
 60 82  1  0  0  0  0
 61 63  1  0  0  0  0
 61 72  1  0  0  0  0
 62 74  1  0  0  0  0
 64 65  1  0  0  0  0
M  CHG  1  74   1
M  ISO  4  39 100  60 101  73 100  82 101
M  END
> <Batch ID>
0018

> <Smiles>
CNC(C)C(=O)NC(C(=O)N1Cc2cc([101O:1][101CH2:1]C3CN(c4ccc([100N:0](C)[100C:0](=O)N5CCCC(n6nc(-c7ccc(Oc8ccc(F)cc8F)cc7)c(C(N)=O)c6N)C5)c(F)c4)C3=O)ccc2CC1C(=O)NC1CCCc2ccccc21)C(C)(C)C

> <Shape>
0.204

> <Color>
0.099

> <Negative vol penalty>
0.000

$$$$

  -OEChem-04042321033D

 86 94  0     1  0  0  0  0  0999 V2000
  -32.1211  -32.3901   17.6076 C   0  0  0  0  0  0  0  0  0  0  0  0
  -31.8673  -31.0941   18.0451 C   0  0  0  0  0  0  0  0  0  0  0  0
  -22.9487  -10.0658   19.8938 C   0  0  0  0  0  0  0  0  0  0  0  0
  -23.9120   -9.7028   22.0795 C   0  0  0  0  0  0  0  0  0  0  0  0
  -31.3778  -33.4544   18.1162 C   0  0  0  0  0  0  0  0  0  0  0  0
  -30.8707  -30.8618   18.9923 C   0  0  0  0  0  0  0  0  0  0  0  0
  -27.9471  -26.9011   17.8049 C   0  0  0  0  0  0  0  0  0  0  0  0
  -31.3556  -17.4929   20.9429 C   0  0  0  0  0  0  0  0  0  0  0  0
  -31.5795  -18.8552   21.1413 C   0  0  0  0  0  0  0  0  0  0  0  0
  -22.1850   -8.9075   20.0380 C   0  0  0  0  0  0  0  0  0  0  0  0
  -23.1483   -8.5445   22.2237 C   0  0  0  0  0  0  0  0  0  0  0  0
  -28.4661  -25.6305   18.0499 C   0  0  0  0  0  0  0  0  0  0  0  0
  -19.3503   -7.9747   21.6277 C   0  0  0  0  0  0  0  0  0  0  0  0
  -18.0042   -8.0368   21.2677 C   0  0  0  0  0  0  0  0  0  0  0  0
  -27.1755  -25.5022   20.0839 C   0  0  0  0  0  0  0  0  0  0  0  0
  -29.9006  -17.4511   22.8712 C   0  0  0  0  0  0  0  0  0  0  0  0
  -18.3644   -6.3047   19.6223 C   0  0  0  0  0  0  0  0  0  0  0  0
  -23.8122  -10.4634   20.9145 C   0  0  0  0  0  0  0  0  0  0  0  0
  -24.2422  -12.9677   21.1418 C   0  0  0  0  0  0  0  0  0  0  0  0
  -30.3650  -33.2339   19.0629 C   0  0  0  0  0  0  0  0  0  0  0  0
  -27.0453  -27.4873   18.7046 C   0  0  0  0  0  0  0  0  0  0  0  0
  -30.1140  -31.9244   19.5150 C   0  0  0  0  0  0  0  0  0  0  0  0
  -26.6446  -26.7793   19.8467 C   0  0  0  0  0  0  0  0  0  0  0  0
  -30.1245  -18.8135   23.0696 C   0  0  0  0  0  0  0  0  0  0  0  0
  -30.5161  -16.7908   21.8078 C   0  0  0  0  0  0  0  0  0  0  0  0
  -30.9640  -19.5156   22.2047 C   0  0  0  0  0  0  0  0  0  0  0  0
  -22.2848   -8.1469   21.2029 C   0  0  0  0  0  0  0  0  0  0  0  0
  -28.0825  -24.9320   19.1910 C   0  0  0  0  0  0  0  0  0  0  0  0
  -20.2036   -7.0777   20.9850 C   0  0  0  0  0  0  0  0  0  0  0  0
  -17.5112   -7.2018   20.2650 C   0  0  0  0  0  0  0  0  0  0  0  0
  -19.7106   -6.2427   19.9823 C   0  0  0  0  0  0  0  0  0  0  0  0
  -24.6018  -11.6595   20.7659 C   0  0  0  0  0  0  0  0  0  0  0  0
  -25.3262  -13.7355   20.7925 C   0  0  0  0  0  0  0  0  0  0  0  0
  -23.0363  -13.4459   21.7523 C   0  0  0  0  0  0  0  0  0  0  0  0
  -27.0654  -30.0953   20.5217 C   0  0  0  0  0  0  0  0  0  0  0  0
  -23.9975  -29.2285   21.1205 C   0  0  0  0  0  0  0  0  0  0  0  0
  -21.6580  -26.7465   21.2361 C   0  0  0  0  0  0  0  0  0  0  0  0
  -30.8231  -14.6012   20.6005 C   0  0  0  0  0  0  0  0  0  0  0  0
  -29.6200  -34.4216   19.6188 C   0  0  0  0  0  0  0  0  0  0  0  0
  -26.4741  -28.8477   18.4122 C   0  0  0  0  0  0  0  0  0  0  0  0
  -25.6637  -27.3559   20.8335 C   0  0  0  0  0  0  0  0  0  0  0  0
  -28.3287  -34.0467   20.3416 C   0  0  0  0  0  0  0  0  0  0  0  0
  -29.4043  -12.6069   18.0146 C   0  0  0  0  0  0  0  0  0  0  0  0
  -28.5682  -32.8762   21.2899 C   0  0  0  0  0  0  0  0  0  0  0  0
  -27.9988  -12.2903   18.5308 C   0  0  0  0  0  0  0  0  0  0  0  0
  -30.4325  -12.6259   19.1443 C   0  0  0  0  0  0  0  0  0  0  0  0
  -28.6883  -13.1796   20.7936 C   0  0  0  0  0  0  0  0  0  0  0  0
  -29.0245  -31.6292   20.5230 C   0  0  1  0  0  0  0  0  0  0  0  0
  -25.9580  -29.5595   19.6590 C   0  0  1  0  0  0  0  0  0  0  0  0
  -27.6071  -13.2134   19.7012 C   0  0  2  0  0  0  0  0  0  0  0  0
  -29.8084  -18.8577   25.5565 C   0  0  0  0  0  0  0  0  0  0  0  0
  -34.3379  -21.9044   24.3507 C   0  0  0  0  0  0  0  0  0  0  0  0
  -19.2470  -26.3367   21.7986 C   0  0  0  0  0  0  0  0  0  0  0  0
  -24.6697  -29.3697   24.0934 C   0  0  0  0  0  0  0  0  0  0  0  0
  -22.5841  -28.0640   24.5558 C   0  0  0  0  0  0  0  0  0  0  0  0
  -22.4345  -30.3113   23.4834 C   0  0  0  0  0  0  0  0  0  0  0  0
  -21.0490  -25.8436   18.4842 C   0  0  0  0  0  0  0  0  0  0  0  0
  -29.4534  -19.4957   24.2172 C   0  0  0  0  0  0  0  0  0  0  0  0
  -32.9298  -21.3838   24.0993 C   0  0  0  0  0  0  0  0  0  0  0  0
  -29.8821  -22.3157   20.9129 C   0  0  0  0  0  0  0  0  0  0  0  0
  -32.5632  -21.3676   22.6202 C   0  0  0  0  0  0  0  0  0  0  0  0
  -30.1259  -21.8477   22.3425 C   0  0  0  0  0  0  0  0  0  0  0  0
  -28.7254  -23.3016   20.7986 C   0  0  0  0  0  0  0  0  0  1  0  0
  -23.3137  -28.3551   22.1446 C   0  0  1  0  0  0  0  0  0  0  0  0
  -20.2406  -26.6724   20.6974 C   0  0  2  0  0  0  0  0  0  0  0  0
  -23.2705  -29.0147   23.5519 C   0  0  0  0  0  0  0  0  0  0  0  0
  -25.8189  -11.5962   20.2195 N   0  0  0  0  0  0  0  0  0  0  0  0
  -26.2336  -12.8742   20.2494 N   0  0  0  0  0  0  0  0  0  0  0  0
  -25.1381  -28.6917   20.5067 N   0  0  0  0  0  0  0  0  0  0  0  0
  -29.9965  -13.5246   20.2153 N   0  0  0  0  0  0  0  0  0  0  0  0
  -25.5820  -15.0566   20.8999 N   0  0  0  0  0  0  0  0  0  0  0  0
  -22.0235  -12.5222   22.0445 N   0  0  0  0  0  0  0  0  0  0  0  0
  -30.2896  -15.4067   21.6060 N   0  0  0  0  0  0  0  0  0  0  0  0
  -27.8967  -30.9918   19.8778 N   0  0  0  0  0  0  0  0  0  0  0  0
  -22.0012  -28.0328   21.5951 N   0  0  0  0  0  0  0  0  0  0  0  0
  -31.2002  -20.8855   22.3887 N   0  0  3  0  0  0  0  0  0  0  0  0
  -20.1422  -25.6262   19.6407 N   0  3  0  0  0  0  0  0  0  0  0  0
  -22.8554  -14.6590   22.0154 O   0  0  0  0  0  0  0  0  0  0  0  0
  -27.1580  -29.7239   21.6858 O   0  0  0  0  0  0  0  0  0  0  0  0
  -23.5324  -30.3430   20.8691 O   0  0  0  0  0  0  0  0  0  0  0  0
  -22.3863  -25.7613   21.3325 O   0  0  0  0  0  0  0  0  0  0  0  0
  -31.9113  -14.8102   20.0580 O   0  0  0  0  0  0  0  0  0  0  0  0
  -21.5396   -7.0167   21.3441 O   0  0  0  0  0  0  0  0  0  0  0  0
  -28.5880  -23.6920   19.4329 O   0  0  0  0  0  0  0  0  0  1  0  0
  -16.2182   -7.2604   19.9204 F   0  0  0  0  0  0  0  0  0  0  0  0
  -20.5252   -5.3781   19.3621 F   0  0  0  0  0  0  0  0  0  0  0  0
  1  2  1  0  0  0  0
  1  5  2  0  0  0  0
  2  6  2  0  0  0  0
  3 10  2  0  0  0  0
  3 18  1  0  0  0  0
  4 11  1  0  0  0  0
  4 18  2  0  0  0  0
  5 20  1  0  0  0  0
  6 22  1  0  0  0  0
  7 12  2  0  0  0  0
  7 21  1  0  0  0  0
  8  9  2  0  0  0  0
  8 25  1  0  0  0  0
  9 26  1  0  0  0  0
 10 27  1  0  0  0  0
 11 27  2  0  0  0  0
 12 28  1  0  0  0  0
 13 14  2  0  0  0  0
 13 29  1  0  0  0  0
 14 30  1  0  0  0  0
 15 23  1  0  0  0  0
 15 28  2  0  0  0  0
 16 24  1  0  0  0  0
 16 25  2  0  0  0  0
 17 30  2  0  0  0  0
 17 31  1  0  0  0  0
 18 32  1  0  0  0  0
 19 32  1  0  0  0  0
 19 33  2  0  0  0  0
 19 34  1  0  0  0  0
 20 22  2  0  0  0  0
 20 39  1  0  0  0  0
 21 23  2  0  0  0  0
 21 40  1  0  0  0  0
 22 48  1  0  0  0  0
 23 41  1  0  0  0  0
 24 26  2  0  0  0  0
 24 58  1  0  0  0  0
 25 73  1  0  0  0  0
 26 76  1  0  0  0  0
 27 83  1  0  0  0  0
 28 84  1  0  0  0  0
 29 31  2  0  0  0  0
 29 83  1  0  0  0  0
 30 85  1  0  0  0  0
 31 86  1  0  0  0  0
 32 67  2  0  0  0  0
 33 68  1  0  0  0  0
 33 71  1  0  0  0  0
 34 72  1  0  0  0  0
 34 78  2  0  0  0  0
 35 49  1  0  0  0  0
 35 74  1  0  0  0  0
 35 79  2  0  0  0  0
 36 64  1  0  0  0  0
 36 69  1  0  0  0  0
 36 80  2  0  0  0  0
 37 65  1  0  0  0  0
 37 75  1  0  0  0  0
 37 81  2  0  0  0  0
 38 70  1  0  0  0  0
 38 73  1  0  0  0  0
 38 82  2  0  0  0  0
 39 42  1  0  0  0  0
 40 49  1  0  0  0  0
 41 69  1  0  0  0  0
 42 44  1  0  0  0  0
 43 45  1  0  0  0  0
 43 46  1  0  0  0  0
 44 48  1  0  0  0  0
 45 50  1  0  0  0  0
 46 70  1  0  0  0  0
 47 50  1  0  0  0  0
 47 70  1  0  0  0  0
 48 74  1  0  0  0  0
 49 69  1  0  0  0  0
 50 68  1  0  0  0  0
 51 58  1  0  0  0  0
 52 59  1  0  0  0  0
 53 65  1  0  0  0  0
 54 66  1  0  0  0  0
 55 66  1  0  0  0  0
 56 66  1  0  0  0  0
 57 77  1  0  0  0  0
 59 61  1  0  0  0  0
 60 62  1  0  0  0  0
 60 63  1  0  0  0  0
 61 76  1  0  0  0  0
 62 76  1  0  0  0  0
 63 84  1  0  0  0  0
 64 66  1  0  0  0  0
 64 75  1  0  0  0  0
 65 77  1  0  0  0  0
 67 68  1  0  0  0  0
M  CHG  1  77   1
M  ISO  4  38 100  63 101  73 100  84 101
M  END
> <Batch ID>
0018

> <Smiles>
CCCN(CC[101CH2:1][101O:1]c1ccc2c(c1)CN(C(=O)C(NC(=O)C(C)NC)C(C)(C)C)C(C(=O)NC1CCCc3ccccc31)C2)c1ccc([100NH:0][100C:0](=O)N2CCCC(n3nc(-c4ccc(Oc5ccc(F)cc5F)cc4)c(C(N)=O)c3N)C2)cc1CC

> <Shape>
0.280

> <Color>
0.204

> <Negative vol penalty>
0.000

$$$$

  -OEChem-04042321033D

 83 91  0     1  0  0  0  0  0999 V2000
  -16.6306  -29.6430   23.9562 C   0  0  0  0  0  0  0  0  0  0  0  0
  -17.7209  -30.2688   24.5521 C   0  0  0  0  0  0  0  0  0  0  0  0
  -31.3922  -23.4175   16.5672 C   0  0  0  0  0  0  0  0  0  0  0  0
  -29.2301  -22.9944   15.5757 C   0  0  0  0  0  0  0  0  0  0  0  0
  -16.8335  -28.5843   23.0719 C   0  0  0  0  0  0  0  0  0  0  0  0
  -19.0148  -29.8355   24.2648 C   0  0  0  0  0  0  0  0  0  0  0  0
  -25.7019  -32.3057   23.5595 C   0  0  0  0  0  0  0  0  0  0  0  0
  -31.3318  -25.0024   24.3452 C   0  0  0  0  0  0  0  0  0  0  0  0
  -31.4562  -23.6427   24.0601 C   0  0  0  0  0  0  0  0  0  0  0  0
  -32.0128  -23.0281   15.3803 C   0  0  0  0  0  0  0  0  0  0  0  0
  -29.8506  -22.6050   14.3887 C   0  0  0  0  0  0  0  0  0  0  0  0
  -26.9942  -32.0631   24.0230 C   0  0  0  0  0  0  0  0  0  0  0  0
  -32.6427  -24.3712   12.3418 C   0  0  0  0  0  0  0  0  0  0  0  0
  -33.6811  -25.1689   11.8613 C   0  0  0  0  0  0  0  0  0  0  0  0
  -27.2276  -30.2766   22.4190 C   0  0  0  0  0  0  0  0  0  0  0  0
  -29.0733  -24.6334   25.1198 C   0  0  0  0  0  0  0  0  0  0  0  0
  -35.1929  -23.2901   12.0095 C   0  0  0  0  0  0  0  0  0  0  0  0
  -30.0009  -23.4006   16.6650 C   0  0  0  0  0  0  0  0  0  0  0  0
  -28.9420  -25.0987   18.2471 C   0  0  0  0  0  0  0  0  0  0  0  0
  -18.1310  -28.1442   22.7662 C   0  0  0  0  0  0  0  0  0  0  0  0
  -25.1578  -31.5271   22.5279 C   0  0  0  0  0  0  0  0  0  0  0  0
  -19.2352  -28.7691   23.3766 C   0  0  0  0  0  0  0  0  0  0  0  0
  -25.9291  -30.5130   21.9424 C   0  0  0  0  0  0  0  0  0  0  0  0
  -30.1403  -25.4978   24.8752 C   0  0  0  0  0  0  0  0  0  0  0  0
  -30.3892  -22.7783   24.3048 C   0  0  0  0  0  0  0  0  0  0  0  0
  -31.2420  -22.6219   14.2910 C   0  0  0  0  0  0  0  0  0  0  0  0
  -27.7562  -31.0465   23.4547 C   0  0  0  0  0  0  0  0  0  0  0  0
  -32.8794  -23.0330   12.6563 C   0  0  0  0  0  0  0  0  0  0  0  0
  -34.9562  -24.6284   11.6951 C   0  0  0  0  0  0  0  0  0  0  0  0
  -29.1977  -23.2736   24.8347 C   0  0  0  0  0  0  0  0  0  0  0  0
  -34.1545  -22.4925   12.4901 C   0  0  0  0  0  0  0  0  0  0  0  0
  -29.3593  -23.8022   17.8910 C   0  0  0  0  0  0  0  0  0  0  0  0
  -28.3958  -24.9520   19.4987 C   0  0  0  0  0  0  0  0  0  0  0  0
  -29.0394  -26.3259   17.5121 C   0  0  0  0  0  0  0  0  0  0  0  0
  -22.6699  -29.5654   22.2714 C   0  0  0  0  0  0  0  0  0  0  0  0
  -23.5192  -29.5268   19.1410 C   0  0  0  0  0  0  0  0  0  0  0  0
  -25.9625  -29.9513   16.7964 C   0  0  0  0  0  0  0  0  0  0  0  0
  -29.4362  -20.5579   23.6319 C   0  0  0  0  0  0  0  0  0  0  0  0
  -18.2983  -26.9651   21.8407 C   0  0  0  0  0  0  0  0  0  0  0  0
  -23.7720  -31.8190   22.0211 C   0  0  0  0  0  0  0  0  0  0  0  0
  -25.3987  -29.6620   20.8186 C   0  0  0  0  0  0  0  0  0  0  0  0
  -19.7179  -26.8112   21.3009 C   0  0  0  0  0  0  0  0  0  0  0  0
  -26.2002  -21.7630   22.3018 C   0  0  0  0  0  0  0  0  0  0  0  0
  -20.7360  -26.9544   22.4278 C   0  0  0  0  0  0  0  0  0  0  0  0
  -26.6052  -22.4604   21.0045 C   0  0  0  0  0  0  0  0  0  0  0  0
  -27.1616  -20.6344   22.6621 C   0  0  0  0  0  0  0  0  0  0  0  0
  -28.9954  -21.7692   21.4411 C   0  0  0  0  0  0  0  0  0  0  0  0
  -20.6551  -28.3440   23.0711 C   0  0  1  0  0  0  0  0  0  0  0  0
  -23.1310  -30.6284   21.3148 C   0  0  1  0  0  0  0  0  0  0  0  0
  -28.0655  -22.9364   21.0776 C   0  0  1  0  0  0  0  0  0  0  0  0
  -26.3649  -29.8128   14.3233 C   0  0  0  0  0  0  0  0  0  0  0  0
  -23.5768  -26.4816   19.3234 C   0  0  0  0  0  0  0  0  0  0  0  0
  -24.8726  -26.4473   17.1814 C   0  0  0  0  0  0  0  0  0  0  0  0
  -22.5601  -27.3818   17.2233 C   0  0  0  0  0  0  0  0  0  0  0  0
  -31.7759  -20.7133   24.3624 C   0  0  0  0  0  0  0  0  0  0  0  0
  -26.6800  -32.8180   16.6353 C   0  0  0  0  0  0  0  0  0  0  0  0
  -30.5065  -29.2302   24.9331 C   0  0  0  0  0  0  0  0  0  0  0  0
  -31.0675  -27.8133   24.9386 C   0  0  0  0  0  0  0  0  0  0  0  0
  -29.4953  -29.4654   23.8172 C   0  0  0  0  0  0  0  0  0  1  0  0
  -24.4432  -28.6853   18.2942 C   0  0  1  0  0  0  0  0  0  0  0  0
  -25.9780  -30.7152   15.4847 C   0  0  2  0  0  0  0  0  0  0  0  0
  -23.8727  -27.2636   18.0280 C   0  0  0  0  0  0  0  0  0  0  0  0
  -29.1004  -22.8985   18.8398 N   0  0  0  0  0  0  0  0  0  0  0  0
  -28.5148  -23.6282   19.8045 N   0  0  0  0  0  0  0  0  0  0  0  0
  -24.0361  -29.9820   20.3622 N   0  0  0  0  0  0  0  0  0  0  0  0
  -28.5532  -21.0883   22.6690 N   0  0  0  0  0  0  0  0  0  0  0  0
  -27.8303  -25.8276   20.3566 N   0  0  0  0  0  0  0  0  0  0  0  0
  -29.6287  -26.2983   16.2407 N   0  0  0  0  0  0  0  0  0  0  0  0
  -30.0170  -26.8489   25.1590 N   0  0  0  0  0  0  0  0  0  0  0  0
  -21.3093  -29.3271   22.2344 N   0  0  0  0  0  0  0  0  0  0  0  0
  -24.7075  -29.4589   17.0859 N   0  0  0  0  0  0  0  0  0  0  0  0
  -30.5209  -21.3728   24.0084 N   0  0  0  0  0  0  0  0  0  0  0  0
  -26.9538  -31.8395   15.5516 N   0  3  0  0  0  0  0  0  0  0  0  0
  -28.6313  -27.4176   17.9760 O   0  0  0  0  0  0  0  0  0  0  0  0
  -23.4882  -29.0021   22.9889 O   0  0  0  0  0  0  0  0  0  0  0  0
  -22.3831  -29.7771   18.7306 O   0  0  0  0  0  0  0  0  0  0  0  0
  -26.9643  -29.8028   17.4927 O   0  0  0  0  0  0  0  0  0  0  0  0
  -29.3005  -19.4146   24.0848 O   0  0  0  0  0  0  0  0  0  0  0  0
  -31.8472  -22.2421   13.1325 O   0  0  0  0  0  0  0  0  0  0  0  0
  -29.0176  -30.8072   23.9057 O   0  0  0  0  0  0  0  0  0  1  0  0
  -35.9530  -25.3941   11.2321 F   0  0  0  0  0  0  0  0  0  0  0  0
  -28.1656  -22.4519   25.0734 F   0  0  0  0  0  0  0  0  0  0  0  0
  -34.3876  -21.2072   12.7893 F   0  0  0  0  0  0  0  0  0  0  0  0
  1  2  1  0  0  0  0
  1  5  2  0  0  0  0
  2  6  2  0  0  0  0
  3 10  2  0  0  0  0
  3 18  1  0  0  0  0
  4 11  1  0  0  0  0
  4 18  2  0  0  0  0
  5 20  1  0  0  0  0
  6 22  1  0  0  0  0
  7 12  2  0  0  0  0
  7 21  1  0  0  0  0
  8  9  2  0  0  0  0
  8 24  1  0  0  0  0
  9 25  1  0  0  0  0
 10 26  1  0  0  0  0
 11 26  2  0  0  0  0
 12 27  1  0  0  0  0
 13 14  2  0  0  0  0
 13 28  1  0  0  0  0
 14 29  1  0  0  0  0
 15 23  1  0  0  0  0
 15 27  2  0  0  0  0
 16 24  2  0  0  0  0
 16 30  1  0  0  0  0
 17 29  2  0  0  0  0
 17 31  1  0  0  0  0
 18 32  1  0  0  0  0
 19 32  1  0  0  0  0
 19 33  2  0  0  0  0
 19 34  1  0  0  0  0
 20 22  2  0  0  0  0
 20 39  1  0  0  0  0
 21 23  2  0  0  0  0
 21 40  1  0  0  0  0
 22 48  1  0  0  0  0
 23 41  1  0  0  0  0
 24 69  1  0  0  0  0
 25 30  2  0  0  0  0
 25 72  1  0  0  0  0
 26 79  1  0  0  0  0
 27 80  1  0  0  0  0
 28 31  2  0  0  0  0
 28 79  1  0  0  0  0
 29 81  1  0  0  0  0
 30 82  1  0  0  0  0
 31 83  1  0  0  0  0
 32 63  2  0  0  0  0
 33 64  1  0  0  0  0
 33 67  1  0  0  0  0
 34 68  1  0  0  0  0
 34 74  2  0  0  0  0
 35 49  1  0  0  0  0
 35 70  1  0  0  0  0
 35 75  2  0  0  0  0
 36 60  1  0  0  0  0
 36 65  1  0  0  0  0
 36 76  2  0  0  0  0
 37 61  1  0  0  0  0
 37 71  1  0  0  0  0
 37 77  2  0  0  0  0
 38 66  1  0  0  0  0
 38 72  1  0  0  0  0
 38 78  2  0  0  0  0
 39 42  1  0  0  0  0
 40 49  1  0  0  0  0
 41 65  1  0  0  0  0
 42 44  1  0  0  0  0
 43 45  1  0  0  0  0
 43 46  1  0  0  0  0
 44 48  1  0  0  0  0
 45 50  1  0  0  0  0
 46 66  1  0  0  0  0
 47 50  1  0  0  0  0
 47 66  1  0  0  0  0
 48 70  1  0  0  0  0
 49 65  1  0  0  0  0
 50 64  1  0  0  0  0
 51 61  1  0  0  0  0
 52 62  1  0  0  0  0
 53 62  1  0  0  0  0
 54 62  1  0  0  0  0
 55 72  1  0  0  0  0
 56 73  1  0  0  0  0
 57 58  1  0  0  0  0
 57 59  1  0  0  0  0
 58 69  1  0  0  0  0
 59 80  1  0  0  0  0
 60 62  1  0  0  0  0
 60 71  1  0  0  0  0
 61 73  1  0  0  0  0
 63 64  1  0  0  0  0
M  CHG  1  73   1
M  ISO  4  38 100  59 101  72 100  80 101
M  END
> <Batch ID>
0018

> <Smiles>
CNC(C)C(=O)NC(C(=O)N1Cc2cc([101O:1][101CH2:1]CCNc3ccc([100N:0](C)[100C:0](=O)N4CCCC(n5nc(-c6ccc(Oc7ccc(F)cc7F)cc6)c(C(N)=O)c5N)C4)c(F)c3)ccc2CC1C(=O)NC1CCCc2ccccc21)C(C)(C)C

> <Shape>
0.202

> <Color>
0.115

> <Negative vol penalty>
0.000

$$$$

  -OEChem-04042321033D

 89 98  0     1  0  0  0  0  0999 V2000
  -27.0875  -34.7351   24.5132 C   0  0  0  0  0  0  0  0  0  0  0  0
  -26.2288  -34.3551   23.4867 C   0  0  0  0  0  0  0  0  0  0  0  0
  -22.6712  -15.7862   22.4389 C   0  0  0  0  0  0  0  0  0  0  0  0
  -21.7444  -15.2764   20.2667 C   0  0  0  0  0  0  0  0  0  0  0  0
  -28.4212  -34.3294   24.4909 C   0  0  0  0  0  0  0  0  0  0  0  0
  -26.7037  -33.5701   22.4366 C   0  0  0  0  0  0  0  0  0  0  0  0
  -23.7694  -27.1540   20.9821 C   0  0  0  0  0  0  0  0  0  0  0  0
  -27.1837  -17.5404   23.5438 C   0  0  0  0  0  0  0  0  0  0  0  0
  -27.3740  -18.9541   21.5939 C   0  0  0  0  0  0  0  0  0  0  0  0
  -28.2279  -16.7463   23.0700 C   0  0  0  0  0  0  0  0  0  0  0  0
  -28.4182  -18.1599   21.1200 C   0  0  0  0  0  0  0  0  0  0  0  0
  -21.5353  -16.5345   22.7480 C   0  0  0  0  0  0  0  0  0  0  0  0
  -20.6085  -16.0247   20.5758 C   0  0  0  0  0  0  0  0  0  0  0  0
  -23.1243  -26.0112   20.5087 C   0  0  0  0  0  0  0  0  0  0  0  0
  -18.3584  -15.9441   23.7437 C   0  0  0  0  0  0  0  0  0  0  0  0
  -17.7839  -15.7609   25.0015 C   0  0  0  0  0  0  0  0  0  0  0  0
  -24.8035  -25.7639   18.7861 C   0  0  0  0  0  0  0  0  0  0  0  0
  -18.1444  -18.0960   25.5062 C   0  0  0  0  0  0  0  0  0  0  0  0
  -22.7757  -15.1572   21.1983 C   0  0  0  0  0  0  0  0  0  0  0  0
  -24.1530  -13.0116   21.1131 C   0  0  0  0  0  0  0  0  0  0  0  0
  -28.9103  -33.5309   23.4450 C   0  0  0  0  0  0  0  0  0  0  0  0
  -24.9439  -27.5978   20.3682 C   0  0  0  0  0  0  0  0  0  0  0  0
  -28.0455  -33.1544   22.3996 C   0  0  0  0  0  0  0  0  0  0  0  0
  -25.4609  -26.9008   19.2637 C   0  0  0  0  0  0  0  0  0  0  0  0
  -26.7567  -18.6444   22.8057 C   0  0  0  0  0  0  0  0  0  0  0  0
  -28.8452  -17.0560   21.8581 C   0  0  0  0  0  0  0  0  0  0  0  0
  -20.5040  -16.6537   21.8165 C   0  0  0  0  0  0  0  0  0  0  0  0
  -23.6400  -25.3181   19.4133 C   0  0  0  0  0  0  0  0  0  0  0  0
  -18.8260  -17.2032   23.3672 C   0  0  0  0  0  0  0  0  0  0  0  0
  -17.6769  -16.8369   25.8827 C   0  0  0  0  0  0  0  0  0  0  0  0
  -18.7190  -18.2791   24.2484 C   0  0  0  0  0  0  0  0  0  0  0  0
  -23.9490  -14.3845   20.8782 C   0  0  0  0  0  0  0  0  0  0  0  0
  -25.4153  -12.7646   20.6315 C   0  0  0  0  0  0  0  0  0  0  0  0
  -23.2794  -12.0458   21.7130 C   0  0  0  0  0  0  0  0  0  0  0  0
  -27.7133  -30.1282   20.3057 C   0  0  0  0  0  0  0  0  0  0  0  0
  -24.4400  -20.4267   21.4776 C   0  0  0  0  0  0  0  0  0  0  0  0
  -28.9885  -27.3973   19.7344 C   0  0  0  0  0  0  0  0  0  0  0  0
  -30.0576  -24.1627   19.5572 C   0  0  0  0  0  0  0  0  0  0  0  0
  -30.1592  -16.0802   19.9840 C   0  0  0  0  0  0  0  0  0  0  0  0
  -30.3713  -33.1564   23.4397 C   0  0  0  0  0  0  0  0  0  0  0  0
  -25.6384  -28.8587   20.8058 C   0  0  0  0  0  0  0  0  0  0  0  0
  -26.7078  -27.4347   18.6132 C   0  0  0  0  0  0  0  0  0  0  0  0
  -30.7036  -32.0132   22.4843 C   0  0  0  0  0  0  0  0  0  0  0  0
  -23.8985  -20.2026   24.5591 C   0  0  0  0  0  0  0  0  0  0  0  0
  -28.5509  -14.2898   17.3666 C   0  0  0  0  0  0  0  0  0  0  0  0
  -30.0447  -32.2426   21.1278 C   0  0  0  0  0  0  0  0  0  0  0  0
  -24.4762  -21.3719   23.7757 C   0  0  0  0  0  0  0  0  0  0  0  0
  -27.1926  -13.9852   17.9974 C   0  0  0  0  0  0  0  0  0  0  0  0
  -25.0221  -19.1705   24.5332 C   0  0  0  0  0  0  0  0  0  0  0  0
  -29.0477  -15.6906   17.7259 C   0  0  0  0  0  0  0  0  0  0  0  0
  -27.7180  -15.6584   19.8128 C   0  0  0  0  0  0  0  0  0  0  0  0
  -28.5172  -32.2825   21.2561 C   0  0  1  0  0  0  0  0  0  0  0  0
  -27.1702  -28.7798   20.6775 C   0  0  1  0  0  0  0  0  0  0  0  0
  -25.2972  -20.6959   22.6752 C   0  0  1  0  0  0  0  0  0  0  0  0
  -27.2202  -14.2353   19.5156 C   0  0  1  0  0  0  0  0  0  0  0  0
  -32.1399  -22.7882   19.2881 C   0  0  0  0  0  0  0  0  0  0  0  0
  -29.0430  -28.0690   16.7596 C   0  0  0  0  0  0  0  0  0  0  0  0
  -30.4445  -26.0264   16.3965 C   0  0  0  0  0  0  0  0  0  0  0  0
  -31.2961  -27.8828   17.8288 C   0  0  0  0  0  0  0  0  0  0  0  0
  -30.9299  -15.7540   22.3239 C   0  0  0  0  0  0  0  0  0  0  0  0
  -29.6744  -22.8565   22.1852 C   0  0  0  0  0  0  0  0  0  0  0  0
  -22.2881  -21.9684   19.4665 C   0  0  0  0  0  0  0  0  0  0  0  0
  -23.6881  -21.3897   19.3120 C   0  0  0  0  0  0  0  0  0  0  0  0
  -22.2946  -23.4232   19.9201 C   0  0  0  0  0  0  0  0  0  1  0  0
  -29.4367  -26.4036   18.6928 C   0  0  1  0  0  0  0  0  0  0  0  0
  -31.1774  -23.4309   20.2748 C   0  0  2  0  0  0  0  0  0  0  0  0
  -30.0295  -27.0935   17.4319 C   0  0  0  0  0  0  0  0  0  0  0  0
  -24.9979  -14.9689   20.2930 N   0  0  0  0  0  0  0  0  0  0  0  0
  -25.8731  -13.9582   20.1562 N   0  0  0  0  0  0  0  0  0  0  0  0
  -25.7212  -19.4300   23.2740 N   0  0  3  0  0  0  0  0  0  0  0  0
  -27.6696  -27.8584   19.6427 N   0  0  0  0  0  0  0  0  0  0  0  0
  -29.0179  -15.8968   19.1808 N   0  0  0  0  0  0  0  0  0  0  0  0
  -26.1673  -11.6451   20.5726 N   0  0  0  0  0  0  0  0  0  0  0  0
  -22.0176  -12.4685   22.1530 N   0  0  0  0  0  0  0  0  0  0  0  0
  -27.9858  -30.9429   21.3880 N   0  0  0  0  0  0  0  0  0  0  0  0
  -24.4400  -21.4436   20.5351 N   0  0  0  0  0  0  0  0  0  0  0  0
  -30.3583  -25.4946   19.3656 N   0  0  0  0  0  0  0  0  0  0  0  0
  -29.9262  -16.2338   21.3676 N   0  0  0  0  0  0  0  0  0  0  0  0
  -30.6198  -22.3624   21.1512 N   0  3  0  0  0  0  0  0  0  0  0  0
  -23.6143  -10.8471   21.8695 O   0  0  0  0  0  0  0  0  0  0  0  0
  -27.8750  -30.4096   19.1240 O   0  0  0  0  0  0  0  0  0  0  0  0
  -23.8192  -19.3728   21.4036 O   0  0  0  0  0  0  0  0  0  0  0  0
  -29.7858  -27.7609   20.6036 O   0  0  0  0  0  0  0  0  0  0  0  0
  -29.0213  -23.6073   19.1990 O   0  0  0  0  0  0  0  0  0  0  0  0
  -31.3000  -16.0805   19.5059 O   0  0  0  0  0  0  0  0  0  0  0  0
  -19.3954  -17.3836   22.1178 O   0  0  0  0  0  0  0  0  0  0  0  0
  -23.0076  -24.2007   18.9591 O   0  0  0  0  0  0  0  0  0  1  0  0
  -17.1238  -16.6611   27.0899 F   0  0  0  0  0  0  0  0  0  0  0  0
  -19.1653  -19.4913   23.8918 F   0  0  0  0  0  0  0  0  0  0  0  0
  1  2  1  0  0  0  0
  1  5  2  0  0  0  0
  2  6  2  0  0  0  0
  3 12  2  0  0  0  0
  3 19  1  0  0  0  0
  4 13  1  0  0  0  0
  4 19  2  0  0  0  0
  5 21  1  0  0  0  0
  6 23  1  0  0  0  0
  7 14  2  0  0  0  0
  7 22  1  0  0  0  0
  8 10  2  0  0  0  0
  8 25  1  0  0  0  0
  9 11  1  0  0  0  0
  9 25  2  0  0  0  0
 10 26  1  0  0  0  0
 11 26  2  0  0  0  0
 12 27  1  0  0  0  0
 13 27  2  0  0  0  0
 14 28  1  0  0  0  0
 15 16  2  0  0  0  0
 15 29  1  0  0  0  0
 16 30  1  0  0  0  0
 17 24  1  0  0  0  0
 17 28  2  0  0  0  0
 18 30  2  0  0  0  0
 18 31  1  0  0  0  0
 19 32  1  0  0  0  0
 20 32  1  0  0  0  0
 20 33  2  0  0  0  0
 20 34  1  0  0  0  0
 21 23  2  0  0  0  0
 21 40  1  0  0  0  0
 22 24  2  0  0  0  0
 22 41  1  0  0  0  0
 23 52  1  0  0  0  0
 24 42  1  0  0  0  0
 25 70  1  0  0  0  0
 26 78  1  0  0  0  0
 27 86  1  0  0  0  0
 28 87  1  0  0  0  0
 29 31  2  0  0  0  0
 29 86  1  0  0  0  0
 30 88  1  0  0  0  0
 31 89  1  0  0  0  0
 32 68  2  0  0  0  0
 33 69  1  0  0  0  0
 33 73  1  0  0  0  0
 34 74  1  0  0  0  0
 34 80  2  0  0  0  0
 35 53  1  0  0  0  0
 35 75  1  0  0  0  0
 35 81  2  0  0  0  0
 36 54  1  0  0  0  0
 36 76  1  0  0  0  0
 36 82  2  0  0  0  0
 37 65  1  0  0  0  0
 37 71  1  0  0  0  0
 37 83  2  0  0  0  0
 38 66  1  0  0  0  0
 38 77  1  0  0  0  0
 38 84  2  0  0  0  0
 39 72  1  0  0  0  0
 39 78  1  0  0  0  0
 39 85  2  0  0  0  0
 40 43  1  0  0  0  0
 41 53  1  0  0  0  0
 42 71  1  0  0  0  0
 43 46  1  0  0  0  0
 44 47  1  0  0  0  0
 44 49  1  0  0  0  0
 45 48  1  0  0  0  0
 45 50  1  0  0  0  0
 46 52  1  0  0  0  0
 47 54  1  0  0  0  0
 48 55  1  0  0  0  0
 49 70  1  0  0  0  0
 50 72  1  0  0  0  0
 51 55  1  0  0  0  0
 51 72  1  0  0  0  0
 52 75  1  0  0  0  0
 53 71  1  0  0  0  0
 54 70  1  0  0  0  0
 55 69  1  0  0  0  0
 56 66  1  0  0  0  0
 57 67  1  0  0  0  0
 58 67  1  0  0  0  0
 59 67  1  0  0  0  0
 60 78  1  0  0  0  0
 61 79  1  0  0  0  0
 62 63  1  0  0  0  0
 62 64  1  0  0  0  0
 63 76  1  0  0  0  0
 64 87  1  0  0  0  0
 65 67  1  0  0  0  0
 65 77  1  0  0  0  0
 66 79  1  0  0  0  0
 68 69  1  0  0  0  0
M  CHG  1  79   1
M  ISO  4  39 100  64 101  78 100  87 101
M  END
> <Batch ID>
0018

> <Smiles>
CNC(C)C(=O)NC(C(=O)N1Cc2cc([101O:1][101CH2:1]CCNC(=O)C3CCCN3c3ccc([100N:0](C)[100C:0](=O)N4CCCC(n5nc(-c6ccc(Oc7ccc(F)cc7F)cc6)c(C(N)=O)c5N)C4)cc3)ccc2CC1C(=O)NC1CCCc2ccccc21)C(C)(C)C

> <Shape>
0.194

> <Color>
0.085

> <Negative vol penalty>
0.000

$$$$

  -OEChem-04042321033D

 86 95  0     1  0  0  0  0  0999 V2000
  -31.1147  -22.7913   23.6460 C   0  0  0  0  0  0  0  0  0  0  0  0
  -29.7836  -22.8198   23.2425 C   0  0  0  0  0  0  0  0  0  0  0  0
  -27.8519  -26.0316   20.7227 C   0  0  0  0  0  0  0  0  0  0  0  0
  -28.3906  -28.3026   20.0987 C   0  0  0  0  0  0  0  0  0  0  0  0
  -31.9711  -21.8088   23.1510 C   0  0  0  0  0  0  0  0  0  0  0  0
  -29.3085  -21.8662   22.3428 C   0  0  0  0  0  0  0  0  0  0  0  0
  -24.8258  -19.9567   23.7229 C   0  0  0  0  0  0  0  0  0  0  0  0
  -18.9836  -28.6757   22.5730 C   0  0  0  0  0  0  0  0  0  0  0  0
  -19.7809  -26.8634   23.9577 C   0  0  0  0  0  0  0  0  0  0  0  0
  -19.0807  -27.8581   21.4471 C   0  0  0  0  0  0  0  0  0  0  0  0
  -19.8779  -26.0459   22.8317 C   0  0  0  0  0  0  0  0  0  0  0  0
  -29.1285  -25.6228   20.3371 C   0  0  0  0  0  0  0  0  0  0  0  0
  -29.6673  -27.8938   19.7131 C   0  0  0  0  0  0  0  0  0  0  0  0
  -23.6980  -20.7390   23.4783 C   0  0  0  0  0  0  0  0  0  0  0  0
  -32.1251  -23.9183   19.1800 C   0  0  0  0  0  0  0  0  0  0  0  0
  -32.2326  -22.7544   18.4189 C   0  0  0  0  0  0  0  0  0  0  0  0
  -23.2293  -19.4350   21.5037 C   0  0  0  0  0  0  0  0  0  0  0  0
  -30.8647  -23.7543   16.6966 C   0  0  0  0  0  0  0  0  0  0  0  0
  -27.4829  -27.3715   20.6035 C   0  0  0  0  0  0  0  0  0  0  0  0
  -25.7622  -28.2399   22.2746 C   0  0  0  0  0  0  0  0  0  0  0  0
  -31.5039  -20.8369   22.2523 C   0  0  0  0  0  0  0  0  0  0  0  0
  -25.1705  -18.9129   22.8523 C   0  0  0  0  0  0  0  0  0  0  0  0
  -30.1598  -20.8705   21.8343 C   0  0  0  0  0  0  0  0  0  0  0  0
  -24.3605  -18.6393   21.7409 C   0  0  0  0  0  0  0  0  0  0  0  0
  -19.3338  -28.1784   23.8283 C   0  0  0  0  0  0  0  0  0  0  0  0
  -19.5278  -26.5432   21.5764 C   0  0  0  0  0  0  0  0  0  0  0  0
  -30.0362  -26.5538   19.8323 C   0  0  0  0  0  0  0  0  0  0  0  0
  -22.9011  -20.4800   22.3669 C   0  0  0  0  0  0  0  0  0  0  0  0
  -31.3873  -25.0002   18.6996 C   0  0  0  0  0  0  0  0  0  0  0  0
  -31.6025  -22.6724   17.1772 C   0  0  0  0  0  0  0  0  0  0  0  0
  -30.7571  -24.9182   17.4579 C   0  0  0  0  0  0  0  0  0  0  0  0
  -26.1641  -27.7944   21.0012 C   0  0  0  0  0  0  0  0  0  0  0  0
  -24.4248  -28.5195   22.1343 C   0  0  0  0  0  0  0  0  0  0  0  0
  -26.5292  -28.3878   23.4770 C   0  0  0  0  0  0  0  0  0  0  0  0
  -27.6672  -18.2767   20.9906 C   0  0  0  0  0  0  0  0  0  0  0  0
  -26.1185  -15.4626   20.5383 C   0  0  0  0  0  0  0  0  0  0  0  0
  -23.1727  -13.7397   20.5660 C   0  0  0  0  0  0  0  0  0  0  0  0
  -19.8996  -26.1901   19.1212 C   0  0  0  0  0  0  0  0  0  0  0  0
  -32.4788  -19.8231   21.7079 C   0  0  0  0  0  0  0  0  0  0  0  0
  -26.3753  -18.0613   23.1448 C   0  0  0  0  0  0  0  0  0  0  0  0
  -24.6758  -17.5174   20.7868 C   0  0  0  0  0  0  0  0  0  0  0  0
  -31.8046  -18.6232   21.0475 C   0  0  0  0  0  0  0  0  0  0  0  0
  -19.1526  -30.9333   26.3363 C   0  0  0  0  0  0  0  0  0  0  0  0
  -19.0162  -29.7069   27.2158 C   0  0  0  0  0  0  0  0  0  0  0  0
  -21.4111  -29.4777   18.3465 C   0  0  0  0  0  0  0  0  0  0  0  0
  -30.6929  -19.0845   20.1105 C   0  0  0  0  0  0  0  0  0  0  0  0
  -22.7878  -29.3809   19.0013 C   0  0  0  0  0  0  0  0  0  0  0  0
  -18.7843  -30.4004   24.9563 C   0  0  0  0  0  0  0  0  0  0  0  0
  -19.5758  -28.5966   26.3339 C   0  0  0  0  0  0  0  0  0  0  0  0
  -20.8913  -28.1095   17.9159 C   0  0  0  0  0  0  0  0  0  0  0  0
  -22.2393  -27.0106   19.6813 C   0  0  0  0  0  0  0  0  0  0  0  0
  -29.6009  -19.8384   20.8790 C   0  0  1  0  0  0  0  0  0  0  0  0
  -26.9198  -17.3517   21.9090 C   0  0  1  0  0  0  0  0  0  0  0  0
  -22.7673  -28.3711   20.1606 C   0  0  1  0  0  0  0  0  0  0  0  0
  -22.2176  -11.4636   20.1139 C   0  0  0  0  0  0  0  0  0  0  0  0
  -26.3277  -15.9735   17.5374 C   0  0  0  0  0  0  0  0  0  0  0  0
  -24.5755  -14.2198   17.1873 C   0  0  0  0  0  0  0  0  0  0  0  0
  -26.7597  -13.6083   18.2256 C   0  0  0  0  0  0  0  0  0  0  0  0
  -22.2298  -13.4536   23.3567 C   0  0  0  0  0  0  0  0  0  0  0  0
  -20.3319  -23.3319   20.6962 C   0  0  0  0  0  0  0  0  0  0  0  0
  -19.8563  -21.8864   20.8451 C   0  0  0  0  0  0  0  0  0  0  0  0
  -19.1760  -24.3133   20.5303 C   0  0  0  0  0  0  0  0  0  0  0  0
  -21.0288  -20.9215   20.9686 C   0  0  0  0  0  0  0  0  0  1  0  0
  -25.0870  -14.9552   19.5598 C   0  0  1  0  0  0  0  0  0  0  0  0
  -22.7969  -12.3968   21.1657 C   0  0  2  0  0  0  0  0  0  0  0  0
  -25.6823  -14.7116   18.1442 C   0  0  0  0  0  0  0  0  0  0  0  0
  -25.1631  -27.7894   20.1169 N   0  0  0  0  0  0  0  0  0  0  0  0
  -24.1188  -28.2352   20.8359 N   0  0  0  0  0  0  0  0  0  0  0  0
  -19.2377  -29.0041   24.9647 N   0  0  0  0  0  0  0  0  0  0  0  0
  -25.8679  -16.7170   21.1122 N   0  0  0  0  0  0  0  0  0  0  0  0
  -20.9339  -27.1424   19.0138 N   0  0  0  0  0  0  0  0  0  0  0  0
  -23.4924  -28.9782   22.9961 N   0  0  0  0  0  0  0  0  0  0  0  0
  -27.8904  -28.0556   23.4462 N   0  0  0  0  0  0  0  0  0  0  0  0
  -28.7442  -18.9082   21.5827 N   0  0  0  0  0  0  0  0  0  0  0  0
  -24.4932  -13.7706   20.1702 N   0  0  0  0  0  0  0  0  0  0  0  0
  -19.6282  -25.6978   20.4120 N   0  0  0  0  0  0  0  0  0  0  0  0
  -21.7838  -12.5763   22.2439 N   0  3  0  0  0  0  0  0  0  0  0  0
  -26.0187  -28.7867   24.5511 O   0  0  0  0  0  0  0  0  0  0  0  0
  -27.2952  -18.4067   19.8303 O   0  0  0  0  0  0  0  0  0  0  0  0
  -27.1066  -14.7682   20.7897 O   0  0  0  0  0  0  0  0  0  0  0  0
  -22.3738  -14.6671   20.4559 O   0  0  0  0  0  0  0  0  0  0  0  0
  -19.2959  -25.7650   18.1284 O   0  0  0  0  0  0  0  0  0  0  0  0
  -31.2821  -26.1553   19.4561 O   0  0  0  0  0  0  0  0  0  0  0  0
  -21.8001  -21.2424   22.1255 O   0  0  0  0  0  0  0  0  0  1  0  0
  -31.7072  -21.5553   16.4456 F   0  0  0  0  0  0  0  0  0  0  0  0
  -30.0480  -25.9548   16.9905 F   0  0  0  0  0  0  0  0  0  0  0  0
  1  2  1  0  0  0  0
  1  5  2  0  0  0  0
  2  6  2  0  0  0  0
  3 12  2  0  0  0  0
  3 19  1  0  0  0  0
  4 13  1  0  0  0  0
  4 19  2  0  0  0  0
  5 21  1  0  0  0  0
  6 23  1  0  0  0  0
  7 14  2  0  0  0  0
  7 22  1  0  0  0  0
  8 10  2  0  0  0  0
  8 25  1  0  0  0  0
  9 11  1  0  0  0  0
  9 25  2  0  0  0  0
 10 26  1  0  0  0  0
 11 26  2  0  0  0  0
 12 27  1  0  0  0  0
 13 27  2  0  0  0  0
 14 28  1  0  0  0  0
 15 16  2  0  0  0  0
 15 29  1  0  0  0  0
 16 30  1  0  0  0  0
 17 24  1  0  0  0  0
 17 28  2  0  0  0  0
 18 30  2  0  0  0  0
 18 31  1  0  0  0  0
 19 32  1  0  0  0  0
 20 32  1  0  0  0  0
 20 33  2  0  0  0  0
 20 34  1  0  0  0  0
 21 23  2  0  0  0  0
 21 39  1  0  0  0  0
 22 24  2  0  0  0  0
 22 40  1  0  0  0  0
 23 52  1  0  0  0  0
 24 41  1  0  0  0  0
 25 69  1  0  0  0  0
 26 76  1  0  0  0  0
 27 83  1  0  0  0  0
 28 84  1  0  0  0  0
 29 31  2  0  0  0  0
 29 83  1  0  0  0  0
 30 85  1  0  0  0  0
 31 86  1  0  0  0  0
 32 67  2  0  0  0  0
 33 68  1  0  0  0  0
 33 72  1  0  0  0  0
 34 73  1  0  0  0  0
 34 78  2  0  0  0  0
 35 53  1  0  0  0  0
 35 74  1  0  0  0  0
 35 79  2  0  0  0  0
 36 64  1  0  0  0  0
 36 70  1  0  0  0  0
 36 80  2  0  0  0  0
 37 65  1  0  0  0  0
 37 75  1  0  0  0  0
 37 81  2  0  0  0  0
 38 71  1  0  0  0  0
 38 76  1  0  0  0  0
 38 82  2  0  0  0  0
 39 42  1  0  0  0  0
 40 53  1  0  0  0  0
 41 70  1  0  0  0  0
 42 46  1  0  0  0  0
 43 44  1  0  0  0  0
 43 48  1  0  0  0  0
 44 49  1  0  0  0  0
 45 47  1  0  0  0  0
 45 50  1  0  0  0  0
 46 52  1  0  0  0  0
 47 54  1  0  0  0  0
 48 69  1  0  0  0  0
 49 69  1  0  0  0  0
 50 71  1  0  0  0  0
 51 54  1  0  0  0  0
 51 71  1  0  0  0  0
 52 74  1  0  0  0  0
 53 70  1  0  0  0  0
 54 68  1  0  0  0  0
 55 65  1  0  0  0  0
 56 66  1  0  0  0  0
 57 66  1  0  0  0  0
 58 66  1  0  0  0  0
 59 77  1  0  0  0  0
 60 61  1  0  0  0  0
 60 62  1  0  0  0  0
 61 63  1  0  0  0  0
 62 76  1  0  0  0  0
 63 84  1  0  0  0  0
 64 66  1  0  0  0  0
 64 75  1  0  0  0  0
 65 77  1  0  0  0  0
 67 68  1  0  0  0  0
M  CHG  1  77   1
M  ISO  4  38 100  63 101  76 100  84 101
M  END
> <Batch ID>
0018

> <Smiles>
CNC(C)C(=O)NC(C(=O)N1Cc2cc([101O:1][101CH2:1]CCC[100N:0](c3ccc(N4CCCC4)cc3)[100C:0](=O)N3CCCC(n4nc(-c5ccc(Oc6ccc(F)cc6F)cc5)c(C(N)=O)c4N)C3)ccc2CC1C(=O)NC1CCCc2ccccc21)C(C)(C)C

> <Shape>
0.209

> <Color>
0.084

> <Negative vol penalty>
0.000

$$$$

  -OEChem-04042321033D

 82 90  0     1  0  0  0  0  0999 V2000
  -39.3964  -28.9430   21.8906 C   0  0  0  0  0  0  0  0  0  0  0  0
  -38.3722  -28.2573   22.5358 C   0  0  0  0  0  0  0  0  0  0  0  0
  -23.0070   -9.8885   19.9649 C   0  0  0  0  0  0  0  0  0  0  0  0
  -23.7378   -9.9140   22.2676 C   0  0  0  0  0  0  0  0  0  0  0  0
  -39.2260  -29.3716   20.5748 C   0  0  0  0  0  0  0  0  0  0  0  0
  -37.1765  -28.0006   21.8658 C   0  0  0  0  0  0  0  0  0  0  0  0
  -35.5522  -23.2518   22.5407 C   0  0  0  0  0  0  0  0  0  0  0  0
  -32.6297  -17.4393   23.5072 C   0  0  0  0  0  0  0  0  0  0  0  0
  -32.0404  -16.5521   22.6065 C   0  0  0  0  0  0  0  0  0  0  0  0
  -22.2463   -8.7473   20.2189 C   0  0  0  0  0  0  0  0  0  0  0  0
  -22.9771   -8.7728   22.5216 C   0  0  0  0  0  0  0  0  0  0  0  0
  -34.9279  -22.9586   23.7523 C   0  0  0  0  0  0  0  0  0  0  0  0
  -23.2354   -5.4411   22.0073 C   0  0  0  0  0  0  0  0  0  0  0  0
  -23.8294   -4.4173   22.7451 C   0  0  0  0  0  0  0  0  0  0  0  0
  -32.7744  -23.1502   22.6822 C   0  0  0  0  0  0  0  0  0  0  0  0
  -30.4510  -18.3240   24.0615 C   0  0  0  0  0  0  0  0  0  0  0  0
  -22.1088   -4.6313   24.4275 C   0  0  0  0  0  0  0  0  0  0  0  0
  -23.7528  -10.4719   20.9892 C   0  0  0  0  0  0  0  0  0  0  0  0
  -24.1262  -12.9912   20.8438 C   0  0  0  0  0  0  0  0  0  0  0  0
  -38.0312  -29.1116   19.8852 C   0  0  0  0  0  0  0  0  0  0  0  0
  -34.7907  -23.5076   21.3912 C   0  0  0  0  0  0  0  0  0  0  0  0
  -36.9894  -28.4273   20.5400 C   0  0  0  0  0  0  0  0  0  0  0  0
  -33.3915  -23.4440   21.4566 C   0  0  0  0  0  0  0  0  0  0  0  0
  -31.8350  -18.3252   24.2348 C   0  0  0  0  0  0  0  0  0  0  0  0
  -30.6564  -16.5510   22.4332 C   0  0  0  0  0  0  0  0  0  0  0  0
  -22.2313   -8.1894   21.4972 C   0  0  0  0  0  0  0  0  0  0  0  0
  -33.5387  -22.9106   23.8238 C   0  0  0  0  0  0  0  0  0  0  0  0
  -22.0780   -6.0602   22.4796 C   0  0  0  0  0  0  0  0  0  0  0  0
  -23.2661   -4.0124   23.9552 C   0  0  0  0  0  0  0  0  0  0  0  0
  -29.8616  -17.4369   23.1607 C   0  0  0  0  0  0  0  0  0  0  0  0
  -21.5147   -5.6552   23.6897 C   0  0  0  0  0  0  0  0  0  0  0  0
  -24.5392  -11.6504   20.7273 C   0  0  0  0  0  0  0  0  0  0  0  0
  -25.2318  -13.7234   20.4857 C   0  0  0  0  0  0  0  0  0  0  0  0
  -22.8568  -13.5269   21.2403 C   0  0  0  0  0  0  0  0  0  0  0  0
  -34.4288  -25.9973   19.4485 C   0  0  0  0  0  0  0  0  0  0  0  0
  -32.6381  -23.9044   17.7352 C   0  0  0  0  0  0  0  0  0  0  0  0
  -30.7454  -21.0649   17.6969 C   0  0  0  0  0  0  0  0  0  0  0  0
  -30.7074  -14.7065   20.7181 C   0  0  0  0  0  0  0  0  0  0  0  0
  -37.8754  -29.6360   18.4797 C   0  0  0  0  0  0  0  0  0  0  0  0
  -35.4799  -23.7962   20.0858 C   0  0  0  0  0  0  0  0  0  0  0  0
  -32.5291  -23.6908   20.2468 C   0  0  0  0  0  0  0  0  0  0  0  0
  -36.7195  -28.9958   17.7154 C   0  0  0  0  0  0  0  0  0  0  0  0
  -29.5944  -12.2778   18.3644 C   0  0  0  0  0  0  0  0  0  0  0  0
  -35.4640  -28.9567   18.5808 C   0  0  0  0  0  0  0  0  0  0  0  0
  -28.1460  -12.0084   18.7789 C   0  0  0  0  0  0  0  0  0  0  0  0
  -30.4968  -12.5102   19.5749 C   0  0  0  0  0  0  0  0  0  0  0  0
  -28.5813  -13.2735   20.9229 C   0  0  0  0  0  0  0  0  0  0  0  0
  -35.6871  -28.1081   19.8385 C   0  0  1  0  0  0  0  0  0  0  0  0
  -34.5944  -24.5462   19.0956 C   0  0  1  0  0  0  0  0  0  0  0  0
  -27.6215  -13.0977   19.7349 C   0  0  2  0  0  0  0  0  0  0  0  0
  -29.3819  -19.6270   16.1572 C   0  0  0  0  0  0  0  0  0  0  0  0
  -30.3855  -25.9611   17.8133 C   0  0  0  0  0  0  0  0  0  0  0  0
  -28.8006  -24.1483   17.1275 C   0  0  0  0  0  0  0  0  0  0  0  0
  -30.6694  -24.8079   15.6124 C   0  0  0  0  0  0  0  0  0  0  0  0
  -32.4886  -18.7178   18.1566 C   0  0  0  0  0  0  0  0  0  0  0  0
  -32.6187  -21.0152   26.7581 C   0  0  0  0  0  0  0  0  0  0  0  0
  -31.6773  -20.1554   25.9232 C   0  0  0  0  0  0  0  0  0  0  0  0
  -33.6314  -21.7804   25.9143 C   0  0  0  0  0  0  0  0  0  1  0  0
  -31.1818  -23.5069   17.7188 C   0  0  1  0  0  0  0  0  0  0  0  0
  -30.7531  -19.8616   16.7714 C   0  0  2  0  0  0  0  0  0  0  0  0
  -30.2752  -24.6032   17.0914 C   0  0  0  0  0  0  0  0  0  0  0  0
  -25.8081  -11.5347   20.3264 N   0  0  0  0  0  0  0  0  0  0  0  0
  -26.2019  -12.8121   20.1878 N   0  0  0  0  0  0  0  0  0  0  0  0
  -33.2497  -23.9752   18.9949 N   0  0  0  0  0  0  0  0  0  0  0  0
  -29.9391  -13.5580   20.4328 N   0  0  0  0  0  0  0  0  0  0  0  0
  -25.4590  -15.0513   20.3997 N   0  0  0  0  0  0  0  0  0  0  0  0
  -21.8299  -12.6338   21.5753 N   0  0  0  0  0  0  0  0  0  0  0  0
  -30.0608  -15.6488   21.5171 N   0  0  0  0  0  0  0  0  0  0  0  0
  -32.4207  -19.2063   25.1303 N   0  0  0  0  0  0  0  0  0  0  0  0
  -35.6174  -26.6989   19.5163 N   0  0  0  0  0  0  0  0  0  0  0  0
  -31.1182  -22.2177   17.0388 N   0  0  0  0  0  0  0  0  0  0  0  0
  -31.1490  -18.6351   17.5197 N   0  3  0  0  0  0  0  0  0  0  0  0
  -22.6345  -14.7608   21.2800 O   0  0  0  0  0  0  0  0  0  0  0  0
  -33.3058  -26.4474   19.6433 O   0  0  0  0  0  0  0  0  0  0  0  0
  -33.2136  -24.1364   16.6691 O   0  0  0  0  0  0  0  0  0  0  0  0
  -30.4357  -20.9902   18.8839 O   0  0  0  0  0  0  0  0  0  0  0  0
  -31.8442  -14.8563   20.2630 O   0  0  0  0  0  0  0  0  0  0  0  0
  -21.4890   -7.0760   21.7455 O   0  0  0  0  0  0  0  0  0  0  0  0
  -32.9268  -22.6252   25.0054 O   0  0  0  0  0  0  0  0  0  1  0  0
  -23.8359   -3.0281   24.6629 F   0  0  0  0  0  0  0  0  0  0  0  0
  -28.5304  -17.4447   23.0017 F   0  0  0  0  0  0  0  0  0  0  0  0
  -20.4022   -6.2454   24.1480 F   0  0  0  0  0  0  0  0  0  0  0  0
  1  2  1  0  0  0  0
  1  5  2  0  0  0  0
  2  6  2  0  0  0  0
  3 10  2  0  0  0  0
  3 18  1  0  0  0  0
  4 11  1  0  0  0  0
  4 18  2  0  0  0  0
  5 20  1  0  0  0  0
  6 22  1  0  0  0  0
  7 12  2  0  0  0  0
  7 21  1  0  0  0  0
  8  9  2  0  0  0  0
  8 24  1  0  0  0  0
  9 25  1  0  0  0  0
 10 26  1  0  0  0  0
 11 26  2  0  0  0  0
 12 27  1  0  0  0  0
 13 14  2  0  0  0  0
 13 28  1  0  0  0  0
 14 29  1  0  0  0  0
 15 23  1  0  0  0  0
 15 27  2  0  0  0  0
 16 24  2  0  0  0  0
 16 30  1  0  0  0  0
 17 29  2  0  0  0  0
 17 31  1  0  0  0  0
 18 32  1  0  0  0  0
 19 32  1  0  0  0  0
 19 33  2  0  0  0  0
 19 34  1  0  0  0  0
 20 22  2  0  0  0  0
 20 39  1  0  0  0  0
 21 23  2  0  0  0  0
 21 40  1  0  0  0  0
 22 48  1  0  0  0  0
 23 41  1  0  0  0  0
 24 69  1  0  0  0  0
 25 30  2  0  0  0  0
 25 68  1  0  0  0  0
 26 78  1  0  0  0  0
 27 79  1  0  0  0  0
 28 31  2  0  0  0  0
 28 78  1  0  0  0  0
 29 80  1  0  0  0  0
 30 81  1  0  0  0  0
 31 82  1  0  0  0  0
 32 62  2  0  0  0  0
 33 63  1  0  0  0  0
 33 66  1  0  0  0  0
 34 67  1  0  0  0  0
 34 73  2  0  0  0  0
 35 49  1  0  0  0  0
 35 70  1  0  0  0  0
 35 74  2  0  0  0  0
 36 59  1  0  0  0  0
 36 64  1  0  0  0  0
 36 75  2  0  0  0  0
 37 60  1  0  0  0  0
 37 71  1  0  0  0  0
 37 76  2  0  0  0  0
 38 65  1  0  0  0  0
 38 68  1  0  0  0  0
 38 77  2  0  0  0  0
 39 42  1  0  0  0  0
 40 49  1  0  0  0  0
 41 64  1  0  0  0  0
 42 44  1  0  0  0  0
 43 45  1  0  0  0  0
 43 46  1  0  0  0  0
 44 48  1  0  0  0  0
 45 50  1  0  0  0  0
 46 65  1  0  0  0  0
 47 50  1  0  0  0  0
 47 65  1  0  0  0  0
 48 70  1  0  0  0  0
 49 64  1  0  0  0  0
 50 63  1  0  0  0  0
 51 60  1  0  0  0  0
 52 61  1  0  0  0  0
 53 61  1  0  0  0  0
 54 61  1  0  0  0  0
 55 72  1  0  0  0  0
 56 57  1  0  0  0  0
 56 58  1  0  0  0  0
 57 69  1  0  0  0  0
 58 79  1  0  0  0  0
 59 61  1  0  0  0  0
 59 71  1  0  0  0  0
 60 72  1  0  0  0  0
 62 63  1  0  0  0  0
M  CHG  1  72   1
M  ISO  4  38 100  58 101  68 100  79 101
M  END
> <Batch ID>
0018

> <Smiles>
CNC(C)C(=O)NC(C(=O)N1Cc2cc([101O:1][101CH2:1]CCNc3ccc([100NH:0][100C:0](=O)N4CCCC(n5nc(-c6ccc(Oc7ccc(F)cc7F)cc6)c(C(N)=O)c5N)C4)c(F)c3)ccc2CC1C(=O)NC1CCCc2ccccc21)C(C)(C)C

> <Shape>
0.207

> <Color>
0.204

> <Negative vol penalty>
0.000

$$$$

  -OEChem-04042321033D

 83 91  0     1  0  0  0  0  0999 V2000
  -25.3412  -21.9476   15.2864 C   0  0  0  0  0  0  0  0  0  0  0  0
  -26.2160  -21.1031   15.9622 C   0  0  0  0  0  0  0  0  0  0  0  0
  -22.3659  -28.3473   20.7716 C   0  0  0  0  0  0  0  0  0  0  0  0
  -23.2702  -26.8299   22.4199 C   0  0  0  0  0  0  0  0  0  0  0  0
  -29.7032  -20.4587   21.0661 C   0  0  0  0  0  0  0  0  0  0  0  0
  -29.9029  -19.7538   18.7639 C   0  0  0  0  0  0  0  0  0  0  0  0
  -24.0506  -22.1477   15.7745 C   0  0  0  0  0  0  0  0  0  0  0  0
  -25.8011  -20.4590   17.1273 C   0  0  0  0  0  0  0  0  0  0  0  0
  -27.1311  -15.5736   17.2251 C   0  0  0  0  0  0  0  0  0  0  0  0
  -29.3645  -21.7440   20.6433 C   0  0  0  0  0  0  0  0  0  0  0  0
  -29.5642  -21.0392   18.3410 C   0  0  0  0  0  0  0  0  0  0  0  0
  -21.0869  -28.1505   21.2921 C   0  0  0  0  0  0  0  0  0  0  0  0
  -21.9912  -26.6331   22.9404 C   0  0  0  0  0  0  0  0  0  0  0  0
  -28.4564  -15.2808   17.5439 C   0  0  0  0  0  0  0  0  0  0  0  0
  -17.6342  -28.3266   22.4159 C   0  0  0  0  0  0  0  0  0  0  0  0
  -16.8327  -29.4516   22.6098 C   0  0  0  0  0  0  0  0  0  0  0  0
  -27.7921  -14.7633   19.8044 C   0  0  0  0  0  0  0  0  0  0  0  0
  -18.4762  -30.3606   24.1295 C   0  0  0  0  0  0  0  0  0  0  0  0
  -23.4576  -27.6870   21.3355 C   0  0  0  0  0  0  0  0  0  0  0  0
  -29.9724  -19.4636   20.1264 C   0  0  0  0  0  0  0  0  0  0  0  0
  -25.7139  -28.8678   21.1859 C   0  0  0  0  0  0  0  0  0  0  0  0
  -23.6164  -21.4982   16.9408 C   0  0  0  0  0  0  0  0  0  0  0  0
  -26.1263  -15.4738   18.1982 C   0  0  0  0  0  0  0  0  0  0  0  0
  -24.5039  -20.6516   17.6322 C   0  0  0  0  0  0  0  0  0  0  0  0
  -26.4544  -15.0530   19.4948 C   0  0  0  0  0  0  0  0  0  0  0  0
  -29.2950  -22.0343   19.2807 C   0  0  0  0  0  0  0  0  0  0  0  0
  -20.8995  -27.2935   22.3765 C   0  0  0  0  0  0  0  0  0  0  0  0
  -28.7875  -14.8784   18.8344 C   0  0  0  0  0  0  0  0  0  0  0  0
  -18.8567  -28.2185   23.0789 C   0  0  0  0  0  0  0  0  0  0  0  0
  -17.2537  -30.4686   23.4665 C   0  0  0  0  0  0  0  0  0  0  0  0
  -19.2777  -29.2356   23.9357 C   0  0  0  0  0  0  0  0  0  0  0  0
  -24.7790  -27.8895   20.7979 C   0  0  0  0  0  0  0  0  0  0  0  0
  -26.8030  -28.6406   20.3804 C   0  0  0  0  0  0  0  0  0  0  0  0
  -30.3310  -18.1028   20.5739 C   0  0  0  0  0  0  0  0  0  0  0  0
  -25.6075  -29.8905   22.1851 C   0  0  0  0  0  0  0  0  0  0  0  0
  -24.0972  -17.5165   19.5450 C   0  0  0  0  0  0  0  0  0  0  0  0
  -22.9127  -14.8285   20.9211 C   0  0  0  0  0  0  0  0  0  0  0  0
  -23.4458  -11.6094   21.9213 C   0  0  0  0  0  0  0  0  0  0  0  0
  -28.8377  -23.7946   17.5376 C   0  0  0  0  0  0  0  0  0  0  0  0
  -22.2278  -21.7825   17.4560 C   0  0  0  0  0  0  0  0  0  0  0  0
  -24.6974  -15.7675   17.8314 C   0  0  0  0  0  0  0  0  0  0  0  0
  -25.4099  -14.9104   20.5705 C   0  0  0  0  0  0  0  0  0  0  0  0
  -21.7427  -20.7702   18.4904 C   0  0  0  0  0  0  0  0  0  0  0  0
  -27.9774  -26.9214   16.0678 C   0  0  0  0  0  0  0  0  0  0  0  0
  -22.8262  -20.5109   19.5325 C   0  0  0  0  0  0  0  0  0  0  0  0
  -27.1498  -27.6160   17.1516 C   0  0  0  0  0  0  0  0  0  0  0  0
  -27.7128  -25.4173   16.0288 C   0  0  0  0  0  0  0  0  0  0  0  0
  -27.0406  -25.4207   18.3989 C   0  0  0  0  0  0  0  0  0  0  0  0
  -24.0826  -19.9157   18.8856 C   0  0  1  0  0  0  0  0  0  0  0  0
  -23.8333  -16.1277   19.0359 C   0  0  1  0  0  0  0  0  0  0  0  0
  -27.3215  -26.9274   18.5198 C   0  0  2  0  0  0  0  0  0  0  0  0
  -22.3014   -9.6821   23.0497 C   0  0  0  0  0  0  0  0  0  0  0  0
  -23.2471  -16.2129   23.6195 C   0  0  0  0  0  0  0  0  0  0  0  0
  -23.0093  -13.9759   24.7182 C   0  0  0  0  0  0  0  0  0  0  0  0
  -21.1278  -14.9085   23.3718 C   0  0  0  0  0  0  0  0  0  0  0  0
  -23.7551   -9.8805   19.5392 C   0  0  0  0  0  0  0  0  0  0  0  0
  -32.3050  -15.4721   19.3384 C   0  0  0  0  0  0  0  0  0  0  0  0
  -31.9869  -16.2713   20.5911 C   0  0  0  0  0  0  0  0  0  0  0  0
  -31.0938  -15.2964   18.4313 C   0  0  0  0  0  0  0  0  0  1  0  0
  -23.1972  -14.0630   22.1908 C   0  0  1  0  0  0  0  0  0  0  0  0
  -22.6310  -10.3443   21.7209 C   0  0  2  0  0  0  0  0  0  0  0  0
  -22.6656  -14.7945   23.4555 C   0  0  0  0  0  0  0  0  0  0  0  0
  -25.2342  -27.0996   19.8217 N   0  0  0  0  0  0  0  0  0  0  0  0
  -26.4671  -27.5814   19.5895 N   0  0  0  0  0  0  0  0  0  0  0  0
  -24.0279  -15.2151   20.1643 N   0  0  0  0  0  0  0  0  0  0  0  0
  -27.8987  -24.8325   17.3586 N   0  0  0  0  0  0  0  0  0  0  0  0
  -28.0055  -29.2455   20.2786 N   0  0  0  0  0  0  0  0  0  0  0  0
  -29.4508  -17.4343   21.3191 N   0  0  0  0  0  0  0  0  0  0  0  0
  -24.4188  -29.9836   22.9219 N   0  0  0  0  0  0  0  0  0  0  0  0
  -28.9510  -23.3399   18.8510 N   0  0  0  0  0  0  0  0  0  0  0  0
  -23.8891  -18.5089   18.6062 N   0  0  0  0  0  0  0  0  0  0  0  0
  -22.6427  -12.7278   21.9954 N   0  0  0  0  0  0  0  0  0  0  0  0
  -31.5215  -17.6059   20.2133 N   0  3  0  0  0  0  0  0  0  0  0  0
  -23.3858   -9.3691   20.8842 N   0  3  0  0  0  0  0  0  0  0  0  0
  -26.5326  -30.7082   22.4065 O   0  0  0  0  0  0  0  0  0  0  0  0
  -24.4612  -17.6761   20.7042 O   0  0  0  0  0  0  0  0  0  0  0  0
  -21.7438  -15.0681   20.6085 O   0  0  0  0  0  0  0  0  0  0  0  0
  -24.6718  -11.6054   22.0074 O   0  0  0  0  0  0  0  0  0  0  0  0
  -29.5125  -23.3611   16.6002 O   0  0  0  0  0  0  0  0  0  0  0  0
  -19.6516  -27.1014   22.8849 O   0  0  0  0  0  0  0  0  0  0  0  0
  -30.0805  -14.5926   19.1484 O   0  0  0  0  0  0  0  0  0  1  0  0
  -16.4847  -31.5497   23.6513 F   0  0  0  0  0  0  0  0  0  0  0  0
  -20.4517  -29.1379   24.5745 F   0  0  0  0  0  0  0  0  0  0  0  0
  1  2  1  0  0  0  0
  1  7  2  0  0  0  0
  2  8  2  0  0  0  0
  3 12  2  0  0  0  0
  3 19  1  0  0  0  0
  4 13  1  0  0  0  0
  4 19  2  0  0  0  0
  5 10  2  0  0  0  0
  5 20  1  0  0  0  0
  6 11  1  0  0  0  0
  6 20  2  0  0  0  0
  7 22  1  0  0  0  0
  8 24  1  0  0  0  0
  9 14  2  0  0  0  0
  9 23  1  0  0  0  0
 10 26  1  0  0  0  0
 11 26  2  0  0  0  0
 12 27  1  0  0  0  0
 13 27  2  0  0  0  0
 14 28  1  0  0  0  0
 15 16  2  0  0  0  0
 15 29  1  0  0  0  0
 16 30  1  0  0  0  0
 17 25  1  0  0  0  0
 17 28  2  0  0  0  0
 18 30  2  0  0  0  0
 18 31  1  0  0  0  0
 19 32  1  0  0  0  0
 20 34  1  0  0  0  0
 21 32  1  0  0  0  0
 21 33  2  0  0  0  0
 21 35  1  0  0  0  0
 22 24  2  0  0  0  0
 22 40  1  0  0  0  0
 23 25  2  0  0  0  0
 23 41  1  0  0  0  0
 24 49  1  0  0  0  0
 25 42  1  0  0  0  0
 26 70  1  0  0  0  0
 27 80  1  0  0  0  0
 28 81  1  0  0  0  0
 29 31  2  0  0  0  0
 29 80  1  0  0  0  0
 30 82  1  0  0  0  0
 31 83  1  0  0  0  0
 32 63  2  0  0  0  0
 33 64  1  0  0  0  0
 33 67  1  0  0  0  0
 34 68  1  0  0  0  0
 34 73  2  0  0  0  0
 35 69  1  0  0  0  0
 35 75  2  0  0  0  0
 36 50  1  0  0  0  0
 36 71  1  0  0  0  0
 36 76  2  0  0  0  0
 37 60  1  0  0  0  0
 37 65  1  0  0  0  0
 37 77  2  0  0  0  0
 38 61  1  0  0  0  0
 38 72  1  0  0  0  0
 38 78  2  0  0  0  0
 39 66  1  0  0  0  0
 39 70  1  0  0  0  0
 39 79  2  0  0  0  0
 40 43  1  0  0  0  0
 41 50  1  0  0  0  0
 42 65  1  0  0  0  0
 43 45  1  0  0  0  0
 44 46  1  0  0  0  0
 44 47  1  0  0  0  0
 45 49  1  0  0  0  0
 46 51  1  0  0  0  0
 47 66  1  0  0  0  0
 48 51  1  0  0  0  0
 48 66  1  0  0  0  0
 49 71  1  0  0  0  0
 50 65  1  0  0  0  0
 51 64  1  0  0  0  0
 52 61  1  0  0  0  0
 53 62  1  0  0  0  0
 54 62  1  0  0  0  0
 55 62  1  0  0  0  0
 56 74  1  0  0  0  0
 57 58  1  0  0  0  0
 57 59  1  0  0  0  0
 58 73  1  0  0  0  0
 59 81  1  0  0  0  0
 60 62  1  0  0  0  0
 60 72  1  0  0  0  0
 61 74  1  0  0  0  0
 63 64  1  0  0  0  0
M  CHG  2  73   1  74   1
M  ISO  4  39 100  59 101  70 100  81 101
M  END
> <Batch ID>
0018

> <Smiles>
CNC(C)C(=O)NC(C(=O)N1Cc2cc([101O:1][101CH2:1]CCNC(=N)c3ccc([100NH:0][100C:0](=O)N4CCCC(n5nc(-c6ccc(Oc7ccc(F)cc7F)cc6)c(C(N)=O)c5N)C4)cc3)ccc2CC1C(=O)NC1CCCc2ccccc21)C(C)(C)C

> <Shape>
0.247

> <Color>
0.057

> <Negative vol penalty>
0.000

$$$$

  -OEChem-04042321033D

 85 93  0     1  0  0  0  0  0999 V2000
  -29.7317  -12.6081   20.0112 C   0  0  0  0  0  0  0  0  0  0  0  0
  -29.5649  -13.7219   20.8280 C   0  0  0  0  0  0  0  0  0  0  0  0
  -28.9687  -26.2363   19.4699 C   0  0  0  0  0  0  0  0  0  0  0  0
  -26.9131  -24.9813   19.2786 C   0  0  0  0  0  0  0  0  0  0  0  0
  -28.8636  -12.3933   18.9415 C   0  0  0  0  0  0  0  0  0  0  0  0
  -28.5305  -14.6221   20.5749 C   0  0  0  0  0  0  0  0  0  0  0  0
  -23.9989  -19.0154   23.9631 C   0  0  0  0  0  0  0  0  0  0  0  0
  -18.5585  -28.6983   23.5932 C   0  0  0  0  0  0  0  0  0  0  0  0
  -19.8454  -27.8383   21.7382 C   0  0  0  0  0  0  0  0  0  0  0  0
  -18.2428  -27.3954   23.9783 C   0  0  0  0  0  0  0  0  0  0  0  0
  -19.5298  -26.5353   22.1233 C   0  0  0  0  0  0  0  0  0  0  0  0
  -29.7015  -25.0594   19.3168 C   0  0  0  0  0  0  0  0  0  0  0  0
  -27.6460  -23.8043   19.1254 C   0  0  0  0  0  0  0  0  0  0  0  0
  -23.5677  -20.3411   23.9446 C   0  0  0  0  0  0  0  0  0  0  0  0
  -28.9701  -20.4206   19.0441 C   0  0  0  0  0  0  0  0  0  0  0  0
  -28.5580  -19.3014   19.7675 C   0  0  0  0  0  0  0  0  0  0  0  0
  -22.0808  -19.8257   22.1163 C   0  0  0  0  0  0  0  0  0  0  0  0
  -28.8993  -20.5099   21.8315 C   0  0  0  0  0  0  0  0  0  0  0  0
  -27.5745  -26.1972   19.4509 C   0  0  0  0  0  0  0  0  0  0  0  0
  -26.3808  -28.2815   18.5915 C   0  0  0  0  0  0  0  0  0  0  0  0
  -27.8122  -13.2861   18.6810 C   0  0  0  0  0  0  0  0  0  0  0  0
  -23.4814  -18.0858   23.0496 C   0  0  0  0  0  0  0  0  0  0  0  0
  -27.6483  -14.4196   19.4999 C   0  0  0  0  0  0  0  0  0  0  0  0
  -22.5052  -18.4882   22.1270 C   0  0  0  0  0  0  0  0  0  0  0  0
  -19.3598  -28.9198   22.4731 C   0  0  0  0  0  0  0  0  0  0  0  0
  -18.7284  -26.3139   23.2434 C   0  0  0  0  0  0  0  0  0  0  0  0
  -29.0402  -23.8435   19.1445 C   0  0  0  0  0  0  0  0  0  0  0  0
  -22.6107  -20.7471   23.0192 C   0  0  0  0  0  0  0  0  0  0  0  0
  -29.3469  -21.5844   19.7144 C   0  0  0  0  0  0  0  0  0  0  0  0
  -28.5226  -19.3461   21.1612 C   0  0  0  0  0  0  0  0  0  0  0  0
  -29.3114  -21.6291   21.1081 C   0  0  0  0  0  0  0  0  0  0  0  0
  -26.8169  -27.4125   19.6096 C   0  0  0  0  0  0  0  0  0  0  0  0
  -25.7092  -29.2787   19.2556 C   0  0  0  0  0  0  0  0  0  0  0  0
  -26.5662  -28.1951   17.1724 C   0  0  0  0  0  0  0  0  0  0  0  0
  -24.7129  -16.2981   20.7277 C   0  0  0  0  0  0  0  0  0  0  0  0
  -21.7156  -15.0622   20.6211 C   0  0  0  0  0  0  0  0  0  0  0  0
  -18.3880  -15.4732   21.2574 C   0  0  0  0  0  0  0  0  0  0  0  0
  -21.8484  -30.4645   23.2562 C   0  0  0  0  0  0  0  0  0  0  0  0
  -26.9281  -13.0372   17.4847 C   0  0  0  0  0  0  0  0  0  0  0  0
  -23.9373  -16.6533   23.1001 C   0  0  0  0  0  0  0  0  0  0  0  0
  -21.9033  -17.5245   21.1383 C   0  0  0  0  0  0  0  0  0  0  0  0
  -25.6289  -13.8383   17.5102 C   0  0  0  0  0  0  0  0  0  0  0  0
  -25.4325  -30.3744   24.1768 C   0  0  0  0  0  0  0  0  0  0  0  0
  -25.9062  -15.2938   17.8730 C   0  0  0  0  0  0  0  0  0  0  0  0
  -26.0556  -29.6027   23.0147 C   0  0  0  0  0  0  0  0  0  0  0  0
  -23.9773  -29.9773   24.4059 C   0  0  0  0  0  0  0  0  0  0  0  0
  -23.7451  -29.3261   22.0318 C   0  0  0  0  0  0  0  0  0  0  0  0
  -26.5230  -15.4056   19.2725 C   0  0  1  0  0  0  0  0  0  0  0  0
  -23.7191  -15.9101   21.7858 C   0  0  1  0  0  0  0  0  0  0  0  0
  -25.1973  -29.7362   21.7447 C   0  0  2  0  0  0  0  0  0  0  0  0
  -21.3668  -32.6321   20.7487 C   0  0  0  0  0  0  0  0  0  0  0  0
  -16.1793  -14.3046   21.0266 C   0  0  0  0  0  0  0  0  0  0  0  0
  -21.6971  -15.6918   17.6355 C   0  0  0  0  0  0  0  0  0  0  0  0
  -19.2102  -15.4039   17.6612 C   0  0  0  0  0  0  0  0  0  0  0  0
  -20.6925  -13.4834   18.2422 C   0  0  0  0  0  0  0  0  0  0  0  0
  -17.5733  -24.7722   24.8083 C   0  0  0  0  0  0  0  0  0  0  0  0
  -17.9433  -15.4878   24.1833 C   0  0  0  0  0  0  0  0  0  0  0  0
  -19.6975  -30.3125   22.0603 C   0  0  0  0  0  0  0  0  0  0  0  0
  -20.3127  -23.5085   23.2917 C   0  0  0  0  0  0  0  0  0  0  0  0
  -21.6637  -31.1482   20.8270 C   0  0  0  0  0  0  0  0  0  0  0  0
  -18.8872  -23.8629   22.8860 C   0  0  0  0  0  0  0  0  0  0  0  0
  -20.8498  -22.2801   22.5665 C   0  0  0  0  0  0  0  0  0  1  0  0
  -20.4467  -15.3979   19.8752 C   0  0  1  0  0  0  0  0  0  0  0  0
  -17.3723  -14.5689   21.9320 C   0  0  2  0  0  0  0  0  0  0  0  0
  -20.5242  -15.0131   18.3708 C   0  0  0  0  0  0  0  0  0  0  0  0
  -26.4530  -27.8218   20.8278 N   0  0  0  0  0  0  0  0  0  0  0  0
  -25.7812  -28.9590   20.5795 N   0  0  0  0  0  0  0  0  0  0  0  0
  -22.3862  -16.1363   21.2232 N   0  0  0  0  0  0  0  0  0  0  0  0
  -23.1944  -30.0720   23.1733 N   0  0  0  0  0  0  0  0  0  0  0  0
  -25.0699  -30.3891   18.8304 N   0  0  0  0  0  0  0  0  0  0  0  0
  -27.2807  -27.1049   16.6572 N   0  0  0  0  0  0  0  0  0  0  0  0
  -25.5032  -15.2533   20.2879 N   0  0  0  0  0  0  0  0  0  0  0  0
  -19.3616  -14.7487   20.6029 N   0  0  0  0  0  0  0  0  0  0  0  0
  -18.4128  -25.0038   23.6313 N   0  0  3  0  0  0  0  0  0  0  0  0
  -21.1331  -30.5549   22.0525 N   0  0  0  0  0  0  0  0  0  0  0  0
  -16.8774  -15.1944   23.1909 N   0  3  0  0  0  0  0  0  0  0  0  0
  -26.1259  -29.0675   16.3860 O   0  0  0  0  0  0  0  0  0  0  0  0
  -24.7583  -17.4590   20.3380 O   0  0  0  0  0  0  0  0  0  0  0  0
  -22.0939  -13.8893   20.6737 O   0  0  0  0  0  0  0  0  0  0  0  0
  -18.3221  -16.6996   21.3031 O   0  0  0  0  0  0  0  0  0  0  0  0
  -21.3189  -30.7289   24.3433 O   0  0  0  0  0  0  0  0  0  0  0  0
  -29.7550  -22.6949   18.9948 O   0  0  0  0  0  0  0  0  0  0  0  0
  -22.1885  -22.0406   22.9986 O   0  0  0  0  0  0  0  0  0  1  0  0
  -28.1254  -18.2718   21.8557 F   0  0  0  0  0  0  0  0  0  0  0  0
  -29.6711  -22.7447   21.7576 F   0  0  0  0  0  0  0  0  0  0  0  0
  1  2  1  0  0  0  0
  1  5  2  0  0  0  0
  2  6  2  0  0  0  0
  3 12  2  0  0  0  0
  3 19  1  0  0  0  0
  4 13  1  0  0  0  0
  4 19  2  0  0  0  0
  5 21  1  0  0  0  0
  6 23  1  0  0  0  0
  7 14  2  0  0  0  0
  7 22  1  0  0  0  0
  8 10  2  0  0  0  0
  8 25  1  0  0  0  0
  9 11  1  0  0  0  0
  9 25  2  0  0  0  0
 10 26  1  0  0  0  0
 11 26  2  0  0  0  0
 12 27  1  0  0  0  0
 13 27  2  0  0  0  0
 14 28  1  0  0  0  0
 15 16  2  0  0  0  0
 15 29  1  0  0  0  0
 16 30  1  0  0  0  0
 17 24  1  0  0  0  0
 17 28  2  0  0  0  0
 18 30  2  0  0  0  0
 18 31  1  0  0  0  0
 19 32  1  0  0  0  0
 20 32  1  0  0  0  0
 20 33  2  0  0  0  0
 20 34  1  0  0  0  0
 21 23  2  0  0  0  0
 21 39  1  0  0  0  0
 22 24  2  0  0  0  0
 22 40  1  0  0  0  0
 23 48  1  0  0  0  0
 24 41  1  0  0  0  0
 25 58  1  0  0  0  0
 26 74  1  0  0  0  0
 27 82  1  0  0  0  0
 28 83  1  0  0  0  0
 29 31  2  0  0  0  0
 29 82  1  0  0  0  0
 30 84  1  0  0  0  0
 31 85  1  0  0  0  0
 32 66  2  0  0  0  0
 33 67  1  0  0  0  0
 33 70  1  0  0  0  0
 34 71  1  0  0  0  0
 34 77  2  0  0  0  0
 35 49  1  0  0  0  0
 35 72  1  0  0  0  0
 35 78  2  0  0  0  0
 36 63  1  0  0  0  0
 36 68  1  0  0  0  0
 36 79  2  0  0  0  0
 37 64  1  0  0  0  0
 37 73  1  0  0  0  0
 37 80  2  0  0  0  0
 38 69  1  0  0  0  0
 38 75  1  0  0  0  0
 38 81  2  0  0  0  0
 39 42  1  0  0  0  0
 40 49  1  0  0  0  0
 41 68  1  0  0  0  0
 42 44  1  0  0  0  0
 43 45  1  0  0  0  0
 43 46  1  0  0  0  0
 44 48  1  0  0  0  0
 45 50  1  0  0  0  0
 46 69  1  0  0  0  0
 47 50  1  0  0  0  0
 47 69  1  0  0  0  0
 48 72  1  0  0  0  0
 49 68  1  0  0  0  0
 50 67  1  0  0  0  0
 51 60  1  0  0  0  0
 52 64  1  0  0  0  0
 53 65  1  0  0  0  0
 54 65  1  0  0  0  0
 55 65  1  0  0  0  0
 56 74  1  0  0  0  0
 57 76  1  0  0  0  0
 58 75  1  0  0  0  0
 59 61  1  0  0  0  0
 59 62  1  0  0  0  0
 60 75  1  0  0  0  0
 61 74  1  0  0  0  0
 62 83  1  0  0  0  0
 63 65  1  0  0  0  0
 63 73  1  0  0  0  0
 64 76  1  0  0  0  0
 66 67  1  0  0  0  0
M  CHG  1  76   1
M  ISO  4  38 100  62 101  75 100  83 101
M  END
> <Batch ID>
0018

> <Smiles>
CC[100N:0](Cc1ccc(N(C)CC[101CH2:1][101O:1]c2ccc3c(c2)CN(C(=O)C(NC(=O)C(C)NC)C(C)(C)C)C(C(=O)NC2CCCc4ccccc42)C3)cc1)[100C:0](=O)N1CCCC(n2nc(-c3ccc(Oc4ccc(F)cc4F)cc3)c(C(N)=O)c2N)C1

> <Shape>
0.225

> <Color>
0.087

> <Negative vol penalty>
0.000

$$$$

  -OEChem-04042321033D

 87 95  0     1  0  0  0  0  0999 V2000
  -39.1649  -27.3182   18.8808 C   0  0  0  0  0  0  0  0  0  0  0  0
  -38.3116  -26.2916   18.4892 C   0  0  0  0  0  0  0  0  0  0  0  0
  -23.2919   -9.7903   19.9120 C   0  0  0  0  0  0  0  0  0  0  0  0
  -23.7157   -9.9396   22.2858 C   0  0  0  0  0  0  0  0  0  0  0  0
  -39.0196  -27.9025   20.1384 C   0  0  0  0  0  0  0  0  0  0  0  0
  -37.3131  -25.8479   19.3555 C   0  0  0  0  0  0  0  0  0  0  0  0
  -32.8595  -25.2208   17.0281 C   0  0  0  0  0  0  0  0  0  0  0  0
  -29.5766  -16.6248   19.3670 C   0  0  0  0  0  0  0  0  0  0  0  0
  -27.6165  -17.3445   18.1515 C   0  0  0  0  0  0  0  0  0  0  0  0
  -29.2273  -17.4625   20.4262 C   0  0  0  0  0  0  0  0  0  0  0  0
  -27.2673  -18.1822   19.2107 C   0  0  0  0  0  0  0  0  0  0  0  0
  -22.5596   -8.6209   20.1162 C   0  0  0  0  0  0  0  0  0  0  0  0
  -22.9833   -8.7701   22.4901 C   0  0  0  0  0  0  0  0  0  0  0  0
  -32.6980  -24.0669   16.2625 C   0  0  0  0  0  0  0  0  0  0  0  0
  -20.9220   -6.0213   23.6787 C   0  0  0  0  0  0  0  0  0  0  0  0
  -20.0081   -6.0032   24.7323 C   0  0  0  0  0  0  0  0  0  0  0  0
  -31.4767  -23.0435   18.0737 C   0  0  0  0  0  0  0  0  0  0  0  0
  -18.8156   -7.8497   23.7295 C   0  0  0  0  0  0  0  0  0  0  0  0
  -23.8700  -10.4496   20.9968 C   0  0  0  0  0  0  0  0  0  0  0  0
  -24.1394  -12.9780   20.7906 C   0  0  0  0  0  0  0  0  0  0  0  0
  -38.0127  -27.4722   21.0168 C   0  0  0  0  0  0  0  0  0  0  0  0
  -32.3393  -25.2909   18.3284 C   0  0  0  0  0  0  0  0  0  0  0  0
  -37.1550  -26.4260   20.6266 C   0  0  0  0  0  0  0  0  0  0  0  0
  -31.6307  -24.2004   18.8527 C   0  0  0  0  0  0  0  0  0  0  0  0
  -28.7712  -16.5659   18.2296 C   0  0  0  0  0  0  0  0  0  0  0  0
  -28.0727  -18.2411   20.3481 C   0  0  0  0  0  0  0  0  0  0  0  0
  -22.4053   -8.1108   21.4052 C   0  0  0  0  0  0  0  0  0  0  0  0
  -32.0091  -22.9769   16.7863 C   0  0  0  0  0  0  0  0  0  0  0  0
  -20.7828   -6.9536   22.6506 C   0  0  0  0  0  0  0  0  0  0  0  0
  -18.9549   -6.9174   24.7577 C   0  0  0  0  0  0  0  0  0  0  0  0
  -19.7296   -7.8678   22.6760 C   0  0  0  0  0  0  0  0  0  0  0  0
  -24.6271  -11.6574   20.7864 C   0  0  0  0  0  0  0  0  0  0  0  0
  -25.2461  -13.7535   20.5452 C   0  0  0  0  0  0  0  0  0  0  0  0
  -22.8053  -13.4606   20.9979 C   0  0  0  0  0  0  0  0  0  0  0  0
  -33.5883  -25.6701   21.2267 C   0  0  0  0  0  0  0  0  0  0  0  0
  -30.4744  -25.8081   22.1248 C   0  0  0  0  0  0  0  0  0  0  0  0
  -27.2268  -25.0031   21.4526 C   0  0  0  0  0  0  0  0  0  0  0  0
  -29.8444  -14.4971   17.3023 C   0  0  0  0  0  0  0  0  0  0  0  0
  -37.9246  -28.1020   22.3844 C   0  0  0  0  0  0  0  0  0  0  0  0
  -32.4988  -26.5527   19.1314 C   0  0  0  0  0  0  0  0  0  0  0  0
  -31.0353  -24.2325   20.2358 C   0  0  0  0  0  0  0  0  0  0  0  0
  -36.6024  -27.8288   23.0967 C   0  0  0  0  0  0  0  0  0  0  0  0
  -30.1611  -12.6116   20.4704 C   0  0  0  0  0  0  0  0  0  0  0  0
  -36.2345  -26.3522   22.9915 C   0  0  0  0  0  0  0  0  0  0  0  0
  -28.7152  -12.2332   20.7861 C   0  0  0  0  0  0  0  0  0  0  0  0
  -30.3945  -12.7542   18.9695 C   0  0  0  0  0  0  0  0  0  0  0  0
  -28.0104  -13.3370   18.6259 C   0  0  0  0  0  0  0  0  0  0  0  0
  -36.0439  -25.9340   21.5285 C   0  0  1  0  0  0  0  0  0  0  0  0
  -32.3722  -26.3244   20.6345 C   0  0  1  0  0  0  0  0  0  0  0  0
  -27.7398  -13.2269   20.1338 C   0  0  1  0  0  0  0  0  0  0  0  0
  -24.9092  -25.2187   22.3904 C   0  0  0  0  0  0  0  0  0  0  0  0
  -31.0890  -23.6046   24.1439 C   0  0  0  0  0  0  0  0  0  0  0  0
  -28.6260  -23.2094   24.3575 C   0  0  0  0  0  0  0  0  0  0  0  0
  -29.5936  -25.4169   25.0005 C   0  0  0  0  0  0  0  0  0  0  0  0
  -31.4749  -16.4212   15.4009 C   0  0  0  0  0  0  0  0  0  0  0  0
  -29.8787  -17.5834   13.8790 C   0  0  0  0  0  0  0  0  0  0  0  0
  -28.5495  -19.1548   22.6059 C   0  0  0  0  0  0  0  0  0  0  0  0
  -26.5293  -19.9110   21.3429 C   0  0  0  0  0  0  0  0  0  0  0  0
  -26.2972  -26.5522   19.1084 C   0  0  0  0  0  0  0  0  0  0  0  0
  -31.0130  -19.6123   15.6543 C   0  0  0  0  0  0  0  0  0  0  0  0
  -30.2352  -18.4295   16.2501 C   0  0  0  0  0  0  0  0  0  0  0  0
  -28.9858  -16.2184   15.7752 C   0  0  0  0  0  0  0  0  0  0  0  0
  -31.1339  -20.7703   16.6407 C   0  0  0  0  0  0  0  0  0  1  0  0
  -29.4398  -24.7961   22.5545 C   0  0  1  0  0  0  0  0  0  0  0  0
  -25.9571  -25.8349   21.4767 C   0  0  2  0  0  0  0  0  0  0  0  0
  -29.6999  -24.2551   23.9887 C   0  0  0  0  0  0  0  0  0  0  0  0
  -30.1255  -17.1701   15.3436 C   0  0  0  0  0  0  0  0  0  0  0  0
  -25.9412  -11.5938   20.5564 N   0  0  0  0  0  0  0  0  0  0  0  0
  -26.2887  -12.8841   20.4136 N   0  0  0  0  0  0  0  0  0  0  0  0
  -31.2235  -25.4864   20.9841 N   0  0  0  0  0  0  0  0  0  0  0  0
  -29.4211  -13.6564   18.3521 N   0  0  0  0  0  0  0  0  0  0  0  0
  -25.4194  -15.0874   20.4311 N   0  0  0  0  0  0  0  0  0  0  0  0
  -21.7871  -12.5278   21.2376 N   0  0  0  0  0  0  0  0  0  0  0  0
  -34.7579  -26.3815   21.0384 N   0  0  0  0  0  0  0  0  0  0  0  0
  -28.1425  -25.4418   22.3855 N   0  0  0  0  0  0  0  0  0  0  0  0
  -29.1335  -15.7007   17.1337 N   0  0  0  0  0  0  0  0  0  0  0  0
  -27.7195  -19.0874   21.4197 N   0  0  0  0  0  0  0  0  0  0  0  0
  -25.3816  -25.9413   20.1061 N   0  3  0  0  0  0  0  0  0  0  0  0
  -22.5216  -14.6817   20.9552 O   0  0  0  0  0  0  0  0  0  0  0  0
  -33.4738  -24.5999   21.8124 O   0  0  0  0  0  0  0  0  0  0  0  0
  -30.6079  -26.8490   22.7731 O   0  0  0  0  0  0  0  0  0  0  0  0
  -27.3885  -24.0564   20.6857 O   0  0  0  0  0  0  0  0  0  0  0  0
  -30.7568  -14.1734   16.5320 O   0  0  0  0  0  0  0  0  0  0  0  0
  -21.6906   -6.9698   21.6049 O   0  0  0  0  0  0  0  0  0  0  0  0
  -31.8506  -21.8491   16.0415 O   0  0  0  0  0  0  0  0  0  1  0  0
  -18.0764   -6.8989   25.7687 F   0  0  0  0  0  0  0  0  0  0  0  0
  -19.5901   -8.7651   21.6905 F   0  0  0  0  0  0  0  0  0  0  0  0
  1  2  1  0  0  0  0
  1  5  2  0  0  0  0
  2  6  2  0  0  0  0
  3 12  2  0  0  0  0
  3 19  1  0  0  0  0
  4 13  1  0  0  0  0
  4 19  2  0  0  0  0
  5 21  1  0  0  0  0
  6 23  1  0  0  0  0
  7 14  2  0  0  0  0
  7 22  1  0  0  0  0
  8 10  2  0  0  0  0
  8 25  1  0  0  0  0
  9 11  1  0  0  0  0
  9 25  2  0  0  0  0
 10 26  1  0  0  0  0
 11 26  2  0  0  0  0
 12 27  1  0  0  0  0
 13 27  2  0  0  0  0
 14 28  1  0  0  0  0
 15 16  2  0  0  0  0
 15 29  1  0  0  0  0
 16 30  1  0  0  0  0
 17 24  1  0  0  0  0
 17 28  2  0  0  0  0
 18 30  2  0  0  0  0
 18 31  1  0  0  0  0
 19 32  1  0  0  0  0
 20 32  1  0  0  0  0
 20 33  2  0  0  0  0
 20 34  1  0  0  0  0
 21 23  2  0  0  0  0
 21 39  1  0  0  0  0
 22 24  2  0  0  0  0
 22 40  1  0  0  0  0
 23 48  1  0  0  0  0
 24 41  1  0  0  0  0
 25 76  1  0  0  0  0
 26 77  1  0  0  0  0
 27 84  1  0  0  0  0
 28 85  1  0  0  0  0
 29 31  2  0  0  0  0
 29 84  1  0  0  0  0
 30 86  1  0  0  0  0
 31 87  1  0  0  0  0
 32 68  2  0  0  0  0
 33 69  1  0  0  0  0
 33 72  1  0  0  0  0
 34 73  1  0  0  0  0
 34 79  2  0  0  0  0
 35 49  1  0  0  0  0
 35 74  1  0  0  0  0
 35 80  2  0  0  0  0
 36 64  1  0  0  0  0
 36 70  1  0  0  0  0
 36 81  2  0  0  0  0
 37 65  1  0  0  0  0
 37 75  1  0  0  0  0
 37 82  2  0  0  0  0
 38 71  1  0  0  0  0
 38 76  1  0  0  0  0
 38 83  2  0  0  0  0
 39 42  1  0  0  0  0
 40 49  1  0  0  0  0
 41 70  1  0  0  0  0
 42 44  1  0  0  0  0
 43 45  1  0  0  0  0
 43 46  1  0  0  0  0
 44 48  1  0  0  0  0
 45 50  1  0  0  0  0
 46 71  1  0  0  0  0
 47 50  1  0  0  0  0
 47 71  1  0  0  0  0
 48 74  1  0  0  0  0
 49 70  1  0  0  0  0
 50 69  1  0  0  0  0
 51 65  1  0  0  0  0
 52 66  1  0  0  0  0
 53 66  1  0  0  0  0
 54 66  1  0  0  0  0
 55 67  1  0  0  0  0
 56 67  1  0  0  0  0
 57 77  1  0  0  0  0
 58 77  1  0  0  0  0
 59 78  1  0  0  0  0
 60 61  1  0  0  0  0
 60 63  1  0  0  0  0
 61 67  1  0  0  0  0
 62 67  1  0  0  0  0
 62 76  1  0  0  0  0
 63 85  1  0  0  0  0
 64 66  1  0  0  0  0
 64 75  1  0  0  0  0
 65 78  1  0  0  0  0
 68 69  1  0  0  0  0
M  CHG  1  78   1
M  ISO  4  38 100  63 101  76 100  85 101
M  END
> <Batch ID>
0018

> <Smiles>
CNC(C)C(=O)NC(C(=O)N1Cc2cc([101O:1][101CH2:1]CCC(C)(C)C[100N:0](c3ccc(N(C)C)cc3)[100C:0](=O)N3CCCC(n4nc(-c5ccc(Oc6ccc(F)cc6F)cc5)c(C(N)=O)c4N)C3)ccc2CC1C(=O)NC1CCCc2ccccc21)C(C)(C)C

> <Shape>
0.193

> <Color>
0.180

> <Negative vol penalty>
0.000

$$$$

  -OEChem-04042321033D

 86 94  0     1  0  0  0  0  0999 V2000
  -17.0574  -26.2717   21.6701 C   0  0  0  0  0  0  0  0  0  0  0  0
  -18.2274  -26.3749   20.9245 C   0  0  0  0  0  0  0  0  0  0  0  0
  -26.7893  -13.8378   20.2387 C   0  0  0  0  0  0  0  0  0  0  0  0
  -24.7909  -14.1285   21.5651 C   0  0  0  0  0  0  0  0  0  0  0  0
  -16.9529  -26.9284   22.8955 C   0  0  0  0  0  0  0  0  0  0  0  0
  -19.2932  -27.1358   21.4035 C   0  0  0  0  0  0  0  0  0  0  0  0
  -23.7476  -24.7833   20.8848 C   0  0  0  0  0  0  0  0  0  0  0  0
  -30.6155  -20.5225   18.3177 C   0  0  0  0  0  0  0  0  0  0  0  0
  -31.0422  -19.9699   19.5252 C   0  0  0  0  0  0  0  0  0  0  0  0
  -26.7078  -12.4570   20.4185 C   0  0  0  0  0  0  0  0  0  0  0  0
  -24.7094  -12.7476   21.7449 C   0  0  0  0  0  0  0  0  0  0  0  0
  -24.3252  -24.7862   19.6159 C   0  0  0  0  0  0  0  0  0  0  0  0
  -23.6795  -10.0628   19.9696 C   0  0  0  0  0  0  0  0  0  0  0  0
  -22.4305   -9.4626   19.8101 C   0  0  0  0  0  0  0  0  0  0  0  0
  -25.7763  -26.5926   20.2871 C   0  0  0  0  0  0  0  0  0  0  0  0
  -29.5377  -22.3192   19.5207 C   0  0  0  0  0  0  0  0  0  0  0  0
  -22.5191   -8.6719   22.0913 C   0  0  0  0  0  0  0  0  0  0  0  0
  -25.8308  -14.6736   20.8121 C   0  0  0  0  0  0  0  0  0  0  0  0
  -25.3373  -16.8584   19.5912 C   0  0  0  0  0  0  0  0  0  0  0  0
  -18.0215  -27.6899   23.3943 C   0  0  0  0  0  0  0  0  0  0  0  0
  -24.1732  -25.6939   21.8626 C   0  0  0  0  0  0  0  0  0  0  0  0
  -19.2024  -27.8045   22.6361 C   0  0  0  0  0  0  0  0  0  0  0  0
  -25.2042  -26.5976   21.5684 C   0  0  0  0  0  0  0  0  0  0  0  0
  -29.8633  -21.6972   18.3154 C   0  0  0  0  0  0  0  0  0  0  0  0
  -30.7166  -20.5919   20.7305 C   0  0  0  0  0  0  0  0  0  0  0  0
  -25.6679  -11.9119   21.1716 C   0  0  0  0  0  0  0  0  0  0  0  0
  -25.3377  -25.6928   19.3160 C   0  0  0  0  0  0  0  0  0  0  0  0
  -24.3483   -9.9675   21.1900 C   0  0  0  0  0  0  0  0  0  0  0  0
  -21.8503   -8.7672   20.8709 C   0  0  0  0  0  0  0  0  0  0  0  0
  -29.9644  -21.7666   20.7283 C   0  0  0  0  0  0  0  0  0  0  0  0
  -23.7681   -9.2720   22.2508 C   0  0  0  0  0  0  0  0  0  0  0  0
  -25.9148  -16.1000   20.6272 C   0  0  0  0  0  0  0  0  0  0  0  0
  -25.7068  -18.1524   19.8659 C   0  0  0  0  0  0  0  0  0  0  0  0
  -24.5382  -16.4314   18.4800 C   0  0  0  0  0  0  0  0  0  0  0  0
  -22.7891  -28.0474   23.4902 C   0  0  0  0  0  0  0  0  0  0  0  0
  -25.6300  -28.1118   25.0547 C   0  0  0  0  0  0  0  0  0  0  0  0
  -28.9711  -27.4174   25.0233 C   0  0  0  0  0  0  0  0  0  0  0  0
  -30.4464  -20.1511   23.1849 C   0  0  0  0  0  0  0  0  0  0  0  0
  -17.8443  -28.4203   24.7019 C   0  0  0  0  0  0  0  0  0  0  0  0
  -23.5584  -25.6602   23.2350 C   0  0  0  0  0  0  0  0  0  0  0  0
  -25.7111  -27.5821   22.5893 C   0  0  0  0  0  0  0  0  0  0  0  0
  -19.1576  -28.9009   25.3139 C   0  0  0  0  0  0  0  0  0  0  0  0
  -26.8698  -21.0519   23.4837 C   0  0  0  0  0  0  0  0  0  0  0  0
  -20.0231  -29.5786   24.2562 C   0  0  0  0  0  0  0  0  0  0  0  0
  -26.1687  -19.8995   22.7670 C   0  0  0  0  0  0  0  0  0  0  0  0
  -28.1949  -20.6133   24.0998 C   0  0  0  0  0  0  0  0  0  0  0  0
  -28.4251  -18.8247   22.4001 C   0  0  0  0  0  0  0  0  0  0  0  0
  -20.3895  -28.6003   23.1337 C   0  0  1  0  0  0  0  0  0  0  0  0
  -23.7145  -26.9753   23.9921 C   0  0  1  0  0  0  0  0  0  0  0  0
  -27.1071  -19.2506   21.7362 C   0  0  1  0  0  0  0  0  0  0  0  0
  -31.0383  -27.6186   26.4318 C   0  0  0  0  0  0  0  0  0  0  0  0
  -27.0772  -25.5498   15.4001 C   0  0  0  0  0  0  0  0  0  0  0  0
  -25.7707  -31.0925   24.4180 C   0  0  0  0  0  0  0  0  0  0  0  0
  -28.2087  -31.0272   24.9838 C   0  0  0  0  0  0  0  0  0  0  0  0
  -26.5103  -30.4832   26.7280 C   0  0  0  0  0  0  0  0  0  0  0  0
  -32.5237  -19.5008   22.0475 C   0  0  0  0  0  0  0  0  0  0  0  0
  -29.3640  -24.4844   25.0718 C   0  0  0  0  0  0  0  0  0  0  0  0
  -27.6620  -20.6427   16.3452 C   0  0  0  0  0  0  0  0  0  0  0  0
  -29.4032  -22.2912   17.0168 C   0  0  0  0  0  0  0  0  0  0  0  0
  -27.3700  -23.0547   15.7986 C   0  0  0  0  0  0  0  0  0  0  0  0
  -25.9463  -24.4551   17.3785 C   0  0  0  0  0  0  0  0  0  1  0  0
  -26.9412  -28.8342   24.8606 C   0  0  1  0  0  0  0  0  0  0  0  0
  -29.8670  -26.7317   26.0390 C   0  0  2  0  0  0  0  0  0  0  0  0
  -27.1617  -24.4299   16.4433 C   0  0  2  0  0  0  0  0  0  0  0  0
  -26.8471  -30.3421   25.2275 C   0  0  0  0  0  0  0  0  0  0  0  0
  -26.5993  -16.8498   21.4951 N   0  0  0  0  0  0  0  0  0  0  0  0
  -26.4544  -18.0927   21.0051 N   0  0  0  0  0  0  0  0  0  0  0  0
  -25.0739  -27.5141   23.9148 N   0  0  0  0  0  0  0  0  0  0  0  0
  -29.0532  -19.9437   23.1212 N   0  0  0  0  0  0  0  0  0  0  0  0
  -25.4621  -19.3241   19.2417 N   0  0  0  0  0  0  0  0  0  0  0  0
  -24.2528  -15.0655   18.3480 N   0  0  0  0  0  0  0  0  0  0  0  0
  -21.4501  -27.7137   23.5621 N   0  0  0  0  0  0  0  0  0  0  0  0
  -27.9338  -28.0926   25.6309 N   0  0  0  0  0  0  0  0  0  0  0  0
  -31.1588  -20.0179   21.9778 N   0  0  0  0  0  0  0  0  0  0  0  0
  -30.4072  -25.4607   25.4787 N   0  3  0  0  0  0  0  0  0  0  0  0
  -27.9332  -22.0706   16.7532 N   0  3  1  0  0  0  0  0  0  0  0  0
  -24.1042  -17.2351   17.6203 O   0  0  0  0  0  0  0  0  0  0  0  0
  -23.2553  -29.1000   23.0703 O   0  0  0  0  0  0  0  0  0  0  0  0
  -25.1215  -28.0729   26.1779 O   0  0  0  0  0  0  0  0  0  0  0  0
  -29.1736  -27.3628   23.8123 O   0  0  0  0  0  0  0  0  0  0  0  0
  -31.0252  -20.3840   24.2532 O   0  0  0  0  0  0  0  0  0  0  0  0
  -25.5879  -10.5645   21.3470 O   0  0  0  0  0  0  0  0  0  0  0  0
  -25.9028  -25.6982   18.0780 O   0  0  0  0  0  0  0  0  0  1  0  0
  -20.6502   -8.1922   20.7181 F   0  0  0  0  0  0  0  0  0  0  0  0
  -29.6444  -22.3721   21.8809 F   0  0  0  0  0  0  0  0  0  0  0  0
  -24.4054   -9.1781   23.4260 F   0  0  0  0  0  0  0  0  0  0  0  0
  1  2  1  0  0  0  0
  1  5  2  0  0  0  0
  2  6  2  0  0  0  0
  3 10  2  0  0  0  0
  3 18  1  0  0  0  0
  4 11  1  0  0  0  0
  4 18  2  0  0  0  0
  5 20  1  0  0  0  0
  6 22  1  0  0  0  0
  7 12  2  0  0  0  0
  7 21  1  0  0  0  0
  8  9  2  0  0  0  0
  8 24  1  0  0  0  0
  9 25  1  0  0  0  0
 10 26  1  0  0  0  0
 11 26  2  0  0  0  0
 12 27  1  0  0  0  0
 13 14  2  0  0  0  0
 13 28  1  0  0  0  0
 14 29  1  0  0  0  0
 15 23  1  0  0  0  0
 15 27  2  0  0  0  0
 16 24  2  0  0  0  0
 16 30  1  0  0  0  0
 17 29  2  0  0  0  0
 17 31  1  0  0  0  0
 18 32  1  0  0  0  0
 19 32  1  0  0  0  0
 19 33  2  0  0  0  0
 19 34  1  0  0  0  0
 20 22  2  0  0  0  0
 20 39  1  0  0  0  0
 21 23  2  0  0  0  0
 21 40  1  0  0  0  0
 22 48  1  0  0  0  0
 23 41  1  0  0  0  0
 24 59  1  0  0  0  0
 25 30  2  0  0  0  0
 25 74  1  0  0  0  0
 26 82  1  0  0  0  0
 27 83  1  0  0  0  0
 28 31  2  0  0  0  0
 28 82  1  0  0  0  0
 29 84  1  0  0  0  0
 30 85  1  0  0  0  0
 31 86  1  0  0  0  0
 32 66  2  0  0  0  0
 33 67  1  0  0  0  0
 33 70  1  0  0  0  0
 34 71  1  0  0  0  0
 34 77  2  0  0  0  0
 35 49  1  0  0  0  0
 35 72  1  0  0  0  0
 35 78  2  0  0  0  0
 36 62  1  0  0  0  0
 36 68  1  0  0  0  0
 36 79  2  0  0  0  0
 37 63  1  0  0  0  0
 37 73  1  0  0  0  0
 37 80  2  0  0  0  0
 38 69  1  0  0  0  0
 38 74  1  0  0  0  0
 38 81  2  0  0  0  0
 39 42  1  0  0  0  0
 40 49  1  0  0  0  0
 41 68  1  0  0  0  0
 42 44  1  0  0  0  0
 43 45  1  0  0  0  0
 43 46  1  0  0  0  0
 44 48  1  0  0  0  0
 45 50  1  0  0  0  0
 46 69  1  0  0  0  0
 47 50  1  0  0  0  0
 47 69  1  0  0  0  0
 48 72  1  0  0  0  0
 49 68  1  0  0  0  0
 50 67  1  0  0  0  0
 51 63  1  0  0  0  0
 52 64  1  0  0  0  0
 53 65  1  0  0  0  0
 54 65  1  0  0  0  0
 55 65  1  0  0  0  0
 56 74  1  0  0  0  0
 57 75  1  0  0  0  0
 58 76  1  0  0  0  0
 59 76  1  0  0  0  0
 60 64  1  0  0  0  0
 60 76  1  0  0  0  0
 61 64  1  0  0  0  0
 61 83  1  0  0  0  0
 62 65  1  0  0  0  0
 62 73  1  0  0  0  0
 63 75  1  0  0  0  0
 66 67  1  0  0  0  0
M  CHG  2  75   1  76   1
M  ISO  4  38 100  61 101  74 100  83 101
M  END
> <Batch ID>
0018

> <Smiles>
CNC(C)C(=O)NC(C(=O)N1Cc2cc([101O:1][101CH2:1]C(C)CN(C)Cc3ccc([100N:0](C)[100C:0](=O)N4CCCC(n5nc(-c6ccc(Oc7ccc(F)cc7F)cc6)c(C(N)=O)c5N)C4)c(F)c3)ccc2CC1C(=O)NC1CCCc2ccccc21)C(C)(C)C

> <Shape>
0.207

> <Color>
0.063

> <Negative vol penalty>
0.000

$$$$

  -OEChem-04042321033D

 86 95  0     1  0  0  0  0  0999 V2000
  -29.2007  -11.4747   19.6522 C   0  0  0  0  0  0  0  0  0  0  0  0
  -29.2364  -12.8398   19.3863 C   0  0  0  0  0  0  0  0  0  0  0  0
  -20.2233  -25.4473   18.6155 C   0  0  0  0  0  0  0  0  0  0  0  0
  -20.9450  -25.1881   20.9066 C   0  0  0  0  0  0  0  0  0  0  0  0
  -28.8828  -28.3537   22.0031 C   0  0  0  0  0  0  0  0  0  0  0  0
  -27.9980  -10.8663   20.0087 C   0  0  0  0  0  0  0  0  0  0  0  0
  -28.0689  -13.5971   19.4759 C   0  0  0  0  0  0  0  0  0  0  0  0
  -28.7770  -17.9771   21.9169 C   0  0  0  0  0  0  0  0  0  0  0  0
  -29.7503  -27.3453   21.5835 C   0  0  0  0  0  0  0  0  0  0  0  0
  -19.0466  -24.7579   18.9081 C   0  0  0  0  0  0  0  0  0  0  0  0
  -19.7682  -24.4987   21.1993 C   0  0  0  0  0  0  0  0  0  0  0  0
  -29.3847  -19.0112   21.2061 C   0  0  0  0  0  0  0  0  0  0  0  0
  -16.5349  -25.2503   21.8327 C   0  0  0  0  0  0  0  0  0  0  0  0
  -15.8601  -25.5916   23.0048 C   0  0  0  0  0  0  0  0  0  0  0  0
  -27.2218  -20.0050   20.8147 C   0  0  0  0  0  0  0  0  0  0  0  0
  -29.7033  -28.2386   19.3394 C   0  0  0  0  0  0  0  0  0  0  0  0
  -16.1161  -23.3285   23.8111 C   0  0  0  0  0  0  0  0  0  0  0  0
  -21.1726  -25.6624   19.6148 C   0  0  0  0  0  0  0  0  0  0  0  0
  -28.4255  -29.3046   21.0909 C   0  0  0  0  0  0  0  0  0  0  0  0
  -23.3720  -26.0154   18.3716 C   0  0  0  0  0  0  0  0  0  0  0  0
  -26.8171  -11.6183   20.1121 C   0  0  0  0  0  0  0  0  0  0  0  0
  -27.3839  -17.9434   22.0729 C   0  0  0  0  0  0  0  0  0  0  0  0
  -26.8490  -12.9979   19.8329 C   0  0  0  0  0  0  0  0  0  0  0  0
  -26.5991  -18.9708   21.5301 C   0  0  0  0  0  0  0  0  0  0  0  0
  -30.1605  -27.2878   20.2516 C   0  0  0  0  0  0  0  0  0  0  0  0
  -28.8357  -29.2471   19.7590 C   0  0  0  0  0  0  0  0  0  0  0  0
  -18.8190  -24.2836   20.2000 C   0  0  0  0  0  0  0  0  0  0  0  0
  -28.6068  -20.0238   20.6524 C   0  0  0  0  0  0  0  0  0  0  0  0
  -17.0003  -23.9481   21.6498 C   0  0  0  0  0  0  0  0  0  0  0  0
  -15.6507  -24.6307   23.9940 C   0  0  0  0  0  0  0  0  0  0  0  0
  -16.7909  -22.9873   22.6390 C   0  0  0  0  0  0  0  0  0  0  0  0
  -22.3886  -26.3739   19.3130 C   0  0  0  0  0  0  0  0  0  0  0  0
  -24.3161  -27.0086   18.4662 C   0  0  0  0  0  0  0  0  0  0  0  0
  -29.8076  -24.0783   19.6745 C   0  0  0  0  0  0  0  0  0  0  0  0
  -27.5142  -30.3563   21.5605 C   0  0  0  0  0  0  0  0  0  0  0  0
  -23.4272  -24.8858   17.4904 C   0  0  0  0  0  0  0  0  0  0  0  0
  -25.0773  -15.9368   21.2028 C   0  0  0  0  0  0  0  0  0  0  0  0
  -23.2202  -17.9164   22.9790 C   0  0  0  0  0  0  0  0  0  0  0  0
  -22.7507  -21.0184   24.3220 C   0  0  0  0  0  0  0  0  0  0  0  0
  -25.5317  -10.9077   20.4548 C   0  0  0  0  0  0  0  0  0  0  0  0
  -26.7461  -16.8353   22.8653 C   0  0  0  0  0  0  0  0  0  0  0  0
  -25.1013  -18.9916   21.6864 C   0  0  0  0  0  0  0  0  0  0  0  0
  -24.4130  -11.8498   20.8923 C   0  0  0  0  0  0  0  0  0  0  0  0
  -29.1712  -24.8891   16.9089 C   0  0  0  0  0  0  0  0  0  0  0  0
  -24.1971  -31.4672   20.8502 C   0  0  0  0  0  0  0  0  0  0  0  0
  -24.3128  -13.0377   19.9407 C   0  0  0  0  0  0  0  0  0  0  0  0
  -28.3493  -23.8472   17.6699 C   0  0  0  0  0  0  0  0  0  0  0  0
  -23.5030  -30.2082   20.3275 C   0  0  0  0  0  0  0  0  0  0  0  0
  -30.4959  -25.2238   17.5861 C   0  0  0  0  0  0  0  0  0  0  0  0
  -25.2029  -31.1403   21.9513 C   0  0  0  0  0  0  0  0  0  0  0  0
  -25.5144  -28.8581   21.0571 C   0  0  0  0  0  0  0  0  0  0  0  0
  -25.6086  -13.8577   19.9435 C   0  0  1  0  0  0  0  0  0  0  0  0
  -29.1890  -23.0805   18.6941 C   0  0  2  0  0  0  0  0  0  0  0  0
  -25.2741  -16.6268   22.5230 C   0  0  1  0  0  0  0  0  0  0  0  0
  -24.5291  -29.1379   19.9104 C   0  0  1  0  0  0  0  0  0  0  0  0
  -28.3623  -30.2536   18.7616 C   0  0  0  0  0  0  0  0  0  0  0  0
  -21.1205  -22.3455   25.6926 C   0  0  0  0  0  0  0  0  0  0  0  0
  -21.3972  -18.1841   20.5470 C   0  0  0  0  0  0  0  0  0  0  0  0
  -20.3700  -20.1965   21.6256 C   0  0  0  0  0  0  0  0  0  0  0  0
  -20.1979  -17.9668   22.7308 C   0  0  0  0  0  0  0  0  0  0  0  0
  -24.7424  -21.4720   26.4635 C   0  0  0  0  0  0  0  0  0  0  0  0
  -31.0928  -26.2010   19.7999 C   0  0  0  0  0  0  0  0  0  0  0  0
  -28.3399  -22.0385   19.4172 C   0  0  0  0  0  0  0  0  0  1  0  0
  -22.4225  -19.1679   22.7027 C   0  0  1  0  0  0  0  0  0  0  0  0
  -22.3580  -21.4621   25.7196 C   0  0  2  0  0  0  0  0  0  0  0  0
  -21.1249  -18.8777   21.8967 C   0  0  0  0  0  0  0  0  0  0  0  0
  -22.6809  -27.5063   19.9582 N   0  0  0  0  0  0  0  0  0  0  0  0
  -23.8587  -27.8679   19.4215 N   0  0  0  0  0  0  0  0  0  0  0  0
  -30.4018  -25.1728   19.0396 N   0  0  0  0  0  0  0  0  0  0  0  0
  -26.1403  -30.1097   21.5064 N   0  0  0  0  0  0  0  0  0  0  0  0
  -24.5239  -17.8830   22.4643 N   0  0  0  0  0  0  0  0  0  0  0  0
  -25.4845  -27.2219   17.8246 N   0  0  0  0  0  0  0  0  0  0  0  0
  -24.0458  -23.7132   17.9452 N   0  0  0  0  0  0  0  0  0  0  0  0
  -25.6752  -14.6936   21.1231 N   0  0  0  0  0  0  0  0  0  0  0  0
  -22.1930  -19.7999   23.9974 N   0  0  0  0  0  0  0  0  0  0  0  0
  -23.4691  -22.2289   26.3510 N   0  3  0  0  0  0  0  0  0  0  0  0
  -29.7928  -23.8983   20.8912 O   0  0  0  0  0  0  0  0  0  0  0  0
  -28.0412  -31.3934   21.9601 O   0  0  0  0  0  0  0  0  0  0  0  0
  -22.9568  -24.9206   16.3281 O   0  0  0  0  0  0  0  0  0  0  0  0
  -24.4296  -16.4907   20.3222 O   0  0  0  0  0  0  0  0  0  0  0  0
  -22.7080  -17.0050   23.6338 O   0  0  0  0  0  0  0  0  0  0  0  0
  -23.4763  -21.6878   23.5899 O   0  0  0  0  0  0  0  0  0  0  0  0
  -17.6707  -23.6111   20.4859 O   0  0  0  0  0  0  0  0  0  0  0  0
  -29.1973  -21.0339   19.9576 O   0  0  0  0  0  0  0  0  0  1  0  0
  -15.0040  -24.9590   25.1201 F   0  0  0  0  0  0  0  0  0  0  0  0
  -17.2367  -21.7349   22.4694 F   0  0  0  0  0  0  0  0  0  0  0  0
  1  2  1  0  0  0  0
  1  6  2  0  0  0  0
  2  7  2  0  0  0  0
  3 10  2  0  0  0  0
  3 18  1  0  0  0  0
  4 11  1  0  0  0  0
  4 18  2  0  0  0  0
  5  9  2  0  0  0  0
  5 19  1  0  0  0  0
  6 21  1  0  0  0  0
  7 23  1  0  0  0  0
  8 12  2  0  0  0  0
  8 22  1  0  0  0  0
  9 25  1  0  0  0  0
 10 27  1  0  0  0  0
 11 27  2  0  0  0  0
 12 28  1  0  0  0  0
 13 14  2  0  0  0  0
 13 29  1  0  0  0  0
 14 30  1  0  0  0  0
 15 24  1  0  0  0  0
 15 28  2  0  0  0  0
 16 25  2  0  0  0  0
 16 26  1  0  0  0  0
 17 30  2  0  0  0  0
 17 31  1  0  0  0  0
 18 32  1  0  0  0  0
 19 26  2  0  0  0  0
 19 35  1  0  0  0  0
 20 32  1  0  0  0  0
 20 33  2  0  0  0  0
 20 36  1  0  0  0  0
 21 23  2  0  0  0  0
 21 40  1  0  0  0  0
 22 24  2  0  0  0  0
 22 41  1  0  0  0  0
 23 52  1  0  0  0  0
 24 42  1  0  0  0  0
 25 62  1  0  0  0  0
 26 56  1  0  0  0  0
 27 83  1  0  0  0  0
 28 84  1  0  0  0  0
 29 31  2  0  0  0  0
 29 83  1  0  0  0  0
 30 85  1  0  0  0  0
 31 86  1  0  0  0  0
 32 67  2  0  0  0  0
 33 68  1  0  0  0  0
 33 72  1  0  0  0  0
 34 53  1  0  0  0  0
 34 69  1  0  0  0  0
 34 77  2  0  0  0  0
 35 70  1  0  0  0  0
 35 78  2  0  0  0  0
 36 73  1  0  0  0  0
 36 79  2  0  0  0  0
 37 54  1  0  0  0  0
 37 74  1  0  0  0  0
 37 80  2  0  0  0  0
 38 64  1  0  0  0  0
 38 71  1  0  0  0  0
 38 81  2  0  0  0  0
 39 65  1  0  0  0  0
 39 75  1  0  0  0  0
 39 82  2  0  0  0  0
 40 43  1  0  0  0  0
 41 54  1  0  0  0  0
 42 71  1  0  0  0  0
 43 46  1  0  0  0  0
 44 47  1  0  0  0  0
 44 49  1  0  0  0  0
 45 48  1  0  0  0  0
 45 50  1  0  0  0  0
 46 52  1  0  0  0  0
 47 53  1  0  0  0  0
 48 55  1  0  0  0  0
 49 69  1  0  0  0  0
 50 70  1  0  0  0  0
 51 55  1  0  0  0  0
 51 70  1  0  0  0  0
 52 74  1  0  0  0  0
 53 63  1  0  0  0  0
 54 71  1  0  0  0  0
 55 68  1  0  0  0  0
 57 65  1  0  0  0  0
 58 66  1  0  0  0  0
 59 66  1  0  0  0  0
 60 66  1  0  0  0  0
 61 76  1  0  0  0  0
 62 69  1  0  0  0  0
 63 84  1  0  0  0  0
 64 66  1  0  0  0  0
 64 75  1  0  0  0  0
 65 76  1  0  0  0  0
 67 68  1  0  0  0  0
M  CHG  1  76   1
M  ISO  4  19 100  35 100  63 101  84 101
M  END
> <Batch ID>
0018

> <Smiles>
CNC(C)C(=O)NC(C(=O)N1Cc2cc([101O:1][101CH2:1]C3CCCN(Cc4cc[100c:0]([100C:0](=O)N5CCCC(n6nc(-c7ccc(Oc8ccc(F)cc8F)cc7)c(C(N)=O)c6N)C5)c(C)c4)C3=O)ccc2CC1C(=O)NC1CCCc2ccccc21)C(C)(C)C

> <Shape>
0.217

> <Color>
0.060

> <Negative vol penalty>
0.000

$$$$

  -OEChem-04042321033D

 87 96  0     1  0  0  0  0  0999 V2000
  -29.4408  -21.7213   28.3955 C   0  0  0  0  0  0  0  0  0  0  0  0
  -29.3236  -21.9670   27.0312 C   0  0  0  0  0  0  0  0  0  0  0  0
  -22.7297  -10.2099   20.1267 C   0  0  0  0  0  0  0  0  0  0  0  0
  -24.3822   -9.4934   21.7370 C   0  0  0  0  0  0  0  0  0  0  0  0
  -28.3061  -21.7371   29.2055 C   0  0  0  0  0  0  0  0  0  0  0  0
  -28.0713  -22.2276   26.4759 C   0  0  0  0  0  0  0  0  0  0  0  0
  -28.1517  -26.1268   23.2457 C   0  0  0  0  0  0  0  0  0  0  0  0
  -29.8136  -17.9854   19.2231 C   0  0  0  0  0  0  0  0  0  0  0  0
  -30.0046  -19.2494   18.6653 C   0  0  0  0  0  0  0  0  0  0  0  0
  -22.0334   -9.0152   20.3096 C   0  0  0  0  0  0  0  0  0  0  0  0
  -23.6859   -8.2987   21.9199 C   0  0  0  0  0  0  0  0  0  0  0  0
  -28.6595  -25.8863   21.9698 C   0  0  0  0  0  0  0  0  0  0  0  0
  -20.9458   -7.2458   23.5945 C   0  0  0  0  0  0  0  0  0  0  0  0
  -20.7551   -6.8025   24.9032 C   0  0  0  0  0  0  0  0  0  0  0  0
  -26.4108  -25.7038   21.1159 C   0  0  0  0  0  0  0  0  0  0  0  0
  -28.8515  -19.0002   21.1933 C   0  0  0  0  0  0  0  0  0  0  0  0
  -21.9587   -4.7714   24.3905 C   0  0  0  0  0  0  0  0  0  0  0  0
  -23.9041  -10.4490   20.8404 C   0  0  0  0  0  0  0  0  0  0  0  0
  -24.1485  -12.9880   20.8789 C   0  0  0  0  0  0  0  0  0  0  0  0
  -27.0405  -22.0075   28.6614 C   0  0  0  0  0  0  0  0  0  0  0  0
  -26.7674  -26.1469   23.4688 C   0  0  0  0  0  0  0  0  0  0  0  0
  -26.9184  -22.2456   27.2791 C   0  0  0  0  0  0  0  0  0  0  0  0
  -25.8879  -25.9473   22.3951 C   0  0  0  0  0  0  0  0  0  0  0  0
  -29.2370  -17.8607   20.4871 C   0  0  0  0  0  0  0  0  0  0  0  0
  -29.6191  -20.3889   19.3714 C   0  0  0  0  0  0  0  0  0  0  0  0
  -22.5115   -8.0596   21.2062 C   0  0  0  0  0  0  0  0  0  0  0  0
  -27.7890  -25.6718   20.9051 C   0  0  0  0  0  0  0  0  0  0  0  0
  -21.6430   -6.4519   22.6838 C   0  0  0  0  0  0  0  0  0  0  0  0
  -21.2615   -5.5653   25.3012 C   0  0  0  0  0  0  0  0  0  0  0  0
  -22.1494   -5.2147   23.0818 C   0  0  0  0  0  0  0  0  0  0  0  0
  -29.0425  -20.2643   20.6354 C   0  0  0  0  0  0  0  0  0  0  0  0
  -24.6242  -11.6827   20.6515 C   0  0  0  0  0  0  0  0  0  0  0  0
  -25.2067  -13.8007   20.5530 C   0  0  0  0  0  0  0  0  0  0  0  0
  -28.8816  -22.6231   18.4634 C   0  0  0  0  0  0  0  0  0  0  0  0
  -27.5678  -22.5078   18.2180 C   0  0  0  0  0  0  0  0  0  0  0  0
  -22.8649  -13.4266   21.3434 C   0  0  0  0  0  0  0  0  0  0  0  0
  -24.7543  -24.4308   25.2311 C   0  0  0  0  0  0  0  0  0  0  0  0
  -22.6038  -26.6425   24.2280 C   0  0  0  0  0  0  0  0  0  0  0  0
  -21.8368  -28.3634   21.1511 C   0  0  0  0  0  0  0  0  0  0  0  0
  -30.7892  -14.6887   21.1565 C   0  0  0  0  0  0  0  0  0  0  0  0
  -25.8365  -21.9670   29.5689 C   0  0  0  0  0  0  0  0  0  0  0  0
  -26.2353  -26.4343   24.8460 C   0  0  0  0  0  0  0  0  0  0  0  0
  -24.3933  -25.9789   22.5779 C   0  0  0  0  0  0  0  0  0  0  0  0
  -24.5965  -22.6213   28.9651 C   0  0  0  0  0  0  0  0  0  0  0  0
  -29.5712  -12.7798   18.2284 C   0  0  0  0  0  0  0  0  0  0  0  0
  -24.3933  -22.1547   27.5271 C   0  0  0  0  0  0  0  0  0  0  0  0
  -28.1615  -12.3759   18.6570 C   0  0  0  0  0  0  0  0  0  0  0  0
  -31.0214  -23.4994   17.9563 C   0  0  0  0  0  0  0  0  0  0  0  0
  -30.5004  -12.9528   19.4260 C   0  0  0  0  0  0  0  0  0  0  0  0
  -31.1981  -22.1604   18.6791 C   0  0  0  0  0  0  0  0  0  0  0  0
  -28.5777  -13.4938   20.8835 C   0  0  0  0  0  0  0  0  0  0  0  0
  -25.5806  -22.5566   26.6437 C   0  0  1  0  0  0  0  0  0  0  0  0
  -29.5960  -23.9524   18.2945 C   0  0  2  0  0  0  0  0  0  0  0  0
  -24.8138  -25.9219   25.0563 C   0  0  1  0  0  0  0  0  0  0  0  0
  -27.6041  -13.3566   19.7033 C   0  0  2  0  0  0  0  0  0  0  0  0
  -20.7698  -30.5998   20.7548 C   0  0  0  0  0  0  0  0  0  0  0  0
  -20.0137  -25.0443   24.0106 C   0  0  0  0  0  0  0  0  0  0  0  0
  -19.3043  -26.5778   22.1632 C   0  0  0  0  0  0  0  0  0  0  0  0
  -19.6992  -27.4856   24.4529 C   0  0  0  0  0  0  0  0  0  0  0  0
  -31.1377  -16.8293   22.3295 C   0  0  0  0  0  0  0  0  0  0  0  0
  -24.1173  -29.2901   19.5080 C   0  0  0  0  0  0  0  0  0  0  0  0
  -29.0331  -16.5090   21.0830 C   0  0  0  0  0  0  0  0  0  0  0  0
  -29.5492  -24.7855   19.5739 C   0  0  0  0  0  0  0  0  0  1  0  0
  -21.6739  -26.7701   23.0456 C   0  0  1  0  0  0  0  0  0  0  0  0
  -22.0785  -29.8306   20.8459 C   0  0  2  0  0  0  0  0  0  0  0  0
  -20.1972  -26.4550   23.4163 C   0  0  0  0  0  0  0  0  0  0  0  0
  -25.8862  -11.6626   20.2146 N   0  0  0  0  0  0  0  0  0  0  0  0
  -26.2125  -12.9653   20.1649 N   0  0  0  0  0  0  0  0  0  0  0  0
  -29.8255  -21.6518   18.7817 N   0  0  0  0  0  0  0  0  0  0  0  0
  -23.9218  -26.2575   23.9445 N   0  0  0  0  0  0  0  0  0  0  0  0
  -29.9271  -13.8558   20.4245 N   0  0  0  0  0  0  0  0  0  0  0  0
  -25.3655  -15.1412   20.5633 N   0  0  0  0  0  0  0  0  0  0  0  0
  -22.6685  -13.5747   22.7232 N   0  0  0  0  0  0  0  0  0  0  0  0
  -25.4993  -23.9588   26.2949 N   0  0  0  0  0  0  0  0  0  0  0  0
  -21.8817  -28.1093   22.5056 N   0  0  0  0  0  0  0  0  0  0  0  0
  -30.2785  -15.9260   21.5774 N   0  0  0  0  0  0  0  0  0  0  0  0
  -22.8014  -29.9781   19.5510 N   0  3  0  0  0  0  0  0  0  0  0  0
  -21.9152  -13.6640   20.5591 O   0  0  0  0  0  0  0  0  0  0  0  0
  -24.0810  -23.7583   24.4590 O   0  0  0  0  0  0  0  0  0  0  0  0
  -22.1783  -26.8827   25.3607 O   0  0  0  0  0  0  0  0  0  0  0  0
  -21.6254  -27.5270   20.2757 O   0  0  0  0  0  0  0  0  0  0  0  0
  -31.9522  -14.3500   21.4108 O   0  0  0  0  0  0  0  0  0  0  0  0
  -21.8322   -6.8938   21.3851 O   0  0  0  0  0  0  0  0  0  0  0  0
  -28.2820  -25.4361   19.6588 O   0  0  0  0  0  0  0  0  0  1  0  0
  -21.0796   -5.1404   26.5584 F   0  0  0  0  0  0  0  0  0  0  0  0
  -22.8210   -4.4481   22.2117 F   0  0  0  0  0  0  0  0  0  0  0  0
  -28.5509  -21.6492   21.5437 Cl  0  0  0  0  0  0  0  0  0  0  0  0
  1  2  1  0  0  0  0
  1  5  2  0  0  0  0
  2  6  2  0  0  0  0
  3 10  2  0  0  0  0
  3 18  1  0  0  0  0
  4 11  1  0  0  0  0
  4 18  2  0  0  0  0
  5 20  1  0  0  0  0
  6 22  1  0  0  0  0
  7 12  2  0  0  0  0
  7 21  1  0  0  0  0
  8  9  2  0  0  0  0
  8 24  1  0  0  0  0
  9 25  1  0  0  0  0
 10 26  1  0  0  0  0
 11 26  2  0  0  0  0
 12 27  1  0  0  0  0
 13 14  2  0  0  0  0
 13 28  1  0  0  0  0
 14 29  1  0  0  0  0
 15 23  1  0  0  0  0
 15 27  2  0  0  0  0
 16 24  2  0  0  0  0
 16 31  1  0  0  0  0
 17 29  2  0  0  0  0
 17 30  1  0  0  0  0
 18 32  1  0  0  0  0
 19 32  1  0  0  0  0
 19 33  2  0  0  0  0
 19 36  1  0  0  0  0
 20 22  2  0  0  0  0
 20 41  1  0  0  0  0
 21 23  2  0  0  0  0
 21 42  1  0  0  0  0
 22 52  1  0  0  0  0
 23 43  1  0  0  0  0
 24 62  1  0  0  0  0
 25 31  2  0  0  0  0
 25 69  1  0  0  0  0
 26 83  1  0  0  0  0
 27 84  1  0  0  0  0
 28 30  2  0  0  0  0
 28 83  1  0  0  0  0
 29 85  1  0  0  0  0
 30 86  1  0  0  0  0
 31 87  1  0  0  0  0
 32 67  2  0  0  0  0
 33 68  1  0  0  0  0
 33 72  1  0  0  0  0
 34 35  2  0  0  0  0
 34 53  1  0  0  0  0
 34 69  1  0  0  0  0
 36 73  1  0  0  0  0
 36 78  2  0  0  0  0
 37 54  1  0  0  0  0
 37 74  1  0  0  0  0
 37 79  2  0  0  0  0
 38 64  1  0  0  0  0
 38 70  1  0  0  0  0
 38 80  2  0  0  0  0
 39 65  1  0  0  0  0
 39 75  1  0  0  0  0
 39 81  2  0  0  0  0
 40 71  1  0  0  0  0
 40 76  1  0  0  0  0
 40 82  2  0  0  0  0
 41 44  1  0  0  0  0
 42 54  1  0  0  0  0
 43 70  1  0  0  0  0
 44 46  1  0  0  0  0
 45 47  1  0  0  0  0
 45 49  1  0  0  0  0
 46 52  1  0  0  0  0
 47 55  1  0  0  0  0
 48 50  1  0  0  0  0
 48 53  1  0  0  0  0
 49 71  1  0  0  0  0
 50 69  1  0  0  0  0
 51 55  1  0  0  0  0
 51 71  1  0  0  0  0
 52 74  1  0  0  0  0
 53 63  1  0  0  0  0
 54 70  1  0  0  0  0
 55 68  1  0  0  0  0
 56 65  1  0  0  0  0
 57 66  1  0  0  0  0
 58 66  1  0  0  0  0
 59 66  1  0  0  0  0
 60 76  1  0  0  0  0
 61 77  1  0  0  0  0
 62 76  1  0  0  0  0
 63 84  1  0  0  0  0
 64 66  1  0  0  0  0
 64 75  1  0  0  0  0
 65 77  1  0  0  0  0
 67 68  1  0  0  0  0
M  CHG  1  77   1
M  ISO  4  40 100  63 101  76 100  84 101
M  END
> <Batch ID>
0018

> <Smiles>
C=C1C([101CH2:1][101O:1]c2ccc3c(c2)CN(C(=O)C(NC(=O)C(C)NC)C(C)(C)C)C(C(=O)NC2CCCc4ccccc42)C3)CCN1c1ccc(C[100N:0](C)[100C:0](=O)N2CCCC(n3nc(-c4ccc(Oc5ccc(F)cc5F)cc4)c(C(N)=O)c3N)C2)cc1Cl

> <Shape>
0.332

> <Color>
0.176

> <Negative vol penalty>
0.000

$$$$

  -OEChem-04042321033D

 87 96  0     1  0  0  0  0  0999 V2000
  -18.4793  -27.5988   26.1082 C   0  0  0  0  0  0  0  0  0  0  0  0
  -19.8317  -27.2803   26.1789 C   0  0  0  0  0  0  0  0  0  0  0  0
  -22.6197  -10.3606   20.2625 C   0  0  0  0  0  0  0  0  0  0  0  0
  -24.4684   -9.5977   21.6180 C   0  0  0  0  0  0  0  0  0  0  0  0
  -17.8529  -27.7038   24.8670 C   0  0  0  0  0  0  0  0  0  0  0  0
  -20.5583  -27.0654   25.0083 C   0  0  0  0  0  0  0  0  0  0  0  0
  -27.1257  -27.9200   22.2778 C   0  0  0  0  0  0  0  0  0  0  0  0
  -28.7820  -19.1520   20.9090 C   0  0  0  0  0  0  0  0  0  0  0  0
  -28.8892  -20.4472   20.4025 C   0  0  0  0  0  0  0  0  0  0  0  0
  -21.9587   -9.1525   20.4840 C   0  0  0  0  0  0  0  0  0  0  0  0
  -23.8073   -8.3895   21.8396 C   0  0  0  0  0  0  0  0  0  0  0  0
  -28.1233  -27.1969   21.6252 C   0  0  0  0  0  0  0  0  0  0  0  0
  -21.3097   -7.2428   23.8061 C   0  0  0  0  0  0  0  0  0  0  0  0
  -21.2903   -6.7459   25.1093 C   0  0  0  0  0  0  0  0  0  0  0  0
  -26.9547  -27.4831   19.5344 C   0  0  0  0  0  0  0  0  0  0  0  0
  -29.5981  -19.5553   18.2719 C   0  0  0  0  0  0  0  0  0  0  0  0
  -22.4288   -4.7492   24.3647 C   0  0  0  0  0  0  0  0  0  0  0  0
  -23.8746  -10.5832   20.8295 C   0  0  0  0  0  0  0  0  0  0  0  0
  -24.1089  -13.1210   20.9399 C   0  0  0  0  0  0  0  0  0  0  0  0
  -18.5745  -27.4996   23.6802 C   0  0  0  0  0  0  0  0  0  0  0  0
  -26.0277  -28.4215   21.5641 C   0  0  0  0  0  0  0  0  0  0  0  0
  -19.9407  -27.1664   23.7500 C   0  0  0  0  0  0  0  0  0  0  0  0
  -25.9458  -28.2144   20.1797 C   0  0  0  0  0  0  0  0  0  0  0  0
  -29.0828  -18.0584   20.0970 C   0  0  0  0  0  0  0  0  0  0  0  0
  -29.4909  -18.2601   18.7785 C   0  0  0  0  0  0  0  0  0  0  0  0
  -29.2973  -20.6489   19.0840 C   0  0  0  0  0  0  0  0  0  0  0  0
  -22.5524   -8.1670   21.2725 C   0  0  0  0  0  0  0  0  0  0  0  0
  -28.0364  -26.9759   20.2538 C   0  0  0  0  0  0  0  0  0  0  0  0
  -21.8885   -6.4930   22.7822 C   0  0  0  0  0  0  0  0  0  0  0  0
  -21.8499   -5.4991   25.3886 C   0  0  0  0  0  0  0  0  0  0  0  0
  -22.4481   -5.2462   23.0615 C   0  0  0  0  0  0  0  0  0  0  0  0
  -24.5582  -11.8308   20.6006 C   0  0  0  0  0  0  0  0  0  0  0  0
  -25.1124  -13.9569   20.5149 C   0  0  0  0  0  0  0  0  0  0  0  0
  -29.1363  -23.1735   19.2554 C   0  0  0  0  0  0  0  0  0  0  0  0
  -22.8931  -13.5276   21.5820 C   0  0  0  0  0  0  0  0  0  0  0  0
  -22.8854  -27.9516   21.6608 C   0  0  0  0  0  0  0  0  0  0  0  0
  -22.8522  -30.3513   19.4784 C   0  0  0  0  0  0  0  0  0  0  0  0
  -24.5241  -32.1053   17.0753 C   0  0  0  0  0  0  0  0  0  0  0  0
  -30.7217  -14.8776   20.4361 C   0  0  0  0  0  0  0  0  0  0  0  0
  -17.8432  -27.5775   22.3635 C   0  0  0  0  0  0  0  0  0  0  0  0
  -24.9735  -29.2223   22.2782 C   0  0  0  0  0  0  0  0  0  0  0  0
  -24.7978  -28.7491   19.3644 C   0  0  0  0  0  0  0  0  0  0  0  0
  -18.7712  -27.7029   21.1579 C   0  0  0  0  0  0  0  0  0  0  0  0
  -29.1485  -13.0742   17.6121 C   0  0  0  0  0  0  0  0  0  0  0  0
  -19.9123  -26.6954   21.2554 C   0  0  0  0  0  0  0  0  0  0  0  0
  -27.8074  -12.6391   18.2005 C   0  0  0  0  0  0  0  0  0  0  0  0
  -29.4601  -23.6698   16.9504 C   0  0  0  0  0  0  0  0  0  0  0  0
  -30.2225  -13.2090   18.6873 C   0  0  0  0  0  0  0  0  0  0  0  0
  -29.8787  -22.2382   17.2188 C   0  0  0  0  0  0  0  0  0  0  0  0
  -28.4995  -13.6718   20.3993 C   0  0  0  0  0  0  0  0  0  0  0  0
  -20.7685  -26.9505   22.5018 C   0  0  1  0  0  0  0  0  0  0  0  0
  -29.5238  -24.3138   18.3277 C   0  0  1  0  0  0  0  0  0  0  0  0
  -23.6388  -29.2460   21.5398 C   0  0  1  0  0  0  0  0  0  0  0  0
  -27.3836  -13.5716   19.3486 C   0  0  2  0  0  0  0  0  0  0  0  0
  -29.8161  -17.1045   17.8901 C   0  0  0  0  0  0  0  0  0  0  0  0
  -24.2230  -33.9851   15.4403 C   0  0  0  0  0  0  0  0  0  0  0  0
  -21.2311  -28.5102   17.6640 C   0  0  0  0  0  0  0  0  0  0  0  0
  -21.7745  -30.0316   15.7514 C   0  0  0  0  0  0  0  0  0  0  0  0
  -20.4617  -30.8896   17.6913 C   0  0  0  0  0  0  0  0  0  0  0  0
  -31.2066  -16.9733   21.6412 C   0  0  0  0  0  0  0  0  0  0  0  0
  -26.6686  -33.7044   18.3414 C   0  0  0  0  0  0  0  0  0  0  0  0
  -28.9613  -16.6812   20.6617 C   0  0  0  0  0  0  0  0  0  0  0  0
  -28.6180  -25.5233   18.4629 C   0  0  0  0  0  0  0  0  0  1  0  0
  -22.9315  -30.4283   17.9728 C   0  0  1  0  0  0  0  0  0  0  0  0
  -24.6759  -33.5972   16.8393 C   0  0  2  0  0  0  0  0  0  0  0  0
  -21.6204  -29.9531   17.2853 C   0  0  0  0  0  0  0  0  0  0  0  0
  -25.7540  -11.8411   20.0057 N   0  0  0  0  0  0  0  0  0  0  0  0
  -26.0646  -13.1480   19.9678 N   0  0  0  0  0  0  0  0  0  0  0  0
  -29.4052  -21.9738   18.5647 N   0  0  0  0  0  0  0  0  0  0  0  0
  -23.7890  -29.5205   20.1093 N   0  0  0  0  0  0  0  0  0  0  0  0
  -29.7772  -14.0656   19.7868 N   0  0  0  0  0  0  0  0  0  0  0  0
  -25.2645  -15.2975   20.5595 N   0  0  0  0  0  0  0  0  0  0  0  0
  -22.8742  -13.6187   22.9805 N   0  0  0  0  0  0  0  0  0  0  0  0
  -21.6576  -28.0713   22.2833 N   0  0  0  0  0  0  0  0  0  0  0  0
  -23.3101  -31.8006   17.6537 N   0  0  0  0  0  0  0  0  0  0  0  0
  -30.2628  -16.0918   20.9688 N   0  0  0  0  0  0  0  0  0  0  0  0
  -26.1000  -34.0052   17.0023 N   0  3  0  0  0  0  0  0  0  0  0  0
  -28.7344  -23.3463   20.3969 O   0  0  0  0  0  0  0  0  0  0  0  0
  -21.8495  -13.7862   20.9358 O   0  0  0  0  0  0  0  0  0  0  0  0
  -23.3808  -26.9208   21.2206 O   0  0  0  0  0  0  0  0  0  0  0  0
  -21.9954  -31.0097   20.0733 O   0  0  0  0  0  0  0  0  0  0  0  0
  -25.3939  -31.2912   16.7731 O   0  0  0  0  0  0  0  0  0  0  0  0
  -31.9094  -14.5410   20.5256 O   0  0  0  0  0  0  0  0  0  0  0  0
  -21.9076   -6.9881   21.4891 O   0  0  0  0  0  0  0  0  0  0  0  0
  -29.0085  -26.2700   19.6146 O   0  0  0  0  0  0  0  0  0  1  0  0
  -21.8327   -5.0227   26.6404 F   0  0  0  0  0  0  0  0  0  0  0  0
  -23.0066   -4.5217   22.0823 F   0  0  0  0  0  0  0  0  0  0  0  0
  1  2  1  0  0  0  0
  1  5  2  0  0  0  0
  2  6  2  0  0  0  0
  3 10  2  0  0  0  0
  3 18  1  0  0  0  0
  4 11  1  0  0  0  0
  4 18  2  0  0  0  0
  5 20  1  0  0  0  0
  6 22  1  0  0  0  0
  7 12  2  0  0  0  0
  7 21  1  0  0  0  0
  8  9  2  0  0  0  0
  8 24  1  0  0  0  0
  9 26  1  0  0  0  0
 10 27  1  0  0  0  0
 11 27  2  0  0  0  0
 12 28  1  0  0  0  0
 13 14  2  0  0  0  0
 13 29  1  0  0  0  0
 14 30  1  0  0  0  0
 15 23  1  0  0  0  0
 15 28  2  0  0  0  0
 16 25  1  0  0  0  0
 16 26  2  0  0  0  0
 17 30  2  0  0  0  0
 17 31  1  0  0  0  0
 18 32  1  0  0  0  0
 19 32  1  0  0  0  0
 19 33  2  0  0  0  0
 19 35  1  0  0  0  0
 20 22  2  0  0  0  0
 20 40  1  0  0  0  0
 21 23  2  0  0  0  0
 21 41  1  0  0  0  0
 22 51  1  0  0  0  0
 23 42  1  0  0  0  0
 24 25  2  0  0  0  0
 24 62  1  0  0  0  0
 25 55  1  0  0  0  0
 26 69  1  0  0  0  0
 27 84  1  0  0  0  0
 28 85  1  0  0  0  0
 29 31  2  0  0  0  0
 29 84  1  0  0  0  0
 30 86  1  0  0  0  0
 31 87  1  0  0  0  0
 32 67  2  0  0  0  0
 33 68  1  0  0  0  0
 33 72  1  0  0  0  0
 34 52  1  0  0  0  0
 34 69  1  0  0  0  0
 34 78  2  0  0  0  0
 35 73  1  0  0  0  0
 35 79  2  0  0  0  0
 36 53  1  0  0  0  0
 36 74  1  0  0  0  0
 36 80  2  0  0  0  0
 37 64  1  0  0  0  0
 37 70  1  0  0  0  0
 37 81  2  0  0  0  0
 38 65  1  0  0  0  0
 38 75  1  0  0  0  0
 38 82  2  0  0  0  0
 39 71  1  0  0  0  0
 39 76  1  0  0  0  0
 39 83  2  0  0  0  0
 40 43  1  0  0  0  0
 41 53  1  0  0  0  0
 42 70  1  0  0  0  0
 43 45  1  0  0  0  0
 44 46  1  0  0  0  0
 44 48  1  0  0  0  0
 45 51  1  0  0  0  0
 46 54  1  0  0  0  0
 47 49  1  0  0  0  0
 47 52  1  0  0  0  0
 48 71  1  0  0  0  0
 49 69  1  0  0  0  0
 50 54  1  0  0  0  0
 50 71  1  0  0  0  0
 51 74  1  0  0  0  0
 52 63  1  0  0  0  0
 53 70  1  0  0  0  0
 54 68  1  0  0  0  0
 56 65  1  0  0  0  0
 57 66  1  0  0  0  0
 58 66  1  0  0  0  0
 59 66  1  0  0  0  0
 60 76  1  0  0  0  0
 61 77  1  0  0  0  0
 62 76  1  0  0  0  0
 63 85  1  0  0  0  0
 64 66  1  0  0  0  0
 64 75  1  0  0  0  0
 65 77  1  0  0  0  0
 67 68  1  0  0  0  0
M  CHG  1  77   1
M  ISO  4  39 100  63 101  76 100  85 101
M  END
> <Batch ID>
0018

> <Smiles>
CNC(C)C(=O)NC(C(=O)N1Cc2cc([101O:1][101CH2:1]C3CCN(c4ccc(C[100N:0](C)[100C:0](=O)N5CCCC(n6nc(-c7ccc(Oc8ccc(F)cc8F)cc7)c(C(N)=O)c6N)C5)c(C)c4)C3=O)ccc2CC1C(=O)NC1CCCc2ccccc21)C(C)(C)C

> <Shape>
0.391

> <Color>
0.210

> <Negative vol penalty>
0.000

$$$$

  -OEChem-04042321033D

 83 91  0     1  0  0  0  0  0999 V2000
  -20.8014  -29.2831   29.9056 C   0  0  0  0  0  0  0  0  0  0  0  0
  -21.7253  -28.2457   29.8298 C   0  0  0  0  0  0  0  0  0  0  0  0
  -23.1895   -9.6673   20.4679 C   0  0  0  0  0  0  0  0  0  0  0  0
  -23.8372  -10.1863   22.7368 C   0  0  0  0  0  0  0  0  0  0  0  0
  -20.2244  -29.7876   28.7410 C   0  0  0  0  0  0  0  0  0  0  0  0
  -22.0718  -27.7115   28.5893 C   0  0  0  0  0  0  0  0  0  0  0  0
  -27.5560  -25.5672   26.9065 C   0  0  0  0  0  0  0  0  0  0  0  0
  -32.2787  -18.3056   22.6669 C   0  0  0  0  0  0  0  0  0  0  0  0
  -31.7540  -17.2331   21.9459 C   0  0  0  0  0  0  0  0  0  0  0  0
  -22.4833   -8.5543   20.9241 C   0  0  0  0  0  0  0  0  0  0  0  0
  -23.1309   -9.0733   23.1930 C   0  0  0  0  0  0  0  0  0  0  0  0
  -28.0769  -24.2759   26.8359 C   0  0  0  0  0  0  0  0  0  0  0  0
  -23.5869   -5.7270   23.3522 C   0  0  0  0  0  0  0  0  0  0  0  0
  -24.2094   -4.9047   24.2913 C   0  0  0  0  0  0  0  0  0  0  0  0
  -27.5247  -24.1880   24.4893 C   0  0  0  0  0  0  0  0  0  0  0  0
  -30.0482  -19.1717   23.0017 C   0  0  0  0  0  0  0  0  0  0  0  0
  -22.4221   -5.3402   25.8575 C   0  0  0  0  0  0  0  0  0  0  0  0
  -23.8665  -10.4833   21.3743 C   0  0  0  0  0  0  0  0  0  0  0  0
  -24.1078  -12.9433   20.7436 C   0  0  0  0  0  0  0  0  0  0  0  0
  -20.5713  -29.2658   27.4848 C   0  0  0  0  0  0  0  0  0  0  0  0
  -27.0047  -26.1754   25.7696 C   0  0  0  0  0  0  0  0  0  0  0  0
  -21.4979  -28.2086   27.4069 C   0  0  0  0  0  0  0  0  0  0  0  0
  -26.9998  -25.4880   24.5475 C   0  0  0  0  0  0  0  0  0  0  0  0
  -29.5235  -18.0992   22.2806 C   0  0  0  0  0  0  0  0  0  0  0  0
  -31.4258  -19.2749   23.1949 C   0  0  0  0  0  0  0  0  0  0  0  0
  -30.3764  -17.1298   21.7527 C   0  0  0  0  0  0  0  0  0  0  0  0
  -22.4540   -8.2573   22.2866 C   0  0  0  0  0  0  0  0  0  0  0  0
  -28.0587  -23.5849   25.6278 C   0  0  0  0  0  0  0  0  0  0  0  0
  -22.3820   -6.3560   23.6658 C   0  0  0  0  0  0  0  0  0  0  0  0
  -23.6270   -4.7113   25.5439 C   0  0  0  0  0  0  0  0  0  0  0  0
  -21.7996   -6.1626   24.9184 C   0  0  0  0  0  0  0  0  0  0  0  0
  -24.5966  -11.6328   20.9036 C   0  0  0  0  0  0  0  0  0  0  0  0
  -25.1839  -13.6562   20.2742 C   0  0  0  0  0  0  0  0  0  0  0  0
  -22.7982  -13.4692   20.9966 C   0  0  0  0  0  0  0  0  0  0  0  0
  -24.1257  -27.2703   24.9846 C   0  0  0  0  0  0  0  0  0  0  0  0
  -25.6725  -28.3060   22.3281 C   0  0  0  0  0  0  0  0  0  0  0  0
  -28.3157  -27.9649   20.1965 C   0  0  0  0  0  0  0  0  0  0  0  0
  -30.5869  -14.9920   20.4367 C   0  0  0  0  0  0  0  0  0  0  0  0
  -19.8856  -29.8118   26.2574 C   0  0  0  0  0  0  0  0  0  0  0  0
  -26.4711  -27.5791   25.8562 C   0  0  0  0  0  0  0  0  0  0  0  0
  -26.4378  -26.1042   23.2933 C   0  0  0  0  0  0  0  0  0  0  0  0
  -20.5872  -29.4429   24.9529 C   0  0  0  0  0  0  0  0  0  0  0  0
  -29.6896  -12.0877   18.5829 C   0  0  0  0  0  0  0  0  0  0  0  0
  -20.9471  -27.9606   24.9409 C   0  0  0  0  0  0  0  0  0  0  0  0
  -28.2444  -11.8182   19.0082 C   0  0  0  0  0  0  0  0  0  0  0  0
  -30.5355  -12.6059   19.7446 C   0  0  0  0  0  0  0  0  0  0  0  0
  -28.5357  -13.5020   20.8702 C   0  0  0  0  0  0  0  0  0  0  0  0
  -21.9180  -27.6194   26.0778 C   0  0  1  0  0  0  0  0  0  0  0  0
  -25.4676  -27.9058   24.7545 C   0  0  1  0  0  0  0  0  0  0  0  0
  -27.6287  -13.0400   19.7179 C   0  0  2  0  0  0  0  0  0  0  0  0
  -28.0438  -18.0130   22.0904 C   0  0  0  0  0  0  0  0  0  0  0  0
  -29.2893  -28.9314   18.0952 C   0  0  0  0  0  0  0  0  0  0  0  0
  -23.5582  -26.8479   20.6808 C   0  0  0  0  0  0  0  0  0  0  0  0
  -25.0752  -27.0339   18.6978 C   0  0  0  0  0  0  0  0  0  0  0  0
  -24.2024  -29.0966   19.7960 C   0  0  0  0  0  0  0  0  0  0  0  0
  -33.3996  -20.4596   24.1227 C   0  0  0  0  0  0  0  0  0  0  0  0
  -30.8036  -28.7711   21.5819 C   0  0  0  0  0  0  0  0  0  0  0  0
  -30.5075  -20.9349   25.7995 C   0  0  0  0  0  0  0  0  0  0  0  0
  -31.1015  -21.3803   24.4687 C   0  0  0  0  0  0  0  0  0  0  0  0
  -29.6328  -22.0018   26.4474 C   0  0  0  0  0  0  0  0  0  1  0  0
  -25.9707  -27.7217   20.9685 C   0  0  1  0  0  0  0  0  0  0  0  0
  -29.2789  -28.9840   19.6150 C   0  0  2  0  0  0  0  0  0  0  0  0
  -24.7105  -27.6624   20.0596 C   0  0  0  0  0  0  0  0  0  0  0  0
  -25.8830  -11.5172   20.5634 N   0  0  0  0  0  0  0  0  0  0  0  0
  -26.2117  -12.7640   20.1848 N   0  0  0  0  0  0  0  0  0  0  0  0
  -25.9221  -27.4763   23.4305 N   0  0  0  0  0  0  0  0  0  0  0  0
  -29.8923  -13.7659   20.3656 N   0  0  0  0  0  0  0  0  0  0  0  0
  -25.3418  -14.9528   19.9333 N   0  0  0  0  0  0  0  0  0  0  0  0
  -21.8101  -12.5990   21.4770 N   0  0  0  0  0  0  0  0  0  0  0  0
  -29.8628  -16.0319   21.0188 N   0  0  0  0  0  0  0  0  0  0  0  0
  -23.2607  -28.0399   25.7390 N   0  0  0  0  0  0  0  0  0  0  0  0
  -27.0683  -28.5092   20.4175 N   0  0  0  0  0  0  0  0  0  0  0  0
  -31.9534  -20.3528   23.9203 N   0  0  3  0  0  0  0  0  0  0  0  0
  -30.6630  -28.7263   20.1037 N   0  3  0  0  0  0  0  0  0  0  0  0
  -22.5083  -14.6714   20.7870 O   0  0  0  0  0  0  0  0  0  0  0  0
  -23.8918  -26.1644   24.5115 O   0  0  0  0  0  0  0  0  0  0  0  0
  -25.2411  -29.4588   22.4096 O   0  0  0  0  0  0  0  0  0  0  0  0
  -28.6367  -26.8013   20.4278 O   0  0  0  0  0  0  0  0  0  0  0  0
  -31.7292  -15.1177   19.9879 O   0  0  0  0  0  0  0  0  0  0  0  0
  -21.7648   -7.1715   22.7321 O   0  0  0  0  0  0  0  0  0  0  0  0
  -28.5659  -22.3242   25.5563 O   0  0  0  0  0  0  0  0  0  1  0  0
  -24.2242   -3.9204   26.4451 F   0  0  0  0  0  0  0  0  0  0  0  0
  -20.6415   -6.7632   25.2250 F   0  0  0  0  0  0  0  0  0  0  0  0
  1  2  1  0  0  0  0
  1  5  2  0  0  0  0
  2  6  2  0  0  0  0
  3 10  2  0  0  0  0
  3 18  1  0  0  0  0
  4 11  1  0  0  0  0
  4 18  2  0  0  0  0
  5 20  1  0  0  0  0
  6 22  1  0  0  0  0
  7 12  2  0  0  0  0
  7 21  1  0  0  0  0
  8  9  2  0  0  0  0
  8 25  1  0  0  0  0
  9 26  1  0  0  0  0
 10 27  1  0  0  0  0
 11 27  2  0  0  0  0
 12 28  1  0  0  0  0
 13 14  2  0  0  0  0
 13 29  1  0  0  0  0
 14 30  1  0  0  0  0
 15 23  1  0  0  0  0
 15 28  2  0  0  0  0
 16 24  1  0  0  0  0
 16 25  2  0  0  0  0
 17 30  2  0  0  0  0
 17 31  1  0  0  0  0
 18 32  1  0  0  0  0
 19 32  1  0  0  0  0
 19 33  2  0  0  0  0
 19 34  1  0  0  0  0
 20 22  2  0  0  0  0
 20 39  1  0  0  0  0
 21 23  2  0  0  0  0
 21 40  1  0  0  0  0
 22 48  1  0  0  0  0
 23 41  1  0  0  0  0
 24 26  2  0  0  0  0
 24 51  1  0  0  0  0
 25 73  1  0  0  0  0
 26 70  1  0  0  0  0
 27 80  1  0  0  0  0
 28 81  1  0  0  0  0
 29 31  2  0  0  0  0
 29 80  1  0  0  0  0
 30 82  1  0  0  0  0
 31 83  1  0  0  0  0
 32 64  2  0  0  0  0
 33 65  1  0  0  0  0
 33 68  1  0  0  0  0
 34 69  1  0  0  0  0
 34 75  2  0  0  0  0
 35 49  1  0  0  0  0
 35 71  1  0  0  0  0
 35 76  2  0  0  0  0
 36 61  1  0  0  0  0
 36 66  1  0  0  0  0
 36 77  2  0  0  0  0
 37 62  1  0  0  0  0
 37 72  1  0  0  0  0
 37 78  2  0  0  0  0
 38 67  1  0  0  0  0
 38 70  1  0  0  0  0
 38 79  2  0  0  0  0
 39 42  1  0  0  0  0
 40 49  1  0  0  0  0
 41 66  1  0  0  0  0
 42 44  1  0  0  0  0
 43 45  1  0  0  0  0
 43 46  1  0  0  0  0
 44 48  1  0  0  0  0
 45 50  1  0  0  0  0
 46 67  1  0  0  0  0
 47 50  1  0  0  0  0
 47 67  1  0  0  0  0
 48 71  1  0  0  0  0
 49 66  1  0  0  0  0
 50 65  1  0  0  0  0
 52 62  1  0  0  0  0
 53 63  1  0  0  0  0
 54 63  1  0  0  0  0
 55 63  1  0  0  0  0
 56 73  1  0  0  0  0
 57 74  1  0  0  0  0
 58 59  1  0  0  0  0
 58 60  1  0  0  0  0
 59 73  1  0  0  0  0
 60 81  1  0  0  0  0
 61 63  1  0  0  0  0
 61 72  1  0  0  0  0
 62 74  1  0  0  0  0
 64 65  1  0  0  0  0
M  CHG  1  74   1
M  ISO  4  38 100  60 101  70 100  81 101
M  END
> <Batch ID>
0018

> <Smiles>
CNC(C)C(=O)NC(C(=O)N1Cc2cc([101O:1][101CH2:1]CCN(C)c3ccc([100NH:0][100C:0](=O)N4CCCC(n5nc(-c6ccc(Oc7ccc(F)cc7F)cc6)c(C(N)=O)c5N)C4)c(C)c3)ccc2CC1C(=O)NC1CCCc2ccccc21)C(C)(C)C

> <Shape>
0.230

> <Color>
0.188

> <Negative vol penalty>
0.000

$$$$

  -OEChem-04042321033D

 85 94  0     1  0  0  0  0  0999 V2000
  -17.2705  -24.6220   25.0420 C   0  0  0  0  0  0  0  0  0  0  0  0
  -18.4944  -24.2351   25.5784 C   0  0  0  0  0  0  0  0  0  0  0  0
  -23.0495   -9.8911   19.9195 C   0  0  0  0  0  0  0  0  0  0  0  0
  -23.8245   -9.8700   22.2078 C   0  0  0  0  0  0  0  0  0  0  0  0
  -17.2114  -25.1512   23.7534 C   0  0  0  0  0  0  0  0  0  0  0  0
  -19.6599  -24.3761   24.8260 C   0  0  0  0  0  0  0  0  0  0  0  0
  -26.6495  -25.7597   25.5663 C   0  0  0  0  0  0  0  0  0  0  0  0
  -31.3726  -19.0301   20.6129 C   0  0  0  0  0  0  0  0  0  0  0  0
  -31.1919  -17.6471   20.5961 C   0  0  0  0  0  0  0  0  0  0  0  0
  -22.2981   -8.7416   20.1634 C   0  0  0  0  0  0  0  0  0  0  0  0
  -23.0730   -8.7205   22.4517 C   0  0  0  0  0  0  0  0  0  0  0  0
  -27.8937  -25.2405   25.2113 C   0  0  0  0  0  0  0  0  0  0  0  0
  -19.8425   -7.9427   23.0680 C   0  0  0  0  0  0  0  0  0  0  0  0
  -19.0930   -7.8976   24.2434 C   0  0  0  0  0  0  0  0  0  0  0  0
  -27.6810  -26.2405   23.0264 C   0  0  0  0  0  0  0  0  0  0  0  0
  -29.7551  -19.2198   22.3975 C   0  0  0  0  0  0  0  0  0  0  0  0
  -20.3236   -5.9433   24.9531 C   0  0  0  0  0  0  0  0  0  0  0  0
  -23.8128  -10.4553   20.9417 C   0  0  0  0  0  0  0  0  0  0  0  0
  -24.1741  -12.9787   20.8435 C   0  0  0  0  0  0  0  0  0  0  0  0
  -18.3780  -25.3077   22.9885 C   0  0  0  0  0  0  0  0  0  0  0  0
  -25.9055  -26.5154   24.6487 C   0  0  0  0  0  0  0  0  0  0  0  0
  -19.6163  -24.9066   23.5255 C   0  0  0  0  0  0  0  0  0  0  0  0
  -26.4287  -26.7704   23.3730 C   0  0  0  0  0  0  0  0  0  0  0  0
  -30.6543  -19.8165   21.5137 C   0  0  0  0  0  0  0  0  0  0  0  0
  -30.2927  -17.0505   21.4799 C   0  0  0  0  0  0  0  0  0  0  0  0
  -22.3098   -8.1563   21.4295 C   0  0  0  0  0  0  0  0  0  0  0  0
  -28.4084  -25.4784   23.9402 C   0  0  0  0  0  0  0  0  0  0  0  0
  -20.8326   -6.9881   22.8350 C   0  0  0  0  0  0  0  0  0  0  0  0
  -19.3335   -6.8979   25.1860 C   0  0  0  0  0  0  0  0  0  0  0  0
  -29.5743  -17.8368   22.3806 C   0  0  0  0  0  0  0  0  0  0  0  0
  -21.0731   -5.9884   23.7776 C   0  0  0  0  0  0  0  0  0  0  0  0
  -24.5897  -11.6424   20.6902 C   0  0  0  0  0  0  0  0  0  0  0  0
  -25.2699  -13.7229   20.4801 C   0  0  0  0  0  0  0  0  0  0  0  0
  -30.1904  -22.1551   22.3765 C   0  0  0  0  0  0  0  0  0  0  0  0
  -22.9106  -13.5006   21.2757 C   0  0  0  0  0  0  0  0  0  0  0  0
  -23.0714  -26.1863   23.2475 C   0  0  0  0  0  0  0  0  0  0  0  0
  -23.7161  -29.1608   22.1256 C   0  0  0  0  0  0  0  0  0  0  0  0
  -26.0570  -31.5169   21.3409 C   0  0  0  0  0  0  0  0  0  0  0  0
  -30.7453  -14.7231   20.6285 C   0  0  0  0  0  0  0  0  0  0  0  0
  -18.2583  -25.8405   21.5826 C   0  0  0  0  0  0  0  0  0  0  0  0
  -24.5769  -27.0909   25.0561 C   0  0  0  0  0  0  0  0  0  0  0  0
  -25.6787  -27.5925   22.3581 C   0  0  0  0  0  0  0  0  0  0  0  0
  -19.5871  -26.3051   20.9921 C   0  0  0  0  0  0  0  0  0  0  0  0
  -29.5960  -12.3411   18.2448 C   0  0  0  0  0  0  0  0  0  0  0  0
  -20.6763  -25.2680   21.2470 C   0  0  0  0  0  0  0  0  0  0  0  0
  -28.1569  -12.0569   18.6811 C   0  0  0  0  0  0  0  0  0  0  0  0
  -31.3951  -23.3535   20.7100 C   0  0  0  0  0  0  0  0  0  0  0  0
  -30.5208  -12.5510   19.4425 C   0  0  0  0  0  0  0  0  0  0  0  0
  -31.8016  -21.8939   20.6707 C   0  0  0  0  0  0  0  0  0  0  0  0
  -28.6288  -13.2774   20.8432 C   0  0  0  0  0  0  0  0  0  0  0  0
  -20.9057  -25.0670   22.7498 C   0  0  1  0  0  0  0  0  0  0  0  0
  -30.8157  -23.5145   22.1080 C   0  0  1  0  0  0  0  0  0  0  0  0
  -23.6760  -27.4139   23.8681 C   0  0  1  0  0  0  0  0  0  0  0  0
  -27.6469  -13.1232   19.6703 C   0  0  2  0  0  0  0  0  0  0  0  0
  -26.2823  -33.8358   20.4083 C   0  0  0  0  0  0  0  0  0  0  0  0
  -23.1873  -28.0818   19.3210 C   0  0  0  0  0  0  0  0  0  0  0  0
  -24.3266  -30.1122   18.4005 C   0  0  0  0  0  0  0  0  0  0  0  0
  -22.2478  -30.3581   19.7573 C   0  0  0  0  0  0  0  0  0  0  0  0
  -27.3110  -32.5200   23.8269 C   0  0  0  0  0  0  0  0  0  0  0  0
  -29.8225  -24.6564   22.2138 C   0  0  0  0  0  0  0  0  0  1  0  0
  -24.4077  -29.7160   20.9040 C   0  0  1  0  0  0  0  0  0  0  0  0
  -26.1466  -32.9964   21.6692 C   0  0  2  0  0  0  0  0  0  0  0  0
  -23.5558  -29.5499   19.6139 C   0  0  0  0  0  0  0  0  0  0  0  0
  -25.8510  -11.5405   20.2627 N   0  0  0  0  0  0  0  0  0  0  0  0
  -26.2374  -12.8222   20.1441 N   0  0  0  0  0  0  0  0  0  0  0  0
  -30.8387  -21.2316   21.5307 N   0  0  0  0  0  0  0  0  0  0  0  0
  -24.3811  -28.1282   22.8018 N   0  0  0  0  0  0  0  0  0  0  0  0
  -29.9759  -13.5778   20.3333 N   0  0  0  0  0  0  0  0  0  0  0  0
  -25.4905  -15.0532   20.4184 N   0  0  0  0  0  0  0  0  0  0  0  0
  -21.8936  -12.5963   21.6110 N   0  0  0  0  0  0  0  0  0  0  0  0
  -30.1108  -15.6454   21.4600 N   0  0  0  0  0  0  0  0  0  0  0  0
  -21.6906  -26.1556   23.2913 N   0  0  0  0  0  0  0  0  0  0  0  0
  -24.7486  -31.0987   21.2209 N   0  0  0  0  0  0  0  0  0  0  0  0
  -27.3257  -33.2631   22.5406 N   0  3  0  0  0  0  0  0  0  0  0  0
  -29.3346  -21.9686   23.2293 O   0  0  0  0  0  0  0  0  0  0  0  0
  -22.6846  -14.7324   21.3464 O   0  0  0  0  0  0  0  0  0  0  0  0
  -23.8034  -25.3310   22.7634 O   0  0  0  0  0  0  0  0  0  0  0  0
  -22.6294  -29.6311   22.4715 O   0  0  0  0  0  0  0  0  0  0  0  0
  -27.0486  -30.8045   21.2009 O   0  0  0  0  0  0  0  0  0  0  0  0
  -31.8726  -14.8873   20.1551 O   0  0  0  0  0  0  0  0  0  0  0  0
  -21.5764   -7.0347   21.6679 O   0  0  0  0  0  0  0  0  0  0  0  0
  -29.6223  -24.9722   23.5909 O   0  0  0  0  0  0  0  0  0  1  0  0
  -18.6147   -6.8556   26.3155 F   0  0  0  0  0  0  0  0  0  0  0  0
  -28.7062  -17.2744   23.2337 F   0  0  0  0  0  0  0  0  0  0  0  0
  -22.0237   -5.0693   23.5599 F   0  0  0  0  0  0  0  0  0  0  0  0
  1  2  1  0  0  0  0
  1  5  2  0  0  0  0
  2  6  2  0  0  0  0
  3 10  2  0  0  0  0
  3 18  1  0  0  0  0
  4 11  1  0  0  0  0
  4 18  2  0  0  0  0
  5 20  1  0  0  0  0
  6 22  1  0  0  0  0
  7 12  2  0  0  0  0
  7 21  1  0  0  0  0
  8  9  2  0  0  0  0
  8 24  1  0  0  0  0
  9 25  1  0  0  0  0
 10 26  1  0  0  0  0
 11 26  2  0  0  0  0
 12 27  1  0  0  0  0
 13 14  2  0  0  0  0
 13 28  1  0  0  0  0
 14 29  1  0  0  0  0
 15 23  1  0  0  0  0
 15 27  2  0  0  0  0
 16 24  2  0  0  0  0
 16 30  1  0  0  0  0
 17 29  2  0  0  0  0
 17 31  1  0  0  0  0
 18 32  1  0  0  0  0
 19 32  1  0  0  0  0
 19 33  2  0  0  0  0
 19 35  1  0  0  0  0
 20 22  2  0  0  0  0
 20 40  1  0  0  0  0
 21 23  2  0  0  0  0
 21 41  1  0  0  0  0
 22 51  1  0  0  0  0
 23 42  1  0  0  0  0
 24 66  1  0  0  0  0
 25 30  2  0  0  0  0
 25 71  1  0  0  0  0
 26 81  1  0  0  0  0
 27 82  1  0  0  0  0
 28 31  2  0  0  0  0
 28 81  1  0  0  0  0
 29 83  1  0  0  0  0
 30 84  1  0  0  0  0
 31 85  1  0  0  0  0
 32 64  2  0  0  0  0
 33 65  1  0  0  0  0
 33 69  1  0  0  0  0
 34 52  1  0  0  0  0
 34 66  1  0  0  0  0
 34 75  2  0  0  0  0
 35 70  1  0  0  0  0
 35 76  2  0  0  0  0
 36 53  1  0  0  0  0
 36 72  1  0  0  0  0
 36 77  2  0  0  0  0
 37 61  1  0  0  0  0
 37 67  1  0  0  0  0
 37 78  2  0  0  0  0
 38 62  1  0  0  0  0
 38 73  1  0  0  0  0
 38 79  2  0  0  0  0
 39 68  1  0  0  0  0
 39 71  1  0  0  0  0
 39 80  2  0  0  0  0
 40 43  1  0  0  0  0
 41 53  1  0  0  0  0
 42 67  1  0  0  0  0
 43 45  1  0  0  0  0
 44 46  1  0  0  0  0
 44 48  1  0  0  0  0
 45 51  1  0  0  0  0
 46 54  1  0  0  0  0
 47 49  1  0  0  0  0
 47 52  1  0  0  0  0
 48 68  1  0  0  0  0
 49 66  1  0  0  0  0
 50 54  1  0  0  0  0
 50 68  1  0  0  0  0
 51 72  1  0  0  0  0
 52 60  1  0  0  0  0
 53 67  1  0  0  0  0
 54 65  1  0  0  0  0
 55 62  1  0  0  0  0
 56 63  1  0  0  0  0
 57 63  1  0  0  0  0
 58 63  1  0  0  0  0
 59 74  1  0  0  0  0
 60 82  1  0  0  0  0
 61 63  1  0  0  0  0
 61 73  1  0  0  0  0
 62 74  1  0  0  0  0
 64 65  1  0  0  0  0
M  CHG  1  74   1
M  ISO  4  39 100  60 101  71 100  82 101
M  END
> <Batch ID>
0018

> <Smiles>
CNC(C)C(=O)NC(C(=O)N1Cc2cc([101O:1][101CH2:1]C3CCN(c4ccc([100NH:0][100C:0](=O)N5CCCC(n6nc(-c7ccc(Oc8ccc(F)cc8F)cc7)c(C(N)=O)c6N)C5)c(F)c4)C3=O)ccc2CC1C(=O)NC1CCCc2ccccc21)C(C)(C)C

> <Shape>
0.296

> <Color>
0.195

> <Negative vol penalty>
0.000

$$$$

  -OEChem-04042321033D

 84 92  0     1  0  0  0  0  0999 V2000
  -31.4145  -29.8531   18.3057 C   0  0  0  0  0  0  0  0  0  0  0  0
  -30.3278  -28.9857   18.3528 C   0  0  0  0  0  0  0  0  0  0  0  0
  -26.8353  -12.3322   21.7466 C   0  0  0  0  0  0  0  0  0  0  0  0
  -25.7738  -14.2282   20.6906 C   0  0  0  0  0  0  0  0  0  0  0  0
  -31.6723  -30.7047   19.3791 C   0  0  0  0  0  0  0  0  0  0  0  0
  -29.4989  -28.9686   19.4740 C   0  0  0  0  0  0  0  0  0  0  0  0
  -24.5843  -28.8851   18.2556 C   0  0  0  0  0  0  0  0  0  0  0  0
  -26.9558  -22.6586   20.5244 C   0  0  0  0  0  0  0  0  0  0  0  0
  -27.2116  -21.9996   18.2142 C   0  0  0  0  0  0  0  0  0  0  0  0
  -25.6096  -22.9423   20.2945 C   0  0  0  0  0  0  0  0  0  0  0  0
  -25.8654  -22.2833   17.9842 C   0  0  0  0  0  0  0  0  0  0  0  0
  -25.5963  -11.7019   21.8607 C   0  0  0  0  0  0  0  0  0  0  0  0
  -24.5347  -13.5980   20.8046 C   0  0  0  0  0  0  0  0  0  0  0  0
  -24.0494  -27.6630   17.8506 C   0  0  0  0  0  0  0  0  0  0  0  0
  -23.4856   -9.9769   19.8602 C   0  0  0  0  0  0  0  0  0  0  0  0
  -23.4094   -8.6287   19.5107 C   0  0  0  0  0  0  0  0  0  0  0  0
  -23.1283  -27.3417   20.0568 C   0  0  0  0  0  0  0  0  0  0  0  0
  -22.6847   -8.0887   21.7513 C   0  0  0  0  0  0  0  0  0  0  0  0
  -26.9241  -13.5954   21.1616 C   0  0  0  0  0  0  0  0  0  0  0  0
  -29.3355  -13.7794   20.3497 C   0  0  0  0  0  0  0  0  0  0  0  0
  -30.8405  -30.7049   20.5099 C   0  0  0  0  0  0  0  0  0  0  0  0
  -24.4041  -29.3404   19.5697 C   0  0  0  0  0  0  0  0  0  0  0  0
  -29.7467  -29.8201   20.5642 C   0  0  0  0  0  0  0  0  0  0  0  0
  -23.6597  -28.5712   20.4753 C   0  0  0  0  0  0  0  0  0  0  0  0
  -27.7569  -22.1873   19.4842 C   0  0  0  0  0  0  0  0  0  0  0  0
  -25.0644  -22.7546   19.0244 C   0  0  0  0  0  0  0  0  0  0  0  0
  -24.4459  -12.3348   21.3896 C   0  0  0  0  0  0  0  0  0  0  0  0
  -23.3237  -26.8897   18.7520 C   0  0  0  0  0  0  0  0  0  0  0  0
  -23.1613  -10.3810   21.1553 C   0  0  0  0  0  0  0  0  0  0  0  0
  -23.0090   -7.6846   20.4562 C   0  0  0  0  0  0  0  0  0  0  0  0
  -22.7609   -9.4370   22.1008 C   0  0  0  0  0  0  0  0  0  0  0  0
  -28.2037  -14.2472   21.0441 C   0  0  0  0  0  0  0  0  0  0  0  0
  -30.2832  -14.7549   20.5410 C   0  0  0  0  0  0  0  0  0  0  0  0
  -29.5140  -12.5711   19.5987 C   0  0  0  0  0  0  0  0  0  0  0  0
  -26.3448  -30.0269   21.9917 C   0  0  0  0  0  0  0  0  0  0  0  0
  -23.6015  -31.0450   23.3917 C   0  0  0  0  0  0  0  0  0  0  0  0
  -20.1978  -30.8674   23.5640 C   0  0  0  0  0  0  0  0  0  0  0  0
  -30.0703  -20.5286   21.6793 C   0  0  0  0  0  0  0  0  0  0  0  0
  -31.1869  -31.6099   21.6656 C   0  0  0  0  0  0  0  0  0  0  0  0
  -24.9648  -30.6734   19.9833 C   0  0  0  0  0  0  0  0  0  0  0  0
  -23.4205  -29.0246   21.8915 C   0  0  0  0  0  0  0  0  0  0  0  0
  -30.0420  -31.7957   22.6581 C   0  0  0  0  0  0  0  0  0  0  0  0
  -31.6240  -18.1295   23.6431 C   0  0  0  0  0  0  0  0  0  0  0  0
  -29.4084  -30.4509   23.0000 C   0  0  0  0  0  0  0  0  0  0  0  0
  -31.0382  -16.8097   23.1431 C   0  0  0  0  0  0  0  0  0  0  0  0
  -30.5501  -19.2083   23.7173 C   0  0  0  0  0  0  0  0  0  0  0  0
  -29.2540  -18.1351   21.9036 C   0  0  0  0  0  0  0  0  0  0  0  0
  -28.8101  -29.7898   21.7525 C   0  0  1  0  0  0  0  0  0  0  0  0
  -25.1567  -30.7988   21.4916 C   0  0  1  0  0  0  0  0  0  0  0  0
  -30.2998  -17.0053   21.8074 C   0  0  2  0  0  0  0  0  0  0  0  0
  -22.7049  -21.4870   20.3808 C   0  0  0  0  0  0  0  0  0  0  0  0
  -17.8699  -31.4510   24.2973 C   0  0  0  0  0  0  0  0  0  0  0  0
  -24.2796  -29.2319   25.7502 C   0  0  0  0  0  0  0  0  0  0  0  0
  -21.9054  -29.4534   26.5133 C   0  0  0  0  0  0  0  0  0  0  0  0
  -23.3659  -31.4716   26.3851 C   0  0  0  0  0  0  0  0  0  0  0  0
  -29.0758  -19.4200   19.7147 C   0  0  0  0  0  0  0  0  0  0  0  0
  -19.9259  -32.9277   21.4568 C   0  0  0  0  0  0  0  0  0  0  0  0
  -29.1964  -21.8842   19.7290 C   0  0  0  0  0  0  0  0  0  0  0  0
  -22.7362  -22.8887   19.8739 C   0  0  0  0  0  0  0  0  0  0  0  0
  -23.2477  -23.4923   17.5027 C   0  0  0  0  0  0  0  0  0  0  0  0
  -23.5046  -24.9815   17.3442 C   0  0  0  0  0  0  0  0  0  1  0  0
  -22.5368  -30.4040   24.2486 C   0  0  1  0  0  0  0  0  0  0  0  0
  -19.1339  -31.9492   23.6142 C   0  0  2  0  0  0  0  0  0  0  0  0
  -23.0279  -30.1305   25.6983 C   0  0  0  0  0  0  0  0  0  0  0  0
  -28.4116  -15.4280   21.6328 N   0  0  0  0  0  0  0  0  0  0  0  0
  -29.6850  -15.7103   21.3088 N   0  0  0  0  0  0  0  0  0  0  0  0
  -23.9943  -30.3322   22.2500 N   0  0  0  0  0  0  0  0  0  0  0  0
  -29.8658  -19.3635   22.4333 N   0  0  0  0  0  0  0  0  0  0  0  0
  -31.5616  -14.8800   20.1259 N   0  0  0  0  0  0  0  0  0  0  0  0
  -29.2104  -12.5838   18.2305 N   0  0  0  0  0  0  0  0  0  0  0  0
  -27.5430  -30.4020   21.4145 N   0  0  0  0  0  0  0  0  0  0  0  0
  -21.3688  -31.2744   24.1676 N   0  0  0  0  0  0  0  0  0  0  0  0
  -23.7116  -23.0377   18.7935 N   0  0  3  0  0  0  0  0  0  0  0  0
  -29.3843  -20.6323   20.4598 N   0  0  0  0  0  0  0  0  0  0  0  0
  -18.7800  -32.3918   22.2359 N   0  3  0  0  0  0  0  0  0  0  0  0
  -29.9148  -11.5072   20.1288 O   0  0  0  0  0  0  0  0  0  0  0  0
  -26.1865  -29.1564   22.8395 O   0  0  0  0  0  0  0  0  0  0  0  0
  -24.0625  -32.1413   23.7192 O   0  0  0  0  0  0  0  0  0  0  0  0
  -20.0077  -29.7697   23.0449 O   0  0  0  0  0  0  0  0  0  0  0  0
  -30.8185  -21.4311   22.0765 O   0  0  0  0  0  0  0  0  0  0  0  0
  -23.2367  -11.7200   21.5005 O   0  0  0  0  0  0  0  0  0  0  0  0
  -22.8011  -25.6961   18.3594 O   0  0  0  0  0  0  0  0  0  1  0  0
  -22.9344   -6.3902   20.1200 F   0  0  0  0  0  0  0  0  0  0  0  0
  -22.4470   -9.8194   23.3462 F   0  0  0  0  0  0  0  0  0  0  0  0
  1  2  1  0  0  0  0
  1  5  2  0  0  0  0
  2  6  2  0  0  0  0
  3 12  2  0  0  0  0
  3 19  1  0  0  0  0
  4 13  1  0  0  0  0
  4 19  2  0  0  0  0
  5 21  1  0  0  0  0
  6 23  1  0  0  0  0
  7 14  2  0  0  0  0
  7 22  1  0  0  0  0
  8 10  2  0  0  0  0
  8 25  1  0  0  0  0
  9 11  1  0  0  0  0
  9 25  2  0  0  0  0
 10 26  1  0  0  0  0
 11 26  2  0  0  0  0
 12 27  1  0  0  0  0
 13 27  2  0  0  0  0
 14 28  1  0  0  0  0
 15 16  2  0  0  0  0
 15 29  1  0  0  0  0
 16 30  1  0  0  0  0
 17 24  1  0  0  0  0
 17 28  2  0  0  0  0
 18 30  2  0  0  0  0
 18 31  1  0  0  0  0
 19 32  1  0  0  0  0
 20 32  1  0  0  0  0
 20 33  2  0  0  0  0
 20 34  1  0  0  0  0
 21 23  2  0  0  0  0
 21 39  1  0  0  0  0
 22 24  2  0  0  0  0
 22 40  1  0  0  0  0
 23 48  1  0  0  0  0
 24 41  1  0  0  0  0
 25 58  1  0  0  0  0
 26 73  1  0  0  0  0
 27 81  1  0  0  0  0
 28 82  1  0  0  0  0
 29 31  2  0  0  0  0
 29 81  1  0  0  0  0
 30 83  1  0  0  0  0
 31 84  1  0  0  0  0
 32 65  2  0  0  0  0
 33 66  1  0  0  0  0
 33 69  1  0  0  0  0
 34 70  1  0  0  0  0
 34 76  2  0  0  0  0
 35 49  1  0  0  0  0
 35 71  1  0  0  0  0
 35 77  2  0  0  0  0
 36 62  1  0  0  0  0
 36 67  1  0  0  0  0
 36 78  2  0  0  0  0
 37 63  1  0  0  0  0
 37 72  1  0  0  0  0
 37 79  2  0  0  0  0
 38 68  1  0  0  0  0
 38 74  1  0  0  0  0
 38 80  2  0  0  0  0
 39 42  1  0  0  0  0
 40 49  1  0  0  0  0
 41 67  1  0  0  0  0
 42 44  1  0  0  0  0
 43 45  1  0  0  0  0
 43 46  1  0  0  0  0
 44 48  1  0  0  0  0
 45 50  1  0  0  0  0
 46 68  1  0  0  0  0
 47 50  1  0  0  0  0
 47 68  1  0  0  0  0
 48 71  1  0  0  0  0
 49 67  1  0  0  0  0
 50 66  1  0  0  0  0
 51 59  1  0  0  0  0
 52 63  1  0  0  0  0
 53 64  1  0  0  0  0
 54 64  1  0  0  0  0
 55 64  1  0  0  0  0
 56 74  1  0  0  0  0
 57 75  1  0  0  0  0
 58 74  1  0  0  0  0
 59 73  1  0  0  0  0
 60 61  1  0  0  0  0
 60 73  1  0  0  0  0
 61 82  1  0  0  0  0
 62 64  1  0  0  0  0
 62 72  1  0  0  0  0
 63 75  1  0  0  0  0
 65 66  1  0  0  0  0
M  CHG  1  75   1
M  ISO  4  38 100  61 101  74 100  82 101
M  END
> <Batch ID>
0018

> <Smiles>
CCN(C[101CH2:1][101O:1]c1ccc2c(c1)CN(C(=O)C(NC(=O)C(C)NC)C(C)(C)C)C(C(=O)NC1CCCc3ccccc31)C2)c1ccc(C[100N:0](C)[100C:0](=O)N2CCCC(n3nc(-c4ccc(Oc5ccc(F)cc5F)cc4)c(C(N)=O)c3N)C2)cc1

> <Shape>
0.254

> <Color>
0.076

> <Negative vol penalty>
0.000

$$$$

  -OEChem-04042321033D

 87 96  0     1  0  0  0  0  0999 V2000
  -21.2575  -30.6409   26.3636 C   0  0  0  0  0  0  0  0  0  0  0  0
  -21.0654  -30.2355   25.0467 C   0  0  0  0  0  0  0  0  0  0  0  0
  -23.1777   -9.7080   20.0015 C   0  0  0  0  0  0  0  0  0  0  0  0
  -23.9434   -9.8797   22.2865 C   0  0  0  0  0  0  0  0  0  0  0  0
  -22.4053  -31.3511   26.7128 C   0  0  0  0  0  0  0  0  0  0  0  0
  -22.0207  -30.5411   24.0780 C   0  0  0  0  0  0  0  0  0  0  0  0
  -25.2745  -25.3367   20.3071 C   0  0  0  0  0  0  0  0  0  0  0  0
  -29.6526  -18.0145   19.2555 C   0  0  0  0  0  0  0  0  0  0  0  0
  -27.8701  -19.3945   20.1244 C   0  0  0  0  0  0  0  0  0  0  0  0
  -30.0342  -19.0469   18.3986 C   0  0  0  0  0  0  0  0  0  0  0  0
  -28.2516  -20.4269   19.2676 C   0  0  0  0  0  0  0  0  0  0  0  0
  -22.5123   -8.5225   20.3135 C   0  0  0  0  0  0  0  0  0  0  0  0
  -23.2779   -8.6941   22.5985 C   0  0  0  0  0  0  0  0  0  0  0  0
  -25.7872  -24.4113   19.3978 C   0  0  0  0  0  0  0  0  0  0  0  0
  -20.1114   -7.7174   23.2617 C   0  0  0  0  0  0  0  0  0  0  0  0
  -19.3628   -7.6865   24.4382 C   0  0  0  0  0  0  0  0  0  0  0  0
  -27.1009  -26.1512   18.3514 C   0  0  0  0  0  0  0  0  0  0  0  0
  -20.7317   -5.8740   25.2617 C   0  0  0  0  0  0  0  0  0  0  0  0
  -23.8933  -10.3866   20.9880 C   0  0  0  0  0  0  0  0  0  0  0  0
  -24.0133  -12.8013   20.1742 C   0  0  0  0  0  0  0  0  0  0  0  0
  -23.3798  -31.6572   25.7497 C   0  0  0  0  0  0  0  0  0  0  0  0
  -25.6853  -26.6715   20.2516 C   0  0  0  0  0  0  0  0  0  0  0  0
  -23.1820  -31.2572   24.4143 C   0  0  0  0  0  0  0  0  0  0  0  0
  -26.6002  -27.0802   19.2675 C   0  0  0  0  0  0  0  0  0  0  0  0
  -28.5705  -18.1883   20.1184 C   0  0  0  0  0  0  0  0  0  0  0  0
  -29.3337  -20.2531   18.4046 C   0  0  0  0  0  0  0  0  0  0  0  0
  -22.5624   -8.0156   21.6120 C   0  0  0  0  0  0  0  0  0  0  0  0
  -26.6980  -24.8176   18.4223 C   0  0  0  0  0  0  0  0  0  0  0  0
  -21.1702   -6.8265   23.0851 C   0  0  0  0  0  0  0  0  0  0  0  0
  -19.6729   -6.7648   25.4382 C   0  0  0  0  0  0  0  0  0  0  0  0
  -21.4803   -5.9048   24.0851 C   0  0  0  0  0  0  0  0  0  0  0  0
  -24.5814  -11.6110   20.6662 C   0  0  0  0  0  0  0  0  0  0  0  0
  -25.0780  -13.6576   20.0338 C   0  0  0  0  0  0  0  0  0  0  0  0
  -22.6454  -13.1059   19.8712 C   0  0  0  0  0  0  0  0  0  0  0  0
  -25.4329  -30.1169   21.7150 C   0  0  0  0  0  0  0  0  0  0  0  0
  -28.3778  -23.2795   17.9715 C   0  0  0  0  0  0  0  0  0  1  0  0
  -28.3861  -29.6563   21.0244 C   0  0  0  0  0  0  0  0  0  0  0  0
  -31.6295  -30.4143   20.2875 C   0  0  0  0  0  0  0  0  0  0  0  0
  -29.7505  -15.7628   22.4940 C   0  0  0  0  0  0  0  0  0  0  0  0
  -24.5816  -32.4680   26.1653 C   0  0  0  0  0  0  0  0  0  0  0  0
  -25.1124  -27.7151   21.1718 C   0  0  0  0  0  0  0  0  0  0  0  0
  -26.9872  -28.5332   19.2237 C   0  0  0  0  0  0  0  0  0  0  0  0
  -25.7240  -32.4262   25.1537 C   0  0  0  0  0  0  0  0  0  0  0  0
  -30.0519  -12.8206   20.2682 C   0  0  0  0  0  0  0  0  0  0  0  0
  -31.1701  -22.8519   16.5700 C   0  0  0  0  0  0  0  0  0  0  0  0
  -25.1945  -32.6509   23.7409 C   0  0  0  0  0  0  0  0  0  0  0  0
  -28.6145  -12.3077   20.1976 C   0  0  0  0  0  0  0  0  0  0  0  0
  -29.7906  -23.0370   15.9597 C   0  0  0  0  0  0  0  0  0  0  0  0
  -31.1096  -21.4427   17.1413 C   0  0  0  0  0  0  0  0  0  0  0  0
  -30.3320  -13.5444   21.5817 C   0  0  0  0  0  0  0  0  0  0  0  0
  -27.9415  -14.1361   21.8053 C   0  0  0  0  0  0  0  0  0  0  0  0
  -24.2072  -31.5481   23.3399 C   0  0  1  0  0  0  0  0  0  0  0  0
  -26.1328  -28.7981   21.5655 C   0  0  1  0  0  0  0  0  0  0  0  0
  -27.6130  -13.4423   20.4748 C   0  0  2  0  0  0  0  0  0  0  0  0
  -28.8474  -22.2986   16.9337 C   0  0  2  0  0  0  0  0  0  0  0  0
  -27.6750  -21.7076   16.1528 C   0  0  0  0  0  0  0  0  0  0  0  0
  -33.3057  -32.2738   20.4598 C   0  0  0  0  0  0  0  0  0  0  0  0
  -27.0330  -31.0868   18.6949 C   0  0  0  0  0  0  0  0  0  0  0  0
  -29.1738  -32.3249   18.3043 C   0  0  0  0  0  0  0  0  0  0  0  0
  -27.9497  -32.6030   20.4600 C   0  0  0  0  0  0  0  0  0  0  0  0
  -29.4621  -18.1903   22.8158 C   0  0  0  0  0  0  0  0  0  0  0  0
  -33.4278  -28.7916   21.9879 C   0  0  0  0  0  0  0  0  0  0  0  0
  -28.1616  -17.0850   21.0346 C   0  0  0  0  0  0  0  0  0  0  0  0
  -29.1659  -30.4356   19.9959 C   0  0  1  0  0  0  0  0  0  0  0  0
  -32.7353  -31.0309   21.1250 C   0  0  2  0  0  0  0  0  0  0  0  0
  -28.3301  -31.5841   19.3637 C   0  0  0  0  0  0  0  0  0  0  0  0
  -25.9043  -11.6992   20.8274 N   0  0  0  0  0  0  0  0  0  0  0  0
  -26.1764  -12.9552   20.4344 N   0  0  0  0  0  0  0  0  0  0  0  0
  -29.7130  -21.2780   17.5561 N   0  0  3  0  0  0  0  0  0  0  0  0
  -27.2092  -29.0353   20.5887 N   0  0  0  0  0  0  0  0  0  0  0  0
  -29.3403  -14.5886   21.8414 N   0  0  0  0  0  0  0  0  0  0  0  0
  -25.1725  -14.9351   19.6080 N   0  0  0  0  0  0  0  0  0  0  0  0
  -21.8407  -13.6451   20.8842 N   0  0  0  0  0  0  0  0  0  0  0  0
  -24.9181  -30.3407   22.9777 N   0  0  0  0  0  0  0  0  0  0  0  0
  -30.3864  -30.8805   20.6600 N   0  0  0  0  0  0  0  0  0  0  0  0
  -29.0658  -16.9449   22.1740 N   0  0  0  0  0  0  0  0  0  0  0  0
  -33.8426  -30.0530   21.3217 N   0  3  0  0  0  0  0  0  0  0  0  0
  -22.1468  -12.8905   18.7405 O   0  0  0  0  0  0  0  0  0  0  0  0
  -25.3656  -30.8772   20.7564 O   0  0  0  0  0  0  0  0  0  0  0  0
  -28.9536  -23.4891   19.0308 O   0  0  0  0  0  0  0  0  0  0  0  0
  -28.8037  -29.6025   22.1846 O   0  0  0  0  0  0  0  0  0  0  0  0
  -31.8469  -29.6034   19.3900 O   0  0  0  0  0  0  0  0  0  0  0  0
  -30.6824  -15.7567   23.3086 O   0  0  0  0  0  0  0  0  0  0  0  0
  -21.9130   -6.8589   21.9168 O   0  0  0  0  0  0  0  0  0  0  0  0
  -27.1980  -23.9081   17.5406 O   0  0  0  0  0  0  0  0  0  1  0  0
  -18.9549   -6.7364   26.5686 F   0  0  0  0  0  0  0  0  0  0  0  0
  -22.4970   -5.0473   23.9217 F   0  0  0  0  0  0  0  0  0  0  0  0
  1  2  1  0  0  0  0
  1  5  2  0  0  0  0
  2  6  2  0  0  0  0
  3 12  2  0  0  0  0
  3 19  1  0  0  0  0
  4 13  1  0  0  0  0
  4 19  2  0  0  0  0
  5 21  1  0  0  0  0
  6 23  1  0  0  0  0
  7 14  2  0  0  0  0
  7 22  1  0  0  0  0
  8 10  2  0  0  0  0
  8 25  1  0  0  0  0
  9 11  1  0  0  0  0
  9 25  2  0  0  0  0
 10 26  1  0  0  0  0
 11 26  2  0  0  0  0
 12 27  1  0  0  0  0
 13 27  2  0  0  0  0
 14 28  1  0  0  0  0
 15 16  2  0  0  0  0
 15 29  1  0  0  0  0
 16 30  1  0  0  0  0
 17 24  1  0  0  0  0
 17 28  2  0  0  0  0
 18 30  2  0  0  0  0
 18 31  1  0  0  0  0
 19 32  1  0  0  0  0
 20 32  1  0  0  0  0
 20 33  2  0  0  0  0
 20 34  1  0  0  0  0
 21 23  2  0  0  0  0
 21 40  1  0  0  0  0
 22 24  2  0  0  0  0
 22 41  1  0  0  0  0
 23 52  1  0  0  0  0
 24 42  1  0  0  0  0
 25 63  1  0  0  0  0
 26 69  1  0  0  0  0
 27 84  1  0  0  0  0
 28 85  1  0  0  0  0
 29 31  2  0  0  0  0
 29 84  1  0  0  0  0
 30 86  1  0  0  0  0
 31 87  1  0  0  0  0
 32 67  2  0  0  0  0
 33 68  1  0  0  0  0
 33 72  1  0  0  0  0
 34 73  1  0  0  0  0
 34 78  2  0  0  0  0
 35 53  1  0  0  0  0
 35 74  1  0  0  0  0
 35 79  2  0  0  0  0
 36 55  1  0  0  0  0
 36 80  2  0  0  0  0
 36 85  1  0  0  0  0
 37 64  1  0  0  0  0
 37 70  1  0  0  0  0
 37 81  2  0  0  0  0
 38 65  1  0  0  0  0
 38 75  1  0  0  0  0
 38 82  2  0  0  0  0
 39 71  1  0  0  0  0
 39 76  1  0  0  0  0
 39 83  2  0  0  0  0
 40 43  1  0  0  0  0
 41 53  1  0  0  0  0
 42 70  1  0  0  0  0
 43 46  1  0  0  0  0
 44 47  1  0  0  0  0
 44 50  1  0  0  0  0
 45 48  1  0  0  0  0
 45 49  1  0  0  0  0
 46 52  1  0  0  0  0
 47 54  1  0  0  0  0
 48 55  1  0  0  0  0
 49 69  1  0  0  0  0
 50 71  1  0  0  0  0
 51 54  1  0  0  0  0
 51 71  1  0  0  0  0
 52 74  1  0  0  0  0
 53 70  1  0  0  0  0
 54 68  1  0  0  0  0
 55 56  1  0  0  0  0
 55 69  1  0  0  0  0
 57 65  1  0  0  0  0
 58 66  1  0  0  0  0
 59 66  1  0  0  0  0
 60 66  1  0  0  0  0
 61 76  1  0  0  0  0
 62 77  1  0  0  0  0
 63 76  1  0  0  0  0
 64 66  1  0  0  0  0
 64 75  1  0  0  0  0
 65 77  1  0  0  0  0
 67 68  1  0  0  0  0
M  CHG  1  77   1
M  ISO  4  36 101  39 100  76 100  85 101
M  END
> <Batch ID>
0018

> <Smiles>
CNC(C)C(=O)NC(C(=O)N1Cc2cc([101O:1][101C:1](=O)C3(C)CCCN3c3ccc(C[100N:0](C)[100C:0](=O)N4CCCC(n5nc(-c6ccc(Oc7ccc(F)cc7F)cc6)c(C(N)=O)c5N)C4)cc3)ccc2CC1C(=O)NC1CCCc2ccccc21)C(C)(C)C

> <Shape>
0.293

> <Color>
0.133

> <Negative vol penalty>
0.000

$$$$

  -OEChem-04042321033D

 86 94  0     1  0  0  0  0  0999 V2000
  -18.0646  -30.6280   16.4336 C   0  0  0  0  0  0  0  0  0  0  0  0
  -19.2372  -29.8800   16.4636 C   0  0  0  0  0  0  0  0  0  0  0  0
  -27.0426  -25.2745   13.8730 C   0  0  0  0  0  0  0  0  0  0  0  0
  -26.5631  -15.0495   21.4488 C   0  0  0  0  0  0  0  0  0  0  0  0
  -26.7286  -14.7724   19.0545 C   0  0  0  0  0  0  0  0  0  0  0  0
  -18.0680  -31.9460   16.8884 C   0  0  0  0  0  0  0  0  0  0  0  0
  -20.4143  -30.4500   16.9474 C   0  0  0  0  0  0  0  0  0  0  0  0
  -24.8587  -27.6248   20.0732 C   0  0  0  0  0  0  0  0  0  0  0  0
  -28.3818  -25.1064   13.5209 C   0  0  0  0  0  0  0  0  0  0  0  0
  -26.5193  -24.5918   14.9711 C   0  0  0  0  0  0  0  0  0  0  0  0
  -26.2649  -13.6937   21.5852 C   0  0  0  0  0  0  0  0  0  0  0  0
  -26.4305  -13.4166   19.1908 C   0  0  0  0  0  0  0  0  0  0  0  0
  -26.0887  -27.0959   19.6842 C   0  0  0  0  0  0  0  0  0  0  0  0
  -27.9481  -10.7612   21.5888 C   0  0  0  0  0  0  0  0  0  0  0  0
  -28.6023  -10.0516   22.5958 C   0  0  0  0  0  0  0  0  0  0  0  0
  -27.1735  -29.1454   20.3490 C   0  0  0  0  0  0  0  0  0  0  0  0
  -28.6742  -23.5729   15.3648 C   0  0  0  0  0  0  0  0  0  0  0  0
  -26.4725   -9.5197   23.6047 C   0  0  0  0  0  0  0  0  0  0  0  0
  -26.7949  -15.5888   20.1835 C   0  0  0  0  0  0  0  0  0  0  0  0
  -28.3774  -17.5860   20.0609 C   0  0  0  0  0  0  0  0  0  0  0  0
  -19.2435  -32.5293   17.3871 C   0  0  0  0  0  0  0  0  0  0  0  0
  -24.7754  -28.9242   20.5938 C   0  0  0  0  0  0  0  0  0  0  0  0
  -20.4337  -31.7774   17.4081 C   0  0  0  0  0  0  0  0  0  0  0  0
  -25.9416  -29.6875   20.7463 C   0  0  0  0  0  0  0  0  0  0  0  0
  -29.1976  -24.2556   14.2667 C   0  0  0  0  0  0  0  0  0  0  0  0
  -27.3350  -23.7410   15.7170 C   0  0  0  0  0  0  0  0  0  0  0  0
  -26.1986  -12.8773   20.4562 C   0  0  0  0  0  0  0  0  0  0  0  0
  -27.2459  -27.8573   19.8193 C   0  0  0  0  0  0  0  0  0  0  0  0
  -26.5560  -10.8501   21.5897 C   0  0  0  0  0  0  0  0  0  0  0  0
  -27.8645   -9.4308   23.6037 C   0  0  0  0  0  0  0  0  0  0  0  0
  -25.8182  -10.2293   22.5976 C   0  0  0  0  0  0  0  0  0  0  0  0
  -27.1024  -16.9894   20.0420 C   0  0  0  0  0  0  0  0  0  0  0  0
  -28.1319  -18.9262   19.8880 C   0  0  0  0  0  0  0  0  0  0  0  0
  -29.6681  -16.9825   20.2204 C   0  0  0  0  0  0  0  0  0  0  0  0
  -23.3243  -31.6085   19.7036 C   0  0  0  0  0  0  0  0  0  0  0  0
  -24.4122  -32.6854   22.5634 C   0  0  0  0  0  0  0  0  0  0  0  0
  -26.6900  -32.4037   25.0891 C   0  0  0  0  0  0  0  0  0  0  0  0
  -25.4968  -23.1036   17.3172 C   0  0  0  0  0  0  0  0  0  0  0  0
  -19.2090  -33.9725   17.8237 C   0  0  0  0  0  0  0  0  0  0  0  0
  -23.4447  -29.4703   21.0338 C   0  0  0  0  0  0  0  0  0  0  0  0
  -25.9087  -31.0803   21.3186 C   0  0  0  0  0  0  0  0  0  0  0  0
  -20.4120  -34.3818   18.6696 C   0  0  0  0  0  0  0  0  0  0  0  0
  -23.7883  -21.5223   20.0112 C   0  0  0  0  0  0  0  0  0  0  0  0
  -21.7060  -33.8835   18.0339 C   0  0  0  0  0  0  0  0  0  0  0  0
  -24.6031  -20.2511   20.2610 C   0  0  0  0  0  0  0  0  0  0  0  0
  -23.7128  -21.8646   18.5243 C   0  0  0  0  0  0  0  0  0  0  0  0
  -25.8237  -20.6717   18.0884 C   0  0  0  0  0  0  0  0  0  0  0  0
  -21.7249  -32.3525   17.9488 C   0  0  1  0  0  0  0  0  0  0  0  0
  -23.4078  -30.9949   21.0726 C   0  0  1  0  0  0  0  0  0  0  0  0
  -25.9825  -20.3225   19.5772 C   0  0  2  0  0  0  0  0  0  0  0  0
  -27.3486  -33.4487   27.2736 C   0  0  0  0  0  0  0  0  0  0  0  0
  -30.9374  -22.5750   13.5520 C   0  0  0  0  0  0  0  0  0  0  0  0
  -31.0887  -24.8586   12.6075 C   0  0  0  0  0  0  0  0  0  0  0  0
  -25.6728  -35.0236   21.0621 C   0  0  0  0  0  0  0  0  0  0  0  0
  -27.0710  -35.4801   23.0881 C   0  0  0  0  0  0  0  0  0  0  0  0
  -24.5856  -35.6394   23.2285 C   0  0  0  0  0  0  0  0  0  0  0  0
  -26.2050  -29.8885   26.5715 C   0  0  0  0  0  0  0  0  0  0  0  0
  -31.1524  -26.9007   14.8001 C   0  0  0  0  0  0  0  0  0  0  0  0
  -29.7662  -26.4911   17.6266 C   0  0  0  0  0  0  0  0  0  0  0  0
  -29.8735  -25.5380   16.4458 C   0  0  0  0  0  0  0  0  0  0  0  0
  -31.6284  -24.4680   15.0401 C   0  0  0  0  0  0  0  0  0  0  0  0
  -28.4411  -26.3961   18.3728 C   0  0  0  0  0  0  0  0  0  1  0  0
  -25.6731  -33.3648   23.0406 C   0  0  1  0  0  0  0  0  0  0  0  0
  -26.5221  -32.3658   26.5974 C   0  0  2  0  0  0  0  0  0  0  0  0
  -30.6784  -24.0700   13.8768 C   0  0  0  0  0  0  0  0  0  0  0  0
  -25.7513  -34.8514   22.5922 C   0  0  0  0  0  0  0  0  0  0  0  0
  -26.1199  -17.8779   19.8708 N   0  0  0  0  0  0  0  0  0  0  0  0
  -26.7776  -19.0463   19.7806 N   0  0  0  0  0  0  0  0  0  0  0  0
  -24.5829  -31.5722   21.7283 N   0  0  0  0  0  0  0  0  0  0  0  0
  -25.0567  -21.9191   17.9449 N   0  0  0  0  0  0  0  0  0  0  0  0
  -28.9446  -20.0019   19.8189 N   0  0  0  0  0  0  0  0  0  0  0  0
  -29.7400  -15.5928   20.3869 N   0  0  0  0  0  0  0  0  0  0  0  0
  -26.8032  -23.0483   16.8328 N   0  0  0  0  0  0  0  0  0  0  0  0
  -22.0333  -31.7782   19.2409 N   0  0  0  0  0  0  0  0  0  0  0  0
  -25.7179  -33.1735   24.4862 N   0  0  0  0  0  0  0  0  0  0  0  0
  -26.9517  -31.0433   27.1334 N   0  3  0  0  0  0  0  0  0  0  0  0
  -31.1649  -25.7214   15.7428 N   0  3  1  0  0  0  0  0  0  0  0  0
  -30.7253  -17.6577   20.2318 O   0  0  0  0  0  0  0  0  0  0  0  0
  -24.3547  -31.9073   19.1115 O   0  0  0  0  0  0  0  0  0  0  0  0
  -23.3164  -33.1219   22.9244 O   0  0  0  0  0  0  0  0  0  0  0  0
  -27.5954  -31.8127   24.5047 O   0  0  0  0  0  0  0  0  0  0  0  0
  -24.7779  -24.1032   17.2409 O   0  0  0  0  0  0  0  0  0  0  0  0
  -25.9080  -11.5542   20.5888 O   0  0  0  0  0  0  0  0  0  0  0  0
  -28.4475  -27.3437   19.4398 O   0  0  0  0  0  0  0  0  0  1  0  0
  -28.4928   -8.7482   24.5699 F   0  0  0  0  0  0  0  0  0  0  0  0
  -24.4806  -10.3101   22.6032 F   0  0  0  0  0  0  0  0  0  0  0  0
  1  2  1  0  0  0  0
  1  6  2  0  0  0  0
  2  7  2  0  0  0  0
  3  9  2  0  0  0  0
  3 10  1  0  0  0  0
  4 11  2  0  0  0  0
  4 19  1  0  0  0  0
  5 12  1  0  0  0  0
  5 19  2  0  0  0  0
  6 21  1  0  0  0  0
  7 23  1  0  0  0  0
  8 13  2  0  0  0  0
  8 22  1  0  0  0  0
  9 25  1  0  0  0  0
 10 26  2  0  0  0  0
 11 27  1  0  0  0  0
 12 27  2  0  0  0  0
 13 28  1  0  0  0  0
 14 15  2  0  0  0  0
 14 29  1  0  0  0  0
 15 30  1  0  0  0  0
 16 24  1  0  0  0  0
 16 28  2  0  0  0  0
 17 25  2  0  0  0  0
 17 26  1  0  0  0  0
 18 30  2  0  0  0  0
 18 31  1  0  0  0  0
 19 32  1  0  0  0  0
 20 32  1  0  0  0  0
 20 33  2  0  0  0  0
 20 34  1  0  0  0  0
 21 23  2  0  0  0  0
 21 39  1  0  0  0  0
 22 24  2  0  0  0  0
 22 40  1  0  0  0  0
 23 48  1  0  0  0  0
 24 41  1  0  0  0  0
 25 65  1  0  0  0  0
 26 73  1  0  0  0  0
 27 83  1  0  0  0  0
 28 84  1  0  0  0  0
 29 31  2  0  0  0  0
 29 83  1  0  0  0  0
 30 85  1  0  0  0  0
 31 86  1  0  0  0  0
 32 67  2  0  0  0  0
 33 68  1  0  0  0  0
 33 71  1  0  0  0  0
 34 72  1  0  0  0  0
 34 78  2  0  0  0  0
 35 49  1  0  0  0  0
 35 74  1  0  0  0  0
 35 79  2  0  0  0  0
 36 63  1  0  0  0  0
 36 69  1  0  0  0  0
 36 80  2  0  0  0  0
 37 64  1  0  0  0  0
 37 75  1  0  0  0  0
 37 81  2  0  0  0  0
 38 70  1  0  0  0  0
 38 73  1  0  0  0  0
 38 82  2  0  0  0  0
 39 42  1  0  0  0  0
 40 49  1  0  0  0  0
 41 69  1  0  0  0  0
 42 44  1  0  0  0  0
 43 45  1  0  0  0  0
 43 46  1  0  0  0  0
 44 48  1  0  0  0  0
 45 50  1  0  0  0  0
 46 70  1  0  0  0  0
 47 50  1  0  0  0  0
 47 70  1  0  0  0  0
 48 74  1  0  0  0  0
 49 69  1  0  0  0  0
 50 68  1  0  0  0  0
 51 64  1  0  0  0  0
 52 65  1  0  0  0  0
 53 65  1  0  0  0  0
 54 66  1  0  0  0  0
 55 66  1  0  0  0  0
 56 66  1  0  0  0  0
 57 76  1  0  0  0  0
 58 77  1  0  0  0  0
 59 60  1  0  0  0  0
 59 62  1  0  0  0  0
 60 77  1  0  0  0  0
 61 65  1  0  0  0  0
 61 77  1  0  0  0  0
 62 84  1  0  0  0  0
 63 66  1  0  0  0  0
 63 75  1  0  0  0  0
 64 76  1  0  0  0  0
 67 68  1  0  0  0  0
M  CHG  2  76   1  77   1
M  ISO  4  38 100  62 101  73 100  84 101
M  END
> <Batch ID>
0018

> <Smiles>
CNC(C)C(=O)NC(C(=O)N1Cc2cc([101O:1][101CH2:1]CCN(C)CC(C)(C)c3cccc([100NH:0][100C:0](=O)N4CCCC(n5nc(-c6ccc(Oc7ccc(F)cc7F)cc6)c(C(N)=O)c5N)C4)c3)ccc2CC1C(=O)NC1CCCc2ccccc21)C(C)(C)C

> <Shape>
0.212

> <Color>
0.110

> <Negative vol penalty>
0.000

$$$$

  -OEChem-04042321033D

 86 95  0     1  0  0  0  0  0999 V2000
  -31.1011  -25.8690   17.2845 C   0  0  0  0  0  0  0  0  0  0  0  0
  -29.7663  -26.2504   17.2081 C   0  0  0  0  0  0  0  0  0  0  0  0
  -26.9539  -16.5645   20.2662 C   0  0  0  0  0  0  0  0  0  0  0  0
  -28.2305  -15.6657   22.1100 C   0  0  0  0  0  0  0  0  0  0  0  0
  -31.7735  -25.9396   18.5027 C   0  0  0  0  0  0  0  0  0  0  0  0
  -29.1070  -26.7138   18.3471 C   0  0  0  0  0  0  0  0  0  0  0  0
  -23.2827  -28.2963   19.1841 C   0  0  0  0  0  0  0  0  0  0  0  0
  -19.6720  -20.5110   22.1259 C   0  0  0  0  0  0  0  0  0  0  0  0
  -18.3594  -20.3495   24.1478 C   0  0  0  0  0  0  0  0  0  0  0  0
  -19.8438  -21.8775   22.3466 C   0  0  0  0  0  0  0  0  0  0  0  0
  -18.5312  -21.7161   24.3685 C   0  0  0  0  0  0  0  0  0  0  0  0
  -28.0778  -17.2662   19.8301 C   0  0  0  0  0  0  0  0  0  0  0  0
  -29.3544  -16.3675   21.6739 C   0  0  0  0  0  0  0  0  0  0  0  0
  -22.0982  -27.6840   19.5914 C   0  0  0  0  0  0  0  0  0  0  0  0
  -30.5150  -19.5778   18.4373 C   0  0  0  0  0  0  0  0  0  0  0  0
  -30.3439  -20.9098   18.0605 C   0  0  0  0  0  0  0  0  0  0  0  0
  -22.4541  -28.5006   21.8332 C   0  0  0  0  0  0  0  0  0  0  0  0
  -29.5504  -21.4359   20.2811 C   0  0  0  0  0  0  0  0  0  0  0  0
  -27.0303  -15.7643   21.4062 C   0  0  0  0  0  0  0  0  0  0  0  0
  -25.4846  -13.7366   21.4891 C   0  0  0  0  0  0  0  0  0  0  0  0
  -31.1178  -26.3924   19.6594 C   0  0  0  0  0  0  0  0  0  0  0  0
  -24.0686  -29.0074   20.1023 C   0  0  0  0  0  0  0  0  0  0  0  0
  -29.7752  -26.8150   19.5807 C   0  0  0  0  0  0  0  0  0  0  0  0
  -23.6467  -29.1232   21.4345 C   0  0  0  0  0  0  0  0  0  0  0  0
  -18.9297  -19.7470   23.0265 C   0  0  0  0  0  0  0  0  0  0  0  0
  -19.2735  -22.4801   23.4679 C   0  0  0  0  0  0  0  0  0  0  0  0
  -29.2780  -17.1677   20.5340 C   0  0  0  0  0  0  0  0  0  0  0  0
  -21.6852  -27.7836   20.9168 C   0  0  0  0  0  0  0  0  0  0  0  0
  -30.2037  -19.1747   19.7359 C   0  0  0  0  0  0  0  0  0  0  0  0
  -29.8616  -21.8389   18.9824 C   0  0  0  0  0  0  0  0  0  0  0  0
  -29.7215  -20.1038   20.6578 C   0  0  0  0  0  0  0  0  0  0  0  0
  -25.8695  -15.0396   21.8575 C   0  0  0  0  0  0  0  0  0  0  0  0
  -24.3222  -13.5121   22.1856 C   0  0  0  0  0  0  0  0  0  0  0  0
  -26.1209  -12.8117   20.5972 C   0  0  0  0  0  0  0  0  0  0  0  0
  -27.0251  -28.7066   21.2304 C   0  0  0  0  0  0  0  0  0  0  0  0
  -26.3473  -31.5350   22.6668 C   0  0  0  0  0  0  0  0  0  0  0  0
  -23.9799  -33.6887   23.8518 C   0  0  0  0  0  0  0  0  0  0  0  0
  -20.1427  -17.0753   24.4253 C   0  0  0  0  0  0  0  0  0  0  0  0
  -31.8957  -26.4560   20.9502 C   0  0  0  0  0  0  0  0  0  0  0  0
  -25.3299  -29.6848   19.6411 C   0  0  0  0  0  0  0  0  0  0  0  0
  -24.4441  -29.8923   22.4548 C   0  0  0  0  0  0  0  0  0  0  0  0
  -30.9989  -26.5347   22.1814 C   0  0  0  0  0  0  0  0  0  0  0  0
  -22.0513  -14.7435   26.1983 C   0  0  0  0  0  0  0  0  0  0  0  0
  -29.9519  -27.6223   21.9931 C   0  0  0  0  0  0  0  0  0  0  0  0
  -23.2216  -14.4340   25.2670 C   0  0  0  0  0  0  0  0  0  0  0  0
  -21.7915  -16.3308   21.7588 C   0  0  0  0  0  0  0  0  0  0  0  0
  -20.8079  -16.8742   20.7659 C   0  0  0  0  0  0  0  0  0  0  0  0
  -21.6975  -16.2247   26.1516 C   0  0  0  0  0  0  0  0  0  0  0  0
  -22.5225  -16.4125   23.8241 C   0  0  0  0  0  0  0  0  0  0  0  0
  -29.0288  -27.2932   20.8130 C   0  0  1  0  0  0  0  0  0  0  0  0
  -26.3148  -29.9501   20.7756 C   0  0  1  0  0  0  0  0  0  0  0  0
  -22.9295  -14.9246   23.8391 C   0  0  1  0  0  0  0  0  0  0  0  0
  -20.9855  -17.5556   22.0951 C   0  0  0  0  0  0  0  0  0  0  0  0
  -23.7325  -35.9030   25.0063 C   0  0  0  0  0  0  0  0  0  0  0  0
  -27.1643  -30.2460   25.3089 C   0  0  0  0  0  0  0  0  0  0  0  0
  -26.0191  -32.1267   26.5005 C   0  0  0  0  0  0  0  0  0  0  0  0
  -27.9597  -32.5975   25.0055 C   0  0  0  0  0  0  0  0  0  0  0  0
  -18.8483  -24.4844   24.8686 C   0  0  0  0  0  0  0  0  0  0  0  0
  -22.4722  -34.8365   21.5784 C   0  0  0  0  0  0  0  0  0  0  0  0
  -18.7451  -18.2860   22.7912 C   0  0  0  0  0  0  0  0  0  0  0  0
  -19.3814  -25.0970   21.5911 C   0  0  0  0  0  0  0  0  0  0  0  0
  -20.2220  -24.6707   22.7886 C   0  0  0  0  0  0  0  0  0  0  0  0
  -20.1375  -26.0016   20.6251 C   0  0  0  0  0  0  0  0  0  1  0  0
  -25.7398  -31.9453   23.9865 C   0  0  1  0  0  0  0  0  0  0  0  0
  -23.7962  -35.1842   23.6676 C   0  0  2  0  0  0  0  0  0  0  0  0
  -26.7065  -31.7127   25.1818 C   0  0  0  0  0  0  0  0  0  0  0  0
  -25.0205  -15.6035   22.7208 N   0  0  0  0  0  0  0  0  0  0  0  0
  -24.0905  -14.6502   22.9006 N   0  0  0  0  0  0  0  0  0  0  0  0
  -25.6732  -30.5315   21.9566 N   0  0  0  0  0  0  0  0  0  0  0  0
  -21.4368  -16.6694   24.7819 N   0  0  0  0  0  0  0  0  0  0  0  0
  -23.4860  -12.4543   22.2499 N   0  0  0  0  0  0  0  0  0  0  0  0
  -27.3087  -13.2031   19.9647 N   0  0  0  0  0  0  0  0  0  0  0  0
  -28.1896  -28.4383   20.5366 N   0  0  0  0  0  0  0  0  0  0  0  0
  -25.3112  -33.3305   23.8254 N   0  0  0  0  0  0  0  0  0  0  0  0
  -19.4476  -23.8535   23.6911 N   0  0  3  0  0  0  0  0  0  0  0  0
  -19.9443  -17.5176   23.1060 N   0  0  0  0  0  0  0  0  0  0  0  0
  -22.5355  -35.4636   22.9237 N   0  3  0  0  0  0  0  0  0  0  0  0
  -25.6412  -11.6781   20.3554 O   0  0  0  0  0  0  0  0  0  0  0  0
  -26.5524  -28.0408   22.1441 O   0  0  0  0  0  0  0  0  0  0  0  0
  -27.3779  -32.0896   22.2771 O   0  0  0  0  0  0  0  0  0  0  0  0
  -23.0370  -32.9159   24.0074 O   0  0  0  0  0  0  0  0  0  0  0  0
  -19.2149  -17.0656   25.2448 O   0  0  0  0  0  0  0  0  0  0  0  0
  -30.3749  -17.8521   20.1086 O   0  0  0  0  0  0  0  0  0  0  0  0
  -20.5299  -27.1863   21.3171 O   0  0  0  0  0  0  0  0  0  1  0  0
  -29.6988  -23.1184   18.6210 F   0  0  0  0  0  0  0  0  0  0  0  0
  -29.4219  -19.7228   21.9071 F   0  0  0  0  0  0  0  0  0  0  0  0
  1  2  1  0  0  0  0
  1  5  2  0  0  0  0
  2  6  2  0  0  0  0
  3 12  2  0  0  0  0
  3 19  1  0  0  0  0
  4 13  1  0  0  0  0
  4 19  2  0  0  0  0
  5 21  1  0  0  0  0
  6 23  1  0  0  0  0
  7 14  2  0  0  0  0
  7 22  1  0  0  0  0
  8 10  2  0  0  0  0
  8 25  1  0  0  0  0
  9 11  1  0  0  0  0
  9 25  2  0  0  0  0
 10 26  1  0  0  0  0
 11 26  2  0  0  0  0
 12 27  1  0  0  0  0
 13 27  2  0  0  0  0
 14 28  1  0  0  0  0
 15 16  2  0  0  0  0
 15 29  1  0  0  0  0
 16 30  1  0  0  0  0
 17 24  1  0  0  0  0
 17 28  2  0  0  0  0
 18 30  2  0  0  0  0
 18 31  1  0  0  0  0
 19 32  1  0  0  0  0
 20 32  1  0  0  0  0
 20 33  2  0  0  0  0
 20 34  1  0  0  0  0
 21 23  2  0  0  0  0
 21 39  1  0  0  0  0
 22 24  2  0  0  0  0
 22 40  1  0  0  0  0
 23 50  1  0  0  0  0
 24 41  1  0  0  0  0
 25 60  1  0  0  0  0
 26 75  1  0  0  0  0
 27 83  1  0  0  0  0
 28 84  1  0  0  0  0
 29 31  2  0  0  0  0
 29 83  1  0  0  0  0
 30 85  1  0  0  0  0
 31 86  1  0  0  0  0
 32 67  2  0  0  0  0
 33 68  1  0  0  0  0
 33 71  1  0  0  0  0
 34 72  1  0  0  0  0
 34 78  2  0  0  0  0
 35 51  1  0  0  0  0
 35 73  1  0  0  0  0
 35 79  2  0  0  0  0
 36 64  1  0  0  0  0
 36 69  1  0  0  0  0
 36 80  2  0  0  0  0
 37 65  1  0  0  0  0
 37 74  1  0  0  0  0
 37 81  2  0  0  0  0
 38 70  1  0  0  0  0
 38 76  1  0  0  0  0
 38 82  2  0  0  0  0
 39 42  1  0  0  0  0
 40 51  1  0  0  0  0
 41 69  1  0  0  0  0
 42 44  1  0  0  0  0
 43 45  1  0  0  0  0
 43 48  1  0  0  0  0
 44 50  1  0  0  0  0
 45 52  1  0  0  0  0
 46 47  1  0  0  0  0
 46 53  1  0  0  0  0
 47 53  1  0  0  0  0
 48 70  1  0  0  0  0
 49 52  1  0  0  0  0
 49 70  1  0  0  0  0
 50 73  1  0  0  0  0
 51 69  1  0  0  0  0
 52 68  1  0  0  0  0
 53 76  1  0  0  0  0
 54 65  1  0  0  0  0
 55 66  1  0  0  0  0
 56 66  1  0  0  0  0
 57 66  1  0  0  0  0
 58 75  1  0  0  0  0
 59 77  1  0  0  0  0
 60 76  1  0  0  0  0
 61 62  1  0  0  0  0
 61 63  1  0  0  0  0
 62 75  1  0  0  0  0
 63 84  1  0  0  0  0
 64 66  1  0  0  0  0
 64 74  1  0  0  0  0
 65 77  1  0  0  0  0
 67 68  1  0  0  0  0
M  CHG  1  77   1
M  ISO  4  38 100  63 101  76 100  84 101
M  END
> <Batch ID>
0018

> <Smiles>
CNC(C)C(=O)NC(C(=O)N1Cc2cc([101O:1][101CH2:1]CCN(C)c3ccc(C[100N:0](C4CC4)[100C:0](=O)N4CCCC(n5nc(-c6ccc(Oc7ccc(F)cc7F)cc6)c(C(N)=O)c5N)C4)cc3)ccc2CC1C(=O)NC1CCCc2ccccc21)C(C)(C)C

> <Shape>
0.274

> <Color>
0.095

> <Negative vol penalty>
0.000

$$$$

  -OEChem-04042321033D

 86 95  0     1  0  0  0  0  0999 V2000
  -33.0241  -24.8758   19.0848 C   0  0  0  0  0  0  0  0  0  0  0  0
  -31.6849  -24.7503   19.4400 C   0  0  0  0  0  0  0  0  0  0  0  0
  -22.9893  -10.0278   20.0555 C   0  0  0  0  0  0  0  0  0  0  0  0
  -24.4418   -9.4019   21.8819 C   0  0  0  0  0  0  0  0  0  0  0  0
  -33.8059  -25.8768   19.6600 C   0  0  0  0  0  0  0  0  0  0  0  0
  -31.1269  -25.6251   20.3715 C   0  0  0  0  0  0  0  0  0  0  0  0
  -26.5864  -27.3507   18.9393 C   0  0  0  0  0  0  0  0  0  0  0  0
  -24.9938  -20.5516   21.7114 C   0  0  0  0  0  0  0  0  0  0  0  0
  -25.8049  -19.4197   21.6323 C   0  0  0  0  0  0  0  0  0  0  0  0
  -21.9566   -9.2794   20.6204 C   0  0  0  0  0  0  0  0  0  0  0  0
  -23.4091   -8.6536   22.4468 C   0  0  0  0  0  0  0  0  0  0  0  0
  -25.4989  -26.4938   19.1033 C   0  0  0  0  0  0  0  0  0  0  0  0
  -21.9696   -5.6325   21.9648 C   0  0  0  0  0  0  0  0  0  0  0  0
  -22.2771   -4.3565   22.4367 C   0  0  0  0  0  0  0  0  0  0  0  0
  -24.8930  -27.6598   21.1263 C   0  0  0  0  0  0  0  0  0  0  0  0
  -23.5068  -19.6016   20.0612 C   0  0  0  0  0  0  0  0  0  0  0  0
  -21.5739   -5.0072   24.6546 C   0  0  0  0  0  0  0  0  0  0  0  0
  -24.2320  -10.0890   20.6863 C   0  0  0  0  0  0  0  0  0  0  0  0
  -25.8840  -10.6817   18.8350 C   0  0  0  0  0  0  0  0  0  0  0  0
  -33.2547  -26.7704   20.5919 C   0  0  0  0  0  0  0  0  0  0  0  0
  -26.8421  -28.3634   19.8750 C   0  0  0  0  0  0  0  0  0  0  0  0
  -31.9023  -26.6382   20.9608 C   0  0  0  0  0  0  0  0  0  0  0  0
  -25.9829  -28.5298   20.9705 C   0  0  0  0  0  0  0  0  0  0  0  0
  -23.8447  -20.6426   20.9259 C   0  0  0  0  0  0  0  0  0  0  0  0
  -25.4671  -18.3787   20.7676 C   0  0  0  0  0  0  0  0  0  0  0  0
  -22.1664   -8.5923   21.8160 C   0  0  0  0  0  0  0  0  0  0  0  0
  -24.6536  -26.6465   20.1985 C   0  0  0  0  0  0  0  0  0  0  0  0
  -21.4644   -6.5960   22.8378 C   0  0  0  0  0  0  0  0  0  0  0  0
  -22.0792   -4.0438   23.7815 C   0  0  0  0  0  0  0  0  0  0  0  0
  -24.3180  -18.4696   19.9820 C   0  0  0  0  0  0  0  0  0  0  0  0
  -21.2665   -6.2834   24.1827 C   0  0  0  0  0  0  0  0  0  0  0  0
  -25.2993  -10.8614   20.1030 C   0  0  0  0  0  0  0  0  0  0  0  0
  -26.8440  -11.6609   18.7578 C   0  0  0  0  0  0  0  0  0  0  0  0
  -23.5552  -23.0748   21.3233 C   0  0  0  0  0  0  0  0  0  0  0  0
  -25.5859   -9.7161   17.8180 C   0  0  0  0  0  0  0  0  0  0  0  0
  -29.2375  -29.0373   21.8527 C   0  0  0  0  0  0  0  0  0  0  0  0
  -27.5140  -31.7306   22.3984 C   0  0  0  0  0  0  0  0  0  0  0  0
  -24.0394  -32.5849   22.8614 C   0  0  0  0  0  0  0  0  0  0  0  0
  -27.4674  -16.9840   21.3999 C   0  0  0  0  0  0  0  0  0  0  0  0
  -34.1512  -27.8065   21.2221 C   0  0  0  0  0  0  0  0  0  0  0  0
  -28.0038  -29.2963   19.6694 C   0  0  0  0  0  0  0  0  0  0  0  0
  -26.2020  -29.6142   21.9926 C   0  0  0  0  0  0  0  0  0  0  0  0
  -33.3878  -28.9286   21.9209 C   0  0  0  0  0  0  0  0  0  0  0  0
  -20.6558  -22.7335   21.0651 C   0  0  0  0  0  0  0  0  0  0  0  0
  -29.7655  -14.2669   21.5160 C   0  0  0  0  0  0  0  0  0  0  0  0
  -32.2758  -28.3550   22.7934 C   0  0  0  0  0  0  0  0  0  0  0  0
  -21.2678  -24.1127   20.9468 C   0  0  0  0  0  0  0  0  0  0  0  0
  -28.9358  -13.0701   21.0456 C   0  0  0  0  0  0  0  0  0  0  0  0
  -21.6188  -21.6925   20.5214 C   0  0  0  0  0  0  0  0  0  0  0  0
  -28.9395  -15.2306   22.3662 C   0  0  0  0  0  0  0  0  0  0  0  0
  -26.8571  -14.4883   21.2789 C   0  0  0  0  0  0  0  0  0  0  0  0
  -31.2544  -27.5835   21.9490 C   0  0  1  0  0  0  0  0  0  0  0  0
  -22.5533  -24.1491   21.7595 C   0  0  2  0  0  0  0  0  0  0  0  0
  -28.4668  -29.9672   20.9589 C   0  0  1  0  0  0  0  0  0  0  0  0
  -27.6292  -13.5227   20.3650 C   0  0  2  0  0  0  0  0  0  0  0  0
  -22.8118  -34.7268   22.4108 C   0  0  0  0  0  0  0  0  0  0  0  0
  -28.0813  -32.3353   25.3348 C   0  0  0  0  0  0  0  0  0  0  0  0
  -25.8017  -33.3585   25.4924 C   0  0  0  0  0  0  0  0  0  0  0  0
  -27.5018  -34.3361   23.9508 C   0  0  0  0  0  0  0  0  0  0  0  0
  -22.0633  -31.2234   21.1292 C   0  0  0  0  0  0  0  0  0  0  0  0
  -23.1738  -25.5452   21.6996 C   0  0  0  0  0  0  0  0  0  1  0  0
  -26.4244  -32.1249   23.3659 C   0  0  1  0  0  0  0  0  0  0  0  0
  -23.1516  -33.3396   21.8883 C   0  0  2  0  0  0  0  0  0  0  0  0
  -26.9555  -33.0118   24.5273 C   0  0  0  0  0  0  0  0  0  0  0  0
  -25.8426  -11.8749   20.7824 N   0  0  0  0  0  0  0  0  0  0  0  0
  -26.7788  -12.3409   19.9383 N   0  0  0  0  0  0  0  0  0  0  0  0
  -23.0033  -21.8172   21.0074 N   0  0  0  0  0  0  0  0  0  0  0  0
  -27.3551  -30.4972   21.7510 N   0  0  0  0  0  0  0  0  0  0  0  0
  -27.7193  -15.6195   21.6557 N   0  0  0  0  0  0  0  0  0  0  0  0
  -27.7292  -11.9980   17.7959 N   0  0  0  0  0  0  0  0  0  0  0  0
  -24.5696   -8.7820   18.0608 N   0  0  0  0  0  0  0  0  0  0  0  0
  -26.2934  -17.2303   20.6890 N   0  0  0  0  0  0  0  0  0  0  0  0
  -30.3676  -28.5008   21.2659 N   0  0  0  0  0  0  0  0  0  0  0  0
  -25.3762  -32.7510   22.5673 N   0  0  0  0  0  0  0  0  0  0  0  0
  -21.8791  -32.5967   21.6650 N   0  3  0  0  0  0  0  0  0  0  0  0
  -24.7628  -23.3276   21.3337 O   0  0  0  0  0  0  0  0  0  0  0  0
  -26.2136   -9.6722   16.7328 O   0  0  0  0  0  0  0  0  0  0  0  0
  -28.8372  -28.8235   22.9911 O   0  0  0  0  0  0  0  0  0  0  0  0
  -28.4674  -32.4924   22.2181 O   0  0  0  0  0  0  0  0  0  0  0  0
  -23.5918  -31.9181   23.7917 O   0  0  0  0  0  0  0  0  0  0  0  0
  -28.2504  -17.8670   21.7596 O   0  0  0  0  0  0  0  0  0  0  0  0
  -21.1588   -7.8622   22.3676 O   0  0  0  0  0  0  0  0  0  0  0  0
  -23.5918  -25.8111   20.3613 O   0  0  0  0  0  0  0  0  0  1  0  0
  -22.3731   -2.8179   24.2342 F   0  0  0  0  0  0  0  0  0  0  0  0
  -23.9843  -17.4757   19.1461 F   0  0  0  0  0  0  0  0  0  0  0  0
  -20.7802   -7.2044   25.0259 F   0  0  0  0  0  0  0  0  0  0  0  0
  1  2  1  0  0  0  0
  1  5  2  0  0  0  0
  2  6  2  0  0  0  0
  3 10  2  0  0  0  0
  3 18  1  0  0  0  0
  4 11  1  0  0  0  0
  4 18  2  0  0  0  0
  5 20  1  0  0  0  0
  6 22  1  0  0  0  0
  7 12  2  0  0  0  0
  7 21  1  0  0  0  0
  8  9  2  0  0  0  0
  8 24  1  0  0  0  0
  9 25  1  0  0  0  0
 10 26  1  0  0  0  0
 11 26  2  0  0  0  0
 12 27  1  0  0  0  0
 13 14  2  0  0  0  0
 13 28  1  0  0  0  0
 14 29  1  0  0  0  0
 15 23  1  0  0  0  0
 15 27  2  0  0  0  0
 16 24  2  0  0  0  0
 16 30  1  0  0  0  0
 17 29  2  0  0  0  0
 17 31  1  0  0  0  0
 18 32  1  0  0  0  0
 19 32  1  0  0  0  0
 19 33  2  0  0  0  0
 19 35  1  0  0  0  0
 20 22  2  0  0  0  0
 20 40  1  0  0  0  0
 21 23  2  0  0  0  0
 21 41  1  0  0  0  0
 22 52  1  0  0  0  0
 23 42  1  0  0  0  0
 24 67  1  0  0  0  0
 25 30  2  0  0  0  0
 25 72  1  0  0  0  0
 26 82  1  0  0  0  0
 27 83  1  0  0  0  0
 28 31  2  0  0  0  0
 28 82  1  0  0  0  0
 29 84  1  0  0  0  0
 30 85  1  0  0  0  0
 31 86  1  0  0  0  0
 32 65  2  0  0  0  0
 33 66  1  0  0  0  0
 33 70  1  0  0  0  0
 34 53  1  0  0  0  0
 34 67  1  0  0  0  0
 34 76  2  0  0  0  0
 35 71  1  0  0  0  0
 35 77  2  0  0  0  0
 36 54  1  0  0  0  0
 36 73  1  0  0  0  0
 36 78  2  0  0  0  0
 37 62  1  0  0  0  0
 37 68  1  0  0  0  0
 37 79  2  0  0  0  0
 38 63  1  0  0  0  0
 38 74  1  0  0  0  0
 38 80  2  0  0  0  0
 39 69  1  0  0  0  0
 39 72  1  0  0  0  0
 39 81  2  0  0  0  0
 40 43  1  0  0  0  0
 41 54  1  0  0  0  0
 42 68  1  0  0  0  0
 43 46  1  0  0  0  0
 44 47  1  0  0  0  0
 44 49  1  0  0  0  0
 45 48  1  0  0  0  0
 45 50  1  0  0  0  0
 46 52  1  0  0  0  0
 47 53  1  0  0  0  0
 48 55  1  0  0  0  0
 49 67  1  0  0  0  0
 50 69  1  0  0  0  0
 51 55  1  0  0  0  0
 51 69  1  0  0  0  0
 52 73  1  0  0  0  0
 53 61  1  0  0  0  0
 54 68  1  0  0  0  0
 55 66  1  0  0  0  0
 56 63  1  0  0  0  0
 57 64  1  0  0  0  0
 58 64  1  0  0  0  0
 59 64  1  0  0  0  0
 60 75  1  0  0  0  0
 61 83  1  0  0  0  0
 62 64  1  0  0  0  0
 62 74  1  0  0  0  0
 63 75  1  0  0  0  0
 65 66  1  0  0  0  0
M  CHG  1  75   1
M  ISO  4  39 100  61 101  72 100  83 101
M  END
> <Batch ID>
0018

> <Smiles>
CNC(C)C(=O)NC(C(=O)N1Cc2cc([101O:1][101CH2:1]C3CCCN(c4ccc([100NH:0][100C:0](=O)N5CCCC(n6nc(-c7ccc(Oc8ccc(F)cc8F)cc7)c(C(N)=O)c6N)C5)c(F)c4)C3=O)ccc2CC1C(=O)NC1CCCc2ccccc21)C(C)(C)C

> <Shape>
0.247

> <Color>
0.088

> <Negative vol penalty>
0.000

$$$$

  -OEChem-04042321033D

 87 96  0     1  0  0  0  0  0999 V2000
  -20.2350  -36.7408   18.3555 C   0  0  0  0  0  0  0  0  0  0  0  0
  -21.5580  -36.4284   18.0601 C   0  0  0  0  0  0  0  0  0  0  0  0
  -23.3876   -9.7488   22.2487 C   0  0  0  0  0  0  0  0  0  0  0  0
  -23.5357   -9.5494   19.8455 C   0  0  0  0  0  0  0  0  0  0  0  0
  -19.7655  -36.6161   19.6624 C   0  0  0  0  0  0  0  0  0  0  0  0
  -22.4128  -35.9921   19.0718 C   0  0  0  0  0  0  0  0  0  0  0  0
  -30.2167  -18.4562   21.6623 C   0  0  0  0  0  0  0  0  0  0  0  0
  -25.6835  -29.5873   18.6576 C   0  0  0  0  0  0  0  0  0  0  0  0
  -29.9267  -19.8191   21.5898 C   0  0  0  0  0  0  0  0  0  0  0  0
  -22.6886   -8.5432   22.3057 C   0  0  0  0  0  0  0  0  0  0  0  0
  -22.8367   -8.3436   19.9025 C   0  0  0  0  0  0  0  0  0  0  0  0
  -26.5100  -28.4683   18.5522 C   0  0  0  0  0  0  0  0  0  0  0  0
  -23.4032   -5.2409   22.1734 C   0  0  0  0  0  0  0  0  0  0  0  0
  -23.7801   -4.3187   23.1496 C   0  0  0  0  0  0  0  0  0  0  0  0
  -30.3420  -20.0281   23.9531 C   0  0  0  0  0  0  0  0  0  0  0  0
  -27.4246  -28.9240   20.7439 C   0  0  0  0  0  0  0  0  0  0  0  0
  -21.5589   -4.4122   24.0955 C   0  0  0  0  0  0  0  0  0  0  0  0
  -23.8111  -10.2520   21.0185 C   0  0  0  0  0  0  0  0  0  0  0  0
  -24.0851  -12.7609   21.3899 C   0  0  0  0  0  0  0  0  0  0  0  0
  -20.6124  -36.1689   20.6888 C   0  0  0  0  0  0  0  0  0  0  0  0
  -25.7135  -30.3710   19.8145 C   0  0  0  0  0  0  0  0  0  0  0  0
  -21.9546  -35.8626   20.3939 C   0  0  0  0  0  0  0  0  0  0  0  0
  -30.5572  -17.8518   22.8859 C   0  0  0  0  0  0  0  0  0  0  0  0
  -30.6486  -18.6600   24.0373 C   0  0  0  0  0  0  0  0  0  0  0  0
  -26.5901  -30.0388   20.8604 C   0  0  0  0  0  0  0  0  0  0  0  0
  -29.9833  -20.6037   22.7361 C   0  0  0  0  0  0  0  0  0  0  0  0
  -22.4132   -7.8405   21.1326 C   0  0  0  0  0  0  0  0  0  0  0  0
  -27.3785  -28.1377   19.5927 C   0  0  0  0  0  0  0  0  0  0  0  0
  -22.1042   -5.7489   22.1583 C   0  0  0  0  0  0  0  0  0  0  0  0
  -22.8579   -3.9043   24.1107 C   0  0  0  0  0  0  0  0  0  0  0  0
  -21.1820   -5.3345   23.1193 C   0  0  0  0  0  0  0  0  0  0  0  0
  -24.5327  -11.4977   20.9589 C   0  0  0  0  0  0  0  0  0  0  0  0
  -25.1319  -13.6074   21.1177 C   0  0  0  0  0  0  0  0  0  0  0  0
  -22.8349  -13.1356   21.9834 C   0  0  0  0  0  0  0  0  0  0  0  0
  -24.3501  -33.3454   21.6502 C   0  0  0  0  0  0  0  0  0  0  0  0
  -24.6803  -31.0994   23.7135 C   0  0  0  0  0  0  0  0  0  0  0  0
  -24.3979  -28.9891   26.3788 C   0  0  0  0  0  0  0  0  0  0  0  0
  -30.4849  -14.8517   21.0411 C   0  0  0  0  0  0  0  0  0  0  0  0
  -20.0724  -36.0951   22.0951 C   0  0  0  0  0  0  0  0  0  0  0  0
  -24.8854  -31.6203   19.9460 C   0  0  0  0  0  0  0  0  0  0  0  0
  -31.0239  -18.0873   25.3814 C   0  0  0  0  0  0  0  0  0  0  0  0
  -26.6133  -30.9306   22.0717 C   0  0  0  0  0  0  0  0  0  0  0  0
  -20.9418  -35.2681   23.0388 C   0  0  0  0  0  0  0  0  0  0  0  0
  -31.7342  -16.7415   25.2774 C   0  0  0  0  0  0  0  0  0  0  0  0
  -29.3384  -12.8965   18.4164 C   0  0  0  0  0  0  0  0  0  0  0  0
  -22.4107  -35.6482   22.8822 C   0  0  0  0  0  0  0  0  0  0  0  0
  -30.9530  -15.8096   24.3612 C   0  0  0  0  0  0  0  0  0  0  0  0
  -27.9482  -12.4521   18.8692 C   0  0  0  0  0  0  0  0  0  0  0  0
  -30.3256  -12.8624   19.5770 C   0  0  0  0  0  0  0  0  0  0  0  0
  -28.5146  -13.2601   21.2151 C   0  0  0  0  0  0  0  0  0  0  0  0
  -22.9059  -35.3625   21.4593 C   0  0  1  0  0  0  0  0  0  0  0  0
  -30.8992  -16.3737   22.9357 C   0  0  1  0  0  0  0  0  0  0  0  0
  -24.3932  -31.8695   21.3830 C   0  0  1  0  0  0  0  0  0  0  0  0
  -27.4725  -13.2768   20.0780 C   0  0  2  0  0  0  0  0  0  0  0  0
  -24.3583  -28.9794   28.8880 C   0  0  0  0  0  0  0  0  0  0  0  0
  -27.7031  -31.5046   23.7590 C   0  0  0  0  0  0  0  0  0  0  0  0
  -27.7239  -30.5577   26.0766 C   0  0  0  0  0  0  0  0  0  0  0  0
  -26.4675  -32.6596   25.6012 C   0  0  0  0  0  0  0  0  0  0  0  0
  -28.6653  -15.3471   22.7289 C   0  0  0  0  0  0  0  0  0  0  0  0
  -21.6658  -27.8535   26.4470 C   0  0  0  0  0  0  0  0  0  0  0  0
  -29.1142  -24.1275   21.6943 C   0  0  0  0  0  0  0  0  0  0  0  0
  -28.7600  -24.8904   20.4170 C   0  0  0  0  0  0  0  0  0  0  0  0
  -29.3155  -22.6343   21.4492 C   0  0  0  0  0  0  0  0  0  0  0  0
  -28.5255  -26.3698   20.6956 C   0  0  0  0  0  0  0  0  0  1  0  0
  -25.5632  -30.4563   24.7528 C   0  0  1  0  0  0  0  0  0  0  0  0
  -23.5234  -29.0432   27.6185 C   0  0  2  0  0  0  0  0  0  0  0  0
  -26.8536  -31.2796   25.0257 C   0  0  0  0  0  0  0  0  0  0  0  0
  -25.7676  -11.5339   20.4512 N   0  0  0  0  0  0  0  0  0  0  0  0
  -26.1049  -12.8301   20.5614 N   0  0  0  0  0  0  0  0  0  0  0  0
  -25.2405  -31.3043   22.4467 N   0  0  0  0  0  0  0  0  0  0  0  0
  -29.8394  -13.6513   20.7092 N   0  0  0  0  0  0  0  0  0  0  0  0
  -25.3058  -14.9334   21.3021 N   0  0  0  0  0  0  0  0  0  0  0  0
  -21.7858  -13.5269   21.1405 N   0  0  0  0  0  0  0  0  0  0  0  0
  -29.6895  -21.9563   22.6675 N   0  0  0  0  0  0  0  0  0  0  0  0
  -23.1609  -33.9483   21.2874 N   0  0  0  0  0  0  0  0  0  0  0  0
  -24.7255  -30.2509   25.9295 N   0  0  0  0  0  0  0  0  0  0  0  0
  -29.9853  -15.5663   22.1403 N   0  0  0  0  0  0  0  0  0  0  0  0
  -22.5664  -27.9009   27.6275 N   0  3  0  0  0  0  0  0  0  0  0  0
  -22.6586  -13.1395   23.2254 O   0  0  0  0  0  0  0  0  0  0  0  0
  -25.3231  -33.8975   22.1503 O   0  0  0  0  0  0  0  0  0  0  0  0
  -23.5267  -31.4177   24.0154 O   0  0  0  0  0  0  0  0  0  0  0  0
  -24.7577  -27.9332   25.8631 O   0  0  0  0  0  0  0  0  0  0  0  0
  -31.4593  -15.2601   20.3961 O   0  0  0  0  0  0  0  0  0  0  0  0
  -21.7313   -6.6638   21.1879 O   0  0  0  0  0  0  0  0  0  0  0  0
  -28.1793  -27.0413   19.4850 O   0  0  0  0  0  0  0  0  0  1  0  0
  -23.2195   -3.0175   25.0471 F   0  0  0  0  0  0  0  0  0  0  0  0
  -19.9323   -5.8181   23.1091 F   0  0  0  0  0  0  0  0  0  0  0  0
  1  2  1  0  0  0  0
  1  5  2  0  0  0  0
  2  6  2  0  0  0  0
  3 10  2  0  0  0  0
  3 18  1  0  0  0  0
  4 11  1  0  0  0  0
  4 18  2  0  0  0  0
  5 20  1  0  0  0  0
  6 22  1  0  0  0  0
  7  9  2  0  0  0  0
  7 23  1  0  0  0  0
  8 12  2  0  0  0  0
  8 21  1  0  0  0  0
  9 26  1  0  0  0  0
 10 27  1  0  0  0  0
 11 27  2  0  0  0  0
 12 28  1  0  0  0  0
 13 14  2  0  0  0  0
 13 29  1  0  0  0  0
 14 30  1  0  0  0  0
 15 24  1  0  0  0  0
 15 26  2  0  0  0  0
 16 25  1  0  0  0  0
 16 28  2  0  0  0  0
 17 30  2  0  0  0  0
 17 31  1  0  0  0  0
 18 32  1  0  0  0  0
 19 32  1  0  0  0  0
 19 33  2  0  0  0  0
 19 34  1  0  0  0  0
 20 22  2  0  0  0  0
 20 39  1  0  0  0  0
 21 25  2  0  0  0  0
 21 40  1  0  0  0  0
 22 51  1  0  0  0  0
 23 24  2  0  0  0  0
 23 52  1  0  0  0  0
 24 41  1  0  0  0  0
 25 42  1  0  0  0  0
 26 74  1  0  0  0  0
 27 84  1  0  0  0  0
 28 85  1  0  0  0  0
 29 31  2  0  0  0  0
 29 84  1  0  0  0  0
 30 86  1  0  0  0  0
 31 87  1  0  0  0  0
 32 68  2  0  0  0  0
 33 69  1  0  0  0  0
 33 72  1  0  0  0  0
 34 73  1  0  0  0  0
 34 79  2  0  0  0  0
 35 53  1  0  0  0  0
 35 75  1  0  0  0  0
 35 80  2  0  0  0  0
 36 65  1  0  0  0  0
 36 70  1  0  0  0  0
 36 81  2  0  0  0  0
 37 66  1  0  0  0  0
 37 76  1  0  0  0  0
 37 82  2  0  0  0  0
 38 71  1  0  0  0  0
 38 77  1  0  0  0  0
 38 83  2  0  0  0  0
 39 43  1  0  0  0  0
 40 53  1  0  0  0  0
 41 44  1  0  0  0  0
 42 70  1  0  0  0  0
 43 46  1  0  0  0  0
 44 47  1  0  0  0  0
 45 48  1  0  0  0  0
 45 49  1  0  0  0  0
 46 51  1  0  0  0  0
 47 52  1  0  0  0  0
 48 54  1  0  0  0  0
 49 71  1  0  0  0  0
 50 54  1  0  0  0  0
 50 71  1  0  0  0  0
 51 75  1  0  0  0  0
 52 77  1  0  0  0  0
 53 70  1  0  0  0  0
 54 69  1  0  0  0  0
 55 66  1  0  0  0  0
 56 67  1  0  0  0  0
 57 67  1  0  0  0  0
 58 67  1  0  0  0  0
 59 77  1  0  0  0  0
 60 78  1  0  0  0  0
 61 62  1  0  0  0  0
 61 63  1  0  0  0  0
 62 64  1  0  0  0  0
 63 74  1  0  0  0  0
 64 85  1  0  0  0  0
 65 67  1  0  0  0  0
 65 76  1  0  0  0  0
 66 78  1  0  0  0  0
 68 69  1  0  0  0  0
M  CHG  1  78   1
M  ISO  4  38 100  64 101  77 100  85 101
M  END
> <Batch ID>
0018

> <Smiles>
CNC(C)C(=O)NC(C(=O)N1Cc2cc([101O:1][101CH2:1]CCCNc3ccc4c(c3)CCCC4[100N:0](C)[100C:0](=O)N3CCCC(n4nc(-c5ccc(Oc6ccc(F)cc6F)cc5)c(C(N)=O)c4N)C3)ccc2CC1C(=O)NC1CCCc2ccccc21)C(C)(C)C

> <Shape>
0.308

> <Color>
0.194

> <Negative vol penalty>
0.000

$$$$

  -OEChem-04042321033D

 96107  0     1  0  0  0  0  0999 V2000
  -25.9338  -38.5949   23.8278 C   0  0  0  0  0  0  0  0  0  0  0  0
  -26.9272  -37.7771   23.2987 C   0  0  0  0  0  0  0  0  0  0  0  0
  -24.1711  -16.3264   25.1103 C   0  0  0  0  0  0  0  0  0  0  0  0
  -25.3532  -15.9679   25.7463 C   0  0  0  0  0  0  0  0  0  0  0  0
  -28.3965  -10.6511   19.9845 C   0  0  0  0  0  0  0  0  0  0  0  0
  -26.6217  -12.2617   20.2899 C   0  0  0  0  0  0  0  0  0  0  0  0
  -25.0227  -38.0772   24.7474 C   0  0  0  0  0  0  0  0  0  0  0  0
  -27.0106  -36.4413   23.6898 C   0  0  0  0  0  0  0  0  0  0  0  0
  -24.1689  -17.3806   24.2012 C   0  0  0  0  0  0  0  0  0  0  0  0
  -26.9189  -29.9447   19.3524 C   0  0  0  0  0  0  0  0  0  0  0  0
  -26.5365  -16.6553   25.4672 C   0  0  0  0  0  0  0  0  0  0  0  0
  -27.4510   -9.6564   19.7353 C   0  0  0  0  0  0  0  0  0  0  0  0
  -25.6761  -11.2670   20.0407 C   0  0  0  0  0  0  0  0  0  0  0  0
  -26.7552  -28.7198   18.7051 C   0  0  0  0  0  0  0  0  0  0  0  0
  -24.2508   -8.7060   21.7261 C   0  0  0  0  0  0  0  0  0  0  0  0
  -23.1455   -8.6355   22.5740 C   0  0  0  0  0  0  0  0  0  0  0  0
  -25.8810  -27.7492   20.7402 C   0  0  0  0  0  0  0  0  0  0  0  0
  -21.6775   -9.0029   20.6906 C   0  0  0  0  0  0  0  0  0  0  0  0
  -27.9819  -11.9537   20.2619 C   0  0  0  0  0  0  0  0  0  0  0  0
  -29.9749  -13.4251   19.6533 C   0  0  0  0  0  0  0  0  0  0  0  0
  -25.0891  -36.7318   25.1427 C   0  0  0  0  0  0  0  0  0  0  0  0
  -26.5494  -30.0808   20.6934 C   0  0  0  0  0  0  0  0  0  0  0  0
  -26.1003  -35.9054   24.6166 C   0  0  0  0  0  0  0  0  0  0  0  0
  -25.3533  -18.0761   23.9040 C   0  0  0  0  0  0  0  0  0  0  0  0
  -26.0310  -28.9770   21.3904 C   0  0  0  0  0  0  0  0  0  0  0  0
  -26.5612  -17.7040   24.5318 C   0  0  0  0  0  0  0  0  0  0  0  0
  -26.0908   -9.9643   19.7634 C   0  0  0  0  0  0  0  0  0  0  0  0
  -26.2378  -27.6247   19.3975 C   0  0  0  0  0  0  0  0  0  0  0  0
  -24.0695   -8.9250   20.3605 C   0  0  0  0  0  0  0  0  0  0  0  0
  -21.8588   -8.7839   22.0562 C   0  0  0  0  0  0  0  0  0  0  0  0
  -22.7828   -9.0734   19.8428 C   0  0  0  0  0  0  0  0  0  0  0  0
  -28.9581  -12.9816   20.5200 C   0  0  0  0  0  0  0  0  0  0  0  0
  -30.6255  -14.4061   20.3610 C   0  0  0  0  0  0  0  0  0  0  0  0
  -30.3021  -12.9894   18.3271 C   0  0  0  0  0  0  0  0  0  0  0  0
  -26.5461  -21.0402   21.8185 C   0  0  0  0  0  0  0  0  0  0  0  0
  -26.2707  -32.3353   23.6793 C   0  0  0  0  0  0  0  0  0  0  0  0
  -23.7408  -30.6010   23.6330 C   0  0  0  0  0  0  0  0  0  0  0  0
  -20.9187  -28.7971   22.9856 C   0  0  0  0  0  0  0  0  0  0  0  0
  -29.0430  -18.0647   24.7110 C   0  0  0  0  0  0  0  0  0  0  0  0
  -24.1113  -36.2295   26.1753 C   0  0  0  0  0  0  0  0  0  0  0  0
  -26.7655  -31.3646   21.4478 C   0  0  0  0  0  0  0  0  0  0  0  0
  -25.2698  -19.2442   22.9525 C   0  0  0  0  0  0  0  0  0  0  0  0
  -25.6796  -29.1605   22.8415 C   0  0  0  0  0  0  0  0  0  0  0  0
  -24.0369  -34.7068   26.2538 C   0  0  0  0  0  0  0  0  0  0  0  0
  -31.6541  -15.7571   24.8307 C   0  0  0  0  0  0  0  0  0  0  0  0
  -28.2988  -16.5811   16.8625 C   0  0  0  0  0  0  0  0  0  0  0  0
  -27.5818  -17.6164   16.0195 C   0  0  0  0  0  0  0  0  0  0  0  0
  -25.4381  -34.1045   26.2791 C   0  0  0  0  0  0  0  0  0  0  0  0
  -31.3658  -14.8179   23.6592 C   0  0  0  0  0  0  0  0  0  0  0  0
  -27.4810  -23.0879   19.7597 C   0  0  0  0  0  0  0  0  0  0  0  0
  -24.9955  -23.1330   20.2364 C   0  0  0  0  0  0  0  0  0  0  0  0
  -27.3599  -24.4196   19.0237 C   0  0  0  0  0  0  0  0  0  0  0  0
  -24.8823  -24.4651   19.4999 C   0  0  0  0  0  0  0  0  0  0  0  0
  -30.3681  -16.1451   25.5523 C   0  0  0  0  0  0  0  0  0  0  0  0
  -27.6210  -19.7421   23.6195 C   0  0  0  0  0  0  0  0  0  0  0  0
  -29.0409  -15.8286   23.4894 C   0  0  0  0  0  0  0  0  0  0  0  0
  -28.5349  -17.3201   18.1621 C   0  0  0  0  0  0  0  0  0  0  0  0
  -26.6166  -18.2767   16.9883 C   0  0  0  0  0  0  0  0  0  0  0  0
  -26.2081  -34.4447   24.9974 C   0  0  1  0  0  0  0  0  0  0  0  0
  -26.6406  -19.6891   22.4573 C   0  0  2  0  0  0  0  0  0  0  0  0
  -25.6692  -31.6429   22.4918 C   0  0  1  0  0  0  0  0  0  0  0  0
  -30.3087  -15.4185   22.7151 C   0  0  2  0  0  0  0  0  0  0  0  0
  -26.1679  -22.3015   19.7093 C   0  0  0  0  0  0  0  0  0  0  0  0
  -26.1917  -25.2505   19.5494 C   0  0  0  0  0  0  0  0  0  1  0  0
  -18.6251  -28.3348   23.8928 C   0  0  0  0  0  0  0  0  0  0  0  0
  -24.9559  -28.8090   25.7815 C   0  0  0  0  0  0  0  0  0  0  0  0
  -22.7305  -27.6829   26.0005 C   0  0  0  0  0  0  0  0  0  0  0  0
  -22.9534  -30.1126   26.5198 C   0  0  0  0  0  0  0  0  0  0  0  0
  -19.6150  -29.8546   20.5482 C   0  0  0  0  0  0  0  0  0  0  0  0
  -26.1079  -19.8492   19.6620 C   0  0  0  0  0  0  0  0  0  0  0  0
  -27.4420  -19.3820   19.1112 C   0  0  0  0  0  0  0  0  0  0  0  0
  -23.0595  -29.3446   24.1133 C   0  0  1  0  0  0  0  0  0  0  0  0
  -19.4542  -29.1951   22.9519 C   0  0  2  0  0  0  0  0  0  0  0  0
  -23.4381  -28.9883   25.5786 C   0  0  0  0  0  0  0  0  0  0  0  0
  -28.9588  -13.6277   21.6890 N   0  0  0  0  0  0  0  0  0  0  0  0
  -29.9841  -14.4871   21.5619 N   0  0  0  0  0  0  0  0  0  0  0  0
  -27.7714  -18.4242   24.2371 N   0  0  0  0  0  0  0  0  0  0  0  0
  -24.9973  -30.4497   23.0340 N   0  0  0  0  0  0  0  0  0  0  0  0
  -29.3924  -16.7061   24.6177 N   0  0  0  0  0  0  0  0  0  0  0  0
  -31.6781  -15.1986   20.0670 N   0  0  0  0  0  0  0  0  0  0  0  0
  -31.2206  -11.9416   18.1756 N   0  0  0  0  0  0  0  0  0  0  0  0
  -25.7688  -33.6028   23.9053 N   0  0  0  0  0  0  0  0  0  0  0  0
  -21.6309  -29.5470   23.8976 N   0  0  0  0  0  0  0  0  0  0  0  0
  -26.2840  -21.0676   20.4483 N   0  0  0  0  0  0  0  0  0  0  0  0
  -27.2567  -18.1064   18.3540 N   0  3  0  0  0  0  0  0  0  0  0  0
  -18.9081  -29.0446   21.5735 N   0  3  0  0  0  0  0  0  0  0  0  0
  -29.8073  -13.5245   17.3062 O   0  0  0  0  0  0  0  0  0  0  0  0
  -26.7005  -22.0472   22.5146 O   0  0  0  0  0  0  0  0  0  0  0  0
  -27.1263  -31.7622   24.3435 O   0  0  0  0  0  0  0  0  0  0  0  0
  -23.1791  -31.6889   23.7886 O   0  0  0  0  0  0  0  0  0  0  0  0
  -21.3837  -27.9073   22.2767 O   0  0  0  0  0  0  0  0  0  0  0  0
  -29.8355  -18.9200   25.1249 O   0  0  0  0  0  0  0  0  0  0  0  0
  -25.1679   -8.9940   19.5200 O   0  0  0  0  0  0  0  0  0  0  0  0
  -26.0753  -26.4252   18.7541 O   0  0  0  0  0  0  0  0  0  1  0  0
  -20.7974   -8.7146   22.8703 F   0  0  0  0  0  0  0  0  0  0  0  0
  -22.6023   -9.2829   18.5315 F   0  0  0  0  0  0  0  0  0  0  0  0
  1  2  1  0  0  0  0
  1  7  2  0  0  0  0
  2  8  2  0  0  0  0
  3  4  1  0  0  0  0
  3  9  2  0  0  0  0
  4 11  2  0  0  0  0
  5 12  2  0  0  0  0
  5 19  1  0  0  0  0
  6 13  1  0  0  0  0
  6 19  2  0  0  0  0
  7 21  1  0  0  0  0
  8 23  1  0  0  0  0
  9 24  1  0  0  0  0
 10 14  2  0  0  0  0
 10 22  1  0  0  0  0
 11 26  1  0  0  0  0
 12 27  1  0  0  0  0
 13 27  2  0  0  0  0
 14 28  1  0  0  0  0
 15 16  2  0  0  0  0
 15 29  1  0  0  0  0
 16 30  1  0  0  0  0
 17 25  1  0  0  0  0
 17 28  2  0  0  0  0
 18 30  2  0  0  0  0
 18 31  1  0  0  0  0
 19 32  1  0  0  0  0
 20 32  1  0  0  0  0
 20 33  2  0  0  0  0
 20 34  1  0  0  0  0
 21 23  2  0  0  0  0
 21 40  1  0  0  0  0
 22 25  2  0  0  0  0
 22 41  1  0  0  0  0
 23 59  1  0  0  0  0
 24 26  2  0  0  0  0
 24 42  1  0  0  0  0
 25 43  1  0  0  0  0
 26 77  1  0  0  0  0
 27 93  1  0  0  0  0
 28 94  1  0  0  0  0
 29 31  2  0  0  0  0
 29 93  1  0  0  0  0
 30 95  1  0  0  0  0
 31 96  1  0  0  0  0
 32 75  2  0  0  0  0
 33 76  1  0  0  0  0
 33 80  1  0  0  0  0
 34 81  1  0  0  0  0
 34 87  2  0  0  0  0
 35 60  1  0  0  0  0
 35 84  1  0  0  0  0
 35 88  2  0  0  0  0
 36 61  1  0  0  0  0
 36 82  1  0  0  0  0
 36 89  2  0  0  0  0
 37 72  1  0  0  0  0
 37 78  1  0  0  0  0
 37 90  2  0  0  0  0
 38 73  1  0  0  0  0
 38 83  1  0  0  0  0
 38 91  2  0  0  0  0
 39 77  1  0  0  0  0
 39 79  1  0  0  0  0
 39 92  2  0  0  0  0
 40 44  1  0  0  0  0
 41 61  1  0  0  0  0
 42 60  1  0  0  0  0
 43 78  1  0  0  0  0
 44 48  1  0  0  0  0
 45 49  1  0  0  0  0
 45 54  1  0  0  0  0
 46 47  1  0  0  0  0
 46 57  1  0  0  0  0
 47 58  1  0  0  0  0
 48 59  1  0  0  0  0
 49 62  1  0  0  0  0
 50 52  1  0  0  0  0
 50 63  1  0  0  0  0
 51 53  1  0  0  0  0
 51 63  1  0  0  0  0
 52 64  1  0  0  0  0
 53 64  1  0  0  0  0
 54 79  1  0  0  0  0
 55 60  1  0  0  0  0
 55 77  1  0  0  0  0
 56 62  1  0  0  0  0
 56 79  1  0  0  0  0
 57 85  1  0  0  0  0
 58 85  1  0  0  0  0
 59 82  1  0  0  0  0
 61 78  1  0  0  0  0
 62 76  1  0  0  0  0
 63 84  1  0  0  0  0
 64 94  1  0  0  0  0
 65 73  1  0  0  0  0
 66 74  1  0  0  0  0
 67 74  1  0  0  0  0
 68 74  1  0  0  0  0
 69 86  1  0  0  0  0
 70 71  1  0  0  0  0
 70 84  1  0  0  0  0
 71 85  1  0  0  0  0
 72 74  1  0  0  0  0
 72 83  1  0  0  0  0
 73 86  1  0  0  0  0
 75 76  1  0  0  0  0
M  CHG  2  85   1  86   1
M  ISO  4  39 100  64 101  77 100  94 101
M  END
> <Batch ID>
0018

> <Smiles>
CNC(C)C(=O)NC(C(=O)N1Cc2cc([101O:1][101CH:1]3CCC(N(CCN4CCCC4)C(=O)C4Cc5ccccc5[100N:0]([100C:0](=O)N5CCCC(n6nc(-c7ccc(Oc8ccc(F)cc8F)cc7)c(C(N)=O)c6N)C5)C4)CC3)ccc2CC1C(=O)NC1CCCc2ccccc21)C(C)(C)C

> <Shape>
0.268

> <Color>
0.072

> <Negative vol penalty>
0.000

$$$$

  -OEChem-04042321033D

 86 94  0     1  0  0  0  0  0999 V2000
  -26.9123  -23.5708   12.4953 C   0  0  0  0  0  0  0  0  0  0  0  0
  -26.4324  -22.5843   13.3508 C   0  0  0  0  0  0  0  0  0  0  0  0
  -23.1726   -9.8403   19.9416 C   0  0  0  0  0  0  0  0  0  0  0  0
  -23.5651  -10.0251   22.3183 C   0  0  0  0  0  0  0  0  0  0  0  0
  -27.7844  -24.5460   12.9773 C   0  0  0  0  0  0  0  0  0  0  0  0
  -26.8253  -22.5717   14.6887 C   0  0  0  0  0  0  0  0  0  0  0  0
  -24.3852  -20.8807   21.2081 C   0  0  0  0  0  0  0  0  0  0  0  0
  -30.9023  -14.3486   26.0140 C   0  0  0  0  0  0  0  0  0  0  0  0
  -30.6809  -15.6079   23.9640 C   0  0  0  0  0  0  0  0  0  0  0  0
  -30.3980  -15.4317   26.7338 C   0  0  0  0  0  0  0  0  0  0  0  0
  -30.1766  -16.6910   24.6839 C   0  0  0  0  0  0  0  0  0  0  0  0
  -22.3957   -8.7023   20.1583 C   0  0  0  0  0  0  0  0  0  0  0  0
  -22.7882   -8.8871   22.5351 C   0  0  0  0  0  0  0  0  0  0  0  0
  -24.7355  -20.1263   22.3270 C   0  0  0  0  0  0  0  0  0  0  0  0
  -23.1537   -5.5356   22.2808 C   0  0  0  0  0  0  0  0  0  0  0  0
  -23.6469   -4.5723   23.1608 C   0  0  0  0  0  0  0  0  0  0  0  0
  -26.1838  -21.9078   23.0672 C   0  0  0  0  0  0  0  0  0  0  0  0
  -21.7003   -4.8571   24.5633 C   0  0  0  0  0  0  0  0  0  0  0  0
  -23.7573  -10.5017   21.0216 C   0  0  0  0  0  0  0  0  0  0  0  0
  -24.1204  -13.0139   20.7671 C   0  0  0  0  0  0  0  0  0  0  0  0
  -28.1805  -24.5511   14.3241 C   0  0  0  0  0  0  0  0  0  0  0  0
  -24.9409  -22.1519   21.0043 C   0  0  0  0  0  0  0  0  0  0  0  0
  -27.7046  -23.5471   15.1889 C   0  0  0  0  0  0  0  0  0  0  0  0
  -25.8369  -22.6774   21.9462 C   0  0  0  0  0  0  0  0  0  0  0  0
  -31.0438  -14.4367   24.6291 C   0  0  0  0  0  0  0  0  0  0  0  0
  -30.0351  -16.6029   26.0688 C   0  0  0  0  0  0  0  0  0  0  0  0
  -22.2035   -8.2257   21.4551 C   0  0  0  0  0  0  0  0  0  0  0  0
  -25.6372  -20.6386   23.2552 C   0  0  0  0  0  0  0  0  0  0  0  0
  -21.9339   -6.1597   22.5420 C   0  0  0  0  0  0  0  0  0  0  0  0
  -22.9202   -4.2330   24.3020 C   0  0  0  0  0  0  0  0  0  0  0  0
  -21.2072   -5.8205   23.6833 C   0  0  0  0  0  0  0  0  0  0  0  0
  -24.5604  -11.6770   20.7982 C   0  0  0  0  0  0  0  0  0  0  0  0
  -25.2579  -13.7441   20.5234 C   0  0  0  0  0  0  0  0  0  0  0  0
  -27.2991  -12.7399   24.2596 C   0  0  0  0  0  0  0  0  0  0  0  0
  -28.2973  -12.8730   23.3790 C   0  0  0  0  0  0  0  0  0  0  0  0
  -22.8015  -13.5479   20.9430 C   0  0  0  0  0  0  0  0  0  0  0  0
  -26.7718  -23.4668   18.7633 C   0  0  0  0  0  0  0  0  0  0  0  0
  -26.2223  -26.1787   20.4562 C   0  0  0  0  0  0  0  0  0  0  0  0
  -25.3982  -27.6142   23.4406 C   0  0  0  0  0  0  0  0  0  0  0  0
  -30.9979  -12.8640   21.5001 C   0  0  0  0  0  0  0  0  0  0  0  0
  -29.1622  -25.5979   14.7881 C   0  0  0  0  0  0  0  0  0  0  0  0
  -24.5322  -22.9641   19.8060 C   0  0  0  0  0  0  0  0  0  0  0  0
  -26.4461  -24.0453   21.7842 C   0  0  0  0  0  0  0  0  0  0  0  0
  -29.2346  -25.7344   16.3067 C   0  0  0  0  0  0  0  0  0  0  0  0
  -29.5310  -13.4442   18.4118 C   0  0  0  0  0  0  0  0  0  0  0  0
  -29.3292  -24.3603   16.9623 C   0  0  0  0  0  0  0  0  0  0  0  0
  -28.0449  -13.1865   18.6566 C   0  0  0  0  0  0  0  0  0  0  0  0
  -30.3891  -12.4185   19.1427 C   0  0  0  0  0  0  0  0  0  0  0  0
  -28.6548  -12.1085   20.8798 C   0  0  0  0  0  0  0  0  0  0  0  0
  -28.0882  -23.5146   16.6524 C   0  0  1  0  0  0  0  0  0  0  0  0
  -25.5530  -24.0349   19.4337 C   0  0  1  0  0  0  0  0  0  0  0  0
  -27.7377  -13.1206   20.1629 C   0  0  2  0  0  0  0  0  0  0  0  0
  -25.0652  -29.8528   24.5245 C   0  0  0  0  0  0  0  0  0  0  0  0
  -29.2463  -26.5685   20.5746 C   0  0  0  0  0  0  0  0  0  0  0  0
  -28.8907  -28.2240   22.4188 C   0  0  0  0  0  0  0  0  0  0  0  0
  -27.9406  -28.6595   20.1537 C   0  0  0  0  0  0  0  0  0  0  0  0
  -29.3764  -17.5974   28.2453 C   0  0  0  0  0  0  0  0  0  0  0  0
  -22.5673  -27.0197   24.0665 C   0  0  0  0  0  0  0  0  0  0  0  0
  -31.5833  -13.2794   23.8586 C   0  0  0  0  0  0  0  0  0  0  0  0
  -29.5202  -12.0170   23.3719 C   0  0  0  0  0  0  0  0  0  0  0  0
  -27.7528  -18.8170   25.5475 C   0  0  0  0  0  0  0  0  0  0  0  0
  -29.1540  -18.9222   26.1373 C   0  0  0  0  0  0  0  0  0  0  0  0
  -27.2892  -20.1071   24.8813 C   0  0  0  0  0  0  0  0  0  1  0  0
  -26.9015  -26.8741   21.6113 C   0  0  1  0  0  0  0  0  0  0  0  0
  -24.3965  -28.6986   23.7943 C   0  0  2  0  0  0  0  0  0  0  0  0
  -28.2349  -27.5549   21.1919 C   0  0  0  0  0  0  0  0  0  0  0  0
  -25.8748  -11.5618   20.5906 N   0  0  0  0  0  0  0  0  0  0  0  0
  -26.2705  -12.8356   20.4267 N   0  0  0  0  0  0  0  0  0  0  0  0
  -26.0200  -24.7981   20.5929 N   0  0  0  0  0  0  0  0  0  0  0  0
  -30.0671  -12.3790   20.5695 N   0  0  0  0  0  0  0  0  0  0  0  0
  -25.4807  -15.0683   20.3843 N   0  0  0  0  0  0  0  0  0  0  0  0
  -21.7469  -12.6572   21.1857 N   0  0  0  0  0  0  0  0  0  0  0  0
  -26.9742  -23.9305   17.4774 N   0  0  0  0  0  0  0  0  0  0  0  0
  -25.9145  -27.7892   22.1742 N   0  0  0  0  0  0  0  0  0  0  0  0
  -29.5264  -17.6913   26.7919 N   0  0  3  0  0  0  0  0  0  0  0  0
  -30.6446  -12.7957   22.8562 N   0  0  0  0  0  0  0  0  0  0  0  0
  -23.3236  -28.1473   24.6694 N   0  3  0  0  0  0  0  0  0  0  0  0
  -22.5625  -14.7772   20.8703 O   0  0  0  0  0  0  0  0  0  0  0  0
  -27.4772  -22.6681   19.3684 O   0  0  0  0  0  0  0  0  0  0  0  0
  -25.8774  -26.8376   19.4720 O   0  0  0  0  0  0  0  0  0  0  0  0
  -25.6958  -26.7050   24.2122 O   0  0  0  0  0  0  0  0  0  0  0  0
  -32.0887  -13.3260   21.1409 O   0  0  0  0  0  0  0  0  0  0  0  0
  -21.4453   -7.1153   21.6670 O   0  0  0  0  0  0  0  0  0  0  0  0
  -25.9813  -19.9041   24.3479 O   0  0  0  0  0  0  0  0  0  1  0  0
  -23.3931   -3.3068   25.1462 F   0  0  0  0  0  0  0  0  0  0  0  0
  -20.0342   -6.4158   23.9390 F   0  0  0  0  0  0  0  0  0  0  0  0
  1  2  1  0  0  0  0
  1  5  2  0  0  0  0
  2  6  2  0  0  0  0
  3 12  2  0  0  0  0
  3 19  1  0  0  0  0
  4 13  1  0  0  0  0
  4 19  2  0  0  0  0
  5 21  1  0  0  0  0
  6 23  1  0  0  0  0
  7 14  2  0  0  0  0
  7 22  1  0  0  0  0
  8 10  2  0  0  0  0
  8 25  1  0  0  0  0
  9 11  1  0  0  0  0
  9 25  2  0  0  0  0
 10 26  1  0  0  0  0
 11 26  2  0  0  0  0
 12 27  1  0  0  0  0
 13 27  2  0  0  0  0
 14 28  1  0  0  0  0
 15 16  2  0  0  0  0
 15 29  1  0  0  0  0
 16 30  1  0  0  0  0
 17 24  1  0  0  0  0
 17 28  2  0  0  0  0
 18 30  2  0  0  0  0
 18 31  1  0  0  0  0
 19 32  1  0  0  0  0
 20 32  1  0  0  0  0
 20 33  2  0  0  0  0
 20 36  1  0  0  0  0
 21 23  2  0  0  0  0
 21 41  1  0  0  0  0
 22 24  2  0  0  0  0
 22 42  1  0  0  0  0
 23 50  1  0  0  0  0
 24 43  1  0  0  0  0
 25 59  1  0  0  0  0
 26 75  1  0  0  0  0
 27 83  1  0  0  0  0
 28 84  1  0  0  0  0
 29 31  2  0  0  0  0
 29 83  1  0  0  0  0
 30 85  1  0  0  0  0
 31 86  1  0  0  0  0
 32 67  2  0  0  0  0
 33 68  1  0  0  0  0
 33 71  1  0  0  0  0
 34 35  2  0  0  0  0
 35 60  1  0  0  0  0
 36 72  1  0  0  0  0
 36 78  2  0  0  0  0
 37 51  1  0  0  0  0
 37 73  1  0  0  0  0
 37 79  2  0  0  0  0
 38 64  1  0  0  0  0
 38 69  1  0  0  0  0
 38 80  2  0  0  0  0
 39 65  1  0  0  0  0
 39 74  1  0  0  0  0
 39 81  2  0  0  0  0
 40 70  1  0  0  0  0
 40 76  1  0  0  0  0
 40 82  2  0  0  0  0
 41 44  1  0  0  0  0
 42 51  1  0  0  0  0
 43 69  1  0  0  0  0
 44 46  1  0  0  0  0
 45 47  1  0  0  0  0
 45 48  1  0  0  0  0
 46 50  1  0  0  0  0
 47 52  1  0  0  0  0
 48 70  1  0  0  0  0
 49 52  1  0  0  0  0
 49 70  1  0  0  0  0
 50 73  1  0  0  0  0
 51 69  1  0  0  0  0
 52 68  1  0  0  0  0
 53 65  1  0  0  0  0
 54 66  1  0  0  0  0
 55 66  1  0  0  0  0
 56 66  1  0  0  0  0
 57 75  1  0  0  0  0
 58 77  1  0  0  0  0
 59 76  1  0  0  0  0
 60 76  1  0  0  0  0
 61 62  1  0  0  0  0
 61 63  1  0  0  0  0
 62 75  1  0  0  0  0
 63 84  1  0  0  0  0
 64 66  1  0  0  0  0
 64 74  1  0  0  0  0
 65 77  1  0  0  0  0
 67 68  1  0  0  0  0
M  CHG  1  77   1
M  ISO  4  40 100  63 101  76 100  84 101
M  END
> <Batch ID>
0018

> <Smiles>
C=CC[100N:0](Cc1ccc(N(C)CC[101CH2:1][101O:1]c2ccc3c(c2)CN(C(=O)C(NC(=O)C(C)NC)C(C)(C)C)C(C(=O)NC2CCCc4ccccc42)C3)cc1)[100C:0](=O)N1CCCC(n2nc(-c3ccc(Oc4ccc(F)cc4F)cc3)c(C(N)=O)c2N)C1

> <Shape>
0.201

> <Color>
0.193

> <Negative vol penalty>
0.000

$$$$

  -OEChem-04042321033D

 85 94  0     1  0  0  0  0  0999 V2000
  -30.6527  -22.4891   17.7829 C   0  0  0  0  0  0  0  0  0  0  0  0
  -29.8473  -22.6175   18.9100 C   0  0  0  0  0  0  0  0  0  0  0  0
  -25.8260  -27.1254   20.8245 C   0  0  0  0  0  0  0  0  0  0  0  0
  -25.3512  -29.4714   20.4960 C   0  0  0  0  0  0  0  0  0  0  0  0
  -30.3129  -21.5766   16.7850 C   0  0  0  0  0  0  0  0  0  0  0  0
  -28.7010  -21.8342   19.0393 C   0  0  0  0  0  0  0  0  0  0  0  0
  -28.2180  -19.8474   23.6722 C   0  0  0  0  0  0  0  0  0  0  0  0
  -20.9478  -24.1444   25.2490 C   0  0  0  0  0  0  0  0  0  0  0  0
  -22.3505  -22.9775   23.6654 C   0  0  0  0  0  0  0  0  0  0  0  0
  -19.9763  -24.3150   24.2628 C   0  0  0  0  0  0  0  0  0  0  0  0
  -21.3790  -23.1481   22.6792 C   0  0  0  0  0  0  0  0  0  0  0  0
  -26.7927  -27.1805   19.8205 C   0  0  0  0  0  0  0  0  0  0  0  0
  -26.3180  -29.5265   19.4920 C   0  0  0  0  0  0  0  0  0  0  0  0
  -27.7481  -20.6885   24.6799 C   0  0  0  0  0  0  0  0  0  0  0  0
  -29.9862  -28.2423   19.4929 C   0  0  0  0  0  0  0  0  0  0  0  0
  -31.2135  -27.6276   19.7404 C   0  0  0  0  0  0  0  0  0  0  0  0
  -25.5461  -19.7322   24.4430 C   0  0  0  0  0  0  0  0  0  0  0  0
  -30.8688  -26.1747   17.8411 C   0  0  0  0  0  0  0  0  0  0  0  0
  -25.1052  -28.2709   21.1622 C   0  0  0  0  0  0  0  0  0  0  0  0
  -24.2946  -28.4456   23.5747 C   0  0  0  0  0  0  0  0  0  0  0  0
  -29.1671  -20.7748   16.9067 C   0  0  0  0  0  0  0  0  0  0  0  0
  -27.3515  -18.9485   23.0338 C   0  0  0  0  0  0  0  0  0  0  0  0
  -28.3448  -20.9110   18.0414 C   0  0  0  0  0  0  0  0  0  0  0  0
  -26.0081  -18.8790   23.4293 C   0  0  0  0  0  0  0  0  0  0  0  0
  -22.1350  -23.4757   24.9503 C   0  0  0  0  0  0  0  0  0  0  0  0
  -20.1918  -23.8168   22.9779 C   0  0  0  0  0  0  0  0  0  0  0  0
  -27.0387  -28.3810   19.1543 C   0  0  0  0  0  0  0  0  0  0  0  0
  -26.4114  -20.6331   25.0635 C   0  0  0  0  0  0  0  0  0  0  0  0
  -29.2000  -27.8232   18.4195 C   0  0  0  0  0  0  0  0  0  0  0  0
  -31.6549  -26.5938   18.9145 C   0  0  0  0  0  0  0  0  0  0  0  0
  -29.6414  -26.7894   17.5936 C   0  0  0  0  0  0  0  0  0  0  0  0
  -24.1061  -28.2146   22.1989 C   0  0  0  0  0  0  0  0  0  0  0  0
  -23.0487  -28.2716   24.1260 C   0  0  0  0  0  0  0  0  0  0  0  0
  -25.4891  -28.7872   24.2904 C   0  0  0  0  0  0  0  0  0  0  0  0
  -26.3291  -18.5540   20.0500 C   0  0  0  0  0  0  0  0  0  0  0  0
  -24.9504  -15.8916   21.2880 C   0  0  0  0  0  0  0  0  0  0  0  0
  -23.7386  -14.2656   24.0330 C   0  0  0  0  0  0  0  0  0  0  0  0
  -18.3053  -25.0898   21.9236 C   0  0  0  0  0  0  0  0  0  0  0  0
  -28.8149  -19.8363   15.7798 C   0  0  0  0  0  0  0  0  0  0  0  0
  -27.8801  -18.0291   21.9670 C   0  0  0  0  0  0  0  0  0  0  0  0
  -25.0417  -17.9173   22.7893 C   0  0  0  0  0  0  0  0  0  0  0  0
  -27.7870  -18.7767   16.1684 C   0  0  0  0  0  0  0  0  0  0  0  0
  -18.3927  -28.5988   23.0951 C   0  0  0  0  0  0  0  0  0  0  0  0
  -25.7941  -25.8968   25.6577 C   0  0  0  0  0  0  0  0  0  0  0  0
  -26.6257  -19.4122   16.9263 C   0  0  0  0  0  0  0  0  0  0  0  0
  -19.8803  -28.9404   23.0326 C   0  0  0  0  0  0  0  0  0  0  0  0
  -26.1729  -25.1269   26.9100 C   0  0  0  0  0  0  0  0  0  0  0  0
  -18.0104  -27.5421   22.0631 C   0  0  0  0  0  0  0  0  0  0  0  0
  -20.3163  -26.6348   22.0967 C   0  0  0  0  0  0  0  0  0  0  0  0
  -24.3948  -25.4017   25.3689 C   0  0  0  0  0  0  0  0  0  0  0  0
  -27.1068  -20.0614   18.2296 C   0  0  1  0  0  0  0  0  0  0  0  0
  -26.7922  -17.5134   21.0300 C   0  0  1  0  0  0  0  0  0  0  0  0
  -20.7346  -27.6677   23.1538 C   0  0  1  0  0  0  0  0  0  0  0  0
  -25.5808  -23.7319   26.7096 C   0  0  2  0  0  0  0  0  0  0  0  0
  -22.6401  -12.1182   24.7252 C   0  0  0  0  0  0  0  0  0  0  0  0
  -22.3052  -16.8730   20.1263 C   0  0  0  0  0  0  0  0  0  0  0  0
  -21.1257  -15.2458   21.6194 C   0  0  0  0  0  0  0  0  0  0  0  0
  -22.7069  -14.4173   19.8769 C   0  0  0  0  0  0  0  0  0  0  0  0
  -18.9012  -22.8629   21.0766 C   0  0  0  0  0  0  0  0  0  0  0  0
  -25.9849  -13.5594   25.8258 C   0  0  0  0  0  0  0  0  0  0  0  0
  -23.1800  -23.2923   26.0112 C   0  0  0  0  0  0  0  0  0  0  0  0
  -26.5918  -22.7198   26.1899 C   0  0  0  0  0  0  0  0  0  1  0  0
  -23.6209  -15.5759   21.9297 C   0  0  1  0  0  0  0  0  0  0  0  0
  -23.9589  -12.8542   24.5465 C   0  0  2  0  0  0  0  0  0  0  0  0
  -22.4572  -15.5476   20.8990 C   0  0  0  0  0  0  0  0  0  0  0  0
  -22.8401  -27.9163   21.8948 N   0  0  0  0  0  0  0  0  0  0  0  0
  -22.2219  -27.9587   23.0874 N   0  0  0  0  0  0  0  0  0  0  0  0
  -25.6049  -17.0435   21.7467 N   0  0  0  0  0  0  0  0  0  0  0  0
  -18.8709  -26.3612   22.1509 N   0  0  0  0  0  0  0  0  0  0  0  0
  -22.5907  -28.3570   25.3930 N   0  0  0  0  0  0  0  0  0  0  0  0
  -26.6829  -28.9271   23.5696 N   0  0  0  0  0  0  0  0  0  0  0  0
  -27.3334  -19.0532   19.2428 N   0  0  0  0  0  0  0  0  0  0  0  0
  -23.8055  -14.3248   22.6570 N   0  0  0  0  0  0  0  0  0  0  0  0
  -19.1872  -23.9928   21.9579 N   0  0  0  0  0  0  0  0  0  0  0  0
  -24.4901  -23.9219   25.6583 N   0  3  1  0  0  0  0  0  0  0  0  0
  -24.6618  -12.8847   25.8603 N   0  3  0  0  0  0  0  0  0  0  0  0
  -25.5008  -28.9470   25.5345 O   0  0  0  0  0  0  0  0  0  0  0  0
  -25.1478  -18.8789   20.0269 O   0  0  0  0  0  0  0  0  0  0  0  0
  -25.3952  -15.1398   20.4171 O   0  0  0  0  0  0  0  0  0  0  0  0
  -23.5247  -15.2196   24.7778 O   0  0  0  0  0  0  0  0  0  0  0  0
  -17.1067  -24.9457   21.6530 O   0  0  0  0  0  0  0  0  0  0  0  0
  -27.9821  -28.4351   18.1747 O   0  0  0  0  0  0  0  0  0  0  0  0
  -25.9499  -21.4534   26.0463 O   0  0  0  0  0  0  0  0  0  1  0  0
  -32.8342  -26.0046   19.1514 F   0  0  0  0  0  0  0  0  0  0  0  0
  -28.8911  -26.3833   16.5602 F   0  0  0  0  0  0  0  0  0  0  0  0
  1  2  1  0  0  0  0
  1  5  2  0  0  0  0
  2  6  2  0  0  0  0
  3 12  2  0  0  0  0
  3 19  1  0  0  0  0
  4 13  1  0  0  0  0
  4 19  2  0  0  0  0
  5 21  1  0  0  0  0
  6 23  1  0  0  0  0
  7 14  2  0  0  0  0
  7 22  1  0  0  0  0
  8 10  2  0  0  0  0
  8 25  1  0  0  0  0
  9 11  1  0  0  0  0
  9 25  2  0  0  0  0
 10 26  1  0  0  0  0
 11 26  2  0  0  0  0
 12 27  1  0  0  0  0
 13 27  2  0  0  0  0
 14 28  1  0  0  0  0
 15 16  2  0  0  0  0
 15 29  1  0  0  0  0
 16 30  1  0  0  0  0
 17 24  1  0  0  0  0
 17 28  2  0  0  0  0
 18 30  2  0  0  0  0
 18 31  1  0  0  0  0
 19 32  1  0  0  0  0
 20 32  1  0  0  0  0
 20 33  2  0  0  0  0
 20 34  1  0  0  0  0
 21 23  2  0  0  0  0
 21 39  1  0  0  0  0
 22 24  2  0  0  0  0
 22 40  1  0  0  0  0
 23 51  1  0  0  0  0
 24 41  1  0  0  0  0
 25 61  1  0  0  0  0
 26 74  1  0  0  0  0
 27 82  1  0  0  0  0
 28 83  1  0  0  0  0
 29 31  2  0  0  0  0
 29 82  1  0  0  0  0
 30 84  1  0  0  0  0
 31 85  1  0  0  0  0
 32 66  2  0  0  0  0
 33 67  1  0  0  0  0
 33 70  1  0  0  0  0
 34 71  1  0  0  0  0
 34 77  2  0  0  0  0
 35 52  1  0  0  0  0
 35 72  1  0  0  0  0
 35 78  2  0  0  0  0
 36 63  1  0  0  0  0
 36 68  1  0  0  0  0
 36 79  2  0  0  0  0
 37 64  1  0  0  0  0
 37 73  1  0  0  0  0
 37 80  2  0  0  0  0
 38 69  1  0  0  0  0
 38 74  1  0  0  0  0
 38 81  2  0  0  0  0
 39 42  1  0  0  0  0
 40 52  1  0  0  0  0
 41 68  1  0  0  0  0
 42 45  1  0  0  0  0
 43 46  1  0  0  0  0
 43 48  1  0  0  0  0
 44 47  1  0  0  0  0
 44 50  1  0  0  0  0
 45 51  1  0  0  0  0
 46 53  1  0  0  0  0
 47 54  1  0  0  0  0
 48 69  1  0  0  0  0
 49 53  1  0  0  0  0
 49 69  1  0  0  0  0
 50 75  1  0  0  0  0
 51 72  1  0  0  0  0
 52 68  1  0  0  0  0
 53 67  1  0  0  0  0
 54 62  1  0  0  0  0
 54 75  1  0  0  0  0
 55 64  1  0  0  0  0
 56 65  1  0  0  0  0
 57 65  1  0  0  0  0
 58 65  1  0  0  0  0
 59 74  1  0  0  0  0
 60 76  1  0  0  0  0
 61 75  1  0  0  0  0
 62 83  1  0  0  0  0
 63 65  1  0  0  0  0
 63 73  1  0  0  0  0
 64 76  1  0  0  0  0
 66 67  1  0  0  0  0
M  CHG  2  75   1  76   1
M  ISO  4  38 100  62 101  74 100  83 101
M  END
> <Batch ID>
0018

> <Smiles>
CNC(C)C(=O)NC(C(=O)N1Cc2cc([101O:1][101CH2:1]C3CCCN3Cc3ccc([100N:0](C)[100C:0](=O)N4CCCC(n5nc(-c6ccc(Oc7ccc(F)cc7F)cc6)c(C(N)=O)c5N)C4)cc3)ccc2CC1C(=O)NC1CCCc2ccccc21)C(C)(C)C

> <Shape>
0.157

> <Color>
0.058

> <Negative vol penalty>
0.000

$$$$

  -OEChem-04042321033D

 78 86  0     1  0  0  0  0  0999 V2000
  -30.6640  -31.3123   25.6284 C   0  0  0  0  0  0  0  0  0  0  0  0
  -30.4587  -30.0107   25.1823 C   0  0  0  0  0  0  0  0  0  0  0  0
  -24.6100   -9.1991   21.9653 C   0  0  0  0  0  0  0  0  0  0  0  0
  -23.0964  -10.0844   20.3032 C   0  0  0  0  0  0  0  0  0  0  0  0
  -29.6133  -32.2286   25.6090 C   0  0  0  0  0  0  0  0  0  0  0  0
  -29.2021  -29.6242   24.7175 C   0  0  0  0  0  0  0  0  0  0  0  0
  -28.0050  -25.6600   20.2056 C   0  0  0  0  0  0  0  0  0  0  0  0
  -23.5573   -8.4938   22.5482 C   0  0  0  0  0  0  0  0  0  0  0  0
  -22.0437   -9.3790   20.8862 C   0  0  0  0  0  0  0  0  0  0  0  0
  -27.6557  -24.3103   20.2109 C   0  0  0  0  0  0  0  0  0  0  0  0
  -21.8331   -5.6471   21.9507 C   0  0  0  0  0  0  0  0  0  0  0  0
  -22.0604   -4.3166   22.3023 C   0  0  0  0  0  0  0  0  0  0  0  0
  -25.3270  -24.9184   20.0487 C   0  0  0  0  0  0  0  0  0  0  0  0
  -21.5667   -4.8416   24.6083 C   0  0  0  0  0  0  0  0  0  0  0  0
  -24.3796   -9.9945   20.8428 C   0  0  0  0  0  0  0  0  0  0  0  0
  -26.3267  -10.2778   19.2192 C   0  0  0  0  0  0  0  0  0  0  0  0
  -28.3457  -31.8558   25.1347 C   0  0  0  0  0  0  0  0  0  0  0  0
  -27.0155  -26.6510   20.1326 C   0  0  0  0  0  0  0  0  0  0  0  0
  -28.1331  -30.5360   24.6930 C   0  0  0  0  0  0  0  0  0  0  0  0
  -25.6664  -26.2799   20.0399 C   0  0  0  0  0  0  0  0  0  0  0  0
  -22.2741   -8.5837   22.0087 C   0  0  0  0  0  0  0  0  0  0  0  0
  -26.3164  -23.9393   20.1354 C   0  0  0  0  0  0  0  0  0  0  0  0
  -21.4727   -6.5750   22.9279 C   0  0  0  0  0  0  0  0  0  0  0  0
  -21.9272   -3.9138   23.6310 C   0  0  0  0  0  0  0  0  0  0  0  0
  -21.3395   -6.1722   24.2567 C   0  0  0  0  0  0  0  0  0  0  0  0
  -25.4665  -10.7238   20.2404 C   0  0  0  0  0  0  0  0  0  0  0  0
  -27.1794  -11.3327   19.0035 C   0  0  0  0  0  0  0  0  0  0  0  0
  -26.3527   -9.0222   18.5274 C   0  0  0  0  0  0  0  0  0  0  0  0
  -26.0699  -29.0207   22.0284 C   0  0  0  0  0  0  0  0  0  0  0  0
  -24.1671  -29.7579   19.5068 C   0  0  0  0  0  0  0  0  0  0  0  0
  -22.5545  -28.7059   16.6890 C   0  0  0  0  0  0  0  0  0  0  0  0
  -28.2122  -16.5625   18.2663 C   0  0  0  0  0  0  0  0  0  0  0  0
  -27.2283  -32.8679   25.1771 C   0  0  0  0  0  0  0  0  0  0  0  0
  -27.4103  -28.1020   20.1008 C   0  0  0  0  0  0  0  0  0  0  0  0
  -24.5672  -27.3047   19.9394 C   0  0  0  0  0  0  0  0  0  0  0  0
  -26.0256  -32.4837   24.3190 C   0  0  0  0  0  0  0  0  0  0  0  0
  -27.9267  -15.5709   21.6437 C   0  0  0  0  0  0  0  0  0  0  0  0
  -25.6456  -31.0253   24.5549 C   0  0  0  0  0  0  0  0  0  0  0  0
  -27.3181  -14.1767   21.4993 C   0  0  0  0  0  0  0  0  0  0  0  0
  -27.1618  -19.9287   17.8057 C   0  0  0  0  0  0  0  0  0  0  0  0
  -28.2513  -19.6217   20.0697 C   0  0  0  0  0  0  0  0  0  0  0  0
  -26.2556  -21.0076   18.3926 C   0  0  0  0  0  0  0  0  0  0  0  0
  -27.3424  -20.7024   20.6493 C   0  0  0  0  0  0  0  0  0  0  0  0
  -27.3293  -16.5648   20.6458 C   0  0  0  0  0  0  0  0  0  0  0  0
  -26.7846  -14.7161   19.0939 C   0  0  0  0  0  0  0  0  0  0  0  0
  -26.7908  -30.0858   24.1583 C   0  0  1  0  0  0  0  0  0  0  0  0
  -26.2879  -29.0364   20.5418 C   0  0  1  0  0  0  0  0  0  0  0  0
  -27.4104  -13.6841   20.0447 C   0  0  2  0  0  0  0  0  0  0  0  0
  -27.5962  -18.9227   18.8755 C   0  0  0  0  0  0  0  0  0  0  0  0
  -26.9083  -21.7064   19.5830 C   0  0  0  0  0  0  0  0  0  1  0  0
  -21.0466  -29.5279   14.8593 C   0  0  0  0  0  0  0  0  0  0  0  0
  -21.8042  -29.7118   21.4368 C   0  0  0  0  0  0  0  0  0  0  0  0
  -20.2782  -29.5874   19.4558 C   0  0  0  0  0  0  0  0  0  0  0  0
  -21.7529  -31.5748   19.7692 C   0  0  0  0  0  0  0  0  0  0  0  0
  -29.5899  -18.4676   17.5241 C   0  0  0  0  0  0  0  0  0  0  0  0
  -24.5493  -28.0651   14.5987 C   0  0  0  0  0  0  0  0  0  0  0  0
  -22.7751  -29.3711   19.0688 C   0  0  1  0  0  0  0  0  0  0  0  0
  -22.4858  -29.2911   15.2900 C   0  0  2  0  0  0  0  0  0  0  0  0
  -21.6730  -30.0418   19.9365 C   0  0  0  0  0  0  0  0  0  0  0  0
  -25.7471  -11.9652   20.6455 N   0  0  0  0  0  0  0  0  0  0  0  0
  -26.7933  -12.3083   19.8749 N   0  0  0  0  0  0  0  0  0  0  0  0
  -25.0036  -28.7106   19.9184 N   0  0  0  0  0  0  0  0  0  0  0  0
  -27.3946  -16.0354   19.2767 N   0  0  0  0  0  0  0  0  0  0  0  0
  -28.2143  -11.5117   18.1553 N   0  0  0  0  0  0  0  0  0  0  0  0
  -25.4051   -8.0492   18.8732 N   0  0  0  0  0  0  0  0  0  0  0  0
  -26.8439  -29.9327   22.7202 N   0  0  0  0  0  0  0  0  0  0  0  0
  -22.6917  -29.6880   17.6472 N   0  0  0  0  0  0  0  0  0  0  0  0
  -28.4890  -17.9370   18.3158 N   0  0  0  0  0  0  0  0  0  0  0  0
  -23.1236  -28.3670   14.3101 N   0  3  0  0  0  0  0  0  0  0  0  0
  -27.2018   -8.7646   17.6407 O   0  0  0  0  0  0  0  0  0  0  0  0
  -25.2584  -28.2400   22.5118 O   0  0  0  0  0  0  0  0  0  0  0  0
  -24.5023  -30.9447   19.4778 O   0  0  0  0  0  0  0  0  0  0  0  0
  -22.4891  -27.4987   16.9101 O   0  0  0  0  0  0  0  0  0  0  0  0
  -28.6645  -15.8466   17.3634 O   0  0  0  0  0  0  0  0  0  0  0  0
  -21.2467   -7.8954   22.5771 O   0  0  0  0  0  0  0  0  0  0  0  0
  -25.9727  -22.6226   20.1411 O   0  0  0  0  0  0  0  0  0  1  0  0
  -22.1439   -2.6358   23.9683 F   0  0  0  0  0  0  0  0  0  0  0  0
  -20.9923   -7.0587   25.1997 F   0  0  0  0  0  0  0  0  0  0  0  0
  1  2  1  0  0  0  0
  1  5  2  0  0  0  0
  2  6  2  0  0  0  0
  3  8  2  0  0  0  0
  3 15  1  0  0  0  0
  4  9  1  0  0  0  0
  4 15  2  0  0  0  0
  5 17  1  0  0  0  0
  6 19  1  0  0  0  0
  7 10  2  0  0  0  0
  7 18  1  0  0  0  0
  8 21  1  0  0  0  0
  9 21  2  0  0  0  0
 10 22  1  0  0  0  0
 11 12  2  0  0  0  0
 11 23  1  0  0  0  0
 12 24  1  0  0  0  0
 13 20  1  0  0  0  0
 13 22  2  0  0  0  0
 14 24  2  0  0  0  0
 14 25  1  0  0  0  0
 15 26  1  0  0  0  0
 16 26  1  0  0  0  0
 16 27  2  0  0  0  0
 16 28  1  0  0  0  0
 17 19  2  0  0  0  0
 17 33  1  0  0  0  0
 18 20  2  0  0  0  0
 18 34  1  0  0  0  0
 19 46  1  0  0  0  0
 20 35  1  0  0  0  0
 21 75  1  0  0  0  0
 22 76  1  0  0  0  0
 23 25  2  0  0  0  0
 23 75  1  0  0  0  0
 24 77  1  0  0  0  0
 25 78  1  0  0  0  0
 26 60  2  0  0  0  0
 27 61  1  0  0  0  0
 27 64  1  0  0  0  0
 28 65  1  0  0  0  0
 28 70  2  0  0  0  0
 29 47  1  0  0  0  0
 29 66  1  0  0  0  0
 29 71  2  0  0  0  0
 30 57  1  0  0  0  0
 30 62  1  0  0  0  0
 30 72  2  0  0  0  0
 31 58  1  0  0  0  0
 31 67  1  0  0  0  0
 31 73  2  0  0  0  0
 32 63  1  0  0  0  0
 32 68  1  0  0  0  0
 32 74  2  0  0  0  0
 33 36  1  0  0  0  0
 34 47  1  0  0  0  0
 35 62  1  0  0  0  0
 36 38  1  0  0  0  0
 37 39  1  0  0  0  0
 37 44  1  0  0  0  0
 38 46  1  0  0  0  0
 39 48  1  0  0  0  0
 40 42  1  0  0  0  0
 40 49  1  0  0  0  0
 41 43  1  0  0  0  0
 41 49  1  0  0  0  0
 42 50  1  0  0  0  0
 43 50  1  0  0  0  0
 44 63  1  0  0  0  0
 45 48  1  0  0  0  0
 45 63  1  0  0  0  0
 46 66  1  0  0  0  0
 47 62  1  0  0  0  0
 48 61  1  0  0  0  0
 49 68  1  0  0  0  0
 50 76  1  0  0  0  0
 51 58  1  0  0  0  0
 52 59  1  0  0  0  0
 53 59  1  0  0  0  0
 54 59  1  0  0  0  0
 55 68  1  0  0  0  0
 56 69  1  0  0  0  0
 57 59  1  0  0  0  0
 57 67  1  0  0  0  0
 58 69  1  0  0  0  0
 60 61  1  0  0  0  0
M  CHG  1  69   1
M  ISO  4  32 100  50 101  68 100  76 101
M  END
> <Batch ID>
0018

> <Smiles>
CNC(C)C(=O)NC(C(=O)N1Cc2cc([101O:1][101CH:1]3CCC([100N:0](C)[100C:0](=O)N4CCCC(n5nc(-c6ccc(Oc7ccc(F)cc7F)cc6)c(C(N)=O)c5N)C4)CC3)ccc2CC1C(=O)NC1CCCc2ccccc21)C(C)(C)C

> <Shape>
0.271

> <Color>
0.072

> <Negative vol penalty>
0.000

$$$$

  -OEChem-04042321033D

 86 94  0     1  0  0  0  0  0999 V2000
  -23.4531  -33.4859   17.0555 C   0  0  0  0  0  0  0  0  0  0  0  0
  -24.4286  -32.5053   16.9065 C   0  0  0  0  0  0  0  0  0  0  0  0
  -23.1414   -9.8581   20.0533 C   0  0  0  0  0  0  0  0  0  0  0  0
  -23.5839  -10.2402   22.3975 C   0  0  0  0  0  0  0  0  0  0  0  0
  -23.0791  -33.9072   18.3309 C   0  0  0  0  0  0  0  0  0  0  0  0
  -25.0314  -31.9462   18.0327 C   0  0  0  0  0  0  0  0  0  0  0  0
  -26.9231  -26.1605   18.7061 C   0  0  0  0  0  0  0  0  0  0  0  0
  -29.0649  -18.8938   20.3297 C   0  0  0  0  0  0  0  0  0  0  0  0
  -29.3955  -20.0120   19.5643 C   0  0  0  0  0  0  0  0  0  0  0  0
  -22.3597   -8.7505   20.3814 C   0  0  0  0  0  0  0  0  0  0  0  0
  -22.8022   -9.1325   22.7256 C   0  0  0  0  0  0  0  0  0  0  0  0
  -28.1780  -25.5643   18.5891 C   0  0  0  0  0  0  0  0  0  0  0  0
  -23.1347   -5.7681   22.7504 C   0  0  0  0  0  0  0  0  0  0  0  0
  -23.6377   -4.8781   23.6993 C   0  0  0  0  0  0  0  0  0  0  0  0
  -28.4818  -25.7496   20.9750 C   0  0  0  0  0  0  0  0  0  0  0  0
  -21.7227   -5.3005   25.1105 C   0  0  0  0  0  0  0  0  0  0  0  0
  -23.7536  -10.6030   21.0613 C   0  0  0  0  0  0  0  0  0  0  0  0
  -24.1322  -13.0807   20.5869 C   0  0  0  0  0  0  0  0  0  0  0  0
  -23.6707  -33.3461   19.4736 C   0  0  0  0  0  0  0  0  0  0  0  0
  -26.4420  -26.5663   19.9592 C   0  0  0  0  0  0  0  0  0  0  0  0
  -24.6658  -32.3613   19.3245 C   0  0  0  0  0  0  0  0  0  0  0  0
  -27.2194  -26.3484   21.1055 C   0  0  0  0  0  0  0  0  0  0  0  0
  -29.4934  -17.6265   19.9344 C   0  0  0  0  0  0  0  0  0  0  0  0
  -30.2525  -17.4776   18.7737 C   0  0  0  0  0  0  0  0  0  0  0  0
  -30.5831  -18.5958   18.0083 C   0  0  0  0  0  0  0  0  0  0  0  0
  -30.1546  -19.8631   18.4036 C   0  0  0  0  0  0  0  0  0  0  0  0
  -22.1901   -8.3877   21.7175 C   0  0  0  0  0  0  0  0  0  0  0  0
  -28.9587  -25.3614   19.7232 C   0  0  0  0  0  0  0  0  0  0  0  0
  -21.9257   -6.4243   22.9815 C   0  0  0  0  0  0  0  0  0  0  0  0
  -22.9317   -4.6443   24.8794 C   0  0  0  0  0  0  0  0  0  0  0  0
  -21.2197   -6.1905   24.1615 C   0  0  0  0  0  0  0  0  0  0  0  0
  -24.5616  -11.7470   20.7230 C   0  0  0  0  0  0  0  0  0  0  0  0
  -25.2704  -13.7762   20.2595 C   0  0  0  0  0  0  0  0  0  0  0  0
  -22.8216  -13.6409   20.7425 C   0  0  0  0  0  0  0  0  0  0  0  0
  -25.6069  -29.3497   21.2473 C   0  0  0  0  0  0  0  0  0  0  0  0
  -24.6750  -27.4786   23.7279 C   0  0  0  0  0  0  0  0  0  0  0  0
  -24.9988  -24.5288   25.4132 C   0  0  0  0  0  0  0  0  0  0  0  0
  -30.7477  -14.6480   21.5074 C   0  0  0  0  0  0  0  0  0  0  0  0
  -23.2674  -33.8675   20.8301 C   0  0  0  0  0  0  0  0  0  0  0  0
  -25.0750  -27.1837   20.0719 C   0  0  0  0  0  0  0  0  0  0  0  0
  -26.7401  -26.7475   22.4765 C   0  0  0  0  0  0  0  0  0  0  0  0
  -23.6867  -32.9573   21.9817 C   0  0  0  0  0  0  0  0  0  0  0  0
  -29.8612  -12.1643   18.9098 C   0  0  0  0  0  0  0  0  0  0  0  0
  -25.1379  -32.5184   21.8141 C   0  0  0  0  0  0  0  0  0  0  0  0
  -28.3839  -11.8982   19.1938 C   0  0  0  0  0  0  0  0  0  0  0  0
  -30.6154  -12.5779   20.1699 C   0  0  0  0  0  0  0  0  0  0  0  0
  -28.5354  -13.4733   21.1627 C   0  0  0  0  0  0  0  0  0  0  0  0
  -25.3251  -31.7132   20.5226 C   0  0  1  0  0  0  0  0  0  0  0  0
  -24.9017  -28.0256   21.3323 C   0  0  1  0  0  0  0  0  0  0  0  0
  -27.7369  -13.0995   19.9048 C   0  0  2  0  0  0  0  0  0  0  0  0
  -30.7109  -16.1172   18.3521 C   0  0  0  0  0  0  0  0  0  0  0  0
  -31.3975  -18.4342   16.7629 C   0  0  0  0  0  0  0  0  0  0  0  0
  -24.1320  -23.3037   27.4244 C   0  0  0  0  0  0  0  0  0  0  0  0
  -26.3938  -29.2356   25.5358 C   0  0  0  0  0  0  0  0  0  0  0  0
  -26.2579  -27.4489   27.2843 C   0  0  0  0  0  0  0  0  0  0  0  0
  -24.1810  -28.5905   26.5060 C   0  0  0  0  0  0  0  0  0  0  0  0
  -29.5802  -21.4427   16.5774 C   0  0  0  0  0  0  0  0  0  0  0  0
  -31.0425  -16.9873   22.2288 C   0  0  0  0  0  0  0  0  0  0  0  0
  -23.9233  -22.3274   23.7530 C   0  0  0  0  0  0  0  0  0  0  0  0
  -29.1260  -16.4462   20.7729 C   0  0  0  0  0  0  0  0  0  0  0  0
  -31.4167  -22.8239   18.9694 C   0  0  0  0  0  0  0  0  0  0  0  0
  -31.6730  -21.7624   17.9065 C   0  0  0  0  0  0  0  0  0  0  0  0
  -30.3650  -23.8442   18.5500 C   0  0  0  0  0  0  0  0  0  1  0  0
  -25.3400  -26.9465   24.9743 C   0  0  1  0  0  0  0  0  0  0  0  0
  -23.9644  -23.5466   25.9326 C   0  0  2  0  0  0  0  0  0  0  0  0
  -25.5533  -28.0495   26.0492 C   0  0  0  0  0  0  0  0  0  0  0  0
  -25.8705  -11.6014   20.5002 N   0  0  0  0  0  0  0  0  0  0  0  0
  -26.2733  -12.8527   20.2206 N   0  0  0  0  0  0  0  0  0  0  0  0
  -25.3995  -27.3531   22.5341 N   0  0  0  0  0  0  0  0  0  0  0  0
  -29.9552  -13.6932   20.8492 N   0  0  0  0  0  0  0  0  0  0  0  0
  -25.5013  -15.0815   20.0039 N   0  0  0  0  0  0  0  0  0  0  0  0
  -21.7648  -12.7847   21.0808 N   0  0  0  0  0  0  0  0  0  0  0  0
  -24.8421  -30.3600   20.6962 N   0  0  0  0  0  0  0  0  0  0  0  0
  -24.5246  -25.8235   25.4243 N   0  0  0  0  0  0  0  0  0  0  0  0
  -30.4758  -20.9995   17.6476 N   0  0  3  0  0  0  0  0  0  0  0  0
  -30.2519  -15.9593   21.5670 N   0  0  0  0  0  0  0  0  0  0  0  0
  -24.0901  -22.2402   25.2266 N   0  3  0  0  0  0  0  0  0  0  0  0
  -22.5913  -14.8619   20.5702 O   0  0  0  0  0  0  0  0  0  0  0  0
  -26.7590  -29.4478   21.6532 O   0  0  0  0  0  0  0  0  0  0  0  0
  -23.5512  -27.9806   23.8093 O   0  0  0  0  0  0  0  0  0  0  0  0
  -26.1171  -24.1825   25.0388 O   0  0  0  0  0  0  0  0  0  0  0  0
  -31.8407  -14.3478   22.0045 O   0  0  0  0  0  0  0  0  0  0  0  0
  -21.4273   -7.3070   22.0380 O   0  0  0  0  0  0  0  0  0  0  0  0
  -30.1842  -24.7803   19.6118 O   0  0  0  0  0  0  0  0  0  1  0  0
  -23.4141   -3.7885   25.7899 F   0  0  0  0  0  0  0  0  0  0  0  0
  -20.0571   -6.8171   24.3886 F   0  0  0  0  0  0  0  0  0  0  0  0
  1  2  1  0  0  0  0
  1  5  2  0  0  0  0
  2  6  2  0  0  0  0
  3 10  2  0  0  0  0
  3 17  1  0  0  0  0
  4 11  1  0  0  0  0
  4 17  2  0  0  0  0
  5 19  1  0  0  0  0
  6 21  1  0  0  0  0
  7 12  2  0  0  0  0
  7 20  1  0  0  0  0
  8  9  2  0  0  0  0
  8 23  1  0  0  0  0
  9 26  1  0  0  0  0
 10 27  1  0  0  0  0
 11 27  2  0  0  0  0
 12 28  1  0  0  0  0
 13 14  2  0  0  0  0
 13 29  1  0  0  0  0
 14 30  1  0  0  0  0
 15 22  1  0  0  0  0
 15 28  2  0  0  0  0
 16 30  2  0  0  0  0
 16 31  1  0  0  0  0
 17 32  1  0  0  0  0
 18 32  1  0  0  0  0
 18 33  2  0  0  0  0
 18 34  1  0  0  0  0
 19 21  2  0  0  0  0
 19 39  1  0  0  0  0
 20 22  2  0  0  0  0
 20 40  1  0  0  0  0
 21 48  1  0  0  0  0
 22 41  1  0  0  0  0
 23 24  2  0  0  0  0
 23 60  1  0  0  0  0
 24 25  1  0  0  0  0
 24 51  1  0  0  0  0
 25 26  2  0  0  0  0
 25 52  1  0  0  0  0
 26 75  1  0  0  0  0
 27 83  1  0  0  0  0
 28 84  1  0  0  0  0
 29 31  2  0  0  0  0
 29 83  1  0  0  0  0
 30 85  1  0  0  0  0
 31 86  1  0  0  0  0
 32 67  2  0  0  0  0
 33 68  1  0  0  0  0
 33 71  1  0  0  0  0
 34 72  1  0  0  0  0
 34 78  2  0  0  0  0
 35 49  1  0  0  0  0
 35 73  1  0  0  0  0
 35 79  2  0  0  0  0
 36 64  1  0  0  0  0
 36 69  1  0  0  0  0
 36 80  2  0  0  0  0
 37 65  1  0  0  0  0
 37 74  1  0  0  0  0
 37 81  2  0  0  0  0
 38 70  1  0  0  0  0
 38 76  1  0  0  0  0
 38 82  2  0  0  0  0
 39 42  1  0  0  0  0
 40 49  1  0  0  0  0
 41 69  1  0  0  0  0
 42 44  1  0  0  0  0
 43 45  1  0  0  0  0
 43 46  1  0  0  0  0
 44 48  1  0  0  0  0
 45 50  1  0  0  0  0
 46 70  1  0  0  0  0
 47 50  1  0  0  0  0
 47 70  1  0  0  0  0
 48 73  1  0  0  0  0
 49 69  1  0  0  0  0
 50 68  1  0  0  0  0
 53 65  1  0  0  0  0
 54 66  1  0  0  0  0
 55 66  1  0  0  0  0
 56 66  1  0  0  0  0
 57 75  1  0  0  0  0
 58 76  1  0  0  0  0
 59 77  1  0  0  0  0
 60 76  1  0  0  0  0
 61 62  1  0  0  0  0
 61 63  1  0  0  0  0
 62 75  1  0  0  0  0
 63 84  1  0  0  0  0
 64 66  1  0  0  0  0
 64 74  1  0  0  0  0
 65 77  1  0  0  0  0
 67 68  1  0  0  0  0
M  CHG  1  77   1
M  ISO  4  38 100  63 101  76 100  84 101
M  END
> <Batch ID>
0018

> <Smiles>
CNC(C)C(=O)NC(C(=O)N1Cc2cc([101O:1][101CH2:1]CCN(C)c3ccc(C[100N:0](C)[100C:0](=O)N4CCCC(n5nc(-c6ccc(Oc7ccc(F)cc7F)cc6)c(C(N)=O)c5N)C4)c(C)c3C)ccc2CC1C(=O)NC1CCCc2ccccc21)C(C)(C)C

> <Shape>
0.291

> <Color>
0.191

> <Negative vol penalty>
0.000

$$$$

  -OEChem-04042321033D

 86 95  0     1  0  0  0  0  0999 V2000
  -27.4196  -24.3115   16.7913 C   0  0  0  0  0  0  0  0  0  0  0  0
  -26.2719  -24.5976   17.5236 C   0  0  0  0  0  0  0  0  0  0  0  0
  -26.8093  -13.4294   20.7500 C   0  0  0  0  0  0  0  0  0  0  0  0
  -24.4471  -13.8516   20.4694 C   0  0  0  0  0  0  0  0  0  0  0  0
  -28.6623  -24.7522   17.2445 C   0  0  0  0  0  0  0  0  0  0  0  0
  -26.3664  -25.3237   18.7104 C   0  0  0  0  0  0  0  0  0  0  0  0
  -22.8276  -28.9283   19.0695 C   0  0  0  0  0  0  0  0  0  0  0  0
  -26.5184  -12.2157   21.3728 C   0  0  0  0  0  0  0  0  0  0  0  0
  -24.1562  -12.6378   21.0921 C   0  0  0  0  0  0  0  0  0  0  0  0
  -21.5419  -28.5249   19.4271 C   0  0  0  0  0  0  0  0  0  0  0  0
  -22.7995   -9.4827   22.2847 C   0  0  0  0  0  0  0  0  0  0  0  0
  -21.8299   -8.6686   21.6993 C   0  0  0  0  0  0  0  0  0  0  0  0
  -21.9597  -29.2265   21.6970 C   0  0  0  0  0  0  0  0  0  0  0  0
  -20.1200  -21.8339   21.6703 C   0  0  0  0  0  0  0  0  0  0  0  0
  -22.5211  -22.8710   22.6408 C   0  0  0  0  0  0  0  0  0  0  0  0
  -23.1524   -8.5446   19.6812 C   0  0  0  0  0  0  0  0  0  0  0  0
  -25.7737  -14.2474   20.2984 C   0  0  0  0  0  0  0  0  0  0  0  0
  -26.2766  -15.7249   18.2805 C   0  0  0  0  0  0  0  0  0  0  0  0
  -28.7709  -25.4924   18.4324 C   0  0  0  0  0  0  0  0  0  0  0  0
  -23.6943  -29.4747   20.0269 C   0  0  0  0  0  0  0  0  0  0  0  0
  -27.6119  -25.7735   19.1806 C   0  0  0  0  0  0  0  0  0  0  0  0
  -23.2550  -29.6384   21.3484 C   0  0  0  0  0  0  0  0  0  0  0  0
  -20.1052  -22.8523   22.6232 C   0  0  0  0  0  0  0  0  0  0  0  0
  -22.5359  -21.8525   21.6879 C   0  0  0  0  0  0  0  0  0  0  0  0
  -25.1919  -11.8199   21.5438 C   0  0  0  0  0  0  0  0  0  0  0  0
  -21.1087  -28.6713   20.7416 C   0  0  0  0  0  0  0  0  0  0  0  0
  -23.9455   -9.8278   21.5683 C   0  0  0  0  0  0  0  0  0  0  0  0
  -22.0063   -8.1995   20.3976 C   0  0  0  0  0  0  0  0  0  0  0  0
  -21.3354  -21.3339   21.2026 C   0  0  0  0  0  0  0  0  0  0  0  0
  -21.3057  -23.3709   23.1085 C   0  0  0  0  0  0  0  0  0  0  0  0
  -24.1220   -9.3587   20.2666 C   0  0  0  0  0  0  0  0  0  0  0  0
  -26.0735  -15.5016   19.6555 C   0  0  0  0  0  0  0  0  0  0  0  0
  -26.5279  -17.0718   18.1848 C   0  0  0  0  0  0  0  0  0  0  0  0
  -18.5178  -25.8642   23.6755 C   0  0  0  0  0  0  0  0  0  0  0  0
  -26.2412  -14.7977   17.1874 C   0  0  0  0  0  0  0  0  0  0  0  0
  -26.5143  -28.6422   21.2346 C   0  0  0  0  0  0  0  0  0  0  0  0
  -26.2914  -31.5192   22.7163 C   0  0  0  0  0  0  0  0  0  0  0  0
  -24.2967  -34.0315   23.8808 C   0  0  0  0  0  0  0  0  0  0  0  0
  -25.0513  -21.7521   21.5935 C   0  0  0  0  0  0  0  0  0  0  0  0
  -30.1413  -25.9067   18.9068 C   0  0  0  0  0  0  0  0  0  0  0  0
  -25.0689  -29.9296   19.6193 C   0  0  0  0  0  0  0  0  0  0  0  0
  -24.1397  -30.2381   22.4096 C   0  0  0  0  0  0  0  0  0  0  0  0
  -30.1121  -26.9923   19.9796 C   0  0  0  0  0  0  0  0  0  0  0  0
  -28.3397  -20.7303   20.6882 C   0  0  0  0  0  0  0  0  0  0  0  0
  -29.0827  -26.6542   21.0533 C   0  0  0  0  0  0  0  0  0  0  0  0
  -28.1493  -19.2959   20.1898 C   0  0  0  0  0  0  0  0  0  0  0  0
  -27.4191  -21.0487   21.8650 C   0  0  0  0  0  0  0  0  0  0  0  0
  -18.7577  -25.5207   21.6163 C   0  0  0  0  0  0  0  0  0  0  0  0
  -25.8056  -19.3363   21.1345 C   0  0  0  0  0  0  0  0  0  0  0  0
  -27.6707  -26.5798   20.4599 C   0  0  1  0  0  0  0  0  0  0  0  0
  -18.5422  -26.8113   22.4524 C   0  0  2  0  0  0  0  0  0  0  0  0
  -26.0466  -29.9986   20.7883 C   0  0  1  0  0  0  0  0  0  0  0  0
  -26.6653  -18.9895   19.9080 C   0  0  2  0  0  0  0  0  0  0  0  0
  -24.3999  -36.2340   25.0791 C   0  0  0  0  0  0  0  0  0  0  0  0
  -26.7835  -30.0602   25.3505 C   0  0  0  0  0  0  0  0  0  0  0  0
  -25.9440  -32.0903   26.5514 C   0  0  0  0  0  0  0  0  0  0  0  0
  -27.9855  -32.2418   25.1259 C   0  0  0  0  0  0  0  0  0  0  0  0
  -23.0879  -35.4655   21.5914 C   0  0  0  0  0  0  0  0  0  0  0  0
  -18.7953  -23.3886   23.1239 C   0  0  0  0  0  0  0  0  0  0  0  0
  -19.6672  -27.8280   22.4348 C   0  0  0  0  0  0  0  0  0  1  0  0
  -25.7210  -32.0056   24.0267 C   0  0  1  0  0  0  0  0  0  0  0  0
  -24.3821  -35.5393   23.7264 C   0  0  2  0  0  0  0  0  0  0  0  0
  -26.5923  -31.5864   25.2443 C   0  0  0  0  0  0  0  0  0  0  0  0
  -26.1862  -16.6172   20.3812 N   0  0  0  0  0  0  0  0  0  0  0  0
  -26.4629  -17.5545   19.4587 N   0  0  0  0  0  0  0  0  0  0  0  0
  -18.6575  -24.7894   22.8682 N   0  0  0  0  0  0  0  0  0  0  0  0
  -25.4771  -30.6618   21.9631 N   0  0  0  0  0  0  0  0  0  0  0  0
  -26.0293  -20.7375   21.5237 N   0  0  0  0  0  0  0  0  0  0  0  0
  -26.7960  -17.8784   17.1361 N   0  0  0  0  0  0  0  0  0  0  0  0
  -25.9686  -13.4507   17.4625 N   0  0  0  0  0  0  0  0  0  0  0  0
  -23.7720  -21.3468   21.2145 N   0  0  0  0  0  0  0  0  0  0  0  0
  -27.1420  -27.9098   20.2452 N   0  0  0  0  0  0  0  0  0  0  0  0
  -25.5455  -33.4470   23.8855 N   0  0  0  0  0  0  0  0  0  0  0  0
  -23.2146  -36.0477   22.9523 N   0  3  0  0  0  0  0  0  0  0  0  0
  -18.4243  -25.9881   24.8750 O   0  0  0  0  0  0  0  0  0  0  0  0
  -26.4616  -15.1502   16.0039 O   0  0  0  0  0  0  0  0  0  0  0  0
  -26.3213  -28.2870   22.3915 O   0  0  0  0  0  0  0  0  0  0  0  0
  -27.4151  -31.8923   22.3703 O   0  0  0  0  0  0  0  0  0  0  0  0
  -23.2290  -33.4326   23.9904 O   0  0  0  0  0  0  0  0  0  0  0  0
  -25.3336  -22.9031   21.9362 O   0  0  0  0  0  0  0  0  0  0  0  0
  -24.9076  -10.6355   22.1512 O   0  0  0  0  0  0  0  0  0  0  0  0
  -19.8544  -28.2779   21.0935 O   0  0  0  0  0  0  0  0  0  1  0  0
  -21.0758   -7.4165   19.8361 F   0  0  0  0  0  0  0  0  0  0  0  0
  -21.3378  -20.3548   20.2866 F   0  0  0  0  0  0  0  0  0  0  0  0
  -21.3014  -24.3494   24.0243 F   0  0  0  0  0  0  0  0  0  0  0  0
  -25.2215   -9.6859   19.5739 F   0  0  0  0  0  0  0  0  0  0  0  0
  1  2  1  0  0  0  0
  1  5  2  0  0  0  0
  2  6  2  0  0  0  0
  3  8  2  0  0  0  0
  3 17  1  0  0  0  0
  4  9  1  0  0  0  0
  4 17  2  0  0  0  0
  5 19  1  0  0  0  0
  6 21  1  0  0  0  0
  7 10  2  0  0  0  0
  7 20  1  0  0  0  0
  8 25  1  0  0  0  0
  9 25  2  0  0  0  0
 10 26  1  0  0  0  0
 11 12  2  0  0  0  0
 11 27  1  0  0  0  0
 12 28  1  0  0  0  0
 13 22  1  0  0  0  0
 13 26  2  0  0  0  0
 14 23  1  0  0  0  0
 14 29  2  0  0  0  0
 15 24  2  0  0  0  0
 15 30  1  0  0  0  0
 16 28  2  0  0  0  0
 16 31  1  0  0  0  0
 17 32  1  0  0  0  0
 18 32  1  0  0  0  0
 18 33  2  0  0  0  0
 18 35  1  0  0  0  0
 19 21  2  0  0  0  0
 19 40  1  0  0  0  0
 20 22  2  0  0  0  0
 20 41  1  0  0  0  0
 21 50  1  0  0  0  0
 22 42  1  0  0  0  0
 23 30  2  0  0  0  0
 23 59  1  0  0  0  0
 24 29  1  0  0  0  0
 24 71  1  0  0  0  0
 25 81  1  0  0  0  0
 26 82  1  0  0  0  0
 27 31  2  0  0  0  0
 27 81  1  0  0  0  0
 28 83  1  0  0  0  0
 29 84  1  0  0  0  0
 30 85  1  0  0  0  0
 31 86  1  0  0  0  0
 32 64  2  0  0  0  0
 33 65  1  0  0  0  0
 33 69  1  0  0  0  0
 34 51  1  0  0  0  0
 34 66  1  0  0  0  0
 34 75  2  0  0  0  0
 35 70  1  0  0  0  0
 35 76  2  0  0  0  0
 36 52  1  0  0  0  0
 36 72  1  0  0  0  0
 36 77  2  0  0  0  0
 37 61  1  0  0  0  0
 37 67  1  0  0  0  0
 37 78  2  0  0  0  0
 38 62  1  0  0  0  0
 38 73  1  0  0  0  0
 38 79  2  0  0  0  0
 39 68  1  0  0  0  0
 39 71  1  0  0  0  0
 39 80  2  0  0  0  0
 40 43  1  0  0  0  0
 41 52  1  0  0  0  0
 42 67  1  0  0  0  0
 43 45  1  0  0  0  0
 44 46  1  0  0  0  0
 44 47  1  0  0  0  0
 45 50  1  0  0  0  0
 46 53  1  0  0  0  0
 47 68  1  0  0  0  0
 48 51  1  0  0  0  0
 48 66  1  0  0  0  0
 49 53  1  0  0  0  0
 49 68  1  0  0  0  0
 50 72  1  0  0  0  0
 51 60  1  0  0  0  0
 52 67  1  0  0  0  0
 53 65  1  0  0  0  0
 54 62  1  0  0  0  0
 55 63  1  0  0  0  0
 56 63  1  0  0  0  0
 57 63  1  0  0  0  0
 58 74  1  0  0  0  0
 59 66  1  0  0  0  0
 60 82  1  0  0  0  0
 61 63  1  0  0  0  0
 61 73  1  0  0  0  0
 62 74  1  0  0  0  0
 64 65  1  0  0  0  0
M  CHG  1  74   1
M  ISO  4  39 100  60 101  71 100  82 101
M  END
> <Batch ID>
0018

> <Smiles>
CNC(C)C(=O)NC(C(=O)N1Cc2cc([101O:1][101CH2:1]C3CN(Cc4cc(F)c([100NH:0][100C:0](=O)N5CCCC(n6nc(-c7ccc(Oc8ccc(F)cc8F)cc7)c(C(N)=O)c6N)C5)cc4F)C3=O)ccc2CC1C(=O)NC1CCCc2ccccc21)C(C)(C)C

> <Shape>
0.299

> <Color>
0.088

> <Negative vol penalty>
0.000

$$$$

  -OEChem-04042321033D

 84 92  0     1  0  0  0  0  0999 V2000
  -16.5296  -25.4980   21.1017 C   0  0  0  0  0  0  0  0  0  0  0  0
  -17.6996  -24.7716   20.9048 C   0  0  0  0  0  0  0  0  0  0  0  0
  -23.1002   -9.8265   19.9784 C   0  0  0  0  0  0  0  0  0  0  0  0
  -23.9528   -9.8736   22.2384 C   0  0  0  0  0  0  0  0  0  0  0  0
  -16.5576  -26.8908   21.0464 C   0  0  0  0  0  0  0  0  0  0  0  0
  -18.8982  -25.4376   20.6515 C   0  0  0  0  0  0  0  0  0  0  0  0
  -24.4998  -23.7555   22.4675 C   0  0  0  0  0  0  0  0  0  0  0  0
  -29.9058  -18.4599   20.4578 C   0  0  0  0  0  0  0  0  0  0  0  0
  -28.7987  -18.5077   22.6047 C   0  0  0  0  0  0  0  0  0  0  0  0
  -30.1155  -19.8367   20.5353 C   0  0  0  0  0  0  0  0  0  0  0  0
  -29.0085  -19.8845   22.6823 C   0  0  0  0  0  0  0  0  0  0  0  0
  -22.4016   -8.6541   20.2663 C   0  0  0  0  0  0  0  0  0  0  0  0
  -23.2542   -8.7011   22.5264 C   0  0  0  0  0  0  0  0  0  0  0  0
  -25.5346  -23.0844   21.8173 C   0  0  0  0  0  0  0  0  0  0  0  0
  -20.0785   -7.8137   23.2665 C   0  0  0  0  0  0  0  0  0  0  0  0
  -19.3716   -7.7607   24.4677 C   0  0  0  0  0  0  0  0  0  0  0  0
  -26.5489  -25.2010   21.2599 C   0  0  0  0  0  0  0  0  0  0  0  0
  -20.6990   -5.8663   25.1652 C   0  0  0  0  0  0  0  0  0  0  0  0
  -23.8758  -10.4363   20.9644 C   0  0  0  0  0  0  0  0  0  0  0  0
  -24.1374  -12.9694   20.8139 C   0  0  0  0  0  0  0  0  0  0  0  0
  -17.7589  -27.5747   20.8019 C   0  0  0  0  0  0  0  0  0  0  0  0
  -24.4761  -25.1570   22.5094 C   0  0  0  0  0  0  0  0  0  0  0  0
  -18.9420  -26.8409   20.5916 C   0  0  0  0  0  0  0  0  0  0  0  0
  -25.5141  -25.8874   21.9135 C   0  0  0  0  0  0  0  0  0  0  0  0
  -29.2473  -17.7954   21.4925 C   0  0  0  0  0  0  0  0  0  0  0  0
  -29.6669  -20.5490   21.6476 C   0  0  0  0  0  0  0  0  0  0  0  0
  -22.4786   -8.0914   21.5403 C   0  0  0  0  0  0  0  0  0  0  0  0
  -26.5578  -23.8072   21.2109 C   0  0  0  0  0  0  0  0  0  0  0  0
  -21.0956   -6.8929   23.0145 C   0  0  0  0  0  0  0  0  0  0  0  0
  -19.6819   -6.7870   25.4171 C   0  0  0  0  0  0  0  0  0  0  0  0
  -21.4058   -5.9193   23.9638 C   0  0  0  0  0  0  0  0  0  0  0  0
  -24.5980  -11.6472   20.6675 C   0  0  0  0  0  0  0  0  0  0  0  0
  -25.1911  -13.7478   20.4011 C   0  0  0  0  0  0  0  0  0  0  0  0
  -22.8705  -13.4510   21.2813 C   0  0  0  0  0  0  0  0  0  0  0  0
  -22.4951  -27.3999   21.4376 C   0  0  0  0  0  0  0  0  0  0  0  0
  -24.4754  -29.3806   23.0741 C   0  0  0  0  0  0  0  0  0  0  0  0
  -27.5703  -29.9348   24.4010 C   0  0  0  0  0  0  0  0  0  0  0  0
  -30.7941  -14.6295   20.7832 C   0  0  0  0  0  0  0  0  0  0  0  0
  -17.7308  -29.0795   20.7045 C   0  0  0  0  0  0  0  0  0  0  0  0
  -23.3669  -25.8652   23.2378 C   0  0  0  0  0  0  0  0  0  0  0  0
  -25.5457  -27.3928   21.9478 C   0  0  0  0  0  0  0  0  0  0  0  0
  -19.1119  -29.7221   20.8028 C   0  0  0  0  0  0  0  0  0  0  0  0
  -29.4811  -12.5263   18.0347 C   0  0  0  0  0  0  0  0  0  0  0  0
  -20.1061  -28.9906   19.9065 C   0  0  0  0  0  0  0  0  0  0  0  0
  -28.0816  -12.1660   18.5304 C   0  0  0  0  0  0  0  0  0  0  0  0
  -30.4451  -12.7767   19.1904 C   0  0  0  0  0  0  0  0  0  0  0  0
  -28.5681  -13.4368   20.6585 C   0  0  0  0  0  0  0  0  0  0  0  0
  -20.2664  -27.5282   20.3389 C   0  0  1  0  0  0  0  0  0  0  0  0
  -23.1729  -27.3060   22.7753 C   0  0  1  0  0  0  0  0  0  0  0  0
  -27.5605  -13.2238   19.5188 C   0  0  2  0  0  0  0  0  0  0  0  0
  -28.8995  -31.6612   25.6460 C   0  0  0  0  0  0  0  0  0  0  0  0
  -31.3299  -23.4027   20.4739 C   0  0  0  0  0  0  0  0  0  0  0  0
  -24.7772  -30.9978   20.5043 C   0  0  0  0  0  0  0  0  0  0  0  0
  -26.7891  -32.0944   21.5132 C   0  0  0  0  0  0  0  0  0  0  0  0
  -24.5522  -32.3722   22.5816 C   0  0  0  0  0  0  0  0  0  0  0  0
  -30.0415  -22.5792   23.0253 C   0  0  0  0  0  0  0  0  0  0  0  0
  -31.0335  -16.0191   22.8059 C   0  0  0  0  0  0  0  0  0  0  0  0
  -27.9907  -28.1205   26.7011 C   0  0  0  0  0  0  0  0  0  0  0  0
  -29.0222  -16.3234   21.4103 C   0  0  0  0  0  0  0  0  0  0  0  0
  -28.8443  -23.7941   20.5569 C   0  0  0  0  0  0  0  0  0  1  0  0
  -25.7354  -30.1439   22.7446 C   0  0  1  0  0  0  0  0  0  0  0  0
  -28.0060  -30.4365   25.7659 C   0  0  2  0  0  0  0  0  0  0  0  0
  -29.9563  -22.7475   20.5327 C   0  0  2  0  0  0  0  0  0  0  0  0
  -25.4622  -31.3738   21.8334 C   0  0  0  0  0  0  0  0  0  0  0  0
  -25.8470  -11.5853   20.1981 N   0  0  0  0  0  0  0  0  0  0  0  0
  -26.1801  -12.8783   20.0460 N   0  0  0  0  0  0  0  0  0  0  0  0
  -24.4356  -28.0396   22.6667 N   0  0  0  0  0  0  0  0  0  0  0  0
  -29.9062  -13.7537   20.1371 N   0  0  0  0  0  0  0  0  0  0  0  0
  -25.3588  -15.0842   20.3107 N   0  0  0  0  0  0  0  0  0  0  0  0
  -21.9006  -12.5152   21.6659 N   0  0  0  0  0  0  0  0  0  0  0  0
  -21.1156  -27.4368   21.5073 N   0  0  0  0  0  0  0  0  0  0  0  0
  -26.3589  -30.4732   24.0217 N   0  0  0  0  0  0  0  0  0  0  0  0
  -29.8787  -21.9296   21.7266 N   0  0  3  0  0  0  0  0  0  0  0  0
  -30.2394  -15.5595   21.6753 N   0  0  0  0  0  0  0  0  0  0  0  0
  -28.7588  -29.3748   26.4920 N   0  3  0  0  0  0  0  0  0  0  0  0
  -22.6004  -14.6745   21.3403 O   0  0  0  0  0  0  0  0  0  0  0  0
  -23.1736  -27.4377   20.4179 O   0  0  0  0  0  0  0  0  0  0  0  0
  -23.5630  -29.9510   23.6772 O   0  0  0  0  0  0  0  0  0  0  0  0
  -28.2396  -29.1472   23.7360 O   0  0  0  0  0  0  0  0  0  0  0  0
  -32.0122  -14.5890   20.5673 O   0  0  0  0  0  0  0  0  0  0  0  0
  -21.7969   -6.9474   21.8217 O   0  0  0  0  0  0  0  0  0  0  0  0
  -27.5686  -23.1547   20.5750 O   0  0  0  0  0  0  0  0  0  1  0  0
  -19.0040   -6.7372   26.5713 F   0  0  0  0  0  0  0  0  0  0  0  0
  -22.3827   -5.0328   23.7279 F   0  0  0  0  0  0  0  0  0  0  0  0
  1  2  1  0  0  0  0
  1  5  2  0  0  0  0
  2  6  2  0  0  0  0
  3 12  2  0  0  0  0
  3 19  1  0  0  0  0
  4 13  1  0  0  0  0
  4 19  2  0  0  0  0
  5 21  1  0  0  0  0
  6 23  1  0  0  0  0
  7 14  2  0  0  0  0
  7 22  1  0  0  0  0
  8 10  2  0  0  0  0
  8 25  1  0  0  0  0
  9 11  1  0  0  0  0
  9 25  2  0  0  0  0
 10 26  1  0  0  0  0
 11 26  2  0  0  0  0
 12 27  1  0  0  0  0
 13 27  2  0  0  0  0
 14 28  1  0  0  0  0
 15 16  2  0  0  0  0
 15 29  1  0  0  0  0
 16 30  1  0  0  0  0
 17 24  1  0  0  0  0
 17 28  2  0  0  0  0
 18 30  2  0  0  0  0
 18 31  1  0  0  0  0
 19 32  1  0  0  0  0
 20 32  1  0  0  0  0
 20 33  2  0  0  0  0
 20 34  1  0  0  0  0
 21 23  2  0  0  0  0
 21 39  1  0  0  0  0
 22 24  2  0  0  0  0
 22 40  1  0  0  0  0
 23 48  1  0  0  0  0
 24 41  1  0  0  0  0
 25 59  1  0  0  0  0
 26 73  1  0  0  0  0
 27 81  1  0  0  0  0
 28 82  1  0  0  0  0
 29 31  2  0  0  0  0
 29 81  1  0  0  0  0
 30 83  1  0  0  0  0
 31 84  1  0  0  0  0
 32 65  2  0  0  0  0
 33 66  1  0  0  0  0
 33 69  1  0  0  0  0
 34 70  1  0  0  0  0
 34 76  2  0  0  0  0
 35 49  1  0  0  0  0
 35 71  1  0  0  0  0
 35 77  2  0  0  0  0
 36 61  1  0  0  0  0
 36 67  1  0  0  0  0
 36 78  2  0  0  0  0
 37 62  1  0  0  0  0
 37 72  1  0  0  0  0
 37 79  2  0  0  0  0
 38 68  1  0  0  0  0
 38 74  1  0  0  0  0
 38 80  2  0  0  0  0
 39 42  1  0  0  0  0
 40 49  1  0  0  0  0
 41 67  1  0  0  0  0
 42 44  1  0  0  0  0
 43 45  1  0  0  0  0
 43 46  1  0  0  0  0
 44 48  1  0  0  0  0
 45 50  1  0  0  0  0
 46 68  1  0  0  0  0
 47 50  1  0  0  0  0
 47 68  1  0  0  0  0
 48 71  1  0  0  0  0
 49 67  1  0  0  0  0
 50 66  1  0  0  0  0
 51 62  1  0  0  0  0
 52 63  1  0  0  0  0
 53 64  1  0  0  0  0
 54 64  1  0  0  0  0
 55 64  1  0  0  0  0
 56 73  1  0  0  0  0
 57 74  1  0  0  0  0
 58 75  1  0  0  0  0
 59 74  1  0  0  0  0
 60 63  1  0  0  0  0
 60 82  1  0  0  0  0
 61 64  1  0  0  0  0
 61 72  1  0  0  0  0
 62 75  1  0  0  0  0
 63 73  1  0  0  0  0
 65 66  1  0  0  0  0
M  CHG  1  75   1
M  ISO  4  38 100  60 101  74 100  82 101
M  END
> <Batch ID>
0018

> <Smiles>
CNC(C)C(=O)NC(C(=O)N1Cc2cc([101O:1][101CH2:1]C(C)N(C)c3ccc(C[100N:0](C)[100C:0](=O)N4CCCC(n5nc(-c6ccc(Oc7ccc(F)cc7F)cc6)c(C(N)=O)c5N)C4)cc3)ccc2CC1C(=O)NC1CCCc2ccccc21)C(C)(C)C

> <Shape>
0.331

> <Color>
0.201

> <Negative vol penalty>
0.000

$$$$

  -OEChem-04042321033D

 82 90  0     1  0  0  0  0  0999 V2000
  -24.5775  -25.9682   36.9384 C   0  0  0  0  0  0  0  0  0  0  0  0
  -25.5147  -25.5869   35.9837 C   0  0  0  0  0  0  0  0  0  0  0  0
  -23.0742   -9.8686   19.9404 C   0  0  0  0  0  0  0  0  0  0  0  0
  -23.8338   -9.8748   22.2338 C   0  0  0  0  0  0  0  0  0  0  0  0
  -23.8030  -25.0014   37.5783 C   0  0  0  0  0  0  0  0  0  0  0  0
  -25.6788  -24.2384   35.6690 C   0  0  0  0  0  0  0  0  0  0  0  0
  -27.0489  -21.8777   30.1866 C   0  0  0  0  0  0  0  0  0  0  0  0
  -29.8813  -17.4535   23.1395 C   0  0  0  0  0  0  0  0  0  0  0  0
  -32.0652  -16.6033   22.5523 C   0  0  0  0  0  0  0  0  0  0  0  0
  -30.4686  -18.3363   24.0458 C   0  0  0  0  0  0  0  0  0  0  0  0
  -32.6526  -17.4861   23.4585 C   0  0  0  0  0  0  0  0  0  0  0  0
  -22.3295   -8.7159   20.1901 C   0  0  0  0  0  0  0  0  0  0  0  0
  -23.0891   -8.7221   22.4836 C   0  0  0  0  0  0  0  0  0  0  0  0
  -28.2493  -21.4443   29.6254 C   0  0  0  0  0  0  0  0  0  0  0  0
  -19.8603   -7.9263   23.0857 C   0  0  0  0  0  0  0  0  0  0  0  0
  -19.1032   -7.8867   24.2564 C   0  0  0  0  0  0  0  0  0  0  0  0
  -27.7247  -19.1790   30.2674 C   0  0  0  0  0  0  0  0  0  0  0  0
  -20.3433   -5.9484   24.9928 C   0  0  0  0  0  0  0  0  0  0  0  0
  -23.8264  -10.4480   20.9622 C   0  0  0  0  0  0  0  0  0  0  0  0
  -24.1698  -12.9730   20.8425 C   0  0  0  0  0  0  0  0  0  0  0  0
  -23.9509  -23.6411   37.2643 C   0  0  0  0  0  0  0  0  0  0  0  0
  -26.1810  -20.9650   30.8032 C   0  0  0  0  0  0  0  0  0  0  0  0
  -24.9066  -23.2524   36.3062 C   0  0  0  0  0  0  0  0  0  0  0  0
  -26.5127  -19.6029   30.8335 C   0  0  0  0  0  0  0  0  0  0  0  0
  -30.6796  -16.5869   22.3928 C   0  0  0  0  0  0  0  0  0  0  0  0
  -31.8542  -18.3526   24.2053 C   0  0  0  0  0  0  0  0  0  0  0  0
  -22.3369   -8.1426   21.4617 C   0  0  0  0  0  0  0  0  0  0  0  0
  -28.5887  -20.0952   29.6683 C   0  0  0  0  0  0  0  0  0  0  0  0
  -20.8589   -6.9769   22.8684 C   0  0  0  0  0  0  0  0  0  0  0  0
  -19.3447   -6.8978   25.2101 C   0  0  0  0  0  0  0  0  0  0  0  0
  -21.1004   -5.9880   23.8220 C   0  0  0  0  0  0  0  0  0  0  0  0
  -24.5962  -11.6384   20.7047 C   0  0  0  0  0  0  0  0  0  0  0  0
  -25.2625  -13.7218   20.4795 C   0  0  0  0  0  0  0  0  0  0  0  0
  -22.8997  -13.4896   21.2614 C   0  0  0  0  0  0  0  0  0  0  0  0
  -25.0412  -20.5908   33.7467 C   0  0  0  0  0  0  0  0  0  0  0  0
  -23.2609  -18.2707   32.3432 C   0  0  0  0  0  0  0  0  0  0  0  0
  -22.8988  -16.0502   29.7771 C   0  0  0  0  0  0  0  0  0  0  0  0
  -30.7294  -14.7638   20.6550 C   0  0  0  0  0  0  0  0  0  0  0  0
  -23.1244  -22.6284   38.0165 C   0  0  0  0  0  0  0  0  0  0  0  0
  -24.8774  -21.4445   31.3802 C   0  0  0  0  0  0  0  0  0  0  0  0
  -25.6060  -18.5798   31.4657 C   0  0  0  0  0  0  0  0  0  0  0  0
  -23.0967  -21.2528   37.3554 C   0  0  0  0  0  0  0  0  0  0  0  0
  -29.6137  -12.3509   18.2863 C   0  0  0  0  0  0  0  0  0  0  0  0
  -24.5037  -20.8288   36.9462 C   0  0  0  0  0  0  0  0  0  0  0  0
  -28.1738  -12.0603   18.7157 C   0  0  0  0  0  0  0  0  0  0  0  0
  -30.5288  -12.5790   19.4881 C   0  0  0  0  0  0  0  0  0  0  0  0
  -28.6222  -13.3046   20.8692 C   0  0  0  0  0  0  0  0  0  0  0  0
  -25.0964  -21.8016   35.9197 C   0  0  1  0  0  0  0  0  0  0  0  0
  -24.3094  -20.5026   32.4374 C   0  0  1  0  0  0  0  0  0  0  0  0
  -27.6494  -13.1321   19.6912 C   0  0  2  0  0  0  0  0  0  0  0  0
  -21.3598  -14.2622   28.9215 C   0  0  0  0  0  0  0  0  0  0  0  0
  -24.3109  -16.3522   34.4708 C   0  0  0  0  0  0  0  0  0  0  0  0
  -23.5309  -14.4504   33.0413 C   0  0  0  0  0  0  0  0  0  0  0  0
  -21.8810  -16.0919   33.9392 C   0  0  0  0  0  0  0  0  0  0  0  0
  -33.8988  -19.2575   25.2828 C   0  0  0  0  0  0  0  0  0  0  0  0
  -22.3889  -17.5290   27.2647 C   0  0  0  0  0  0  0  0  0  0  0  0
  -31.0777  -19.4702   27.1260 C   0  0  0  0  0  0  0  0  0  0  0  0
  -31.6493  -20.1604   25.8935 C   0  0  0  0  0  0  0  0  0  0  0  0
  -30.2643  -20.4084   28.0099 C   0  0  0  0  0  0  0  0  0  1  0  0
  -23.4431  -16.7954   32.0799 C   0  0  1  0  0  0  0  0  0  0  0  0
  -21.7197  -15.7390   28.8731 C   0  0  2  0  0  0  0  0  0  0  0  0
  -23.3097  -15.9418   33.3725 C   0  0  0  0  0  0  0  0  0  0  0  0
  -25.8611  -11.5418   20.2866 N   0  0  0  0  0  0  0  0  0  0  0  0
  -26.2389  -12.8251   20.1585 N   0  0  0  0  0  0  0  0  0  0  0  0
  -24.3456  -19.0989   32.0218 N   0  0  0  0  0  0  0  0  0  0  0  0
  -29.9704  -13.6101   20.3655 N   0  0  0  0  0  0  0  0  0  0  0  0
  -25.4738  -15.0531   20.4067 N   0  0  0  0  0  0  0  0  0  0  0  0
  -21.8871  -12.5810   21.5984 N   0  0  0  0  0  0  0  0  0  0  0  0
  -30.0825  -15.6891   21.4734 N   0  0  0  0  0  0  0  0  0  0  0  0
  -24.5421  -21.5505   34.6066 N   0  0  0  0  0  0  0  0  0  0  0  0
  -22.4892  -16.4469   31.0325 N   0  0  0  0  0  0  0  0  0  0  0  0
  -32.4443  -19.2409   25.1159 N   0  0  3  0  0  0  0  0  0  0  0  0
  -22.0393  -16.0988   27.4626 N   0  3  0  0  0  0  0  0  0  0  0  0
  -22.6642  -14.7203   21.3188 O   0  0  0  0  0  0  0  0  0  0  0  0
  -25.9876  -19.8425   33.9616 O   0  0  0  0  0  0  0  0  0  0  0  0
  -22.1927  -18.6743   32.8100 O   0  0  0  0  0  0  0  0  0  0  0  0
  -24.0666  -15.9477   29.4078 O   0  0  0  0  0  0  0  0  0  0  0  0
  -31.8586  -14.9318   20.1875 O   0  0  0  0  0  0  0  0  0  0  0  0
  -21.6102   -7.0180   21.7058 O   0  0  0  0  0  0  0  0  0  0  0  0
  -29.7601  -19.6697   29.1219 O   0  0  0  0  0  0  0  0  0  1  0  0
  -18.6186   -6.8609   26.3350 F   0  0  0  0  0  0  0  0  0  0  0  0
  -22.0591   -5.0739   23.6194 F   0  0  0  0  0  0  0  0  0  0  0  0
  1  2  1  0  0  0  0
  1  5  2  0  0  0  0
  2  6  2  0  0  0  0
  3 12  2  0  0  0  0
  3 19  1  0  0  0  0
  4 13  1  0  0  0  0
  4 19  2  0  0  0  0
  5 21  1  0  0  0  0
  6 23  1  0  0  0  0
  7 14  2  0  0  0  0
  7 22  1  0  0  0  0
  8 10  2  0  0  0  0
  8 25  1  0  0  0  0
  9 11  1  0  0  0  0
  9 25  2  0  0  0  0
 10 26  1  0  0  0  0
 11 26  2  0  0  0  0
 12 27  1  0  0  0  0
 13 27  2  0  0  0  0
 14 28  1  0  0  0  0
 15 16  2  0  0  0  0
 15 29  1  0  0  0  0
 16 30  1  0  0  0  0
 17 24  1  0  0  0  0
 17 28  2  0  0  0  0
 18 30  2  0  0  0  0
 18 31  1  0  0  0  0
 19 32  1  0  0  0  0
 20 32  1  0  0  0  0
 20 33  2  0  0  0  0
 20 34  1  0  0  0  0
 21 23  2  0  0  0  0
 21 39  1  0  0  0  0
 22 24  2  0  0  0  0
 22 40  1  0  0  0  0
 23 48  1  0  0  0  0
 24 41  1  0  0  0  0
 25 69  1  0  0  0  0
 26 72  1  0  0  0  0
 27 79  1  0  0  0  0
 28 80  1  0  0  0  0
 29 31  2  0  0  0  0
 29 79  1  0  0  0  0
 30 81  1  0  0  0  0
 31 82  1  0  0  0  0
 32 63  2  0  0  0  0
 33 64  1  0  0  0  0
 33 67  1  0  0  0  0
 34 68  1  0  0  0  0
 34 74  2  0  0  0  0
 35 49  1  0  0  0  0
 35 70  1  0  0  0  0
 35 75  2  0  0  0  0
 36 60  1  0  0  0  0
 36 65  1  0  0  0  0
 36 76  2  0  0  0  0
 37 61  1  0  0  0  0
 37 71  1  0  0  0  0
 37 77  2  0  0  0  0
 38 66  1  0  0  0  0
 38 69  1  0  0  0  0
 38 78  2  0  0  0  0
 39 42  1  0  0  0  0
 40 49  1  0  0  0  0
 41 65  1  0  0  0  0
 42 44  1  0  0  0  0
 43 45  1  0  0  0  0
 43 46  1  0  0  0  0
 44 48  1  0  0  0  0
 45 50  1  0  0  0  0
 46 66  1  0  0  0  0
 47 50  1  0  0  0  0
 47 66  1  0  0  0  0
 48 70  1  0  0  0  0
 49 65  1  0  0  0  0
 50 64  1  0  0  0  0
 51 61  1  0  0  0  0
 52 62  1  0  0  0  0
 53 62  1  0  0  0  0
 54 62  1  0  0  0  0
 55 72  1  0  0  0  0
 56 73  1  0  0  0  0
 57 58  1  0  0  0  0
 57 59  1  0  0  0  0
 58 72  1  0  0  0  0
 59 80  1  0  0  0  0
 60 62  1  0  0  0  0
 60 71  1  0  0  0  0
 61 73  1  0  0  0  0
 63 64  1  0  0  0  0
M  CHG  1  73   1
M  ISO  4  38 100  59 101  69 100  80 101
M  END
> <Batch ID>
0018

> <Smiles>
CNC(C)C(=O)NC(C(=O)N1Cc2cc([101O:1][101CH2:1]CCN(C)c3ccc([100NH:0][100C:0](=O)N4CCCC(n5nc(-c6ccc(Oc7ccc(F)cc7F)cc6)c(C(N)=O)c5N)C4)cc3)ccc2CC1C(=O)NC1CCCc2ccccc21)C(C)(C)C

> <Shape>
0.167

> <Color>
0.200

> <Negative vol penalty>
0.000

$$$$

  -OEChem-04042321033D

 84 92  0     1  0  0  0  0  0999 V2000
  -23.0208  -23.7889   18.4987 C   0  0  0  0  0  0  0  0  0  0  0  0
  -23.9774  -22.7888   18.3659 C   0  0  0  0  0  0  0  0  0  0  0  0
  -26.1996  -26.5234   22.6039 C   0  0  0  0  0  0  0  0  0  0  0  0
  -24.2600  -25.9173   21.2971 C   0  0  0  0  0  0  0  0  0  0  0  0
  -21.9615  -23.6213   19.3881 C   0  0  0  0  0  0  0  0  0  0  0  0
  -23.8685  -21.6158   19.1136 C   0  0  0  0  0  0  0  0  0  0  0  0
  -27.0612  -18.0133   18.0972 C   0  0  0  0  0  0  0  0  0  0  0  0
  -32.8883  -22.6546   20.7848 C   0  0  0  0  0  0  0  0  0  0  0  0
  -32.7126  -23.8280   20.0514 C   0  0  0  0  0  0  0  0  0  0  0  0
  -25.4863  -27.5782   23.1734 C   0  0  0  0  0  0  0  0  0  0  0  0
  -23.5467  -26.9721   21.8666 C   0  0  0  0  0  0  0  0  0  0  0  0
  -28.4105  -18.0830   18.4409 C   0  0  0  0  0  0  0  0  0  0  0  0
  -24.2860  -30.6506   24.7041 C   0  0  0  0  0  0  0  0  0  0  0  0
  -24.9221  -31.8882   24.8008 C   0  0  0  0  0  0  0  0  0  0  0  0
  -28.0133  -16.5753   20.2817 C   0  0  0  0  0  0  0  0  0  0  0  0
  -32.4279  -21.3483   18.8052 C   0  0  0  0  0  0  0  0  0  0  0  0
  -25.1779  -31.9444   22.3990 C   0  0  0  0  0  0  0  0  0  0  0  0
  -25.5864  -25.6930   21.6657 C   0  0  0  0  0  0  0  0  0  0  0  0
  -26.4137  -23.2824   21.5542 C   0  0  0  0  0  0  0  0  0  0  0  0
  -21.8472  -22.4506   20.1558 C   0  0  0  0  0  0  0  0  0  0  0  0
  -26.1741  -17.2315   18.8510 C   0  0  0  0  0  0  0  0  0  0  0  0
  -22.7936  -21.4176   19.9989 C   0  0  0  0  0  0  0  0  0  0  0  0
  -26.6536  -16.4954   19.9439 C   0  0  0  0  0  0  0  0  0  0  0  0
  -32.7461  -21.4148   20.1617 C   0  0  0  0  0  0  0  0  0  0  0  0
  -32.3944  -23.7616   18.6949 C   0  0  0  0  0  0  0  0  0  0  0  0
  -24.1599  -27.8025   22.8047 C   0  0  0  0  0  0  0  0  0  0  0  0
  -28.8862  -17.3662   19.5350 C   0  0  0  0  0  0  0  0  0  0  0  0
  -24.0959  -30.0599   23.4548 C   0  0  0  0  0  0  0  0  0  0  0  0
  -25.3681  -32.5351   23.6483 C   0  0  0  0  0  0  0  0  0  0  0  0
  -32.2521  -22.5217   18.0718 C   0  0  0  0  0  0  0  0  0  0  0  0
  -24.5418  -30.7068   22.3023 C   0  0  0  0  0  0  0  0  0  0  0  0
  -26.3229  -24.6036   21.0767 C   0  0  0  0  0  0  0  0  0  0  0  0
  -27.2235  -22.6442   20.6468 C   0  0  0  0  0  0  0  0  0  0  0  0
  -25.8192  -22.6854   22.7143 C   0  0  0  0  0  0  0  0  0  0  0  0
  -23.5820  -17.8273   20.5917 C   0  0  0  0  0  0  0  0  0  0  0  0
  -23.4446  -14.5922   20.7854 C   0  0  0  0  0  0  0  0  0  0  0  0
  -25.0943  -11.6083   20.6384 C   0  0  0  0  0  0  0  0  0  0  0  0
  -31.3481  -25.0758   16.8324 C   0  0  0  0  0  0  0  0  0  0  0  0
  -20.6763  -22.3181   21.0974 C   0  0  0  0  0  0  0  0  0  0  0  0
  -24.7266  -17.1459   18.4512 C   0  0  0  0  0  0  0  0  0  0  0  0
  -25.7463  -15.6252   20.7734 C   0  0  0  0  0  0  0  0  0  0  0  0
  -20.8874  -21.2460   22.1615 C   0  0  0  0  0  0  0  0  0  0  0  0
  -28.5671  -22.7598   16.0610 C   0  0  0  0  0  0  0  0  0  0  0  0
  -21.3545  -19.9526   21.5108 C   0  0  0  0  0  0  0  0  0  0  0  0
  -27.6436  -22.9251   17.2665 C   0  0  0  0  0  0  0  0  0  0  0  0
  -29.3678  -24.0283   15.7828 C   0  0  0  0  0  0  0  0  0  0  0  0
  -29.2242  -24.6760   18.1705 C   0  0  0  0  0  0  0  0  0  0  0  0
  -22.7125  -20.1461   20.8242 C   0  0  1  0  0  0  0  0  0  0  0  0
  -23.8138  -16.7239   19.5984 C   0  0  1  0  0  0  0  0  0  0  0  0
  -28.4362  -23.3984   18.4961 C   0  0  1  0  0  0  0  0  0  0  0  0
  -24.7222   -9.1379   20.8753 C   0  0  0  0  0  0  0  0  0  0  0  0
  -23.3215  -14.9041   23.8182 C   0  0  0  0  0  0  0  0  0  0  0  0
  -23.9062  -12.4782   24.0215 C   0  0  0  0  0  0  0  0  0  0  0  0
  -21.7920  -13.1587   22.8860 C   0  0  0  0  0  0  0  0  0  0  0  0
  -33.1525  -26.0720   18.1678 C   0  0  0  0  0  0  0  0  0  0  0  0
  -25.9470  -11.0951   17.8512 C   0  0  0  0  0  0  0  0  0  0  0  0
  -30.8865  -20.1761   22.3675 C   0  0  0  0  0  0  0  0  0  0  0  0
  -32.9340  -20.1525   20.9506 C   0  0  0  0  0  0  0  0  0  0  0  0
  -31.8165  -18.0120   21.5591 C   0  0  0  0  0  0  0  0  0  0  0  0
  -30.5277  -17.2747   21.2535 C   0  0  0  0  0  0  0  0  0  1  0  0
  -24.0039  -13.5529   21.7266 C   0  0  1  0  0  0  0  0  0  0  0  0
  -24.7728  -10.3142   19.9128 C   0  0  2  0  0  0  0  0  0  0  0  0
  -23.2729  -13.5413   23.0988 C   0  0  0  0  0  0  0  0  0  0  0  0
  -27.0195  -24.7948   19.9532 N   0  0  0  0  0  0  0  0  0  0  0  0
  -27.5559  -23.5854   19.7173 N   0  0  0  0  0  0  0  0  0  0  0  0
  -24.3381  -15.5794   20.3463 N   0  0  0  0  0  0  0  0  0  0  0  0
  -30.0689  -24.5006   16.9778 N   0  0  0  0  0  0  0  0  0  0  0  0
  -27.6767  -21.3755   20.5613 N   0  0  0  0  0  0  0  0  0  0  0  0
  -25.0150  -23.4840   23.5389 N   0  0  0  0  0  0  0  0  0  0  0  0
  -23.0206  -18.9662   20.0465 N   0  0  0  0  0  0  0  0  0  0  0  0
  -23.9507  -12.2829   21.0106 N   0  0  0  0  0  0  0  0  0  0  0  0
  -32.2127  -24.9767   17.9391 N   0  0  0  0  0  0  0  0  0  0  0  0
  -25.8065  -10.0303   18.8775 N   0  3  0  0  0  0  0  0  0  0  0  0
  -31.6342  -19.4572   21.2720 N   0  3  1  0  0  0  0  0  0  0  0  0
  -26.0091  -21.4837   23.0198 O   0  0  0  0  0  0  0  0  0  0  0  0
  -23.8884  -17.6574   21.7659 O   0  0  0  0  0  0  0  0  0  0  0  0
  -22.2603  -14.5263   20.4465 O   0  0  0  0  0  0  0  0  0  0  0  0
  -26.2448  -11.9814   20.8568 O   0  0  0  0  0  0  0  0  0  0  0  0
  -31.6789  -25.6852   15.8078 O   0  0  0  0  0  0  0  0  0  0  0  0
  -23.4635  -28.8315   23.3604 O   0  0  0  0  0  0  0  0  0  0  0  0
  -30.2027  -17.4329   19.8730 O   0  0  0  0  0  0  0  0  0  1  0  0
  -25.9775  -33.7242   23.7412 F   0  0  0  0  0  0  0  0  0  0  0  0
  -31.9451  -22.4460   16.7689 F   0  0  0  0  0  0  0  0  0  0  0  0
  -24.3610  -30.1448   21.0993 F   0  0  0  0  0  0  0  0  0  0  0  0
  1  2  1  0  0  0  0
  1  5  2  0  0  0  0
  2  6  2  0  0  0  0
  3 10  2  0  0  0  0
  3 18  1  0  0  0  0
  4 11  1  0  0  0  0
  4 18  2  0  0  0  0
  5 20  1  0  0  0  0
  6 22  1  0  0  0  0
  7 12  2  0  0  0  0
  7 21  1  0  0  0  0
  8  9  2  0  0  0  0
  8 24  1  0  0  0  0
  9 25  1  0  0  0  0
 10 26  1  0  0  0  0
 11 26  2  0  0  0  0
 12 27  1  0  0  0  0
 13 14  2  0  0  0  0
 13 28  1  0  0  0  0
 14 29  1  0  0  0  0
 15 23  1  0  0  0  0
 15 27  2  0  0  0  0
 16 24  2  0  0  0  0
 16 30  1  0  0  0  0
 17 29  2  0  0  0  0
 17 31  1  0  0  0  0
 18 32  1  0  0  0  0
 19 32  1  0  0  0  0
 19 33  2  0  0  0  0
 19 34  1  0  0  0  0
 20 22  2  0  0  0  0
 20 39  1  0  0  0  0
 21 23  2  0  0  0  0
 21 40  1  0  0  0  0
 22 48  1  0  0  0  0
 23 41  1  0  0  0  0
 24 58  1  0  0  0  0
 25 30  2  0  0  0  0
 25 72  1  0  0  0  0
 26 80  1  0  0  0  0
 27 81  1  0  0  0  0
 28 31  2  0  0  0  0
 28 80  1  0  0  0  0
 29 82  1  0  0  0  0
 30 83  1  0  0  0  0
 31 84  1  0  0  0  0
 32 64  2  0  0  0  0
 33 65  1  0  0  0  0
 33 68  1  0  0  0  0
 34 69  1  0  0  0  0
 34 75  2  0  0  0  0
 35 49  1  0  0  0  0
 35 70  1  0  0  0  0
 35 76  2  0  0  0  0
 36 61  1  0  0  0  0
 36 66  1  0  0  0  0
 36 77  2  0  0  0  0
 37 62  1  0  0  0  0
 37 71  1  0  0  0  0
 37 78  2  0  0  0  0
 38 67  1  0  0  0  0
 38 72  1  0  0  0  0
 38 79  2  0  0  0  0
 39 42  1  0  0  0  0
 40 49  1  0  0  0  0
 41 66  1  0  0  0  0
 42 44  1  0  0  0  0
 43 45  1  0  0  0  0
 43 46  1  0  0  0  0
 44 48  1  0  0  0  0
 45 50  1  0  0  0  0
 46 67  1  0  0  0  0
 47 50  1  0  0  0  0
 47 67  1  0  0  0  0
 48 70  1  0  0  0  0
 49 66  1  0  0  0  0
 50 65  1  0  0  0  0
 51 62  1  0  0  0  0
 52 63  1  0  0  0  0
 53 63  1  0  0  0  0
 54 63  1  0  0  0  0
 55 72  1  0  0  0  0
 56 73  1  0  0  0  0
 57 74  1  0  0  0  0
 58 74  1  0  0  0  0
 59 60  1  0  0  0  0
 59 74  1  0  0  0  0
 60 81  1  0  0  0  0
 61 63  1  0  0  0  0
 61 71  1  0  0  0  0
 62 73  1  0  0  0  0
 64 65  1  0  0  0  0
M  CHG  2  73   1  74   1
M  ISO  4  38 100  60 101  72 100  81 101
M  END
> <Batch ID>
0018

> <Smiles>
CNC(C)C(=O)NC(C(=O)N1Cc2cc([101O:1][101CH2:1]CN(C)Cc3ccc([100N:0](C)[100C:0](=O)N4CCCC(n5nc(-c6ccc(Oc7ccc(F)cc7F)cc6)c(C(N)=O)c5N)C4)c(F)c3)ccc2CC1C(=O)NC1CCCc2ccccc21)C(C)(C)C

> <Shape>
0.169

> <Color>
0.071

> <Negative vol penalty>
0.000

$$$$

  -OEChem-04042321033D

 84 92  0     1  0  0  0  0  0999 V2000
  -39.7538  -27.6279   21.9119 C   0  0  0  0  0  0  0  0  0  0  0  0
  -38.7482  -27.0748   21.1257 C   0  0  0  0  0  0  0  0  0  0  0  0
  -23.0741   -9.8788   19.9536 C   0  0  0  0  0  0  0  0  0  0  0  0
  -23.7535   -9.9483   22.2711 C   0  0  0  0  0  0  0  0  0  0  0  0
  -41.0141  -27.0328   21.9501 C   0  0  0  0  0  0  0  0  0  0  0  0
  -39.0027  -25.9268   20.3761 C   0  0  0  0  0  0  0  0  0  0  0  0
  -35.2799  -22.5119   20.7283 C   0  0  0  0  0  0  0  0  0  0  0  0
  -29.0317  -18.8543   20.8368 C   0  0  0  0  0  0  0  0  0  0  0  0
  -29.2888  -20.0666   20.1968 C   0  0  0  0  0  0  0  0  0  0  0  0
  -22.3253   -8.7298   20.2076 C   0  0  0  0  0  0  0  0  0  0  0  0
  -23.0047   -8.7993   22.5251 C   0  0  0  0  0  0  0  0  0  0  0  0
  -34.1312  -22.7420   19.9724 C   0  0  0  0  0  0  0  0  0  0  0  0
  -23.3244   -5.4650   22.0651 C   0  0  0  0  0  0  0  0  0  0  0  0
  -23.9174   -4.4611   22.8306 C   0  0  0  0  0  0  0  0  0  0  0  0
  -34.9136  -21.1720   18.3165 C   0  0  0  0  0  0  0  0  0  0  0  0
  -30.3065  -18.8787   18.3555 C   0  0  0  0  0  0  0  0  0  0  0  0
  -22.1570   -4.6726   24.4718 C   0  0  0  0  0  0  0  0  0  0  0  0
  -23.7883  -10.4881   20.9854 C   0  0  0  0  0  0  0  0  0  0  0  0
  -24.1268  -13.0106   20.8114 C   0  0  0  0  0  0  0  0  0  0  0  0
  -41.2813  -25.8715   21.2081 C   0  0  0  0  0  0  0  0  0  0  0  0
  -36.2609  -21.6167   20.2778 C   0  0  0  0  0  0  0  0  0  0  0  0
  -40.2681  -25.3164   20.4033 C   0  0  0  0  0  0  0  0  0  0  0  0
  -36.0726  -20.9303   19.0697 C   0  0  0  0  0  0  0  0  0  0  0  0
  -29.4121  -17.6541   20.2363 C   0  0  0  0  0  0  0  0  0  0  0  0
  -30.0495  -17.6663   18.9956 C   0  0  0  0  0  0  0  0  0  0  0  0
  -29.9262  -20.0788   18.9561 C   0  0  0  0  0  0  0  0  0  0  0  0
  -22.2905   -8.1900   21.4933 C   0  0  0  0  0  0  0  0  0  0  0  0
  -33.9493  -22.0742   18.7649 C   0  0  0  0  0  0  0  0  0  0  0  0
  -22.1477   -6.0728   22.5030 C   0  0  0  0  0  0  0  0  0  0  0  0
  -23.3338   -4.0648   24.0339 C   0  0  0  0  0  0  0  0  0  0  0  0
  -21.5640   -5.6766   23.7063 C   0  0  0  0  0  0  0  0  0  0  0  0
  -24.5625  -11.6748   20.7235 C   0  0  0  0  0  0  0  0  0  0  0  0
  -25.2288  -13.7545   20.4669 C   0  0  0  0  0  0  0  0  0  0  0  0
  -22.8410  -13.5323   21.1723 C   0  0  0  0  0  0  0  0  0  0  0  0
  -39.3266  -21.8659   19.4758 C   0  0  0  0  0  0  0  0  0  0  0  0
  -39.1275  -18.6361   19.2502 C   0  0  0  0  0  0  0  0  0  0  0  0
  -37.1706  -15.8797   18.7815 C   0  0  0  0  0  0  0  0  0  0  0  0
  -30.8078  -14.5043   21.2607 C   0  0  0  0  0  0  0  0  0  0  0  0
  -42.6729  -25.2911   21.2443 C   0  0  0  0  0  0  0  0  0  0  0  0
  -37.4818  -21.3595   21.1178 C   0  0  0  0  0  0  0  0  0  0  0  0
  -37.0863  -19.9441   18.5517 C   0  0  0  0  0  0  0  0  0  0  0  0
  -42.7509  -23.8622   20.7128 C   0  0  0  0  0  0  0  0  0  0  0  0
  -29.6526  -12.3818   18.4568 C   0  0  0  0  0  0  0  0  0  0  0  0
  -41.9853  -23.7387   19.3993 C   0  0  0  0  0  0  0  0  0  0  0  0
  -28.2106  -12.0659   18.8502 C   0  0  0  0  0  0  0  0  0  0  0  0
  -30.5323  -12.6304   19.6782 C   0  0  0  0  0  0  0  0  0  0  0  0
  -28.5672  -13.3650   20.9870 C   0  0  0  0  0  0  0  0  0  0  0  0
  -40.4982  -24.0577   19.5954 C   0  0  1  0  0  0  0  0  0  0  0  0
  -38.6567  -20.8130   20.3126 C   0  0  1  0  0  0  0  0  0  0  0  0
  -27.6438  -13.1550   19.7775 C   0  0  2  0  0  0  0  0  0  0  0  0
  -30.4672  -16.3941   18.3341 C   0  0  0  0  0  0  0  0  0  0  0  0
  -37.2981  -13.3793   18.6106 C   0  0  0  0  0  0  0  0  0  0  0  0
  -40.2548  -18.8890   16.4261 C   0  0  0  0  0  0  0  0  0  0  0  0
  -39.4781  -16.5508   15.9816 C   0  0  0  0  0  0  0  0  0  0  0  0
  -41.1814  -16.9820   17.7523 C   0  0  0  0  0  0  0  0  0  0  0  0
  -29.7842  -22.5567   18.9412 C   0  0  0  0  0  0  0  0  0  0  0  0
  -31.1836  -16.7288   22.2557 C   0  0  0  0  0  0  0  0  0  0  0  0
  -35.4127  -15.5132   21.1340 C   0  0  0  0  0  0  0  0  0  0  0  0
  -29.1272  -16.3688   20.9414 C   0  0  0  0  0  0  0  0  0  0  0  0
  -30.8538  -21.3457   17.0339 C   0  0  0  0  0  0  0  0  0  0  0  0
  -32.3564  -21.2178   17.2205 C   0  0  0  0  0  0  0  0  0  1  0  0
  -38.7790  -17.6605   18.1521 C   0  0  1  0  0  0  0  0  0  0  0  0
  -37.0835  -14.5659   19.5371 C   0  0  2  0  0  0  0  0  0  0  0  0
  -39.9049  -17.5406   17.0866 C   0  0  0  0  0  0  0  0  0  0  0  0
  -25.8414  -11.5729   20.3521 N   0  0  0  0  0  0  0  0  0  0  0  0
  -26.2189  -12.8541   20.2035 N   0  0  0  0  0  0  0  0  0  0  0  0
  -38.2663  -19.7314   19.4060 N   0  0  0  0  0  0  0  0  0  0  0  0
  -29.9489  -13.6385   20.5640 N   0  0  0  0  0  0  0  0  0  0  0  0
  -25.4378  -15.0844   20.3665 N   0  0  0  0  0  0  0  0  0  0  0  0
  -21.8206  -12.6284   21.4977 N   0  0  0  0  0  0  0  0  0  0  0  0
  -39.8162  -22.9346   20.2021 N   0  0  0  0  0  0  0  0  0  0  0  0
  -38.4457  -16.4036   18.8134 N   0  0  0  0  0  0  0  0  0  0  0  0
  -30.1834  -21.2970   18.3130 N   0  0  3  0  0  0  0  0  0  0  0  0
  -30.3258  -15.7909   21.5453 N   0  0  0  0  0  0  0  0  0  0  0  0
  -35.7458  -14.4252   20.1788 N   0  3  0  0  0  0  0  0  0  0  0  0
  -22.5994  -14.7631   21.1892 O   0  0  0  0  0  0  0  0  0  0  0  0
  -39.3954  -21.7189   18.2611 O   0  0  0  0  0  0  0  0  0  0  0  0
  -40.1231  -18.4299   19.9487 O   0  0  0  0  0  0  0  0  0  0  0  0
  -36.2051  -16.3883   18.2161 O   0  0  0  0  0  0  0  0  0  0  0  0
  -31.9443  -14.1508   21.6002 O   0  0  0  0  0  0  0  0  0  0  0  0
  -21.5598   -7.0689   21.7415 O   0  0  0  0  0  0  0  0  0  0  0  0
  -32.8293  -22.2974   18.0249 O   0  0  0  0  0  0  0  0  0  1  0  0
  -23.9025   -3.0996   24.7681 F   0  0  0  0  0  0  0  0  0  0  0  0
  -20.4330   -6.2560   24.1315 F   0  0  0  0  0  0  0  0  0  0  0  0
  1  2  1  0  0  0  0
  1  5  2  0  0  0  0
  2  6  2  0  0  0  0
  3 10  2  0  0  0  0
  3 18  1  0  0  0  0
  4 11  1  0  0  0  0
  4 18  2  0  0  0  0
  5 20  1  0  0  0  0
  6 22  1  0  0  0  0
  7 12  2  0  0  0  0
  7 21  1  0  0  0  0
  8  9  2  0  0  0  0
  8 24  1  0  0  0  0
  9 26  1  0  0  0  0
 10 27  1  0  0  0  0
 11 27  2  0  0  0  0
 12 28  1  0  0  0  0
 13 14  2  0  0  0  0
 13 29  1  0  0  0  0
 14 30  1  0  0  0  0
 15 23  1  0  0  0  0
 15 28  2  0  0  0  0
 16 25  1  0  0  0  0
 16 26  2  0  0  0  0
 17 30  2  0  0  0  0
 17 31  1  0  0  0  0
 18 32  1  0  0  0  0
 19 32  1  0  0  0  0
 19 33  2  0  0  0  0
 19 34  1  0  0  0  0
 20 22  2  0  0  0  0
 20 39  1  0  0  0  0
 21 23  2  0  0  0  0
 21 40  1  0  0  0  0
 22 48  1  0  0  0  0
 23 41  1  0  0  0  0
 24 25  2  0  0  0  0
 24 59  1  0  0  0  0
 25 51  1  0  0  0  0
 26 73  1  0  0  0  0
 27 81  1  0  0  0  0
 28 82  1  0  0  0  0
 29 31  2  0  0  0  0
 29 81  1  0  0  0  0
 30 83  1  0  0  0  0
 31 84  1  0  0  0  0
 32 65  2  0  0  0  0
 33 66  1  0  0  0  0
 33 69  1  0  0  0  0
 34 70  1  0  0  0  0
 34 76  2  0  0  0  0
 35 49  1  0  0  0  0
 35 71  1  0  0  0  0
 35 77  2  0  0  0  0
 36 62  1  0  0  0  0
 36 67  1  0  0  0  0
 36 78  2  0  0  0  0
 37 63  1  0  0  0  0
 37 72  1  0  0  0  0
 37 79  2  0  0  0  0
 38 68  1  0  0  0  0
 38 74  1  0  0  0  0
 38 80  2  0  0  0  0
 39 42  1  0  0  0  0
 40 49  1  0  0  0  0
 41 67  1  0  0  0  0
 42 44  1  0  0  0  0
 43 45  1  0  0  0  0
 43 46  1  0  0  0  0
 44 48  1  0  0  0  0
 45 50  1  0  0  0  0
 46 68  1  0  0  0  0
 47 50  1  0  0  0  0
 47 68  1  0  0  0  0
 48 71  1  0  0  0  0
 49 67  1  0  0  0  0
 50 66  1  0  0  0  0
 52 63  1  0  0  0  0
 53 64  1  0  0  0  0
 54 64  1  0  0  0  0
 55 64  1  0  0  0  0
 56 73  1  0  0  0  0
 57 74  1  0  0  0  0
 58 75  1  0  0  0  0
 59 74  1  0  0  0  0
 60 61  1  0  0  0  0
 60 73  1  0  0  0  0
 61 82  1  0  0  0  0
 62 64  1  0  0  0  0
 62 72  1  0  0  0  0
 63 75  1  0  0  0  0
 65 66  1  0  0  0  0
M  CHG  1  75   1
M  ISO  4  38 100  61 101  74 100  82 101
M  END
> <Batch ID>
0018

> <Smiles>
CNC(C)C(=O)NC(C(=O)N1Cc2cc([101O:1][101CH2:1]CN(C)c3ccc(C[100N:0](C)[100C:0](=O)N4CCCC(n5nc(-c6ccc(Oc7ccc(F)cc7F)cc6)c(C(N)=O)c5N)C4)c(C)c3)ccc2CC1C(=O)NC1CCCc2ccccc21)C(C)(C)C

> <Shape>
0.210

> <Color>
0.189

> <Negative vol penalty>
0.000

$$$$

  -OEChem-04042321033D

 82 90  0     1  0  0  0  0  0999 V2000
  -16.5068  -24.1725   22.9670 C   0  0  0  0  0  0  0  0  0  0  0  0
  -17.4752  -23.7036   22.0851 C   0  0  0  0  0  0  0  0  0  0  0  0
  -26.5021  -12.0270   21.2634 C   0  0  0  0  0  0  0  0  0  0  0  0
  -25.7944  -13.1101   19.2230 C   0  0  0  0  0  0  0  0  0  0  0  0
  -16.4754  -25.5229   23.3125 C   0  0  0  0  0  0  0  0  0  0  0  0
  -18.4122  -24.5852   21.5472 C   0  0  0  0  0  0  0  0  0  0  0  0
  -24.2630  -23.3711   20.2054 C   0  0  0  0  0  0  0  0  0  0  0  0
  -28.5930  -21.2375   16.0706 C   0  0  0  0  0  0  0  0  0  0  0  0
  -29.0851  -20.1291   16.7596 C   0  0  0  0  0  0  0  0  0  0  0  0
  -25.1877  -11.6295   21.5082 C   0  0  0  0  0  0  0  0  0  0  0  0
  -24.4800  -12.7126   19.4678 C   0  0  0  0  0  0  0  0  0  0  0  0
  -24.9035  -23.0477   19.0100 C   0  0  0  0  0  0  0  0  0  0  0  0
  -23.0724   -9.2208   20.4327 C   0  0  0  0  0  0  0  0  0  0  0  0
  -22.8586   -7.9041   20.8402 C   0  0  0  0  0  0  0  0  0  0  0  0
  -25.5057  -25.3646   18.7128 C   0  0  0  0  0  0  0  0  0  0  0  0
  -29.9663  -21.5859   18.4738 C   0  0  0  0  0  0  0  0  0  0  0  0
  -21.8635   -8.7007   22.8925 C   0  0  0  0  0  0  0  0  0  0  0  0
  -26.8055  -12.7674   20.1208 C   0  0  0  0  0  0  0  0  0  0  0  0
  -29.1461  -12.4709   19.1506 C   0  0  0  0  0  0  0  0  0  0  0  0
  -17.4185  -26.4197   22.7861 C   0  0  0  0  0  0  0  0  0  0  0  0
  -24.2295  -24.6977   20.6587 C   0  0  0  0  0  0  0  0  0  0  0  0
  -18.3926  -25.9491   21.8849 C   0  0  0  0  0  0  0  0  0  0  0  0
  -24.8663  -25.7019   19.9155 C   0  0  0  0  0  0  0  0  0  0  0  0
  -28.7876  -22.5202   16.5831 C   0  0  0  0  0  0  0  0  0  0  0  0
  -29.7717  -20.3032   17.9612 C   0  0  0  0  0  0  0  0  0  0  0  0
  -24.1767  -11.9722   20.6104 C   0  0  0  0  0  0  0  0  0  0  0  0
  -25.5225  -24.0449   18.2621 C   0  0  0  0  0  0  0  0  0  0  0  0
  -22.6818  -10.2776   21.2552 C   0  0  0  0  0  0  0  0  0  0  0  0
  -22.2542   -7.6440   22.0700 C   0  0  0  0  0  0  0  0  0  0  0  0
  -29.4742  -22.6943   17.7847 C   0  0  0  0  0  0  0  0  0  0  0  0
  -22.0773  -10.0175   22.4851 C   0  0  0  0  0  0  0  0  0  0  0  0
  -28.1629  -13.1788   19.8676 C   0  0  0  0  0  0  0  0  0  0  0  0
  -30.2541  -13.2813   19.1955 C   0  0  0  0  0  0  0  0  0  0  0  0
  -29.0650  -11.1948   18.5019 C   0  0  0  0  0  0  0  0  0  0  0  0
  -21.9283  -26.8106   21.2447 C   0  0  0  0  0  0  0  0  0  0  0  0
  -24.3912  -28.5972   22.3690 C   0  0  0  0  0  0  0  0  0  0  0  0
  -27.7378  -29.2651   22.3354 C   0  0  0  0  0  0  0  0  0  0  0  0
  -30.9763  -19.1751   19.8645 C   0  0  0  0  0  0  0  0  0  0  0  0
  -17.3155  -27.8791   23.1521 C   0  0  0  0  0  0  0  0  0  0  0  0
  -23.5575  -25.0260   21.9636 C   0  0  0  0  0  0  0  0  0  0  0  0
  -24.8764  -27.1382   20.3687 C   0  0  0  0  0  0  0  0  0  0  0  0
  -18.5755  -28.6783   22.8297 C   0  0  0  0  0  0  0  0  0  0  0  0
  -32.3475  -16.6144   21.9237 C   0  0  0  0  0  0  0  0  0  0  0  0
  -19.0694  -28.3523   21.4238 C   0  0  0  0  0  0  0  0  0  0  0  0
  -31.5235  -15.3770   21.5604 C   0  0  0  0  0  0  0  0  0  0  0  0
  -31.4963  -17.8829   21.9225 C   0  0  0  0  0  0  0  0  0  0  0  0
  -29.9099  -16.8804   20.3263 C   0  0  0  0  0  0  0  0  0  0  0  0
  -19.4414  -26.8698   21.2998 C   0  0  1  0  0  0  0  0  0  0  0  0
  -23.1422  -26.4901   22.0701 C   0  0  1  0  0  0  0  0  0  0  0  0
  -30.7381  -15.5873   20.2510 C   0  0  2  0  0  0  0  0  0  0  0  0
  -29.4489  -30.8075   23.3307 C   0  0  0  0  0  0  0  0  0  0  0  0
  -27.5039  -23.3748   14.5093 C   0  0  0  0  0  0  0  0  0  0  0  0
  -29.4192  -24.6632   15.4308 C   0  0  0  0  0  0  0  0  0  0  0  0
  -23.4551  -30.8300   20.5120 C   0  0  0  0  0  0  0  0  0  0  0  0
  -25.6806  -31.9321   20.8291 C   0  0  0  0  0  0  0  0  0  0  0  0
  -24.1687  -31.5933   22.7842 C   0  0  0  0  0  0  0  0  0  0  0  0
  -29.1988  -27.0202   23.5943 C   0  0  0  0  0  0  0  0  0  0  0  0
  -27.2611  -24.5411   16.7170 C   0  0  0  0  0  0  0  0  0  1  0  0
  -25.3462  -29.6001   21.7679 C   0  0  1  0  0  0  0  0  0  0  0  0
  -28.7353  -29.4709   23.4611 C   0  0  2  0  0  0  0  0  0  0  0  0
  -28.2408  -23.7412   15.8200 C   0  0  0  0  0  0  0  0  0  0  0  0
  -24.6610  -30.9622   21.4635 C   0  0  0  0  0  0  0  0  0  0  0  0
  -28.6072  -14.3489   20.3340 N   0  0  0  0  0  0  0  0  0  0  0  0
  -29.8818  -14.3824   19.9092 N   0  0  0  0  0  0  0  0  0  0  0  0
  -24.2005  -27.4099   21.6481 N   0  0  0  0  0  0  0  0  0  0  0  0
  -30.7850  -18.0183   20.6494 N   0  0  0  0  0  0  0  0  0  0  0  0
  -31.5007  -13.1524   18.6939 N   0  0  0  0  0  0  0  0  0  0  0  0
  -27.8514  -10.4955   18.5524 N   0  0  0  0  0  0  0  0  0  0  0  0
  -30.2734  -19.1774   18.6602 N   0  0  0  0  0  0  0  0  0  0  0  0
  -20.7309  -26.6198   21.9075 N   0  0  0  0  0  0  0  0  0  0  0  0
  -26.4748  -29.6913   22.6878 N   0  0  0  0  0  0  0  0  0  0  0  0
  -29.7594  -28.3883   23.4501 N   0  3  0  0  0  0  0  0  0  0  0  0
  -30.0447  -10.6823   17.9094 O   0  0  0  0  0  0  0  0  0  0  0  0
  -22.0677  -27.2034   20.0924 O   0  0  0  0  0  0  0  0  0  0  0  0
  -23.8405  -28.8547   23.4423 O   0  0  0  0  0  0  0  0  0  0  0  0
  -28.0489  -28.7785   21.2505 O   0  0  0  0  0  0  0  0  0  0  0  0
  -31.7308  -20.0837   20.2210 O   0  0  0  0  0  0  0  0  0  0  0  0
  -22.8940  -11.5843   20.8489 O   0  0  0  0  0  0  0  0  0  0  0  0
  -26.1479  -23.7320   17.0947 O   0  0  0  0  0  0  0  0  0  1  0  0
  -22.0475   -6.3795   22.4605 F   0  0  0  0  0  0  0  0  0  0  0  0
  -29.6660  -23.9228   18.2852 F   0  0  0  0  0  0  0  0  0  0  0  0
  -21.6989  -11.0285   23.2790 F   0  0  0  0  0  0  0  0  0  0  0  0
  1  2  1  0  0  0  0
  1  5  2  0  0  0  0
  2  6  2  0  0  0  0
  3 10  2  0  0  0  0
  3 18  1  0  0  0  0
  4 11  1  0  0  0  0
  4 18  2  0  0  0  0
  5 20  1  0  0  0  0
  6 22  1  0  0  0  0
  7 12  2  0  0  0  0
  7 21  1  0  0  0  0
  8  9  2  0  0  0  0
  8 24  1  0  0  0  0
  9 25  1  0  0  0  0
 10 26  1  0  0  0  0
 11 26  2  0  0  0  0
 12 27  1  0  0  0  0
 13 14  2  0  0  0  0
 13 28  1  0  0  0  0
 14 29  1  0  0  0  0
 15 23  1  0  0  0  0
 15 27  2  0  0  0  0
 16 25  2  0  0  0  0
 16 30  1  0  0  0  0
 17 29  2  0  0  0  0
 17 31  1  0  0  0  0
 18 32  1  0  0  0  0
 19 32  1  0  0  0  0
 19 33  2  0  0  0  0
 19 34  1  0  0  0  0
 20 22  2  0  0  0  0
 20 39  1  0  0  0  0
 21 23  2  0  0  0  0
 21 40  1  0  0  0  0
 22 48  1  0  0  0  0
 23 41  1  0  0  0  0
 24 30  2  0  0  0  0
 24 61  1  0  0  0  0
 25 69  1  0  0  0  0
 26 78  1  0  0  0  0
 27 79  1  0  0  0  0
 28 31  2  0  0  0  0
 28 78  1  0  0  0  0
 29 80  1  0  0  0  0
 30 81  1  0  0  0  0
 31 82  1  0  0  0  0
 32 63  2  0  0  0  0
 33 64  1  0  0  0  0
 33 67  1  0  0  0  0
 34 68  1  0  0  0  0
 34 73  2  0  0  0  0
 35 49  1  0  0  0  0
 35 70  1  0  0  0  0
 35 74  2  0  0  0  0
 36 59  1  0  0  0  0
 36 65  1  0  0  0  0
 36 75  2  0  0  0  0
 37 60  1  0  0  0  0
 37 71  1  0  0  0  0
 37 76  2  0  0  0  0
 38 66  1  0  0  0  0
 38 69  1  0  0  0  0
 38 77  2  0  0  0  0
 39 42  1  0  0  0  0
 40 49  1  0  0  0  0
 41 65  1  0  0  0  0
 42 44  1  0  0  0  0
 43 45  1  0  0  0  0
 43 46  1  0  0  0  0
 44 48  1  0  0  0  0
 45 50  1  0  0  0  0
 46 66  1  0  0  0  0
 47 50  1  0  0  0  0
 47 66  1  0  0  0  0
 48 70  1  0  0  0  0
 49 65  1  0  0  0  0
 50 64  1  0  0  0  0
 51 60  1  0  0  0  0
 52 61  1  0  0  0  0
 53 61  1  0  0  0  0
 54 62  1  0  0  0  0
 55 62  1  0  0  0  0
 56 62  1  0  0  0  0
 57 72  1  0  0  0  0
 58 61  1  0  0  0  0
 58 79  1  0  0  0  0
 59 62  1  0  0  0  0
 59 71  1  0  0  0  0
 60 72  1  0  0  0  0
 63 64  1  0  0  0  0
M  CHG  1  72   1
M  ISO  4  38 100  58 101  69 100  79 101
M  END
> <Batch ID>
0018

> <Smiles>
CNC(C)C(=O)NC(C(=O)N1Cc2cc([101O:1][101CH2:1]C(C)(C)c3ccc([100NH:0][100C:0](=O)N4CCCC(n5nc(-c6ccc(Oc7ccc(F)cc7F)cc6)c(C(N)=O)c5N)C4)cc3F)ccc2CC1C(=O)NC1CCCc2ccccc21)C(C)(C)C

> <Shape>
0.277

> <Color>
0.057

> <Negative vol penalty>
0.000

$$$$

  -OEChem-04042321033D

 88 96  0     1  0  0  0  0  0999 V2000
  -22.1943  -26.1204   27.1052 C   0  0  0  0  0  0  0  0  0  0  0  0
  -23.4088  -25.7276   26.5518 C   0  0  0  0  0  0  0  0  0  0  0  0
  -22.9949   -9.8499   20.1569 C   0  0  0  0  0  0  0  0  0  0  0  0
  -24.3335   -9.7021   22.1627 C   0  0  0  0  0  0  0  0  0  0  0  0
  -21.1416  -26.5013   26.2741 C   0  0  0  0  0  0  0  0  0  0  0  0
  -23.5709  -25.7145   25.1669 C   0  0  0  0  0  0  0  0  0  0  0  0
  -28.6773  -27.0136   22.0456 C   0  0  0  0  0  0  0  0  0  0  0  0
  -29.4794  -18.0630   18.7685 C   0  0  0  0  0  0  0  0  0  0  0  0
  -29.6816  -19.1916   17.9741 C   0  0  0  0  0  0  0  0  0  0  0  0
  -22.3723   -8.6452   20.4836 C   0  0  0  0  0  0  0  0  0  0  0  0
  -23.7108   -8.4974   22.4895 C   0  0  0  0  0  0  0  0  0  0  0  0
  -29.6601  -26.2049   21.4766 C   0  0  0  0  0  0  0  0  0  0  0  0
  -20.7774   -7.4969   23.8365 C   0  0  0  0  0  0  0  0  0  0  0  0
  -20.3580   -7.3227   25.1554 C   0  0  0  0  0  0  0  0  0  0  0  0
  -28.5380  -26.3505   19.3461 C   0  0  0  0  0  0  0  0  0  0  0  0
  -28.2598  -20.4799   19.4425 C   0  0  0  0  0  0  0  0  0  0  0  0
  -21.7974   -5.3929   25.3582 C   0  0  0  0  0  0  0  0  0  0  0  0
  -23.9756  -10.3783   20.9964 C   0  0  0  0  0  0  0  0  0  0  0  0
  -24.0061  -12.8774   20.4855 C   0  0  0  0  0  0  0  0  0  0  0  0
  -21.2940  -26.5021   24.8786 C   0  0  0  0  0  0  0  0  0  0  0  0
  -27.6097  -27.4887   21.2703 C   0  0  0  0  0  0  0  0  0  0  0  0
  -22.5188  -26.0945   24.3164 C   0  0  0  0  0  0  0  0  0  0  0  0
  -27.5443  -27.1672   19.9070 C   0  0  0  0  0  0  0  0  0  0  0  0
  -28.6673  -18.1428   19.8998 C   0  0  0  0  0  0  0  0  0  0  0  0
  -29.0719  -20.4000   18.3111 C   0  0  0  0  0  0  0  0  0  0  0  0
  -22.7302   -7.9690   21.6499 C   0  0  0  0  0  0  0  0  0  0  0  0
  -29.5891  -25.8709   20.1273 C   0  0  0  0  0  0  0  0  0  0  0  0
  -21.7067   -6.6190   23.2784 C   0  0  0  0  0  0  0  0  0  0  0  0
  -20.8680   -6.2708   25.9162 C   0  0  0  0  0  0  0  0  0  0  0  0
  -28.0576  -19.3513   20.2368 C   0  0  0  0  0  0  0  0  0  0  0  0
  -22.2167   -5.5670   24.0393 C   0  0  0  0  0  0  0  0  0  0  0  0
  -24.6196  -11.6223   20.6591 C   0  0  0  0  0  0  0  0  0  0  0  0
  -25.0412  -13.7258   20.1770 C   0  0  0  0  0  0  0  0  0  0  0  0
  -22.6241  -13.2436   20.5935 C   0  0  0  0  0  0  0  0  0  0  0  0
  -24.4518  -27.1332   21.3436 C   0  0  0  0  0  0  0  0  0  0  0  0
  -24.5393  -29.3380   18.9659 C   0  0  0  0  0  0  0  0  0  0  0  0
  -26.3119  -30.8245   16.4569 C   0  0  0  0  0  0  0  0  0  0  0  0
  -30.2939  -15.4021   21.5615 C   0  0  0  0  0  0  0  0  0  0  0  0
  -20.1124  -26.8767   24.0196 C   0  0  0  0  0  0  0  0  0  0  0  0
  -26.5720  -28.3820   21.8929 C   0  0  0  0  0  0  0  0  0  0  0  0
  -26.4297  -27.6683   19.0267 C   0  0  0  0  0  0  0  0  0  0  0  0
  -20.4864  -27.1936   22.5739 C   0  0  0  0  0  0  0  0  0  0  0  0
  -29.8560  -12.7777   18.9880 C   0  0  0  0  0  0  0  0  0  0  0  0
  -21.4322  -26.1316   22.0221 C   0  0  0  0  0  0  0  0  0  0  0  0
  -28.4247  -12.3042   19.2354 C   0  0  0  0  0  0  0  0  0  0  0  0
  -30.5035  -13.3151   20.2607 C   0  0  0  0  0  0  0  0  0  0  0  0
  -28.2864  -13.9137   21.1773 C   0  0  0  0  0  0  0  0  0  0  0  0
  -22.7414  -26.0907   22.8195 C   0  0  1  0  0  0  0  0  0  0  0  0
  -25.2517  -28.3869   21.1286 C   0  0  1  0  0  0  0  0  0  0  0  0
  -27.5893  -13.4092   19.9049 C   0  0  2  0  0  0  0  0  0  0  0  0
  -26.1042  -32.5670   14.6631 C   0  0  0  0  0  0  0  0  0  0  0  0
  -22.8863  -27.4038   17.2817 C   0  0  0  0  0  0  0  0  0  0  0  0
  -23.5148  -28.7379   15.2584 C   0  0  0  0  0  0  0  0  0  0  0  0
  -22.1998  -29.8012   17.0923 C   0  0  0  0  0  0  0  0  0  0  0  0
  -30.2249  -17.7698   22.2462 C   0  0  0  0  0  0  0  0  0  0  0  0
  -28.4888  -32.4536   17.6257 C   0  0  0  0  0  0  0  0  0  0  0  0
  -29.0203  -20.9259   14.8687 C   0  0  0  0  0  0  0  0  0  0  0  0
  -28.4523  -16.9346   20.7475 C   0  0  0  0  0  0  0  0  0  0  0  0
  -31.0310  -23.0087   18.4610 C   0  0  0  0  0  0  0  0  0  0  0  0
  -30.6750  -22.0456   17.3371 C   0  0  0  0  0  0  0  0  0  0  0  0
  -30.1503  -24.2525   18.4776 C   0  0  0  0  0  0  0  0  0  1  0  0
  -24.6469  -29.2838   17.4611 C   0  0  1  0  0  0  0  0  0  0  0  0
  -26.5194  -32.2850   16.0986 C   0  0  2  0  0  0  0  0  0  0  0  0
  -23.3320  -28.7955   16.7901 C   0  0  0  0  0  0  0  0  0  0  0  0
  -25.9419  -11.6650   20.4760 N   0  0  0  0  0  0  0  0  0  0  0  0
  -26.1679  -12.9572   20.1840 N   0  0  0  0  0  0  0  0  0  0  0  0
  -25.4357  -28.5334   19.6833 N   0  0  0  0  0  0  0  0  0  0  0  0
  -29.6684  -14.3327   20.8997 N   0  0  0  0  0  0  0  0  0  0  0  0
  -25.0885  -15.0469   19.9031 N   0  0  0  0  0  0  0  0  0  0  0  0
  -22.1380  -13.6571   21.8414 N   0  0  0  0  0  0  0  0  0  0  0  0
  -23.6031  -27.1872   22.4328 N   0  0  0  0  0  0  0  0  0  0  0  0
  -25.0783  -30.6106   17.0346 N   0  0  0  0  0  0  0  0  0  0  0  0
  -29.2823  -21.5713   17.4877 N   0  0  1  0  0  0  0  0  0  0  0  0
  -29.6120  -16.6282   21.5821 N   0  0  0  0  0  0  0  0  0  0  0  0
  -27.9538  -32.6579   16.2550 N   0  3  0  0  0  0  0  0  0  0  0  0
  -21.8395  -13.1896   19.6163 O   0  0  0  0  0  0  0  0  0  0  0  0
  -24.5931  -26.1875   20.5772 O   0  0  0  0  0  0  0  0  0  0  0  0
  -23.6958  -30.0728   19.4858 O   0  0  0  0  0  0  0  0  0  0  0  0
  -27.1579  -29.9592   16.2421 O   0  0  0  0  0  0  0  0  0  0  0  0
  -31.4031  -15.2711   22.0948 O   0  0  0  0  0  0  0  0  0  0  0  0
  -28.1869  -23.2046   15.8097 O   0  0  0  0  0  0  0  0  0  0  0  0
  -26.9379  -21.1128   16.4339 O   0  0  0  0  0  0  0  0  0  0  0  0
  -22.1226   -6.7937   21.9692 O   0  0  0  0  0  0  0  0  0  0  0  0
  -30.5468  -25.0812   19.5696 O   0  0  0  0  0  0  0  0  0  1  0  0
  -20.4664   -6.1046   27.1832 F   0  0  0  0  0  0  0  0  0  0  0  0
  -27.2768  -19.4375   21.3227 F   0  0  0  0  0  0  0  0  0  0  0  0
  -23.1106   -4.7211   23.5090 F   0  0  0  0  0  0  0  0  0  0  0  0
  -28.1895  -21.8007   16.1784 S   0  0  0  0  0  0  0  0  0  0  0  0
  1  2  1  0  0  0  0
  1  5  2  0  0  0  0
  2  6  2  0  0  0  0
  3 10  2  0  0  0  0
  3 18  1  0  0  0  0
  4 11  1  0  0  0  0
  4 18  2  0  0  0  0
  5 20  1  0  0  0  0
  6 22  1  0  0  0  0
  7 12  2  0  0  0  0
  7 21  1  0  0  0  0
  8  9  2  0  0  0  0
  8 24  1  0  0  0  0
  9 25  1  0  0  0  0
 10 26  1  0  0  0  0
 11 26  2  0  0  0  0
 12 27  1  0  0  0  0
 13 14  2  0  0  0  0
 13 28  1  0  0  0  0
 14 29  1  0  0  0  0
 15 23  1  0  0  0  0
 15 27  2  0  0  0  0
 16 25  2  0  0  0  0
 16 30  1  0  0  0  0
 17 29  2  0  0  0  0
 17 31  1  0  0  0  0
 18 32  1  0  0  0  0
 19 32  1  0  0  0  0
 19 33  2  0  0  0  0
 19 34  1  0  0  0  0
 20 22  2  0  0  0  0
 20 39  1  0  0  0  0
 21 23  2  0  0  0  0
 21 40  1  0  0  0  0
 22 48  1  0  0  0  0
 23 41  1  0  0  0  0
 24 30  2  0  0  0  0
 24 58  1  0  0  0  0
 25 73  1  0  0  0  0
 26 83  1  0  0  0  0
 27 84  1  0  0  0  0
 28 31  2  0  0  0  0
 28 83  1  0  0  0  0
 29 85  1  0  0  0  0
 30 86  1  0  0  0  0
 31 87  1  0  0  0  0
 32 65  2  0  0  0  0
 33 66  1  0  0  0  0
 33 69  1  0  0  0  0
 34 70  1  0  0  0  0
 34 76  2  0  0  0  0
 35 49  1  0  0  0  0
 35 71  1  0  0  0  0
 35 77  2  0  0  0  0
 36 62  1  0  0  0  0
 36 67  1  0  0  0  0
 36 78  2  0  0  0  0
 37 63  1  0  0  0  0
 37 72  1  0  0  0  0
 37 79  2  0  0  0  0
 38 68  1  0  0  0  0
 38 74  1  0  0  0  0
 38 80  2  0  0  0  0
 39 42  1  0  0  0  0
 40 49  1  0  0  0  0
 41 67  1  0  0  0  0
 42 44  1  0  0  0  0
 43 45  1  0  0  0  0
 43 46  1  0  0  0  0
 44 48  1  0  0  0  0
 45 50  1  0  0  0  0
 46 68  1  0  0  0  0
 47 50  1  0  0  0  0
 47 68  1  0  0  0  0
 48 71  1  0  0  0  0
 49 67  1  0  0  0  0
 50 66  1  0  0  0  0
 51 63  1  0  0  0  0
 52 64  1  0  0  0  0
 53 64  1  0  0  0  0
 54 64  1  0  0  0  0
 55 74  1  0  0  0  0
 56 75  1  0  0  0  0
 57 88  1  0  0  0  0
 58 74  1  0  0  0  0
 59 60  1  0  0  0  0
 59 61  1  0  0  0  0
 60 73  1  0  0  0  0
 61 84  1  0  0  0  0
 62 64  1  0  0  0  0
 62 72  1  0  0  0  0
 63 75  1  0  0  0  0
 65 66  1  0  0  0  0
 73 88  1  0  0  0  0
 81 88  2  0  0  0  0
 82 88  2  0  0  0  0
M  CHG  1  75   1
M  ISO  4  38 100  61 101  74 100  84 101
M  END
> <Batch ID>
0018

> <Smiles>
CNC(C)C(=O)NC(C(=O)N1Cc2cc([101O:1][101CH2:1]CCN(c3ccc(C[100N:0](C)[100C:0](=O)N4CCCC(n5nc(-c6ccc(Oc7ccc(F)cc7F)cc6)c(C(N)=O)c5N)C4)c(F)c3)S(C)(=O)=O)ccc2CC1C(=O)NC1CCCc2ccccc21)C(C)(C)C

> <Shape>
0.323

> <Color>
0.155

> <Negative vol penalty>
0.000

$$$$

  -OEChem-04042321033D

 98108  0     1  0  0  0  0  0999 V2000
  -29.1096  -30.3633   27.0637 C   0  0  0  0  0  0  0  0  0  0  0  0
  -28.7867  -29.4149   26.0985 C   0  0  0  0  0  0  0  0  0  0  0  0
  -28.7114  -22.4043   16.4842 C   0  0  0  0  0  0  0  0  0  0  0  0
  -23.4366  -13.0584   18.4841 C   0  0  0  0  0  0  0  0  0  0  0  0
  -22.5077  -11.2222   19.7500 C   0  0  0  0  0  0  0  0  0  0  0  0
  -28.1287  -31.2304   27.5430 C   0  0  0  0  0  0  0  0  0  0  0  0
  -27.4821  -29.3324   25.6128 C   0  0  0  0  0  0  0  0  0  0  0  0
  -28.3969  -21.2762   17.2419 C   0  0  0  0  0  0  0  0  0  0  0  0
  -27.3111  -28.8733   20.5725 C   0  0  0  0  0  0  0  0  0  0  0  0
  -28.6369  -23.6733   17.0586 C   0  0  0  0  0  0  0  0  0  0  0  0
  -27.9990  -14.3438   18.5074 C   0  0  0  0  0  0  0  0  0  0  0  0
  -28.9022  -13.3524   18.1241 C   0  0  0  0  0  0  0  0  0  0  0  0
  -22.3688  -12.9822   17.5899 C   0  0  0  0  0  0  0  0  0  0  0  0
  -21.4398  -11.1460   18.8558 C   0  0  0  0  0  0  0  0  0  0  0  0
  -27.5819  -27.6143   20.0382 C   0  0  0  0  0  0  0  0  0  0  0  0
  -18.5492  -12.8005   18.2839 C   0  0  0  0  0  0  0  0  0  0  0  0
  -17.2673  -12.6678   18.8175 C   0  0  0  0  0  0  0  0  0  0  0  0
  -27.9332  -22.6860   19.1484 C   0  0  0  0  0  0  0  0  0  0  0  0
  -25.2157  -27.2196   19.7843 C   0  0  0  0  0  0  0  0  0  0  0  0
  -29.0649  -14.4783   20.6713 C   0  0  0  0  0  0  0  0  0  0  0  0
  -16.9971  -10.5715   17.6471 C   0  0  0  0  0  0  0  0  0  0  0  0
  -23.5061  -12.1783   19.5641 C   0  0  0  0  0  0  0  0  0  0  0  0
  -24.6815  -13.0290   21.6623 C   0  0  0  0  0  0  0  0  0  0  0  0
  -28.0078  -21.4170   18.5739 C   0  0  0  0  0  0  0  0  0  0  0  0
  -26.8137  -31.1649   27.0559 C   0  0  0  0  0  0  0  0  0  0  0  0
  -25.9879  -29.3112   20.7270 C   0  0  0  0  0  0  0  0  0  0  0  0
  -26.4824  -30.1985   26.0870 C   0  0  0  0  0  0  0  0  0  0  0  0
  -24.9308  -28.4856   20.3184 C   0  0  0  0  0  0  0  0  0  0  0  0
  -28.2477  -23.8141   18.3907 C   0  0  0  0  0  0  0  0  0  0  0  0
  -28.0803  -14.9068   19.7810 C   0  0  0  0  0  0  0  0  0  0  0  0
  -29.8867  -12.9239   19.0145 C   0  0  0  0  0  0  0  0  0  0  0  0
  -21.3704  -12.0260   17.7758 C   0  0  0  0  0  0  0  0  0  0  0  0
  -26.5341  -26.7861   19.6467 C   0  0  0  0  0  0  0  0  0  0  0  0
  -19.0550  -11.8187   17.4319 C   0  0  0  0  0  0  0  0  0  0  0  0
  -16.4912  -11.5534   18.4991 C   0  0  0  0  0  0  0  0  0  0  0  0
  -29.9681  -13.4868   20.2881 C   0  0  0  0  0  0  0  0  0  0  0  0
  -18.2790  -10.7042   17.1135 C   0  0  0  0  0  0  0  0  0  0  0  0
  -24.6092  -12.2562   20.4879 C   0  0  0  0  0  0  0  0  0  0  0  0
  -25.9246  -12.7545   22.1779 C   0  0  0  0  0  0  0  0  0  0  0  0
  -23.7118  -13.9157   22.2360 C   0  0  0  0  0  0  0  0  0  0  0  0
  -24.1743  -30.1409   23.2021 C   0  0  0  0  0  0  0  0  0  0  0  0
  -22.0545  -30.9429   20.8815 C   0  0  0  0  0  0  0  0  0  0  0  0
  -20.9616  -30.5039   17.6784 C   0  0  0  0  0  0  0  0  0  0  0  0
  -30.9116  -10.6761   19.3178 C   0  0  0  0  0  0  0  0  0  0  0  0
  -25.7767  -32.0920   27.6387 C   0  0  0  0  0  0  0  0  0  0  0  0
  -25.7133  -30.6827   21.2802 C   0  0  0  0  0  0  0  0  0  0  0  0
  -23.4933  -28.9170   20.4445 C   0  0  0  0  0  0  0  0  0  0  0  0
  -24.5049  -32.1876   26.7998 C   0  0  0  0  0  0  0  0  0  0  0  0
  -29.2564   -9.3325   22.3287 C   0  0  0  0  0  0  0  0  0  0  0  0
  -24.0333  -30.7975   26.3851 C   0  0  0  0  0  0  0  0  0  0  0  0
  -27.8613   -9.9509   22.2548 C   0  0  0  0  0  0  0  0  0  0  0  0
  -26.4798  -19.4634   18.7634 C   0  0  0  0  0  0  0  0  0  0  0  0
  -28.8940  -19.2800   19.4877 C   0  0  0  0  0  0  0  0  0  0  0  0
  -29.8604   -9.1293   20.9424 C   0  0  0  0  0  0  0  0  0  0  0  0
  -28.4958  -10.9874   20.0393 C   0  0  0  0  0  0  0  0  0  0  0  0
  -26.1652  -18.1798   19.5208 C   0  0  0  0  0  0  0  0  0  0  0  0
  -28.5608  -17.9979   20.2399 C   0  0  0  0  0  0  0  0  0  0  0  0
  -27.6732  -20.2102   19.3838 C   0  0  0  0  0  0  0  0  0  0  0  0
  -25.0842  -30.0944   25.5175 C   0  0  1  0  0  0  0  0  0  0  0  0
  -24.3127  -30.8201   21.8690 C   0  0  1  0  0  0  0  0  0  0  0  0
  -27.8779  -11.2444   21.4221 C   0  0  1  0  0  0  0  0  0  0  0  0
  -19.1844  -31.2702   16.0809 C   0  0  0  0  0  0  0  0  0  0  0  0
  -20.0132  -29.1834   22.3122 C   0  0  0  0  0  0  0  0  0  0  0  0
  -18.6249  -29.2205   20.2291 C   0  0  0  0  0  0  0  0  0  0  0  0
  -19.1019  -31.3452   21.4460 C   0  0  0  0  0  0  0  0  0  0  0  0
  -22.9637  -31.6075   15.7989 C   0  0  0  0  0  0  0  0  0  0  0  0
  -33.9951  -15.3817   18.4345 C   0  0  0  0  0  0  0  0  0  0  0  0
  -35.7864  -13.8385   19.2158 C   0  0  0  0  0  0  0  0  0  0  0  0
  -27.1082  -15.9724   20.1939 C   0  0  0  0  0  0  0  0  0  0  0  0
  -28.1669  -25.1791   19.0083 C   0  0  0  0  0  0  0  0  0  1  0  0
  -32.5362  -13.1558   17.3309 C   0  0  0  0  0  0  0  0  0  0  0  0
  -31.5023  -12.0351   17.3243 C   0  0  0  0  0  0  0  0  0  0  0  0
  -33.6387  -12.9182   18.3550 C   0  0  0  0  0  0  0  0  0  0  0  0
  -20.9537  -30.2205   20.1430 C   0  0  1  0  0  0  0  0  0  0  0  0
  -20.5978  -31.5006   16.5927 C   0  0  2  0  0  0  0  0  0  0  0  0
  -19.7003  -29.9832   21.0319 C   0  0  0  0  0  0  0  0  0  0  0  0
  -25.7181  -11.5443   20.2699 N   0  0  0  0  0  0  0  0  0  0  0  0
  -26.4990  -11.8687   21.3144 N   0  0  0  0  0  0  0  0  0  0  0  0
  -23.2759  -30.2642   20.9970 N   0  0  0  0  0  0  0  0  0  0  0  0
  -29.8224  -10.3625   20.1554 N   0  0  0  0  0  0  0  0  0  0  0  0
  -26.5715  -13.1868   23.2811 N   0  0  0  0  0  0  0  0  0  0  0  0
  -22.4862  -14.0822   21.5767 N   0  0  0  0  0  0  0  0  0  0  0  0
  -25.0486  -30.6079   24.1649 N   0  0  0  0  0  0  0  0  0  0  0  0
  -20.6923  -30.9987   18.9370 N   0  0  0  0  0  0  0  0  0  0  0  0
  -30.8200  -11.8971   18.6152 N   0  0  0  0  0  0  0  0  0  0  0  0
  -27.3976  -17.3089   19.5675 N   0  3  0  0  0  0  0  0  0  0  0  0
  -21.5391  -31.3812   15.4435 N   0  3  0  0  0  0  0  0  0  0  0  0
  -34.6266  -14.0212   18.2674 N   0  3  0  0  0  0  0  0  0  0  0  0
  -23.9321  -14.5543   23.2929 O   0  0  0  0  0  0  0  0  0  0  0  0
  -23.3355  -29.2594   23.3470 O   0  0  0  0  0  0  0  0  0  0  0  0
  -21.8408  -32.0708   21.3328 O   0  0  0  0  0  0  0  0  0  0  0  0
  -21.4336  -29.3957   17.4343 O   0  0  0  0  0  0  0  0  0  0  0  0
  -31.8999   -9.9378   19.2288 O   0  0  0  0  0  0  0  0  0  0  0  0
  -20.3282  -11.9515   16.9036 O   0  0  0  0  0  0  0  0  0  0  0  0
  -26.7957  -25.5566   19.1256 O   0  0  0  0  0  0  0  0  0  1  0  0
  -15.2608  -11.4253   19.0128 F   0  0  0  0  0  0  0  0  0  0  0  0
  -30.9093  -13.0816   21.1525 F   0  0  0  0  0  0  0  0  0  0  0  0
  -18.7600   -9.7572   16.2965 F   0  0  0  0  0  0  0  0  0  0  0  0
  1  2  1  0  0  0  0
  1  6  2  0  0  0  0
  2  7  2  0  0  0  0
  3  8  1  0  0  0  0
  3 10  2  0  0  0  0
  4 13  2  0  0  0  0
  4 22  1  0  0  0  0
  5 14  1  0  0  0  0
  5 22  2  0  0  0  0
  6 25  1  0  0  0  0
  7 27  1  0  0  0  0
  8 24  2  0  0  0  0
  9 15  2  0  0  0  0
  9 26  1  0  0  0  0
 10 29  1  0  0  0  0
 11 12  2  0  0  0  0
 11 30  1  0  0  0  0
 12 31  1  0  0  0  0
 13 32  1  0  0  0  0
 14 32  2  0  0  0  0
 15 33  1  0  0  0  0
 16 17  2  0  0  0  0
 16 34  1  0  0  0  0
 17 35  1  0  0  0  0
 18 24  1  0  0  0  0
 18 29  2  0  0  0  0
 19 28  1  0  0  0  0
 19 33  2  0  0  0  0
 20 30  2  0  0  0  0
 20 36  1  0  0  0  0
 21 35  2  0  0  0  0
 21 37  1  0  0  0  0
 22 38  1  0  0  0  0
 23 38  1  0  0  0  0
 23 39  2  0  0  0  0
 23 40  1  0  0  0  0
 24 58  1  0  0  0  0
 25 27  2  0  0  0  0
 25 45  1  0  0  0  0
 26 28  2  0  0  0  0
 26 46  1  0  0  0  0
 27 59  1  0  0  0  0
 28 47  1  0  0  0  0
 29 70  1  0  0  0  0
 30 69  1  0  0  0  0
 31 36  2  0  0  0  0
 31 85  1  0  0  0  0
 32 94  1  0  0  0  0
 33 95  1  0  0  0  0
 34 37  2  0  0  0  0
 34 94  1  0  0  0  0
 35 96  1  0  0  0  0
 36 97  1  0  0  0  0
 37 98  1  0  0  0  0
 38 77  2  0  0  0  0
 39 78  1  0  0  0  0
 39 81  1  0  0  0  0
 40 82  1  0  0  0  0
 40 89  2  0  0  0  0
 41 60  1  0  0  0  0
 41 83  1  0  0  0  0
 41 90  2  0  0  0  0
 42 74  1  0  0  0  0
 42 79  1  0  0  0  0
 42 91  2  0  0  0  0
 43 75  1  0  0  0  0
 43 84  1  0  0  0  0
 43 92  2  0  0  0  0
 44 80  1  0  0  0  0
 44 85  1  0  0  0  0
 44 93  2  0  0  0  0
 45 48  1  0  0  0  0
 46 60  1  0  0  0  0
 47 79  1  0  0  0  0
 48 50  1  0  0  0  0
 49 51  1  0  0  0  0
 49 54  1  0  0  0  0
 50 59  1  0  0  0  0
 51 61  1  0  0  0  0
 52 56  1  0  0  0  0
 52 58  1  0  0  0  0
 53 57  1  0  0  0  0
 53 58  1  0  0  0  0
 54 80  1  0  0  0  0
 55 61  1  0  0  0  0
 55 80  1  0  0  0  0
 56 86  1  0  0  0  0
 57 86  1  0  0  0  0
 59 83  1  0  0  0  0
 60 79  1  0  0  0  0
 61 78  1  0  0  0  0
 62 75  1  0  0  0  0
 63 76  1  0  0  0  0
 64 76  1  0  0  0  0
 65 76  1  0  0  0  0
 66 87  1  0  0  0  0
 67 88  1  0  0  0  0
 68 88  1  0  0  0  0
 69 86  1  0  0  0  0
 70 95  1  0  0  0  0
 71 72  1  0  0  0  0
 71 73  1  0  0  0  0
 72 85  1  0  0  0  0
 73 88  1  0  0  0  0
 74 76  1  0  0  0  0
 74 84  1  0  0  0  0
 75 87  1  0  0  0  0
 77 78  1  0  0  0  0
M  CHG  3  86   1  87   1  88   1
M  ISO  4  44 100  70 101  85 100  95 101
M  END
> <Batch ID>
0018

> <Smiles>
CNC(C)C(=O)NC(C(=O)N1Cc2cc([101O:1][101CH2:1]c3cccc(C4CCN(Cc5ccc([100N:0](CCCN(C)C)[100C:0](=O)N6CCCC(n7nc(-c8ccc(Oc9ccc(F)cc9F)cc8)c(C(N)=O)c7N)C6)c(F)c5)CC4)c3)ccc2CC1C(=O)NC1CCCc2ccccc21)C(C)(C)C

> <Shape>
0.247

> <Color>
0.082

> <Negative vol penalty>
0.000

$$$$

  -OEChem-04042321033D

 86 94  0     1  0  0  0  0  0999 V2000
  -27.0479  -26.1732   20.2879 C   0  0  0  0  0  0  0  0  0  0  0  0
  -27.3574  -24.9663   20.9069 C   0  0  0  0  0  0  0  0  0  0  0  0
  -23.1905   -9.8200   19.9312 C   0  0  0  0  0  0  0  0  0  0  0  0
  -23.5702   -9.9989   22.3105 C   0  0  0  0  0  0  0  0  0  0  0  0
  -27.6759  -26.5239   19.0935 C   0  0  0  0  0  0  0  0  0  0  0  0
  -28.2943  -24.1089   20.3312 C   0  0  0  0  0  0  0  0  0  0  0  0
  -31.5652  -22.2481   23.7200 C   0  0  0  0  0  0  0  0  0  0  0  0
  -30.9630  -14.2038   26.3021 C   0  0  0  0  0  0  0  0  0  0  0  0
  -30.4857  -13.4369   25.2393 C   0  0  0  0  0  0  0  0  0  0  0  0
  -22.4247   -8.6730   20.1396 C   0  0  0  0  0  0  0  0  0  0  0  0
  -22.8043   -8.8518   22.5189 C   0  0  0  0  0  0  0  0  0  0  0  0
  -31.1186  -21.2047   24.5296 C   0  0  0  0  0  0  0  0  0  0  0  0
  -23.2062   -5.5055   22.2523 C   0  0  0  0  0  0  0  0  0  0  0  0
  -23.7054   -4.5437   23.1305 C   0  0  0  0  0  0  0  0  0  0  0  0
  -32.2597  -19.6229   23.1102 C   0  0  0  0  0  0  0  0  0  0  0  0
  -32.1174  -14.4514   23.7746 C   0  0  0  0  0  0  0  0  0  0  0  0
  -21.7495   -4.8021   24.5252 C   0  0  0  0  0  0  0  0  0  0  0  0
  -23.7633  -10.4829   21.0167 C   0  0  0  0  0  0  0  0  0  0  0  0
  -24.1012  -12.9999   20.7745 C   0  0  0  0  0  0  0  0  0  0  0  0
  -28.6281  -25.6747   18.5079 C   0  0  0  0  0  0  0  0  0  0  0  0
  -32.3547  -21.9854   22.5912 C   0  0  0  0  0  0  0  0  0  0  0  0
  -28.9346  -24.4480   19.1271 C   0  0  0  0  0  0  0  0  0  0  0  0
  -32.7172  -20.6649   22.2893 C   0  0  0  0  0  0  0  0  0  0  0  0
  -32.0175  -15.0945   26.1012 C   0  0  0  0  0  0  0  0  0  0  0  0
  -31.0629  -13.5607   23.9755 C   0  0  0  0  0  0  0  0  0  0  0  0
  -22.2316   -8.1889   21.4335 C   0  0  0  0  0  0  0  0  0  0  0  0
  -31.4634  -19.8916   24.2232 C   0  0  0  0  0  0  0  0  0  0  0  0
  -21.9787   -6.1157   22.5105 C   0  0  0  0  0  0  0  0  0  0  0  0
  -32.5947  -15.2183   24.8375 C   0  0  0  0  0  0  0  0  0  0  0  0
  -22.9771   -4.1920   24.2670 C   0  0  0  0  0  0  0  0  0  0  0  0
  -21.2504   -5.7640   23.6469 C   0  0  0  0  0  0  0  0  0  0  0  0
  -24.5550  -11.6675   20.8020 C   0  0  0  0  0  0  0  0  0  0  0  0
  -25.2320  -13.7430   20.5390 C   0  0  0  0  0  0  0  0  0  0  0  0
  -22.7759  -13.5193   20.9464 C   0  0  0  0  0  0  0  0  0  0  0  0
  -32.0189  -22.4412   19.4634 C   0  0  0  0  0  0  0  0  0  0  0  0
  -35.0862  -21.3896   19.3754 C   0  0  0  0  0  0  0  0  0  0  0  0
  -37.5766  -19.5922   20.8635 C   0  0  0  0  0  0  0  0  0  0  0  0
  -31.0373  -12.7834   21.5794 C   0  0  0  0  0  0  0  0  0  0  0  0
  -29.2457  -26.0751   17.1915 C   0  0  0  0  0  0  0  0  0  0  0  0
  -32.8507  -23.1243   21.7432 C   0  0  0  0  0  0  0  0  0  0  0  0
  -33.5796  -20.3314   21.1004 C   0  0  0  0  0  0  0  0  0  0  0  0
  -30.5023  -25.2820   16.8421 C   0  0  0  0  0  0  0  0  0  0  0  0
  -29.5228  -13.4667   18.4303 C   0  0  0  0  0  0  0  0  0  0  0  0
  -30.2743  -23.7915   17.0728 C   0  0  0  0  0  0  0  0  0  0  0  0
  -28.0350  -13.2100   18.6803 C   0  0  0  0  0  0  0  0  0  0  0  0
  -30.4047  -12.4814   19.1953 C   0  0  0  0  0  0  0  0  0  0  0  0
  -28.6460  -12.1383   20.8860 C   0  0  0  0  0  0  0  0  0  0  0  0
  -29.9638  -23.5025   18.5465 C   0  0  1  0  0  0  0  0  0  0  0  0
  -33.2219  -22.6969   20.3265 C   0  0  1  0  0  0  0  0  0  0  0  0
  -27.7194  -13.1470   20.1876 C   0  0  2  0  0  0  0  0  0  0  0  0
  -39.9616  -18.8841   20.5346 C   0  0  0  0  0  0  0  0  0  0  0  0
  -35.1904  -16.1157   22.8010 C   0  0  0  0  0  0  0  0  0  0  0  0
  -35.9453  -15.8047   25.1853 C   0  0  0  0  0  0  0  0  0  0  0  0
  -34.1861  -19.3205   17.3214 C   0  0  0  0  0  0  0  0  0  0  0  0
  -36.3167  -18.0757   17.7448 C   0  0  0  0  0  0  0  0  0  0  0  0
  -36.3900  -20.3932   16.8248 C   0  0  0  0  0  0  0  0  0  0  0  0
  -38.4500  -20.9798   23.3274 C   0  0  0  0  0  0  0  0  0  0  0  0
  -33.4076  -18.1603   27.8485 C   0  0  0  0  0  0  0  0  0  0  0  0
  -32.5176  -15.9114   27.2560 C   0  0  0  0  0  0  0  0  0  0  0  0
  -31.0151  -17.8965   27.2097 C   0  0  0  0  0  0  0  0  0  0  0  0
  -30.8243  -19.1600   26.3940 C   0  0  0  0  0  0  0  0  0  1  0  0
  -35.7505  -20.0402   19.2452 C   0  0  1  0  0  0  0  0  0  0  0  0
  -39.0319  -19.9246   21.1395 C   0  0  2  0  0  0  0  0  0  0  0  0
  -34.8541  -15.5269   24.1626 C   0  0  0  0  0  0  0  0  0  0  0  0
  -35.6430  -19.4632   17.8054 C   0  0  0  0  0  0  0  0  0  0  0  0
  -25.8715  -11.5670   20.6000 N   0  0  0  0  0  0  0  0  0  0  0  0
  -26.2546  -12.8456   20.4432 N   0  0  0  0  0  0  0  0  0  0  0  0
  -34.0345  -21.4790   20.2982 N   0  0  0  0  0  0  0  0  0  0  0  0
  -30.0518  -12.4789   20.6167 N   0  0  0  0  0  0  0  0  0  0  0  0
  -25.4415  -15.0700   20.4066 N   0  0  0  0  0  0  0  0  0  0  0  0
  -21.7296  -12.6166   21.1805 N   0  0  0  0  0  0  0  0  0  0  0  0
  -30.5773  -12.7821   22.8958 N   0  0  0  0  0  0  0  0  0  0  0  0
  -31.1779  -23.5299   19.3336 N   0  0  0  0  0  0  0  0  0  0  0  0
  -37.1194  -20.2116   19.7195 N   0  0  0  0  0  0  0  0  0  0  0  0
  -39.2810  -19.9805   22.6078 N   0  3  0  0  0  0  0  0  0  0  0  0
  -32.4009  -17.3975   27.0234 N   0  3  1  0  0  0  0  0  0  0  0  0
  -22.5243  -14.7463   20.8778 O   0  0  0  0  0  0  0  0  0  0  0  0
  -31.8657  -21.3382   18.9519 O   0  0  0  0  0  0  0  0  0  0  0  0
  -35.4906  -22.3314   18.6890 O   0  0  0  0  0  0  0  0  0  0  0  0
  -36.9130  -18.8539   21.5880 O   0  0  0  0  0  0  0  0  0  0  0  0
  -32.1972  -13.0540   21.2575 O   0  0  0  0  0  0  0  0  0  0  0  0
  -21.4841   -7.0698   21.6372 O   0  0  0  0  0  0  0  0  0  0  0  0
  -31.0282  -18.8712   25.0114 O   0  0  0  0  0  0  0  0  0  1  0  0
  -33.6251  -16.0839   24.6243 O   0  0  0  0  0  0  0  0  0  0  0  0
  -23.4558   -3.2672   25.1095 F   0  0  0  0  0  0  0  0  0  0  0  0
  -20.0700   -6.3459   23.8997 F   0  0  0  0  0  0  0  0  0  0  0  0
  1  2  1  0  0  0  0
  1  5  2  0  0  0  0
  2  6  2  0  0  0  0
  3 10  2  0  0  0  0
  3 18  1  0  0  0  0
  4 11  1  0  0  0  0
  4 18  2  0  0  0  0
  5 20  1  0  0  0  0
  6 22  1  0  0  0  0
  7 12  2  0  0  0  0
  7 21  1  0  0  0  0
  8  9  2  0  0  0  0
  8 24  1  0  0  0  0
  9 25  1  0  0  0  0
 10 26  1  0  0  0  0
 11 26  2  0  0  0  0
 12 27  1  0  0  0  0
 13 14  2  0  0  0  0
 13 28  1  0  0  0  0
 14 30  1  0  0  0  0
 15 23  1  0  0  0  0
 15 27  2  0  0  0  0
 16 25  2  0  0  0  0
 16 29  1  0  0  0  0
 17 30  2  0  0  0  0
 17 31  1  0  0  0  0
 18 32  1  0  0  0  0
 19 32  1  0  0  0  0
 19 33  2  0  0  0  0
 19 34  1  0  0  0  0
 20 22  2  0  0  0  0
 20 39  1  0  0  0  0
 21 23  2  0  0  0  0
 21 40  1  0  0  0  0
 22 48  1  0  0  0  0
 23 41  1  0  0  0  0
 24 29  2  0  0  0  0
 24 59  1  0  0  0  0
 25 72  1  0  0  0  0
 26 82  1  0  0  0  0
 27 83  1  0  0  0  0
 28 31  2  0  0  0  0
 28 82  1  0  0  0  0
 29 84  1  0  0  0  0
 30 85  1  0  0  0  0
 31 86  1  0  0  0  0
 32 66  2  0  0  0  0
 33 67  1  0  0  0  0
 33 70  1  0  0  0  0
 34 71  1  0  0  0  0
 34 77  2  0  0  0  0
 35 49  1  0  0  0  0
 35 73  1  0  0  0  0
 35 78  2  0  0  0  0
 36 62  1  0  0  0  0
 36 68  1  0  0  0  0
 36 79  2  0  0  0  0
 37 63  1  0  0  0  0
 37 74  1  0  0  0  0
 37 80  2  0  0  0  0
 38 69  1  0  0  0  0
 38 72  1  0  0  0  0
 38 81  2  0  0  0  0
 39 42  1  0  0  0  0
 40 49  1  0  0  0  0
 41 68  1  0  0  0  0
 42 44  1  0  0  0  0
 43 45  1  0  0  0  0
 43 46  1  0  0  0  0
 44 48  1  0  0  0  0
 45 50  1  0  0  0  0
 46 69  1  0  0  0  0
 47 50  1  0  0  0  0
 47 69  1  0  0  0  0
 48 73  1  0  0  0  0
 49 68  1  0  0  0  0
 50 67  1  0  0  0  0
 51 63  1  0  0  0  0
 52 64  1  0  0  0  0
 53 64  1  0  0  0  0
 54 65  1  0  0  0  0
 55 65  1  0  0  0  0
 56 65  1  0  0  0  0
 57 75  1  0  0  0  0
 58 76  1  0  0  0  0
 59 76  1  0  0  0  0
 60 61  1  0  0  0  0
 60 76  1  0  0  0  0
 61 83  1  0  0  0  0
 62 65  1  0  0  0  0
 62 74  1  0  0  0  0
 63 75  1  0  0  0  0
 64 84  1  0  0  0  0
 66 67  1  0  0  0  0
M  CHG  2  75   1  76   1
M  ISO  4  38 100  61 101  72 100  83 101
M  END
> <Batch ID>
0018

> <Smiles>
CNC(C)C(=O)NC(C(=O)N1Cc2cc([101O:1][101CH2:1]CN(C)Cc3ccc([100NH:0][100C:0](=O)N4CCCC(n5nc(-c6ccc(Oc7ccc(F)cc7F)cc6)c(C(N)=O)c5N)C4)cc3OC(C)C)ccc2CC1C(=O)NC1CCCc2ccccc21)C(C)(C)C

> <Shape>
0.188

> <Color>
0.175

> <Negative vol penalty>
0.000

$$$$

  -OEChem-04042321033D

 83 91  0     1  0  0  0  0  0999 V2000
  -17.4048  -11.4590   22.9787 C   0  0  0  0  0  0  0  0  0  0  0  0
  -17.8097  -12.7294   22.5818 C   0  0  0  0  0  0  0  0  0  0  0  0
  -28.6058  -28.2756   20.6917 C   0  0  0  0  0  0  0  0  0  0  0  0
  -27.3373  -26.7674   19.2940 C   0  0  0  0  0  0  0  0  0  0  0  0
  -18.3307  -10.5737   23.5290 C   0  0  0  0  0  0  0  0  0  0  0  0
  -19.1407  -13.1156   22.7359 C   0  0  0  0  0  0  0  0  0  0  0  0
  -22.3674  -16.7678   19.0271 C   0  0  0  0  0  0  0  0  0  0  0  0
  -21.9060  -24.8222   19.6584 C   0  0  0  0  0  0  0  0  0  0  0  0
  -23.3037  -25.3068   21.5685 C   0  0  0  0  0  0  0  0  0  0  0  0
  -22.8105  -23.8442   19.2446 C   0  0  0  0  0  0  0  0  0  0  0  0
  -24.2082  -24.3288   21.1548 C   0  0  0  0  0  0  0  0  0  0  0  0
  -29.7399  -27.4822   20.5186 C   0  0  0  0  0  0  0  0  0  0  0  0
  -28.4715  -25.9740   19.1209 C   0  0  0  0  0  0  0  0  0  0  0  0
  -22.6865  -18.1235   19.0908 C   0  0  0  0  0  0  0  0  0  0  0  0
  -30.1679  -23.6357   20.8774 C   0  0  0  0  0  0  0  0  0  0  0  0
  -30.0168  -22.2543   20.9975 C   0  0  0  0  0  0  0  0  0  0  0  0
  -24.8094  -17.5706   20.0942 C   0  0  0  0  0  0  0  0  0  0  0  0
  -30.7885  -21.9724   18.7254 C   0  0  0  0  0  0  0  0  0  0  0  0
  -27.4045  -27.9182   20.0794 C   0  0  0  0  0  0  0  0  0  0  0  0
  -25.8231  -29.8214   19.4594 C   0  0  0  0  0  0  0  0  0  0  0  0
  -19.6757  -10.9457   23.6810 C   0  0  0  0  0  0  0  0  0  0  0  0
  -23.2639  -15.8023   19.5073 C   0  0  0  0  0  0  0  0  0  0  0  0
  -20.0852  -12.2348   23.2899 C   0  0  0  0  0  0  0  0  0  0  0  0
  -24.5004  -16.2032   20.0331 C   0  0  0  0  0  0  0  0  0  0  0  0
  -22.1527  -25.5535   20.8203 C   0  0  0  0  0  0  0  0  0  0  0  0
  -23.9615  -23.5975   19.9928 C   0  0  0  0  0  0  0  0  0  0  0  0
  -29.6727  -26.3315   19.7332 C   0  0  0  0  0  0  0  0  0  0  0  0
  -23.9063  -18.5253   19.6271 C   0  0  0  0  0  0  0  0  0  0  0  0
  -30.6291  -24.1856   19.6813 C   0  0  0  0  0  0  0  0  0  0  0  0
  -30.3272  -21.4227   19.9215 C   0  0  0  0  0  0  0  0  0  0  0  0
  -30.9394  -23.3539   18.6053 C   0  0  0  0  0  0  0  0  0  0  0  0
  -26.2325  -28.7370   20.2583 C   0  0  0  0  0  0  0  0  0  0  0  0
  -24.6590  -30.2579   20.0434 C   0  0  0  0  0  0  0  0  0  0  0  0
  -26.4398  -30.3839   18.2937 C   0  0  0  0  0  0  0  0  0  0  0  0
  -23.1777  -13.6065   21.8039 C   0  0  0  0  0  0  0  0  0  0  0  0
  -26.0382  -12.7388   20.5443 C   0  0  0  0  0  0  0  0  0  0  0  0
  -28.8011  -13.6246   18.7475 C   0  0  0  0  0  0  0  0  0  0  0  0
  -20.8438  -27.1644   23.7058 C   0  0  0  0  0  0  0  0  0  0  0  0
  -20.6302   -9.9713   24.3245 C   0  0  0  0  0  0  0  0  0  0  0  0
  -22.9161  -14.3424   19.4068 C   0  0  0  0  0  0  0  0  0  0  0  0
  -25.5063  -15.2050   20.5434 C   0  0  0  0  0  0  0  0  0  0  0  0
  -22.0994  -10.3247   24.1080 C   0  0  0  0  0  0  0  0  0  0  0  0
  -22.4207  -30.4671   24.2602 C   0  0  0  0  0  0  0  0  0  0  0  0
  -22.3378  -11.8065   24.3801 C   0  0  0  0  0  0  0  0  0  0  0  0
  -23.5860  -30.4499   23.2723 C   0  0  0  0  0  0  0  0  0  0  0  0
  -22.0497  -29.0619   24.7242 C   0  0  0  0  0  0  0  0  0  0  0  0
  -22.9293  -28.0987   22.6235 C   0  0  0  0  0  0  0  0  0  0  0  0
  -21.5254  -12.6818   23.4181 C   0  0  1  0  0  0  0  0  0  0  0  0
  -23.6875  -13.4749   20.3967 C   0  0  1  0  0  0  0  0  0  0  0  0
  -23.2978  -29.4952   22.1006 C   0  0  2  0  0  0  0  0  0  0  0  0
  -30.9860  -12.7124   17.9160 C   0  0  0  0  0  0  0  0  0  0  0  0
  -27.2097  -12.9935   23.3502 C   0  0  0  0  0  0  0  0  0  0  0  0
  -29.4915  -13.0139   22.3202 C   0  0  0  0  0  0  0  0  0  0  0  0
  -28.0235  -11.0145   22.0556 C   0  0  0  0  0  0  0  0  0  0  0  0
  -26.0774  -22.3538   20.3622 C   0  0  0  0  0  0  0  0  0  0  0  0
  -19.6353  -25.2862   22.6612 C   0  0  0  0  0  0  0  0  0  0  0  0
  -28.0370  -14.0531   15.9206 C   0  0  0  0  0  0  0  0  0  0  0  0
  -21.1865  -26.5996   21.2632 C   0  0  0  0  0  0  0  0  0  0  0  0
  -24.6363  -21.8279   18.3886 C   0  0  0  0  0  0  0  0  0  0  0  0
  -23.6670  -20.6959   18.6854 C   0  0  0  0  0  0  0  0  0  1  0  0
  -27.4759  -13.1310   20.7858 C   0  0  1  0  0  0  0  0  0  0  0  0
  -29.5166  -12.9399   17.5970 C   0  0  2  0  0  0  0  0  0  0  0  0
  -28.0306  -12.5574   22.1202 C   0  0  0  0  0  0  0  0  0  0  0  0
  -25.3966  -28.4993   21.2726 N   0  0  0  0  0  0  0  0  0  0  0  0
  -24.4503  -29.4405   21.1150 N   0  0  0  0  0  0  0  0  0  0  0  0
  -25.1173  -13.7897   20.4293 N   0  0  0  0  0  0  0  0  0  0  0  0
  -21.8235  -28.1643   23.5908 N   0  0  0  0  0  0  0  0  0  0  0  0
  -23.8040  -31.2574   19.7397 N   0  0  0  0  0  0  0  0  0  0  0  0
  -27.6324  -29.8138   17.8278 N   0  0  0  0  0  0  0  0  0  0  0  0
  -22.1594  -12.7267   22.1179 N   0  0  0  0  0  0  0  0  0  0  0  0
  -28.2176  -12.7125   19.6013 N   0  0  0  0  0  0  0  0  0  0  0  0
  -24.8694  -22.6139   19.5785 N   0  0  3  0  0  0  0  0  0  0  0  0
  -20.6477  -26.3304   22.5946 N   0  0  0  0  0  0  0  0  0  0  0  0
  -29.4268  -13.7709   16.3632 N   0  3  0  0  0  0  0  0  0  0  0  0
  -25.9566  -31.3733   17.6928 O   0  0  0  0  0  0  0  0  0  0  0  0
  -23.6725  -14.4432   22.5501 O   0  0  0  0  0  0  0  0  0  0  0  0
  -25.7444  -11.5441   20.4537 O   0  0  0  0  0  0  0  0  0  0  0  0
  -28.7667  -14.8462   18.8780 O   0  0  0  0  0  0  0  0  0  0  0  0
  -20.1756  -27.0312   24.7390 O   0  0  0  0  0  0  0  0  0  0  0  0
  -30.7792  -25.5572   19.5639 O   0  0  0  0  0  0  0  0  0  0  0  0
  -24.2200  -19.8479   19.6911 O   0  0  0  0  0  0  0  0  0  1  0  0
  -30.1836  -20.0960   20.0375 F   0  0  0  0  0  0  0  0  0  0  0  0
  -31.3841  -23.8762   17.4541 F   0  0  0  0  0  0  0  0  0  0  0  0
  1  2  1  0  0  0  0
  1  5  2  0  0  0  0
  2  6  2  0  0  0  0
  3 12  2  0  0  0  0
  3 19  1  0  0  0  0
  4 13  1  0  0  0  0
  4 19  2  0  0  0  0
  5 21  1  0  0  0  0
  6 23  1  0  0  0  0
  7 14  2  0  0  0  0
  7 22  1  0  0  0  0
  8 10  2  0  0  0  0
  8 25  1  0  0  0  0
  9 11  1  0  0  0  0
  9 25  2  0  0  0  0
 10 26  1  0  0  0  0
 11 26  2  0  0  0  0
 12 27  1  0  0  0  0
 13 27  2  0  0  0  0
 14 28  1  0  0  0  0
 15 16  2  0  0  0  0
 15 29  1  0  0  0  0
 16 30  1  0  0  0  0
 17 24  1  0  0  0  0
 17 28  2  0  0  0  0
 18 30  2  0  0  0  0
 18 31  1  0  0  0  0
 19 32  1  0  0  0  0
 20 32  1  0  0  0  0
 20 33  2  0  0  0  0
 20 34  1  0  0  0  0
 21 23  2  0  0  0  0
 21 39  1  0  0  0  0
 22 24  2  0  0  0  0
 22 40  1  0  0  0  0
 23 48  1  0  0  0  0
 24 41  1  0  0  0  0
 25 58  1  0  0  0  0
 26 72  1  0  0  0  0
 27 80  1  0  0  0  0
 28 81  1  0  0  0  0
 29 31  2  0  0  0  0
 29 80  1  0  0  0  0
 30 82  1  0  0  0  0
 31 83  1  0  0  0  0
 32 64  2  0  0  0  0
 33 65  1  0  0  0  0
 33 68  1  0  0  0  0
 34 69  1  0  0  0  0
 34 75  2  0  0  0  0
 35 49  1  0  0  0  0
 35 70  1  0  0  0  0
 35 76  2  0  0  0  0
 36 61  1  0  0  0  0
 36 66  1  0  0  0  0
 36 77  2  0  0  0  0
 37 62  1  0  0  0  0
 37 71  1  0  0  0  0
 37 78  2  0  0  0  0
 38 67  1  0  0  0  0
 38 73  1  0  0  0  0
 38 79  2  0  0  0  0
 39 42  1  0  0  0  0
 40 49  1  0  0  0  0
 41 66  1  0  0  0  0
 42 44  1  0  0  0  0
 43 45  1  0  0  0  0
 43 46  1  0  0  0  0
 44 48  1  0  0  0  0
 45 50  1  0  0  0  0
 46 67  1  0  0  0  0
 47 50  1  0  0  0  0
 47 67  1  0  0  0  0
 48 70  1  0  0  0  0
 49 66  1  0  0  0  0
 50 65  1  0  0  0  0
 51 62  1  0  0  0  0
 52 63  1  0  0  0  0
 53 63  1  0  0  0  0
 54 63  1  0  0  0  0
 55 72  1  0  0  0  0
 56 73  1  0  0  0  0
 57 74  1  0  0  0  0
 58 73  1  0  0  0  0
 59 60  1  0  0  0  0
 59 72  1  0  0  0  0
 60 81  1  0  0  0  0
 61 63  1  0  0  0  0
 61 71  1  0  0  0  0
 62 74  1  0  0  0  0
 64 65  1  0  0  0  0
M  CHG  1  74   1
M  ISO  4  38 100  60 101  73 100  81 101
M  END
> <Batch ID>
0018

> <Smiles>
CNC(C)C(=O)NC(C(=O)N1Cc2cc([101O:1][101CH2:1]CN(C)c3ccc(C[100N:0](C)[100C:0](=O)N4CCCC(n5nc(-c6ccc(Oc7ccc(F)cc7F)cc6)c(C(N)=O)c5N)C4)cc3)ccc2CC1C(=O)NC1CCCc2ccccc21)C(C)(C)C

> <Shape>
0.241

> <Color>
0.066

> <Negative vol penalty>
0.000

$$$$

  -OEChem-04042321033D

 86 94  0     1  0  0  0  0  0999 V2000
  -30.1117  -25.4025   17.6800 C   0  0  0  0  0  0  0  0  0  0  0  0
  -28.7239  -25.4918   17.7195 C   0  0  0  0  0  0  0  0  0  0  0  0
  -31.3766  -17.4045   18.4119 C   0  0  0  0  0  0  0  0  0  0  0  0
  -31.8530  -19.5273   17.3613 C   0  0  0  0  0  0  0  0  0  0  0  0
  -30.8683  -25.8376   18.7673 C   0  0  0  0  0  0  0  0  0  0  0  0
  -28.0919  -26.0154   18.8469 C   0  0  0  0  0  0  0  0  0  0  0  0
  -22.9654  -29.3633   18.9717 C   0  0  0  0  0  0  0  0  0  0  0  0
  -31.8610  -16.7386   17.2861 C   0  0  0  0  0  0  0  0  0  0  0  0
  -32.3375  -18.8614   16.2355 C   0  0  0  0  0  0  0  0  0  0  0  0
  -21.6355  -29.0332   19.2292 C   0  0  0  0  0  0  0  0  0  0  0  0
  -31.0597  -17.2972   13.5241 C   0  0  0  0  0  0  0  0  0  0  0  0
  -30.6549  -17.7612   12.2725 C   0  0  0  0  0  0  0  0  0  0  0  0
  -21.9183  -29.7119   21.5267 C   0  0  0  0  0  0  0  0  0  0  0  0
  -21.6907  -24.8133   22.9590 C   0  0  0  0  0  0  0  0  0  0  0  0
  -23.1559  -23.2887   24.1274 C   0  0  0  0  0  0  0  0  0  0  0  0
  -20.7829  -23.2697   24.5808 C   0  0  0  0  0  0  0  0  0  0  0  0
  -32.9593  -18.1889   11.6858 C   0  0  0  0  0  0  0  0  0  0  0  0
  -31.3725  -18.7989   18.4495 C   0  0  0  0  0  0  0  0  0  0  0  0
  -31.6047  -19.8846   20.7462 C   0  0  0  0  0  0  0  0  0  0  0  0
  -30.2457  -26.3756   19.9046 C   0  0  0  0  0  0  0  0  0  0  0  0
  -23.7861  -29.8608   19.9941 C   0  0  0  0  0  0  0  0  0  0  0  0
  -28.8409  -26.4569   19.9509 C   0  0  0  0  0  0  0  0  0  0  0  0
  -23.2575  -30.0500   21.2789 C   0  0  0  0  0  0  0  0  0  0  0  0
  -22.9701  -24.3115   23.1974 C   0  0  0  0  0  0  0  0  0  0  0  0
  -20.5971  -24.2925   23.6508 C   0  0  0  0  0  0  0  0  0  0  0  0
  -32.3415  -17.4670   16.1979 C   0  0  0  0  0  0  0  0  0  0  0  0
  -21.1126  -29.2047   20.5076 C   0  0  0  0  0  0  0  0  0  0  0  0
  -32.4142  -17.2791   13.8566 C   0  0  0  0  0  0  0  0  0  0  0  0
  -31.6047  -18.2070   11.3534 C   0  0  0  0  0  0  0  0  0  0  0  0
  -22.0624  -22.7678   24.8192 C   0  0  0  0  0  0  0  0  0  0  0  0
  -33.3640  -17.7249   12.9375 C   0  0  0  0  0  0  0  0  0  0  0  0
  -30.8717  -19.4874   19.6119 C   0  0  0  0  0  0  0  0  0  0  0  0
  -30.6790  -20.4946   21.5570 C   0  0  0  0  0  0  0  0  0  0  0  0
  -32.9979  -19.7171   21.0407 C   0  0  0  0  0  0  0  0  0  0  0  0
  -26.4549  -28.8719   21.4095 C   0  0  0  0  0  0  0  0  0  0  0  0
  -26.2820  -31.7580   22.8801 C   0  0  0  0  0  0  0  0  0  0  0  0
  -24.3487  -34.3795   23.8986 C   0  0  0  0  0  0  0  0  0  0  0  0
  -25.9382  -23.5416   21.4197 C   0  0  0  0  0  0  0  0  0  0  0  0
  -31.1032  -26.7891   21.0744 C   0  0  0  0  0  0  0  0  0  0  0  0
  -25.2110  -30.2373   19.6936 C   0  0  0  0  0  0  0  0  0  0  0  0
  -24.0912  -30.5998   22.4064 C   0  0  0  0  0  0  0  0  0  0  0  0
  -30.3750  -27.6778   22.0794 C   0  0  0  0  0  0  0  0  0  0  0  0
  -25.9851  -19.9117   20.4601 C   0  0  0  0  0  0  0  0  0  0  0  0
  -28.9989  -27.1035   22.4009 C   0  0  0  0  0  0  0  0  0  0  0  0
  -27.0844  -19.8473   21.5205 C   0  0  0  0  0  0  0  0  0  0  0  0
  -25.3154  -21.2899   20.4159 C   0  0  0  0  0  0  0  0  0  0  0  0
  -27.6585  -22.0808   20.4117 C   0  0  0  0  0  0  0  0  0  0  0  0
  -28.1199  -27.0418   21.1459 C   0  0  1  0  0  0  0  0  0  0  0  0
  -26.0994  -30.2521   20.9337 C   0  0  1  0  0  0  0  0  0  0  0  0
  -28.1466  -20.9583   21.3442 C   0  0  2  0  0  0  0  0  0  0  0  0
  -24.4841  -36.5735   25.1091 C   0  0  0  0  0  0  0  0  0  0  0  0
  -26.4897  -30.2756   25.5389 C   0  0  0  0  0  0  0  0  0  0  0  0
  -25.6767  -32.3506   26.6797 C   0  0  0  0  0  0  0  0  0  0  0  0
  -27.8259  -32.3860   25.4139 C   0  0  0  0  0  0  0  0  0  0  0  0
  -23.6872  -23.7944   20.2853 C   0  0  0  0  0  0  0  0  0  0  0  0
  -23.3999  -35.8774   21.5291 C   0  0  0  0  0  0  0  0  0  0  0  0
  -18.8098  -26.0724   25.5146 C   0  0  0  0  0  0  0  0  0  0  0  0
  -24.1394  -24.8688   22.4582 C   0  0  0  0  0  0  0  0  0  0  0  0
  -19.2208  -24.8322   23.3948 C   0  0  0  0  0  0  0  0  0  0  0  0
  -18.3376  -27.4644   22.0102 C   0  0  0  0  0  0  0  0  0  0  0  0
  -17.8936  -26.9390   23.3671 C   0  0  0  0  0  0  0  0  0  0  0  0
  -19.5015  -28.4451   22.0834 C   0  0  0  0  0  0  0  0  0  1  0  0
  -25.6418  -32.2767   24.1450 C   0  0  1  0  0  0  0  0  0  0  0  0
  -24.5302  -35.8799   23.7565 C   0  0  2  0  0  0  0  0  0  0  0  0
  -26.3931  -31.8100   25.4238 C   0  0  0  0  0  0  0  0  0  0  0  0
  -29.5798  -19.8172   19.6914 N   0  0  0  0  0  0  0  0  0  0  0  0
  -29.4938  -20.4280   20.8854 N   0  0  0  0  0  0  0  0  0  0  0  0
  -25.4803  -30.9471   22.0642 N   0  0  0  0  0  0  0  0  0  0  0  0
  -26.2552  -22.3890   20.6814 N   0  0  0  0  0  0  0  0  0  0  0  0
  -30.7713  -21.0760   22.7719 N   0  0  0  0  0  0  0  0  0  0  0  0
  -33.8067  -19.0681   20.0978 N   0  0  0  0  0  0  0  0  0  0  0  0
  -27.5973  -28.3539   20.8299 N   0  0  0  0  0  0  0  0  0  0  0  0
  -25.5588  -33.7256   23.9961 N   0  0  0  0  0  0  0  0  0  0  0  0
  -24.6052  -23.9767   21.4053 N   0  0  0  0  0  0  0  0  0  0  0  0
  -23.4553  -36.4526   22.8977 N   0  3  0  0  0  0  0  0  0  0  0  0
  -18.9909  -26.1871   24.0200 N   0  3  1  0  0  0  0  0  0  0  0  0
  -33.5071  -20.1162   22.1154 O   0  0  0  0  0  0  0  0  0  0  0  0
  -25.7460  -28.3185   22.2419 O   0  0  0  0  0  0  0  0  0  0  0  0
  -27.4479  -32.0670   22.6217 O   0  0  0  0  0  0  0  0  0  0  0  0
  -23.2439  -33.8416   23.9247 O   0  0  0  0  0  0  0  0  0  0  0  0
  -26.8007  -24.1438   22.0731 O   0  0  0  0  0  0  0  0  0  0  0  0
  -32.8145  -16.8175   15.0993 O   0  0  0  0  0  0  0  0  0  0  0  0
  -19.8151  -28.8827   20.7618 O   0  0  0  0  0  0  0  0  0  1  0  0
  -31.2160  -18.6511   10.1509 F   0  0  0  0  0  0  0  0  0  0  0  0
  -22.2412  -21.7864   25.7129 F   0  0  0  0  0  0  0  0  0  0  0  0
  -34.6669  -17.7088   13.2508 F   0  0  0  0  0  0  0  0  0  0  0  0
  1  2  1  0  0  0  0
  1  5  2  0  0  0  0
  2  6  2  0  0  0  0
  3  8  2  0  0  0  0
  3 18  1  0  0  0  0
  4  9  1  0  0  0  0
  4 18  2  0  0  0  0
  5 20  1  0  0  0  0
  6 22  1  0  0  0  0
  7 10  2  0  0  0  0
  7 21  1  0  0  0  0
  8 26  1  0  0  0  0
  9 26  2  0  0  0  0
 10 27  1  0  0  0  0
 11 12  2  0  0  0  0
 11 28  1  0  0  0  0
 12 29  1  0  0  0  0
 13 23  1  0  0  0  0
 13 27  2  0  0  0  0
 14 24  1  0  0  0  0
 14 25  2  0  0  0  0
 15 24  2  0  0  0  0
 15 30  1  0  0  0  0
 16 25  1  0  0  0  0
 16 30  2  0  0  0  0
 17 29  2  0  0  0  0
 17 31  1  0  0  0  0
 18 32  1  0  0  0  0
 19 32  1  0  0  0  0
 19 33  2  0  0  0  0
 19 34  1  0  0  0  0
 20 22  2  0  0  0  0
 20 39  1  0  0  0  0
 21 23  2  0  0  0  0
 21 40  1  0  0  0  0
 22 48  1  0  0  0  0
 23 41  1  0  0  0  0
 24 58  1  0  0  0  0
 25 59  1  0  0  0  0
 26 82  1  0  0  0  0
 27 83  1  0  0  0  0
 28 31  2  0  0  0  0
 28 82  1  0  0  0  0
 29 84  1  0  0  0  0
 30 85  1  0  0  0  0
 31 86  1  0  0  0  0
 32 66  2  0  0  0  0
 33 67  1  0  0  0  0
 33 70  1  0  0  0  0
 34 71  1  0  0  0  0
 34 77  2  0  0  0  0
 35 49  1  0  0  0  0
 35 72  1  0  0  0  0
 35 78  2  0  0  0  0
 36 63  1  0  0  0  0
 36 68  1  0  0  0  0
 36 79  2  0  0  0  0
 37 64  1  0  0  0  0
 37 73  1  0  0  0  0
 37 80  2  0  0  0  0
 38 69  1  0  0  0  0
 38 74  1  0  0  0  0
 38 81  2  0  0  0  0
 39 42  1  0  0  0  0
 40 49  1  0  0  0  0
 41 68  1  0  0  0  0
 42 44  1  0  0  0  0
 43 45  1  0  0  0  0
 43 46  1  0  0  0  0
 44 48  1  0  0  0  0
 45 50  1  0  0  0  0
 46 69  1  0  0  0  0
 47 50  1  0  0  0  0
 47 69  1  0  0  0  0
 48 72  1  0  0  0  0
 49 68  1  0  0  0  0
 50 67  1  0  0  0  0
 51 64  1  0  0  0  0
 52 65  1  0  0  0  0
 53 65  1  0  0  0  0
 54 65  1  0  0  0  0
 55 74  1  0  0  0  0
 56 75  1  0  0  0  0
 57 76  1  0  0  0  0
 58 74  1  0  0  0  0
 59 76  1  0  0  0  0
 60 61  1  0  0  0  0
 60 62  1  0  0  0  0
 61 76  1  0  0  0  0
 62 83  1  0  0  0  0
 63 65  1  0  0  0  0
 63 73  1  0  0  0  0
 64 75  1  0  0  0  0
 66 67  1  0  0  0  0
M  CHG  2  75   1  76   1
M  ISO  4  38 100  62 101  74 100  83 101
M  END
> <Batch ID>
0018

> <Smiles>
CNC(C)C(=O)NC(C(=O)N1Cc2cc([101O:1][101CH2:1]CCN(C)Cc3cc(F)cc(C[100N:0](C)[100C:0](=O)N4CCCC(n5nc(-c6ccc(Oc7ccc(F)cc7F)cc6)c(C(N)=O)c5N)C4)c3)ccc2CC1C(=O)NC1CCCc2ccccc21)C(C)(C)C

> <Shape>
0.233

> <Color>
0.065

> <Negative vol penalty>
0.000

$$$$

  -OEChem-04042321033D

 77 85  0     1  0  0  0  0  0999 V2000
  -27.7486  -17.4638   17.3887 C   0  0  0  0  0  0  0  0  0  0  0  0
  -27.0709  -18.6386   17.0828 C   0  0  0  0  0  0  0  0  0  0  0  0
  -24.1148  -17.3430   23.0836 C   0  0  0  0  0  0  0  0  0  0  0  0
  -23.7317  -18.5277   21.0132 C   0  0  0  0  0  0  0  0  0  0  0  0
  -28.5022  -17.3825   18.5577 C   0  0  0  0  0  0  0  0  0  0  0  0
  -27.1563  -19.7364   17.9397 C   0  0  0  0  0  0  0  0  0  0  0  0
  -24.3713  -25.1519   17.7291 C   0  0  0  0  0  0  0  0  0  0  0  0
  -24.7357  -16.3119   22.3787 C   0  0  0  0  0  0  0  0  0  0  0  0
  -24.3526  -17.4966   20.3082 C   0  0  0  0  0  0  0  0  0  0  0  0
  -23.2043  -25.7290   18.2278 C   0  0  0  0  0  0  0  0  0  0  0  0
  -23.7984  -13.6553   20.5109 C   0  0  0  0  0  0  0  0  0  0  0  0
  -23.4544  -12.3451   20.8435 C   0  0  0  0  0  0  0  0  0  0  0  0
  -24.4546  -26.6462   20.0756 C   0  0  0  0  0  0  0  0  0  0  0  0
  -25.7555  -11.8873   21.4198 C   0  0  0  0  0  0  0  0  0  0  0  0
  -23.6127  -18.4509   22.4008 C   0  0  0  0  0  0  0  0  0  0  0  0
  -23.5370  -20.3183   24.1371 C   0  0  0  0  0  0  0  0  0  0  0  0
  -28.5862  -18.4762   19.4351 C   0  0  0  0  0  0  0  0  0  0  0  0
  -25.5889  -25.3088   18.4069 C   0  0  0  0  0  0  0  0  0  0  0  0
  -27.9313  -19.6821   19.1124 C   0  0  0  0  0  0  0  0  0  0  0  0
  -25.6362  -26.0723   19.5821 C   0  0  0  0  0  0  0  0  0  0  0  0
  -24.8547  -16.3887   20.9910 C   0  0  0  0  0  0  0  0  0  0  0  0
  -23.2452  -26.4739   19.4027 C   0  0  0  0  0  0  0  0  0  0  0  0
  -25.1210  -14.0815   20.6327 C   0  0  0  0  0  0  0  0  0  0  0  0
  -24.4329  -11.4611   21.2980 C   0  0  0  0  0  0  0  0  0  0  0  0
  -26.0995  -13.1975   21.0872 C   0  0  0  0  0  0  0  0  0  0  0  0
  -22.9707  -19.5161   23.1284 C   0  0  0  0  0  0  0  0  0  0  0  0
  -22.5265  -21.1733   24.5035 C   0  0  0  0  0  0  0  0  0  0  0  0
  -20.0453  -25.6940   21.7969 C   0  0  0  0  0  0  0  0  0  0  0  0
  -24.8583  -20.2930   24.6931 C   0  0  0  0  0  0  0  0  0  0  0  0
  -27.6537  -23.3315   19.7963 C   0  0  0  0  0  0  0  0  0  0  0  0
  -29.4224  -26.0312   20.1215 C   0  0  0  0  0  0  0  0  0  0  0  0
  -29.5015  -29.4378   20.3104 C   0  0  0  0  0  0  0  0  0  0  0  0
  -18.3471  -24.5563   23.2941 C   0  0  0  0  0  0  0  0  0  0  0  0
  -29.4224  -18.3363   20.6827 C   0  0  0  0  0  0  0  0  0  0  0  0
  -26.8438  -24.7023   17.8416 C   0  0  0  0  0  0  0  0  0  0  0  0
  -26.9217  -26.2877   20.3366 C   0  0  0  0  0  0  0  0  0  0  0  0
  -29.0946  -19.3865   21.7390 C   0  0  0  0  0  0  0  0  0  0  0  0
  -17.6029  -21.1463   23.3761 C   0  0  0  0  0  0  0  0  0  0  0  0
  -29.0840  -20.7714   21.1092 C   0  0  0  0  0  0  0  0  0  0  0  0
  -18.9747  -20.4727   23.3954 C   0  0  0  0  0  0  0  0  0  0  0  0
  -20.3047  -27.6611   23.1240 C   0  0  0  0  0  0  0  0  0  0  0  0
  -17.5982  -22.3521   22.4434 C   0  0  0  0  0  0  0  0  0  0  0  0
  -19.0645  -26.9110   23.5527 C   0  0  0  0  0  0  0  0  0  0  0  0
  -20.0216  -22.7102   22.7924 C   0  0  0  0  0  0  0  0  0  0  0  0
  -27.9848  -20.8789   20.0448 C   0  0  1  0  0  0  0  0  0  0  0  0
  -20.5571  -27.1226   21.7195 C   0  0  1  0  0  0  0  0  0  0  0  0
  -27.9330  -24.4969   18.8899 C   0  0  1  0  0  0  0  0  0  0  0  0
  -20.0833  -21.4870   23.7288 C   0  0  2  0  0  0  0  0  0  0  0  0
  -31.0887  -31.3576   20.6150 C   0  0  0  0  0  0  0  0  0  0  0  0
  -29.6128  -25.3980   23.1002 C   0  0  0  0  0  0  0  0  0  0  0  0
  -30.3527  -27.7588   23.4837 C   0  0  0  0  0  0  0  0  0  0  0  0
  -31.7346  -26.2340   22.0737 C   0  0  0  0  0  0  0  0  0  0  0  0
  -28.8056  -30.5830   17.6716 C   0  0  0  0  0  0  0  0  0  0  0  0
  -22.0136  -27.1995   21.3034 C   0  0  0  0  0  0  0  0  0  1  0  0
  -29.5424  -27.1110   21.1697 C   0  0  1  0  0  0  0  0  0  0  0  0
  -30.3738  -30.4654   19.6121 C   0  0  2  0  0  0  0  0  0  0  0  0
  -30.2859  -26.6200   22.4439 C   0  0  0  0  0  0  0  0  0  0  0  0
  -21.6990  -19.8330   22.8706 N   0  0  0  0  0  0  0  0  0  0  0  0
  -21.4579  -20.8438   23.7227 N   0  0  0  0  0  0  0  0  0  0  0  0
  -19.2251  -25.6002   22.9551 N   0  0  0  0  0  0  0  0  0  0  0  0
  -28.1207  -25.6692   19.7471 N   0  0  0  0  0  0  0  0  0  0  0  0
  -18.6690  -23.2876   22.7875 N   0  0  0  0  0  0  0  0  0  0  0  0
  -22.4566  -22.1673   25.4143 N   0  0  0  0  0  0  0  0  0  0  0  0
  -25.8481  -21.0886   24.1000 N   0  0  0  0  0  0  0  0  0  0  0  0
  -28.1411  -22.1259   19.3290 N   0  0  0  0  0  0  0  0  0  0  0  0
  -30.1727  -28.2504   20.5118 N   0  0  0  0  0  0  0  0  0  0  0  0
  -29.5465  -31.3280   18.7219 N   0  3  0  0  0  0  0  0  0  0  0  0
  -20.2794  -24.8281   20.9655 O   0  0  0  0  0  0  0  0  0  0  0  0
  -25.1566  -19.5733   25.6762 O   0  0  0  0  0  0  0  0  0  0  0  0
  -27.0428  -23.5130   20.8430 O   0  0  0  0  0  0  0  0  0  0  0  0
  -30.4461  -25.5326   19.6470 O   0  0  0  0  0  0  0  0  0  0  0  0
  -28.3418  -29.6670   20.6470 O   0  0  0  0  0  0  0  0  0  0  0  0
  -17.3280  -24.7701   23.9605 O   0  0  0  0  0  0  0  0  0  0  0  0
  -25.4607  -15.3829   20.3029 O   0  0  0  0  0  0  0  0  0  0  0  0
  -22.0982  -27.0422   19.8960 O   0  0  0  0  0  0  0  0  0  1  0  0
  -24.1022  -10.2034   21.6188 F   0  0  0  0  0  0  0  0  0  0  0  0
  -27.3716  -13.6015   21.2074 F   0  0  0  0  0  0  0  0  0  0  0  0
  1  2  1  0  0  0  0
  1  5  2  0  0  0  0
  2  6  2  0  0  0  0
  3  8  2  0  0  0  0
  3 15  1  0  0  0  0
  4  9  1  0  0  0  0
  4 15  2  0  0  0  0
  5 17  1  0  0  0  0
  6 19  1  0  0  0  0
  7 10  2  0  0  0  0
  7 18  1  0  0  0  0
  8 21  1  0  0  0  0
  9 21  2  0  0  0  0
 10 22  1  0  0  0  0
 11 12  2  0  0  0  0
 11 23  1  0  0  0  0
 12 24  1  0  0  0  0
 13 20  1  0  0  0  0
 13 22  2  0  0  0  0
 14 24  2  0  0  0  0
 14 25  1  0  0  0  0
 15 26  1  0  0  0  0
 16 26  1  0  0  0  0
 16 27  2  0  0  0  0
 16 29  1  0  0  0  0
 17 19  2  0  0  0  0
 17 34  1  0  0  0  0
 18 20  2  0  0  0  0
 18 35  1  0  0  0  0
 19 45  1  0  0  0  0
 20 36  1  0  0  0  0
 21 74  1  0  0  0  0
 22 75  1  0  0  0  0
 23 25  2  0  0  0  0
 23 74  1  0  0  0  0
 24 76  1  0  0  0  0
 25 77  1  0  0  0  0
 26 58  2  0  0  0  0
 27 59  1  0  0  0  0
 27 63  1  0  0  0  0
 28 46  1  0  0  0  0
 28 60  1  0  0  0  0
 28 68  2  0  0  0  0
 29 64  1  0  0  0  0
 29 69  2  0  0  0  0
 30 47  1  0  0  0  0
 30 65  1  0  0  0  0
 30 70  2  0  0  0  0
 31 55  1  0  0  0  0
 31 61  1  0  0  0  0
 31 71  2  0  0  0  0
 32 56  1  0  0  0  0
 32 66  1  0  0  0  0
 32 72  2  0  0  0  0
 33 60  1  0  0  0  0
 33 62  1  0  0  0  0
 33 73  2  0  0  0  0
 34 37  1  0  0  0  0
 35 47  1  0  0  0  0
 36 61  1  0  0  0  0
 37 39  1  0  0  0  0
 38 40  1  0  0  0  0
 38 42  1  0  0  0  0
 39 45  1  0  0  0  0
 40 48  1  0  0  0  0
 41 43  1  0  0  0  0
 41 46  1  0  0  0  0
 42 62  1  0  0  0  0
 43 60  1  0  0  0  0
 44 48  1  0  0  0  0
 44 62  1  0  0  0  0
 45 65  1  0  0  0  0
 46 54  1  0  0  0  0
 47 61  1  0  0  0  0
 48 59  1  0  0  0  0
 49 56  1  0  0  0  0
 50 57  1  0  0  0  0
 51 57  1  0  0  0  0
 52 57  1  0  0  0  0
 53 67  1  0  0  0  0
 54 75  1  0  0  0  0
 55 57  1  0  0  0  0
 55 66  1  0  0  0  0
 56 67  1  0  0  0  0
 58 59  1  0  0  0  0
M  CHG  1  67   1
M  ISO  4  33 100  54 101  60 100  75 101
M  END
> <Batch ID>
0018

> <Smiles>
CNC(C)C(=O)NC(C(=O)N1Cc2cc([101O:1][101CH2:1]C3CC[100N:0]([100C:0](=O)N4CCCC(n5nc(-c6ccc(Oc7ccc(F)cc7F)cc6)c(C(N)=O)c5N)C4)C3=O)ccc2CC1C(=O)NC1CCCc2ccccc21)C(C)(C)C

> <Shape>
0.185

> <Color>
0.054

> <Negative vol penalty>
0.000

$$$$

  -OEChem-04042321033D

 87 95  0     1  0  0  0  0  0999 V2000
  -30.4590  -30.5515   25.7354 C   0  0  0  0  0  0  0  0  0  0  0  0
  -30.1510  -29.3548   25.0962 C   0  0  0  0  0  0  0  0  0  0  0  0
  -23.5533  -14.8702   24.3147 C   0  0  0  0  0  0  0  0  0  0  0  0
  -23.3782  -16.1434   22.2689 C   0  0  0  0  0  0  0  0  0  0  0  0
  -29.4643  -31.5064   25.9417 C   0  0  0  0  0  0  0  0  0  0  0  0
  -28.8477  -29.1119   24.6639 C   0  0  0  0  0  0  0  0  0  0  0  0
  -28.6809  -27.1777   19.9867 C   0  0  0  0  0  0  0  0  0  0  0  0
  -28.2738  -17.2778   19.0962 C   0  0  0  0  0  0  0  0  0  0  0  0
  -27.6215  -18.3644   19.6787 C   0  0  0  0  0  0  0  0  0  0  0  0
  -22.7192  -15.7859   24.9560 C   0  0  0  0  0  0  0  0  0  0  0  0
  -22.5440  -17.0591   22.9102 C   0  0  0  0  0  0  0  0  0  0  0  0
  -28.9720  -25.8214   19.8479 C   0  0  0  0  0  0  0  0  0  0  0  0
  -20.3449  -17.5913   27.0341 C   0  0  0  0  0  0  0  0  0  0  0  0
  -19.3244  -17.0855   27.8393 C   0  0  0  0  0  0  0  0  0  0  0  0
  -26.6124  -25.3326   19.7352 C   0  0  0  0  0  0  0  0  0  0  0  0
  -29.9956  -17.4054   20.7862 C   0  0  0  0  0  0  0  0  0  0  0  0
  -18.3858  -15.9403   25.9302 C   0  0  0  0  0  0  0  0  0  0  0  0
  -23.8829  -15.0490   22.9711 C   0  0  0  0  0  0  0  0  0  0  0  0
  -24.3583  -12.9400   21.6169 C   0  0  0  0  0  0  0  0  0  0  0  0
  -28.1503  -31.2791   25.5032 C   0  0  0  0  0  0  0  0  0  0  0  0
  -27.3508  -27.6213   20.0119 C   0  0  0  0  0  0  0  0  0  0  0  0
  -27.8342  -30.0641   24.8658 C   0  0  0  0  0  0  0  0  0  0  0  0
  -26.3072  -26.6954   19.8719 C   0  0  0  0  0  0  0  0  0  0  0  0
  -29.4609  -16.7982   19.6500 C   0  0  0  0  0  0  0  0  0  0  0  0
  -28.1563  -18.9716   20.8149 C   0  0  0  0  0  0  0  0  0  0  0  0
  -22.2145  -16.8803   24.2537 C   0  0  0  0  0  0  0  0  0  0  0  0
  -27.9377  -24.8983   19.7250 C   0  0  0  0  0  0  0  0  0  0  0  0
  -20.3859  -17.2716   25.6770 C   0  0  0  0  0  0  0  0  0  0  0  0
  -18.3448  -16.2600   27.2873 C   0  0  0  0  0  0  0  0  0  0  0  0
  -29.3433  -18.4921   21.3687 C   0  0  0  0  0  0  0  0  0  0  0  0
  -19.4064  -16.4461   25.1250 C   0  0  0  0  0  0  0  0  0  0  0  0
  -24.7451  -14.1037   22.3083 C   0  0  0  0  0  0  0  0  0  0  0  0
  -25.5390  -12.3946   21.1754 C   0  0  0  0  0  0  0  0  0  0  0  0
  -23.0489  -12.4004   21.3936 C   0  0  0  0  0  0  0  0  0  0  0  0
  -25.5255  -29.1188   22.1401 C   0  0  0  0  0  0  0  0  0  0  0  0
  -23.3913  -29.1644   19.6977 C   0  0  0  0  0  0  0  0  0  0  0  0
  -30.9152  -14.8348   20.0555 C   0  0  0  0  0  0  0  0  0  0  0  0
  -28.1118  -21.3573   21.5381 C   0  0  0  0  0  0  0  0  0  0  0  0
  -22.3036  -27.7794   16.7744 C   0  0  0  0  0  0  0  0  0  0  0  0
  -27.0985  -32.3211   25.7909 C   0  0  0  0  0  0  0  0  0  0  0  0
  -27.0541  -29.0907   20.1355 C   0  0  0  0  0  0  0  0  0  0  0  0
  -24.8628  -27.1225   19.8725 C   0  0  0  0  0  0  0  0  0  0  0  0
  -25.8248  -32.1442   24.9683 C   0  0  0  0  0  0  0  0  0  0  0  0
  -30.1811  -12.1118   22.2660 C   0  0  0  0  0  0  0  0  0  0  0  0
  -25.3758  -30.6865   24.9865 C   0  0  0  0  0  0  0  0  0  0  0  0
  -28.6733  -12.2254   22.4872 C   0  0  0  0  0  0  0  0  0  0  0  0
  -30.8300  -13.4853   22.1257 C   0  0  0  0  0  0  0  0  0  0  0  0
  -28.7167  -14.4520   21.2766 C   0  0  0  0  0  0  0  0  0  0  0  0
  -26.4375  -29.7743   24.3603 C   0  0  1  0  0  0  0  0  0  0  0  0
  -25.6518  -29.3746   20.6649 C   0  0  1  0  0  0  0  0  0  0  0  0
  -28.0175  -13.0860   21.3928 C   0  0  2  0  0  0  0  0  0  0  0  0
  -25.9490  -19.4954   23.2261 C   0  0  0  0  0  0  0  0  0  0  0  0
  -20.5131  -28.0104   15.0315 C   0  0  0  0  0  0  0  0  0  0  0  0
  -31.1866  -16.1116   17.9639 C   0  0  0  0  0  0  0  0  0  0  0  0
  -29.2474  -14.5829   18.3333 C   0  0  0  0  0  0  0  0  0  0  0  0
  -21.3801  -27.8764   21.5966 C   0  0  0  0  0  0  0  0  0  0  0  0
  -19.9899  -27.2732   19.6036 C   0  0  0  0  0  0  0  0  0  0  0  0
  -20.4329  -29.6702   20.1339 C   0  0  0  0  0  0  0  0  0  0  0  0
  -24.2861  -28.3075   14.6414 C   0  0  0  0  0  0  0  0  0  0  0  0
  -29.2537  -21.6230   20.5567 C   0  0  0  0  0  0  0  0  0  0  0  0
  -26.0695  -19.8940   21.7946 C   0  0  0  0  0  0  0  0  0  0  0  0
  -29.4149  -23.0976   20.2062 C   0  0  0  0  0  0  0  0  0  1  0  0
  -22.3020  -28.2387   19.2124 C   0  0  1  0  0  0  0  0  0  0  0  0
  -21.9228  -28.4040   15.4443 C   0  0  2  0  0  0  0  0  0  0  0  0
  -30.1591  -15.6372   19.0267 C   0  0  0  0  0  0  0  0  0  0  0  0
  -21.0533  -28.2560   20.1385 C   0  0  0  0  0  0  0  0  0  0  0  0
  -26.0680  -14.2875   22.3088 N   0  0  0  0  0  0  0  0  0  0  0  0
  -26.5229  -13.2320   21.6125 N   0  0  0  0  0  0  0  0  0  0  0  0
  -24.6238  -28.5694   20.0024 N   0  0  0  0  0  0  0  0  0  0  0  0
  -30.1643  -14.2801   21.0921 N   0  0  0  0  0  0  0  0  0  0  0  0
  -25.8213  -11.2852   20.4599 N   0  0  0  0  0  0  0  0  0  0  0  0
  -21.9450  -13.0875   21.9166 N   0  0  0  0  0  0  0  0  0  0  0  0
  -26.3926  -29.8635   22.9166 N   0  0  0  0  0  0  0  0  0  0  0  0
  -22.0271  -28.6206   17.8314 N   0  0  0  0  0  0  0  0  0  0  0  0
  -27.4767  -20.1007   21.4177 N   0  0  0  0  0  0  0  0  0  0  0  0
  -22.8652  -27.9640   14.3768 N   0  3  0  0  0  0  0  0  0  0  0  0
  -22.8645  -11.3315   20.7635 O   0  0  0  0  0  0  0  0  0  0  0  0
  -24.7013  -28.3069   22.5442 O   0  0  0  0  0  0  0  0  0  0  0  0
  -23.1594  -30.3720   19.7959 O   0  0  0  0  0  0  0  0  0  0  0  0
  -32.1364  -14.7035   19.9380 O   0  0  0  0  0  0  0  0  0  0  0  0
  -27.8285  -22.2112   22.3820 O   0  0  0  0  0  0  0  0  0  0  0  0
  -22.7936  -26.6561   16.8669 O   0  0  0  0  0  0  0  0  0  0  0  0
  -21.4002  -17.7739   24.8791 O   0  0  0  0  0  0  0  0  0  0  0  0
  -28.2191  -23.5737   19.5900 O   0  0  0  0  0  0  0  0  0  1  0  0
  -17.3657  -15.7732   28.0609 F   0  0  0  0  0  0  0  0  0  0  0  0
  -29.8671  -19.0688   22.4598 F   0  0  0  0  0  0  0  0  0  0  0  0
  -19.4412  -16.1345   23.8221 F   0  0  0  0  0  0  0  0  0  0  0  0
  1  2  1  0  0  0  0
  1  5  2  0  0  0  0
  2  6  2  0  0  0  0
  3 10  2  0  0  0  0
  3 18  1  0  0  0  0
  4 11  1  0  0  0  0
  4 18  2  0  0  0  0
  5 20  1  0  0  0  0
  6 22  1  0  0  0  0
  7 12  2  0  0  0  0
  7 21  1  0  0  0  0
  8  9  2  0  0  0  0
  8 24  1  0  0  0  0
  9 25  1  0  0  0  0
 10 26  1  0  0  0  0
 11 26  2  0  0  0  0
 12 27  1  0  0  0  0
 13 14  2  0  0  0  0
 13 28  1  0  0  0  0
 14 29  1  0  0  0  0
 15 23  1  0  0  0  0
 15 27  2  0  0  0  0
 16 24  2  0  0  0  0
 16 30  1  0  0  0  0
 17 29  2  0  0  0  0
 17 31  1  0  0  0  0
 18 32  1  0  0  0  0
 19 32  1  0  0  0  0
 19 33  2  0  0  0  0
 19 34  1  0  0  0  0
 20 22  2  0  0  0  0
 20 40  1  0  0  0  0
 21 23  2  0  0  0  0
 21 41  1  0  0  0  0
 22 49  1  0  0  0  0
 23 42  1  0  0  0  0
 24 65  1  0  0  0  0
 25 30  2  0  0  0  0
 25 75  1  0  0  0  0
 26 83  1  0  0  0  0
 27 84  1  0  0  0  0
 28 31  2  0  0  0  0
 28 83  1  0  0  0  0
 29 85  1  0  0  0  0
 30 86  1  0  0  0  0
 31 87  1  0  0  0  0
 32 67  2  0  0  0  0
 33 68  1  0  0  0  0
 33 71  1  0  0  0  0
 34 72  1  0  0  0  0
 34 77  2  0  0  0  0
 35 50  1  0  0  0  0
 35 73  1  0  0  0  0
 35 78  2  0  0  0  0
 36 63  1  0  0  0  0
 36 69  1  0  0  0  0
 36 79  2  0  0  0  0
 37 65  1  0  0  0  0
 37 70  1  0  0  0  0
 37 80  2  0  0  0  0
 38 60  1  0  0  0  0
 38 75  1  0  0  0  0
 38 81  2  0  0  0  0
 39 64  1  0  0  0  0
 39 74  1  0  0  0  0
 39 82  2  0  0  0  0
 40 43  1  0  0  0  0
 41 50  1  0  0  0  0
 42 69  1  0  0  0  0
 43 45  1  0  0  0  0
 44 46  1  0  0  0  0
 44 47  1  0  0  0  0
 45 49  1  0  0  0  0
 46 51  1  0  0  0  0
 47 70  1  0  0  0  0
 48 51  1  0  0  0  0
 48 70  1  0  0  0  0
 49 73  1  0  0  0  0
 50 69  1  0  0  0  0
 51 68  1  0  0  0  0
 52 61  1  0  0  0  0
 53 64  1  0  0  0  0
 54 65  1  0  0  0  0
 55 65  1  0  0  0  0
 56 66  1  0  0  0  0
 57 66  1  0  0  0  0
 58 66  1  0  0  0  0
 59 76  1  0  0  0  0
 60 62  1  0  0  0  0
 61 75  1  0  0  0  0
 62 84  1  0  0  0  0
 63 66  1  0  0  0  0
 63 74  1  0  0  0  0
 64 76  1  0  0  0  0
 67 68  1  0  0  0  0
M  CHG  1  76   1
M  ISO  4  37 100  62 101  65 100  84 101
M  END
> <Batch ID>
0018

> <Smiles>
CCN(C(=O)C[101CH2:1][101O:1]c1ccc2c(c1)CN(C(=O)C(NC(=O)C(C)NC)C(C)(C)C)C(C(=O)NC1CCCc3ccccc31)C2)c1ccc([100C:0](C)(C)[100C:0](=O)N2CCCC(n3nc(-c4ccc(Oc5ccc(F)cc5F)cc4)c(C(N)=O)c3N)C2)cc1F

> <Shape>
0.254

> <Color>
0.080

> <Negative vol penalty>
0.000

$$$$

  -OEChem-04042321033D

 83 91  0     1  0  0  0  0  0999 V2000
  -19.6251  -23.9312   23.6797 C   0  0  0  0  0  0  0  0  0  0  0  0
  -20.9745  -24.1197   23.3989 C   0  0  0  0  0  0  0  0  0  0  0  0
  -27.2450  -24.3113   18.3300 C   0  0  0  0  0  0  0  0  0  0  0  0
  -26.5370  -12.8385   20.4034 C   0  0  0  0  0  0  0  0  0  0  0  0
  -24.8691  -14.3834   19.5858 C   0  0  0  0  0  0  0  0  0  0  0  0
  -18.7217  -24.9756   23.4872 C   0  0  0  0  0  0  0  0  0  0  0  0
  -21.4212  -25.3524   22.9243 C   0  0  0  0  0  0  0  0  0  0  0  0
  -25.6533  -26.9048   25.2317 C   0  0  0  0  0  0  0  0  0  0  0  0
  -26.6300  -23.1512   18.8007 C   0  0  0  0  0  0  0  0  0  0  0  0
  -28.2118  -24.9519   19.1051 C   0  0  0  0  0  0  0  0  0  0  0  0
  -25.6749  -11.7723   20.1473 C   0  0  0  0  0  0  0  0  0  0  0  0
  -24.0070  -13.3172   19.3297 C   0  0  0  0  0  0  0  0  0  0  0  0
  -26.8519  -26.3214   24.8232 C   0  0  0  0  0  0  0  0  0  0  0  0
  -23.7752   -8.6732   20.0435 C   0  0  0  0  0  0  0  0  0  0  0  0
  -23.6486   -7.6897   21.0244 C   0  0  0  0  0  0  0  0  0  0  0  0
  -27.3239  -28.2573   23.4636 C   0  0  0  0  0  0  0  0  0  0  0  0
  -27.9485  -23.2723   20.8216 C   0  0  0  0  0  0  0  0  0  0  0  0
  -22.8574   -9.3519   22.5890 C   0  0  0  0  0  0  0  0  0  0  0  0
  -26.1341  -14.1441   20.1227 C   0  0  0  0  0  0  0  0  0  0  0  0
  -28.3022  -15.4576   19.8370 C   0  0  0  0  0  0  0  0  0  0  0  0
  -19.1590  -26.2248   23.0192 C   0  0  0  0  0  0  0  0  0  0  0  0
  -25.2752  -28.1663   24.7498 C   0  0  0  0  0  0  0  0  0  0  0  0
  -20.5226  -26.4141   22.7240 C   0  0  0  0  0  0  0  0  0  0  0  0
  -26.1213  -28.8557   23.8695 C   0  0  0  0  0  0  0  0  0  0  0  0
  -26.9817  -22.6317   20.0465 C   0  0  0  0  0  0  0  0  0  0  0  0
  -28.5635  -24.4324   20.3509 C   0  0  0  0  0  0  0  0  0  0  0  0
  -24.4099  -12.0116   19.6105 C   0  0  0  0  0  0  0  0  0  0  0  0
  -27.6860  -26.9964   23.9368 C   0  0  0  0  0  0  0  0  0  0  0  0
  -23.4430   -9.9962   20.3354 C   0  0  0  0  0  0  0  0  0  0  0  0
  -23.1896   -8.0290   22.2971 C   0  0  0  0  0  0  0  0  0  0  0  0
  -22.9841  -10.3355   21.6081 C   0  0  0  0  0  0  0  0  0  0  0  0
  -27.0239  -15.2460   20.3875 C   0  0  0  0  0  0  0  0  0  0  0  0
  -28.7295  -16.6337   20.4032 C   0  0  0  0  0  0  0  0  0  0  0  0
  -29.0375  -14.6622   18.8977 C   0  0  0  0  0  0  0  0  0  0  0  0
  -22.8431  -29.2734   23.0287 C   0  0  0  0  0  0  0  0  0  0  0  0
  -24.1847  -32.1495   23.6998 C   0  0  0  0  0  0  0  0  0  0  0  0
  -26.9773  -33.9148   24.5552 C   0  0  0  0  0  0  0  0  0  0  0  0
  -25.3597  -21.1153   22.8729 C   0  0  0  0  0  0  0  0  0  0  0  0
  -18.1379  -27.3091   22.7818 C   0  0  0  0  0  0  0  0  0  0  0  0
  -23.9919  -28.7935   25.2209 C   0  0  0  0  0  0  0  0  0  0  0  0
  -25.7709  -30.2210   23.3389 C   0  0  0  0  0  0  0  0  0  0  0  0
  -18.7498  -28.6996   22.6318 C   0  0  0  0  0  0  0  0  0  0  0  0
  -28.2391  -19.3058   24.3345 C   0  0  0  0  0  0  0  0  0  0  0  0
  -19.9451  -28.6576   21.6852 C   0  0  0  0  0  0  0  0  0  0  0  0
  -28.3087  -18.0429   23.4775 C   0  0  0  0  0  0  0  0  0  0  0  0
  -26.8194  -19.8584   24.4160 C   0  0  0  0  0  0  0  0  0  0  0  0
  -26.2613  -18.8416   22.2322 C   0  0  0  0  0  0  0  0  0  0  0  0
  -21.0494  -27.7444   22.2312 C   0  0  1  0  0  0  0  0  0  0  0  0
  -23.4619  -29.8590   24.2663 C   0  0  1  0  0  0  0  0  0  0  0  0
  -27.6862  -18.2855   22.0915 C   0  0  2  0  0  0  0  0  0  0  0  0
  -27.7712  -36.2547   24.9937 C   0  0  0  0  0  0  0  0  0  0  0  0
  -24.1840  -32.7092   20.7004 C   0  0  0  0  0  0  0  0  0  0  0  0
  -25.8073  -34.5690   21.1177 C   0  0  0  0  0  0  0  0  0  0  0  0
  -23.5269  -34.6567   22.1251 C   0  0  0  0  0  0  0  0  0  0  0  0
  -30.1816  -26.2924   20.6371 C   0  0  0  0  0  0  0  0  0  0  0  0
  -24.4462  -22.7961   21.3173 C   0  0  0  0  0  0  0  0  0  0  0  0
  -27.7378  -33.2591   27.3392 C   0  0  0  0  0  0  0  0  0  0  0  0
  -26.3235  -21.3918   20.5497 C   0  0  0  0  0  0  0  0  0  0  0  0
  -29.9124  -24.5713   22.4297 C   0  0  0  0  0  0  0  0  0  0  0  0
  -28.9003  -25.0038   23.4774 C   0  0  0  0  0  0  0  0  0  1  0  0
  -25.2251  -33.0234   23.0421 C   0  0  1  0  0  0  0  0  0  0  0  0
  -27.2108  -34.9820   25.6093 C   0  0  2  0  0  0  0  0  0  0  0  0
  -24.6918  -33.7130   21.7546 C   0  0  0  0  0  0  0  0  0  0  0  0
  -26.6628  -16.2102   21.2383 N   0  0  0  0  0  0  0  0  0  0  0  0
  -27.7206  -17.0391   21.2267 N   0  0  0  0  0  0  0  0  0  0  0  0
  -24.5025  -30.7896   23.8240 N   0  0  0  0  0  0  0  0  0  0  0  0
  -26.2361  -20.0386   23.0861 N   0  0  0  0  0  0  0  0  0  0  0  0
  -29.8660  -17.3503   20.2722 N   0  0  0  0  0  0  0  0  0  0  0  0
  -28.8752  -14.9228   17.5302 N   0  0  0  0  0  0  0  0  0  0  0  0
  -21.7887  -28.4159   23.2786 N   0  0  0  0  0  0  0  0  0  0  0  0
  -25.6875  -33.9509   24.0689 N   0  0  0  0  0  0  0  0  0  0  0  0
  -29.5350  -25.0757   21.1292 N   0  0  3  0  0  0  0  0  0  0  0  0
  -25.3304  -21.6706   21.5847 N   0  0  0  0  0  0  0  0  0  0  0  0
  -28.1735  -34.4934   26.6367 N   0  3  0  0  0  0  0  0  0  0  0  0
  -29.8029  -13.7367   19.2597 O   0  0  0  0  0  0  0  0  0  0  0  0
  -23.2882  -29.5782   21.9283 O   0  0  0  0  0  0  0  0  0  0  0  0
  -23.1319  -32.6561   24.0955 O   0  0  0  0  0  0  0  0  0  0  0  0
  -27.8526  -33.1303   24.1963 O   0  0  0  0  0  0  0  0  0  0  0  0
  -24.6512  -21.5612   23.7845 O   0  0  0  0  0  0  0  0  0  0  0  0
  -23.5685  -10.9714   19.3602 O   0  0  0  0  0  0  0  0  0  0  0  0
  -28.8562  -26.4289   23.5360 O   0  0  0  0  0  0  0  0  0  1  0  0
  -23.0666   -7.0841   23.2385 F   0  0  0  0  0  0  0  0  0  0  0  0
  -22.6623  -11.6046   21.8941 F   0  0  0  0  0  0  0  0  0  0  0  0
  1  2  1  0  0  0  0
  1  6  2  0  0  0  0
  2  7  2  0  0  0  0
  3  9  1  0  0  0  0
  3 10  2  0  0  0  0
  4 11  2  0  0  0  0
  4 19  1  0  0  0  0
  5 12  1  0  0  0  0
  5 19  2  0  0  0  0
  6 21  1  0  0  0  0
  7 23  1  0  0  0  0
  8 13  2  0  0  0  0
  8 22  1  0  0  0  0
  9 25  2  0  0  0  0
 10 26  1  0  0  0  0
 11 27  1  0  0  0  0
 12 27  2  0  0  0  0
 13 28  1  0  0  0  0
 14 15  2  0  0  0  0
 14 29  1  0  0  0  0
 15 30  1  0  0  0  0
 16 24  1  0  0  0  0
 16 28  2  0  0  0  0
 17 25  1  0  0  0  0
 17 26  2  0  0  0  0
 18 30  2  0  0  0  0
 18 31  1  0  0  0  0
 19 32  1  0  0  0  0
 20 32  1  0  0  0  0
 20 33  2  0  0  0  0
 20 34  1  0  0  0  0
 21 23  2  0  0  0  0
 21 39  1  0  0  0  0
 22 24  2  0  0  0  0
 22 40  1  0  0  0  0
 23 48  1  0  0  0  0
 24 41  1  0  0  0  0
 25 58  1  0  0  0  0
 26 72  1  0  0  0  0
 27 80  1  0  0  0  0
 28 81  1  0  0  0  0
 29 31  2  0  0  0  0
 29 80  1  0  0  0  0
 30 82  1  0  0  0  0
 31 83  1  0  0  0  0
 32 64  2  0  0  0  0
 33 65  1  0  0  0  0
 33 68  1  0  0  0  0
 34 69  1  0  0  0  0
 34 75  2  0  0  0  0
 35 49  1  0  0  0  0
 35 70  1  0  0  0  0
 35 76  2  0  0  0  0
 36 61  1  0  0  0  0
 36 66  1  0  0  0  0
 36 77  2  0  0  0  0
 37 62  1  0  0  0  0
 37 71  1  0  0  0  0
 37 78  2  0  0  0  0
 38 67  1  0  0  0  0
 38 73  1  0  0  0  0
 38 79  2  0  0  0  0
 39 42  1  0  0  0  0
 40 49  1  0  0  0  0
 41 66  1  0  0  0  0
 42 44  1  0  0  0  0
 43 45  1  0  0  0  0
 43 46  1  0  0  0  0
 44 48  1  0  0  0  0
 45 50  1  0  0  0  0
 46 67  1  0  0  0  0
 47 50  1  0  0  0  0
 47 67  1  0  0  0  0
 48 70  1  0  0  0  0
 49 66  1  0  0  0  0
 50 65  1  0  0  0  0
 51 62  1  0  0  0  0
 52 63  1  0  0  0  0
 53 63  1  0  0  0  0
 54 63  1  0  0  0  0
 55 72  1  0  0  0  0
 56 73  1  0  0  0  0
 57 74  1  0  0  0  0
 58 73  1  0  0  0  0
 59 60  1  0  0  0  0
 59 72  1  0  0  0  0
 60 81  1  0  0  0  0
 61 63  1  0  0  0  0
 61 71  1  0  0  0  0
 62 74  1  0  0  0  0
 64 65  1  0  0  0  0
M  CHG  1  74   1
M  ISO  4  38 100  60 101  73 100  81 101
M  END
> <Batch ID>
0018

> <Smiles>
CNC(C)C(=O)NC(C(=O)N1Cc2cc([101O:1][101CH2:1]CN(C)c3cccc(C[100N:0](C)[100C:0](=O)N4CCCC(n5nc(-c6ccc(Oc7ccc(F)cc7F)cc6)c(C(N)=O)c5N)C4)c3)ccc2CC1C(=O)NC1CCCc2ccccc21)C(C)(C)C

> <Shape>
0.239

> <Color>
0.099

> <Negative vol penalty>
0.000

$$$$

  -OEChem-04042321033D

 84 92  0     1  0  0  0  0  0999 V2000
  -32.7950  -25.0357   19.8176 C   0  0  0  0  0  0  0  0  0  0  0  0
  -31.4113  -24.9894   19.9534 C   0  0  0  0  0  0  0  0  0  0  0  0
  -24.8333   -8.7175   21.4102 C   0  0  0  0  0  0  0  0  0  0  0  0
  -23.3073   -9.7969   19.8794 C   0  0  0  0  0  0  0  0  0  0  0  0
  -33.5534  -25.8222   20.6837 C   0  0  0  0  0  0  0  0  0  0  0  0
  -30.7851  -25.7288   20.9563 C   0  0  0  0  0  0  0  0  0  0  0  0
  -26.6699  -28.1657   19.2915 C   0  0  0  0  0  0  0  0  0  0  0  0
  -24.4667  -19.1925   20.2827 C   0  0  0  0  0  0  0  0  0  0  0  0
  -23.5029  -20.1592   19.9960 C   0  0  0  0  0  0  0  0  0  0  0  0
  -23.8116   -7.8642   21.8270 C   0  0  0  0  0  0  0  0  0  0  0  0
  -22.2856   -8.9435   20.2961 C   0  0  0  0  0  0  0  0  0  0  0  0
  -25.5069  -27.4142   19.1295 C   0  0  0  0  0  0  0  0  0  0  0  0
  -22.2740   -5.0768   20.6874 C   0  0  0  0  0  0  0  0  0  0  0  0
  -22.5721   -3.7197   20.8091 C   0  0  0  0  0  0  0  0  0  0  0  0
  -24.6868  -28.2388   21.2429 C   0  0  0  0  0  0  0  0  0  0  0  0
  -23.6081  -17.8074   18.4990 C   0  0  0  0  0  0  0  0  0  0  0  0
  -21.9965   -3.8036   23.1541 C   0  0  0  0  0  0  0  0  0  0  0  0
  -24.5811   -9.6839   20.4364 C   0  0  0  0  0  0  0  0  0  0  0  0
  -26.5438  -10.3541   18.9511 C   0  0  0  0  0  0  0  0  0  0  0  0
  -32.9354  -26.5792   21.6916 C   0  0  0  0  0  0  0  0  0  0  0  0
  -26.8552  -28.9523   20.4375 C   0  0  0  0  0  0  0  0  0  0  0  0
  -31.5361  -26.5251   21.8375 C   0  0  0  0  0  0  0  0  0  0  0  0
  -25.8520  -29.0014   21.4159 C   0  0  0  0  0  0  0  0  0  0  0  0
  -24.5193  -18.0166   19.5342 C   0  0  0  0  0  0  0  0  0  0  0  0
  -22.5917  -19.9500   18.9608 C   0  0  0  0  0  0  0  0  0  0  0  0
  -22.5378   -7.9772   21.2700 C   0  0  0  0  0  0  0  0  0  0  0  0
  -24.5164  -27.4483   20.1066 C   0  0  0  0  0  0  0  0  0  0  0  0
  -21.8371   -5.7974   21.7989 C   0  0  0  0  0  0  0  0  0  0  0  0
  -22.4334   -3.0831   22.0425 C   0  0  0  0  0  0  0  0  0  0  0  0
  -22.6442  -18.7741   18.2123 C   0  0  0  0  0  0  0  0  0  0  0  0
  -21.6984   -5.1608   23.0323 C   0  0  0  0  0  0  0  0  0  0  0  0
  -25.6359  -10.5660   20.0059 C   0  0  0  0  0  0  0  0  0  0  0  0
  -27.3367  -11.4756   18.9501 C   0  0  0  0  0  0  0  0  0  0  0  0
  -26.6600   -9.2430   18.0525 C   0  0  0  0  0  0  0  0  0  0  0  0
  -28.9597  -28.9850   22.8195 C   0  0  0  0  0  0  0  0  0  0  0  0
  -27.3870  -31.6966   23.6537 C   0  0  0  0  0  0  0  0  0  0  0  0
  -24.5211  -33.5441   23.5113 C   0  0  0  0  0  0  0  0  0  0  0  0
  -26.4758  -17.0855   20.8193 C   0  0  0  0  0  0  0  0  0  0  0  0
  -33.8011  -27.3775   22.6339 C   0  0  0  0  0  0  0  0  0  0  0  0
  -28.1038  -29.7780   20.5847 C   0  0  0  0  0  0  0  0  0  0  0  0
  -25.9934  -29.8456   22.6551 C   0  0  0  0  0  0  0  0  0  0  0  0
  -33.0280  -28.4238   23.4325 C   0  0  0  0  0  0  0  0  0  0  0  0
  -29.0431  -14.8580   21.8797 C   0  0  0  0  0  0  0  0  0  0  0  0
  -31.7529  -27.8189   24.0113 C   0  0  0  0  0  0  0  0  0  0  0  0
  -28.5462  -13.4861   21.4181 C   0  0  0  0  0  0  0  0  0  0  0  0
  -27.8953  -15.7457   22.3572 C   0  0  0  0  0  0  0  0  0  0  0  0
  -26.2911  -14.5230   20.9428 C   0  0  0  0  0  0  0  0  0  0  0  0
  -30.8181  -27.3324   22.8973 C   0  0  1  0  0  0  0  0  0  0  0  0
  -28.4117  -30.1425   22.0337 C   0  0  1  0  0  0  0  0  0  0  0  0
  -27.4038  -13.6165   20.3917 C   0  0  2  0  0  0  0  0  0  0  0  0
  -23.5246  -35.6998   24.3221 C   0  0  0  0  0  0  0  0  0  0  0  0
  -27.0155  -30.4791   26.4267 C   0  0  0  0  0  0  0  0  0  0  0  0
  -25.2498  -32.1982   26.8685 C   0  0  0  0  0  0  0  0  0  0  0  0
  -27.5987  -32.9110   26.4247 C   0  0  0  0  0  0  0  0  0  0  0  0
  -20.6659  -20.7058   17.5895 C   0  0  0  0  0  0  0  0  0  0  0  0
  -24.1296  -34.5361   20.7506 C   0  0  0  0  0  0  0  0  0  0  0  0
  -22.5404  -23.1769   18.9414 C   0  0  0  0  0  0  0  0  0  0  0  0
  -22.4470  -24.5022   19.6988 C   0  0  0  0  0  0  0  0  0  0  0  0
  -21.5341  -22.1434   19.4410 C   0  0  0  0  0  0  0  0  0  0  0  0
  -23.4873  -25.5015   19.2085 C   0  0  0  0  0  0  0  0  0  1  0  0
  -26.1944  -32.0167   24.5221 C   0  0  1  0  0  0  0  0  0  0  0  0
  -24.2822  -35.0101   23.1982 C   0  0  2  0  0  0  0  0  0  0  0  0
  -26.5125  -31.8837   26.0382 C   0  0  0  0  0  0  0  0  0  0  0  0
  -25.8329  -11.7305   20.6298 N   0  0  0  0  0  0  0  0  0  0  0  0
  -26.8738  -12.2604   19.9650 N   0  0  0  0  0  0  0  0  0  0  0  0
  -27.2351  -30.6302   22.7562 N   0  0  0  0  0  0  0  0  0  0  0  0
  -26.8526  -15.8261   21.3320 N   0  0  0  0  0  0  0  0  0  0  0  0
  -28.3779  -11.8572   18.1802 N   0  0  0  0  0  0  0  0  0  0  0  0
  -25.7645   -8.1740   18.1926 N   0  0  0  0  0  0  0  0  0  0  0  0
  -25.4983  -17.0347   19.8261 N   0  0  0  0  0  0  0  0  0  0  0  0
  -30.1220  -28.4504   22.2974 N   0  0  0  0  0  0  0  0  0  0  0  0
  -25.7417  -33.3443   24.1207 N   0  0  0  0  0  0  0  0  0  0  0  0
  -21.6234  -20.9229   18.6754 N   0  0  3  0  0  0  0  0  0  0  0  0
  -23.4906  -35.1495   21.9432 N   0  3  0  0  0  0  0  0  0  0  0  0
  -27.5425   -9.1919   17.1626 O   0  0  0  0  0  0  0  0  0  0  0  0
  -28.3722  -28.6058   23.8259 O   0  0  0  0  0  0  0  0  0  0  0  0
  -28.4131  -32.3727   23.7624 O   0  0  0  0  0  0  0  0  0  0  0  0
  -23.7048  -32.6646   23.2455 O   0  0  0  0  0  0  0  0  0  0  0  0
  -27.0025  -18.1298   21.2116 O   0  0  0  0  0  0  0  0  0  0  0  0
  -21.5407   -7.1445   21.6762 O   0  0  0  0  0  0  0  0  0  0  0  0
  -23.3805  -26.7152   19.9513 O   0  0  0  0  0  0  0  0  0  1  0  0
  -22.7183   -1.7794   22.1589 F   0  0  0  0  0  0  0  0  0  0  0  0
  -21.7722  -18.5622   17.2163 F   0  0  0  0  0  0  0  0  0  0  0  0
  -21.2780   -5.8476   24.1035 F   0  0  0  0  0  0  0  0  0  0  0  0
  1  2  1  0  0  0  0
  1  5  2  0  0  0  0
  2  6  2  0  0  0  0
  3 10  2  0  0  0  0
  3 18  1  0  0  0  0
  4 11  1  0  0  0  0
  4 18  2  0  0  0  0
  5 20  1  0  0  0  0
  6 22  1  0  0  0  0
  7 12  2  0  0  0  0
  7 21  1  0  0  0  0
  8  9  2  0  0  0  0
  8 24  1  0  0  0  0
  9 25  1  0  0  0  0
 10 26  1  0  0  0  0
 11 26  2  0  0  0  0
 12 27  1  0  0  0  0
 13 14  2  0  0  0  0
 13 28  1  0  0  0  0
 14 29  1  0  0  0  0
 15 23  1  0  0  0  0
 15 27  2  0  0  0  0
 16 24  2  0  0  0  0
 16 30  1  0  0  0  0
 17 29  2  0  0  0  0
 17 31  1  0  0  0  0
 18 32  1  0  0  0  0
 19 32  1  0  0  0  0
 19 33  2  0  0  0  0
 19 34  1  0  0  0  0
 20 22  2  0  0  0  0
 20 39  1  0  0  0  0
 21 23  2  0  0  0  0
 21 40  1  0  0  0  0
 22 48  1  0  0  0  0
 23 41  1  0  0  0  0
 24 70  1  0  0  0  0
 25 30  2  0  0  0  0
 25 73  1  0  0  0  0
 26 80  1  0  0  0  0
 27 81  1  0  0  0  0
 28 31  2  0  0  0  0
 28 80  1  0  0  0  0
 29 82  1  0  0  0  0
 30 83  1  0  0  0  0
 31 84  1  0  0  0  0
 32 64  2  0  0  0  0
 33 65  1  0  0  0  0
 33 68  1  0  0  0  0
 34 69  1  0  0  0  0
 34 75  2  0  0  0  0
 35 49  1  0  0  0  0
 35 71  1  0  0  0  0
 35 76  2  0  0  0  0
 36 61  1  0  0  0  0
 36 66  1  0  0  0  0
 36 77  2  0  0  0  0
 37 62  1  0  0  0  0
 37 72  1  0  0  0  0
 37 78  2  0  0  0  0
 38 67  1  0  0  0  0
 38 70  1  0  0  0  0
 38 79  2  0  0  0  0
 39 42  1  0  0  0  0
 40 49  1  0  0  0  0
 41 66  1  0  0  0  0
 42 44  1  0  0  0  0
 43 45  1  0  0  0  0
 43 46  1  0  0  0  0
 44 48  1  0  0  0  0
 45 50  1  0  0  0  0
 46 67  1  0  0  0  0
 47 50  1  0  0  0  0
 47 67  1  0  0  0  0
 48 71  1  0  0  0  0
 49 66  1  0  0  0  0
 50 65  1  0  0  0  0
 51 62  1  0  0  0  0
 52 63  1  0  0  0  0
 53 63  1  0  0  0  0
 54 63  1  0  0  0  0
 55 73  1  0  0  0  0
 56 74  1  0  0  0  0
 57 58  1  0  0  0  0
 57 59  1  0  0  0  0
 58 60  1  0  0  0  0
 59 73  1  0  0  0  0
 60 81  1  0  0  0  0
 61 63  1  0  0  0  0
 61 72  1  0  0  0  0
 62 74  1  0  0  0  0
 64 65  1  0  0  0  0
M  CHG  1  74   1
M  ISO  4  38 100  60 101  70 100  81 101
M  END
> <Batch ID>
0018

> <Smiles>
CNC(C)C(=O)NC(C(=O)N1Cc2cc([101O:1][101CH2:1]CCCN(C)c3ccc([100NH:0][100C:0](=O)N4CCCC(n5nc(-c6ccc(Oc7ccc(F)cc7F)cc6)c(C(N)=O)c5N)C4)cc3F)ccc2CC1C(=O)NC1CCCc2ccccc21)C(C)(C)C

> <Shape>
0.243

> <Color>
0.102

> <Negative vol penalty>
0.000

$$$$

  -OEChem-04042321033D

 87 96  0     1  0  0  0  0  0999 V2000
  -22.1106  -37.4078   16.0810 C   0  0  0  0  0  0  0  0  0  0  0  0
  -22.3310  -36.0568   15.8326 C   0  0  0  0  0  0  0  0  0  0  0  0
  -23.2105   -9.1222   20.4808 C   0  0  0  0  0  0  0  0  0  0  0  0
  -23.8780  -10.6076   22.2655 C   0  0  0  0  0  0  0  0  0  0  0  0
  -22.8881  -38.0777   17.0248 C   0  0  0  0  0  0  0  0  0  0  0  0
  -23.3297  -35.3752   16.5271 C   0  0  0  0  0  0  0  0  0  0  0  0
  -28.0181  -19.0614   20.0539 C   0  0  0  0  0  0  0  0  0  0  0  0
  -24.8527  -28.9034   19.1941 C   0  0  0  0  0  0  0  0  0  0  0  0
  -28.0525  -20.4553   20.0740 C   0  0  0  0  0  0  0  0  0  0  0  0
  -22.4092   -8.4101   21.3732 C   0  0  0  0  0  0  0  0  0  0  0  0
  -23.0767   -9.8955   23.1579 C   0  0  0  0  0  0  0  0  0  0  0  0
  -25.8573  -27.9370   19.1683 C   0  0  0  0  0  0  0  0  0  0  0  0
  -22.8288   -6.0659   23.7719 C   0  0  0  0  0  0  0  0  0  0  0  0
  -22.8894   -4.6732   23.7267 C   0  0  0  0  0  0  0  0  0  0  0  0
  -29.9692  -20.3830   21.5369 C   0  0  0  0  0  0  0  0  0  0  0  0
  -27.0855  -29.1779   20.8328 C   0  0  0  0  0  0  0  0  0  0  0  0
  -20.5299   -4.5870   23.2142 C   0  0  0  0  0  0  0  0  0  0  0  0
  -23.9450  -10.2210   20.9270 C   0  0  0  0  0  0  0  0  0  0  0  0
  -24.3588  -11.6301   18.8412 C   0  0  0  0  0  0  0  0  0  0  0  0
  -23.8904  -37.4016   17.7382 C   0  0  0  0  0  0  0  0  0  0  0  0
  -28.9648  -18.3123   20.7693 C   0  0  0  0  0  0  0  0  0  0  0  0
  -24.9624  -30.0217   20.0329 C   0  0  0  0  0  0  0  0  0  0  0  0
  -24.1221  -36.0370   17.4804 C   0  0  0  0  0  0  0  0  0  0  0  0
  -29.9392  -18.9801   21.5334 C   0  0  0  0  0  0  0  0  0  0  0  0
  -26.0798  -30.1557   20.8693 C   0  0  0  0  0  0  0  0  0  0  0  0
  -29.0291  -21.1158   20.8132 C   0  0  0  0  0  0  0  0  0  0  0  0
  -22.3423   -8.7967   22.7117 C   0  0  0  0  0  0  0  0  0  0  0  0
  -26.9753  -28.0756   19.9856 C   0  0  0  0  0  0  0  0  0  0  0  0
  -21.6187   -6.7193   23.5383 C   0  0  0  0  0  0  0  0  0  0  0  0
  -21.7400   -3.9337   23.4478 C   0  0  0  0  0  0  0  0  0  0  0  0
  -20.4693   -5.9799   23.2594 C   0  0  0  0  0  0  0  0  0  0  0  0
  -24.7734  -10.9566   20.0058 C   0  0  0  0  0  0  0  0  0  0  0  0
  -25.5136  -12.1644   18.3240 C   0  0  0  0  0  0  0  0  0  0  0  0
  -23.0471  -11.7610   18.2773 C   0  0  0  0  0  0  0  0  0  0  0  0
  -25.1271  -33.1627   19.5736 C   0  0  0  0  0  0  0  0  0  0  0  0
  -28.4669  -24.7978   20.3563 C   0  0  0  0  0  0  0  0  0  0  0  0
  -24.9541  -33.2524   22.8115 C   0  0  0  0  0  0  0  0  0  0  0  0
  -25.4501  -31.6523   25.7848 C   0  0  0  0  0  0  0  0  0  0  0  0
  -30.6849  -13.7873   20.6261 C   0  0  0  0  0  0  0  0  0  0  0  0
  -24.7367  -38.1794   18.7146 C   0  0  0  0  0  0  0  0  0  0  0  0
  -23.8574  -31.0417   20.0686 C   0  0  0  0  0  0  0  0  0  0  0  0
  -28.8725  -16.8054   20.7492 C   0  0  0  0  0  0  0  0  0  0  0  0
  -30.9939  -18.2242   22.3017 C   0  0  0  0  0  0  0  0  0  0  0  0
  -26.2357  -31.3274   21.8028 C   0  0  0  0  0  0  0  0  0  0  0  0
  -25.5247  -37.2946   19.6772 C   0  0  0  0  0  0  0  0  0  0  0  0
  -30.6413  -16.7542   22.5294 C   0  0  0  0  0  0  0  0  0  0  0  0
  -30.2284  -11.4306   18.1234 C   0  0  0  0  0  0  0  0  0  0  0  0
  -26.2090  -36.1603   18.9210 C   0  0  0  0  0  0  0  0  0  0  0  0
  -28.7395  -11.0959   18.2009 C   0  0  0  0  0  0  0  0  0  0  0  0
  -30.8263  -11.5788   19.5173 C   0  0  0  0  0  0  0  0  0  0  0  0
  -28.6459  -12.2851   20.4490 C   0  0  0  0  0  0  0  0  0  0  0  0
  -25.1795  -35.2571   18.2313 C   0  0  1  0  0  0  0  0  0  0  0  0
  -24.3165  -32.4021   20.5844 C   0  0  1  0  0  0  0  0  0  0  0  0
  -27.9875  -12.1248   19.0633 C   0  0  2  0  0  0  0  0  0  0  0  0
  -30.1552  -16.1186   21.2279 C   0  0  1  0  0  0  0  0  0  0  0  0
  -25.2533  -31.9947   28.2630 C   0  0  0  0  0  0  0  0  0  0  0  0
  -27.4855  -34.9556   22.7747 C   0  0  0  0  0  0  0  0  0  0  0  0
  -27.7656  -34.4676   25.2143 C   0  0  0  0  0  0  0  0  0  0  0  0
  -25.7503  -35.7010   24.4143 C   0  0  0  0  0  0  0  0  0  0  0  0
  -29.1418  -14.3084   22.5631 C   0  0  0  0  0  0  0  0  0  0  0  0
  -23.4929  -29.4482   26.0510 C   0  0  0  0  0  0  0  0  0  0  0  0
  -28.1393  -23.3397   20.1144 C   0  0  0  0  0  0  0  0  0  0  0  0
  -27.5678  -25.7964   19.6536 C   0  0  0  0  0  0  0  0  0  1  0  0
  -25.9599  -33.2271   23.9370 C   0  0  1  0  0  0  0  0  0  0  0  0
  -24.5604  -31.4951   27.0048 C   0  0  2  0  0  0  0  0  0  0  0  0
  -26.7386  -34.5666   24.0662 C   0  0  0  0  0  0  0  0  0  0  0  0
  -26.0889  -11.0527   20.2163 N   0  0  0  0  0  0  0  0  0  0  0  0
  -26.5109  -11.7927   19.1769 N   0  0  0  0  0  0  0  0  0  0  0  0
  -25.1315  -32.3012   21.7968 N   0  0  0  0  0  0  0  0  0  0  0  0
  -30.0844  -12.5595   20.3103 N   0  0  0  0  0  0  0  0  0  0  0  0
  -25.7631  -12.9111   17.2274 N   0  0  0  0  0  0  0  0  0  0  0  0
  -22.2556  -12.8482   18.6720 N   0  0  0  0  0  0  0  0  0  0  0  0
  -29.0678  -22.5027   20.8303 N   0  0  0  0  0  0  0  0  0  0  0  0
  -24.5650  -34.3659   19.1919 N   0  0  0  0  0  0  0  0  0  0  0  0
  -25.2211  -32.8473   25.1363 N   0  0  0  0  0  0  0  0  0  0  0  0
  -29.9348  -14.6892   21.3958 N   0  0  0  0  0  0  0  0  0  0  0  0
  -24.2018  -30.0623   27.2032 N   0  3  0  0  0  0  0  0  0  0  0  0
  -22.5842  -10.9292   17.4603 O   0  0  0  0  0  0  0  0  0  0  0  0
  -26.1851  -32.6934   19.1708 O   0  0  0  0  0  0  0  0  0  0  0  0
  -29.3986  -25.1603   21.0734 O   0  0  0  0  0  0  0  0  0  0  0  0
  -24.0405  -34.0808   22.8355 O   0  0  0  0  0  0  0  0  0  0  0  0
  -26.2690  -30.8017   25.4436 O   0  0  0  0  0  0  0  0  0  0  0  0
  -31.8315  -14.0609   20.2483 O   0  0  0  0  0  0  0  0  0  0  0  0
  -21.5603   -8.1022   23.5828 O   0  0  0  0  0  0  0  0  0  0  0  0
  -27.9576  -27.1341   19.9619 O   0  0  0  0  0  0  0  0  0  1  0  0
  -21.7987   -2.5963   23.4029 F   0  0  0  0  0  0  0  0  0  0  0  0
  -19.3042   -6.6020   23.0330 F   0  0  0  0  0  0  0  0  0  0  0  0
  1  2  1  0  0  0  0
  1  5  2  0  0  0  0
  2  6  2  0  0  0  0
  3 10  2  0  0  0  0
  3 18  1  0  0  0  0
  4 11  1  0  0  0  0
  4 18  2  0  0  0  0
  5 20  1  0  0  0  0
  6 23  1  0  0  0  0
  7  9  2  0  0  0  0
  7 21  1  0  0  0  0
  8 12  2  0  0  0  0
  8 22  1  0  0  0  0
  9 26  1  0  0  0  0
 10 27  1  0  0  0  0
 11 27  2  0  0  0  0
 12 28  1  0  0  0  0
 13 14  2  0  0  0  0
 13 29  1  0  0  0  0
 14 30  1  0  0  0  0
 15 24  1  0  0  0  0
 15 26  2  0  0  0  0
 16 25  1  0  0  0  0
 16 28  2  0  0  0  0
 17 30  2  0  0  0  0
 17 31  1  0  0  0  0
 18 32  1  0  0  0  0
 19 32  1  0  0  0  0
 19 33  2  0  0  0  0
 19 34  1  0  0  0  0
 20 23  2  0  0  0  0
 20 40  1  0  0  0  0
 21 24  2  0  0  0  0
 21 42  1  0  0  0  0
 22 25  2  0  0  0  0
 22 41  1  0  0  0  0
 23 52  1  0  0  0  0
 24 43  1  0  0  0  0
 25 44  1  0  0  0  0
 26 73  1  0  0  0  0
 27 84  1  0  0  0  0
 28 85  1  0  0  0  0
 29 31  2  0  0  0  0
 29 84  1  0  0  0  0
 30 86  1  0  0  0  0
 31 87  1  0  0  0  0
 32 67  2  0  0  0  0
 33 68  1  0  0  0  0
 33 71  1  0  0  0  0
 34 72  1  0  0  0  0
 34 78  2  0  0  0  0
 35 53  1  0  0  0  0
 35 74  1  0  0  0  0
 35 79  2  0  0  0  0
 36 62  1  0  0  0  0
 36 63  1  0  0  0  0
 36 80  2  0  0  0  0
 37 64  1  0  0  0  0
 37 69  1  0  0  0  0
 37 81  2  0  0  0  0
 38 65  1  0  0  0  0
 38 75  1  0  0  0  0
 38 82  2  0  0  0  0
 39 70  1  0  0  0  0
 39 76  1  0  0  0  0
 39 83  2  0  0  0  0
 40 45  1  0  0  0  0
 41 53  1  0  0  0  0
 42 55  1  0  0  0  0
 43 46  1  0  0  0  0
 44 69  1  0  0  0  0
 45 48  1  0  0  0  0
 46 55  1  0  0  0  0
 47 49  1  0  0  0  0
 47 50  1  0  0  0  0
 48 52  1  0  0  0  0
 49 54  1  0  0  0  0
 50 70  1  0  0  0  0
 51 54  1  0  0  0  0
 51 70  1  0  0  0  0
 52 74  1  0  0  0  0
 53 69  1  0  0  0  0
 54 68  1  0  0  0  0
 55 76  1  0  0  0  0
 56 65  1  0  0  0  0
 57 66  1  0  0  0  0
 58 66  1  0  0  0  0
 59 66  1  0  0  0  0
 60 76  1  0  0  0  0
 61 77  1  0  0  0  0
 62 73  1  0  0  0  0
 63 85  1  0  0  0  0
 64 66  1  0  0  0  0
 64 75  1  0  0  0  0
 65 77  1  0  0  0  0
 67 68  1  0  0  0  0
M  CHG  1  77   1
M  ISO  4  39 100  63 101  76 100  85 101
M  END
> <Batch ID>
0018

> <Smiles>
CNC(C)C(=O)NC(C(=O)N1Cc2cc([101O:1][101CH2:1]C(=O)CNc3ccc4c(c3)CCC([100N:0](C)[100C:0](=O)N3CCCC(n5nc(-c6ccc(Oc7ccc(F)cc7F)cc6)c(C(N)=O)c5N)C3)C4)ccc2CC1C(=O)NC1CCCc2ccccc21)C(C)(C)C

> <Shape>
0.329

> <Color>
0.095

> <Negative vol penalty>
0.000

$$$$

  -OEChem-04042321033D

 82 90  0     1  0  0  0  0  0999 V2000
  -21.2086   -9.9433   18.3580 C   0  0  0  0  0  0  0  0  0  0  0  0
  -21.2574  -11.2733   17.9529 C   0  0  0  0  0  0  0  0  0  0  0  0
  -27.6144  -28.0786   22.2323 C   0  0  0  0  0  0  0  0  0  0  0  0
  -26.6948  -26.8194   20.3868 C   0  0  0  0  0  0  0  0  0  0  0  0
  -21.9316   -9.5293   19.4760 C   0  0  0  0  0  0  0  0  0  0  0  0
  -22.0285  -12.1904   18.6663 C   0  0  0  0  0  0  0  0  0  0  0  0
  -25.1202  -16.9608   16.3881 C   0  0  0  0  0  0  0  0  0  0  0  0
  -21.2448  -25.6771   18.8350 C   0  0  0  0  0  0  0  0  0  0  0  0
  -21.9868  -25.8884   21.1245 C   0  0  0  0  0  0  0  0  0  0  0  0
  -22.1028  -24.5920   18.6570 C   0  0  0  0  0  0  0  0  0  0  0  0
  -22.8449  -24.8031   20.9465 C   0  0  0  0  0  0  0  0  0  0  0  0
  -28.6317  -27.1343   22.3697 C   0  0  0  0  0  0  0  0  0  0  0  0
  -27.7122  -25.8751   20.5242 C   0  0  0  0  0  0  0  0  0  0  0  0
  -24.8210  -18.3201   16.3069 C   0  0  0  0  0  0  0  0  0  0  0  0
  -28.4254  -23.2568   22.5408 C   0  0  0  0  0  0  0  0  0  0  0  0
  -28.0689  -21.9090   22.4962 C   0  0  0  0  0  0  0  0  0  0  0  0
  -26.0710  -18.7101   18.3329 C   0  0  0  0  0  0  0  0  0  0  0  0
  -29.5018  -21.5935   20.5768 C   0  0  0  0  0  0  0  0  0  0  0  0
  -26.6459  -27.9211   21.2409 C   0  0  0  0  0  0  0  0  0  0  0  0
  -25.6116  -30.0546   20.2994 C   0  0  0  0  0  0  0  0  0  0  0  0
  -22.7195  -10.4397   20.1977 C   0  0  0  0  0  0  0  0  0  0  0  0
  -25.8892  -16.4635   17.4501 C   0  0  0  0  0  0  0  0  0  0  0  0
  -22.7616  -11.7885   19.7957 C   0  0  0  0  0  0  0  0  0  0  0  0
  -26.3807  -17.3445   18.4239 C   0  0  0  0  0  0  0  0  0  0  0  0
  -21.1868  -26.3254   20.0687 C   0  0  0  0  0  0  0  0  0  0  0  0
  -22.9029  -24.1549   19.7127 C   0  0  0  0  0  0  0  0  0  0  0  0
  -28.6807  -26.0326   21.5156 C   0  0  0  0  0  0  0  0  0  0  0  0
  -25.2940  -19.1945   17.2810 C   0  0  0  0  0  0  0  0  0  0  0  0
  -29.3200  -23.7730   21.6033 C   0  0  0  0  0  0  0  0  0  0  0  0
  -28.6072  -21.0773   21.5143 C   0  0  0  0  0  0  0  0  0  0  0  0
  -29.8582  -22.9413   20.6213 C   0  0  0  0  0  0  0  0  0  0  0  0
  -25.5944  -28.8959   21.0988 C   0  0  0  0  0  0  0  0  0  0  0  0
  -24.3858  -30.6366   20.5119 C   0  0  0  0  0  0  0  0  0  0  0  0
  -26.6434  -30.5595   19.4414 C   0  0  0  0  0  0  0  0  0  0  0  0
  -25.3849  -14.3906   19.8065 C   0  0  0  0  0  0  0  0  0  0  0  0
  -28.5424  -14.8666   20.3772 C   0  0  0  0  0  0  0  0  0  0  0  0
  -31.2688  -16.8958   20.0679 C   0  0  0  0  0  0  0  0  0  0  0  0
  -19.2185  -28.0129   22.5002 C   0  0  0  0  0  0  0  0  0  0  0  0
  -23.4461   -9.9554   21.4274 C   0  0  0  0  0  0  0  0  0  0  0  0
  -26.2255  -14.9986   17.5088 C   0  0  0  0  0  0  0  0  0  0  0  0
  -27.2274  -16.8639   19.5731 C   0  0  0  0  0  0  0  0  0  0  0  0
  -24.5356  -10.9110   21.9071 C   0  0  0  0  0  0  0  0  0  0  0  0
  -20.9320  -31.0296   23.7908 C   0  0  0  0  0  0  0  0  0  0  0  0
  -24.0151  -12.3446   21.9324 C   0  0  0  0  0  0  0  0  0  0  0  0
  -22.3449  -30.8753   23.2307 C   0  0  0  0  0  0  0  0  0  0  0  0
  -20.2536  -29.6789   23.9985 C   0  0  0  0  0  0  0  0  0  0  0  0
  -21.6446  -28.6682   22.2214 C   0  0  0  0  0  0  0  0  0  0  0  0
  -23.6062  -12.8079   20.5290 C   0  0  1  0  0  0  0  0  0  0  0  0
  -26.5857  -14.5240   18.9132 C   0  0  1  0  0  0  0  0  0  0  0  0
  -22.3389  -30.0126   21.9568 C   0  0  2  0  0  0  0  0  0  0  0  0
  -33.7019  -17.0312   20.6673 C   0  0  0  0  0  0  0  0  0  0  0  0
  -27.7930  -15.5342   23.2586 C   0  0  0  0  0  0  0  0  0  0  0  0
  -30.0607  -16.5577   23.5378 C   0  0  0  0  0  0  0  0  0  0  0  0
  -29.8467  -14.1282   23.0139 C   0  0  0  0  0  0  0  0  0  0  0  0
  -18.1919  -26.3673   20.9779 C   0  0  0  0  0  0  0  0  0  0  0  0
  -32.0815  -17.0204   17.2249 C   0  0  0  0  0  0  0  0  0  0  0  0
  -20.2700  -27.4860   20.2598 C   0  0  0  0  0  0  0  0  0  0  0  0
  -23.8760  -22.3463   18.2958 C   0  0  0  0  0  0  0  0  0  0  0  0
  -24.9053  -21.2372   18.4353 C   0  0  0  0  0  0  0  0  0  1  0  0
  -29.3435  -15.8329   21.2159 C   0  0  1  0  0  0  0  0  0  0  0  0
  -32.6891  -16.6124   19.6130 C   0  0  2  0  0  0  0  0  0  0  0  0
  -29.2434  -15.5224   22.7361 C   0  0  0  0  0  0  0  0  0  0  0  0
  -24.4485  -28.7491   21.7693 N   0  0  0  0  0  0  0  0  0  0  0  0
  -23.7344  -29.8231   21.3917 N   0  0  0  0  0  0  0  0  0  0  0  0
  -27.5237  -15.4219   19.5900 N   0  0  0  0  0  0  0  0  0  0  0  0
  -20.3003  -28.8623   22.7851 N   0  0  0  0  0  0  0  0  0  0  0  0
  -23.8125  -31.7599   20.0302 N   0  0  0  0  0  0  0  0  0  0  0  0
  -27.8401  -29.8372   19.3389 N   0  0  0  0  0  0  0  0  0  0  0  0
  -23.7537  -23.0762   19.5369 N   0  0  0  0  0  0  0  0  0  0  0  0
  -24.7760  -13.1515   19.7493 N   0  0  0  0  0  0  0  0  0  0  0  0
  -30.7031  -15.8018   20.6879 N   0  0  0  0  0  0  0  0  0  0  0  0
  -19.2941  -27.2541   21.3224 N   0  0  0  0  0  0  0  0  0  0  0  0
  -32.9874  -17.3527   18.3545 N   0  3  0  0  0  0  0  0  0  0  0  0
  -26.5144  -31.6284   18.7977 O   0  0  0  0  0  0  0  0  0  0  0  0
  -25.0374  -15.3410   20.4976 O   0  0  0  0  0  0  0  0  0  0  0  0
  -28.8153  -13.6641   20.4135 O   0  0  0  0  0  0  0  0  0  0  0  0
  -30.7177  -17.9806   19.8943 O   0  0  0  0  0  0  0  0  0  0  0  0
  -18.2366  -27.9443   23.2506 O   0  0  0  0  0  0  0  0  0  0  0  0
  -29.6735  -25.1111   21.6493 O   0  0  0  0  0  0  0  0  0  0  0  0
  -25.0029  -20.5217   17.2045 O   0  0  0  0  0  0  0  0  0  1  0  0
  -28.2660  -19.7827   21.4726 F   0  0  0  0  0  0  0  0  0  0  0  0
  -30.7191  -23.4312   19.7187 F   0  0  0  0  0  0  0  0  0  0  0  0
  1  2  1  0  0  0  0
  1  5  2  0  0  0  0
  2  6  2  0  0  0  0
  3 12  2  0  0  0  0
  3 19  1  0  0  0  0
  4 13  1  0  0  0  0
  4 19  2  0  0  0  0
  5 21  1  0  0  0  0
  6 23  1  0  0  0  0
  7 14  2  0  0  0  0
  7 22  1  0  0  0  0
  8 10  2  0  0  0  0
  8 25  1  0  0  0  0
  9 11  1  0  0  0  0
  9 25  2  0  0  0  0
 10 26  1  0  0  0  0
 11 26  2  0  0  0  0
 12 27  1  0  0  0  0
 13 27  2  0  0  0  0
 14 28  1  0  0  0  0
 15 16  2  0  0  0  0
 15 29  1  0  0  0  0
 16 30  1  0  0  0  0
 17 24  1  0  0  0  0
 17 28  2  0  0  0  0
 18 30  2  0  0  0  0
 18 31  1  0  0  0  0
 19 32  1  0  0  0  0
 20 32  1  0  0  0  0
 20 33  2  0  0  0  0
 20 34  1  0  0  0  0
 21 23  2  0  0  0  0
 21 39  1  0  0  0  0
 22 24  2  0  0  0  0
 22 40  1  0  0  0  0
 23 48  1  0  0  0  0
 24 41  1  0  0  0  0
 25 57  1  0  0  0  0
 26 69  1  0  0  0  0
 27 79  1  0  0  0  0
 28 80  1  0  0  0  0
 29 31  2  0  0  0  0
 29 79  1  0  0  0  0
 30 81  1  0  0  0  0
 31 82  1  0  0  0  0
 32 63  2  0  0  0  0
 33 64  1  0  0  0  0
 33 67  1  0  0  0  0
 34 68  1  0  0  0  0
 34 74  2  0  0  0  0
 35 49  1  0  0  0  0
 35 70  1  0  0  0  0
 35 75  2  0  0  0  0
 36 60  1  0  0  0  0
 36 65  1  0  0  0  0
 36 76  2  0  0  0  0
 37 61  1  0  0  0  0
 37 71  1  0  0  0  0
 37 77  2  0  0  0  0
 38 66  1  0  0  0  0
 38 72  1  0  0  0  0
 38 78  2  0  0  0  0
 39 42  1  0  0  0  0
 40 49  1  0  0  0  0
 41 65  1  0  0  0  0
 42 44  1  0  0  0  0
 43 45  1  0  0  0  0
 43 46  1  0  0  0  0
 44 48  1  0  0  0  0
 45 50  1  0  0  0  0
 46 66  1  0  0  0  0
 47 50  1  0  0  0  0
 47 66  1  0  0  0  0
 48 70  1  0  0  0  0
 49 65  1  0  0  0  0
 50 64  1  0  0  0  0
 51 61  1  0  0  0  0
 52 62  1  0  0  0  0
 53 62  1  0  0  0  0
 54 62  1  0  0  0  0
 55 72  1  0  0  0  0
 56 73  1  0  0  0  0
 57 72  1  0  0  0  0
 58 59  1  0  0  0  0
 58 69  1  0  0  0  0
 59 80  1  0  0  0  0
 60 62  1  0  0  0  0
 60 71  1  0  0  0  0
 61 73  1  0  0  0  0
 63 64  1  0  0  0  0
M  CHG  1  73   1
M  ISO  4  38 100  59 101  72 100  80 101
M  END
> <Batch ID>
0018

> <Smiles>
CNC(C)C(=O)NC(C(=O)N1Cc2cc([101O:1][101CH2:1]CNc3ccc(C[100N:0](C)[100C:0](=O)N4CCCC(n5nc(-c6ccc(Oc7ccc(F)cc7F)cc6)c(C(N)=O)c5N)C4)cc3)ccc2CC1C(=O)NC1CCCc2ccccc21)C(C)(C)C

> <Shape>
0.242

> <Color>
0.049

> <Negative vol penalty>
0.000

$$$$

  -OEChem-04042321033D

 86 95  0     1  0  0  0  0  0999 V2000
  -16.5628  -28.5702   23.4104 C   0  0  0  0  0  0  0  0  0  0  0  0
  -17.5137  -27.6755   22.9300 C   0  0  0  0  0  0  0  0  0  0  0  0
  -23.5236  -18.8985   22.2972 C   0  0  0  0  0  0  0  0  0  0  0  0
  -22.3631  -16.8546   22.8564 C   0  0  0  0  0  0  0  0  0  0  0  0
  -16.9519  -29.8432   23.8252 C   0  0  0  0  0  0  0  0  0  0  0  0
  -18.8542  -28.0537   22.8632 C   0  0  0  0  0  0  0  0  0  0  0  0
  -23.7392  -24.4711   23.7622 C   0  0  0  0  0  0  0  0  0  0  0  0
  -28.7999  -19.1005   19.1102 C   0  0  0  0  0  0  0  0  0  0  0  0
  -29.5683  -17.9792   19.4229 C   0  0  0  0  0  0  0  0  0  0  0  0
  -22.3093  -19.4950   21.9576 C   0  0  0  0  0  0  0  0  0  0  0  0
  -21.1488  -17.4511   22.5169 C   0  0  0  0  0  0  0  0  0  0  0  0
  -24.5953  -23.8137   22.8798 C   0  0  0  0  0  0  0  0  0  0  0  0
  -19.6858  -20.8952   23.5669 C   0  0  0  0  0  0  0  0  0  0  0  0
  -19.4467  -22.1885   24.0313 C   0  0  0  0  0  0  0  0  0  0  0  0
  -26.1468  -25.6553   23.0224 C   0  0  0  0  0  0  0  0  0  0  0  0
  -29.1961  -19.9889   21.3217 C   0  0  0  0  0  0  0  0  0  0  0  0
  -19.2359  -22.9673   21.7540 C   0  0  0  0  0  0  0  0  0  0  0  0
  -23.5505  -17.5782   22.7465 C   0  0  0  0  0  0  0  0  0  0  0  0
  -25.4250  -16.9546   24.3605 C   0  0  0  0  0  0  0  0  0  0  0  0
  -18.2993  -30.2338   23.7725 C   0  0  0  0  0  0  0  0  0  0  0  0
  -24.0760  -25.7327   24.2736 C   0  0  0  0  0  0  0  0  0  0  0  0
  -19.2615  -29.3335   23.2765 C   0  0  0  0  0  0  0  0  0  0  0  0
  -25.2944  -26.3256   23.9130 C   0  0  0  0  0  0  0  0  0  0  0  0
  -28.6138  -20.1054   20.0595 C   0  0  0  0  0  0  0  0  0  0  0  0
  -30.1506  -17.8627   20.6851 C   0  0  0  0  0  0  0  0  0  0  0  0
  -21.1219  -18.7714   22.0675 C   0  0  0  0  0  0  0  0  0  0  0  0
  -25.7980  -24.4070   22.5075 C   0  0  0  0  0  0  0  0  0  0  0  0
  -19.7001  -20.6379   22.1960 C   0  0  0  0  0  0  0  0  0  0  0  0
  -19.2217  -23.2246   23.1249 C   0  0  0  0  0  0  0  0  0  0  0  0
  -29.9645  -18.8675   21.6345 C   0  0  0  0  0  0  0  0  0  0  0  0
  -19.4750  -21.6740   21.2896 C   0  0  0  0  0  0  0  0  0  0  0  0
  -24.8046  -16.9613   23.0968 C   0  0  0  0  0  0  0  0  0  0  0  0
  -26.5844  -16.2432   24.1700 C   0  0  0  0  0  0  0  0  0  0  0  0
  -24.9919  -17.5390   25.5961 C   0  0  0  0  0  0  0  0  0  0  0  0
  -22.7942  -28.6365   24.1053 C   0  0  0  0  0  0  0  0  0  0  0  0
  -25.1387  -29.3692   26.2240 C   0  0  0  0  0  0  0  0  0  0  0  0
  -28.2053  -28.6251   27.5237 C   0  0  0  0  0  0  0  0  0  0  0  0
  -30.6812  -15.4469   20.4136 C   0  0  0  0  0  0  0  0  0  0  0  0
  -18.6651  -31.6368   24.1877 C   0  0  0  0  0  0  0  0  0  0  0  0
  -23.1540  -26.4169   25.2453 C   0  0  0  0  0  0  0  0  0  0  0  0
  -25.7119  -27.6695   24.4498 C   0  0  0  0  0  0  0  0  0  0  0  0
  -20.1591  -31.8285   24.4359 C   0  0  0  0  0  0  0  0  0  0  0  0
  -28.1664  -12.9685   20.8337 C   0  0  0  0  0  0  0  0  0  0  0  0
  -30.0014  -24.1146   18.7362 C   0  0  0  0  0  0  0  0  0  0  0  0
  -20.9722  -31.2093   23.3034 C   0  0  0  0  0  0  0  0  0  0  0  0
  -27.0892  -13.7530   21.5819 C   0  0  0  0  0  0  0  0  0  0  0  0
  -28.5909  -24.6364   18.5299 C   0  0  0  0  0  0  0  0  0  0  0  0
  -28.8428  -13.8127   19.7531 C   0  0  0  0  0  0  0  0  0  0  0  0
  -28.3071  -15.8848   20.9957 C   0  0  0  0  0  0  0  0  0  0  0  0
  -29.7841  -22.6337   18.9507 C   0  0  0  0  0  0  0  0  0  0  0  0
  -20.7288  -29.6981   23.2119 C   0  0  1  0  0  0  0  0  0  0  0  0
  -23.3606  -27.9273   25.3027 C   0  0  1  0  0  0  0  0  0  0  0  0
  -27.6496  -15.0786   22.1268 C   0  0  1  0  0  0  0  0  0  0  0  0
  -27.7285  -23.8400   19.5089 C   0  0  2  0  0  0  0  0  0  0  0  0
  -29.8744  -29.4273   29.2172 C   0  0  0  0  0  0  0  0  0  0  0  0
  -25.9692  -31.6181   24.3366 C   0  0  0  0  0  0  0  0  0  0  0  0
  -28.1458  -31.7523   25.5664 C   0  0  0  0  0  0  0  0  0  0  0  0
  -26.0083  -32.2244   26.7625 C   0  0  0  0  0  0  0  0  0  0  0  0
  -32.1830  -16.8886   21.7706 C   0  0  0  0  0  0  0  0  0  0  0  0
  -28.0336  -26.1013   29.0598 C   0  0  0  0  0  0  0  0  0  0  0  0
  -27.7864  -21.3110   19.7238 C   0  0  0  0  0  0  0  0  0  0  0  0
  -27.4513  -24.5843   20.8072 C   0  0  0  0  0  0  0  0  0  1  0  0
  -26.5672  -29.8451   26.1155 C   0  0  1  0  0  0  0  0  0  0  0  0
  -28.6904  -28.5089   28.9574 C   0  0  2  0  0  0  0  0  0  0  0  0
  -26.6642  -31.3355   25.6835 C   0  0  0  0  0  0  0  0  0  0  0  0
  -25.5114  -16.3063   22.1719 N   0  0  0  0  0  0  0  0  0  0  0  0
  -26.5880  -15.8815   22.8550 N   0  0  0  0  0  0  0  0  0  0  0  0
  -24.7735  -28.3015   25.3919 N   0  0  0  0  0  0  0  0  0  0  0  0
  -29.3250  -15.0842   20.3109 N   0  0  0  0  0  0  0  0  0  0  0  0
  -27.5909  -15.8982   25.0008 N   0  0  0  0  0  0  0  0  0  0  0  0
  -23.7759  -18.2356   25.6157 N   0  0  0  0  0  0  0  0  0  0  0  0
  -21.4692  -29.0035   24.2434 N   0  0  0  0  0  0  0  0  0  0  0  0
  -27.1933  -29.5536   27.4006 N   0  0  0  0  0  0  0  0  0  0  0  0
  -30.9452  -16.7005   21.0063 N   0  0  0  0  0  0  0  0  0  0  0  0
  -28.5511  -22.5928   19.8229 N   0  3  1  0  0  0  0  0  0  0  0  0
  -29.1083  -27.1089   29.2510 N   0  3  0  0  0  0  0  0  0  0  0  0
  -25.6713  -17.4603   26.6476 O   0  0  0  0  0  0  0  0  0  0  0  0
  -23.5071  -28.8373   23.1289 O   0  0  0  0  0  0  0  0  0  0  0  0
  -24.3769  -29.9197   27.0230 O   0  0  0  0  0  0  0  0  0  0  0  0
  -28.6794  -27.9616   26.6042 O   0  0  0  0  0  0  0  0  0  0  0  0
  -31.5875  -14.6977   20.0298 O   0  0  0  0  0  0  0  0  0  0  0  0
  -19.9368  -19.3532   21.7365 O   0  0  0  0  0  0  0  0  0  0  0  0
  -26.6351  -23.7677   21.6459 O   0  0  0  0  0  0  0  0  0  1  0  0
  -18.9905  -24.4662   23.5711 F   0  0  0  0  0  0  0  0  0  0  0  0
  -30.5182  -18.7653   22.8512 F   0  0  0  0  0  0  0  0  0  0  0  0
  -19.4863  -21.4327   19.9715 F   0  0  0  0  0  0  0  0  0  0  0  0
  1  2  1  0  0  0  0
  1  5  2  0  0  0  0
  2  6  2  0  0  0  0
  3 10  2  0  0  0  0
  3 18  1  0  0  0  0
  4 11  1  0  0  0  0
  4 18  2  0  0  0  0
  5 20  1  0  0  0  0
  6 22  1  0  0  0  0
  7 12  2  0  0  0  0
  7 21  1  0  0  0  0
  8  9  2  0  0  0  0
  8 24  1  0  0  0  0
  9 25  1  0  0  0  0
 10 26  1  0  0  0  0
 11 26  2  0  0  0  0
 12 27  1  0  0  0  0
 13 14  2  0  0  0  0
 13 28  1  0  0  0  0
 14 29  1  0  0  0  0
 15 23  1  0  0  0  0
 15 27  2  0  0  0  0
 16 24  2  0  0  0  0
 16 30  1  0  0  0  0
 17 29  2  0  0  0  0
 17 31  1  0  0  0  0
 18 32  1  0  0  0  0
 19 32  1  0  0  0  0
 19 33  2  0  0  0  0
 19 34  1  0  0  0  0
 20 22  2  0  0  0  0
 20 39  1  0  0  0  0
 21 23  2  0  0  0  0
 21 40  1  0  0  0  0
 22 51  1  0  0  0  0
 23 41  1  0  0  0  0
 24 61  1  0  0  0  0
 25 30  2  0  0  0  0
 25 74  1  0  0  0  0
 26 82  1  0  0  0  0
 27 83  1  0  0  0  0
 28 31  2  0  0  0  0
 28 82  1  0  0  0  0
 29 84  1  0  0  0  0
 30 85  1  0  0  0  0
 31 86  1  0  0  0  0
 32 66  2  0  0  0  0
 33 67  1  0  0  0  0
 33 70  1  0  0  0  0
 34 71  1  0  0  0  0
 34 77  2  0  0  0  0
 35 52  1  0  0  0  0
 35 72  1  0  0  0  0
 35 78  2  0  0  0  0
 36 63  1  0  0  0  0
 36 68  1  0  0  0  0
 36 79  2  0  0  0  0
 37 64  1  0  0  0  0
 37 73  1  0  0  0  0
 37 80  2  0  0  0  0
 38 69  1  0  0  0  0
 38 74  1  0  0  0  0
 38 81  2  0  0  0  0
 39 42  1  0  0  0  0
 40 52  1  0  0  0  0
 41 68  1  0  0  0  0
 42 45  1  0  0  0  0
 43 46  1  0  0  0  0
 43 48  1  0  0  0  0
 44 47  1  0  0  0  0
 44 50  1  0  0  0  0
 45 51  1  0  0  0  0
 46 53  1  0  0  0  0
 47 54  1  0  0  0  0
 48 69  1  0  0  0  0
 49 53  1  0  0  0  0
 49 69  1  0  0  0  0
 50 75  1  0  0  0  0
 51 72  1  0  0  0  0
 52 68  1  0  0  0  0
 53 67  1  0  0  0  0
 54 62  1  0  0  0  0
 54 75  1  0  0  0  0
 55 64  1  0  0  0  0
 56 65  1  0  0  0  0
 57 65  1  0  0  0  0
 58 65  1  0  0  0  0
 59 74  1  0  0  0  0
 60 76  1  0  0  0  0
 61 75  1  0  0  0  0
 62 83  1  0  0  0  0
 63 65  1  0  0  0  0
 63 73  1  0  0  0  0
 64 76  1  0  0  0  0
 66 67  1  0  0  0  0
M  CHG  2  75   1  76   1
M  ISO  4  38 100  62 101  74 100  83 101
M  END
> <Batch ID>
0018

> <Smiles>
CNC(C)C(=O)NC(C(=O)N1Cc2cc([101O:1][101CH2:1]C3CCCN3Cc3ccc([100N:0](C)[100C:0](=O)N4CCCC(n5nc(-c6ccc(Oc7ccc(F)cc7F)cc6)c(C(N)=O)c5N)C4)c(F)c3)ccc2CC1C(=O)NC1CCCc2ccccc21)C(C)(C)C

> <Shape>
0.199

> <Color>
0.070

> <Negative vol penalty>
0.000

$$$$

  -OEChem-04042321033D

 88 97  0     1  0  0  0  0  0999 V2000
  -28.5510  -36.5997   24.3948 C   0  0  0  0  0  0  0  0  0  0  0  0
  -28.9391  -35.7929   23.3300 C   0  0  0  0  0  0  0  0  0  0  0  0
  -22.3712  -16.5083   21.5570 C   0  0  0  0  0  0  0  0  0  0  0  0
  -23.4675  -17.6969   19.7619 C   0  0  0  0  0  0  0  0  0  0  0  0
  -27.8215  -36.0550   25.4508 C   0  0  0  0  0  0  0  0  0  0  0  0
  -28.5989  -34.4407   23.3210 C   0  0  0  0  0  0  0  0  0  0  0  0
  -26.8964  -29.1419   18.8109 C   0  0  0  0  0  0  0  0  0  0  0  0
  -28.2633  -17.5901   17.8129 C   0  0  0  0  0  0  0  0  0  0  0  0
  -27.4592  -18.7298   17.8026 C   0  0  0  0  0  0  0  0  0  0  0  0
  -21.3809  -17.4896   21.6020 C   0  0  0  0  0  0  0  0  0  0  0  0
  -22.4772  -18.6782   19.8068 C   0  0  0  0  0  0  0  0  0  0  0  0
  -27.2663  -27.8352   18.4958 C   0  0  0  0  0  0  0  0  0  0  0  0
  -21.7128  -21.3605   21.7178 C   0  0  0  0  0  0  0  0  0  0  0  0
  -22.1195  -22.6940   21.6753 C   0  0  0  0  0  0  0  0  0  0  0  0
  -25.9357  -27.0212   20.3360 C   0  0  0  0  0  0  0  0  0  0  0  0
  -29.3140  -20.0458   18.6180 C   0  0  0  0  0  0  0  0  0  0  0  0
  -20.8428  -23.0189   19.6501 C   0  0  0  0  0  0  0  0  0  0  0  0
  -23.4145  -16.6120   20.6370 C   0  0  0  0  0  0  0  0  0  0  0  0
  -24.2644  -14.2263   20.3304 C   0  0  0  0  0  0  0  0  0  0  0  0
  -27.4639  -34.6975   25.4502 C   0  0  0  0  0  0  0  0  0  0  0  0
  -26.0506  -29.3994   19.8994 C   0  0  0  0  0  0  0  0  0  0  0  0
  -27.8652  -33.8770   24.3787 C   0  0  0  0  0  0  0  0  0  0  0  0
  -25.5545  -28.3319   20.6613 C   0  0  0  0  0  0  0  0  0  0  0  0
  -29.5927  -17.6782   18.2259 C   0  0  0  0  0  0  0  0  0  0  0  0
  -27.9845  -19.9576   18.2051 C   0  0  0  0  0  0  0  0  0  0  0  0
  -21.4339  -18.5745   20.7269 C   0  0  0  0  0  0  0  0  0  0  0  0
  -26.7883  -26.7748   19.2602 C   0  0  0  0  0  0  0  0  0  0  0  0
  -20.8712  -20.8561   20.7263 C   0  0  0  0  0  0  0  0  0  0  0  0
  -21.6845  -23.5233   20.6415 C   0  0  0  0  0  0  0  0  0  0  0  0
  -30.1181  -18.9060   18.6284 C   0  0  0  0  0  0  0  0  0  0  0  0
  -20.4362  -21.6853   19.6925 C   0  0  0  0  0  0  0  0  0  0  0  0
  -24.4381  -15.5989   20.5904 C   0  0  0  0  0  0  0  0  0  0  0  0
  -25.5315  -13.7008   20.3990 C   0  0  0  0  0  0  0  0  0  0  0  0
  -27.5442  -22.4275   18.5721 C   0  0  0  0  0  0  0  0  0  0  0  0
  -23.0649  -13.4920   20.0516 C   0  0  0  0  0  0  0  0  0  0  0  0
  -26.3310  -31.0084   22.6264 C   0  0  0  0  0  0  0  0  0  0  0  0
  -23.1760  -30.3101   22.9102 C   0  0  0  0  0  0  0  0  0  0  0  0
  -30.9509  -16.1806   19.6287 C   0  0  0  0  0  0  0  0  0  0  0  0
  -20.5728  -28.2706   22.0673 C   0  0  0  0  0  0  0  0  0  0  0  0
  -26.7155  -34.1434   26.6366 C   0  0  0  0  0  0  0  0  0  0  0  0
  -25.6396  -30.8126   20.2099 C   0  0  0  0  0  0  0  0  0  0  0  0
  -24.6277  -28.5534   21.8276 C   0  0  0  0  0  0  0  0  0  0  0  0
  -26.0727  -32.7845   26.3708 C   0  0  0  0  0  0  0  0  0  0  0  0
  -29.7689  -14.3850   22.4955 C   0  0  0  0  0  0  0  0  0  0  0  0
  -27.0632  -31.8511   25.6819 C   0  0  0  0  0  0  0  0  0  0  0  0
  -28.2505  -14.3927   22.3230 C   0  0  0  0  0  0  0  0  0  0  0  0
  -25.1861  -22.3807   18.2535 C   0  0  0  0  0  0  0  0  0  0  0  0
  -30.3954  -15.6789   21.9854 C   0  0  0  0  0  0  0  0  0  0  0  0
  -25.7893  -21.0947   17.7248 C   0  0  0  0  0  0  0  0  0  0  0  0
  -28.5306  -16.0130   20.3939 C   0  0  0  0  0  0  0  0  0  0  0  0
  -27.4939  -32.4111   24.3208 C   0  0  1  0  0  0  0  0  0  0  0  0
  -26.3677  -23.3395   18.2635 C   0  0  1  0  0  0  0  0  0  0  0  0
  -25.1854  -30.9991   21.6543 C   0  0  1  0  0  0  0  0  0  0  0  0
  -27.8611  -14.7111   20.8686 C   0  0  2  0  0  0  0  0  0  0  0  0
  -18.1221  -27.9295   22.4857 C   0  0  0  0  0  0  0  0  0  0  0  0
  -29.7414  -15.1199   17.8507 C   0  0  0  0  0  0  0  0  0  0  0  0
  -23.8100  -29.1404   25.6561 C   0  0  0  0  0  0  0  0  0  0  0  0
  -21.5845  -27.9947   25.6048 C   0  0  0  0  0  0  0  0  0  0  0  0
  -21.7043  -30.4859   25.5563 C   0  0  0  0  0  0  0  0  0  0  0  0
  -19.9130  -28.6532   19.2077 C   0  0  0  0  0  0  0  0  0  0  0  0
  -26.2118  -24.4675   19.2660 C   0  0  0  0  0  0  0  0  0  1  0  0
  -31.7260  -16.6093   17.3451 C   0  0  0  0  0  0  0  0  0  0  0  0
  -22.3822  -29.1722   23.5052 C   0  0  1  0  0  0  0  0  0  0  0  0
  -19.1652  -28.5791   21.5898 C   0  0  2  0  0  0  0  0  0  0  0  0
  -30.4497  -16.4573   18.2336 C   0  0  1  0  0  0  0  0  0  0  0  0
  -22.3893  -29.1940   25.0599 C   0  0  0  0  0  0  0  0  0  0  0  0
  -25.7149  -15.9249   20.8082 N   0  0  0  0  0  0  0  0  0  0  0  0
  -26.3550  -14.7497   20.6852 N   0  0  0  0  0  0  0  0  0  0  0  0
  -27.1613  -21.1234   18.1964 N   0  0  0  0  0  0  0  0  0  0  0  0
  -24.2597  -29.9536   22.0952 N   0  0  0  0  0  0  0  0  0  0  0  0
  -29.9833  -15.9576   20.6085 N   0  0  0  0  0  0  0  0  0  0  0  0
  -26.0105  -12.4485   20.2420 N   0  0  0  0  0  0  0  0  0  0  0  0
  -22.6580  -13.3588   18.7171 N   0  0  0  0  0  0  0  0  0  0  0  0
  -26.4600  -32.1890   23.3329 N   0  0  0  0  0  0  0  0  0  0  0  0
  -21.0513  -29.2493   22.9126 N   0  0  0  0  0  0  0  0  0  0  0  0
  -31.3660  -16.8596   15.9260 N   0  3  0  0  0  0  0  0  0  0  0  0
  -18.9684  -28.0785   20.1999 N   0  3  0  0  0  0  0  0  0  0  0  0
  -28.6123  -22.8357   19.0044 O   0  0  0  0  0  0  0  0  0  0  0  0
  -22.3656  -12.9834   20.9604 O   0  0  0  0  0  0  0  0  0  0  0  0
  -27.0443  -30.0172   22.7291 O   0  0  0  0  0  0  0  0  0  0  0  0
  -22.8424  -31.4725   23.1537 O   0  0  0  0  0  0  0  0  0  0  0  0
  -32.1665  -16.1606   19.8387 O   0  0  0  0  0  0  0  0  0  0  0  0
  -21.1851  -27.2605   21.7276 O   0  0  0  0  0  0  0  0  0  0  0  0
  -20.4677  -19.5321   20.7703 O   0  0  0  0  0  0  0  0  0  0  0  0
  -27.1483  -25.4984   18.9552 O   0  0  0  0  0  0  0  0  0  1  0  0
  -22.0739  -24.8043   20.6017 F   0  0  0  0  0  0  0  0  0  0  0  0
  -31.3943  -19.0007   19.0267 F   0  0  0  0  0  0  0  0  0  0  0  0
  -19.6266  -21.2068   18.7379 F   0  0  0  0  0  0  0  0  0  0  0  0
  1  2  1  0  0  0  0
  1  5  2  0  0  0  0
  2  6  2  0  0  0  0
  3 10  2  0  0  0  0
  3 18  1  0  0  0  0
  4 11  1  0  0  0  0
  4 18  2  0  0  0  0
  5 20  1  0  0  0  0
  6 22  1  0  0  0  0
  7 12  2  0  0  0  0
  7 21  1  0  0  0  0
  8  9  2  0  0  0  0
  8 24  1  0  0  0  0
  9 25  1  0  0  0  0
 10 26  1  0  0  0  0
 11 26  2  0  0  0  0
 12 27  1  0  0  0  0
 13 14  2  0  0  0  0
 13 28  1  0  0  0  0
 14 29  1  0  0  0  0
 15 23  1  0  0  0  0
 15 27  2  0  0  0  0
 16 25  2  0  0  0  0
 16 30  1  0  0  0  0
 17 29  2  0  0  0  0
 17 31  1  0  0  0  0
 18 32  1  0  0  0  0
 19 32  1  0  0  0  0
 19 33  2  0  0  0  0
 19 35  1  0  0  0  0
 20 22  2  0  0  0  0
 20 40  1  0  0  0  0
 21 23  2  0  0  0  0
 21 41  1  0  0  0  0
 22 51  1  0  0  0  0
 23 42  1  0  0  0  0
 24 30  2  0  0  0  0
 24 65  1  0  0  0  0
 25 69  1  0  0  0  0
 26 84  1  0  0  0  0
 27 85  1  0  0  0  0
 28 31  2  0  0  0  0
 28 84  1  0  0  0  0
 29 86  1  0  0  0  0
 30 87  1  0  0  0  0
 31 88  1  0  0  0  0
 32 67  2  0  0  0  0
 33 68  1  0  0  0  0
 33 72  1  0  0  0  0
 34 52  1  0  0  0  0
 34 69  1  0  0  0  0
 34 78  2  0  0  0  0
 35 73  1  0  0  0  0
 35 79  2  0  0  0  0
 36 53  1  0  0  0  0
 36 74  1  0  0  0  0
 36 80  2  0  0  0  0
 37 63  1  0  0  0  0
 37 70  1  0  0  0  0
 37 81  2  0  0  0  0
 38 65  1  0  0  0  0
 38 71  1  0  0  0  0
 38 82  2  0  0  0  0
 39 64  1  0  0  0  0
 39 75  1  0  0  0  0
 39 83  2  0  0  0  0
 40 43  1  0  0  0  0
 41 53  1  0  0  0  0
 42 70  1  0  0  0  0
 43 45  1  0  0  0  0
 44 46  1  0  0  0  0
 44 48  1  0  0  0  0
 45 51  1  0  0  0  0
 46 54  1  0  0  0  0
 47 49  1  0  0  0  0
 47 52  1  0  0  0  0
 48 71  1  0  0  0  0
 49 69  1  0  0  0  0
 50 54  1  0  0  0  0
 50 71  1  0  0  0  0
 51 74  1  0  0  0  0
 52 61  1  0  0  0  0
 53 70  1  0  0  0  0
 54 68  1  0  0  0  0
 55 64  1  0  0  0  0
 56 65  1  0  0  0  0
 57 66  1  0  0  0  0
 58 66  1  0  0  0  0
 59 66  1  0  0  0  0
 60 77  1  0  0  0  0
 61 85  1  0  0  0  0
 62 65  1  0  0  0  0
 62 76  1  0  0  0  0
 63 66  1  0  0  0  0
 63 75  1  0  0  0  0
 64 77  1  0  0  0  0
 67 68  1  0  0  0  0
M  CHG  2  76   1  77   1
M  ISO  4  38 100  61 101  65 100  85 101
M  END
> <Batch ID>
0018

> <Smiles>
CNC(C)C(=O)NC(C(=O)N1Cc2cc([101O:1][101CH2:1]C3CCN(c4ccc([100C:0](C)(CN)[100C:0](=O)N5CCCC(n6nc(-c7ccc(Oc8ccc(F)cc8F)cc7)c(C(N)=O)c6N)C5)c(F)c4)C3=O)ccc2CC1C(=O)NC1CCCc2ccccc21)C(C)(C)C

> <Shape>
0.247

> <Color>
0.078

> <Negative vol penalty>
0.000

$$$$

  -OEChem-04042321033D

 83 91  0     1  0  0  0  0  0999 V2000
  -28.3287  -38.0367   24.2618 C   0  0  0  0  0  0  0  0  0  0  0  0
  -28.7520  -36.9838   23.4570 C   0  0  0  0  0  0  0  0  0  0  0  0
  -26.4990  -12.5857   21.6256 C   0  0  0  0  0  0  0  0  0  0  0  0
  -26.1065  -13.6175   19.4765 C   0  0  0  0  0  0  0  0  0  0  0  0
  -27.4166  -37.8034   25.2902 C   0  0  0  0  0  0  0  0  0  0  0  0
  -28.2643  -35.6968   23.6809 C   0  0  0  0  0  0  0  0  0  0  0  0
  -27.1086  -31.4119   19.4607 C   0  0  0  0  0  0  0  0  0  0  0  0
  -28.5584  -23.6715   18.8778 C   0  0  0  0  0  0  0  0  0  0  0  0
  -29.0454  -22.6232   19.6584 C   0  0  0  0  0  0  0  0  0  0  0  0
  -25.2362  -11.9956   21.5729 C   0  0  0  0  0  0  0  0  0  0  0  0
  -24.8437  -13.0274   19.4239 C   0  0  0  0  0  0  0  0  0  0  0  0
  -27.8411  -30.3125   19.0153 C   0  0  0  0  0  0  0  0  0  0  0  0
  -22.2590   -9.9265   21.8384 C   0  0  0  0  0  0  0  0  0  0  0  0
  -22.1562   -8.5818   22.1945 C   0  0  0  0  0  0  0  0  0  0  0  0
  -26.6173  -28.8903   20.5315 C   0  0  0  0  0  0  0  0  0  0  0  0
  -28.3009  -22.1610   17.0099 C   0  0  0  0  0  0  0  0  0  0  0  0
  -23.6846   -7.9944   20.4180 C   0  0  0  0  0  0  0  0  0  0  0  0
  -26.9341  -13.3967   20.5774 C   0  0  0  0  0  0  0  0  0  0  0  0
  -29.4484  -13.4703   20.1526 C   0  0  0  0  0  0  0  0  0  0  0  0
  -26.9101  -36.5147   25.5207 C   0  0  0  0  0  0  0  0  0  0  0  0
  -26.1308  -31.2604   20.4544 C   0  0  0  0  0  0  0  0  0  0  0  0
  -27.3456  -35.4458   24.7142 C   0  0  0  0  0  0  0  0  0  0  0  0
  -25.8720  -29.9890   20.9860 C   0  0  0  0  0  0  0  0  0  0  0  0
  -28.1860  -23.4404   17.5535 C   0  0  0  0  0  0  0  0  0  0  0  0
  -29.1603  -21.3438   19.1148 C   0  0  0  0  0  0  0  0  0  0  0  0
  -24.4085  -12.2165   20.4721 C   0  0  0  0  0  0  0  0  0  0  0  0
  -27.5975  -29.0519   19.5527 C   0  0  0  0  0  0  0  0  0  0  0  0
  -23.0746  -10.3052   20.7721 C   0  0  0  0  0  0  0  0  0  0  0  0
  -22.8690   -7.6158   21.4844 C   0  0  0  0  0  0  0  0  0  0  0  0
  -28.7880  -21.1126   17.7905 C   0  0  0  0  0  0  0  0  0  0  0  0
  -23.7874   -9.3392   20.0619 C   0  0  0  0  0  0  0  0  0  0  0  0
  -28.2383  -14.0069   20.6315 C   0  0  0  0  0  0  0  0  0  0  0  0
  -30.3876  -14.4301   20.4410 C   0  0  0  0  0  0  0  0  0  0  0  0
  -29.7010  -12.2163   19.5049 C   0  0  0  0  0  0  0  0  0  0  0  0
  -25.7254  -32.3985   23.3945 C   0  0  0  0  0  0  0  0  0  0  0  0
  -22.8596  -30.8968   23.1609 C   0  0  0  0  0  0  0  0  0  0  0  0
  -20.9829  -28.4467   21.7043 C   0  0  0  0  0  0  0  0  0  0  0  0
  -30.0687  -20.3431   21.2408 C   0  0  0  0  0  0  0  0  0  0  0  0
  -25.9621  -36.3029   26.6744 C   0  0  0  0  0  0  0  0  0  0  0  0
  -25.3308  -32.4517   20.9050 C   0  0  0  0  0  0  0  0  0  0  0  0
  -24.8190  -29.7696   22.0404 C   0  0  0  0  0  0  0  0  0  0  0  0
  -25.2073  -34.9777   26.6072 C   0  0  0  0  0  0  0  0  0  0  0  0
  -31.3145  -17.9449   23.5589 C   0  0  0  0  0  0  0  0  0  0  0  0
  -26.1632  -33.8348   26.2802 C   0  0  0  0  0  0  0  0  0  0  0  0
  -30.7822  -16.6134   23.0243 C   0  0  0  0  0  0  0  0  0  0  0  0
  -30.3072  -19.0770   23.3657 C   0  0  0  0  0  0  0  0  0  0  0  0
  -29.2767  -17.9058   21.4590 C   0  0  0  0  0  0  0  0  0  0  0  0
  -26.8204  -34.0402   24.9100 C   0  0  1  0  0  0  0  0  0  0  0  0
  -24.7158  -32.2696   22.2892 C   0  0  1  0  0  0  0  0  0  0  0  0
  -30.2823  -16.7484   21.5726 C   0  0  2  0  0  0  0  0  0  0  0  0
  -18.6853  -27.4383   21.7455 C   0  0  0  0  0  0  0  0  0  0  0  0
  -23.5347  -29.4715   25.7730 C   0  0  0  0  0  0  0  0  0  0  0  0
  -21.7104  -27.8326   25.2691 C   0  0  0  0  0  0  0  0  0  0  0  0
  -21.1636  -30.2453   25.5893 C   0  0  0  0  0  0  0  0  0  0  0  0
  -27.3053  -24.2505   15.3791 C   0  0  0  0  0  0  0  0  0  0  0  0
  -20.5037  -29.1347   18.8660 C   0  0  0  0  0  0  0  0  0  0  0  0
  -28.8784  -26.5734   17.2581 C   0  0  0  0  0  0  0  0  0  0  0  0
  -27.5508  -25.8266   17.3036 C   0  0  0  0  0  0  0  0  0  0  0  0
  -28.7736  -28.0051   17.7703 C   0  0  0  0  0  0  0  0  0  1  0  0
  -22.3490  -29.5124   23.4798 C   0  0  1  0  0  0  0  0  0  0  0  0
  -19.5927  -28.4708   21.0949 C   0  0  2  0  0  0  0  0  0  0  0  0
  -22.2107  -29.2696   25.0093 C   0  0  0  0  0  0  0  0  0  0  0  0
  -28.3917  -15.2139   21.1824 N   0  0  0  0  0  0  0  0  0  0  0  0
  -29.7093  -15.4437   21.0516 N   0  0  0  0  0  0  0  0  0  0  0  0
  -24.0677  -30.9667   22.4527 N   0  0  0  0  0  0  0  0  0  0  0  0
  -29.8818  -19.1474   21.9660 N   0  0  0  0  0  0  0  0  0  0  0  0
  -31.7192  -14.4975   20.2294 N   0  0  0  0  0  0  0  0  0  0  0  0
  -28.6227  -11.3483   19.2859 N   0  0  0  0  0  0  0  0  0  0  0  0
  -29.6559  -20.2810   19.9103 N   0  0  0  0  0  0  0  0  0  0  0  0
  -25.8987  -33.6915   23.8501 N   0  0  0  0  0  0  0  0  0  0  0  0
  -21.1046  -29.3547   22.7349 N   0  0  0  0  0  0  0  0  0  0  0  0
  -27.6958  -24.4942   16.7690 N   0  0  3  0  0  0  0  0  0  0  0  0
  -19.6623  -28.1817   19.6346 N   0  3  0  0  0  0  0  0  0  0  0  0
  -30.8517  -11.8687   19.1462 O   0  0  0  0  0  0  0  0  0  0  0  0
  -26.3032  -31.3988   23.8047 O   0  0  0  0  0  0  0  0  0  0  0  0
  -22.2070  -31.8798   23.5204 O   0  0  0  0  0  0  0  0  0  0  0  0
  -21.8708  -27.6948   21.3084 O   0  0  0  0  0  0  0  0  0  0  0  0
  -30.5840  -21.3397   21.7541 O   0  0  0  0  0  0  0  0  0  0  0  0
  -23.1763  -11.6407   20.4203 O   0  0  0  0  0  0  0  0  0  0  0  0
  -28.3115  -27.9772   19.1201 O   0  0  0  0  0  0  0  0  0  1  0  0
  -22.7713   -6.3247   21.8274 F   0  0  0  0  0  0  0  0  0  0  0  0
  -28.8947  -19.8870   17.2577 F   0  0  0  0  0  0  0  0  0  0  0  0
  -24.5735   -9.6970   19.0373 F   0  0  0  0  0  0  0  0  0  0  0  0
  1  2  1  0  0  0  0
  1  5  2  0  0  0  0
  2  6  2  0  0  0  0
  3 10  2  0  0  0  0
  3 18  1  0  0  0  0
  4 11  1  0  0  0  0
  4 18  2  0  0  0  0
  5 20  1  0  0  0  0
  6 22  1  0  0  0  0
  7 12  2  0  0  0  0
  7 21  1  0  0  0  0
  8  9  2  0  0  0  0
  8 24  1  0  0  0  0
  9 25  1  0  0  0  0
 10 26  1  0  0  0  0
 11 26  2  0  0  0  0
 12 27  1  0  0  0  0
 13 14  2  0  0  0  0
 13 28  1  0  0  0  0
 14 29  1  0  0  0  0
 15 23  1  0  0  0  0
 15 27  2  0  0  0  0
 16 24  2  0  0  0  0
 16 30  1  0  0  0  0
 17 29  2  0  0  0  0
 17 31  1  0  0  0  0
 18 32  1  0  0  0  0
 19 32  1  0  0  0  0
 19 33  2  0  0  0  0
 19 34  1  0  0  0  0
 20 22  2  0  0  0  0
 20 39  1  0  0  0  0
 21 23  2  0  0  0  0
 21 40  1  0  0  0  0
 22 48  1  0  0  0  0
 23 41  1  0  0  0  0
 24 72  1  0  0  0  0
 25 30  2  0  0  0  0
 25 69  1  0  0  0  0
 26 79  1  0  0  0  0
 27 80  1  0  0  0  0
 28 31  2  0  0  0  0
 28 79  1  0  0  0  0
 29 81  1  0  0  0  0
 30 82  1  0  0  0  0
 31 83  1  0  0  0  0
 32 63  2  0  0  0  0
 33 64  1  0  0  0  0
 33 67  1  0  0  0  0
 34 68  1  0  0  0  0
 34 74  2  0  0  0  0
 35 49  1  0  0  0  0
 35 70  1  0  0  0  0
 35 75  2  0  0  0  0
 36 60  1  0  0  0  0
 36 65  1  0  0  0  0
 36 76  2  0  0  0  0
 37 61  1  0  0  0  0
 37 71  1  0  0  0  0
 37 77  2  0  0  0  0
 38 66  1  0  0  0  0
 38 69  1  0  0  0  0
 38 78  2  0  0  0  0
 39 42  1  0  0  0  0
 40 49  1  0  0  0  0
 41 65  1  0  0  0  0
 42 44  1  0  0  0  0
 43 45  1  0  0  0  0
 43 46  1  0  0  0  0
 44 48  1  0  0  0  0
 45 50  1  0  0  0  0
 46 66  1  0  0  0  0
 47 50  1  0  0  0  0
 47 66  1  0  0  0  0
 48 70  1  0  0  0  0
 49 65  1  0  0  0  0
 50 64  1  0  0  0  0
 51 61  1  0  0  0  0
 52 62  1  0  0  0  0
 53 62  1  0  0  0  0
 54 62  1  0  0  0  0
 55 72  1  0  0  0  0
 56 73  1  0  0  0  0
 57 58  1  0  0  0  0
 57 59  1  0  0  0  0
 58 72  1  0  0  0  0
 59 80  1  0  0  0  0
 60 62  1  0  0  0  0
 60 71  1  0  0  0  0
 61 73  1  0  0  0  0
 63 64  1  0  0  0  0
M  CHG  1  73   1
M  ISO  4  38 100  59 101  69 100  80 101
M  END
> <Batch ID>
0018

> <Smiles>
CNC(C)C(=O)NC(C(=O)N1Cc2cc([101O:1][101CH2:1]CCN(C)c3ccc([100NH:0][100C:0](=O)N4CCCC(n5nc(-c6ccc(Oc7ccc(F)cc7F)cc6)c(C(N)=O)c5N)C4)c(F)c3)ccc2CC1C(=O)NC1CCCc2ccccc21)C(C)(C)C

> <Shape>
0.328

> <Color>
0.095

> <Negative vol penalty>
0.000

$$$$

  -OEChem-04042321033D

 85 93  0     1  0  0  0  0  0999 V2000
  -16.8325  -28.9334   24.2448 C   0  0  0  0  0  0  0  0  0  0  0  0
  -17.2348  -28.1415   23.1741 C   0  0  0  0  0  0  0  0  0  0  0  0
  -25.8268  -14.0525   20.6700 C   0  0  0  0  0  0  0  0  0  0  0  0
  -23.4974  -13.9081   21.2946 C   0  0  0  0  0  0  0  0  0  0  0  0
  -17.5580  -30.0772   24.5757 C   0  0  0  0  0  0  0  0  0  0  0  0
  -18.3622  -28.4935   22.4329 C   0  0  0  0  0  0  0  0  0  0  0  0
  -22.3958  -24.6872   19.8350 C   0  0  0  0  0  0  0  0  0  0  0  0
  -28.4576  -21.3435   18.9565 C   0  0  0  0  0  0  0  0  0  0  0  0
  -28.5872  -21.0129   20.3054 C   0  0  0  0  0  0  0  0  0  0  0  0
  -26.0052  -12.7157   21.0260 C   0  0  0  0  0  0  0  0  0  0  0  0
  -23.6758  -12.5712   21.6506 C   0  0  0  0  0  0  0  0  0  0  0  0
  -22.5349  -24.2160   18.5303 C   0  0  0  0  0  0  0  0  0  0  0  0
  -23.9024   -9.5865   20.0819 C   0  0  0  0  0  0  0  0  0  0  0  0
  -22.9397   -8.6706   19.6579 C   0  0  0  0  0  0  0  0  0  0  0  0
  -24.1555  -25.9463   18.0845 C   0  0  0  0  0  0  0  0  0  0  0  0
  -26.6754  -22.8800   19.5045 C   0  0  0  0  0  0  0  0  0  0  0  0
  -22.4675   -8.1019   21.9581 C   0  0  0  0  0  0  0  0  0  0  0  0
  -24.5729  -14.6487   20.8043 C   0  0  0  0  0  0  0  0  0  0  0  0
  -24.0184  -16.5317   19.1751 C   0  0  0  0  0  0  0  0  0  0  0  0
  -18.7005  -30.4381   23.8442 C   0  0  0  0  0  0  0  0  0  0  0  0
  -23.1287  -25.8002   20.2717 C   0  0  0  0  0  0  0  0  0  0  0  0
  -19.1029  -29.6438   22.7535 C   0  0  0  0  0  0  0  0  0  0  0  0
  -24.0258  -26.4281   19.3960 C   0  0  0  0  0  0  0  0  0  0  0  0
  -27.5017  -22.2772   18.5561 C   0  0  0  0  0  0  0  0  0  0  0  0
  -27.7610  -21.6157   21.2538 C   0  0  0  0  0  0  0  0  0  0  0  0
  -24.9297  -11.9750   21.5163 C   0  0  0  0  0  0  0  0  0  0  0  0
  -23.4127  -24.8472   17.6539 C   0  0  0  0  0  0  0  0  0  0  0  0
  -24.1477   -9.7602   21.4441 C   0  0  0  0  0  0  0  0  0  0  0  0
  -22.2223   -7.9283   20.5959 C   0  0  0  0  0  0  0  0  0  0  0  0
  -26.8051  -22.5493   20.8534 C   0  0  0  0  0  0  0  0  0  0  0  0
  -23.4303   -9.0179   22.3821 C   0  0  0  0  0  0  0  0  0  0  0  0
  -24.3882  -16.0297   20.4373 C   0  0  0  0  0  0  0  0  0  0  0  0
  -23.9788  -17.8940   19.3456 C   0  0  0  0  0  0  0  0  0  0  0  0
  -23.7359  -15.8294   17.9575 C   0  0  0  0  0  0  0  0  0  0  0  0
  -22.3819  -28.7012   21.3347 C   0  0  0  0  0  0  0  0  0  0  0  0
  -25.5755  -28.9033   21.8659 C   0  0  0  0  0  0  0  0  0  0  0  0
  -28.7168  -27.8240   21.0824 C   0  0  0  0  0  0  0  0  0  0  0  0
  -26.8244  -21.3029   23.5595 C   0  0  0  0  0  0  0  0  0  0  0  0
  -19.4251  -31.7092   24.2100 C   0  0  0  0  0  0  0  0  0  0  0  0
  -22.9871  -26.2798   21.6903 C   0  0  0  0  0  0  0  0  0  0  0  0
  -24.8508  -27.6141   19.8218 C   0  0  0  0  0  0  0  0  0  0  0  0
  -20.8244  -31.8075   23.6078 C   0  0  0  0  0  0  0  0  0  0  0  0
  -23.2352  -21.2568   22.6603 C   0  0  0  0  0  0  0  0  0  0  0  0
  -20.7976  -31.4287   22.1304 C   0  0  0  0  0  0  0  0  0  0  0  0
  -23.0796  -19.9112   21.9540 C   0  0  0  0  0  0  0  0  0  0  0  0
  -24.3554  -21.2268   23.6956 C   0  0  0  0  0  0  0  0  0  0  0  0
  -25.5153  -19.4396   22.4299 C   0  0  0  0  0  0  0  0  0  0  0  0
  -20.3348  -29.9790   21.9409 C   0  0  1  0  0  0  0  0  0  0  0  0
  -23.4009  -27.7368   21.8725 C   0  0  1  0  0  0  0  0  0  0  0  0
  -24.4198  -19.4557   21.3534 C   0  0  1  0  0  0  0  0  0  0  0  0
  -31.2104  -27.5974   21.2499 C   0  0  0  0  0  0  0  0  0  0  0  0
  -25.5554  -31.4867   20.2424 C   0  0  0  0  0  0  0  0  0  0  0  0
  -28.0444  -31.3007   20.0460 C   0  0  0  0  0  0  0  0  0  0  0  0
  -26.9876  -31.5534   22.2915 C   0  0  0  0  0  0  0  0  0  0  0  0
  -29.2468  -21.1358   23.1910 C   0  0  0  0  0  0  0  0  0  0  0  0
  -28.5008  -25.6025   23.0259 C   0  0  0  0  0  0  0  0  0  0  0  0
  -26.3460  -20.5402   16.2144 C   0  0  0  0  0  0  0  0  0  0  0  0
  -27.3613  -22.6322   17.1051 C   0  0  0  0  0  0  0  0  0  0  0  0
  -24.2211  -22.5440   15.0026 C   0  0  0  0  0  0  0  0  0  0  0  0
  -25.7096  -22.7440   15.2450 C   0  0  0  0  0  0  0  0  0  0  0  0
  -23.3448  -22.9938   16.1652 C   0  0  0  0  0  0  0  0  0  1  0  0
  -26.7670  -29.3576   21.0579 C   0  0  1  0  0  0  0  0  0  0  0  0
  -29.8797  -27.3893   21.9560 C   0  0  2  0  0  0  0  0  0  0  0  0
  -26.8218  -30.9035   20.9005 C   0  0  0  0  0  0  0  0  0  0  0  0
  -24.5707  -16.9946   21.3427 N   0  0  0  0  0  0  0  0  0  0  0  0
  -24.3146  -18.1165   20.6487 N   0  0  0  0  0  0  0  0  0  0  0  0
  -24.6724  -28.0495   21.2168 N   0  0  0  0  0  0  0  0  0  0  0  0
  -25.6097  -20.7343   23.1241 N   0  0  0  0  0  0  0  0  0  0  0  0
  -23.6900  -18.9113   18.5065 N   0  0  0  0  0  0  0  0  0  0  0  0
  -23.8234  -14.4306   17.9573 N   0  0  0  0  0  0  0  0  0  0  0  0
  -21.4102  -29.0608   22.2490 N   0  0  0  0  0  0  0  0  0  0  0  0
  -27.9416  -28.7806   21.7028 N   0  0  0  0  0  0  0  0  0  0  0  0
  -27.8970  -21.2714   22.6480 N   0  0  0  0  0  0  0  0  0  0  0  0
  -29.7538  -25.9461   22.3056 N   0  3  0  0  0  0  0  0  0  0  0  0
  -26.1429  -22.0159   16.4605 N   0  3  1  0  0  0  0  0  0  0  0  0
  -23.4314  -16.4257   16.8967 O   0  0  0  0  0  0  0  0  0  0  0  0
  -22.4714  -29.0914   20.1765 O   0  0  0  0  0  0  0  0  0  0  0  0
  -25.4544  -29.2860   23.0323 O   0  0  0  0  0  0  0  0  0  0  0  0
  -28.5184  -27.3637   19.9602 O   0  0  0  0  0  0  0  0  0  0  0  0
  -26.9617  -21.7576   24.7018 O   0  0  0  0  0  0  0  0  0  0  0  0
  -25.1033  -10.6705   21.8635 O   0  0  0  0  0  0  0  0  0  0  0  0
  -23.5499  -24.3897   16.3797 O   0  0  0  0  0  0  0  0  0  1  0  0
  -21.2968   -7.0498   20.1886 F   0  0  0  0  0  0  0  0  0  0  0  0
  -26.0046  -23.1339   21.7561 F   0  0  0  0  0  0  0  0  0  0  0  0
  -23.6607   -9.1812   23.6921 F   0  0  0  0  0  0  0  0  0  0  0  0
  1  2  1  0  0  0  0
  1  5  2  0  0  0  0
  2  6  2  0  0  0  0
  3 10  2  0  0  0  0
  3 18  1  0  0  0  0
  4 11  1  0  0  0  0
  4 18  2  0  0  0  0
  5 20  1  0  0  0  0
  6 22  1  0  0  0  0
  7 12  2  0  0  0  0
  7 21  1  0  0  0  0
  8  9  2  0  0  0  0
  8 24  1  0  0  0  0
  9 25  1  0  0  0  0
 10 26  1  0  0  0  0
 11 26  2  0  0  0  0
 12 27  1  0  0  0  0
 13 14  2  0  0  0  0
 13 28  1  0  0  0  0
 14 29  1  0  0  0  0
 15 23  1  0  0  0  0
 15 27  2  0  0  0  0
 16 24  2  0  0  0  0
 16 30  1  0  0  0  0
 17 29  2  0  0  0  0
 17 31  1  0  0  0  0
 18 32  1  0  0  0  0
 19 32  1  0  0  0  0
 19 33  2  0  0  0  0
 19 34  1  0  0  0  0
 20 22  2  0  0  0  0
 20 39  1  0  0  0  0
 21 23  2  0  0  0  0
 21 40  1  0  0  0  0
 22 48  1  0  0  0  0
 23 41  1  0  0  0  0
 24 58  1  0  0  0  0
 25 30  2  0  0  0  0
 25 73  1  0  0  0  0
 26 81  1  0  0  0  0
 27 82  1  0  0  0  0
 28 31  2  0  0  0  0
 28 81  1  0  0  0  0
 29 83  1  0  0  0  0
 30 84  1  0  0  0  0
 31 85  1  0  0  0  0
 32 65  2  0  0  0  0
 33 66  1  0  0  0  0
 33 69  1  0  0  0  0
 34 70  1  0  0  0  0
 34 76  2  0  0  0  0
 35 49  1  0  0  0  0
 35 71  1  0  0  0  0
 35 77  2  0  0  0  0
 36 62  1  0  0  0  0
 36 67  1  0  0  0  0
 36 78  2  0  0  0  0
 37 63  1  0  0  0  0
 37 72  1  0  0  0  0
 37 79  2  0  0  0  0
 38 68  1  0  0  0  0
 38 73  1  0  0  0  0
 38 80  2  0  0  0  0
 39 42  1  0  0  0  0
 40 49  1  0  0  0  0
 41 67  1  0  0  0  0
 42 44  1  0  0  0  0
 43 45  1  0  0  0  0
 43 46  1  0  0  0  0
 44 48  1  0  0  0  0
 45 50  1  0  0  0  0
 46 68  1  0  0  0  0
 47 50  1  0  0  0  0
 47 68  1  0  0  0  0
 48 71  1  0  0  0  0
 49 67  1  0  0  0  0
 50 66  1  0  0  0  0
 51 63  1  0  0  0  0
 52 64  1  0  0  0  0
 53 64  1  0  0  0  0
 54 64  1  0  0  0  0
 55 73  1  0  0  0  0
 56 74  1  0  0  0  0
 57 75  1  0  0  0  0
 58 75  1  0  0  0  0
 59 60  1  0  0  0  0
 59 61  1  0  0  0  0
 60 75  1  0  0  0  0
 61 82  1  0  0  0  0
 62 64  1  0  0  0  0
 62 72  1  0  0  0  0
 63 74  1  0  0  0  0
 65 66  1  0  0  0  0
M  CHG  2  74   1  75   1
M  ISO  4  38 100  61 101  73 100  82 101
M  END
> <Batch ID>
0018

> <Smiles>
CNC(C)C(=O)NC(C(=O)N1Cc2cc([101O:1][101CH2:1]CCN(C)Cc3ccc([100N:0](C)[100C:0](=O)N4CCCC(n5nc(-c6ccc(Oc7ccc(F)cc7F)cc6)c(C(N)=O)c5N)C4)c(F)c3)ccc2CC1C(=O)NC1CCCc2ccccc21)C(C)(C)C

> <Shape>
0.216

> <Color>
0.075

> <Negative vol penalty>
0.000

$$$$

  -OEChem-04042321033D

 74 81  0     1  0  0  0  0  0999 V2000
  -30.4399  -33.7265   24.7531 C   0  0  0  0  0  0  0  0  0  0  0  0
  -30.8552  -32.6196   24.0196 C   0  0  0  0  0  0  0  0  0  0  0  0
  -24.7392  -10.5888   23.2612 C   0  0  0  0  0  0  0  0  0  0  0  0
  -24.4865  -12.3726   24.8710 C   0  0  0  0  0  0  0  0  0  0  0  0
  -29.1567  -33.7591   25.2973 C   0  0  0  0  0  0  0  0  0  0  0  0
  -29.9877  -31.5443   23.8309 C   0  0  0  0  0  0  0  0  0  0  0  0
  -28.3188  -26.4931   19.0334 C   0  0  0  0  0  0  0  0  0  0  0  0
  -24.3436   -9.6622   24.2259 C   0  0  0  0  0  0  0  0  0  0  0  0
  -24.0909  -11.4460   25.8356 C   0  0  0  0  0  0  0  0  0  0  0  0
  -28.1571  -25.1117   18.9358 C   0  0  0  0  0  0  0  0  0  0  0  0
  -21.2946   -9.7249   26.6350 C   0  0  0  0  0  0  0  0  0  0  0  0
  -20.1862  -10.0422   27.4201 C   0  0  0  0  0  0  0  0  0  0  0  0
  -25.9361  -25.3128   19.8555 C   0  0  0  0  0  0  0  0  0  0  0  0
  -21.5557   -9.9120   29.4062 C   0  0  0  0  0  0  0  0  0  0  0  0
  -24.8106  -11.9440   23.5838 C   0  0  0  0  0  0  0  0  0  0  0  0
  -24.3916  -13.5975   21.6869 C   0  0  0  0  0  0  0  0  0  0  0  0
  -28.2697  -32.6878   25.1070 C   0  0  0  0  0  0  0  0  0  0  0  0
  -27.2927  -27.2948   19.5538 C   0  0  0  0  0  0  0  0  0  0  0  0
  -28.6919  -31.5621   24.3743 C   0  0  0  0  0  0  0  0  0  0  0  0
  -26.0863  -26.7043   19.9563 C   0  0  0  0  0  0  0  0  0  0  0  0
  -24.0195  -10.0908   25.5131 C   0  0  0  0  0  0  0  0  0  0  0  0
  -26.9667  -24.5210   19.3496 C   0  0  0  0  0  0  0  0  0  0  0  0
  -22.5336   -9.5011   27.2355 C   0  0  0  0  0  0  0  0  0  0  0  0
  -20.3168  -10.1357   28.8057 C   0  0  0  0  0  0  0  0  0  0  0  0
  -22.6641   -9.5947   28.6211 C   0  0  0  0  0  0  0  0  0  0  0  0
  -25.2197  -12.9016   22.5879 C   0  0  0  0  0  0  0  0  0  0  0  0
  -25.2559  -14.3781   20.9589 C   0  0  0  0  0  0  0  0  0  0  0  0
  -22.9683  -13.5433   21.5229 C   0  0  0  0  0  0  0  0  0  0  0  0
  -27.0058  -29.2198   22.0669 C   0  0  0  0  0  0  0  0  0  0  0  0
  -29.6268  -17.8647   20.7905 C   0  0  0  0  0  0  0  0  0  0  0  0
  -24.1313  -29.9001   20.7266 C   0  0  0  0  0  0  0  0  0  0  0  0
  -21.5851  -28.9183   18.6772 C   0  0  0  0  0  0  0  0  0  0  0  0
  -26.9089  -32.7482   25.7546 C   0  0  0  0  0  0  0  0  0  0  0  0
  -27.4727  -28.7863   19.6276 C   0  0  0  0  0  0  0  0  0  0  0  0
  -24.9464  -27.5229   20.5031 C   0  0  0  0  0  0  0  0  0  0  0  0
  -25.9209  -31.7296   25.1920 C   0  0  0  0  0  0  0  0  0  0  0  0
  -30.2990  -14.3466   20.6848 C   0  0  0  0  0  0  0  0  0  0  0  0
  -26.5741  -30.3553   25.0846 C   0  0  0  0  0  0  0  0  0  0  0  0
  -28.9789  -13.7155   21.1256 C   0  0  0  0  0  0  0  0  0  0  0  0
  -30.5601  -15.6612   21.4133 C   0  0  0  0  0  0  0  0  0  0  0  0
  -28.1332  -16.0290   21.7236 C   0  0  0  0  0  0  0  0  0  0  0  0
  -27.7713  -30.3868   24.1268 C   0  0  1  0  0  0  0  0  0  0  0  0
  -26.5562  -29.4487   20.6516 C   0  0  1  0  0  0  0  0  0  0  0  0
  -27.8160  -14.7143   20.9892 C   0  0  2  0  0  0  0  0  0  0  0  0
  -19.3538  -29.6698   17.8089 C   0  0  0  0  0  0  0  0  0  0  0  0
  -22.8567  -29.2096   23.4115 C   0  0  0  0  0  0  0  0  0  0  0  0
  -20.6479  -29.0511   22.2434 C   0  0  0  0  0  0  0  0  0  0  0  0
  -21.8845  -31.2172   22.2808 C   0  0  0  0  0  0  0  0  0  0  0  0
  -22.5365  -28.8913   15.8748 C   0  0  0  0  0  0  0  0  0  0  0  0
  -28.4077  -18.7449   20.6767 C   0  0  0  0  0  0  0  0  0  0  0  0
  -28.8085  -20.1099   20.1306 C   0  0  0  0  0  0  0  0  0  0  0  0
  -27.5941  -21.0185   19.9601 C   0  0  0  0  0  0  0  0  0  0  0  0
  -27.9800  -22.3696   19.3749 C   0  0  0  0  0  0  0  0  0  1  0  0
  -22.7387  -29.3272   20.8351 C   0  0  1  0  0  0  0  0  0  0  0  0
  -20.8541  -29.6425   17.5612 C   0  0  2  0  0  0  0  0  0  0  0  0
  -22.0540  -29.6853   22.1842 C   0  0  0  0  0  0  0  0  0  0  0  0
  -26.5110  -13.2125   22.4468 N   0  0  0  0  0  0  0  0  0  0  0  0
  -26.5008  -14.1123   21.4487 N   0  0  0  0  0  0  0  0  0  0  0  0
  -25.1731  -28.9764   20.5614 N   0  0  0  0  0  0  0  0  0  0  0  0
  -29.4234  -16.5738   21.2786 N   0  0  0  0  0  0  0  0  0  0  0  0
  -25.0650  -15.2589   19.9539 N   0  0  0  0  0  0  0  0  0  0  0  0
  -22.2320  -12.6880   22.3540 N   0  0  0  0  0  0  0  0  0  0  0  0
  -27.3190  -30.3782   22.7521 N   0  0  0  0  0  0  0  0  0  0  0  0
  -22.0143  -29.7894   19.6561 N   0  0  0  0  0  0  0  0  0  0  0  0
  -21.1026  -28.9678   16.2559 N   0  3  0  0  0  0  0  0  0  0  0  0
  -22.3689  -14.2206   20.6537 O   0  0  0  0  0  0  0  0  0  0  0  0
  -27.0629  -28.0769   22.5054 O   0  0  0  0  0  0  0  0  0  0  0  0
  -30.7259  -18.3119   20.4524 O   0  0  0  0  0  0  0  0  0  0  0  0
  -24.2881  -31.1225   20.7793 O   0  0  0  0  0  0  0  0  0  0  0  0
  -21.7551  -27.7011   18.6820 O   0  0  0  0  0  0  0  0  0  0  0  0
  -23.6332   -9.1870   26.4546 O   0  0  0  0  0  0  0  0  0  0  0  0
  -26.8066  -23.1729   19.2560 O   0  0  0  0  0  0  0  0  0  1  0  0
  -19.2526  -10.4420   29.5594 F   0  0  0  0  0  0  0  0  0  0  0  0
  -23.8521   -9.3820   29.2036 F   0  0  0  0  0  0  0  0  0  0  0  0
  1  2  1  0  0  0  0
  1  5  2  0  0  0  0
  2  6  2  0  0  0  0
  3  8  2  0  0  0  0
  3 15  1  0  0  0  0
  4  9  1  0  0  0  0
  4 15  2  0  0  0  0
  5 17  1  0  0  0  0
  6 19  1  0  0  0  0
  7 10  2  0  0  0  0
  7 18  1  0  0  0  0
  8 21  1  0  0  0  0
  9 21  2  0  0  0  0
 10 22  1  0  0  0  0
 11 12  2  0  0  0  0
 11 23  1  0  0  0  0
 12 24  1  0  0  0  0
 13 20  1  0  0  0  0
 13 22  2  0  0  0  0
 14 24  2  0  0  0  0
 14 25  1  0  0  0  0
 15 26  1  0  0  0  0
 16 26  1  0  0  0  0
 16 27  2  0  0  0  0
 16 28  1  0  0  0  0
 17 19  2  0  0  0  0
 17 33  1  0  0  0  0
 18 20  2  0  0  0  0
 18 34  1  0  0  0  0
 19 42  1  0  0  0  0
 20 35  1  0  0  0  0
 21 71  1  0  0  0  0
 22 72  1  0  0  0  0
 23 25  2  0  0  0  0
 23 71  1  0  0  0  0
 24 73  1  0  0  0  0
 25 74  1  0  0  0  0
 26 57  2  0  0  0  0
 27 58  1  0  0  0  0
 27 61  1  0  0  0  0
 28 62  1  0  0  0  0
 28 66  2  0  0  0  0
 29 43  1  0  0  0  0
 29 63  1  0  0  0  0
 29 67  2  0  0  0  0
 30 50  1  0  0  0  0
 30 60  1  0  0  0  0
 30 68  2  0  0  0  0
 31 54  1  0  0  0  0
 31 59  1  0  0  0  0
 31 69  2  0  0  0  0
 32 55  1  0  0  0  0
 32 64  1  0  0  0  0
 32 70  2  0  0  0  0
 33 36  1  0  0  0  0
 34 43  1  0  0  0  0
 35 59  1  0  0  0  0
 36 38  1  0  0  0  0
 37 39  1  0  0  0  0
 37 40  1  0  0  0  0
 38 42  1  0  0  0  0
 39 44  1  0  0  0  0
 40 60  1  0  0  0  0
 41 44  1  0  0  0  0
 41 60  1  0  0  0  0
 42 63  1  0  0  0  0
 43 59  1  0  0  0  0
 44 58  1  0  0  0  0
 45 55  1  0  0  0  0
 46 56  1  0  0  0  0
 47 56  1  0  0  0  0
 48 56  1  0  0  0  0
 49 65  1  0  0  0  0
 50 51  1  0  0  0  0
 51 52  1  0  0  0  0
 52 53  1  0  0  0  0
 53 72  1  0  0  0  0
 54 56  1  0  0  0  0
 54 64  1  0  0  0  0
 55 65  1  0  0  0  0
 57 58  1  0  0  0  0
M  CHG  1  65   1
M  ISO  4  30 100  50 100  53 101  72 101
M  END
> <Batch ID>
0018

> <Smiles>
CNC(C)C(=O)NC(C(=O)N1Cc2cc([101O:1][101CH2:1]CC[100CH2:0][100C:0](=O)N3CCCC(n4nc(-c5ccc(Oc6ccc(F)cc6F)cc5)c(C(N)=O)c4N)C3)ccc2CC1C(=O)NC1CCCc2ccccc21)C(C)(C)C

> <Shape>
0.240

> <Color>
0.099

> <Negative vol penalty>
0.000

$$$$

  -OEChem-04042321033D

 84 92  0     1  0  0  0  0  0999 V2000
  -31.4139  -17.6138   22.3838 C   0  0  0  0  0  0  0  0  0  0  0  0
  -30.4832  -18.3770   23.0814 C   0  0  0  0  0  0  0  0  0  0  0  0
  -29.6107  -24.0256   21.0731 C   0  0  0  0  0  0  0  0  0  0  0  0
  -27.8074  -23.9424   19.4673 C   0  0  0  0  0  0  0  0  0  0  0  0
  -31.0116  -16.8645   21.2790 C   0  0  0  0  0  0  0  0  0  0  0  0
  -29.1497  -18.3921   22.6740 C   0  0  0  0  0  0  0  0  0  0  0  0
  -22.5108  -18.9100   25.3147 C   0  0  0  0  0  0  0  0  0  0  0  0
  -19.3961  -28.9992   22.9070 C   0  0  0  0  0  0  0  0  0  0  0  0
  -20.4384  -27.2040   21.6710 C   0  0  0  0  0  0  0  0  0  0  0  0
  -18.4058  -28.1212   23.3473 C   0  0  0  0  0  0  0  0  0  0  0  0
  -19.4481  -26.3259   22.1113 C   0  0  0  0  0  0  0  0  0  0  0  0
  -29.8122  -22.6541   20.9178 C   0  0  0  0  0  0  0  0  0  0  0  0
  -28.0090  -22.5709   19.3119 C   0  0  0  0  0  0  0  0  0  0  0  0
  -21.3383  -19.6448   25.1445 C   0  0  0  0  0  0  0  0  0  0  0  0
  -31.4470  -20.0102   19.2193 C   0  0  0  0  0  0  0  0  0  0  0  0
  -32.3442  -19.5951   18.2354 C   0  0  0  0  0  0  0  0  0  0  0  0
  -20.7428  -18.2487   23.2695 C   0  0  0  0  0  0  0  0  0  0  0  0
  -30.5426  -19.5108   16.6279 C   0  0  0  0  0  0  0  0  0  0  0  0
  -28.6082  -24.6697   20.3478 C   0  0  0  0  0  0  0  0  0  0  0  0
  -29.0049  -27.1235   19.7740 C   0  0  0  0  0  0  0  0  0  0  0  0
  -29.6706  -16.8628   20.8637 C   0  0  0  0  0  0  0  0  0  0  0  0
  -22.8140  -17.8442   24.4554 C   0  0  0  0  0  0  0  0  0  0  0  0
  -28.7293  -17.6431   21.5618 C   0  0  0  0  0  0  0  0  0  0  0  0
  -21.9186  -17.5004   23.4325 C   0  0  0  0  0  0  0  0  0  0  0  0
  -20.4124  -28.5407   22.0688 C   0  0  0  0  0  0  0  0  0  0  0  0
  -18.4318  -26.7845   22.9494 C   0  0  0  0  0  0  0  0  0  0  0  0
  -29.0114  -21.9268   20.0372 C   0  0  0  0  0  0  0  0  0  0  0  0
  -20.4554  -19.3160   24.1200 C   0  0  0  0  0  0  0  0  0  0  0  0
  -30.0974  -20.1756   18.9075 C   0  0  0  0  0  0  0  0  0  0  0  0
  -31.8921  -19.3454   16.9397 C   0  0  0  0  0  0  0  0  0  0  0  0
  -29.6453  -19.9259   17.6118 C   0  0  0  0  0  0  0  0  0  0  0  0
  -28.3991  -26.0863   20.5082 C   0  0  0  0  0  0  0  0  0  0  0  0
  -28.4769  -28.2744   20.3060 C   0  0  0  0  0  0  0  0  0  0  0  0
  -29.9594  -27.0529   18.7065 C   0  0  0  0  0  0  0  0  0  0  0  0
  -25.1561  -17.2161   22.4003 C   0  0  0  0  0  0  0  0  0  0  0  0
  -23.6756  -14.3373   22.1933 C   0  0  0  0  0  0  0  0  0  0  0  0
  -20.8080  -12.5218   22.5503 C   0  0  0  0  0  0  0  0  0  0  0  0
  -23.3692  -29.4611   23.1964 C   0  0  0  0  0  0  0  0  0  0  0  0
  -29.2922  -16.0742   19.6350 C   0  0  0  0  0  0  0  0  0  0  0  0
  -24.0699  -17.0445   24.6689 C   0  0  0  0  0  0  0  0  0  0  0  0
  -22.1878  -16.3523   22.4956 C   0  0  0  0  0  0  0  0  0  0  0  0
  -27.7888  -15.8496   19.4945 C   0  0  0  0  0  0  0  0  0  0  0  0
  -26.6794  -30.0379   24.3741 C   0  0  0  0  0  0  0  0  0  0  0  0
  -27.0296  -17.1493   19.7417 C   0  0  0  0  0  0  0  0  0  0  0  0
  -27.5501  -29.1841   23.4507 C   0  0  0  0  0  0  0  0  0  0  0  0
  -25.3479  -29.3568   24.6831 C   0  0  0  0  0  0  0  0  0  0  0  0
  -25.4469  -28.0854   22.5742 C   0  0  0  0  0  0  0  0  0  0  0  0
  -27.2690  -17.6659   21.1656 C   0  0  1  0  0  0  0  0  0  0  0  0
  -24.5273  -16.3044   23.4157 C   0  0  1  0  0  0  0  0  0  0  0  0
  -26.7769  -28.7555   22.1890 C   0  0  2  0  0  0  0  0  0  0  0  0
  -19.8989  -10.1997   22.2702 C   0  0  0  0  0  0  0  0  0  0  0  0
  -23.5982  -14.7350   19.1691 C   0  0  0  0  0  0  0  0  0  0  0  0
  -21.8860  -12.9127   19.0434 C   0  0  0  0  0  0  0  0  0  0  0  0
  -24.1746  -12.4143   19.9017 C   0  0  0  0  0  0  0  0  0  0  0  0
  -16.3720  -26.3819   24.2744 C   0  0  0  0  0  0  0  0  0  0  0  0
  -20.1283  -12.3164   25.4234 C   0  0  0  0  0  0  0  0  0  0  0  0
  -21.4714  -29.4788   21.5973 C   0  0  0  0  0  0  0  0  0  0  0  0
  -18.3743  -23.6871   23.8542 C   0  0  0  0  0  0  0  0  0  0  0  0
  -18.3588  -22.2025   23.4870 C   0  0  0  0  0  0  0  0  0  0  0  0
  -17.4273  -24.5152   22.9896 C   0  0  0  0  0  0  0  0  0  0  0  0
  -19.3407  -21.4056   24.3367 C   0  0  0  0  0  0  0  0  0  1  0  0
  -22.5800  -13.7581   21.3313 C   0  0  1  0  0  0  0  0  0  0  0  0
  -20.5356  -11.1923   23.2305 C   0  0  2  0  0  0  0  0  0  0  0  0
  -23.0553  -13.4779   19.8776 C   0  0  0  0  0  0  0  0  0  0  0  0
  -27.5514  -26.5383   21.4360 N   0  0  0  0  0  0  0  0  0  0  0  0
  -27.6206  -27.8723   21.2885 N   0  0  0  0  0  0  0  0  0  0  0  0
  -23.4321  -15.6047   22.7411 N   0  0  0  0  0  0  0  0  0  0  0  0
  -24.6643  -28.9770   23.4445 N   0  0  0  0  0  0  0  0  0  0  0  0
  -28.6663  -29.5811   20.0246 N   0  0  0  0  0  0  0  0  0  0  0  0
  -30.3959  -25.7902   18.2829 N   0  0  0  0  0  0  0  0  0  0  0  0
  -26.4747  -16.9165   22.1153 N   0  0  0  0  0  0  0  0  0  0  0  0
  -22.0860  -12.5800   22.0359 N   0  0  0  0  0  0  0  0  0  0  0  0
  -22.7960  -29.0582   21.9965 N   0  0  0  0  0  0  0  0  0  0  0  0
  -17.4376  -25.9012   23.3932 N   0  0  3  0  0  0  0  0  0  0  0  0
  -19.6168  -11.3815   24.3885 N   0  3  0  0  0  0  0  0  0  0  0  0
  -30.4242  -28.0797   18.1559 O   0  0  0  0  0  0  0  0  0  0  0  0
  -24.4937  -18.1232   21.9104 O   0  0  0  0  0  0  0  0  0  0  0  0
  -24.7065  -13.6860   22.3797 O   0  0  0  0  0  0  0  0  0  0  0  0
  -19.9696  -13.4177   22.4790 O   0  0  0  0  0  0  0  0  0  0  0  0
  -22.7704  -30.2021   23.9834 O   0  0  0  0  0  0  0  0  0  0  0  0
  -29.2080  -20.5886   19.8853 O   0  0  0  0  0  0  0  0  0  0  0  0
  -19.3105  -20.0320   23.9512 O   0  0  0  0  0  0  0  0  0  1  0  0
  -32.7541  -18.9482   15.9945 F   0  0  0  0  0  0  0  0  0  0  0  0
  -28.3502  -20.0842   17.3061 F   0  0  0  0  0  0  0  0  0  0  0  0
  1  2  1  0  0  0  0
  1  5  2  0  0  0  0
  2  6  2  0  0  0  0
  3 12  2  0  0  0  0
  3 19  1  0  0  0  0
  4 13  1  0  0  0  0
  4 19  2  0  0  0  0
  5 21  1  0  0  0  0
  6 23  1  0  0  0  0
  7 14  2  0  0  0  0
  7 22  1  0  0  0  0
  8 10  2  0  0  0  0
  8 25  1  0  0  0  0
  9 11  1  0  0  0  0
  9 25  2  0  0  0  0
 10 26  1  0  0  0  0
 11 26  2  0  0  0  0
 12 27  1  0  0  0  0
 13 27  2  0  0  0  0
 14 28  1  0  0  0  0
 15 16  2  0  0  0  0
 15 29  1  0  0  0  0
 16 30  1  0  0  0  0
 17 24  1  0  0  0  0
 17 28  2  0  0  0  0
 18 30  2  0  0  0  0
 18 31  1  0  0  0  0
 19 32  1  0  0  0  0
 20 32  1  0  0  0  0
 20 33  2  0  0  0  0
 20 34  1  0  0  0  0
 21 23  2  0  0  0  0
 21 39  1  0  0  0  0
 22 24  2  0  0  0  0
 22 40  1  0  0  0  0
 23 48  1  0  0  0  0
 24 41  1  0  0  0  0
 25 57  1  0  0  0  0
 26 74  1  0  0  0  0
 27 81  1  0  0  0  0
 28 82  1  0  0  0  0
 29 31  2  0  0  0  0
 29 81  1  0  0  0  0
 30 83  1  0  0  0  0
 31 84  1  0  0  0  0
 32 65  2  0  0  0  0
 33 66  1  0  0  0  0
 33 69  1  0  0  0  0
 34 70  1  0  0  0  0
 34 76  2  0  0  0  0
 35 49  1  0  0  0  0
 35 71  1  0  0  0  0
 35 77  2  0  0  0  0
 36 62  1  0  0  0  0
 36 67  1  0  0  0  0
 36 78  2  0  0  0  0
 37 63  1  0  0  0  0
 37 72  1  0  0  0  0
 37 79  2  0  0  0  0
 38 68  1  0  0  0  0
 38 73  1  0  0  0  0
 38 80  2  0  0  0  0
 39 42  1  0  0  0  0
 40 49  1  0  0  0  0
 41 67  1  0  0  0  0
 42 44  1  0  0  0  0
 43 45  1  0  0  0  0
 43 46  1  0  0  0  0
 44 48  1  0  0  0  0
 45 50  1  0  0  0  0
 46 68  1  0  0  0  0
 47 50  1  0  0  0  0
 47 68  1  0  0  0  0
 48 71  1  0  0  0  0
 49 67  1  0  0  0  0
 50 66  1  0  0  0  0
 51 63  1  0  0  0  0
 52 64  1  0  0  0  0
 53 64  1  0  0  0  0
 54 64  1  0  0  0  0
 55 74  1  0  0  0  0
 56 75  1  0  0  0  0
 57 73  1  0  0  0  0
 58 59  1  0  0  0  0
 58 60  1  0  0  0  0
 59 61  1  0  0  0  0
 60 74  1  0  0  0  0
 61 82  1  0  0  0  0
 62 64  1  0  0  0  0
 62 72  1  0  0  0  0
 63 75  1  0  0  0  0
 65 66  1  0  0  0  0
M  CHG  1  75   1
M  ISO  4  38 100  61 101  73 100  82 101
M  END
> <Batch ID>
0018

> <Smiles>
CNC(C)C(=O)NC(C(=O)N1Cc2cc([101O:1][101CH2:1]CCCN(C)c3ccc(C[100NH:0][100C:0](=O)N4CCCC(n5nc(-c6ccc(Oc7ccc(F)cc7F)cc6)c(C(N)=O)c5N)C4)cc3)ccc2CC1C(=O)NC1CCCc2ccccc21)C(C)(C)C

> <Shape>
0.216

> <Color>
0.062

> <Negative vol penalty>
0.000

$$$$

  -OEChem-04042321033D

 84 92  0     1  0  0  0  0  0999 V2000
  -25.6316  -11.0991   20.8948 C   0  0  0  0  0  0  0  0  0  0  0  0
  -26.6750  -11.9442   20.5309 C   0  0  0  0  0  0  0  0  0  0  0  0
  -20.2508  -26.9582   23.2986 C   0  0  0  0  0  0  0  0  0  0  0  0
  -20.3820  -28.7581   21.6924 C   0  0  0  0  0  0  0  0  0  0  0  0
  -24.3253  -11.5845   20.9374 C   0  0  0  0  0  0  0  0  0  0  0  0
  -26.4125  -13.2752   20.2082 C   0  0  0  0  0  0  0  0  0  0  0  0
  -29.3369  -19.8015   20.6224 C   0  0  0  0  0  0  0  0  0  0  0  0
  -30.7425  -30.2168   19.7237 C   0  0  0  0  0  0  0  0  0  0  0  0
  -31.1083  -29.2575   18.7796 C   0  0  0  0  0  0  0  0  0  0  0  0
  -18.8581  -27.0109   23.2439 C   0  0  0  0  0  0  0  0  0  0  0  0
  -18.9892  -28.8108   21.6376 C   0  0  0  0  0  0  0  0  0  0  0  0
  -29.6356  -20.9009   19.8187 C   0  0  0  0  0  0  0  0  0  0  0  0
  -16.4043  -25.9456   21.1758 C   0  0  0  0  0  0  0  0  0  0  0  0
  -15.7133  -24.7379   21.0774 C   0  0  0  0  0  0  0  0  0  0  0  0
  -27.3499  -21.6496   20.0038 C   0  0  0  0  0  0  0  0  0  0  0  0
  -30.8509  -27.5233   20.4420 C   0  0  0  0  0  0  0  0  0  0  0  0
  -14.5774  -25.2186   23.1548 C   0  0  0  0  0  0  0  0  0  0  0  0
  -21.0128  -27.8319   22.5229 C   0  0  0  0  0  0  0  0  0  0  0  0
  -23.3055  -26.9992   21.7758 C   0  0  0  0  0  0  0  0  0  0  0  0
  -24.0479  -12.9245   20.6245 C   0  0  0  0  0  0  0  0  0  0  0  0
  -28.0376  -19.6118   21.1147 C   0  0  0  0  0  0  0  0  0  0  0  0
  -25.1010  -13.7787   20.2454 C   0  0  0  0  0  0  0  0  0  0  0  0
  -27.0379  -20.5484   20.8156 C   0  0  0  0  0  0  0  0  0  0  0  0
  -30.4310  -29.8295   21.0271 C   0  0  0  0  0  0  0  0  0  0  0  0
  -31.1625  -27.9107   19.1387 C   0  0  0  0  0  0  0  0  0  0  0  0
  -18.2272  -27.9372   22.4134 C   0  0  0  0  0  0  0  0  0  0  0  0
  -28.6414  -21.8236   19.5069 C   0  0  0  0  0  0  0  0  0  0  0  0
  -16.1819  -26.7897   22.2638 C   0  0  0  0  0  0  0  0  0  0  0  0
  -14.7998  -24.3745   22.0669 C   0  0  0  0  0  0  0  0  0  0  0  0
  -15.2684  -26.4263   23.2533 C   0  0  0  0  0  0  0  0  0  0  0  0
  -30.4852  -28.4827   21.3862 C   0  0  0  0  0  0  0  0  0  0  0  0
  -22.4516  -27.7783   22.5794 C   0  0  0  0  0  0  0  0  0  0  0  0
  -24.5686  -27.3049   22.2202 C   0  0  0  0  0  0  0  0  0  0  0  0
  -22.9855  -26.0814   20.7218 C   0  0  0  0  0  0  0  0  0  0  0  0
  -25.8148  -17.3656   20.7720 C   0  0  0  0  0  0  0  0  0  0  0  0
  -24.2558  -19.1157   23.0146 C   0  0  0  0  0  0  0  0  0  0  0  0
  -23.8059  -22.1384   24.5337 C   0  0  0  0  0  0  0  0  0  0  0  0
  -28.3847  -31.0379   23.8474 C   0  0  0  0  0  0  0  0  0  0  0  0
  -22.6138  -13.3914   20.6388 C   0  0  0  0  0  0  0  0  0  0  0  0
  -27.7379  -18.4351   22.0023 C   0  0  0  0  0  0  0  0  0  0  0  0
  -25.6321  -20.4012   21.3358 C   0  0  0  0  0  0  0  0  0  0  0  0
  -22.4680  -14.9110   20.6453 C   0  0  0  0  0  0  0  0  0  0  0  0
  -26.0904  -29.8688   26.3064 C   0  0  0  0  0  0  0  0  0  0  0  0
  -23.3886  -15.5401   19.6044 C   0  0  0  0  0  0  0  0  0  0  0  0
  -25.0072  -29.1624   25.4894 C   0  0  0  0  0  0  0  0  0  0  0  0
  -26.6226  -31.1064   25.5872 C   0  0  0  0  0  0  0  0  0  0  0  0
  -26.0137  -30.1606   23.3944 C   0  0  0  0  0  0  0  0  0  0  0  0
  -24.8595  -15.2350   19.9124 C   0  0  1  0  0  0  0  0  0  0  0  0
  -26.2579  -18.0656   22.0255 C   0  0  1  0  0  0  0  0  0  0  0  0
  -25.4857  -28.8750   24.0536 C   0  0  2  0  0  0  0  0  0  0  0  0
  -22.4344  -23.2677   26.3060 C   0  0  0  0  0  0  0  0  0  0  0  0
  -21.8690  -19.1924   21.1153 C   0  0  0  0  0  0  0  0  0  0  0  0
  -20.9328  -21.0716   22.4792 C   0  0  0  0  0  0  0  0  0  0  0  0
  -21.2787  -18.8304   23.5184 C   0  0  0  0  0  0  0  0  0  0  0  0
  -31.8560  -27.3541   16.8215 C   0  0  0  0  0  0  0  0  0  0  0  0
  -26.2062  -22.7989   26.1340 C   0  0  0  0  0  0  0  0  0  0  0  0
  -30.0450  -30.8883   22.0089 C   0  0  0  0  0  0  0  0  0  0  0  0
  -30.2309  -24.8986   18.4741 C   0  0  0  0  0  0  0  0  0  0  0  0
  -31.6092  -25.5463   18.5302 C   0  0  0  0  0  0  0  0  0  0  0  0
  -30.2619  -23.4062   18.7822 C   0  0  0  0  0  0  0  0  0  1  0  0
  -23.2858  -20.2720   22.9843 C   0  0  1  0  0  0  0  0  0  0  0  0
  -23.7269  -22.5276   25.9988 C   0  0  2  0  0  0  0  0  0  0  0  0
  -21.8675  -19.8436   22.5127 C   0  0  0  0  0  0  0  0  0  0  0  0
  -23.1162  -28.5228   23.4671 N   0  0  0  0  0  0  0  0  0  0  0  0
  -24.4011  -28.2128   23.2241 N   0  0  0  0  0  0  0  0  0  0  0  0
  -25.3872  -19.2307   22.1945 N   0  0  0  0  0  0  0  0  0  0  0  0
  -27.0615  -30.7653   24.2318 N   0  0  0  0  0  0  0  0  0  0  0  0
  -25.7952  -26.8828   21.8464 N   0  0  0  0  0  0  0  0  0  0  0  0
  -21.6372  -25.8853   20.3930 N   0  0  0  0  0  0  0  0  0  0  0  0
  -25.3390  -16.0852   20.9810 N   0  0  0  0  0  0  0  0  0  0  0  0
  -23.3183  -20.8671   24.3159 N   0  0  0  0  0  0  0  0  0  0  0  0
  -28.7200  -30.6774   22.5480 N   0  0  0  0  0  0  0  0  0  0  0  0
  -31.5297  -26.9462   18.1894 N   0  0  3  0  0  0  0  0  0  0  0  0
  -24.8715  -23.4098   26.3629 N   0  3  0  0  0  0  0  0  0  0  0  0
  -23.8680  -25.4415   20.1013 O   0  0  0  0  0  0  0  0  0  0  0  0
  -25.8969  -17.9448   19.6953 O   0  0  0  0  0  0  0  0  0  0  0  0
  -24.0220  -18.1492   23.7446 O   0  0  0  0  0  0  0  0  0  0  0  0
  -24.2518  -22.8886   23.6683 O   0  0  0  0  0  0  0  0  0  0  0  0
  -29.2080  -31.5586   24.6077 O   0  0  0  0  0  0  0  0  0  0  0  0
  -16.8682  -27.9887   22.3596 O   0  0  0  0  0  0  0  0  0  0  0  0
  -28.9301  -22.8972   18.7221 O   0  0  0  0  0  0  0  0  0  1  0  0
  -14.1351  -23.2155   21.9715 F   0  0  0  0  0  0  0  0  0  0  0  0
  -15.0497  -27.2337   24.3002 F   0  0  0  0  0  0  0  0  0  0  0  0
  -30.1079  -27.9672   22.9896 Cl  0  0  0  0  0  0  0  0  0  0  0  0
  1  2  1  0  0  0  0
  1  5  2  0  0  0  0
  2  6  2  0  0  0  0
  3 10  2  0  0  0  0
  3 18  1  0  0  0  0
  4 11  1  0  0  0  0
  4 18  2  0  0  0  0
  5 20  1  0  0  0  0
  6 22  1  0  0  0  0
  7 12  2  0  0  0  0
  7 21  1  0  0  0  0
  8  9  2  0  0  0  0
  8 24  1  0  0  0  0
  9 25  1  0  0  0  0
 10 26  1  0  0  0  0
 11 26  2  0  0  0  0
 12 27  1  0  0  0  0
 13 14  2  0  0  0  0
 13 28  1  0  0  0  0
 14 29  1  0  0  0  0
 15 23  1  0  0  0  0
 15 27  2  0  0  0  0
 16 25  2  0  0  0  0
 16 31  1  0  0  0  0
 17 29  2  0  0  0  0
 17 30  1  0  0  0  0
 18 32  1  0  0  0  0
 19 32  1  0  0  0  0
 19 33  2  0  0  0  0
 19 34  1  0  0  0  0
 20 22  2  0  0  0  0
 20 39  1  0  0  0  0
 21 23  2  0  0  0  0
 21 40  1  0  0  0  0
 22 48  1  0  0  0  0
 23 41  1  0  0  0  0
 24 31  2  0  0  0  0
 24 57  1  0  0  0  0
 25 73  1  0  0  0  0
 26 80  1  0  0  0  0
 27 81  1  0  0  0  0
 28 30  2  0  0  0  0
 28 80  1  0  0  0  0
 29 82  1  0  0  0  0
 30 83  1  0  0  0  0
 31 84  1  0  0  0  0
 32 64  2  0  0  0  0
 33 65  1  0  0  0  0
 33 68  1  0  0  0  0
 34 69  1  0  0  0  0
 34 75  2  0  0  0  0
 35 49  1  0  0  0  0
 35 70  1  0  0  0  0
 35 76  2  0  0  0  0
 36 61  1  0  0  0  0
 36 66  1  0  0  0  0
 36 77  2  0  0  0  0
 37 62  1  0  0  0  0
 37 71  1  0  0  0  0
 37 78  2  0  0  0  0
 38 67  1  0  0  0  0
 38 72  1  0  0  0  0
 38 79  2  0  0  0  0
 39 42  1  0  0  0  0
 40 49  1  0  0  0  0
 41 66  1  0  0  0  0
 42 44  1  0  0  0  0
 43 45  1  0  0  0  0
 43 46  1  0  0  0  0
 44 48  1  0  0  0  0
 45 50  1  0  0  0  0
 46 67  1  0  0  0  0
 47 50  1  0  0  0  0
 47 67  1  0  0  0  0
 48 70  1  0  0  0  0
 49 66  1  0  0  0  0
 50 65  1  0  0  0  0
 51 62  1  0  0  0  0
 52 63  1  0  0  0  0
 53 63  1  0  0  0  0
 54 63  1  0  0  0  0
 55 73  1  0  0  0  0
 56 74  1  0  0  0  0
 57 72  1  0  0  0  0
 58 59  1  0  0  0  0
 58 60  1  0  0  0  0
 59 73  1  0  0  0  0
 60 81  1  0  0  0  0
 61 63  1  0  0  0  0
 61 71  1  0  0  0  0
 62 74  1  0  0  0  0
 64 65  1  0  0  0  0
M  CHG  1  74   1
M  ISO  4  38 100  60 101  72 100  81 101
M  END
> <Batch ID>
0018

> <Smiles>
CNC(C)C(=O)NC(C(=O)N1Cc2cc([101O:1][101CH2:1]CCN(C)c3ccc(C[100NH:0][100C:0](=O)N4CCCC(n5nc(-c6ccc(Oc7ccc(F)cc7F)cc6)c(C(N)=O)c5N)C4)c(Cl)c3)ccc2CC1C(=O)NC1CCCc2ccccc21)C(C)(C)C

> <Shape>
0.212

> <Color>
0.078

> <Negative vol penalty>
0.000

$$$$

  -OEChem-04042321033D

 82 90  0     1  0  0  0  0  0999 V2000
  -35.9092  -31.1665   20.0709 C   0  0  0  0  0  0  0  0  0  0  0  0
  -35.9895  -30.0060   20.8339 C   0  0  0  0  0  0  0  0  0  0  0  0
  -23.0463   -9.9635   19.8683 C   0  0  0  0  0  0  0  0  0  0  0  0
  -23.9077   -9.7563   22.1160 C   0  0  0  0  0  0  0  0  0  0  0  0
  -34.6783  -31.7950   19.8874 C   0  0  0  0  0  0  0  0  0  0  0  0
  -34.8389  -29.4739   21.4148 C   0  0  0  0  0  0  0  0  0  0  0  0
  -33.5448  -23.5480   22.2608 C   0  0  0  0  0  0  0  0  0  0  0  0
  -32.7769  -17.2532   23.6545 C   0  0  0  0  0  0  0  0  0  0  0  0
  -32.1462  -16.4571   22.6984 C   0  0  0  0  0  0  0  0  0  0  0  0
  -22.3135   -8.7894   20.0408 C   0  0  0  0  0  0  0  0  0  0  0  0
  -23.1748   -8.5821   22.2886 C   0  0  0  0  0  0  0  0  0  0  0  0
  -33.6592  -22.7121   23.3707 C   0  0  0  0  0  0  0  0  0  0  0  0
  -19.9761   -7.7198   22.9558 C   0  0  0  0  0  0  0  0  0  0  0  0
  -19.2721   -7.5667   24.1502 C   0  0  0  0  0  0  0  0  0  0  0  0
  -31.3390  -23.1072   23.8997 C   0  0  0  0  0  0  0  0  0  0  0  0
  -30.6244  -18.0379   24.4212 C   0  0  0  0  0  0  0  0  0  0  0  0
  -20.5436   -5.5726   24.6441 C   0  0  0  0  0  0  0  0  0  0  0  0
  -23.8435  -10.4470   20.9058 C   0  0  0  0  0  0  0  0  0  0  0  0
  -24.1816  -12.9733   21.0101 C   0  0  0  0  0  0  0  0  0  0  0  0
  -33.5105  -31.2649   20.4583 C   0  0  0  0  0  0  0  0  0  0  0  0
  -32.3275  -24.1795   21.9677 C   0  0  0  0  0  0  0  0  0  0  0  0
  -33.5914  -30.0966   21.2399 C   0  0  0  0  0  0  0  0  0  0  0  0
  -31.2111  -23.9486   22.7840 C   0  0  0  0  0  0  0  0  0  0  0  0
  -32.0160  -18.0435   24.5160 C   0  0  0  0  0  0  0  0  0  0  0  0
  -30.7546  -16.4515   22.6037 C   0  0  0  0  0  0  0  0  0  0  0  0
  -22.3777   -8.0986   21.2510 C   0  0  0  0  0  0  0  0  0  0  0  0
  -32.5569  -22.4939   24.1920 C   0  0  0  0  0  0  0  0  0  0  0  0
  -20.9638   -6.7992   22.6055 C   0  0  0  0  0  0  0  0  0  0  0  0
  -19.5558   -6.4932   24.9943 C   0  0  0  0  0  0  0  0  0  0  0  0
  -29.9936  -17.2419   23.4651 C   0  0  0  0  0  0  0  0  0  0  0  0
  -21.2476   -5.7257   23.4497 C   0  0  0  0  0  0  0  0  0  0  0  0
  -24.6013  -11.6595   20.7280 C   0  0  0  0  0  0  0  0  0  0  0  0
  -25.2570  -13.7576   20.6712 C   0  0  0  0  0  0  0  0  0  0  0  0
  -22.9314  -13.4428   21.5320 C   0  0  0  0  0  0  0  0  0  0  0  0
  -31.3586  -27.2002   21.7675 C   0  0  0  0  0  0  0  0  0  0  0  0
  -28.6079  -25.8397   20.7163 C   0  0  0  0  0  0  0  0  0  0  0  0
  -26.5814  -23.0951   20.6311 C   0  0  0  0  0  0  0  0  0  0  0  0
  -30.7264  -14.8008   20.7008 C   0  0  0  0  0  0  0  0  0  0  0  0
  -32.2102  -32.0058   20.2713 C   0  0  0  0  0  0  0  0  0  0  0  0
  -32.2134  -25.0571   20.7515 C   0  0  0  0  0  0  0  0  0  0  0  0
  -29.8764  -24.5866   22.5013 C   0  0  0  0  0  0  0  0  0  0  0  0
  -30.9787  -31.1698   20.6101 C   0  0  0  0  0  0  0  0  0  0  0  0
  -29.5056  -12.6179   18.1667 C   0  0  0  0  0  0  0  0  0  0  0  0
  -31.1749  -30.4436   21.9371 C   0  0  0  0  0  0  0  0  0  0  0  0
  -28.0864  -12.2820   18.6304 C   0  0  0  0  0  0  0  0  0  0  0  0
  -30.4736  -12.7352   19.3428 C   0  0  0  0  0  0  0  0  0  0  0  0
  -28.6307  -13.3193   20.8698 C   0  0  0  0  0  0  0  0  0  0  0  0
  -32.3617  -29.4751   21.8657 C   0  0  1  0  0  0  0  0  0  0  0  0
  -31.0630  -26.0551   20.8406 C   0  0  1  0  0  0  0  0  0  0  0  0
  -27.6062  -13.2548   19.7253 C   0  0  2  0  0  0  0  0  0  0  0  0
  -24.3818  -22.2980   19.7234 C   0  0  0  0  0  0  0  0  0  0  0  0
  -27.1454  -27.4281   22.8722 C   0  0  0  0  0  0  0  0  0  0  0  0
  -25.1776  -25.9129   22.5555 C   0  0  0  0  0  0  0  0  0  0  0  0
  -25.9704  -27.3361   20.6664 C   0  0  0  0  0  0  0  0  0  0  0  0
  -34.1094  -18.8496   25.5781 C   0  0  0  0  0  0  0  0  0  0  0  0
  -27.8791  -20.9667   19.0359 C   0  0  0  0  0  0  0  0  0  0  0  0
  -31.8916  -19.6831   26.3751 C   0  0  0  0  0  0  0  0  0  0  0  0
  -31.4927  -20.9739   25.6797 C   0  0  0  0  0  0  0  0  0  1  0  0
  -27.3455  -25.3357   21.3730 C   0  0  1  0  0  0  0  0  0  0  0  0
  -25.8798  -22.3964   19.4804 C   0  0  2  0  0  0  0  0  0  0  0  0
  -26.4352  -26.4926   21.8735 C   0  0  0  0  0  0  0  0  0  0  0  0
  -25.8461  -11.6080   20.2467 N   0  0  0  0  0  0  0  0  0  0  0  0
  -26.2179  -12.8993   20.2237 N   0  0  0  0  0  0  0  0  0  0  0  0
  -29.8169  -25.4414   21.3041 N   0  0  0  0  0  0  0  0  0  0  0  0
  -29.9551  -13.6765   20.3377 N   0  0  0  0  0  0  0  0  0  0  0  0
  -25.4650  -15.0907   20.7152 N   0  0  0  0  0  0  0  0  0  0  0  0
  -21.9349  -12.5024   21.8264 N   0  0  0  0  0  0  0  0  0  0  0  0
  -30.1169  -15.6421   21.6311 N   0  0  0  0  0  0  0  0  0  0  0  0
  -31.9879  -28.2690   21.1584 N   0  0  0  0  0  0  0  0  0  0  0  0
  -26.7078  -24.4495   20.4053 N   0  0  0  0  0  0  0  0  0  0  0  0
  -32.6497  -18.8427   25.4768 N   0  0  3  0  0  0  0  0  0  0  0  0
  -26.4191  -21.0181   19.3052 N   0  3  0  0  0  0  0  0  0  0  0  0
  -22.6989  -14.6617   21.7160 O   0  0  0  0  0  0  0  0  0  0  0  0
  -31.0380  -27.1206   22.9476 O   0  0  0  0  0  0  0  0  0  0  0  0
  -28.5245  -26.5544   19.7144 O   0  0  0  0  0  0  0  0  0  0  0  0
  -26.9744  -22.4997   21.6318 O   0  0  0  0  0  0  0  0  0  0  0  0
  -31.8336  -15.0169   20.2015 O   0  0  0  0  0  0  0  0  0  0  0  0
  -21.6625   -6.9530   21.4198 O   0  0  0  0  0  0  0  0  0  0  0  0
  -32.6660  -21.6789   25.2764 O   0  0  0  0  0  0  0  0  0  1  0  0
  -18.8807   -6.3472   26.1420 F   0  0  0  0  0  0  0  0  0  0  0  0
  -28.6555  -17.2445   23.3825 F   0  0  0  0  0  0  0  0  0  0  0  0
  -22.1962   -4.8387   23.1191 F   0  0  0  0  0  0  0  0  0  0  0  0
  1  2  1  0  0  0  0
  1  5  2  0  0  0  0
  2  6  2  0  0  0  0
  3 10  2  0  0  0  0
  3 18  1  0  0  0  0
  4 11  1  0  0  0  0
  4 18  2  0  0  0  0
  5 20  1  0  0  0  0
  6 22  1  0  0  0  0
  7 12  2  0  0  0  0
  7 21  1  0  0  0  0
  8  9  2  0  0  0  0
  8 24  1  0  0  0  0
  9 25  1  0  0  0  0
 10 26  1  0  0  0  0
 11 26  2  0  0  0  0
 12 27  1  0  0  0  0
 13 14  2  0  0  0  0
 13 28  1  0  0  0  0
 14 29  1  0  0  0  0
 15 23  1  0  0  0  0
 15 27  2  0  0  0  0
 16 24  2  0  0  0  0
 16 30  1  0  0  0  0
 17 29  2  0  0  0  0
 17 31  1  0  0  0  0
 18 32  1  0  0  0  0
 19 32  1  0  0  0  0
 19 33  2  0  0  0  0
 19 34  1  0  0  0  0
 20 22  2  0  0  0  0
 20 39  1  0  0  0  0
 21 23  2  0  0  0  0
 21 40  1  0  0  0  0
 22 48  1  0  0  0  0
 23 41  1  0  0  0  0
 24 71  1  0  0  0  0
 25 30  2  0  0  0  0
 25 68  1  0  0  0  0
 26 78  1  0  0  0  0
 27 79  1  0  0  0  0
 28 31  2  0  0  0  0
 28 78  1  0  0  0  0
 29 80  1  0  0  0  0
 30 81  1  0  0  0  0
 31 82  1  0  0  0  0
 32 62  2  0  0  0  0
 33 63  1  0  0  0  0
 33 66  1  0  0  0  0
 34 67  1  0  0  0  0
 34 73  2  0  0  0  0
 35 49  1  0  0  0  0
 35 69  1  0  0  0  0
 35 74  2  0  0  0  0
 36 59  1  0  0  0  0
 36 64  1  0  0  0  0
 36 75  2  0  0  0  0
 37 60  1  0  0  0  0
 37 70  1  0  0  0  0
 37 76  2  0  0  0  0
 38 65  1  0  0  0  0
 38 68  1  0  0  0  0
 38 77  2  0  0  0  0
 39 42  1  0  0  0  0
 40 49  1  0  0  0  0
 41 64  1  0  0  0  0
 42 44  1  0  0  0  0
 43 45  1  0  0  0  0
 43 46  1  0  0  0  0
 44 48  1  0  0  0  0
 45 50  1  0  0  0  0
 46 65  1  0  0  0  0
 47 50  1  0  0  0  0
 47 65  1  0  0  0  0
 48 69  1  0  0  0  0
 49 64  1  0  0  0  0
 50 63  1  0  0  0  0
 51 60  1  0  0  0  0
 52 61  1  0  0  0  0
 53 61  1  0  0  0  0
 54 61  1  0  0  0  0
 55 71  1  0  0  0  0
 56 72  1  0  0  0  0
 57 58  1  0  0  0  0
 57 71  1  0  0  0  0
 58 79  1  0  0  0  0
 59 61  1  0  0  0  0
 59 70  1  0  0  0  0
 60 72  1  0  0  0  0
 62 63  1  0  0  0  0
M  CHG  1  72   1
M  ISO  4  38 100  58 101  68 100  79 101
M  END
> <Batch ID>
0018

> <Smiles>
CNC(C)C(=O)NC(C(=O)N1Cc2cc([101O:1][101CH2:1]CN(C)c3ccc([100NH:0][100C:0](=O)N4CCCC(n5nc(-c6ccc(Oc7ccc(F)cc7F)cc6)c(C(N)=O)c5N)C4)c(F)c3)ccc2CC1C(=O)NC1CCCc2ccccc21)C(C)(C)C

> <Shape>
0.212

> <Color>
0.214

> <Negative vol penalty>
0.000

$$$$

  -OEChem-04042321033D

 88 96  0     1  0  0  0  0  0999 V2000
  -21.2229  -25.6801   17.1441 C   0  0  0  0  0  0  0  0  0  0  0  0
  -22.4188  -25.4713   17.8236 C   0  0  0  0  0  0  0  0  0  0  0  0
  -23.1941   -9.7511   20.6735 C   0  0  0  0  0  0  0  0  0  0  0  0
  -23.8435  -10.3395   22.9250 C   0  0  0  0  0  0  0  0  0  0  0  0
  -20.6919  -26.9658   17.0488 C   0  0  0  0  0  0  0  0  0  0  0  0
  -23.0849  -26.5484   18.4073 C   0  0  0  0  0  0  0  0  0  0  0  0
  -24.7244  -25.5140   23.0856 C   0  0  0  0  0  0  0  0  0  0  0  0
  -29.3427  -19.7596   21.0282 C   0  0  0  0  0  0  0  0  0  0  0  0
  -29.2234  -18.4067   21.3460 C   0  0  0  0  0  0  0  0  0  0  0  0
  -22.4811   -8.6577   21.1650 C   0  0  0  0  0  0  0  0  0  0  0  0
  -23.1305   -9.2461   23.4165 C   0  0  0  0  0  0  0  0  0  0  0  0
  -25.8822  -24.7456   23.1992 C   0  0  0  0  0  0  0  0  0  0  0  0
  -20.7860   -5.5031   21.7968 C   0  0  0  0  0  0  0  0  0  0  0  0
  -20.9307   -4.2829   21.1367 C   0  0  0  0  0  0  0  0  0  0  0  0
  -27.1665  -26.7497   23.5911 C   0  0  0  0  0  0  0  0  0  0  0  0
  -30.9438  -17.8766   19.7347 C   0  0  0  0  0  0  0  0  0  0  0  0
  -23.3009   -4.3110   21.6043 C   0  0  0  0  0  0  0  0  0  0  0  0
  -23.8754  -10.5921   21.5536 C   0  0  0  0  0  0  0  0  0  0  0  0
  -24.1316  -13.0289   20.8437 C   0  0  0  0  0  0  0  0  0  0  0  0
  -21.3469  -28.0576   17.6399 C   0  0  0  0  0  0  0  0  0  0  0  0
  -24.7808  -26.9093   23.2133 C   0  0  0  0  0  0  0  0  0  0  0  0
  -22.5629  -27.8500   18.3187 C   0  0  0  0  0  0  0  0  0  0  0  0
  -26.0076  -27.5333   23.4812 C   0  0  0  0  0  0  0  0  0  0  0  0
  -30.2624  -20.1710   20.0636 C   0  0  0  0  0  0  0  0  0  0  0  0
  -31.0630  -19.2295   19.4169 C   0  0  0  0  0  0  0  0  0  0  0  0
  -30.0240  -17.4652   20.6993 C   0  0  0  0  0  0  0  0  0  0  0  0
  -22.4492   -8.4051   22.5364 C   0  0  0  0  0  0  0  0  0  0  0  0
  -27.1040  -25.3637   23.4491 C   0  0  0  0  0  0  0  0  0  0  0  0
  -21.8988   -6.1273   22.3606 C   0  0  0  0  0  0  0  0  0  0  0  0
  -22.1881   -3.6868   21.0405 C   0  0  0  0  0  0  0  0  0  0  0  0
  -23.1562   -5.5313   22.2644 C   0  0  0  0  0  0  0  0  0  0  0  0
  -24.6126  -11.7215   21.0465 C   0  0  0  0  0  0  0  0  0  0  0  0
  -25.2122  -13.7199   20.3524 C   0  0  0  0  0  0  0  0  0  0  0  0
  -22.8250  -13.5704   21.0786 C   0  0  0  0  0  0  0  0  0  0  0  0
  -24.1292  -29.3647   21.3028 C   0  0  0  0  0  0  0  0  0  0  0  0
  -24.7218  -31.1009   23.9780 C   0  0  0  0  0  0  0  0  0  0  0  0
  -29.9009  -23.4229   21.4287 C   0  0  0  0  0  0  0  0  0  0  0  0
  -26.2583  -31.3045   27.0185 C   0  0  0  0  0  0  0  0  0  0  0  0
  -30.6229  -15.0285   20.4757 C   0  0  0  0  0  0  0  0  0  0  0  0
  -20.7586  -29.4359   17.4699 C   0  0  0  0  0  0  0  0  0  0  0  0
  -23.5187  -27.7215   23.1147 C   0  0  0  0  0  0  0  0  0  0  0  0
  -26.1186  -29.0261   23.6468 C   0  0  0  0  0  0  0  0  0  0  0  0
  -21.3337  -30.4673   18.4372 C   0  0  0  0  0  0  0  0  0  0  0  0
  -29.7095  -12.0710   18.7161 C   0  0  0  0  0  0  0  0  0  0  0  0
  -22.8551  -30.3667   18.4823 C   0  0  0  0  0  0  0  0  0  0  0  0
  -28.2625  -11.8239   19.1488 C   0  0  0  0  0  0  0  0  0  0  0  0
  -30.5577  -12.6216   19.8611 C   0  0  0  0  0  0  0  0  0  0  0  0
  -28.5626  -13.5654   20.9556 C   0  0  0  0  0  0  0  0  0  0  0  0
  -23.3022  -28.9891   18.9864 C   0  0  1  0  0  0  0  0  0  0  0  0
  -23.7741  -29.1809   22.7512 C   0  0  1  0  0  0  0  0  0  0  0  0
  -27.6536  -13.0717   19.8182 C   0  0  2  0  0  0  0  0  0  0  0  0
  -26.5901  -32.8626   28.9575 C   0  0  0  0  0  0  0  0  0  0  0  0
  -26.7273  -32.7119   22.3372 C   0  0  0  0  0  0  0  0  0  0  0  0
  -27.6851  -33.5743   24.4836 C   0  0  0  0  0  0  0  0  0  0  0  0
  -25.3148  -34.0739   23.8878 C   0  0  0  0  0  0  0  0  0  0  0  0
  -32.0319  -22.1095   21.4953 C   0  0  0  0  0  0  0  0  0  0  0  0
  -24.9615  -29.4245   28.9007 C   0  0  0  0  0  0  0  0  0  0  0  0
  -30.3721  -21.6326   19.7380 C   0  0  0  0  0  0  0  0  0  0  0  0
  -30.4228  -24.1641   22.6553 C   0  0  0  0  0  0  0  0  0  0  0  0
  -29.4613  -25.2307   23.1641 C   0  0  0  0  0  0  0  0  0  1  0  0
  -25.9478  -31.7303   24.5943 C   0  0  1  0  0  0  0  0  0  0  0  0
  -25.7447  -31.7383   28.3796 C   0  0  2  0  0  0  0  0  0  0  0  0
  -32.0560  -19.6470   18.3824 C   0  0  0  0  0  0  0  0  0  0  0  0
  -26.4173  -32.9946   23.8207 C   0  0  0  0  0  0  0  0  0  0  0  0
  -25.8985  -11.5873   20.7111 N   0  0  0  0  0  0  0  0  0  0  0  0
  -26.2347  -12.8193   20.2926 N   0  0  0  0  0  0  0  0  0  0  0  0
  -24.8574  -29.7775   23.5354 N   0  0  0  0  0  0  0  0  0  0  0  0
  -29.9211  -13.8048   20.4438 N   0  0  0  0  0  0  0  0  0  0  0  0
  -25.3779  -15.0038   19.9698 N   0  0  0  0  0  0  0  0  0  0  0  0
  -21.8315  -12.7220   21.5862 N   0  0  0  0  0  0  0  0  0  0  0  0
  -29.9046  -16.0909   21.0232 N   0  0  0  0  0  0  0  0  0  0  0  0
  -23.1648  -28.9082   20.4248 N   0  0  0  0  0  0  0  0  0  0  0  0
  -25.6211  -31.9739   25.9952 N   0  0  0  0  0  0  0  0  0  0  0  0
  -30.7360  -22.4278   20.9085 N   0  0  0  0  0  0  0  0  0  0  0  0
  -25.7713  -30.5927   29.3325 N   0  3  0  0  0  0  0  0  0  0  0  0
  -22.5423  -14.7669   20.8300 O   0  0  0  0  0  0  0  0  0  0  0  0
  -25.1984  -29.8837   21.0040 O   0  0  0  0  0  0  0  0  0  0  0  0
  -23.6801  -31.7569   23.8990 O   0  0  0  0  0  0  0  0  0  0  0  0
  -28.8015  -23.7059   20.9456 O   0  0  0  0  0  0  0  0  0  0  0  0
  -27.1393  -30.4593   26.8774 O   0  0  0  0  0  0  0  0  0  0  0  0
  -31.7661  -15.1329   20.0239 O   0  0  0  0  0  0  0  0  0  0  0  0
  -21.7534   -7.3384   23.0163 O   0  0  0  0  0  0  0  0  0  0  0  0
  -28.2357  -24.6162   23.5598 O   0  0  0  0  0  0  0  0  0  1  0  0
  -22.3266   -2.5143   20.4079 F   0  0  0  0  0  0  0  0  0  0  0  0
  -24.2287   -6.1256   22.8051 F   0  0  0  0  0  0  0  0  0  0  0  0
  -32.7587  -18.6051   17.8491 F   0  0  0  0  0  0  0  0  0  0  0  0
  -31.4941  -20.2839   17.3137 F   0  0  0  0  0  0  0  0  0  0  0  0
  -32.9923  -20.5088   18.8738 F   0  0  0  0  0  0  0  0  0  0  0  0
  1  2  1  0  0  0  0
  1  5  2  0  0  0  0
  2  6  2  0  0  0  0
  3 10  2  0  0  0  0
  3 18  1  0  0  0  0
  4 11  1  0  0  0  0
  4 18  2  0  0  0  0
  5 20  1  0  0  0  0
  6 22  1  0  0  0  0
  7 12  2  0  0  0  0
  7 21  1  0  0  0  0
  8  9  2  0  0  0  0
  8 24  1  0  0  0  0
  9 26  1  0  0  0  0
 10 27  1  0  0  0  0
 11 27  2  0  0  0  0
 12 28  1  0  0  0  0
 13 14  2  0  0  0  0
 13 29  1  0  0  0  0
 14 30  1  0  0  0  0
 15 23  1  0  0  0  0
 15 28  2  0  0  0  0
 16 25  1  0  0  0  0
 16 26  2  0  0  0  0
 17 30  2  0  0  0  0
 17 31  1  0  0  0  0
 18 32  1  0  0  0  0
 19 32  1  0  0  0  0
 19 33  2  0  0  0  0
 19 34  1  0  0  0  0
 20 22  2  0  0  0  0
 20 40  1  0  0  0  0
 21 23  2  0  0  0  0
 21 41  1  0  0  0  0
 22 49  1  0  0  0  0
 23 42  1  0  0  0  0
 24 25  2  0  0  0  0
 24 58  1  0  0  0  0
 25 63  1  0  0  0  0
 26 71  1  0  0  0  0
 27 82  1  0  0  0  0
 28 83  1  0  0  0  0
 29 31  2  0  0  0  0
 29 82  1  0  0  0  0
 30 84  1  0  0  0  0
 31 85  1  0  0  0  0
 32 65  2  0  0  0  0
 33 66  1  0  0  0  0
 33 69  1  0  0  0  0
 34 70  1  0  0  0  0
 34 76  2  0  0  0  0
 35 50  1  0  0  0  0
 35 72  1  0  0  0  0
 35 77  2  0  0  0  0
 36 61  1  0  0  0  0
 36 67  1  0  0  0  0
 36 78  2  0  0  0  0
 37 59  1  0  0  0  0
 37 74  1  0  0  0  0
 37 79  2  0  0  0  0
 38 62  1  0  0  0  0
 38 73  1  0  0  0  0
 38 80  2  0  0  0  0
 39 68  1  0  0  0  0
 39 71  1  0  0  0  0
 39 81  2  0  0  0  0
 40 43  1  0  0  0  0
 41 50  1  0  0  0  0
 42 67  1  0  0  0  0
 43 45  1  0  0  0  0
 44 46  1  0  0  0  0
 44 47  1  0  0  0  0
 45 49  1  0  0  0  0
 46 51  1  0  0  0  0
 47 68  1  0  0  0  0
 48 51  1  0  0  0  0
 48 68  1  0  0  0  0
 49 72  1  0  0  0  0
 50 67  1  0  0  0  0
 51 66  1  0  0  0  0
 52 62  1  0  0  0  0
 53 64  1  0  0  0  0
 54 64  1  0  0  0  0
 55 64  1  0  0  0  0
 56 74  1  0  0  0  0
 57 75  1  0  0  0  0
 58 74  1  0  0  0  0
 59 60  1  0  0  0  0
 60 83  1  0  0  0  0
 61 64  1  0  0  0  0
 61 73  1  0  0  0  0
 62 75  1  0  0  0  0
 63 86  1  0  0  0  0
 63 87  1  0  0  0  0
 63 88  1  0  0  0  0
 65 66  1  0  0  0  0
M  CHG  1  75   1
M  ISO  4  39 100  60 101  71 100  83 101
M  END
> <Batch ID>
0018

> <Smiles>
CNC(C)C(=O)NC(C(=O)N1Cc2cc([101O:1][101CH2:1]CC(=O)N(C)Cc3ccc([100NH:0][100C:0](=O)N4CCCC(n5nc(-c6ccc(Oc7ccc(F)cc7F)cc6)c(C(N)=O)c5N)C4)cc3C(F)(F)F)ccc2CC1C(=O)NC1CCCc2ccccc21)C(C)(C)C

> <Shape>
0.297

> <Color>
0.180

> <Negative vol penalty>
0.000

$$$$

  -OEChem-04042321033D

 75 82  0     1  0  0  0  0  0999 V2000
  -21.8649  -12.3496   19.0187 C   0  0  0  0  0  0  0  0  0  0  0  0
  -21.7775  -13.6857   19.3963 C   0  0  0  0  0  0  0  0  0  0  0  0
  -26.9921  -30.9967   21.9124 C   0  0  0  0  0  0  0  0  0  0  0  0
  -26.6948  -29.2393   23.5434 C   0  0  0  0  0  0  0  0  0  0  0  0
  -23.0111  -11.6149   19.3194 C   0  0  0  0  0  0  0  0  0  0  0  0
  -22.8359  -14.2876   20.0760 C   0  0  0  0  0  0  0  0  0  0  0  0
  -23.9486  -18.8821   18.2599 C   0  0  0  0  0  0  0  0  0  0  0  0
  -27.4646  -31.8456   22.9133 C   0  0  0  0  0  0  0  0  0  0  0  0
  -27.1673  -30.0882   24.5443 C   0  0  0  0  0  0  0  0  0  0  0  0
  -23.1165  -19.9348   18.6381 C   0  0  0  0  0  0  0  0  0  0  0  0
  -30.3447  -32.3250   24.6187 C   0  0  0  0  0  0  0  0  0  0  0  0
  -31.4876  -33.0764   24.3453 C   0  0  0  0  0  0  0  0  0  0  0  0
  -24.7314  -20.6065   20.2994 C   0  0  0  0  0  0  0  0  0  0  0  0
  -30.2353  -35.1113   24.7029 C   0  0  0  0  0  0  0  0  0  0  0  0
  -26.6072  -29.6936   22.2275 C   0  0  0  0  0  0  0  0  0  0  0  0
  -26.8768  -27.9430   20.3916 C   0  0  0  0  0  0  0  0  0  0  0  0
  -24.0880  -12.2108   19.9946 C   0  0  0  0  0  0  0  0  0  0  0  0
  -25.1755  -18.6767   18.9072 C   0  0  0  0  0  0  0  0  0  0  0  0
  -23.9970  -13.5599   20.3872 C   0  0  0  0  0  0  0  0  0  0  0  0
  -25.5784  -19.5520   19.9259 C   0  0  0  0  0  0  0  0  0  0  0  0
  -27.5522  -31.3914   24.2292 C   0  0  0  0  0  0  0  0  0  0  0  0
  -23.5065  -20.7956   19.6599 C   0  0  0  0  0  0  0  0  0  0  0  0
  -29.1470  -32.9668   24.9341 C   0  0  0  0  0  0  0  0  0  0  0  0
  -31.4329  -34.4695   24.3874 C   0  0  0  0  0  0  0  0  0  0  0  0
  -29.0924  -34.3599   24.9763 C   0  0  0  0  0  0  0  0  0  0  0  0
  -26.1185  -28.8164   21.1941 C   0  0  0  0  0  0  0  0  0  0  0  0
  -25.9532  -27.3392   19.5737 C   0  0  0  0  0  0  0  0  0  0  0  0
  -28.2897  -27.6993   20.3859 C   0  0  0  0  0  0  0  0  0  0  0  0
  -26.4297  -16.3291   20.6449 C   0  0  0  0  0  0  0  0  0  0  0  0
  -29.0983  -18.1668   20.4912 C   0  0  0  0  0  0  0  0  0  0  0  0
  -22.1221  -23.7518   21.3698 C   0  0  0  0  0  0  0  0  0  0  0  0
  -30.4609  -21.2664   20.0640 C   0  0  0  0  0  0  0  0  0  0  0  0
  -22.1051  -26.0297   22.4235 C   0  0  0  0  0  0  0  0  0  0  0  0
  -25.2870  -11.3634   20.3395 C   0  0  0  0  0  0  0  0  0  0  0  0
  -26.0737  -17.5525   18.4694 C   0  0  0  0  0  0  0  0  0  0  0  0
  -26.8949  -19.3869   20.6386 C   0  0  0  0  0  0  0  0  0  0  0  0
  -26.5166  -12.1786   20.7315 C   0  0  0  0  0  0  0  0  0  0  0  0
  -21.6780  -29.0150   20.5411 C   0  0  0  0  0  0  0  0  0  0  0  0
  -26.1371  -13.2739   21.7230 C   0  0  0  0  0  0  0  0  0  0  0  0
  -22.4558  -28.7611   19.2514 C   0  0  0  0  0  0  0  0  0  0  0  0
  -20.9866  -27.7497   21.0315 C   0  0  0  0  0  0  0  0  0  0  0  0
  -22.6967  -26.3132   19.9576 C   0  0  0  0  0  0  0  0  0  0  0  0
  -25.1342  -14.2550   21.1040 C   0  0  1  0  0  0  0  0  0  0  0  0
  -27.0689  -17.1292   19.5454 C   0  0  1  0  0  0  0  0  0  0  0  0
  -23.3869  -27.5365   19.3194 C   0  0  2  0  0  0  0  0  0  0  0  0
  -32.6679  -22.4603   20.0294 C   0  0  0  0  0  0  0  0  0  0  0  0
  -29.2212  -18.0229   23.5366 C   0  0  0  0  0  0  0  0  0  0  0  0
  -30.8149  -19.9533   23.4939 C   0  0  0  0  0  0  0  0  0  0  0  0
  -31.4337  -17.8028   22.3916 C   0  0  0  0  0  0  0  0  0  0  0  0
  -23.0304  -24.1126   23.6072 C   0  0  0  0  0  0  0  0  0  0  0  0
  -30.0836  -22.1254   17.2571 C   0  0  0  0  0  0  0  0  0  0  0  0
  -23.1479  -22.6686   21.0807 C   0  0  0  0  0  0  0  0  0  1  0  0
  -29.6792  -19.2805   21.3287 C   0  0  1  0  0  0  0  0  0  0  0  0
  -31.6100  -21.7510   19.1984 C   0  0  2  0  0  0  0  0  0  0  0  0
  -30.2615  -18.7671   22.6758 C   0  0  0  0  0  0  0  0  0  0  0  0
  -24.8137  -28.7743   20.9116 N   0  0  0  0  0  0  0  0  0  0  0  0
  -24.7449  -27.8672   19.9223 N   0  0  0  0  0  0  0  0  0  0  0  0
  -27.7353  -18.2690   20.1787 N   0  0  0  0  0  0  0  0  0  0  0  0
  -21.9348  -26.6463   21.1697 N   0  0  0  0  0  0  0  0  0  0  0  0
  -26.0648  -26.4134   18.5976 N   0  0  0  0  0  0  0  0  0  0  0  0
  -29.0930  -28.4051   21.2919 N   0  0  0  0  0  0  0  0  0  0  0  0
  -25.8098  -15.1726   20.2117 N   0  0  0  0  0  0  0  0  0  0  0  0
  -30.6489  -19.9655   20.4809 N   0  0  0  0  0  0  0  0  0  0  0  0
  -22.4788  -24.6708   22.3818 N   0  0  0  0  0  0  0  0  0  0  0  0
  -31.1133  -22.6990   18.1614 N   0  3  0  0  0  0  0  0  0  0  0  0
  -28.8259  -26.8920   19.5896 O   0  0  0  0  0  0  0  0  0  0  0  0
  -26.4953  -16.7305   21.8008 O   0  0  0  0  0  0  0  0  0  0  0  0
  -29.8287  -17.2439   20.1217 O   0  0  0  0  0  0  0  0  0  0  0  0
  -21.0764  -23.8234   20.7205 O   0  0  0  0  0  0  0  0  0  0  0  0
  -29.4952  -21.9725   20.3455 O   0  0  0  0  0  0  0  0  0  0  0  0
  -21.9572  -26.6185   23.4991 O   0  0  0  0  0  0  0  0  0  0  0  0
  -28.0134  -32.2194   25.2061 O   0  0  0  0  0  0  0  0  0  0  0  0
  -22.6885  -21.8330   20.0348 O   0  0  0  0  0  0  0  0  0  1  0  0
  -32.5309  -35.1909   24.1264 F   0  0  0  0  0  0  0  0  0  0  0  0
  -27.9449  -34.9821   25.2799 F   0  0  0  0  0  0  0  0  0  0  0  0
  1  2  1  0  0  0  0
  1  5  2  0  0  0  0
  2  6  2  0  0  0  0
  3  8  2  0  0  0  0
  3 15  1  0  0  0  0
  4  9  1  0  0  0  0
  4 15  2  0  0  0  0
  5 17  1  0  0  0  0
  6 19  1  0  0  0  0
  7 10  2  0  0  0  0
  7 18  1  0  0  0  0
  8 21  1  0  0  0  0
  9 21  2  0  0  0  0
 10 22  1  0  0  0  0
 11 12  2  0  0  0  0
 11 23  1  0  0  0  0
 12 24  1  0  0  0  0
 13 20  1  0  0  0  0
 13 22  2  0  0  0  0
 14 24  2  0  0  0  0
 14 25  1  0  0  0  0
 15 26  1  0  0  0  0
 16 26  1  0  0  0  0
 16 27  2  0  0  0  0
 16 28  1  0  0  0  0
 17 19  2  0  0  0  0
 17 34  1  0  0  0  0
 18 20  2  0  0  0  0
 18 35  1  0  0  0  0
 19 43  1  0  0  0  0
 20 36  1  0  0  0  0
 21 72  1  0  0  0  0
 22 73  1  0  0  0  0
 23 25  2  0  0  0  0
 23 72  1  0  0  0  0
 24 74  1  0  0  0  0
 25 75  1  0  0  0  0
 26 56  2  0  0  0  0
 27 57  1  0  0  0  0
 27 60  1  0  0  0  0
 28 61  1  0  0  0  0
 28 66  2  0  0  0  0
 29 44  1  0  0  0  0
 29 62  1  0  0  0  0
 29 67  2  0  0  0  0
 30 53  1  0  0  0  0
 30 58  1  0  0  0  0
 30 68  2  0  0  0  0
 31 52  1  0  0  0  0
 31 64  1  0  0  0  0
 31 69  2  0  0  0  0
 32 54  1  0  0  0  0
 32 63  1  0  0  0  0
 32 70  2  0  0  0  0
 33 59  1  0  0  0  0
 33 64  1  0  0  0  0
 33 71  2  0  0  0  0
 34 37  1  0  0  0  0
 35 44  1  0  0  0  0
 36 58  1  0  0  0  0
 37 39  1  0  0  0  0
 38 40  1  0  0  0  0
 38 41  1  0  0  0  0
 39 43  1  0  0  0  0
 40 45  1  0  0  0  0
 41 59  1  0  0  0  0
 42 45  1  0  0  0  0
 42 59  1  0  0  0  0
 43 62  1  0  0  0  0
 44 58  1  0  0  0  0
 45 57  1  0  0  0  0
 46 54  1  0  0  0  0
 47 55  1  0  0  0  0
 48 55  1  0  0  0  0
 49 55  1  0  0  0  0
 50 64  1  0  0  0  0
 51 65  1  0  0  0  0
 52 73  1  0  0  0  0
 53 55  1  0  0  0  0
 53 63  1  0  0  0  0
 54 65  1  0  0  0  0
 56 57  1  0  0  0  0
M  CHG  1  65   1
M  ISO  4  33 100  52 101  64 100  73 101
M  END
> <Batch ID>
0018

> <Smiles>
CNC(C)C(=O)NC(C(=O)N1Cc2cc([101O:1][101CH2:1]C(=O)[100N:0](C)[100C:0](=O)N3CCCC(n4nc(-c5ccc(Oc6ccc(F)cc6F)cc5)c(C(N)=O)c4N)C3)ccc2CC1C(=O)NC1CCCc2ccccc21)C(C)(C)C

> <Shape>
0.216

> <Color>
0.082

> <Negative vol penalty>
0.000

$$$$

  -OEChem-04042321033D

 87 96  0     1  0  0  0  0  0999 V2000
  -24.6791  -28.2964   27.6357 C   0  0  0  0  0  0  0  0  0  0  0  0
  -25.5339  -27.7041   26.7116 C   0  0  0  0  0  0  0  0  0  0  0  0
  -23.8545   -9.6958   22.2578 C   0  0  0  0  0  0  0  0  0  0  0  0
  -23.3735   -9.8046   19.8926 C   0  0  0  0  0  0  0  0  0  0  0  0
  -23.3810  -28.6412   27.2618 C   0  0  0  0  0  0  0  0  0  0  0  0
  -25.0905  -27.4553   25.4131 C   0  0  0  0  0  0  0  0  0  0  0  0
  -28.4076  -27.7375   20.2728 C   0  0  0  0  0  0  0  0  0  0  0  0
  -28.9724  -17.2967   18.9239 C   0  0  0  0  0  0  0  0  0  0  0  0
  -28.8832  -18.4047   18.0813 C   0  0  0  0  0  0  0  0  0  0  0  0
  -23.1820   -8.4765   22.3385 C   0  0  0  0  0  0  0  0  0  0  0  0
  -22.7010   -8.5852   19.9734 C   0  0  0  0  0  0  0  0  0  0  0  0
  -29.0374  -26.7568   19.5079 C   0  0  0  0  0  0  0  0  0  0  0  0
  -19.9802   -7.4032   22.4841 C   0  0  0  0  0  0  0  0  0  0  0  0
  -19.0959   -7.2209   23.5473 C   0  0  0  0  0  0  0  0  0  0  0  0
  -27.1183  -26.6706   18.0489 C   0  0  0  0  0  0  0  0  0  0  0  0
  -29.1222  -19.8722   19.9857 C   0  0  0  0  0  0  0  0  0  0  0  0
  -20.3945   -5.3288   24.3028 C   0  0  0  0  0  0  0  0  0  0  0  0
  -23.9502  -10.3599   21.0348 C   0  0  0  0  0  0  0  0  0  0  0  0
  -24.3362  -12.8077   21.6407 C   0  0  0  0  0  0  0  0  0  0  0  0
  -22.9246  -28.4053   25.9554 C   0  0  0  0  0  0  0  0  0  0  0  0
  -27.1217  -28.1852   19.9373 C   0  0  0  0  0  0  0  0  0  0  0  0
  -23.7846  -27.7961   25.0218 C   0  0  0  0  0  0  0  0  0  0  0  0
  -26.4753  -27.6590   18.8097 C   0  0  0  0  0  0  0  0  0  0  0  0
  -29.1364  -17.4764   20.2975 C   0  0  0  0  0  0  0  0  0  0  0  0
  -28.9582  -19.6924   18.6122 C   0  0  0  0  0  0  0  0  0  0  0  0
  -22.6053   -7.9211   21.1963 C   0  0  0  0  0  0  0  0  0  0  0  0
  -28.3916  -26.2211   18.3974 C   0  0  0  0  0  0  0  0  0  0  0  0
  -21.0717   -6.5484   22.3302 C   0  0  0  0  0  0  0  0  0  0  0  0
  -19.3030   -6.1837   24.4566 C   0  0  0  0  0  0  0  0  0  0  0  0
  -29.2114  -18.7641   20.8283 C   0  0  0  0  0  0  0  0  0  0  0  0
  -21.2788   -5.5112   23.2396 C   0  0  0  0  0  0  0  0  0  0  0  0
  -24.6443  -11.6198   20.9509 C   0  0  0  0  0  0  0  0  0  0  0  0
  -25.2854  -13.7061   21.2182 C   0  0  0  0  0  0  0  0  0  0  0  0
  -28.9227  -22.1821   18.1333 C   0  0  0  0  0  0  0  0  0  0  0  0
  -23.2861  -13.0751   22.5795 C   0  0  0  0  0  0  0  0  0  0  0  0
  -24.2890  -28.1556   21.3791 C   0  0  0  0  0  0  0  0  0  0  0  0
  -23.4017  -29.9352   18.8163 C   0  0  0  0  0  0  0  0  0  0  0  0
  -23.9678  -30.8239   15.5703 C   0  0  0  0  0  0  0  0  0  0  0  0
  -30.8211  -14.5611   20.2480 C   0  0  0  0  0  0  0  0  0  0  0  0
  -21.4978  -28.7521   25.6112 C   0  0  0  0  0  0  0  0  0  0  0  0
  -26.4668  -29.2629   20.7570 C   0  0  0  0  0  0  0  0  0  0  0  0
  -25.1027  -28.1201   18.3953 C   0  0  0  0  0  0  0  0  0  0  0  0
  -21.2272  -28.7972   24.1095 C   0  0  0  0  0  0  0  0  0  0  0  0
  -28.6520  -13.4445   17.4642 C   0  0  0  0  0  0  0  0  0  0  0  0
  -21.8255  -27.5738   23.4223 C   0  0  0  0  0  0  0  0  0  0  0  0
  -27.4238  -12.9044   18.1949 C   0  0  0  0  0  0  0  0  0  0  0  0
  -28.2796  -22.0565   15.8453 C   0  0  0  0  0  0  0  0  0  0  0  0
  -29.9143  -13.3264   18.3128 C   0  0  0  0  0  0  0  0  0  0  0  0
  -28.7483  -20.6922   16.3102 C   0  0  0  0  0  0  0  0  0  0  0  0
  -28.5705  -13.4173   20.3864 C   0  0  0  0  0  0  0  0  0  0  0  0
  -23.3484  -27.5327   23.5968 C   0  0  1  0  0  0  0  0  0  0  0  0
  -28.9137  -23.0032   16.8540 C   0  0  1  0  0  0  0  0  0  0  0  0
  -24.9471  -29.2751   20.6233 C   0  0  1  0  0  0  0  0  0  0  0  0
  -27.2734  -13.5641   19.5767 C   0  0  2  0  0  0  0  0  0  0  0  0
  -23.0525  -32.2711   13.7358 C   0  0  0  0  0  0  0  0  0  0  0  0
  -21.1489  -27.9284   18.3605 C   0  0  0  0  0  0  0  0  0  0  0  0
  -20.8837  -28.8563   16.0503 C   0  0  0  0  0  0  0  0  0  0  0  0
  -20.4973  -30.3206   18.0325 C   0  0  0  0  0  0  0  0  0  0  0  0
  -31.6348  -16.3328   21.7575 C   0  0  0  0  0  0  0  0  0  0  0  0
  -26.4687  -32.3980   15.4061 C   0  0  0  0  0  0  0  0  0  0  0  0
  -29.2333  -16.2888   21.1948 C   0  0  0  0  0  0  0  0  0  0  0  0
  -28.1630  -24.3141   16.9949 C   0  0  0  0  0  0  0  0  0  1  0  0
  -22.8571  -29.6323   17.4413 C   0  0  1  0  0  0  0  0  0  0  0  0
  -24.0335  -32.1816   14.8944 C   0  0  2  0  0  0  0  0  0  0  0  0
  -21.3718  -29.1741   17.4798 C   0  0  0  0  0  0  0  0  0  0  0  0
  -25.7061  -11.7487   20.1508 N   0  0  0  0  0  0  0  0  0  0  0  0
  -26.0734  -13.0282   20.3352 N   0  0  0  0  0  0  0  0  0  0  0  0
  -28.8649  -20.8262   17.7504 N   0  0  0  0  0  0  0  0  0  0  0  0
  -24.5013  -29.1713   19.2324 N   0  0  0  0  0  0  0  0  0  0  0  0
  -29.7296  -13.9232   19.6360 N   0  0  0  0  0  0  0  0  0  0  0  0
  -25.5144  -15.0019   21.5196 N   0  0  0  0  0  0  0  0  0  0  0  0
  -22.0585  -13.5448   22.0929 N   0  0  0  0  0  0  0  0  0  0  0  0
  -23.9862  -28.4645   22.6914 N   0  0  0  0  0  0  0  0  0  0  0  0
  -23.0935  -30.8259   16.6365 N   0  0  0  0  0  0  0  0  0  0  0  0
  -30.5359  -15.6322   21.1083 N   0  0  0  0  0  0  0  0  0  0  0  0
  -25.4053  -32.4330   14.3692 N   0  3  0  0  0  0  0  0  0  0  0  0
  -29.0278  -22.6774   19.2460 O   0  0  0  0  0  0  0  0  0  0  0  0
  -23.4373  -12.9182   23.8148 O   0  0  0  0  0  0  0  0  0  0  0  0
  -24.0707  -27.0909   20.8130 O   0  0  0  0  0  0  0  0  0  0  0  0
  -22.8754  -30.8220   19.4933 O   0  0  0  0  0  0  0  0  0  0  0  0
  -24.6235  -29.8572   15.1881 O   0  0  0  0  0  0  0  0  0  0  0  0
  -31.9848  -14.2003   20.0299 O   0  0  0  0  0  0  0  0  0  0  0  0
  -21.9491   -6.7312   21.2747 O   0  0  0  0  0  0  0  0  0  0  0  0
  -29.0039  -25.2632   17.6495 O   0  0  0  0  0  0  0  0  0  1  0  0
  -18.4546   -6.0096   25.4784 F   0  0  0  0  0  0  0  0  0  0  0  0
  -29.3690  -18.9469   22.1467 F   0  0  0  0  0  0  0  0  0  0  0  0
  -22.3262   -4.6874   23.0977 F   0  0  0  0  0  0  0  0  0  0  0  0
  1  2  1  0  0  0  0
  1  5  2  0  0  0  0
  2  6  2  0  0  0  0
  3 10  2  0  0  0  0
  3 18  1  0  0  0  0
  4 11  1  0  0  0  0
  4 18  2  0  0  0  0
  5 20  1  0  0  0  0
  6 22  1  0  0  0  0
  7 12  2  0  0  0  0
  7 21  1  0  0  0  0
  8  9  2  0  0  0  0
  8 24  1  0  0  0  0
  9 25  1  0  0  0  0
 10 26  1  0  0  0  0
 11 26  2  0  0  0  0
 12 27  1  0  0  0  0
 13 14  2  0  0  0  0
 13 28  1  0  0  0  0
 14 29  1  0  0  0  0
 15 23  1  0  0  0  0
 15 27  2  0  0  0  0
 16 25  2  0  0  0  0
 16 30  1  0  0  0  0
 17 29  2  0  0  0  0
 17 31  1  0  0  0  0
 18 32  1  0  0  0  0
 19 32  1  0  0  0  0
 19 33  2  0  0  0  0
 19 35  1  0  0  0  0
 20 22  2  0  0  0  0
 20 40  1  0  0  0  0
 21 23  2  0  0  0  0
 21 41  1  0  0  0  0
 22 51  1  0  0  0  0
 23 42  1  0  0  0  0
 24 30  2  0  0  0  0
 24 61  1  0  0  0  0
 25 68  1  0  0  0  0
 26 83  1  0  0  0  0
 27 84  1  0  0  0  0
 28 31  2  0  0  0  0
 28 83  1  0  0  0  0
 29 85  1  0  0  0  0
 30 86  1  0  0  0  0
 31 87  1  0  0  0  0
 32 66  2  0  0  0  0
 33 67  1  0  0  0  0
 33 71  1  0  0  0  0
 34 52  1  0  0  0  0
 34 68  1  0  0  0  0
 34 77  2  0  0  0  0
 35 72  1  0  0  0  0
 35 78  2  0  0  0  0
 36 53  1  0  0  0  0
 36 73  1  0  0  0  0
 36 79  2  0  0  0  0
 37 63  1  0  0  0  0
 37 69  1  0  0  0  0
 37 80  2  0  0  0  0
 38 64  1  0  0  0  0
 38 74  1  0  0  0  0
 38 81  2  0  0  0  0
 39 70  1  0  0  0  0
 39 75  1  0  0  0  0
 39 82  2  0  0  0  0
 40 43  1  0  0  0  0
 41 53  1  0  0  0  0
 42 69  1  0  0  0  0
 43 45  1  0  0  0  0
 44 46  1  0  0  0  0
 44 48  1  0  0  0  0
 45 51  1  0  0  0  0
 46 54  1  0  0  0  0
 47 49  1  0  0  0  0
 47 52  1  0  0  0  0
 48 70  1  0  0  0  0
 49 68  1  0  0  0  0
 50 54  1  0  0  0  0
 50 70  1  0  0  0  0
 51 73  1  0  0  0  0
 52 62  1  0  0  0  0
 53 69  1  0  0  0  0
 54 67  1  0  0  0  0
 55 64  1  0  0  0  0
 56 65  1  0  0  0  0
 57 65  1  0  0  0  0
 58 65  1  0  0  0  0
 59 75  1  0  0  0  0
 60 76  1  0  0  0  0
 61 75  1  0  0  0  0
 62 84  1  0  0  0  0
 63 65  1  0  0  0  0
 63 74  1  0  0  0  0
 64 76  1  0  0  0  0
 66 67  1  0  0  0  0
M  CHG  1  76   1
M  ISO  4  39 100  62 101  75 100  84 101
M  END
> <Batch ID>
0018

> <Smiles>
CNC(C)C(=O)NC(C(=O)N1Cc2cc([101O:1][101CH2:1]C3CCN(c4ccc(C[100N:0](C)[100C:0](=O)N5CCCC(n6nc(-c7ccc(Oc8ccc(F)cc8F)cc7)c(C(N)=O)c6N)C5)c(F)c4)C3=O)ccc2CC1C(=O)NC1CCCc2ccccc21)C(C)(C)C

> <Shape>
0.292

> <Color>
0.152

> <Negative vol penalty>
0.000

$$$$

  -OEChem-04042321033D

 84 92  0     1  0  0  0  0  0999 V2000
  -29.8678   -2.0832   36.8256 C   0  0  0  0  0  0  0  0  0  0  0  0
  -29.8000   -2.9386   35.7306 C   0  0  0  0  0  0  0  0  0  0  0  0
  -23.2846   -9.7975   19.9080 C   0  0  0  0  0  0  0  0  0  0  0  0
  -23.7225   -9.9368   22.2799 C   0  0  0  0  0  0  0  0  0  0  0  0
  -28.6956   -1.5915   37.3984 C   0  0  0  0  0  0  0  0  0  0  0  0
  -28.5597   -3.3021   35.2070 C   0  0  0  0  0  0  0  0  0  0  0  0
  -27.0427   -8.6994   32.7426 C   0  0  0  0  0  0  0  0  0  0  0  0
  -28.4291  -11.5084   25.2454 C   0  0  0  0  0  0  0  0  0  0  0  0
  -28.4860  -10.3588   23.1212 C   0  0  0  0  0  0  0  0  0  0  0  0
  -27.7612  -10.4241   25.8143 C   0  0  0  0  0  0  0  0  0  0  0  0
  -27.8181   -9.2744   23.6902 C   0  0  0  0  0  0  0  0  0  0  0  0
  -22.5525   -8.6278   20.1119 C   0  0  0  0  0  0  0  0  0  0  0  0
  -22.9904   -8.7671   22.4838 C   0  0  0  0  0  0  0  0  0  0  0  0
  -26.9560   -9.1361   31.4214 C   0  0  0  0  0  0  0  0  0  0  0  0
  -19.7387   -7.8687   22.6830 C   0  0  0  0  0  0  0  0  0  0  0  0
  -18.8303   -7.8507   23.7413 C   0  0  0  0  0  0  0  0  0  0  0  0
  -24.5870   -8.6809   31.4327 C   0  0  0  0  0  0  0  0  0  0  0  0
  -20.0233   -5.9990   24.7339 C   0  0  0  0  0  0  0  0  0  0  0  0
  -23.8696  -10.4519   20.9921 C   0  0  0  0  0  0  0  0  0  0  0  0
  -24.1400  -12.9809   20.7945 C   0  0  0  0  0  0  0  0  0  0  0  0
  -27.4401   -1.9568   36.8876 C   0  0  0  0  0  0  0  0  0  0  0  0
  -25.9022   -8.2391   33.4164 C   0  0  0  0  0  0  0  0  0  0  0  0
  -27.3696   -2.8138   35.7726 C   0  0  0  0  0  0  0  0  0  0  0  0
  -24.6614   -8.2413   32.7633 C   0  0  0  0  0  0  0  0  0  0  0  0
  -28.7915  -11.4758   23.8987 C   0  0  0  0  0  0  0  0  0  0  0  0
  -27.4557   -9.3071   25.0368 C   0  0  0  0  0  0  0  0  0  0  0  0
  -22.4054   -8.1126   21.3998 C   0  0  0  0  0  0  0  0  0  0  0  0
  -25.7286   -9.1242   30.7653 C   0  0  0  0  0  0  0  0  0  0  0  0
  -20.7894   -6.9518   22.6500 C   0  0  0  0  0  0  0  0  0  0  0  0
  -18.9726   -6.9159   24.7667 C   0  0  0  0  0  0  0  0  0  0  0  0
  -20.9317   -6.0170   23.6755 C   0  0  0  0  0  0  0  0  0  0  0  0
  -24.6265  -11.6599   20.7821 C   0  0  0  0  0  0  0  0  0  0  0  0
  -25.2459  -13.7565   20.5456 C   0  0  0  0  0  0  0  0  0  0  0  0
  -22.8075  -13.4637   21.0117 C   0  0  0  0  0  0  0  0  0  0  0  0
  -25.0315   -5.4755   34.7233 C   0  0  0  0  0  0  0  0  0  0  0  0
  -22.4723   -7.2006   35.7218 C   0  0  0  0  0  0  0  0  0  0  0  0
  -20.4424   -9.9047   35.2594 C   0  0  0  0  0  0  0  0  0  0  0  0
  -31.1496  -12.3509   21.3872 C   0  0  0  0  0  0  0  0  0  0  0  0
  -26.2020   -1.3624   37.5107 C   0  0  0  0  0  0  0  0  0  0  0  0
  -26.0076   -7.7965   34.8501 C   0  0  0  0  0  0  0  0  0  0  0  0
  -23.4036   -7.7759   33.4487 C   0  0  0  0  0  0  0  0  0  0  0  0
  -24.9172   -2.0935   37.1297 C   0  0  0  0  0  0  0  0  0  0  0  0
  -29.4877  -13.6547   18.3475 C   0  0  0  0  0  0  0  0  0  0  0  0
  -24.8769   -2.3545   35.6274 C   0  0  0  0  0  0  0  0  0  0  0  0
  -28.0171  -13.3328   18.6079 C   0  0  0  0  0  0  0  0  0  0  0  0
  -30.4170  -12.6711   19.0522 C   0  0  0  0  0  0  0  0  0  0  0  0
  -28.6994  -12.2294   20.7753 C   0  0  0  0  0  0  0  0  0  0  0  0
  -26.0424   -3.2508   35.1916 C   0  0  1  0  0  0  0  0  0  0  0  0
  -24.8755   -6.8653   35.2727 C   0  0  1  0  0  0  0  0  0  0  0  0
  -27.7370  -13.2295   20.1172 C   0  0  2  0  0  0  0  0  0  0  0  0
  -18.4121  -11.0298   36.2130 C   0  0  0  0  0  0  0  0  0  0  0  0
  -20.6974   -5.0672   34.4536 C   0  0  0  0  0  0  0  0  0  0  0  0
  -18.7849   -6.6772   34.5889 C   0  0  0  0  0  0  0  0  0  0  0  0
  -19.9058   -5.8966   36.6762 C   0  0  0  0  0  0  0  0  0  0  0  0
  -26.4659   -7.0444   24.7913 C   0  0  0  0  0  0  0  0  0  0  0  0
  -31.8627  -12.0559   23.7290 C   0  0  0  0  0  0  0  0  0  0  0  0
  -21.9521  -12.3786   35.8592 C   0  0  0  0  0  0  0  0  0  0  0  0
  -29.5053  -12.6348   23.2894 C   0  0  0  0  0  0  0  0  0  0  0  0
  -25.1026   -8.9645   27.2113 C   0  0  0  0  0  0  0  0  0  0  0  0
  -26.4098   -8.2097   27.0020 C   0  0  0  0  0  0  0  0  0  0  0  0
  -24.6335   -8.9512   28.6614 C   0  0  0  0  0  0  0  0  0  1  0  0
  -21.1096   -7.5176   35.1547 C   0  0  1  0  0  0  0  0  0  0  0  0
  -19.9311  -10.9575   36.2262 C   0  0  2  0  0  0  0  0  0  0  0  0
  -20.1483   -6.2967   35.2045 C   0  0  0  0  0  0  0  0  0  0  0  0
  -25.9392  -11.5961   20.5439 N   0  0  0  0  0  0  0  0  0  0  0  0
  -26.2869  -12.8867   20.4044 N   0  0  0  0  0  0  0  0  0  0  0  0
  -23.5593   -7.3469   34.8484 N   0  0  0  0  0  0  0  0  0  0  0  0
  -30.1009  -12.5599   20.4766 N   0  0  0  0  0  0  0  0  0  0  0  0
  -25.4196  -15.0907   20.4359 N   0  0  0  0  0  0  0  0  0  0  0  0
  -21.7900  -12.5308   21.2536 N   0  0  0  0  0  0  0  0  0  0  0  0
  -25.7716   -4.6317   35.5293 N   0  0  0  0  0  0  0  0  0  0  0  0
  -20.6276   -8.6877   35.8806 N   0  0  0  0  0  0  0  0  0  0  0  0
  -26.7858   -8.2161   25.6089 N   0  0  3  0  0  0  0  0  0  0  0  0
  -30.8090  -12.2608   22.7454 N   0  0  0  0  0  0  0  0  0  0  0  0
  -20.4686  -12.2991   35.8629 N   0  3  0  0  0  0  0  0  0  0  0  0
  -22.5246  -14.6852   20.9756 O   0  0  0  0  0  0  0  0  0  0  0  0
  -24.5171   -5.1895   33.6485 O   0  0  0  0  0  0  0  0  0  0  0  0
  -22.5694   -6.8434   36.8985 O   0  0  0  0  0  0  0  0  0  0  0  0
  -20.6527  -10.1376   34.0711 O   0  0  0  0  0  0  0  0  0  0  0  0
  -32.3246  -12.2600   21.0088 O   0  0  0  0  0  0  0  0  0  0  0  0
  -21.6909   -6.9715   21.5991 O   0  0  0  0  0  0  0  0  0  0  0  0
  -25.6413   -9.5493   29.4756 O   0  0  0  0  0  0  0  0  0  1  0  0
  -18.1010   -6.8998   25.7838 F   0  0  0  0  0  0  0  0  0  0  0  0
  -21.9398   -5.1344   23.6500 F   0  0  0  0  0  0  0  0  0  0  0  0
  1  2  1  0  0  0  0
  1  5  2  0  0  0  0
  2  6  2  0  0  0  0
  3 12  2  0  0  0  0
  3 19  1  0  0  0  0
  4 13  1  0  0  0  0
  4 19  2  0  0  0  0
  5 21  1  0  0  0  0
  6 23  1  0  0  0  0
  7 14  2  0  0  0  0
  7 22  1  0  0  0  0
  8 10  2  0  0  0  0
  8 25  1  0  0  0  0
  9 11  1  0  0  0  0
  9 25  2  0  0  0  0
 10 26  1  0  0  0  0
 11 26  2  0  0  0  0
 12 27  1  0  0  0  0
 13 27  2  0  0  0  0
 14 28  1  0  0  0  0
 15 16  2  0  0  0  0
 15 29  1  0  0  0  0
 16 30  1  0  0  0  0
 17 24  1  0  0  0  0
 17 28  2  0  0  0  0
 18 30  2  0  0  0  0
 18 31  1  0  0  0  0
 19 32  1  0  0  0  0
 20 32  1  0  0  0  0
 20 33  2  0  0  0  0
 20 34  1  0  0  0  0
 21 23  2  0  0  0  0
 21 39  1  0  0  0  0
 22 24  2  0  0  0  0
 22 40  1  0  0  0  0
 23 48  1  0  0  0  0
 24 41  1  0  0  0  0
 25 58  1  0  0  0  0
 26 73  1  0  0  0  0
 27 81  1  0  0  0  0
 28 82  1  0  0  0  0
 29 31  2  0  0  0  0
 29 81  1  0  0  0  0
 30 83  1  0  0  0  0
 31 84  1  0  0  0  0
 32 65  2  0  0  0  0
 33 66  1  0  0  0  0
 33 69  1  0  0  0  0
 34 70  1  0  0  0  0
 34 76  2  0  0  0  0
 35 49  1  0  0  0  0
 35 71  1  0  0  0  0
 35 77  2  0  0  0  0
 36 62  1  0  0  0  0
 36 67  1  0  0  0  0
 36 78  2  0  0  0  0
 37 63  1  0  0  0  0
 37 72  1  0  0  0  0
 37 79  2  0  0  0  0
 38 68  1  0  0  0  0
 38 74  1  0  0  0  0
 38 80  2  0  0  0  0
 39 42  1  0  0  0  0
 40 49  1  0  0  0  0
 41 67  1  0  0  0  0
 42 44  1  0  0  0  0
 43 45  1  0  0  0  0
 43 46  1  0  0  0  0
 44 48  1  0  0  0  0
 45 50  1  0  0  0  0
 46 68  1  0  0  0  0
 47 50  1  0  0  0  0
 47 68  1  0  0  0  0
 48 71  1  0  0  0  0
 49 67  1  0  0  0  0
 50 66  1  0  0  0  0
 51 63  1  0  0  0  0
 52 64  1  0  0  0  0
 53 64  1  0  0  0  0
 54 64  1  0  0  0  0
 55 73  1  0  0  0  0
 56 74  1  0  0  0  0
 57 75  1  0  0  0  0
 58 74  1  0  0  0  0
 59 60  1  0  0  0  0
 59 61  1  0  0  0  0
 60 73  1  0  0  0  0
 61 82  1  0  0  0  0
 62 64  1  0  0  0  0
 62 72  1  0  0  0  0
 63 75  1  0  0  0  0
 65 66  1  0  0  0  0
M  CHG  1  75   1
M  ISO  4  38 100  61 101  74 100  82 101
M  END
> <Batch ID>
0018

> <Smiles>
CNC(C)C(=O)NC(C(=O)N1Cc2cc([101O:1][101CH2:1]CCN(C)c3ccc(C[100N:0](C)[100C:0](=O)N4CCCC(n5nc(-c6ccc(Oc7ccc(F)cc7F)cc6)c(C(N)=O)c5N)C4)cc3)ccc2CC1C(=O)NC1CCCc2ccccc21)C(C)(C)C

> <Shape>
0.132

> <Color>
0.185

> <Negative vol penalty>
0.000

$$$$

  -OEChem-04042321033D

 86 94  0     1  0  0  0  0  0999 V2000
  -32.3628  -32.5814   21.9631 C   0  0  0  0  0  0  0  0  0  0  0  0
  -31.7128  -31.4143   21.5746 C   0  0  0  0  0  0  0  0  0  0  0  0
  -22.9753  -10.0401   19.9175 C   0  0  0  0  0  0  0  0  0  0  0  0
  -24.1359   -9.7087   22.0103 C   0  0  0  0  0  0  0  0  0  0  0  0
  -31.8458  -33.3526   23.0032 C   0  0  0  0  0  0  0  0  0  0  0  0
  -30.5460  -31.0173   22.2268 C   0  0  0  0  0  0  0  0  0  0  0  0
  -26.9387  -29.5087   19.0086 C   0  0  0  0  0  0  0  0  0  0  0  0
  -22.2937   -8.8377   20.1050 C   0  0  0  0  0  0  0  0  0  0  0  0
  -23.4543   -8.5063   22.1979 C   0  0  0  0  0  0  0  0  0  0  0  0
  -27.0626  -28.2299   18.4672 C   0  0  0  0  0  0  0  0  0  0  0  0
  -20.3911   -7.5154   23.2253 C   0  0  0  0  0  0  0  0  0  0  0  0
  -19.8577   -7.2649   24.4895 C   0  0  0  0  0  0  0  0  0  0  0  0
  -25.4612  -27.4025   20.0704 C   0  0  0  0  0  0  0  0  0  0  0  0
  -29.7330  -19.4305   18.5297 C   0  0  0  0  0  0  0  0  0  0  0  0
  -29.1406  -20.2305   20.7310 C   0  0  0  0  0  0  0  0  0  0  0  0
  -21.2200   -5.2779   24.6706 C   0  0  0  0  0  0  0  0  0  0  0  0
  -23.8964  -10.4756   20.8701 C   0  0  0  0  0  0  0  0  0  0  0  0
  -24.1999  -12.9979   21.1022 C   0  0  0  0  0  0  0  0  0  0  0  0
  -30.6669  -32.9699   23.6621 C   0  0  0  0  0  0  0  0  0  0  0  0
  -26.0818  -29.7422   20.0938 C   0  0  0  0  0  0  0  0  0  0  0  0
  -30.0136  -31.7834   23.2776 C   0  0  0  0  0  0  0  0  0  0  0  0
  -25.3263  -28.6857   20.6221 C   0  0  0  0  0  0  0  0  0  0  0  0
  -29.6137  -18.1144   18.9758 C   0  0  0  0  0  0  0  0  0  0  0  0
  -29.2578  -17.8562   20.2996 C   0  0  0  0  0  0  0  0  0  0  0  0
  -29.4965  -20.4886   19.4073 C   0  0  0  0  0  0  0  0  0  0  0  0
  -22.5332   -8.0708   21.2452 C   0  0  0  0  0  0  0  0  0  0  0  0
  -26.3260  -27.1760   18.9999 C   0  0  0  0  0  0  0  0  0  0  0  0
  -21.3389   -6.6470   22.6836 C   0  0  0  0  0  0  0  0  0  0  0  0
  -20.2722   -6.1462   25.2122 C   0  0  0  0  0  0  0  0  0  0  0  0
  -29.0212  -18.9143   21.1772 C   0  0  0  0  0  0  0  0  0  0  0  0
  -21.7534   -5.5283   23.4063 C   0  0  0  0  0  0  0  0  0  0  0  0
  -24.6012  -11.7174   20.6767 C   0  0  0  0  0  0  0  0  0  0  0  0
  -25.2054  -13.8316   20.6776 C   0  0  0  0  0  0  0  0  0  0  0  0
  -23.0235  -13.3979   21.8175 C   0  0  0  0  0  0  0  0  0  0  0  0
  -26.4716  -30.7492   23.0835 C   0  0  0  0  0  0  0  0  0  0  0  0
  -23.2284  -30.6914   23.1129 C   0  0  0  0  0  0  0  0  0  0  0  0
  -20.3413  -29.4267   21.8047 C   0  0  0  0  0  0  0  0  0  0  0  0
  -30.8278  -14.6246   20.4002 C   0  0  0  0  0  0  0  0  0  0  0  0
  -30.1722  -33.8109   24.8122 C   0  0  0  0  0  0  0  0  0  0  0  0
  -25.9393  -31.1328   20.6492 C   0  0  0  0  0  0  0  0  0  0  0  0
  -24.3771  -28.8879   21.7739 C   0  0  0  0  0  0  0  0  0  0  0  0
  -28.7258  -33.5183   25.2029 C   0  0  0  0  0  0  0  0  0  0  0  0
  -29.0900  -13.0109   17.5581 C   0  0  0  0  0  0  0  0  0  0  0  0
  -28.4922  -32.0139   25.2970 C   0  0  0  0  0  0  0  0  0  0  0  0
  -27.7646  -12.5764   18.1814 C   0  0  0  0  0  0  0  0  0  0  0  0
  -30.2121  -13.0634   18.5905 C   0  0  0  0  0  0  0  0  0  0  0  0
  -28.5761  -13.4744   20.3985 C   0  0  0  0  0  0  0  0  0  0  0  0
  -28.7320  -31.3326   23.9443 C   0  0  1  0  0  0  0  0  0  0  0  0
  -25.4238  -31.1528   22.0849 C   0  0  1  0  0  0  0  0  0  0  0  0
  -27.4141  -13.4562   19.3940 C   0  0  2  0  0  0  0  0  0  0  0  0
  -29.8723  -16.9980   18.0180 C   0  0  0  0  0  0  0  0  0  0  0  0
  -17.8474  -29.5404   22.0597 C   0  0  0  0  0  0  0  0  0  0  0  0
  -23.4068  -28.9489   25.6112 C   0  0  0  0  0  0  0  0  0  0  0  0
  -21.0075  -28.3245   25.2623 C   0  0  0  0  0  0  0  0  0  0  0  0
  -21.6262  -30.7033   25.6880 C   0  0  0  0  0  0  0  0  0  0  0  0
  -31.4171  -16.6415   21.6903 C   0  0  0  0  0  0  0  0  0  0  0  0
  -19.9889  -30.4379   19.0457 C   0  0  0  0  0  0  0  0  0  0  0  0
  -29.1254  -16.4541   20.7967 C   0  0  0  0  0  0  0  0  0  0  0  0
  -29.2871  -23.6735   17.4276 C   0  0  0  0  0  0  0  0  0  0  0  0
  -27.9369  -24.0826   18.0180 C   0  0  0  0  0  0  0  0  0  0  0  0
  -29.5626  -22.1792   17.5734 C   0  0  0  0  0  0  0  0  0  0  0  0
  -27.7041  -25.5833   17.8954 C   0  0  0  0  0  0  0  0  0  1  0  0
  -22.1806  -29.6593   23.4531 C   0  0  1  0  0  0  0  0  0  0  0  0
  -19.0639  -30.1036   21.3416 C   0  0  2  0  0  0  0  0  0  0  0  0
  -22.0745  -29.4044   24.9832 C   0  0  0  0  0  0  0  0  0  0  0  0
  -25.7704  -11.7315   20.0311 N   0  0  0  0  0  0  0  0  0  0  0  0
  -26.1124  -13.0311   20.0477 N   0  0  0  0  0  0  0  0  0  0  0  0
  -24.2774  -30.2644   22.2863 N   0  0  0  0  0  0  0  0  0  0  0  0
  -29.8361  -13.8705   19.7517 N   0  0  0  0  0  0  0  0  0  0  0  0
  -25.3934  -15.1641   20.7852 N   0  0  0  0  0  0  0  0  0  0  0  0
  -22.0929  -12.4134   22.1768 N   0  0  0  0  0  0  0  0  0  0  0  0
  -29.6145  -21.7964   18.9643 N   0  0  0  0  0  0  0  0  0  0  0  0
  -27.6021  -31.5435   23.0648 N   0  0  0  0  0  0  0  0  0  0  0  0
  -20.9405  -30.1179   22.8363 N   0  0  0  0  0  0  0  0  0  0  0  0
  -30.4232  -15.8191   21.0151 N   0  0  0  0  0  0  0  0  0  0  0  0
  -18.8764  -29.9089   19.8760 N   0  3  0  0  0  0  0  0  0  0  0  0
  -22.7960  -14.5952   22.1144 O   0  0  0  0  0  0  0  0  0  0  0  0
  -26.2687  -29.7891   23.8175 O   0  0  0  0  0  0  0  0  0  0  0  0
  -23.1164  -31.8364   23.5582 O   0  0  0  0  0  0  0  0  0  0  0  0
  -20.7631  -28.3865   21.3040 O   0  0  0  0  0  0  0  0  0  0  0  0
  -32.0093  -14.2562   20.4198 O   0  0  0  0  0  0  0  0  0  0  0  0
  -21.8681   -6.8975   21.4287 O   0  0  0  0  0  0  0  0  0  0  0  0
  -26.4456  -25.9267   18.4738 O   0  0  0  0  0  0  0  0  0  1  0  0
  -19.7610   -5.9067   26.4269 F   0  0  0  0  0  0  0  0  0  0  0  0
  -28.6788  -18.6770   22.4513 F   0  0  0  0  0  0  0  0  0  0  0  0
  -22.6645   -4.6912   22.8917 F   0  0  0  0  0  0  0  0  0  0  0  0
  1  2  1  0  0  0  0
  1  5  2  0  0  0  0
  2  6  2  0  0  0  0
  3  8  2  0  0  0  0
  3 17  1  0  0  0  0
  4  9  1  0  0  0  0
  4 17  2  0  0  0  0
  5 19  1  0  0  0  0
  6 21  1  0  0  0  0
  7 10  2  0  0  0  0
  7 20  1  0  0  0  0
  8 26  1  0  0  0  0
  9 26  2  0  0  0  0
 10 27  1  0  0  0  0
 11 12  2  0  0  0  0
 11 28  1  0  0  0  0
 12 29  1  0  0  0  0
 13 22  1  0  0  0  0
 13 27  2  0  0  0  0
 14 23  2  0  0  0  0
 14 25  1  0  0  0  0
 15 25  2  0  0  0  0
 15 30  1  0  0  0  0
 16 29  2  0  0  0  0
 16 31  1  0  0  0  0
 17 32  1  0  0  0  0
 18 32  1  0  0  0  0
 18 33  2  0  0  0  0
 18 34  1  0  0  0  0
 19 21  2  0  0  0  0
 19 39  1  0  0  0  0
 20 22  2  0  0  0  0
 20 40  1  0  0  0  0
 21 48  1  0  0  0  0
 22 41  1  0  0  0  0
 23 24  1  0  0  0  0
 23 51  1  0  0  0  0
 24 30  2  0  0  0  0
 24 58  1  0  0  0  0
 25 72  1  0  0  0  0
 26 82  1  0  0  0  0
 27 83  1  0  0  0  0
 28 31  2  0  0  0  0
 28 82  1  0  0  0  0
 29 84  1  0  0  0  0
 30 85  1  0  0  0  0
 31 86  1  0  0  0  0
 32 66  2  0  0  0  0
 33 67  1  0  0  0  0
 33 70  1  0  0  0  0
 34 71  1  0  0  0  0
 34 77  2  0  0  0  0
 35 49  1  0  0  0  0
 35 73  1  0  0  0  0
 35 78  2  0  0  0  0
 36 63  1  0  0  0  0
 36 68  1  0  0  0  0
 36 79  2  0  0  0  0
 37 64  1  0  0  0  0
 37 74  1  0  0  0  0
 37 80  2  0  0  0  0
 38 69  1  0  0  0  0
 38 75  1  0  0  0  0
 38 81  2  0  0  0  0
 39 42  1  0  0  0  0
 40 49  1  0  0  0  0
 41 68  1  0  0  0  0
 42 44  1  0  0  0  0
 43 45  1  0  0  0  0
 43 46  1  0  0  0  0
 44 48  1  0  0  0  0
 45 50  1  0  0  0  0
 46 69  1  0  0  0  0
 47 50  1  0  0  0  0
 47 69  1  0  0  0  0
 48 73  1  0  0  0  0
 49 68  1  0  0  0  0
 50 67  1  0  0  0  0
 52 64  1  0  0  0  0
 53 65  1  0  0  0  0
 54 65  1  0  0  0  0
 55 65  1  0  0  0  0
 56 75  1  0  0  0  0
 57 76  1  0  0  0  0
 58 75  1  0  0  0  0
 59 60  1  0  0  0  0
 59 61  1  0  0  0  0
 60 62  1  0  0  0  0
 61 72  1  0  0  0  0
 62 83  1  0  0  0  0
 63 65  1  0  0  0  0
 63 74  1  0  0  0  0
 64 76  1  0  0  0  0
 66 67  1  0  0  0  0
M  CHG  1  76   1
M  ISO  4  38 100  62 101  75 100  83 101
M  END
> <Batch ID>
0018

> <Smiles>
CNC(C)C(=O)NC(C(=O)N1Cc2cc([101O:1][101CH2:1]CCCNc3cc(C)c(C[100N:0](C)[100C:0](=O)N4CCCC(n5nc(-c6ccc(Oc7ccc(F)cc7F)cc6)c(C(N)=O)c5N)C4)c(F)c3)ccc2CC1C(=O)NC1CCCc2ccccc21)C(C)(C)C

> <Shape>
0.372

> <Color>
0.230

> <Negative vol penalty>
0.000

$$$$

  -OEChem-04042321033D

 84 92  0     1  0  0  0  0  0999 V2000
  -28.3968  -28.0481   27.8636 C   0  0  0  0  0  0  0  0  0  0  0  0
  -28.7339  -27.2776   26.7554 C   0  0  0  0  0  0  0  0  0  0  0  0
  -23.1175   -9.8716   19.9520 C   0  0  0  0  0  0  0  0  0  0  0  0
  -23.7716   -9.9936   22.2746 C   0  0  0  0  0  0  0  0  0  0  0  0
  -27.0820  -28.4777   28.0386 C   0  0  0  0  0  0  0  0  0  0  0  0
  -27.7561  -26.9353   25.8221 C   0  0  0  0  0  0  0  0  0  0  0  0
  -29.3310  -27.5410   21.0474 C   0  0  0  0  0  0  0  0  0  0  0  0
  -31.0062  -17.8878   20.6233 C   0  0  0  0  0  0  0  0  0  0  0  0
  -31.1483  -19.2746   20.5771 C   0  0  0  0  0  0  0  0  0  0  0  0
  -22.3847   -8.7153   20.2190 C   0  0  0  0  0  0  0  0  0  0  0  0
  -23.0387   -8.8372   22.5416 C   0  0  0  0  0  0  0  0  0  0  0  0
  -30.1665  -26.5559   20.5227 C   0  0  0  0  0  0  0  0  0  0  0  0
  -23.4169   -5.5009   22.1451 C   0  0  0  0  0  0  0  0  0  0  0  0
  -24.0180   -4.5206   22.9345 C   0  0  0  0  0  0  0  0  0  0  0  0
  -28.2809  -25.5713   19.3850 C   0  0  0  0  0  0  0  0  0  0  0  0
  -29.2930  -18.1195   22.3110 C   0  0  0  0  0  0  0  0  0  0  0  0
  -22.2375   -4.7326   24.5538 C   0  0  0  0  0  0  0  0  0  0  0  0
  -23.8110  -10.5108   20.9797 C   0  0  0  0  0  0  0  0  0  0  0  0
  -24.1107  -13.0349   20.7638 C   0  0  0  0  0  0  0  0  0  0  0  0
  -26.0895  -28.1486   27.1019 C   0  0  0  0  0  0  0  0  0  0  0  0
  -27.9600  -27.5423   20.7531 C   0  0  0  0  0  0  0  0  0  0  0  0
  -26.4265  -27.3598   25.9854 C   0  0  0  0  0  0  0  0  0  0  0  0
  -27.4306  -26.5590   19.9052 C   0  0  0  0  0  0  0  0  0  0  0  0
  -30.0785  -17.3103   21.4902 C   0  0  0  0  0  0  0  0  0  0  0  0
  -30.3628  -20.0839   21.3979 C   0  0  0  0  0  0  0  0  0  0  0  0
  -22.3453   -8.1980   21.5138 C   0  0  0  0  0  0  0  0  0  0  0  0
  -29.6410  -25.5691   19.6937 C   0  0  0  0  0  0  0  0  0  0  0  0
  -22.2261   -6.0972   22.5601 C   0  0  0  0  0  0  0  0  0  0  0  0
  -23.4283   -4.1364   24.1388 C   0  0  0  0  0  0  0  0  0  0  0  0
  -29.4351  -19.5064   22.2648 C   0  0  0  0  0  0  0  0  0  0  0  0
  -21.6364   -5.7130   23.7644 C   0  0  0  0  0  0  0  0  0  0  0  0
  -24.5687  -11.7050   20.7044 C   0  0  0  0  0  0  0  0  0  0  0  0
  -25.2041  -13.7904   20.4171 C   0  0  0  0  0  0  0  0  0  0  0  0
  -22.8130  -13.5420   21.1021 C   0  0  0  0  0  0  0  0  0  0  0  0
  -25.2974  -27.2720   22.4683 C   0  0  0  0  0  0  0  0  0  0  0  0
  -23.8668  -27.9198   19.6299 C   0  0  0  0  0  0  0  0  0  0  0  0
  -24.0447  -27.8883   16.2220 C   0  0  0  0  0  0  0  0  0  0  0  0
  -30.6361  -14.9554   20.7902 C   0  0  0  0  0  0  0  0  0  0  0  0
  -24.6722  -28.5961   27.3584 C   0  0  0  0  0  0  0  0  0  0  0  0
  -27.0770  -28.6275   21.3055 C   0  0  0  0  0  0  0  0  0  0  0  0
  -25.9692  -26.5278   19.5423 C   0  0  0  0  0  0  0  0  0  0  0  0
  -23.7728  -28.5054   26.1283 C   0  0  0  0  0  0  0  0  0  0  0  0
  -29.6764  -12.4188   18.4833 C   0  0  0  0  0  0  0  0  0  0  0  0
  -23.9570  -27.1617   25.4302 C   0  0  0  0  0  0  0  0  0  0  0  0
  -28.2243  -12.1164   18.8604 C   0  0  0  0  0  0  0  0  0  0  0  0
  -30.5312  -12.7183   19.7135 C   0  0  0  0  0  0  0  0  0  0  0  0
  -28.5499  -13.4622   20.9745 C   0  0  0  0  0  0  0  0  0  0  0  0
  -25.3990  -26.9887   24.9381 C   0  0  1  0  0  0  0  0  0  0  0  0
  -25.6042  -28.2325   21.3542 C   0  0  1  0  0  0  0  0  0  0  0  0
  -27.6353  -13.2181   19.7631 C   0  0  2  0  0  0  0  0  0  0  0  0
  -22.7049  -28.4443   14.1743 C   0  0  0  0  0  0  0  0  0  0  0  0
  -32.0706  -22.4567   18.0314 C   0  0  0  0  0  0  0  0  0  0  0  0
  -22.2093  -25.3896   20.0303 C   0  0  0  0  0  0  0  0  0  0  0  0
  -21.6141  -25.4786   17.6001 C   0  0  0  0  0  0  0  0  0  0  0  0
  -20.9347  -27.3381   19.1178 C   0  0  0  0  0  0  0  0  0  0  0  0
  -29.6856  -22.3294   22.2100 C   0  0  0  0  0  0  0  0  0  0  0  0
  -26.0305  -29.8909   15.3248 C   0  0  0  0  0  0  0  0  0  0  0  0
  -31.4697  -22.1040   20.4737 C   0  0  0  0  0  0  0  0  0  0  0  0
  -29.8686  -23.3299   18.9257 C   0  0  0  0  0  0  0  0  0  1  0  0
  -23.3664  -27.0915   18.4713 C   0  0  1  0  0  0  0  0  0  0  0  0
  -23.7209  -28.9502   15.1866 C   0  0  2  0  0  0  0  0  0  0  0  0
  -30.9376  -22.2359   19.0398 C   0  0  1  0  0  0  0  0  0  0  0  0
  -22.0584  -26.3237   18.8131 C   0  0  0  0  0  0  0  0  0  0  0  0
  -25.8529  -11.6174   20.3478 N   0  0  0  0  0  0  0  0  0  0  0  0
  -26.2112  -12.9017   20.1800 N   0  0  0  0  0  0  0  0  0  0  0  0
  -25.1455  -27.6067   20.1124 N   0  0  0  0  0  0  0  0  0  0  0  0
  -29.9135  -13.7743   20.5185 N   0  0  0  0  0  0  0  0  0  0  0  0
  -25.3927  -15.1215   20.2948 N   0  0  0  0  0  0  0  0  0  0  0  0
  -21.8039  -12.6275   21.4335 N   0  0  0  0  0  0  0  0  0  0  0  0
  -29.9348  -15.9014   21.5371 N   0  0  0  0  0  0  0  0  0  0  0  0
  -25.6140  -27.7493   23.7258 N   0  0  0  0  0  0  0  0  0  0  0  0
  -23.2452  -28.0040   17.3394 N   0  0  0  0  0  0  0  0  0  0  0  0
  -30.5083  -21.4773   21.3500 N   0  0  3  0  0  0  0  0  0  0  0  0
  -24.9546  -29.3522   14.4536 N   0  3  0  0  0  0  0  0  0  0  0  0
  -22.5514  -14.7688   21.0944 O   0  0  0  0  0  0  0  0  0  0  0  0
  -24.8083  -26.1794   22.2064 O   0  0  0  0  0  0  0  0  0  0  0  0
  -23.1526  -28.8165   20.0853 O   0  0  0  0  0  0  0  0  0  0  0  0
  -24.9169  -27.0388   16.0545 O   0  0  0  0  0  0  0  0  0  0  0  0
  -31.7820  -15.1270   20.3667 O   0  0  0  0  0  0  0  0  0  0  0  0
  -21.6301   -7.0698   21.7749 O   0  0  0  0  0  0  0  0  0  0  0  0
  -30.4541  -24.6060   19.1807 O   0  0  0  0  0  0  0  0  0  1  0  0
  -24.0049   -3.1939   24.8960 F   0  0  0  0  0  0  0  0  0  0  0  0
  -28.6763  -20.2748   23.0592 F   0  0  0  0  0  0  0  0  0  0  0  0
  -20.4918   -6.2814   24.1676 F   0  0  0  0  0  0  0  0  0  0  0  0
  1  2  1  0  0  0  0
  1  5  2  0  0  0  0
  2  6  2  0  0  0  0
  3 10  2  0  0  0  0
  3 18  1  0  0  0  0
  4 11  1  0  0  0  0
  4 18  2  0  0  0  0
  5 20  1  0  0  0  0
  6 22  1  0  0  0  0
  7 12  2  0  0  0  0
  7 21  1  0  0  0  0
  8  9  2  0  0  0  0
  8 24  1  0  0  0  0
  9 25  1  0  0  0  0
 10 26  1  0  0  0  0
 11 26  2  0  0  0  0
 12 27  1  0  0  0  0
 13 14  2  0  0  0  0
 13 28  1  0  0  0  0
 14 29  1  0  0  0  0
 15 23  1  0  0  0  0
 15 27  2  0  0  0  0
 16 24  2  0  0  0  0
 16 30  1  0  0  0  0
 17 29  2  0  0  0  0
 17 31  1  0  0  0  0
 18 32  1  0  0  0  0
 19 32  1  0  0  0  0
 19 33  2  0  0  0  0
 19 34  1  0  0  0  0
 20 22  2  0  0  0  0
 20 39  1  0  0  0  0
 21 23  2  0  0  0  0
 21 40  1  0  0  0  0
 22 48  1  0  0  0  0
 23 41  1  0  0  0  0
 24 70  1  0  0  0  0
 25 30  2  0  0  0  0
 25 73  1  0  0  0  0
 26 80  1  0  0  0  0
 27 81  1  0  0  0  0
 28 31  2  0  0  0  0
 28 80  1  0  0  0  0
 29 82  1  0  0  0  0
 30 83  1  0  0  0  0
 31 84  1  0  0  0  0
 32 64  2  0  0  0  0
 33 65  1  0  0  0  0
 33 68  1  0  0  0  0
 34 69  1  0  0  0  0
 34 75  2  0  0  0  0
 35 49  1  0  0  0  0
 35 71  1  0  0  0  0
 35 76  2  0  0  0  0
 36 60  1  0  0  0  0
 36 66  1  0  0  0  0
 36 77  2  0  0  0  0
 37 61  1  0  0  0  0
 37 72  1  0  0  0  0
 37 78  2  0  0  0  0
 38 67  1  0  0  0  0
 38 70  1  0  0  0  0
 38 79  2  0  0  0  0
 39 42  1  0  0  0  0
 40 49  1  0  0  0  0
 41 66  1  0  0  0  0
 42 44  1  0  0  0  0
 43 45  1  0  0  0  0
 43 46  1  0  0  0  0
 44 48  1  0  0  0  0
 45 50  1  0  0  0  0
 46 67  1  0  0  0  0
 47 50  1  0  0  0  0
 47 67  1  0  0  0  0
 48 71  1  0  0  0  0
 49 66  1  0  0  0  0
 50 65  1  0  0  0  0
 51 61  1  0  0  0  0
 52 62  1  0  0  0  0
 53 63  1  0  0  0  0
 54 63  1  0  0  0  0
 55 63  1  0  0  0  0
 56 73  1  0  0  0  0
 57 74  1  0  0  0  0
 58 62  1  0  0  0  0
 58 73  1  0  0  0  0
 59 62  1  0  0  0  0
 59 81  1  0  0  0  0
 60 63  1  0  0  0  0
 60 72  1  0  0  0  0
 61 74  1  0  0  0  0
 64 65  1  0  0  0  0
M  CHG  1  74   1
M  ISO  4  38 100  59 101  70 100  81 101
M  END
> <Batch ID>
0018

> <Smiles>
CNC(C)C(=O)NC(C(=O)N1Cc2cc([101O:1][101CH2:1]C(C)CN(C)c3ccc([100NH:0][100C:0](=O)N4CCCC(n5nc(-c6ccc(Oc7ccc(F)cc7F)cc6)c(C(N)=O)c5N)C4)cc3F)ccc2CC1C(=O)NC1CCCc2ccccc21)C(C)(C)C

> <Shape>
0.289

> <Color>
0.221

> <Negative vol penalty>
0.000

$$$$

  -OEChem-04042321033D

 90 99  0     1  0  0  0  0  0999 V2000
  -17.8859  -34.9547   21.4764 C   0  0  0  0  0  0  0  0  0  0  0  0
  -19.2277  -35.1233   21.1499 C   0  0  0  0  0  0  0  0  0  0  0  0
  -24.0267   -9.6907   21.8944 C   0  0  0  0  0  0  0  0  0  0  0  0
  -22.2315  -10.4816   20.4842 C   0  0  0  0  0  0  0  0  0  0  0  0
  -17.5236  -34.0842   22.5035 C   0  0  0  0  0  0  0  0  0  0  0  0
  -20.2081  -34.4223   21.8512 C   0  0  0  0  0  0  0  0  0  0  0  0
  -25.7720  -29.6154   19.2122 C   0  0  0  0  0  0  0  0  0  0  0  0
  -23.1084  -19.8470   19.2411 C   0  0  0  0  0  0  0  0  0  0  0  0
  -22.2039  -18.8498   17.2349 C   0  0  0  0  0  0  0  0  0  0  0  0
  -23.5349  -20.9495   18.5008 C   0  0  0  0  0  0  0  0  0  0  0  0
  -22.6304  -19.9524   16.4946 C   0  0  0  0  0  0  0  0  0  0  0  0
  -23.4653   -8.4138   21.8929 C   0  0  0  0  0  0  0  0  0  0  0  0
  -21.6701   -9.2047   20.4826 C   0  0  0  0  0  0  0  0  0  0  0  0
  -26.6967  -28.6245   18.8817 C   0  0  0  0  0  0  0  0  0  0  0  0
  -20.9328   -6.8049   23.4493 C   0  0  0  0  0  0  0  0  0  0  0  0
  -20.8534   -6.1312   24.6681 C   0  0  0  0  0  0  0  0  0  0  0  0
  -26.4968  -27.6831   21.1002 C   0  0  0  0  0  0  0  0  0  0  0  0
  -22.2297   -4.3567   23.7769 C   0  0  0  0  0  0  0  0  0  0  0  0
  -23.4097  -10.7247   21.1901 C   0  0  0  0  0  0  0  0  0  0  0  0
  -25.2673  -12.4119   20.7314 C   0  0  0  0  0  0  0  0  0  0  0  0
  -18.4995  -33.3649   23.2113 C   0  0  0  0  0  0  0  0  0  0  0  0
  -25.1939  -29.6348   20.4846 C   0  0  0  0  0  0  0  0  0  0  0  0
  -19.8587  -33.5424   22.8896 C   0  0  0  0  0  0  0  0  0  0  0  0
  -25.5606  -28.6657   21.4329 C   0  0  0  0  0  0  0  0  0  0  0  0
  -22.4429  -18.7971   18.6082 C   0  0  0  0  0  0  0  0  0  0  0  0
  -23.2959  -21.0023   17.1275 C   0  0  0  0  0  0  0  0  0  0  0  0
  -22.2871   -8.1708   21.1870 C   0  0  0  0  0  0  0  0  0  0  0  0
  -27.0583  -27.6609   19.8235 C   0  0  0  0  0  0  0  0  0  0  0  0
  -21.6606   -6.2544   22.3943 C   0  0  0  0  0  0  0  0  0  0  0  0
  -21.5018   -4.9072   24.8319 C   0  0  0  0  0  0  0  0  0  0  0  0
  -22.3091   -5.0304   22.5581 C   0  0  0  0  0  0  0  0  0  0  0  0
  -23.9888  -12.0440   21.1917 C   0  0  0  0  0  0  0  0  0  0  0  0
  -25.3346  -13.7661   20.9503 C   0  0  0  0  0  0  0  0  0  0  0  0
  -26.3015  -11.6018   20.1570 C   0  0  0  0  0  0  0  0  0  0  0  0
  -22.7994  -31.3057   22.8404 C   0  0  0  0  0  0  0  0  0  0  0  0
  -25.7128  -23.1071   17.3176 C   0  0  0  0  0  0  0  0  0  0  0  0
  -22.4793  -28.2813   23.2413 C   0  0  0  0  0  0  0  0  0  0  0  0
  -22.1313  -24.8916   23.0788 C   0  0  0  0  0  0  0  0  0  0  0  0
  -20.7267  -17.7534   21.5888 C   0  0  0  0  0  0  0  0  0  0  0  0
  -18.0628  -32.4712   24.3450 C   0  0  0  0  0  0  0  0  0  0  0  0
  -24.2397  -30.7197   20.9043 C   0  0  0  0  0  0  0  0  0  0  0  0
  -24.9390  -28.7462   22.8004 C   0  0  0  0  0  0  0  0  0  0  0  0
  -19.1373  -31.4823   24.7897 C   0  0  0  0  0  0  0  0  0  0  0  0
  -24.2399  -23.5077   14.5774 C   0  0  0  0  0  0  0  0  0  0  0  0
  -23.6359  -17.1980   23.8090 C   0  0  0  0  0  0  0  0  0  0  0  0
  -20.4808  -32.1878   24.9448 C   0  0  0  0  0  0  0  0  0  0  0  0
  -24.1465  -24.3493   15.8414 C   0  0  0  0  0  0  0  0  0  0  0  0
  -24.1142  -15.8088   23.3901 C   0  0  0  0  0  0  0  0  0  0  0  0
  -23.5038  -22.2247   14.9522 C   0  0  0  0  0  0  0  0  0  0  0  0
  -22.1384  -17.3758   23.5777 C   0  0  0  0  0  0  0  0  0  0  0  0
  -22.1835  -15.6944   21.7653 C   0  0  0  0  0  0  0  0  0  0  0  0
  -20.9497  -32.7809   23.6107 C   0  0  1  0  0  0  0  0  0  0  0  0
  -23.1425  -30.2213   21.8618 C   0  0  1  0  0  0  0  0  0  0  0  0
  -24.2729  -23.3208   16.9675 C   0  0  1  0  0  0  0  0  0  0  0  0
  -23.6967  -15.4984   21.9421 C   0  0  2  0  0  0  0  0  0  0  0  0
  -20.8434  -22.9928   24.0951 C   0  0  0  0  0  0  0  0  0  0  0  0
  -24.2119  -28.4516   25.7459 C   0  0  0  0  0  0  0  0  0  0  0  0
  -23.5859  -26.0813   26.2541 C   0  0  0  0  0  0  0  0  0  0  0  0
  -21.8231  -27.8442   26.1688 C   0  0  0  0  0  0  0  0  0  0  0  0
  -19.7532  -18.6586   19.5121 C   0  0  0  0  0  0  0  0  0  0  0  0
  -20.9417  -24.1505   20.4722 C   0  0  0  0  0  0  0  0  0  0  0  0
  -21.9869  -17.6177   19.3988 C   0  0  0  0  0  0  0  0  0  0  0  0
  -28.4546  -24.8347   18.0589 C   0  0  0  0  0  0  0  0  0  0  0  0
  -27.5328  -23.8911   18.8194 C   0  0  0  0  0  0  0  0  0  0  0  0
  -28.0011  -26.2880   18.1253 C   0  0  0  0  0  0  0  0  0  1  0  0
  -22.8941  -27.0573   24.0180 C   0  0  1  0  0  0  0  0  0  0  0  0
  -20.9011  -24.0094   22.9656 C   0  0  2  0  0  0  0  0  0  0  0  0
  -23.1410  -27.3653   25.5219 C   0  0  0  0  0  0  0  0  0  0  0  0
  -23.2940  -13.0809   21.6674 N   0  0  0  0  0  0  0  0  0  0  0  0
  -24.1390  -14.1135   21.5072 N   0  0  0  0  0  0  0  0  0  0  0  0
  -23.7166  -22.0950   16.3942 N   0  0  3  0  0  0  0  0  0  0  0  0
  -23.5050  -29.0539   22.6832 N   0  0  0  0  0  0  0  0  0  0  0  0
  -21.7624  -17.0328   22.2058 N   0  0  0  0  0  0  0  0  0  0  0  0
  -26.2992  -14.6817   20.7190 N   0  0  0  0  0  0  0  0  0  0  0  0
  -26.3202  -11.4291   18.7663 N   0  0  0  0  0  0  0  0  0  0  0  0
  -21.4913  -31.7438   22.7590 N   0  0  0  0  0  0  0  0  0  0  0  0
  -26.1832  -23.9315   18.3284 N   0  0  0  0  0  0  0  0  0  0  0  0
  -21.8655  -26.0517   23.7751 N   0  0  0  0  0  0  0  0  0  0  0  0
  -20.7976  -17.9095   20.1962 N   0  0  0  0  0  0  0  0  0  0  0  0
  -20.9095  -23.2726   21.6702 N   0  3  0  0  0  0  0  0  0  0  0  0
  -27.1734  -11.0342   20.8579 O   0  0  0  0  0  0  0  0  0  0  0  0
  -23.6570  -31.7148   23.6142 O   0  0  0  0  0  0  0  0  0  0  0  0
  -26.3600  -22.2555   16.7197 O   0  0  0  0  0  0  0  0  0  0  0  0
  -21.2795  -28.5505   23.1355 O   0  0  0  0  0  0  0  0  0  0  0  0
  -23.2201  -24.5809   22.6008 O   0  0  0  0  0  0  0  0  0  0  0  0
  -19.7969  -18.2382   22.2463 O   0  0  0  0  0  0  0  0  0  0  0  0
  -21.7392   -6.9248   21.1851 O   0  0  0  0  0  0  0  0  0  0  0  0
  -27.9583  -26.6937   19.4928 O   0  0  0  0  0  0  0  0  0  1  0  0
  -21.4267   -4.2611   26.0029 F   0  0  0  0  0  0  0  0  0  0  0  0
  -23.0107   -4.4972   21.5486 F   0  0  0  0  0  0  0  0  0  0  0  0
  1  2  1  0  0  0  0
  1  5  2  0  0  0  0
  2  6  2  0  0  0  0
  3 12  2  0  0  0  0
  3 19  1  0  0  0  0
  4 13  1  0  0  0  0
  4 19  2  0  0  0  0
  5 21  1  0  0  0  0
  6 23  1  0  0  0  0
  7 14  2  0  0  0  0
  7 22  1  0  0  0  0
  8 10  2  0  0  0  0
  8 25  1  0  0  0  0
  9 11  1  0  0  0  0
  9 25  2  0  0  0  0
 10 26  1  0  0  0  0
 11 26  2  0  0  0  0
 12 27  1  0  0  0  0
 13 27  2  0  0  0  0
 14 28  1  0  0  0  0
 15 16  2  0  0  0  0
 15 29  1  0  0  0  0
 16 30  1  0  0  0  0
 17 24  1  0  0  0  0
 17 28  2  0  0  0  0
 18 30  2  0  0  0  0
 18 31  1  0  0  0  0
 19 32  1  0  0  0  0
 20 32  1  0  0  0  0
 20 33  2  0  0  0  0
 20 34  1  0  0  0  0
 21 23  2  0  0  0  0
 21 40  1  0  0  0  0
 22 24  2  0  0  0  0
 22 41  1  0  0  0  0
 23 52  1  0  0  0  0
 24 42  1  0  0  0  0
 25 62  1  0  0  0  0
 26 71  1  0  0  0  0
 27 87  1  0  0  0  0
 28 88  1  0  0  0  0
 29 31  2  0  0  0  0
 29 87  1  0  0  0  0
 30 89  1  0  0  0  0
 31 90  1  0  0  0  0
 32 69  2  0  0  0  0
 33 70  1  0  0  0  0
 33 74  1  0  0  0  0
 34 75  1  0  0  0  0
 34 81  2  0  0  0  0
 35 53  1  0  0  0  0
 35 76  1  0  0  0  0
 35 82  2  0  0  0  0
 36 54  1  0  0  0  0
 36 77  1  0  0  0  0
 36 83  2  0  0  0  0
 37 66  1  0  0  0  0
 37 72  1  0  0  0  0
 37 84  2  0  0  0  0
 38 67  1  0  0  0  0
 38 78  1  0  0  0  0
 38 85  2  0  0  0  0
 39 73  1  0  0  0  0
 39 79  1  0  0  0  0
 39 86  2  0  0  0  0
 40 43  1  0  0  0  0
 41 53  1  0  0  0  0
 42 72  1  0  0  0  0
 43 46  1  0  0  0  0
 44 47  1  0  0  0  0
 44 49  1  0  0  0  0
 45 48  1  0  0  0  0
 45 50  1  0  0  0  0
 46 52  1  0  0  0  0
 47 54  1  0  0  0  0
 48 55  1  0  0  0  0
 49 71  1  0  0  0  0
 50 73  1  0  0  0  0
 51 55  1  0  0  0  0
 51 73  1  0  0  0  0
 52 76  1  0  0  0  0
 53 72  1  0  0  0  0
 54 71  1  0  0  0  0
 55 70  1  0  0  0  0
 56 67  1  0  0  0  0
 57 68  1  0  0  0  0
 58 68  1  0  0  0  0
 59 68  1  0  0  0  0
 60 79  1  0  0  0  0
 61 80  1  0  0  0  0
 62 79  1  0  0  0  0
 63 64  1  0  0  0  0
 63 65  1  0  0  0  0
 64 77  1  0  0  0  0
 65 88  1  0  0  0  0
 66 68  1  0  0  0  0
 66 78  1  0  0  0  0
 67 80  1  0  0  0  0
 69 70  1  0  0  0  0
M  CHG  1  80   1
M  ISO  4  39 100  65 101  79 100  88 101
M  END
> <Batch ID>
0018

> <Smiles>
CNC(C)C(=O)NC(C(=O)N1Cc2cc([101O:1][101CH2:1]CCNC(=O)C3CCCN3c3ccc(C[100N:0](C)[100C:0](=O)N4CCCC(n5nc(-c6ccc(Oc7ccc(F)cc7F)cc6)c(C(N)=O)c5N)C4)cc3)ccc2CC1C(=O)NC1CCCc2ccccc21)C(C)(C)C

> <Shape>
0.199

> <Color>
0.129

> <Negative vol penalty>
0.000

$$$$

  -OEChem-04042321033D

 86 94  0     1  0  0  0  0  0999 V2000
  -16.6258  -28.4864   23.5463 C   0  0  0  0  0  0  0  0  0  0  0  0
  -17.4151  -27.8962   22.5644 C   0  0  0  0  0  0  0  0  0  0  0  0
  -27.7717  -17.9082   20.8724 C   0  0  0  0  0  0  0  0  0  0  0  0
  -29.8259  -18.0692   22.1340 C   0  0  0  0  0  0  0  0  0  0  0  0
  -17.1745  -29.4449   24.3972 C   0  0  0  0  0  0  0  0  0  0  0  0
  -18.7533  -28.2650   22.4321 C   0  0  0  0  0  0  0  0  0  0  0  0
  -23.4233  -24.6544   20.8008 C   0  0  0  0  0  0  0  0  0  0  0  0
  -30.8985  -27.1363   15.5017 C   0  0  0  0  0  0  0  0  0  0  0  0
  -29.6850  -27.3173   14.8382 C   0  0  0  0  0  0  0  0  0  0  0  0
  -27.7738  -16.5242   21.0456 C   0  0  0  0  0  0  0  0  0  0  0  0
  -29.8280  -16.6851   22.3072 C   0  0  0  0  0  0  0  0  0  0  0  0
  -24.0739  -24.4547   19.5840 C   0  0  0  0  0  0  0  0  0  0  0  0
  -29.3370  -13.8480   19.6970 C   0  0  0  0  0  0  0  0  0  0  0  0
  -29.0560  -13.0559   18.5838 C   0  0  0  0  0  0  0  0  0  0  0  0
  -25.7677  -26.0438   20.2358 C   0  0  0  0  0  0  0  0  0  0  0  0
  -30.1684  -28.6388   17.2471 C   0  0  0  0  0  0  0  0  0  0  0  0
  -27.1496  -12.1169   19.7332 C   0  0  0  0  0  0  0  0  0  0  0  0
  -28.7978  -18.6807   21.4166 C   0  0  0  0  0  0  0  0  0  0  0  0
  -28.2049  -21.0720   22.0785 C   0  0  0  0  0  0  0  0  0  0  0  0
  -18.5227  -29.8187   24.2816 C   0  0  0  0  0  0  0  0  0  0  0  0
  -23.9349  -25.5600   21.7413 C   0  0  0  0  0  0  0  0  0  0  0  0
  -19.3202  -29.2304   23.2814 C   0  0  0  0  0  0  0  0  0  0  0  0
  -25.1231  -26.2513   21.4648 C   0  0  0  0  0  0  0  0  0  0  0  0
  -31.1402  -27.7970   16.7062 C   0  0  0  0  0  0  0  0  0  0  0  0
  -28.7132  -28.1591   15.3792 C   0  0  0  0  0  0  0  0  0  0  0  0
  -28.8019  -15.9126   21.7630 C   0  0  0  0  0  0  0  0  0  0  0  0
  -25.2447  -25.1516   19.3001 C   0  0  0  0  0  0  0  0  0  0  0  0
  -28.5243  -13.7745   20.8284 C   0  0  0  0  0  0  0  0  0  0  0  0
  -27.9623  -12.1903   18.6019 C   0  0  0  0  0  0  0  0  0  0  0  0
  -28.9549  -28.8198   16.5836 C   0  0  0  0  0  0  0  0  0  0  0  0
  -27.4306  -12.9090   20.8464 C   0  0  0  0  0  0  0  0  0  0  0  0
  -28.7965  -20.1104   21.2375 C   0  0  0  0  0  0  0  0  0  0  0  0
  -28.4826  -22.2738   21.4745 C   0  0  0  0  0  0  0  0  0  0  0  0
  -27.4701  -20.8946   23.2968 C   0  0  0  0  0  0  0  0  0  0  0  0
  -22.8742  -28.2391   23.0833 C   0  0  0  0  0  0  0  0  0  0  0  0
  -25.5761  -27.9600   24.8565 C   0  0  0  0  0  0  0  0  0  0  0  0
  -28.7426  -26.7183   25.1362 C   0  0  0  0  0  0  0  0  0  0  0  0
  -31.7992  -25.5723   18.6568 C   0  0  0  0  0  0  0  0  0  0  0  0
  -19.0588  -30.8937   25.1935 C   0  0  0  0  0  0  0  0  0  0  0  0
  -23.2358  -25.7442   23.0602 C   0  0  0  0  0  0  0  0  0  0  0  0
  -25.7246  -27.2196   22.4492 C   0  0  0  0  0  0  0  0  0  0  0  0
  -20.5836  -30.9561   25.2310 C   0  0  0  0  0  0  0  0  0  0  0  0
  -31.1963  -22.0875   17.3953 C   0  0  0  0  0  0  0  0  0  0  0  0
  -21.1550  -30.9013   23.8178 C   0  0  0  0  0  0  0  0  0  0  0  0
  -29.7769  -22.3635   17.8915 C   0  0  0  0  0  0  0  0  0  0  0  0
  -32.0842  -23.3338   17.4848 C   0  0  0  0  0  0  0  0  0  0  0  0
  -31.1305  -23.4653   19.7627 C   0  0  0  0  0  0  0  0  0  0  0  0
  -20.7826  -29.5861   23.1227 C   0  0  1  0  0  0  0  0  0  0  0  0
  -23.5666  -27.0737   23.7314 C   0  0  1  0  0  0  0  0  0  0  0  0
  -29.7505  -22.9433   19.3256 C   0  0  2  0  0  0  0  0  0  0  0  0
  -30.9458  -26.1790   26.2097 C   0  0  0  0  0  0  0  0  0  0  0  0
  -26.2693  -30.8116   24.0213 C   0  0  0  0  0  0  0  0  0  0  0  0
  -28.6176  -30.3885   24.7793 C   0  0  0  0  0  0  0  0  0  0  0  0
  -26.7413  -30.2831   26.4197 C   0  0  0  0  0  0  0  0  0  0  0  0
  -33.9545  -25.6615   17.3284 C   0  0  0  0  0  0  0  0  0  0  0  0
  -27.7101  -24.1778   26.2494 C   0  0  0  0  0  0  0  0  0  0  0  0
  -25.7104  -27.1535   13.2930 C   0  0  0  0  0  0  0  0  0  0  0  0
  -32.4377  -27.6038   17.4154 C   0  0  0  0  0  0  0  0  0  0  0  0
  -27.4093  -28.3528   14.6627 C   0  0  0  0  0  0  0  0  0  0  0  0
  -25.7387  -25.1327   15.7249 C   0  0  0  0  0  0  0  0  0  0  0  0
  -25.9422  -26.6403   15.7188 C   0  0  0  0  0  0  0  0  0  0  0  0
  -25.0719  -24.6092   16.9911 C   0  0  0  0  0  0  0  0  0  1  0  0
  -27.0020  -28.4349   24.7144 C   0  0  1  0  0  0  0  0  0  0  0  0
  -29.4391  -25.9803   26.2653 C   0  0  2  0  0  0  0  0  0  0  0  0
  -27.1454  -29.9628   24.9641 C   0  0  0  0  0  0  0  0  0  0  0  0
  -29.4040  -20.6545   20.1797 N   0  0  0  0  0  0  0  0  0  0  0  0
  -29.1956  -21.9709   20.3520 N   0  0  0  0  0  0  0  0  0  0  0  0
  -25.0006  -27.3700   23.7222 N   0  0  0  0  0  0  0  0  0  0  0  0
  -31.7798  -24.1674   18.6570 N   0  0  0  0  0  0  0  0  0  0  0  0
  -28.1839  -23.5497   21.7993 N   0  0  0  0  0  0  0  0  0  0  0  0
  -27.2765  -19.5921   23.7767 N   0  0  0  0  0  0  0  0  0  0  0  0
  -21.6209  -28.5072   23.5998 N   0  0  0  0  0  0  0  0  0  0  0  0
  -27.7998  -27.6054   25.6110 N   0  0  0  0  0  0  0  0  0  0  0  0
  -32.6749  -26.2102   17.7665 N   0  0  0  0  0  0  0  0  0  0  0  0
  -29.1542  -24.5198   26.1829 N   0  3  0  0  0  0  0  0  0  0  0  0
  -26.6370  -27.0681   14.4820 N   0  3  1  0  0  0  0  0  0  0  0  0
  -26.9849  -21.8613   23.9321 O   0  0  0  0  0  0  0  0  0  0  0  0
  -23.4361  -28.8509   22.1823 O   0  0  0  0  0  0  0  0  0  0  0  0
  -24.9966  -28.1006   25.9364 O   0  0  0  0  0  0  0  0  0  0  0  0
  -29.0108  -26.5295   23.9518 O   0  0  0  0  0  0  0  0  0  0  0  0
  -31.0587  -26.2255   19.4040 O   0  0  0  0  0  0  0  0  0  0  0  0
  -28.8041  -14.5621   21.9324 O   0  0  0  0  0  0  0  0  0  0  0  0
  -25.8814  -24.9590   18.1129 O   0  0  0  0  0  0  0  0  0  1  0  0
  -27.6917  -11.4309   17.5322 F   0  0  0  0  0  0  0  0  0  0  0  0
  -28.0273  -29.6314   17.1106 F   0  0  0  0  0  0  0  0  0  0  0  0
  -26.6456  -12.8349   21.9299 F   0  0  0  0  0  0  0  0  0  0  0  0
  1  2  1  0  0  0  0
  1  5  2  0  0  0  0
  2  6  2  0  0  0  0
  3 10  2  0  0  0  0
  3 18  1  0  0  0  0
  4 11  1  0  0  0  0
  4 18  2  0  0  0  0
  5 20  1  0  0  0  0
  6 22  1  0  0  0  0
  7 12  2  0  0  0  0
  7 21  1  0  0  0  0
  8  9  2  0  0  0  0
  8 24  1  0  0  0  0
  9 25  1  0  0  0  0
 10 26  1  0  0  0  0
 11 26  2  0  0  0  0
 12 27  1  0  0  0  0
 13 14  2  0  0  0  0
 13 28  1  0  0  0  0
 14 29  1  0  0  0  0
 15 23  1  0  0  0  0
 15 27  2  0  0  0  0
 16 24  2  0  0  0  0
 16 30  1  0  0  0  0
 17 29  2  0  0  0  0
 17 31  1  0  0  0  0
 18 32  1  0  0  0  0
 19 32  1  0  0  0  0
 19 33  2  0  0  0  0
 19 34  1  0  0  0  0
 20 22  2  0  0  0  0
 20 39  1  0  0  0  0
 21 23  2  0  0  0  0
 21 40  1  0  0  0  0
 22 48  1  0  0  0  0
 23 41  1  0  0  0  0
 24 58  1  0  0  0  0
 25 30  2  0  0  0  0
 25 59  1  0  0  0  0
 26 82  1  0  0  0  0
 27 83  1  0  0  0  0
 28 31  2  0  0  0  0
 28 82  1  0  0  0  0
 29 84  1  0  0  0  0
 30 85  1  0  0  0  0
 31 86  1  0  0  0  0
 32 66  2  0  0  0  0
 33 67  1  0  0  0  0
 33 70  1  0  0  0  0
 34 71  1  0  0  0  0
 34 77  2  0  0  0  0
 35 49  1  0  0  0  0
 35 72  1  0  0  0  0
 35 78  2  0  0  0  0
 36 63  1  0  0  0  0
 36 68  1  0  0  0  0
 36 79  2  0  0  0  0
 37 64  1  0  0  0  0
 37 73  1  0  0  0  0
 37 80  2  0  0  0  0
 38 69  1  0  0  0  0
 38 74  1  0  0  0  0
 38 81  2  0  0  0  0
 39 42  1  0  0  0  0
 40 49  1  0  0  0  0
 41 68  1  0  0  0  0
 42 44  1  0  0  0  0
 43 45  1  0  0  0  0
 43 46  1  0  0  0  0
 44 48  1  0  0  0  0
 45 50  1  0  0  0  0
 46 69  1  0  0  0  0
 47 50  1  0  0  0  0
 47 69  1  0  0  0  0
 48 72  1  0  0  0  0
 49 68  1  0  0  0  0
 50 67  1  0  0  0  0
 51 64  1  0  0  0  0
 52 65  1  0  0  0  0
 53 65  1  0  0  0  0
 54 65  1  0  0  0  0
 55 74  1  0  0  0  0
 56 75  1  0  0  0  0
 57 76  1  0  0  0  0
 58 74  1  0  0  0  0
 59 76  1  0  0  0  0
 60 61  1  0  0  0  0
 60 62  1  0  0  0  0
 61 76  1  0  0  0  0
 62 83  1  0  0  0  0
 63 65  1  0  0  0  0
 63 73  1  0  0  0  0
 64 75  1  0  0  0  0
 66 67  1  0  0  0  0
M  CHG  2  75   1  76   1
M  ISO  4  38 100  62 101  74 100  83 101
M  END
> <Batch ID>
0018

> <Smiles>
CNC(C)C(=O)NC(C(=O)N1Cc2cc([101O:1][101CH2:1]CCN(C)Cc3ccc(C[100N:0](C)[100C:0](=O)N4CCCC(n5nc(-c6ccc(Oc7ccc(F)cc7F)cc6)c(C(N)=O)c5N)C4)cc3F)ccc2CC1C(=O)NC1CCCc2ccccc21)C(C)(C)C

> <Shape>
0.219

> <Color>
0.061

> <Negative vol penalty>
0.000

$$$$

  -OEChem-04042321033D

 85 94  0     1  0  0  0  0  0999 V2000
  -23.3020   -7.3476   21.7587 C   0  0  0  0  0  0  0  0  0  0  0  0
  -24.3849   -7.8952   21.0784 C   0  0  0  0  0  0  0  0  0  0  0  0
  -23.3425  -31.1198   22.0571 C   0  0  0  0  0  0  0  0  0  0  0  0
  -22.8320  -28.8592   22.7397 C   0  0  0  0  0  0  0  0  0  0  0  0
  -22.1267   -8.0837   21.9036 C   0  0  0  0  0  0  0  0  0  0  0  0
  -24.2928   -9.1789   20.5416 C   0  0  0  0  0  0  0  0  0  0  0  0
  -28.2923  -14.9677   19.1962 C   0  0  0  0  0  0  0  0  0  0  0  0
  -27.9543  -22.7092   21.2920 C   0  0  0  0  0  0  0  0  0  0  0  0
  -21.9991  -31.3292   21.7457 C   0  0  0  0  0  0  0  0  0  0  0  0
  -21.4885  -29.0686   22.4283 C   0  0  0  0  0  0  0  0  0  0  0  0
  -28.6145  -15.8357   18.1538 C   0  0  0  0  0  0  0  0  0  0  0  0
  -18.8121  -30.5751   23.8382 C   0  0  0  0  0  0  0  0  0  0  0  0
  -27.7791  -21.3556   21.0050 C   0  0  0  0  0  0  0  0  0  0  0  0
  -17.8592  -30.1342   24.7565 C   0  0  0  0  0  0  0  0  0  0  0  0
  -26.5621  -17.0449   18.5344 C   0  0  0  0  0  0  0  0  0  0  0  0
  -29.4104  -22.9269   19.3764 C   0  0  0  0  0  0  0  0  0  0  0  0
  -16.9101  -28.6824   23.0747 C   0  0  0  0  0  0  0  0  0  0  0  0
  -23.7590  -29.8848   22.5541 C   0  0  0  0  0  0  0  0  0  0  0  0
  -25.7791  -29.8979   24.1119 C   0  0  0  0  0  0  0  0  0  0  0  0
  -22.0236   -9.3807   21.3767 C   0  0  0  0  0  0  0  0  0  0  0  0
  -27.0954  -15.1255   19.9096 C   0  0  0  0  0  0  0  0  0  0  0  0
  -23.1146   -9.9325   20.6784 C   0  0  0  0  0  0  0  0  0  0  0  0
  -26.2282  -16.1791   19.5870 C   0  0  0  0  0  0  0  0  0  0  0  0
  -29.2352  -21.5731   19.0894 C   0  0  0  0  0  0  0  0  0  0  0  0
  -28.7700  -23.4949   20.4777 C   0  0  0  0  0  0  0  0  0  0  0  0
  -21.0721  -30.3036   21.9313 C   0  0  0  0  0  0  0  0  0  0  0  0
  -27.7480  -16.8727   17.8209 C   0  0  0  0  0  0  0  0  0  0  0  0
  -18.8140  -30.0696   22.5381 C   0  0  0  0  0  0  0  0  0  0  0  0
  -16.9082  -29.1879   24.3747 C   0  0  0  0  0  0  0  0  0  0  0  0
  -28.4195  -20.7875   19.9037 C   0  0  0  0  0  0  0  0  0  0  0  0
  -17.8630  -29.1233   22.1563 C   0  0  0  0  0  0  0  0  0  0  0  0
  -25.1467  -29.6676   22.8754 C   0  0  0  0  0  0  0  0  0  0  0  0
  -27.0875  -29.5377   23.9007 C   0  0  0  0  0  0  0  0  0  0  0  0
  -25.2325  -30.3931   25.3415 C   0  0  0  0  0  0  0  0  0  0  0  0
  -24.5040  -13.3419   20.3654 C   0  0  0  0  0  0  0  0  0  0  0  0
  -23.7085  -15.7167   22.4270 C   0  0  0  0  0  0  0  0  0  0  0  0
  -24.0634  -18.9787   23.3651 C   0  0  0  0  0  0  0  0  0  0  0  0
  -29.7216  -25.7904   20.0635 C   0  0  0  0  0  0  0  0  0  0  0  0
  -20.7163  -10.1196   21.5175 C   0  0  0  0  0  0  0  0  0  0  0  0
  -26.7751  -14.1969   21.0488 C   0  0  0  0  0  0  0  0  0  0  0  0
  -24.9406  -16.4038   20.3353 C   0  0  0  0  0  0  0  0  0  0  0  0
  -20.8305  -11.6171   21.2439 C   0  0  0  0  0  0  0  0  0  0  0  0
  -30.3854  -29.2683   20.4386 C   0  0  0  0  0  0  0  0  0  0  0  0
  -28.6887  -21.0610   14.6125 C   0  0  0  0  0  0  0  0  0  0  0  0
  -21.6314  -11.8675   19.9701 C   0  0  0  0  0  0  0  0  0  0  0  0
  -29.1778  -29.7852   21.2239 C   0  0  0  0  0  0  0  0  0  0  0  0
  -28.8671  -19.5567   14.6652 C   0  0  0  0  0  0  0  0  0  0  0  0
  -29.9899  -28.1811   19.4409 C   0  0  0  0  0  0  0  0  0  0  0  0
  -28.0237  -27.5778   20.7971 C   0  0  0  0  0  0  0  0  0  0  0  0
  -28.2941  -21.4251   16.0308 C   0  0  0  0  0  0  0  0  0  0  0  0
  -23.0619  -11.3313   20.1035 C   0  0  1  0  0  0  0  0  0  0  0  0
  -25.2852  -14.1389   21.3715 C   0  0  1  0  0  0  0  0  0  0  0  0
  -28.3824  -28.6286   21.8604 C   0  0  2  0  0  0  0  0  0  0  0  0
  -29.6041  -19.3524   15.9805 C   0  0  2  0  0  0  0  0  0  0  0  0
  -23.2573  -20.6381   25.0662 C   0  0  0  0  0  0  0  0  0  0  0  0
  -21.0548  -15.9491   20.9391 C   0  0  0  0  0  0  0  0  0  0  0  0
  -20.7187  -18.1779   22.0290 C   0  0  0  0  0  0  0  0  0  0  0  0
  -20.8737  -16.1181   23.4277 C   0  0  0  0  0  0  0  0  0  0  0  0
  -26.7974  -19.4055   24.4149 C   0  0  0  0  0  0  0  0  0  0  0  0
  -29.9240  -20.9645   17.9037 C   0  0  0  0  0  0  0  0  0  0  0  0
  -29.4451  -17.9572   16.5562 C   0  0  0  0  0  0  0  0  0  1  0  0
  -22.9573  -17.0214   22.3163 C   0  0  1  0  0  0  0  0  0  0  0  0
  -24.3270  -19.6147   24.7181 C   0  0  2  0  0  0  0  0  0  0  0  0
  -21.4244  -16.8115   22.1625 C   0  0  0  0  0  0  0  0  0  0  0  0
  -25.9845  -29.1977   21.9474 N   0  0  0  0  0  0  0  0  0  0  0  0
  -27.1568  -29.1298   22.6011 N   0  0  0  0  0  0  0  0  0  0  0  0
  -24.6689  -15.4656   21.4369 N   0  0  0  0  0  0  0  0  0  0  0  0
  -29.2437  -27.1169   20.1159 N   0  0  0  0  0  0  0  0  0  0  0  0
  -28.1742  -29.5334   24.7017 N   0  0  0  0  0  0  0  0  0  0  0  0
  -23.8691  -30.7149   25.3849 N   0  0  0  0  0  0  0  0  0  0  0  0
  -28.9471  -24.8702   20.7691 N   0  0  0  0  0  0  0  0  0  0  0  0
  -23.8686  -12.2351   20.8952 N   0  0  0  0  0  0  0  0  0  0  0  0
  -23.3381  -17.8118   23.4819 N   0  0  0  0  0  0  0  0  0  0  0  0
  -28.9701  -20.3825   16.9054 N   0  3  1  0  0  0  0  0  0  0  0  0
  -25.6506  -20.2994   24.7195 N   0  3  0  0  0  0  0  0  0  0  0  0
  -25.9360  -30.5611   26.3664 O   0  0  0  0  0  0  0  0  0  0  0  0
  -24.4784  -13.7052   19.1953 O   0  0  0  0  0  0  0  0  0  0  0  0
  -23.4575  -14.9518   23.3617 O   0  0  0  0  0  0  0  0  0  0  0  0
  -24.4581  -19.4699   22.3099 O   0  0  0  0  0  0  0  0  0  0  0  0
  -30.7577  -25.4972   19.4613 O   0  0  0  0  0  0  0  0  0  0  0  0
  -19.7611  -30.5077   21.6278 O   0  0  0  0  0  0  0  0  0  0  0  0
  -28.0597  -17.7210   16.8034 O   0  0  0  0  0  0  0  0  0  1  0  0
  -15.9942  -28.7635   25.2571 F   0  0  0  0  0  0  0  0  0  0  0  0
  -28.2459  -19.4856   19.6368 F   0  0  0  0  0  0  0  0  0  0  0  0
  -17.8605  -28.6332   20.9091 F   0  0  0  0  0  0  0  0  0  0  0  0
  1  2  1  0  0  0  0
  1  5  2  0  0  0  0
  2  6  2  0  0  0  0
  3  9  2  0  0  0  0
  3 18  1  0  0  0  0
  4 10  1  0  0  0  0
  4 18  2  0  0  0  0
  5 20  1  0  0  0  0
  6 22  1  0  0  0  0
  7 11  2  0  0  0  0
  7 21  1  0  0  0  0
  8 13  2  0  0  0  0
  8 25  1  0  0  0  0
  9 26  1  0  0  0  0
 10 26  2  0  0  0  0
 11 27  1  0  0  0  0
 12 14  2  0  0  0  0
 12 28  1  0  0  0  0
 13 30  1  0  0  0  0
 14 29  1  0  0  0  0
 15 23  1  0  0  0  0
 15 27  2  0  0  0  0
 16 24  1  0  0  0  0
 16 25  2  0  0  0  0
 17 29  2  0  0  0  0
 17 31  1  0  0  0  0
 18 32  1  0  0  0  0
 19 32  1  0  0  0  0
 19 33  2  0  0  0  0
 19 34  1  0  0  0  0
 20 22  2  0  0  0  0
 20 39  1  0  0  0  0
 21 23  2  0  0  0  0
 21 40  1  0  0  0  0
 22 51  1  0  0  0  0
 23 41  1  0  0  0  0
 24 30  2  0  0  0  0
 24 60  1  0  0  0  0
 25 71  1  0  0  0  0
 26 81  1  0  0  0  0
 27 82  1  0  0  0  0
 28 31  2  0  0  0  0
 28 81  1  0  0  0  0
 29 83  1  0  0  0  0
 30 84  1  0  0  0  0
 31 85  1  0  0  0  0
 32 65  2  0  0  0  0
 33 66  1  0  0  0  0
 33 69  1  0  0  0  0
 34 70  1  0  0  0  0
 34 76  2  0  0  0  0
 35 52  1  0  0  0  0
 35 72  1  0  0  0  0
 35 77  2  0  0  0  0
 36 62  1  0  0  0  0
 36 67  1  0  0  0  0
 36 78  2  0  0  0  0
 37 63  1  0  0  0  0
 37 73  1  0  0  0  0
 37 79  2  0  0  0  0
 38 68  1  0  0  0  0
 38 71  1  0  0  0  0
 38 80  2  0  0  0  0
 39 42  1  0  0  0  0
 40 52  1  0  0  0  0
 41 67  1  0  0  0  0
 42 45  1  0  0  0  0
 43 46  1  0  0  0  0
 43 48  1  0  0  0  0
 44 47  1  0  0  0  0
 44 50  1  0  0  0  0
 45 51  1  0  0  0  0
 46 53  1  0  0  0  0
 47 54  1  0  0  0  0
 48 68  1  0  0  0  0
 49 53  1  0  0  0  0
 49 68  1  0  0  0  0
 50 74  1  0  0  0  0
 51 72  1  0  0  0  0
 52 67  1  0  0  0  0
 53 66  1  0  0  0  0
 54 61  1  0  0  0  0
 54 74  1  0  0  0  0
 55 63  1  0  0  0  0
 56 64  1  0  0  0  0
 57 64  1  0  0  0  0
 58 64  1  0  0  0  0
 59 75  1  0  0  0  0
 60 74  1  0  0  0  0
 61 82  1  0  0  0  0
 62 64  1  0  0  0  0
 62 73  1  0  0  0  0
 63 75  1  0  0  0  0
 65 66  1  0  0  0  0
M  CHG  2  74   1  75   1
M  ISO  4  38 100  61 101  71 100  82 101
M  END
> <Batch ID>
0018

> <Smiles>
CNC(C)C(=O)NC(C(=O)N1Cc2cc([101O:1][101CH2:1]C3CCCN3Cc3cc([100NH:0][100C:0](=O)N4CCCC(n5nc(-c6ccc(Oc7ccc(F)cc7F)cc6)c(C(N)=O)c5N)C4)ccc3F)ccc2CC1C(=O)NC1CCCc2ccccc21)C(C)(C)C

> <Shape>
0.263

> <Color>
0.049

> <Negative vol penalty>
0.000

$$$$

  -OEChem-04042321033D

 88 97  0     1  0  0  0  0  0999 V2000
  -28.5006  -23.1666   19.0760 C   0  0  0  0  0  0  0  0  0  0  0  0
  -28.3592  -24.3591   19.0653 C   0  0  0  0  0  0  0  0  0  0  0  0
  -27.6001  -33.7026   27.2224 C   0  0  0  0  0  0  0  0  0  0  0  0
  -27.9917  -32.7667   26.2705 C   0  0  0  0  0  0  0  0  0  0  0  0
  -27.0146  -13.7326   22.0498 C   0  0  0  0  0  0  0  0  0  0  0  0
  -27.0392  -12.5658   19.9344 C   0  0  0  0  0  0  0  0  0  0  0  0
  -26.2853  -33.7153   27.6861 C   0  0  0  0  0  0  0  0  0  0  0  0
  -27.0689  -31.8422   25.7825 C   0  0  0  0  0  0  0  0  0  0  0  0
  -26.7824  -29.5747   20.1007 C   0  0  0  0  0  0  0  0  0  0  0  0
  -25.4005  -22.9551   23.1969 C   0  0  0  0  0  0  0  0  0  0  0  0
  -24.1373  -23.9135   21.3740 C   0  0  0  0  0  0  0  0  0  0  0  0
  -26.0474  -22.1038   22.3011 C   0  0  0  0  0  0  0  0  0  0  0  0
  -24.7843  -23.0623   20.4781 C   0  0  0  0  0  0  0  0  0  0  0  0
  -26.3218  -12.6691   22.6283 C   0  0  0  0  0  0  0  0  0  0  0  0
  -26.3464  -11.5023   20.5129 C   0  0  0  0  0  0  0  0  0  0  0  0
  -27.2360  -28.3798   19.5437 C   0  0  0  0  0  0  0  0  0  0  0  0
  -23.1592  -10.7841   21.3827 C   0  0  0  0  0  0  0  0  0  0  0  0
  -22.0871  -10.2455   20.6712 C   0  0  0  0  0  0  0  0  0  0  0  0
  -25.0453  -27.4154   19.8438 C   0  0  0  0  0  0  0  0  0  0  0  0
  -23.1940   -8.0983   20.6289 C   0  0  0  0  0  0  0  0  0  0  0  0
  -27.3733  -13.6809   20.7028 C   0  0  0  0  0  0  0  0  0  0  0  0
  -29.4844  -14.9447   20.0293 C   0  0  0  0  0  0  0  0  0  0  0  0
  -25.3434  -32.7967   27.1964 C   0  0  0  0  0  0  0  0  0  0  0  0
  -25.4576  -29.6956   20.5442 C   0  0  0  0  0  0  0  0  0  0  0  0
  -25.7406  -31.8418   26.2410 C   0  0  0  0  0  0  0  0  0  0  0  0
  -24.5767  -28.6137   20.4037 C   0  0  0  0  0  0  0  0  0  0  0  0
  -24.4454  -23.8599   22.7333 C   0  0  0  0  0  0  0  0  0  0  0  0
  -25.7393  -22.1574   20.9417 C   0  0  0  0  0  0  0  0  0  0  0  0
  -25.9877  -11.5540   21.8599 C   0  0  0  0  0  0  0  0  0  0  0  0
  -26.3682  -27.2990   19.4178 C   0  0  0  0  0  0  0  0  0  0  0  0
  -24.2487   -9.9799   21.7171 C   0  0  0  0  0  0  0  0  0  0  0  0
  -22.1045   -8.9026   20.2944 C   0  0  0  0  0  0  0  0  0  0  0  0
  -24.2661   -8.6370   21.3403 C   0  0  0  0  0  0  0  0  0  0  0  0
  -28.0884  -14.7794   20.1045 C   0  0  0  0  0  0  0  0  0  0  0  0
  -29.6539  -16.1386   19.3718 C   0  0  0  0  0  0  0  0  0  0  0  0
  -30.5341  -14.0949   20.5107 C   0  0  0  0  0  0  0  0  0  0  0  0
  -24.0738  -30.2538   23.3508 C   0  0  0  0  0  0  0  0  0  0  0  0
  -21.3713  -30.3511   21.5593 C   0  0  0  0  0  0  0  0  0  0  0  0
  -19.7565  -29.4247   18.6991 C   0  0  0  0  0  0  0  0  0  0  0  0
  -25.7715  -20.8301   18.8364 C   0  0  0  0  0  0  0  0  0  0  0  0
  -23.9457  -32.8187   27.7625 C   0  0  0  0  0  0  0  0  0  0  0  0
  -24.9766  -31.0000   21.1183 C   0  0  0  0  0  0  0  0  0  0  0  0
  -23.1394  -28.6988   20.8458 C   0  0  0  0  0  0  0  0  0  0  0  0
  -22.9346  -32.0466   26.9187 C   0  0  0  0  0  0  0  0  0  0  0  0
  -27.5486  -18.9970   16.1734 C   0  0  0  0  0  0  0  0  0  0  0  0
  -20.4271  -23.4599   24.6154 C   0  0  0  0  0  0  0  0  0  0  0  0
  -20.5469  -24.8341   25.2430 C   0  0  0  0  0  0  0  0  0  0  0  0
  -23.4981  -30.6854   26.5233 C   0  0  0  0  0  0  0  0  0  0  0  0
  -27.9478  -17.6945   16.8648 C   0  0  0  0  0  0  0  0  0  0  0  0
  -26.2637  -19.5776   16.7566 C   0  0  0  0  0  0  0  0  0  0  0  0
  -26.7097  -18.4710   18.9261 C   0  0  0  0  0  0  0  0  0  0  0  0
  -21.6351  -23.4069   23.7049 C   0  0  0  0  0  0  0  0  0  0  0  0
  -22.0303  -24.9786   25.5341 C   0  0  0  0  0  0  0  0  0  0  0  0
  -24.7624  -30.8386   25.6692 C   0  0  1  0  0  0  0  0  0  0  0  0
  -23.7473  -30.8440   22.0082 C   0  0  1  0  0  0  0  0  0  0  0  0
  -28.0239  -17.8837   18.3897 C   0  0  1  0  0  0  0  0  0  0  0  0
  -17.5427  -29.6234   17.5342 C   0  0  0  0  0  0  0  0  0  0  0  0
  -20.1911  -28.2693   23.4522 C   0  0  0  0  0  0  0  0  0  0  0  0
  -18.4209  -27.8180   21.7402 C   0  0  0  0  0  0  0  0  0  0  0  0
  -18.6056  -30.0806   22.7741 C   0  0  0  0  0  0  0  0  0  0  0  0
  -20.9659  -30.8283   16.3912 C   0  0  0  0  0  0  0  0  0  0  0  0
  -28.6726  -21.7063   19.0873 C   0  0  0  0  0  0  0  0  0  0  0  0
  -28.1875  -25.8111   19.0542 C   0  0  0  0  0  0  0  0  0  1  0  0
  -23.7537  -24.7700   23.6912 C   0  0  0  0  0  0  0  0  0  0  0  0
  -27.8471  -21.0440   20.1839 C   0  0  0  0  0  0  0  0  0  0  0  0
  -20.3522  -29.3340   21.1056 C   0  0  1  0  0  0  0  0  0  0  0  0
  -18.9304  -30.2215   17.7055 C   0  0  2  0  0  0  0  0  0  0  0  0
  -19.4200  -28.8729   22.2614 C   0  0  0  0  0  0  0  0  0  0  0  0
  -27.4187  -15.7878   19.5400 N   0  0  0  0  0  0  0  0  0  0  0  0
  -28.3981  -16.5982   19.1039 N   0  0  0  0  0  0  0  0  0  0  0  0
  -22.7184  -29.9933   21.4066 N   0  0  0  0  0  0  0  0  0  0  0  0
  -26.3457  -19.7045   18.2122 N   0  0  0  0  0  0  0  0  0  0  0  0
  -30.7532  -16.8297   19.0026 N   0  0  0  0  0  0  0  0  0  0  0  0
  -30.1841  -12.9052   21.1637 N   0  0  0  0  0  0  0  0  0  0  0  0
  -24.4140  -31.1895   24.3090 N   0  0  0  0  0  0  0  0  0  0  0  0
  -19.6511  -29.9345   19.9759 N   0  0  0  0  0  0  0  0  0  0  0  0
  -26.4091  -21.2766   20.0141 N   0  0  0  0  0  0  0  0  0  0  0  0
  -22.7165  -24.0822   24.5195 N   0  3  0  0  0  0  0  0  0  0  0  0
  -19.6004  -30.2433   16.3745 N   0  3  0  0  0  0  0  0  0  0  0  0
  -31.7463  -14.3902   20.3807 O   0  0  0  0  0  0  0  0  0  0  0  0
  -24.0196  -29.0395   23.5064 O   0  0  0  0  0  0  0  0  0  0  0  0
  -20.9865  -31.4265   22.0252 O   0  0  0  0  0  0  0  0  0  0  0  0
  -20.4252  -28.4455   18.3756 O   0  0  0  0  0  0  0  0  0  0  0  0
  -24.7858  -21.4073   18.3620 O   0  0  0  0  0  0  0  0  0  0  0  0
  -25.3119  -10.5160   22.4242 O   0  0  0  0  0  0  0  0  0  0  0  0
  -26.8085  -26.1314   18.8750 O   0  0  0  0  0  0  0  0  0  1  0  0
  -21.0743   -8.3851   19.6125 F   0  0  0  0  0  0  0  0  0  0  0  0
  -25.3095   -7.8592   21.6598 F   0  0  0  0  0  0  0  0  0  0  0  0
  1  2  3  0  0  0  0
  1 62  1  0  0  0  0
  2 63  1  0  0  0  0
  3  4  1  0  0  0  0
  3  7  2  0  0  0  0
  4  8  2  0  0  0  0
  5 14  2  0  0  0  0
  5 21  1  0  0  0  0
  6 15  1  0  0  0  0
  6 21  2  0  0  0  0
  7 23  1  0  0  0  0
  8 25  1  0  0  0  0
  9 16  2  0  0  0  0
  9 24  1  0  0  0  0
 10 12  2  0  0  0  0
 10 27  1  0  0  0  0
 11 13  1  0  0  0  0
 11 27  2  0  0  0  0
 12 28  1  0  0  0  0
 13 28  2  0  0  0  0
 14 29  1  0  0  0  0
 15 29  2  0  0  0  0
 16 30  1  0  0  0  0
 17 18  2  0  0  0  0
 17 31  1  0  0  0  0
 18 32  1  0  0  0  0
 19 26  1  0  0  0  0
 19 30  2  0  0  0  0
 20 32  2  0  0  0  0
 20 33  1  0  0  0  0
 21 34  1  0  0  0  0
 22 34  1  0  0  0  0
 22 35  2  0  0  0  0
 22 36  1  0  0  0  0
 23 25  2  0  0  0  0
 23 41  1  0  0  0  0
 24 26  2  0  0  0  0
 24 42  1  0  0  0  0
 25 54  1  0  0  0  0
 26 43  1  0  0  0  0
 27 64  1  0  0  0  0
 28 77  1  0  0  0  0
 29 85  1  0  0  0  0
 30 86  1  0  0  0  0
 31 33  2  0  0  0  0
 31 85  1  0  0  0  0
 32 87  1  0  0  0  0
 33 88  1  0  0  0  0
 34 69  2  0  0  0  0
 35 70  1  0  0  0  0
 35 73  1  0  0  0  0
 36 74  1  0  0  0  0
 36 80  2  0  0  0  0
 37 55  1  0  0  0  0
 37 75  1  0  0  0  0
 37 81  2  0  0  0  0
 38 66  1  0  0  0  0
 38 71  1  0  0  0  0
 38 82  2  0  0  0  0
 39 67  1  0  0  0  0
 39 76  1  0  0  0  0
 39 83  2  0  0  0  0
 40 72  1  0  0  0  0
 40 77  1  0  0  0  0
 40 84  2  0  0  0  0
 41 44  1  0  0  0  0
 42 55  1  0  0  0  0
 43 71  1  0  0  0  0
 44 48  1  0  0  0  0
 45 49  1  0  0  0  0
 45 50  1  0  0  0  0
 46 47  1  0  0  0  0
 46 52  1  0  0  0  0
 47 53  1  0  0  0  0
 48 54  1  0  0  0  0
 49 56  1  0  0  0  0
 50 72  1  0  0  0  0
 51 56  1  0  0  0  0
 51 72  1  0  0  0  0
 52 78  1  0  0  0  0
 53 78  1  0  0  0  0
 54 75  1  0  0  0  0
 55 71  1  0  0  0  0
 56 70  1  0  0  0  0
 57 67  1  0  0  0  0
 58 68  1  0  0  0  0
 59 68  1  0  0  0  0
 60 68  1  0  0  0  0
 61 79  1  0  0  0  0
 62 65  1  0  0  0  0
 63 86  1  0  0  0  0
 64 78  1  0  0  0  0
 65 77  1  0  0  0  0
 66 68  1  0  0  0  0
 66 76  1  0  0  0  0
 67 79  1  0  0  0  0
 69 70  1  0  0  0  0
M  CHG  2  78   1  79   1
M  ISO  4  40 100  63 101  77 100  86 101
M  END
> <Batch ID>
0018

> <Smiles>
CNC(C)C(=O)NC(C(=O)N1Cc2cc([101O:1][101CH2:1]C#CCC[100N:0](c3ccc(CN4CCCC4)cc3)[100C:0](=O)N3CCCC(n4nc(-c5ccc(Oc6ccc(F)cc6F)cc5)c(C(N)=O)c4N)C3)ccc2CC1C(=O)NC1CCCc2ccccc21)C(C)(C)C

> <Shape>
0.263

> <Color>
0.081

> <Negative vol penalty>
0.000

$$$$

  -OEChem-04042321033D

 87 95  0     1  0  0  0  0  0999 V2000
  -22.8358  -10.6603   19.2890 C   0  0  0  0  0  0  0  0  0  0  0  0
  -22.2025  -11.8943   19.3967 C   0  0  0  0  0  0  0  0  0  0  0  0
  -24.0774  -29.7148   20.5147 C   0  0  0  0  0  0  0  0  0  0  0  0
  -25.7964  -30.1322   22.1603 C   0  0  0  0  0  0  0  0  0  0  0  0
  -24.1439  -10.5071   19.7464 C   0  0  0  0  0  0  0  0  0  0  0  0
  -22.8766  -12.9756   19.9629 C   0  0  0  0  0  0  0  0  0  0  0  0
  -22.3746  -18.8685   18.3731 C   0  0  0  0  0  0  0  0  0  0  0  0
  -19.4236  -28.1709   21.4180 C   0  0  0  0  0  0  0  0  0  0  0  0
  -18.4908  -28.5571   22.3805 C   0  0  0  0  0  0  0  0  0  0  0  0
  -24.7878  -30.4693   19.5812 C   0  0  0  0  0  0  0  0  0  0  0  0
  -26.5069  -30.8868   21.2267 C   0  0  0  0  0  0  0  0  0  0  0  0
  -21.6448  -19.9267   18.9129 C   0  0  0  0  0  0  0  0  0  0  0  0
  -27.4608  -30.0487   17.5535 C   0  0  0  0  0  0  0  0  0  0  0  0
  -27.5942  -29.5287   16.2661 C   0  0  0  0  0  0  0  0  0  0  0  0
  -23.5864  -20.6185   20.1662 C   0  0  0  0  0  0  0  0  0  0  0  0
  -20.1108  -26.3294   22.8229 C   0  0  0  0  0  0  0  0  0  0  0  0
  -26.4604  -31.4635   15.3671 C   0  0  0  0  0  0  0  0  0  0  0  0
  -24.5817  -29.5463   21.8043 C   0  0  0  0  0  0  0  0  0  0  0  0
  -23.9580  -27.3840   23.0056 C   0  0  0  0  0  0  0  0  0  0  0  0
  -24.8378  -11.5896   20.3097 C   0  0  0  0  0  0  0  0  0  0  0  0
  -23.7149  -18.6706   18.7348 C   0  0  0  0  0  0  0  0  0  0  0  0
  -24.1948  -12.8364   20.4295 C   0  0  0  0  0  0  0  0  0  0  0  0
  -24.3317  -19.5585   19.6276 C   0  0  0  0  0  0  0  0  0  0  0  0
  -19.1781  -26.7157   23.7855 C   0  0  0  0  0  0  0  0  0  0  0  0
  -20.2335  -27.0569   21.6392 C   0  0  0  0  0  0  0  0  0  0  0  0
  -18.3681  -27.8296   23.5642 C   0  0  0  0  0  0  0  0  0  0  0  0
  -26.0026  -31.0553   19.9371 C   0  0  0  0  0  0  0  0  0  0  0  0
  -22.2498  -20.8002   19.8117 C   0  0  0  0  0  0  0  0  0  0  0  0
  -26.8271  -31.2762   17.7477 C   0  0  0  0  0  0  0  0  0  0  0  0
  -27.0940  -30.2361   15.1729 C   0  0  0  0  0  0  0  0  0  0  0  0
  -26.3270  -31.9835   16.6545 C   0  0  0  0  0  0  0  0  0  0  0  0
  -23.8480  -28.7674   22.7693 C   0  0  0  0  0  0  0  0  0  0  0  0
  -23.0566  -27.1348   24.0116 C   0  0  0  0  0  0  0  0  0  0  0  0
  -24.7997  -26.4112   22.3725 C   0  0  0  0  0  0  0  0  0  0  0  0
  -25.3279  -16.3446   20.1810 C   0  0  0  0  0  0  0  0  0  0  0  0
  -27.8923  -18.1780   19.4162 C   0  0  0  0  0  0  0  0  0  0  0  0
  -29.1198  -21.2707   18.6580 C   0  0  0  0  0  0  0  0  0  0  0  0
  -17.7290  -29.1625   25.5667 C   0  0  0  0  0  0  0  0  0  0  0  0
  -26.2340  -11.3635   20.8334 C   0  0  0  0  0  0  0  0  0  0  0  0
  -24.4960  -17.5400   18.1232 C   0  0  0  0  0  0  0  0  0  0  0  0
  -25.7738  -19.4016   20.0328 C   0  0  0  0  0  0  0  0  0  0  0  0
  -27.0092  -12.6555   21.0787 C   0  0  0  0  0  0  0  0  0  0  0  0
  -20.8167  -29.8648   27.4596 C   0  0  0  0  0  0  0  0  0  0  0  0
  -26.1444  -13.6623   21.8306 C   0  0  0  0  0  0  0  0  0  0  0  0
  -21.9151  -29.5849   26.4353 C   0  0  0  0  0  0  0  0  0  0  0  0
  -19.5291  -30.3415   26.7941 C   0  0  0  0  0  0  0  0  0  0  0  0
  -20.1213  -29.1391   24.7122 C   0  0  0  0  0  0  0  0  0  0  0  0
  -24.9016  -14.0395   21.0152 C   0  0  1  0  0  0  0  0  0  0  0  0
  -25.7059  -17.1299   18.9571 C   0  0  1  0  0  0  0  0  0  0  0  0
  -21.4179  -28.6160   25.3486 C   0  0  1  0  0  0  0  0  0  0  0  0
  -31.2617  -22.4623   18.1197 C   0  0  0  0  0  0  0  0  0  0  0  0
  -28.6876  -18.0733   22.3601 C   0  0  0  0  0  0  0  0  0  0  0  0
  -30.2281  -20.0017   21.9406 C   0  0  0  0  0  0  0  0  0  0  0  0
  -30.5917  -17.8367   20.7561 C   0  0  0  0  0  0  0  0  0  0  0  0
  -15.9884  -27.8912   24.3323 C   0  0  0  0  0  0  0  0  0  0  0  0
  -21.2926  -27.4403   19.4275 C   0  0  0  0  0  0  0  0  0  0  0  0
  -28.1279  -22.0938   15.9939 C   0  0  0  0  0  0  0  0  0  0  0  0
  -21.3546  -24.2205   20.5048 C   0  0  0  0  0  0  0  0  0  0  0  0
  -22.0344  -25.5346   20.8650 C   0  0  0  0  0  0  0  0  0  0  0  0
  -22.2664  -23.0127   20.6840 C   0  0  0  0  0  0  0  0  0  1  0  0
  -28.6420  -19.3019   20.0897 C   0  0  1  0  0  0  0  0  0  0  0  0
  -30.0474  -21.7432   17.5531 C   0  0  2  0  0  0  0  0  0  0  0  0
  -19.0671  -25.9169   25.0436 C   0  0  0  0  0  0  0  0  0  0  0  0
  -29.5096  -18.8055   21.2807 C   0  0  0  0  0  0  0  0  0  0  0  0
  -22.9477  -29.3558   23.5612 N   0  0  0  0  0  0  0  0  0  0  0  0
  -22.4836  -28.3372   24.3050 N   0  0  0  0  0  0  0  0  0  0  0  0
  -26.4937  -18.2772   19.4123 N   0  0  0  0  0  0  0  0  0  0  0  0
  -19.1032  -29.4263   25.7345 N   0  0  0  0  0  0  0  0  0  0  0  0
  -22.7062  -26.0066   24.6649 N   0  0  0  0  0  0  0  0  0  0  0  0
  -25.6669  -26.8375   21.3574 N   0  0  0  0  0  0  0  0  0  0  0  0
  -25.2481  -14.9810   19.9721 N   0  0  0  0  0  0  0  0  0  0  0  0
  -29.3982  -19.9752   19.0394 N   0  0  0  0  0  0  0  0  0  0  0  0
  -17.3954  -28.2447   24.5473 N   0  0  0  0  0  0  0  0  0  0  0  0
  -21.1729  -26.6675   20.6689 N   0  0  3  0  0  0  0  0  0  0  0  0
  -29.3312  -22.6782   16.6400 N   0  3  0  0  0  0  0  0  0  0  0  0
  -24.7715  -25.1969   22.6861 O   0  0  0  0  0  0  0  0  0  0  0  0
  -25.1253  -16.9321   21.2372 O   0  0  0  0  0  0  0  0  0  0  0  0
  -28.5246  -17.2499   18.9057 O   0  0  0  0  0  0  0  0  0  0  0  0
  -28.2390  -21.9812   19.1376 O   0  0  0  0  0  0  0  0  0  0  0  0
  -16.8716  -29.6830   26.2904 O   0  0  0  0  0  0  0  0  0  0  0  0
  -26.6962  -31.7915   19.0264 O   0  0  0  0  0  0  0  0  0  0  0  0
  -21.5396  -21.8336   20.3406 O   0  0  0  0  0  0  0  0  0  1  0  0
  -27.2236  -29.7373   13.9366 F   0  0  0  0  0  0  0  0  0  0  0  0
  -25.7184  -33.1637   16.8347 F   0  0  0  0  0  0  0  0  0  0  0  0
  -19.9310  -24.8616   25.0965 F   0  0  0  0  0  0  0  0  0  0  0  0
  -19.3176  -26.6423   26.1721 F   0  0  0  0  0  0  0  0  0  0  0  0
  -17.8236  -25.3843   25.2160 F   0  0  0  0  0  0  0  0  0  0  0  0
  1  2  1  0  0  0  0
  1  5  2  0  0  0  0
  2  6  2  0  0  0  0
  3 10  2  0  0  0  0
  3 18  1  0  0  0  0
  4 11  1  0  0  0  0
  4 18  2  0  0  0  0
  5 20  1  0  0  0  0
  6 22  1  0  0  0  0
  7 12  2  0  0  0  0
  7 21  1  0  0  0  0
  8  9  2  0  0  0  0
  8 25  1  0  0  0  0
  9 26  1  0  0  0  0
 10 27  1  0  0  0  0
 11 27  2  0  0  0  0
 12 28  1  0  0  0  0
 13 14  2  0  0  0  0
 13 29  1  0  0  0  0
 14 30  1  0  0  0  0
 15 23  1  0  0  0  0
 15 28  2  0  0  0  0
 16 24  1  0  0  0  0
 16 25  2  0  0  0  0
 17 30  2  0  0  0  0
 17 31  1  0  0  0  0
 18 32  1  0  0  0  0
 19 32  1  0  0  0  0
 19 33  2  0  0  0  0
 19 34  1  0  0  0  0
 20 22  2  0  0  0  0
 20 39  1  0  0  0  0
 21 23  2  0  0  0  0
 21 40  1  0  0  0  0
 22 48  1  0  0  0  0
 23 41  1  0  0  0  0
 24 26  2  0  0  0  0
 24 63  1  0  0  0  0
 25 74  1  0  0  0  0
 26 73  1  0  0  0  0
 27 81  1  0  0  0  0
 28 82  1  0  0  0  0
 29 31  2  0  0  0  0
 29 81  1  0  0  0  0
 30 83  1  0  0  0  0
 31 84  1  0  0  0  0
 32 65  2  0  0  0  0
 33 66  1  0  0  0  0
 33 69  1  0  0  0  0
 34 70  1  0  0  0  0
 34 76  2  0  0  0  0
 35 49  1  0  0  0  0
 35 71  1  0  0  0  0
 35 77  2  0  0  0  0
 36 61  1  0  0  0  0
 36 67  1  0  0  0  0
 36 78  2  0  0  0  0
 37 62  1  0  0  0  0
 37 72  1  0  0  0  0
 37 79  2  0  0  0  0
 38 68  1  0  0  0  0
 38 73  1  0  0  0  0
 38 80  2  0  0  0  0
 39 42  1  0  0  0  0
 40 49  1  0  0  0  0
 41 67  1  0  0  0  0
 42 44  1  0  0  0  0
 43 45  1  0  0  0  0
 43 46  1  0  0  0  0
 44 48  1  0  0  0  0
 45 50  1  0  0  0  0
 46 68  1  0  0  0  0
 47 50  1  0  0  0  0
 47 68  1  0  0  0  0
 48 71  1  0  0  0  0
 49 67  1  0  0  0  0
 50 66  1  0  0  0  0
 51 62  1  0  0  0  0
 52 64  1  0  0  0  0
 53 64  1  0  0  0  0
 54 64  1  0  0  0  0
 55 73  1  0  0  0  0
 56 74  1  0  0  0  0
 57 75  1  0  0  0  0
 58 59  1  0  0  0  0
 58 60  1  0  0  0  0
 59 74  1  0  0  0  0
 60 82  1  0  0  0  0
 61 64  1  0  0  0  0
 61 72  1  0  0  0  0
 62 75  1  0  0  0  0
 63 85  1  0  0  0  0
 63 86  1  0  0  0  0
 63 87  1  0  0  0  0
 65 66  1  0  0  0  0
M  CHG  1  75   1
M  ISO  4  38 100  60 101  73 100  82 101
M  END
> <Batch ID>
0018

> <Smiles>
CNC(C)C(=O)NC(C(=O)N1Cc2cc([101O:1][101CH2:1]CCN(C)c3ccc([100N:0](C)[100C:0](=O)N4CCCC(n5nc(-c6ccc(Oc7ccc(F)cc7F)cc6)c(C(N)=O)c5N)C4)c(C(F)(F)F)c3)ccc2CC1C(=O)NC1CCCc2ccccc21)C(C)(C)C

> <Shape>
0.192

> <Color>
0.084

> <Negative vol penalty>
0.000

$$$$

  -OEChem-04042321033D

 88 97  0     1  0  0  0  0  0999 V2000
  -16.3780  -28.2495   23.1357 C   0  0  0  0  0  0  0  0  0  0  0  0
  -17.3817  -28.3506   22.1777 C   0  0  0  0  0  0  0  0  0  0  0  0
  -26.3972  -12.8202   21.5043 C   0  0  0  0  0  0  0  0  0  0  0  0
  -25.8063  -13.9301   19.4413 C   0  0  0  0  0  0  0  0  0  0  0  0
  -16.5804  -28.7699   24.4132 C   0  0  0  0  0  0  0  0  0  0  0  0
  -18.5880  -28.9732   22.4964 C   0  0  0  0  0  0  0  0  0  0  0  0
  -22.6101  -26.3763   20.8459 C   0  0  0  0  0  0  0  0  0  0  0  0
  -27.3260  -23.2073   17.8298 C   0  0  0  0  0  0  0  0  0  0  0  0
  -26.6469  -24.1504   17.0585 C   0  0  0  0  0  0  0  0  0  0  0  0
  -25.1549  -12.1862   21.5191 C   0  0  0  0  0  0  0  0  0  0  0  0
  -24.5639  -13.2960   19.4561 C   0  0  0  0  0  0  0  0  0  0  0  0
  -22.9228  -26.4800   19.4912 C   0  0  0  0  0  0  0  0  0  0  0  0
  -23.6862   -9.5486   19.9962 C   0  0  0  0  0  0  0  0  0  0  0  0
  -23.6574   -8.1859   20.2923 C   0  0  0  0  0  0  0  0  0  0  0  0
  -24.6414  -28.0889   20.0173 C   0  0  0  0  0  0  0  0  0  0  0  0
  -28.9042  -24.9036   18.5147 C   0  0  0  0  0  0  0  0  0  0  0  0
  -22.2504   -8.6312   22.2052 C   0  0  0  0  0  0  0  0  0  0  0  0
  -26.7229  -13.6922   20.4655 C   0  0  0  0  0  0  0  0  0  0  0  0
  -29.2730  -13.7358   20.4145 C   0  0  0  0  0  0  0  0  0  0  0  0
  -17.7934  -29.3906   24.7507 C   0  0  0  0  0  0  0  0  0  0  0  0
  -23.3045  -27.1375   21.7970 C   0  0  0  0  0  0  0  0  0  0  0  0
  -18.8063  -29.5036   23.7793 C   0  0  0  0  0  0  0  0  0  0  0  0
  -24.3373  -27.9911   21.3837 C   0  0  0  0  0  0  0  0  0  0  0  0
  -28.4547  -23.5838   18.5579 C   0  0  0  0  0  0  0  0  0  0  0  0
  -27.0964  -25.4702   17.0153 C   0  0  0  0  0  0  0  0  0  0  0  0
  -24.2383  -12.4240   20.4950 C   0  0  0  0  0  0  0  0  0  0  0  0
  -23.9367  -27.3386   19.0764 C   0  0  0  0  0  0  0  0  0  0  0  0
  -22.9971  -10.4527   20.8046 C   0  0  0  0  0  0  0  0  0  0  0  0
  -22.9395   -7.7272   21.3967 C   0  0  0  0  0  0  0  0  0  0  0  0
  -28.2251  -25.8468   17.7434 C   0  0  0  0  0  0  0  0  0  0  0  0
  -22.2792   -9.9940   21.9091 C   0  0  0  0  0  0  0  0  0  0  0  0
  -28.0058  -14.3480   20.4500 C   0  0  0  0  0  0  0  0  0  0  0  0
  -30.1607  -14.7839   20.4131 C   0  0  0  0  0  0  0  0  0  0  0  0
  -29.6169  -12.3442   20.3852 C   0  0  0  0  0  0  0  0  0  0  0  0
  -22.4977  -29.3872   23.8927 C   0  0  0  0  0  0  0  0  0  0  0  0
  -25.5852  -29.0681   24.8350 C   0  0  0  0  0  0  0  0  0  0  0  0
  -28.7736  -28.1404   24.0474 C   0  0  0  0  0  0  0  0  0  0  0  0
  -29.8565  -20.2738   18.5759 C   0  0  0  0  0  0  0  0  0  0  0  0
  -17.9481  -29.9800   26.1303 C   0  0  0  0  0  0  0  0  0  0  0  0
  -22.9731  -26.9942   23.2572 C   0  0  0  0  0  0  0  0  0  0  0  0
  -25.1266  -28.8149   22.3670 C   0  0  0  0  0  0  0  0  0  0  0  0
  -19.3958  -30.2918   26.5007 C   0  0  0  0  0  0  0  0  0  0  0  0
  -30.6344  -19.3040   21.8814 C   0  0  0  0  0  0  0  0  0  0  0  0
  -26.2262  -27.8906   14.4452 C   0  0  0  0  0  0  0  0  0  0  0  0
  -20.0947  -31.0195   25.3566 C   0  0  0  0  0  0  0  0  0  0  0  0
  -30.1600  -17.8515   21.8901 C   0  0  0  0  0  0  0  0  0  0  0  0
  -24.8284  -27.5548   14.9340 C   0  0  0  0  0  0  0  0  0  0  0  0
  -27.1051  -27.5415   15.6401 C   0  0  0  0  0  0  0  0  0  0  0  0
  -29.6804  -20.2154   21.1071 C   0  0  0  0  0  0  0  0  0  0  0  0
  -28.9204  -18.2985   19.7395 C   0  0  0  0  0  0  0  0  0  0  0  0
  -20.1379  -30.1498   24.0943 C   0  0  1  0  0  0  0  0  0  0  0  0
  -23.3991  -28.2009   24.0878 C   0  0  1  0  0  0  0  0  0  0  0  0
  -29.8924  -17.3515   20.4599 C   0  0  2  0  0  0  0  0  0  0  0  0
  -25.0299  -26.2947   15.7937 C   0  0  2  0  0  0  0  0  0  0  0  0
  -32.9396  -22.2250   18.8087 C   0  0  0  0  0  0  0  0  0  0  0  0
  -31.0882  -28.0307   25.0107 C   0  0  0  0  0  0  0  0  0  0  0  0
  -25.8771  -32.0834   24.4705 C   0  0  0  0  0  0  0  0  0  0  0  0
  -28.3617  -31.7775   24.5112 C   0  0  0  0  0  0  0  0  0  0  0  0
  -26.9985  -31.1655   26.5087 C   0  0  0  0  0  0  0  0  0  0  0  0
  -28.8904  -25.1998   23.7333 C   0  0  0  0  0  0  0  0  0  0  0  0
  -29.1807  -22.5755   19.3826 C   0  0  0  0  0  0  0  0  0  0  0  0
  -24.0305  -26.2860   16.9459 C   0  0  0  0  0  0  0  0  0  1  0  0
  -31.9476  -23.0951   18.0495 C   0  0  0  0  0  0  0  0  0  0  0  0
  -30.7627  -22.3035   17.5093 C   0  0  0  0  0  0  0  0  0  0  0  0
  -26.8942  -29.7104   24.4438 C   0  0  1  0  0  0  0  0  0  0  0  0
  -29.7842  -27.2813   24.7857 C   0  0  2  0  0  0  0  0  0  0  0  0
  -27.0169  -31.1703   24.9646 C   0  0  0  0  0  0  0  0  0  0  0  0
  -28.0777  -15.6815   20.4699 N   0  0  0  0  0  0  0  0  0  0  0  0
  -29.4008  -15.9160   20.4469 N   0  0  0  0  0  0  0  0  0  0  0  0
  -26.4225  -26.4019   16.2511 N   0  0  3  0  0  0  0  0  0  0  0  0
  -24.7608  -28.6447   23.7829 N   0  0  0  0  0  0  0  0  0  0  0  0
  -29.4148  -19.6772   19.7660 N   0  0  0  0  0  0  0  0  0  0  0  0
  -31.5093  -14.8383   20.3864 N   0  0  0  0  0  0  0  0  0  0  0  0
  -28.5814  -11.3998   20.3911 N   0  0  0  0  0  0  0  0  0  0  0  0
  -21.1741  -29.1458   24.2076 N   0  0  0  0  0  0  0  0  0  0  0  0
  -27.9452  -28.8166   24.9179 N   0  0  0  0  0  0  0  0  0  0  0  0
  -29.9898  -21.6704   18.5687 N   0  0  0  0  0  0  0  0  0  0  0  0
  -30.0806  -26.0456   24.0071 N   0  3  0  0  0  0  0  0  0  0  0  0
  -30.8076  -11.9497   20.3713 O   0  0  0  0  0  0  0  0  0  0  0  0
  -22.9685  -30.4437   23.4880 O   0  0  0  0  0  0  0  0  0  0  0  0
  -25.3077  -28.9400   26.0301 O   0  0  0  0  0  0  0  0  0  0  0  0
  -28.7263  -28.2079   22.8211 O   0  0  0  0  0  0  0  0  0  0  0  0
  -30.1104  -19.5974   17.5709 O   0  0  0  0  0  0  0  0  0  0  0  0
  -23.0260  -11.8053   20.5089 O   0  0  0  0  0  0  0  0  0  0  0  0
  -24.2435  -27.4422   17.7547 O   0  0  0  0  0  0  0  0  0  1  0  0
  -22.9107   -6.4183   21.6800 F   0  0  0  0  0  0  0  0  0  0  0  0
  -28.6657  -27.1125   17.7092 F   0  0  0  0  0  0  0  0  0  0  0  0
  -21.6143  -10.8576   22.6888 F   0  0  0  0  0  0  0  0  0  0  0  0
  1  2  1  0  0  0  0
  1  5  2  0  0  0  0
  2  6  2  0  0  0  0
  3 10  2  0  0  0  0
  3 18  1  0  0  0  0
  4 11  1  0  0  0  0
  4 18  2  0  0  0  0
  5 20  1  0  0  0  0
  6 22  1  0  0  0  0
  7 12  2  0  0  0  0
  7 21  1  0  0  0  0
  8  9  2  0  0  0  0
  8 24  1  0  0  0  0
  9 25  1  0  0  0  0
 10 26  1  0  0  0  0
 11 26  2  0  0  0  0
 12 27  1  0  0  0  0
 13 14  2  0  0  0  0
 13 28  1  0  0  0  0
 14 29  1  0  0  0  0
 15 23  1  0  0  0  0
 15 27  2  0  0  0  0
 16 24  2  0  0  0  0
 16 30  1  0  0  0  0
 17 29  2  0  0  0  0
 17 31  1  0  0  0  0
 18 32  1  0  0  0  0
 19 32  1  0  0  0  0
 19 33  2  0  0  0  0
 19 34  1  0  0  0  0
 20 22  2  0  0  0  0
 20 39  1  0  0  0  0
 21 23  2  0  0  0  0
 21 40  1  0  0  0  0
 22 51  1  0  0  0  0
 23 41  1  0  0  0  0
 24 61  1  0  0  0  0
 25 30  2  0  0  0  0
 25 70  1  0  0  0  0
 26 84  1  0  0  0  0
 27 85  1  0  0  0  0
 28 31  2  0  0  0  0
 28 84  1  0  0  0  0
 29 86  1  0  0  0  0
 30 87  1  0  0  0  0
 31 88  1  0  0  0  0
 32 68  2  0  0  0  0
 33 69  1  0  0  0  0
 33 73  1  0  0  0  0
 34 74  1  0  0  0  0
 34 79  2  0  0  0  0
 35 52  1  0  0  0  0
 35 75  1  0  0  0  0
 35 80  2  0  0  0  0
 36 65  1  0  0  0  0
 36 71  1  0  0  0  0
 36 81  2  0  0  0  0
 37 66  1  0  0  0  0
 37 76  1  0  0  0  0
 37 82  2  0  0  0  0
 38 72  1  0  0  0  0
 38 77  1  0  0  0  0
 38 83  2  0  0  0  0
 39 42  1  0  0  0  0
 40 52  1  0  0  0  0
 41 71  1  0  0  0  0
 42 45  1  0  0  0  0
 43 46  1  0  0  0  0
 43 49  1  0  0  0  0
 44 47  1  0  0  0  0
 44 48  1  0  0  0  0
 45 51  1  0  0  0  0
 46 53  1  0  0  0  0
 47 54  1  0  0  0  0
 48 70  1  0  0  0  0
 49 72  1  0  0  0  0
 50 53  1  0  0  0  0
 50 72  1  0  0  0  0
 51 75  1  0  0  0  0
 52 71  1  0  0  0  0
 53 69  1  0  0  0  0
 54 62  1  0  0  0  0
 54 70  1  0  0  0  0
 55 63  1  0  0  0  0
 56 66  1  0  0  0  0
 57 67  1  0  0  0  0
 58 67  1  0  0  0  0
 59 67  1  0  0  0  0
 60 78  1  0  0  0  0
 61 77  1  0  0  0  0
 62 85  1  0  0  0  0
 63 64  1  0  0  0  0
 64 77  1  0  0  0  0
 65 67  1  0  0  0  0
 65 76  1  0  0  0  0
 66 78  1  0  0  0  0
 68 69  1  0  0  0  0
M  CHG  1  78   1
M  ISO  4  38 100  62 101  77 100  85 101
M  END
> <Batch ID>
0018

> <Smiles>
CCC[100N:0](Cc1ccc(N2CCCC2[101CH2:1][101O:1]c2ccc3c(c2)CN(C(=O)C(NC(=O)C(C)NC)C(C)(C)C)C(C(=O)NC2CCCc4ccccc42)C3)c(F)c1)[100C:0](=O)N1CCCC(n2nc(-c3ccc(Oc4ccc(F)cc4F)cc3)c(C(N)=O)c2N)C1

> <Shape>
0.286

> <Color>
0.081

> <Negative vol penalty>
0.000

$$$$

  -OEChem-04042321033D

 87 96  0     1  0  0  0  0  0999 V2000
  -25.1327  -27.8630   13.6210 C   0  0  0  0  0  0  0  0  0  0  0  0
  -24.5855  -27.8481   14.9000 C   0  0  0  0  0  0  0  0  0  0  0  0
  -24.0303  -14.6474   20.9065 C   0  0  0  0  0  0  0  0  0  0  0  0
  -26.0692  -14.7253   19.6127 C   0  0  0  0  0  0  0  0  0  0  0  0
  -26.4464  -27.4410   13.4211 C   0  0  0  0  0  0  0  0  0  0  0  0
  -25.3514  -27.4100   15.9797 C   0  0  0  0  0  0  0  0  0  0  0  0
  -24.9232  -30.4338   20.0193 C   0  0  0  0  0  0  0  0  0  0  0  0
  -23.4748  -25.5037   22.6831 C   0  0  0  0  0  0  0  0  0  0  0  0
  -24.2376  -24.3585   22.4546 C   0  0  0  0  0  0  0  0  0  0  0  0
  -24.2782  -13.3102   21.2167 C   0  0  0  0  0  0  0  0  0  0  0  0
  -26.3171  -13.3882   19.9229 C   0  0  0  0  0  0  0  0  0  0  0  0
  -23.7709  -30.3032   20.7930 C   0  0  0  0  0  0  0  0  0  0  0  0
  -23.9633  -10.3034   19.7055 C   0  0  0  0  0  0  0  0  0  0  0  0
  -22.8991   -9.4073   19.6045 C   0  0  0  0  0  0  0  0  0  0  0  0
  -24.9978  -28.9683   22.3842 C   0  0  0  0  0  0  0  0  0  0  0  0
  -22.3663  -24.3983   24.5233 C   0  0  0  0  0  0  0  0  0  0  0  0
  -23.1244   -8.8755   21.9505 C   0  0  0  0  0  0  0  0  0  0  0  0
  -24.9257  -15.3549   20.1044 C   0  0  0  0  0  0  0  0  0  0  0  0
  -23.5537  -17.2577   19.1022 C   0  0  0  0  0  0  0  0  0  0  0  0
  -27.2320  -27.0066   14.5004 C   0  0  0  0  0  0  0  0  0  0  0  0
  -26.1209  -29.8224   20.4173 C   0  0  0  0  0  0  0  0  0  0  0  0
  -26.6764  -26.9804   15.7939 C   0  0  0  0  0  0  0  0  0  0  0  0
  -26.1646  -29.0947   21.6150 C   0  0  0  0  0  0  0  0  0  0  0  0
  -22.5392  -25.5236   23.7175 C   0  0  0  0  0  0  0  0  0  0  0  0
  -24.0647  -23.2331   23.2605 C   0  0  0  0  0  0  0  0  0  0  0  0
  -25.4216  -12.6806   20.7250 C   0  0  0  0  0  0  0  0  0  0  0  0
  -23.8073  -29.5680   21.9742 C   0  0  0  0  0  0  0  0  0  0  0  0
  -24.6082  -10.4854   20.9289 C   0  0  0  0  0  0  0  0  0  0  0  0
  -22.4796   -8.6934   20.7271 C   0  0  0  0  0  0  0  0  0  0  0  0
  -23.1291  -23.2530   24.2948 C   0  0  0  0  0  0  0  0  0  0  0  0
  -24.1887   -9.7716   22.0514 C   0  0  0  0  0  0  0  0  0  0  0  0
  -24.6699  -16.7360   19.7832 C   0  0  0  0  0  0  0  0  0  0  0  0
  -23.7839  -18.6108   19.0516 C   0  0  0  0  0  0  0  0  0  0  0  0
  -22.4108  -16.5798   18.5637 C   0  0  0  0  0  0  0  0  0  0  0  0
  -28.0221  -27.5960   19.1796 C   0  0  0  0  0  0  0  0  0  0  0  0
  -29.9200  -28.3740   21.6926 C   0  0  0  0  0  0  0  0  0  0  0  0
  -30.1751  -29.6786   24.8358 C   0  0  0  0  0  0  0  0  0  0  0  0
  -27.3876  -21.9976   22.6684 C   0  0  0  0  0  0  0  0  0  0  0  0
  -28.6316  -26.5150   14.2280 C   0  0  0  0  0  0  0  0  0  0  0  0
  -27.3619  -29.9951   19.5851 C   0  0  0  0  0  0  0  0  0  0  0  0
  -27.4304  -28.4359   22.0969 C   0  0  0  0  0  0  0  0  0  0  0  0
  -29.4982  -26.4195   15.4811 C   0  0  0  0  0  0  0  0  0  0  0  0
  -27.3255  -21.8180   18.9717 C   0  0  0  0  0  0  0  0  0  0  0  0
  -18.4741  -27.2734   22.7087 C   0  0  0  0  0  0  0  0  0  0  0  0
  -28.7328  -25.7341   16.6085 C   0  0  0  0  0  0  0  0  0  0  0  0
  -26.6021  -20.4971   18.7145 C   0  0  0  0  0  0  0  0  0  0  0  0
  -19.0567  -28.5626   22.1643 C   0  0  0  0  0  0  0  0  0  0  0  0
  -28.0691  -21.8074   20.3038 C   0  0  0  0  0  0  0  0  0  0  0  0
  -26.4889  -20.1363   21.2120 C   0  0  0  0  0  0  0  0  0  0  0  0
  -19.6288  -26.2940   22.6226 C   0  0  0  0  0  0  0  0  0  0  0  0
  -27.4836  -26.5355   16.9941 C   0  0  1  0  0  0  0  0  0  0  0  0
  -28.3979  -28.9008   19.8231 C   0  0  1  0  0  0  0  0  0  0  0  0
  -25.6914  -20.1307   19.8992 C   0  0  2  0  0  0  0  0  0  0  0  0
  -20.4374  -28.6023   22.8023 C   0  0  2  0  0  0  0  0  0  0  0  0
  -31.8506  -30.1468   26.6443 C   0  0  0  0  0  0  0  0  0  0  0  0
  -29.9629  -25.4102   22.4168 C   0  0  0  0  0  0  0  0  0  0  0  0
  -30.8138  -26.0478   24.6834 C   0  0  0  0  0  0  0  0  0  0  0  0
  -32.1640  -26.5738   22.6529 C   0  0  0  0  0  0  0  0  0  0  0  0
  -26.4082  -22.7655   24.7969 C   0  0  0  0  0  0  0  0  0  0  0  0
  -29.6425  -32.5882   24.7364 C   0  0  0  0  0  0  0  0  0  0  0  0
  -24.8809  -22.0096   23.0131 C   0  0  0  0  0  0  0  0  0  0  0  0
  -21.7184  -26.7553   23.9630 C   0  0  0  0  0  0  0  0  0  0  0  0
  -21.4324  -29.4626   22.0454 C   0  0  0  0  0  0  0  0  0  1  0  0
  -30.0580  -27.8935   23.1170 C   0  0  1  0  0  0  0  0  0  0  0  0
  -31.1273  -30.7022   25.4273 C   0  0  2  0  0  0  0  0  0  0  0  0
  -30.7252  -26.4920   23.2077 C   0  0  0  0  0  0  0  0  0  0  0  0
  -25.5444  -17.6806   20.1394 N   0  0  0  0  0  0  0  0  0  0  0  0
  -24.9777  -18.8095   19.6805 N   0  0  0  0  0  0  0  0  0  0  0  0
  -28.6158  -28.6283   21.2452 N   0  0  0  0  0  0  0  0  0  0  0  0
  -27.1906  -21.4140   21.4060 N   0  0  0  0  0  0  0  0  0  0  0  0
  -23.0797  -19.6381   18.5308 N   0  0  0  0  0  0  0  0  0  0  0  0
  -22.4672  -16.1234   17.2397 N   0  0  0  0  0  0  0  0  0  0  0  0
  -27.8457  -27.6738   17.8112 N   0  0  0  0  0  0  0  0  0  0  0  0
  -30.7733  -28.9433   23.8344 N   0  0  0  0  0  0  0  0  0  0  0  0
  -26.2567  -22.1550   23.4838 N   0  0  0  0  0  0  0  0  0  0  0  0
  -20.8772  -27.1446   22.7858 N   0  3  1  0  0  0  0  0  0  0  0  0
  -30.3820  -31.9247   25.8409 N   0  3  0  0  0  0  0  0  0  0  0  0
  -21.3644  -16.3990   19.2313 O   0  0  0  0  0  0  0  0  0  0  0  0
  -27.9027  -26.5927   19.8729 O   0  0  0  0  0  0  0  0  0  0  0  0
  -30.9326  -28.5251   21.0045 O   0  0  0  0  0  0  0  0  0  0  0  0
  -29.0175  -29.5422   25.2257 O   0  0  0  0  0  0  0  0  0  0  0  0
  -28.5088  -22.3661   23.0413 O   0  0  0  0  0  0  0  0  0  0  0  0
  -25.6640  -11.3760   21.0277 O   0  0  0  0  0  0  0  0  0  0  0  0
  -22.6837  -29.4384   22.7310 O   0  0  0  0  0  0  0  0  0  1  0  0
  -21.4567   -7.8342   20.6303 F   0  0  0  0  0  0  0  0  0  0  0  0
  -22.9553  -22.1761   25.0737 F   0  0  0  0  0  0  0  0  0  0  0  0
  -24.8035   -9.9431   23.2297 F   0  0  0  0  0  0  0  0  0  0  0  0
  1  2  1  0  0  0  0
  1  5  2  0  0  0  0
  2  6  2  0  0  0  0
  3 10  2  0  0  0  0
  3 18  1  0  0  0  0
  4 11  1  0  0  0  0
  4 18  2  0  0  0  0
  5 20  1  0  0  0  0
  6 22  1  0  0  0  0
  7 12  2  0  0  0  0
  7 21  1  0  0  0  0
  8  9  2  0  0  0  0
  8 24  1  0  0  0  0
  9 25  1  0  0  0  0
 10 26  1  0  0  0  0
 11 26  2  0  0  0  0
 12 27  1  0  0  0  0
 13 14  2  0  0  0  0
 13 28  1  0  0  0  0
 14 29  1  0  0  0  0
 15 23  1  0  0  0  0
 15 27  2  0  0  0  0
 16 24  2  0  0  0  0
 16 30  1  0  0  0  0
 17 29  2  0  0  0  0
 17 31  1  0  0  0  0
 18 32  1  0  0  0  0
 19 32  1  0  0  0  0
 19 33  2  0  0  0  0
 19 34  1  0  0  0  0
 20 22  2  0  0  0  0
 20 39  1  0  0  0  0
 21 23  2  0  0  0  0
 21 40  1  0  0  0  0
 22 51  1  0  0  0  0
 23 41  1  0  0  0  0
 24 62  1  0  0  0  0
 25 30  2  0  0  0  0
 25 61  1  0  0  0  0
 26 83  1  0  0  0  0
 27 84  1  0  0  0  0
 28 31  2  0  0  0  0
 28 83  1  0  0  0  0
 29 85  1  0  0  0  0
 30 86  1  0  0  0  0
 31 87  1  0  0  0  0
 32 67  2  0  0  0  0
 33 68  1  0  0  0  0
 33 71  1  0  0  0  0
 34 72  1  0  0  0  0
 34 78  2  0  0  0  0
 35 52  1  0  0  0  0
 35 73  1  0  0  0  0
 35 79  2  0  0  0  0
 36 64  1  0  0  0  0
 36 69  1  0  0  0  0
 36 80  2  0  0  0  0
 37 65  1  0  0  0  0
 37 74  1  0  0  0  0
 37 81  2  0  0  0  0
 38 70  1  0  0  0  0
 38 75  1  0  0  0  0
 38 82  2  0  0  0  0
 39 42  1  0  0  0  0
 40 52  1  0  0  0  0
 41 69  1  0  0  0  0
 42 45  1  0  0  0  0
 43 46  1  0  0  0  0
 43 48  1  0  0  0  0
 44 47  1  0  0  0  0
 44 50  1  0  0  0  0
 45 51  1  0  0  0  0
 46 53  1  0  0  0  0
 47 54  1  0  0  0  0
 48 70  1  0  0  0  0
 49 53  1  0  0  0  0
 49 70  1  0  0  0  0
 50 76  1  0  0  0  0
 51 73  1  0  0  0  0
 52 69  1  0  0  0  0
 53 68  1  0  0  0  0
 54 63  1  0  0  0  0
 54 76  1  0  0  0  0
 55 65  1  0  0  0  0
 56 66  1  0  0  0  0
 57 66  1  0  0  0  0
 58 66  1  0  0  0  0
 59 75  1  0  0  0  0
 60 77  1  0  0  0  0
 61 75  1  0  0  0  0
 62 76  1  0  0  0  0
 63 84  1  0  0  0  0
 64 66  1  0  0  0  0
 64 74  1  0  0  0  0
 65 77  1  0  0  0  0
 67 68  1  0  0  0  0
M  CHG  2  76   1  77   1
M  ISO  4  38 100  63 101  75 100  84 101
M  END
> <Batch ID>
0018

> <Smiles>
CNC(C)C(=O)NC(C(=O)N1Cc2cc([101O:1][101CH2:1]C3CCCN3Cc3ccc(C[100N:0](C)[100C:0](=O)N4CCCC(n5nc(-c6ccc(Oc7ccc(F)cc7F)cc6)c(C(N)=O)c5N)C4)c(F)c3)ccc2CC1C(=O)NC1CCCc2ccccc21)C(C)(C)C

> <Shape>
0.197

> <Color>
0.083

> <Negative vol penalty>
0.000

$$$$

  -OEChem-04042321033D

 85 93  0     1  0  0  0  0  0999 V2000
  -30.6920  -19.1927   17.3381 C   0  0  0  0  0  0  0  0  0  0  0  0
  -30.1097  -19.3150   18.5957 C   0  0  0  0  0  0  0  0  0  0  0  0
  -22.4994  -27.5471   21.6016 C   0  0  0  0  0  0  0  0  0  0  0  0
  -23.8215  -28.9481   23.0597 C   0  0  0  0  0  0  0  0  0  0  0  0
  -25.0726  -21.1797   22.5874 C   0  0  0  0  0  0  0  0  0  0  0  0
  -30.1318  -18.3353   16.3922 C   0  0  0  0  0  0  0  0  0  0  0  0
  -28.9661  -18.5806   18.9076 C   0  0  0  0  0  0  0  0  0  0  0  0
  -29.2198  -16.4436   23.4917 C   0  0  0  0  0  0  0  0  0  0  0  0
  -21.4173  -27.6598   22.4744 C   0  0  0  0  0  0  0  0  0  0  0  0
  -22.7393  -29.0609   23.9326 C   0  0  0  0  0  0  0  0  0  0  0  0
  -28.9827  -17.2665   24.5918 C   0  0  0  0  0  0  0  0  0  0  0  0
  -19.0257  -29.9387   23.1956 C   0  0  0  0  0  0  0  0  0  0  0  0
  -24.4136  -21.4714   21.3932 C   0  0  0  0  0  0  0  0  0  0  0  0
  -17.7709  -30.1947   22.6428 C   0  0  0  0  0  0  0  0  0  0  0  0
  -27.1947  -21.6430   21.5297 C   0  0  0  0  0  0  0  0  0  0  0  0
  -26.7273  -16.4219   24.7299 C   0  0  0  0  0  0  0  0  0  0  0  0
  -16.9352  -28.1327   23.5845 C   0  0  0  0  0  0  0  0  0  0  0  0
  -23.7016  -28.1912   21.8943 C   0  0  0  0  0  0  0  0  0  0  0  0
  -26.4631  -21.2656   22.6557 C   0  0  0  0  0  0  0  0  0  0  0  0
  -25.1276  -28.9155   19.9069 C   0  0  0  0  0  0  0  0  0  0  0  0
  -28.9863  -17.5828   16.6959 C   0  0  0  0  0  0  0  0  0  0  0  0
  -28.2074  -15.6103   22.9948 C   0  0  0  0  0  0  0  0  0  0  0  0
  -28.3892  -17.7133   17.9643 C   0  0  0  0  0  0  0  0  0  0  0  0
  -26.9550  -15.5874   23.6249 C   0  0  0  0  0  0  0  0  0  0  0  0
  -26.5358  -21.9346   20.3354 C   0  0  0  0  0  0  0  0  0  0  0  0
  -21.5372  -28.4167   23.6399 C   0  0  0  0  0  0  0  0  0  0  0  0
  -27.7354  -17.2579   25.2093 C   0  0  0  0  0  0  0  0  0  0  0  0
  -19.2353  -28.7796   23.9428 C   0  0  0  0  0  0  0  0  0  0  0  0
  -16.7257  -29.2918   22.8373 C   0  0  0  0  0  0  0  0  0  0  0  0
  -25.1452  -21.8488   20.2671 C   0  0  0  0  0  0  0  0  0  0  0  0
  -18.1901  -27.8766   24.1373 C   0  0  0  0  0  0  0  0  0  0  0  0
  -24.8200  -28.0747   20.9933 C   0  0  0  0  0  0  0  0  0  0  0  0
  -26.2776  -28.3839   19.3763 C   0  0  0  0  0  0  0  0  0  0  0  0
  -27.1646  -20.9552   23.9280 C   0  0  0  0  0  0  0  0  0  0  0  0
  -24.4358  -30.0734   19.4209 C   0  0  0  0  0  0  0  0  0  0  0  0
  -26.6471  -15.3766   20.2353 C   0  0  0  0  0  0  0  0  0  0  0  0
  -25.3765  -12.7351   21.6247 C   0  0  0  0  0  0  0  0  0  0  0  0
  -24.5942  -11.0633   24.4952 C   0  0  0  0  0  0  0  0  0  0  0  0
  -28.5226  -23.0108   19.2936 C   0  0  0  0  0  0  0  0  0  0  0  0
  -28.3894  -16.7048   15.6247 C   0  0  0  0  0  0  0  0  0  0  0  0
  -28.4874  -14.7088   21.8237 C   0  0  0  0  0  0  0  0  0  0  0  0
  -25.8408  -14.6960   23.1428 C   0  0  0  0  0  0  0  0  0  0  0  0
  -27.3943  -15.6795   16.1621 C   0  0  0  0  0  0  0  0  0  0  0  0
  -30.1646  -25.8863   20.5892 C   0  0  0  0  0  0  0  0  0  0  0  0
  -26.4224  -16.3382   17.1358 C   0  0  0  0  0  0  0  0  0  0  0  0
  -28.9960  -26.8589   20.7445 C   0  0  0  0  0  0  0  0  0  0  0  0
  -29.7758  -24.4583   20.9732 C   0  0  0  0  0  0  0  0  0  0  0  0
  -27.4088  -24.9232   20.4203 C   0  0  0  0  0  0  0  0  0  0  0  0
  -27.1626  -16.9148   18.3488 C   0  0  1  0  0  0  0  0  0  0  0  0
  -27.2238  -14.2795   21.0846 C   0  0  1  0  0  0  0  0  0  0  0  0
  -27.7547  -26.3561   19.9864 C   0  0  1  0  0  0  0  0  0  0  0  0
  -23.5278   -8.9437   25.3122 C   0  0  0  0  0  0  0  0  0  0  0  0
  -22.6204  -13.8801   20.9902 C   0  0  0  0  0  0  0  0  0  0  0  0
  -21.6451  -12.2531   22.6242 C   0  0  0  0  0  0  0  0  0  0  0  0
  -22.8427  -11.4197   20.6009 C   0  0  0  0  0  0  0  0  0  0  0  0
  -26.8996  -21.7862   17.8648 C   0  0  0  0  0  0  0  0  0  0  0  0
  -27.0861  -10.1873   25.8303 C   0  0  0  0  0  0  0  0  0  0  0  0
  -26.2053  -19.8712   27.1780 C   0  0  0  0  0  0  0  0  0  0  0  0
  -26.9834  -20.9254   26.4024 C   0  0  0  0  0  0  0  0  0  0  0  0
  -26.1640  -18.5232   26.4684 C   0  0  0  0  0  0  0  0  0  1  0  0
  -24.1692  -12.4565   22.4871 C   0  0  1  0  0  0  0  0  0  0  0  0
  -24.8295   -9.6248   24.9191 C   0  0  2  0  0  0  0  0  0  0  0  0
  -22.8395  -12.5207   21.6837 C   0  0  0  0  0  0  0  0  0  0  0  0
  -25.7031  -27.0842   21.1450 N   0  0  0  0  0  0  0  0  0  0  0  0
  -26.5770  -27.2992   20.1469 N   0  0  0  0  0  0  0  0  0  0  0  0
  -26.1617  -13.8376   21.9905 N   0  0  0  0  0  0  0  0  0  0  0  0
  -28.5640  -24.0374   20.2558 N   0  0  0  0  0  0  0  0  0  0  0  0
  -27.0517  -28.7433   18.3304 N   0  0  0  0  0  0  0  0  0  0  0  0
  -23.2704  -30.4824   20.0833 N   0  0  0  0  0  0  0  0  0  0  0  0
  -26.4355  -21.1573   25.0946 N   0  0  0  0  0  0  0  0  0  0  0  0
  -27.5148  -15.8595   19.2744 N   0  0  0  0  0  0  0  0  0  0  0  0
  -24.4161  -11.1715   23.1322 N   0  0  0  0  0  0  0  0  0  0  0  0
  -27.2954  -22.3244   19.1708 N   0  0  0  0  0  0  0  0  0  0  0  0
  -25.7574   -9.5732   26.0842 N   0  3  0  0  0  0  0  0  0  0  0  0
  -28.3288  -20.5655   23.8917 O   0  0  0  0  0  0  0  0  0  0  0  0
  -24.8301  -30.7164   18.4186 O   0  0  0  0  0  0  0  0  0  0  0  0
  -25.4992  -15.7560   20.4360 O   0  0  0  0  0  0  0  0  0  0  0  0
  -25.6182  -11.9973   20.6661 O   0  0  0  0  0  0  0  0  0  0  0  0
  -24.5672  -11.9972   25.2938 O   0  0  0  0  0  0  0  0  0  0  0  0
  -29.4981  -22.7454   18.5808 O   0  0  0  0  0  0  0  0  0  0  0  0
  -20.4814  -28.5272   24.4917 O   0  0  0  0  0  0  0  0  0  0  0  0
  -27.5011  -18.0606   26.2829 O   0  0  0  0  0  0  0  0  0  1  0  0
  -15.5204  -29.5386   22.3076 F   0  0  0  0  0  0  0  0  0  0  0  0
  -24.5013  -22.1269   19.1248 F   0  0  0  0  0  0  0  0  0  0  0  0
  -18.3850  -26.7620   24.8552 F   0  0  0  0  0  0  0  0  0  0  0  0
  1  2  1  0  0  0  0
  1  6  2  0  0  0  0
  2  7  2  0  0  0  0
  3  9  2  0  0  0  0
  3 18  1  0  0  0  0
  4 10  1  0  0  0  0
  4 18  2  0  0  0  0
  5 13  2  0  0  0  0
  5 19  1  0  0  0  0
  6 21  1  0  0  0  0
  7 23  1  0  0  0  0
  8 11  2  0  0  0  0
  8 22  1  0  0  0  0
  9 26  1  0  0  0  0
 10 26  2  0  0  0  0
 11 27  1  0  0  0  0
 12 14  2  0  0  0  0
 12 28  1  0  0  0  0
 13 30  1  0  0  0  0
 14 29  1  0  0  0  0
 15 19  2  0  0  0  0
 15 25  1  0  0  0  0
 16 24  1  0  0  0  0
 16 27  2  0  0  0  0
 17 29  2  0  0  0  0
 17 31  1  0  0  0  0
 18 32  1  0  0  0  0
 19 34  1  0  0  0  0
 20 32  1  0  0  0  0
 20 33  2  0  0  0  0
 20 35  1  0  0  0  0
 21 23  2  0  0  0  0
 21 40  1  0  0  0  0
 22 24  2  0  0  0  0
 22 41  1  0  0  0  0
 23 49  1  0  0  0  0
 24 42  1  0  0  0  0
 25 30  2  0  0  0  0
 25 73  1  0  0  0  0
 26 81  1  0  0  0  0
 27 82  1  0  0  0  0
 28 31  2  0  0  0  0
 28 81  1  0  0  0  0
 29 83  1  0  0  0  0
 30 84  1  0  0  0  0
 31 85  1  0  0  0  0
 32 64  2  0  0  0  0
 33 65  1  0  0  0  0
 33 68  1  0  0  0  0
 34 70  1  0  0  0  0
 34 75  2  0  0  0  0
 35 69  1  0  0  0  0
 35 76  2  0  0  0  0
 36 50  1  0  0  0  0
 36 71  1  0  0  0  0
 36 77  2  0  0  0  0
 37 61  1  0  0  0  0
 37 66  1  0  0  0  0
 37 78  2  0  0  0  0
 38 62  1  0  0  0  0
 38 72  1  0  0  0  0
 38 79  2  0  0  0  0
 39 67  1  0  0  0  0
 39 73  1  0  0  0  0
 39 80  2  0  0  0  0
 40 43  1  0  0  0  0
 41 50  1  0  0  0  0
 42 66  1  0  0  0  0
 43 45  1  0  0  0  0
 44 46  1  0  0  0  0
 44 47  1  0  0  0  0
 45 49  1  0  0  0  0
 46 51  1  0  0  0  0
 47 67  1  0  0  0  0
 48 51  1  0  0  0  0
 48 67  1  0  0  0  0
 49 71  1  0  0  0  0
 50 66  1  0  0  0  0
 51 65  1  0  0  0  0
 52 62  1  0  0  0  0
 53 63  1  0  0  0  0
 54 63  1  0  0  0  0
 55 63  1  0  0  0  0
 56 73  1  0  0  0  0
 57 74  1  0  0  0  0
 58 59  1  0  0  0  0
 58 60  1  0  0  0  0
 59 70  1  0  0  0  0
 60 82  1  0  0  0  0
 61 63  1  0  0  0  0
 61 72  1  0  0  0  0
 62 74  1  0  0  0  0
 64 65  1  0  0  0  0
M  CHG  1  74   1
M  ISO  4  39 100  60 101  73 100  82 101
M  END
> <Batch ID>
0018

> <Smiles>
CNC(C)C(=O)NC(C(=O)N1Cc2cc([101O:1][101CH2:1]CCNC(=O)c3ccc(F)c([100N:0](C)[100C:0](=O)N4CCCC(n5nc(-c6ccc(Oc7ccc(F)cc7F)cc6)c(C(N)=O)c5N)C4)c3)ccc2CC1C(=O)NC1CCCc2ccccc21)C(C)(C)C

> <Shape>
0.207

> <Color>
0.075

> <Negative vol penalty>
0.000

$$$$

  -OEChem-04042321033D

 84 92  0     1  0  0  0  0  0999 V2000
  -31.1800  -34.6630   21.6228 C   0  0  0  0  0  0  0  0  0  0  0  0
  -31.5701  -33.4139   22.0948 C   0  0  0  0  0  0  0  0  0  0  0  0
  -23.0804   -9.8615   19.9466 C   0  0  0  0  0  0  0  0  0  0  0  0
  -23.8315   -9.8839   22.2428 C   0  0  0  0  0  0  0  0  0  0  0  0
  -29.8351  -35.0297   21.6536 C   0  0  0  0  0  0  0  0  0  0  0  0
  -30.6158  -32.5311   22.5990 C   0  0  0  0  0  0  0  0  0  0  0  0
  -30.6405  -26.4245   22.1349 C   0  0  0  0  0  0  0  0  0  0  0  0
  -32.6311  -17.5228   23.4467 C   0  0  0  0  0  0  0  0  0  0  0  0
  -32.0461  -16.6326   22.5461 C   0  0  0  0  0  0  0  0  0  0  0  0
  -22.3376   -8.7086   20.2008 C   0  0  0  0  0  0  0  0  0  0  0  0
  -23.0886   -8.7310   22.4970 C   0  0  0  0  0  0  0  0  0  0  0  0
  -31.0332  -25.4184   23.0166 C   0  0  0  0  0  0  0  0  0  0  0  0
  -19.3852   -7.9158   21.6457 C   0  0  0  0  0  0  0  0  0  0  0  0
  -18.0802   -7.8643   21.1557 C   0  0  0  0  0  0  0  0  0  0  0  0
  -28.7466  -25.1722   23.7446 C   0  0  0  0  0  0  0  0  0  0  0  0
  -30.4453  -18.3742   24.0250 C   0  0  0  0  0  0  0  0  0  0  0  0
  -18.6484   -5.9141   19.8476 C   0  0  0  0  0  0  0  0  0  0  0  0
  -23.8274  -10.4491   20.9676 C   0  0  0  0  0  0  0  0  0  0  0  0
  -24.1654  -12.9741   20.8333 C   0  0  0  0  0  0  0  0  0  0  0  0
  -28.8626  -34.1472   22.1495 C   0  0  0  0  0  0  0  0  0  0  0  0
  -29.2973  -26.8202   22.0592 C   0  0  0  0  0  0  0  0  0  0  0  0
  -29.2569  -32.8868   22.6377 C   0  0  0  0  0  0  0  0  0  0  0  0
  -28.3390  -26.1818   22.8593 C   0  0  0  0  0  0  0  0  0  0  0  0
  -31.8307  -18.3935   24.1862 C   0  0  0  0  0  0  0  0  0  0  0  0
  -30.6607  -16.6133   22.3849 C   0  0  0  0  0  0  0  0  0  0  0  0
  -22.3417   -8.1434   21.4760 C   0  0  0  0  0  0  0  0  0  0  0  0
  -30.0866  -24.7941   23.8237 C   0  0  0  0  0  0  0  0  0  0  0  0
  -20.3218   -6.9665   21.2365 C   0  0  0  0  0  0  0  0  0  0  0  0
  -17.7118   -6.8635   20.2567 C   0  0  0  0  0  0  0  0  0  0  0  0
  -29.8603  -17.4841   23.1244 C   0  0  0  0  0  0  0  0  0  0  0  0
  -19.9533   -5.9657   20.3375 C   0  0  0  0  0  0  0  0  0  0  0  0
  -24.5954  -11.6398   20.7055 C   0  0  0  0  0  0  0  0  0  0  0  0
  -25.2576  -13.7233   20.4696 C   0  0  0  0  0  0  0  0  0  0  0  0
  -22.8924  -13.4903   21.2442 C   0  0  0  0  0  0  0  0  0  0  0  0
  -27.7217  -29.5259   22.6070 C   0  0  0  0  0  0  0  0  0  0  0  0
  -25.2117  -27.8484   21.4204 C   0  0  0  0  0  0  0  0  0  0  0  0
  -31.4536  -21.6295   24.8951 C   0  0  0  0  0  0  0  0  0  0  0  0
  -23.7848  -24.8074   20.8177 C   0  0  0  0  0  0  0  0  0  0  0  0
  -30.7213  -14.7795   20.6588 C   0  0  0  0  0  0  0  0  0  0  0  0
  -27.4271  -34.6063   22.2063 C   0  0  0  0  0  0  0  0  0  0  0  0
  -28.8857  -27.8886   21.0838 C   0  0  0  0  0  0  0  0  0  0  0  0
  -26.8812  -26.5557   22.8014 C   0  0  0  0  0  0  0  0  0  0  0  0
  -26.4310  -33.4677   22.4099 C   0  0  0  0  0  0  0  0  0  0  0  0
  -29.6201  -12.3492   18.3011 C   0  0  0  0  0  0  0  0  0  0  0  0
  -26.9032  -32.5380   23.5233 C   0  0  0  0  0  0  0  0  0  0  0  0
  -28.1793  -12.0578   18.7270 C   0  0  0  0  0  0  0  0  0  0  0  0
  -30.5302  -12.5870   19.5048 C   0  0  0  0  0  0  0  0  0  0  0  0
  -28.6167  -13.3166   20.8743 C   0  0  0  0  0  0  0  0  0  0  0  0
  -28.2480  -31.8919   23.1693 C   0  0  1  0  0  0  0  0  0  0  0  0
  -27.5721  -28.5671   21.4599 C   0  0  1  0  0  0  0  0  0  0  0  0
  -27.6487  -13.1344   19.6939 C   0  0  2  0  0  0  0  0  0  0  0  0
  -21.7121  -23.7571   19.8701 C   0  0  0  0  0  0  0  0  0  0  0  0
  -23.6831  -28.5823   23.9570 C   0  0  0  0  0  0  0  0  0  0  0  0
  -22.0412  -26.7739   23.4074 C   0  0  0  0  0  0  0  0  0  0  0  0
  -22.3345  -28.7039   21.8544 C   0  0  0  0  0  0  0  0  0  0  0  0
  -33.6450  -21.0610   23.8334 C   0  0  0  0  0  0  0  0  0  0  0  0
  -25.3188  -23.4043   18.7113 C   0  0  0  0  0  0  0  0  0  0  0  0
  -32.4602  -19.3525   25.1548 C   0  0  0  0  0  0  0  0  0  0  0  0
  -31.5931  -23.0194   24.3106 C   0  0  0  0  0  0  0  0  0  1  0  0
  -24.1503  -26.9516   22.0106 C   0  0  1  0  0  0  0  0  0  0  0  0
  -23.1268  -24.2317   19.5767 C   0  0  2  0  0  0  0  0  0  0  0  0
  -23.0800  -27.7470   22.8101 C   0  0  0  0  0  0  0  0  0  0  0  0
  -25.8621  -11.5436   20.2926 N   0  0  0  0  0  0  0  0  0  0  0  0
  -26.2372  -12.8270   20.1578 N   0  0  0  0  0  0  0  0  0  0  0  0
  -26.5293  -27.6104   21.8363 N   0  0  0  0  0  0  0  0  0  0  0  0
  -29.9661  -13.6222   20.3737 N   0  0  0  0  0  0  0  0  0  0  0  0
  -25.4660  -15.0546   20.3892 N   0  0  0  0  0  0  0  0  0  0  0  0
  -21.8808  -12.5814   21.5832 N   0  0  0  0  0  0  0  0  0  0  0  0
  -30.0692  -15.7084   21.4690 N   0  0  0  0  0  0  0  0  0  0  0  0
  -28.0568  -30.8112   22.2259 N   0  0  0  0  0  0  0  0  0  0  0  0
  -23.6109  -26.1727   20.9012 N   0  0  0  0  0  0  0  0  0  0  0  0
  -32.4785  -20.7185   24.6377 N   0  0  0  0  0  0  0  0  0  0  0  0
  -23.9134  -23.0751   19.0625 N   0  3  0  0  0  0  0  0  0  0  0  0
  -22.6538  -14.7208   21.2931 O   0  0  0  0  0  0  0  0  0  0  0  0
  -27.5447  -29.1294   23.7529 O   0  0  0  0  0  0  0  0  0  0  0  0
  -24.8846  -28.7231   20.6144 O   0  0  0  0  0  0  0  0  0  0  0  0
  -30.4545  -21.3683   25.5721 O   0  0  0  0  0  0  0  0  0  0  0  0
  -24.3892  -24.1147   21.6334 O   0  0  0  0  0  0  0  0  0  0  0  0
  -31.8519  -14.9473   20.1944 O   0  0  0  0  0  0  0  0  0  0  0  0
  -21.6167   -7.0185   21.7244 O   0  0  0  0  0  0  0  0  0  0  0  0
  -30.4674  -23.8122   24.6855 O   0  0  0  0  0  0  0  0  0  1  0  0
  -16.4582   -6.8132   19.7875 F   0  0  0  0  0  0  0  0  0  0  0  0
  -28.5278  -17.4753   22.9764 F   0  0  0  0  0  0  0  0  0  0  0  0
  -20.8484   -5.0502   19.9417 F   0  0  0  0  0  0  0  0  0  0  0  0
  1  2  1  0  0  0  0
  1  5  2  0  0  0  0
  2  6  2  0  0  0  0
  3 10  2  0  0  0  0
  3 18  1  0  0  0  0
  4 11  1  0  0  0  0
  4 18  2  0  0  0  0
  5 20  1  0  0  0  0
  6 22  1  0  0  0  0
  7 12  2  0  0  0  0
  7 21  1  0  0  0  0
  8  9  2  0  0  0  0
  8 24  1  0  0  0  0
  9 25  1  0  0  0  0
 10 26  1  0  0  0  0
 11 26  2  0  0  0  0
 12 27  1  0  0  0  0
 13 14  2  0  0  0  0
 13 28  1  0  0  0  0
 14 29  1  0  0  0  0
 15 23  1  0  0  0  0
 15 27  2  0  0  0  0
 16 24  2  0  0  0  0
 16 30  1  0  0  0  0
 17 29  2  0  0  0  0
 17 31  1  0  0  0  0
 18 32  1  0  0  0  0
 19 32  1  0  0  0  0
 19 33  2  0  0  0  0
 19 34  1  0  0  0  0
 20 22  2  0  0  0  0
 20 40  1  0  0  0  0
 21 23  2  0  0  0  0
 21 41  1  0  0  0  0
 22 49  1  0  0  0  0
 23 42  1  0  0  0  0
 24 58  1  0  0  0  0
 25 30  2  0  0  0  0
 25 69  1  0  0  0  0
 26 80  1  0  0  0  0
 27 81  1  0  0  0  0
 28 31  2  0  0  0  0
 28 80  1  0  0  0  0
 29 82  1  0  0  0  0
 30 83  1  0  0  0  0
 31 84  1  0  0  0  0
 32 63  2  0  0  0  0
 33 64  1  0  0  0  0
 33 67  1  0  0  0  0
 34 68  1  0  0  0  0
 34 74  2  0  0  0  0
 35 50  1  0  0  0  0
 35 70  1  0  0  0  0
 35 75  2  0  0  0  0
 36 60  1  0  0  0  0
 36 65  1  0  0  0  0
 36 76  2  0  0  0  0
 37 59  1  0  0  0  0
 37 72  1  0  0  0  0
 37 77  2  0  0  0  0
 38 61  1  0  0  0  0
 38 71  1  0  0  0  0
 38 78  2  0  0  0  0
 39 66  1  0  0  0  0
 39 69  1  0  0  0  0
 39 79  2  0  0  0  0
 40 43  1  0  0  0  0
 41 50  1  0  0  0  0
 42 65  1  0  0  0  0
 43 45  1  0  0  0  0
 44 46  1  0  0  0  0
 44 47  1  0  0  0  0
 45 49  1  0  0  0  0
 46 51  1  0  0  0  0
 47 66  1  0  0  0  0
 48 51  1  0  0  0  0
 48 66  1  0  0  0  0
 49 70  1  0  0  0  0
 50 65  1  0  0  0  0
 51 64  1  0  0  0  0
 52 61  1  0  0  0  0
 53 62  1  0  0  0  0
 54 62  1  0  0  0  0
 55 62  1  0  0  0  0
 56 72  1  0  0  0  0
 57 73  1  0  0  0  0
 58 72  1  0  0  0  0
 59 81  1  0  0  0  0
 60 62  1  0  0  0  0
 60 71  1  0  0  0  0
 61 73  1  0  0  0  0
 63 64  1  0  0  0  0
M  CHG  1  73   1
M  ISO  4  39 100  59 101  69 100  81 101
M  END
> <Batch ID>
0018

> <Smiles>
CNC(C)C(=O)NC(C(=O)N1Cc2cc([101O:1][101CH2:1]C(=O)N(C)Cc3ccc([100NH:0][100C:0](=O)N4CCCC(n5nc(-c6ccc(Oc7ccc(F)cc7F)cc6)c(C(N)=O)c5N)C4)c(F)c3)ccc2CC1C(=O)NC1CCCc2ccccc21)C(C)(C)C

> <Shape>
0.224

> <Color>
0.196

> <Negative vol penalty>
0.000

$$$$

  -OEChem-04042321033D

 84 92  0     1  0  0  0  0  0999 V2000
  -27.4675  -23.5081   18.4136 C   0  0  0  0  0  0  0  0  0  0  0  0
  -26.2709  -24.0002   18.9249 C   0  0  0  0  0  0  0  0  0  0  0  0
  -27.7128  -15.9767   21.7013 C   0  0  0  0  0  0  0  0  0  0  0  0
  -25.9665  -16.7192   20.2060 C   0  0  0  0  0  0  0  0  0  0  0  0
  -28.6806  -23.9161   18.9664 C   0  0  0  0  0  0  0  0  0  0  0  0
  -26.2868  -24.8998   19.9902 C   0  0  0  0  0  0  0  0  0  0  0  0
  -23.1137  -28.7855   19.2991 C   0  0  0  0  0  0  0  0  0  0  0  0
  -20.7156  -24.2936   24.0936 C   0  0  0  0  0  0  0  0  0  0  0  0
  -19.6648  -25.0554   23.5829 C   0  0  0  0  0  0  0  0  0  0  0  0
  -27.6416  -14.6977   21.1494 C   0  0  0  0  0  0  0  0  0  0  0  0
  -25.8953  -15.4402   19.6540 C   0  0  0  0  0  0  0  0  0  0  0  0
  -21.7588  -28.5496   19.5279 C   0  0  0  0  0  0  0  0  0  0  0  0
  -28.7357  -13.1217   18.3651 C   0  0  0  0  0  0  0  0  0  0  0  0
  -29.9357  -12.4820   18.0546 C   0  0  0  0  0  0  0  0  0  0  0  0
  -21.9536  -29.5756   21.7025 C   0  0  0  0  0  0  0  0  0  0  0  0
  -21.8559  -24.4420   21.9688 C   0  0  0  0  0  0  0  0  0  0  0  0
  -29.3733  -10.6897   19.5740 C   0  0  0  0  0  0  0  0  0  0  0  0
  -26.8752  -16.9875   21.2296 C   0  0  0  0  0  0  0  0  0  0  0  0
  -27.7642  -19.3741   21.3751 C   0  0  0  0  0  0  0  0  0  0  0  0
  -28.7118  -24.8286   20.0328 C   0  0  0  0  0  0  0  0  0  0  0  0
  -23.9025  -29.4095   20.2763 C   0  0  0  0  0  0  0  0  0  0  0  0
  -27.5015  -25.3193   20.5587 C   0  0  0  0  0  0  0  0  0  0  0  0
  -23.3177  -29.8206   21.4826 C   0  0  0  0  0  0  0  0  0  0  0  0
  -21.8113  -23.9869   23.2865 C   0  0  0  0  0  0  0  0  0  0  0  0
  -19.7094  -25.5105   22.2651 C   0  0  0  0  0  0  0  0  0  0  0  0
  -26.7329  -14.4294   20.1257 C   0  0  0  0  0  0  0  0  0  0  0  0
  -21.1792  -28.9420   20.7309 C   0  0  0  0  0  0  0  0  0  0  0  0
  -27.8546  -12.5455   19.2801 C   0  0  0  0  0  0  0  0  0  0  0  0
  -30.2545  -11.2660   18.6590 C   0  0  0  0  0  0  0  0  0  0  0  0
  -20.8050  -25.2039   21.4580 C   0  0  0  0  0  0  0  0  0  0  0  0
  -28.1733  -11.3295   19.8845 C   0  0  0  0  0  0  0  0  0  0  0  0
  -26.9479  -18.3087   21.7997 C   0  0  0  0  0  0  0  0  0  0  0  0
  -27.4632  -20.4015   22.2355 C   0  0  0  0  0  0  0  0  0  0  0  0
  -28.7101  -19.4301   20.2989 C   0  0  0  0  0  0  0  0  0  0  0  0
  -26.4475  -28.5623   21.9819 C   0  0  0  0  0  0  0  0  0  0  0  0
  -26.3302  -31.6506   22.9673 C   0  0  0  0  0  0  0  0  0  0  0  0
  -24.4679  -34.4699   23.4469 C   0  0  0  0  0  0  0  0  0  0  0  0
  -22.9906  -22.6829   25.0906 C   0  0  0  0  0  0  0  0  0  0  0  0
  -30.0456  -25.2039   20.6283 C   0  0  0  0  0  0  0  0  0  0  0  0
  -25.3566  -29.6808   20.0033 C   0  0  0  0  0  0  0  0  0  0  0  0
  -24.1164  -30.5124   22.5558 C   0  0  0  0  0  0  0  0  0  0  0  0
  -29.9902  -26.4484   21.5106 C   0  0  0  0  0  0  0  0  0  0  0  0
  -25.4393  -20.6938   26.7413 C   0  0  0  0  0  0  0  0  0  0  0  0
  -28.8040  -26.3727   22.4665 C   0  0  0  0  0  0  0  0  0  0  0  0
  -26.1589  -19.9794   25.5949 C   0  0  0  0  0  0  0  0  0  0  0  0
  -23.9445  -20.8457   26.4654 C   0  0  0  0  0  0  0  0  0  0  0  0
  -24.3305  -20.7584   24.0338 C   0  0  0  0  0  0  0  0  0  0  0  0
  -27.4785  -26.3157   21.6975 C   0  0  1  0  0  0  0  0  0  0  0  0
  -26.1798  -29.8609   21.2750 C   0  0  1  0  0  0  0  0  0  0  0  0
  -25.8498  -20.6397   24.2370 C   0  0  2  0  0  0  0  0  0  0  0  0
  -24.6402  -36.8226   24.3027 C   0  0  0  0  0  0  0  0  0  0  0  0
  -18.0487  -26.8186   19.4618 C   0  0  0  0  0  0  0  0  0  0  0  0
  -16.4479  -25.6069   20.9834 C   0  0  0  0  0  0  0  0  0  0  0  0
  -26.3337  -30.6051   25.8338 C   0  0  0  0  0  0  0  0  0  0  0  0
  -25.5579  -32.8639   26.5848 C   0  0  0  0  0  0  0  0  0  0  0  0
  -27.7687  -32.6181   25.4559 C   0  0  0  0  0  0  0  0  0  0  0  0
  -23.7109  -35.6041   20.8202 C   0  0  0  0  0  0  0  0  0  0  0  0
  -18.2822  -27.5394   22.3479 C   0  0  0  0  0  0  0  0  0  0  0  0
  -19.4565  -28.5031   22.3106 C   0  0  0  0  0  0  0  0  0  1  0  0
  -25.6500  -32.3876   24.0957 C   0  0  1  0  0  0  0  0  0  0  0  0
  -24.7242  -35.9207   23.0811 C   0  0  2  0  0  0  0  0  0  0  0  0
  -17.9038  -25.8052   20.5878 C   0  0  0  0  0  0  0  0  0  0  0  0
  -26.3127  -32.1039   25.4733 C   0  0  0  0  0  0  0  0  0  0  0  0
  -26.1856  -18.6296   22.8485 N   0  0  0  0  0  0  0  0  0  0  0  0
  -26.5217  -19.9082   23.0902 N   0  0  0  0  0  0  0  0  0  0  0  0
  -25.5356  -30.7497   22.2442 N   0  0  0  0  0  0  0  0  0  0  0  0
  -23.7284  -21.4824   25.1644 N   0  0  0  0  0  0  0  0  0  0  0  0
  -27.9146  -21.6697   22.3368 N   0  0  0  0  0  0  0  0  0  0  0  0
  -28.8968  -18.2846   19.5133 N   0  0  0  0  0  0  0  0  0  0  0  0
  -22.8784  -23.2127   23.8056 N   0  0  0  0  0  0  0  0  0  0  0  0
  -27.1186  -27.6309   21.2126 N   0  0  0  0  0  0  0  0  0  0  0  0
  -25.6405  -33.7962   23.7160 N   0  0  0  0  0  0  0  0  0  0  0  0
  -18.6519  -26.2749   21.7544 N   0  0  3  0  0  0  0  0  0  0  0  0
  -23.7219  -36.3879   22.0821 N   0  3  0  0  0  0  0  0  0  0  0  0
  -29.3820  -20.4601   20.0520 O   0  0  0  0  0  0  0  0  0  0  0  0
  -26.0742  -28.4166   23.1399 O   0  0  0  0  0  0  0  0  0  0  0  0
  -27.5207  -31.8715   22.7315 O   0  0  0  0  0  0  0  0  0  0  0  0
  -23.3400  -33.9839   23.4932 O   0  0  0  0  0  0  0  0  0  0  0  0
  -22.5180  -23.2170   26.0973 O   0  0  0  0  0  0  0  0  0  0  0  0
  -26.6633  -13.1815   19.5867 O   0  0  0  0  0  0  0  0  0  0  0  0
  -19.8571  -28.7124   20.9571 O   0  0  0  0  0  0  0  0  0  1  0  0
  -31.4061  -10.6509   18.3596 F   0  0  0  0  0  0  0  0  0  0  0  0
  -20.8572  -25.6348   20.1896 F   0  0  0  0  0  0  0  0  0  0  0  0
  -27.3303  -10.7705   20.7635 F   0  0  0  0  0  0  0  0  0  0  0  0
  1  2  1  0  0  0  0
  1  5  2  0  0  0  0
  2  6  2  0  0  0  0
  3 10  2  0  0  0  0
  3 18  1  0  0  0  0
  4 11  1  0  0  0  0
  4 18  2  0  0  0  0
  5 20  1  0  0  0  0
  6 22  1  0  0  0  0
  7 12  2  0  0  0  0
  7 21  1  0  0  0  0
  8  9  2  0  0  0  0
  8 24  1  0  0  0  0
  9 25  1  0  0  0  0
 10 26  1  0  0  0  0
 11 26  2  0  0  0  0
 12 27  1  0  0  0  0
 13 14  2  0  0  0  0
 13 28  1  0  0  0  0
 14 29  1  0  0  0  0
 15 23  1  0  0  0  0
 15 27  2  0  0  0  0
 16 24  2  0  0  0  0
 16 30  1  0  0  0  0
 17 29  2  0  0  0  0
 17 31  1  0  0  0  0
 18 32  1  0  0  0  0
 19 32  1  0  0  0  0
 19 33  2  0  0  0  0
 19 34  1  0  0  0  0
 20 22  2  0  0  0  0
 20 39  1  0  0  0  0
 21 23  2  0  0  0  0
 21 40  1  0  0  0  0
 22 48  1  0  0  0  0
 23 41  1  0  0  0  0
 24 70  1  0  0  0  0
 25 30  2  0  0  0  0
 25 73  1  0  0  0  0
 26 80  1  0  0  0  0
 27 81  1  0  0  0  0
 28 31  2  0  0  0  0
 28 80  1  0  0  0  0
 29 82  1  0  0  0  0
 30 83  1  0  0  0  0
 31 84  1  0  0  0  0
 32 64  2  0  0  0  0
 33 65  1  0  0  0  0
 33 68  1  0  0  0  0
 34 69  1  0  0  0  0
 34 75  2  0  0  0  0
 35 49  1  0  0  0  0
 35 71  1  0  0  0  0
 35 76  2  0  0  0  0
 36 60  1  0  0  0  0
 36 66  1  0  0  0  0
 36 77  2  0  0  0  0
 37 61  1  0  0  0  0
 37 72  1  0  0  0  0
 37 78  2  0  0  0  0
 38 67  1  0  0  0  0
 38 70  1  0  0  0  0
 38 79  2  0  0  0  0
 39 42  1  0  0  0  0
 40 49  1  0  0  0  0
 41 66  1  0  0  0  0
 42 44  1  0  0  0  0
 43 45  1  0  0  0  0
 43 46  1  0  0  0  0
 44 48  1  0  0  0  0
 45 50  1  0  0  0  0
 46 67  1  0  0  0  0
 47 50  1  0  0  0  0
 47 67  1  0  0  0  0
 48 71  1  0  0  0  0
 49 66  1  0  0  0  0
 50 65  1  0  0  0  0
 51 61  1  0  0  0  0
 52 62  1  0  0  0  0
 53 62  1  0  0  0  0
 54 63  1  0  0  0  0
 55 63  1  0  0  0  0
 56 63  1  0  0  0  0
 57 74  1  0  0  0  0
 58 59  1  0  0  0  0
 58 73  1  0  0  0  0
 59 81  1  0  0  0  0
 60 63  1  0  0  0  0
 60 72  1  0  0  0  0
 61 74  1  0  0  0  0
 62 73  1  0  0  0  0
 64 65  1  0  0  0  0
M  CHG  1  74   1
M  ISO  4  38 100  59 101  70 100  81 101
M  END
> <Batch ID>
0018

> <Smiles>
CNC(C)C(=O)NC(C(=O)N1Cc2cc([101O:1][101CH2:1]CN(c3ccc([100NH:0][100C:0](=O)N4CCCC(n5nc(-c6ccc(Oc7ccc(F)cc7F)cc6)c(C(N)=O)c5N)C4)cc3F)C(C)C)ccc2CC1C(=O)NC1CCCc2ccccc21)C(C)(C)C

> <Shape>
0.292

> <Color>
0.070

> <Negative vol penalty>
0.000

$$$$

  -OEChem-04042321033D

 86 94  0     1  0  0  0  0  0999 V2000
  -33.8814  -20.4020   23.8640 C   0  0  0  0  0  0  0  0  0  0  0  0
  -32.6189  -20.9864   23.8711 C   0  0  0  0  0  0  0  0  0  0  0  0
  -30.5896  -25.9590   18.3180 C   0  0  0  0  0  0  0  0  0  0  0  0
  -31.1393  -26.2910   20.6471 C   0  0  0  0  0  0  0  0  0  0  0  0
  -34.1825  -19.4071   22.9349 C   0  0  0  0  0  0  0  0  0  0  0  0
  -31.6571  -20.5769   22.9483 C   0  0  0  0  0  0  0  0  0  0  0  0
  -25.6118  -20.2005   23.8530 C   0  0  0  0  0  0  0  0  0  0  0  0
  -18.2588  -27.6677   21.9006 C   0  0  0  0  0  0  0  0  0  0  0  0
  -31.8850  -26.3317   17.9592 C   0  0  0  0  0  0  0  0  0  0  0  0
  -32.4347  -26.6637   20.2883 C   0  0  0  0  0  0  0  0  0  0  0  0
  -24.5600  -21.0571   23.5310 C   0  0  0  0  0  0  0  0  0  0  0  0
  -33.6429  -29.1961   17.5993 C   0  0  0  0  0  0  0  0  0  0  0  0
  -18.2386  -29.0599   21.9829 C   0  0  0  0  0  0  0  0  0  0  0  0
  -33.7893  -30.0830   16.5328 C   0  0  0  0  0  0  0  0  0  0  0  0
  -24.1540  -19.7919   21.5176 C   0  0  0  0  0  0  0  0  0  0  0  0
  -20.5139  -27.6491   22.7673 C   0  0  0  0  0  0  0  0  0  0  0  0
  -35.0872  -28.4322   15.3381 C   0  0  0  0  0  0  0  0  0  0  0  0
  -30.2167  -25.9387   19.6620 C   0  0  0  0  0  0  0  0  0  0  0  0
  -28.4174  -24.2572   20.3272 C   0  0  0  0  0  0  0  0  0  0  0  0
  -33.2208  -18.9783   22.0065 C   0  0  0  0  0  0  0  0  0  0  0  0
  -25.9501  -19.1378   23.0029 C   0  0  0  0  0  0  0  0  0  0  0  0
  -31.9461  -19.5762   22.0050 C   0  0  0  0  0  0  0  0  0  0  0  0
  -25.2088  -18.9217   21.8325 C   0  0  0  0  0  0  0  0  0  0  0  0
  -19.3964  -26.9622   22.2928 C   0  0  0  0  0  0  0  0  0  0  0  0
  -20.4937  -29.0414   22.8495 C   0  0  0  0  0  0  0  0  0  0  0  0
  -32.8075  -26.6840   18.9443 C   0  0  0  0  0  0  0  0  0  0  0  0
  -23.8328  -20.8547   22.3617 C   0  0  0  0  0  0  0  0  0  0  0  0
  -34.2186  -27.9271   17.5352 C   0  0  0  0  0  0  0  0  0  0  0  0
  -34.5114  -29.7011   15.4022 C   0  0  0  0  0  0  0  0  0  0  0  0
  -19.3561  -29.7468   22.4573 C   0  0  0  0  0  0  0  0  0  0  0  0
  -34.9407  -27.5452   16.4046 C   0  0  0  0  0  0  0  0  0  0  0  0
  -28.8786  -25.5544   20.0333 C   0  0  0  0  0  0  0  0  0  0  0  0
  -27.0855  -24.4242   20.6186 C   0  0  0  0  0  0  0  0  0  0  0  0
  -29.1291  -23.0127   20.3362 C   0  0  0  0  0  0  0  0  0  0  0  0
  -28.5306  -18.3399   21.3273 C   0  0  0  0  0  0  0  0  0  0  0  0
  -26.8358  -15.6369   20.7409 C   0  0  0  0  0  0  0  0  0  0  0  0
  -23.7879  -14.1153   20.5373 C   0  0  0  0  0  0  0  0  0  0  0  0
  -23.7562  -28.8425   22.3859 C   0  0  0  0  0  0  0  0  0  0  0  0
  -33.6079  -17.9329   20.9907 C   0  0  0  0  0  0  0  0  0  0  0  0
  -27.0702  -18.2067   23.3780 C   0  0  0  0  0  0  0  0  0  0  0  0
  -25.5189  -17.7832   20.8963 C   0  0  0  0  0  0  0  0  0  0  0  0
  -32.4125  -17.2921   20.2903 C   0  0  0  0  0  0  0  0  0  0  0  0
  -24.5228  -27.9145   18.8292 C   0  0  0  0  0  0  0  0  0  0  0  0
  -31.4227  -18.3611   19.8381 C   0  0  0  0  0  0  0  0  0  0  0  0
  -24.6362  -26.5114   19.4255 C   0  0  0  0  0  0  0  0  0  0  0  0
  -24.0187  -28.9326   19.8583 C   0  0  0  0  0  0  0  0  0  0  0  0
  -25.7466  -27.8803   21.2804 C   0  0  0  0  0  0  0  0  0  0  0  0
  -30.8680  -19.1414   21.0360 C   0  0  1  0  0  0  0  0  0  0  0  0
  -27.6569  -17.4649   22.1809 C   0  0  1  0  0  0  0  0  0  0  0  0
  -25.5167  -26.4751   20.6971 C   0  0  2  0  0  0  0  0  0  0  0  0
  -22.7194  -11.9093   19.9992 C   0  0  0  0  0  0  0  0  0  0  0  0
  -27.3018  -16.1392   17.7676 C   0  0  0  0  0  0  0  0  0  0  0  0
  -25.4676  -14.5078   17.2757 C   0  0  0  0  0  0  0  0  0  0  0  0
  -27.5226  -13.7489   18.4689 C   0  0  0  0  0  0  0  0  0  0  0  0
  -22.8297  -31.0616   21.5888 C   0  0  0  0  0  0  0  0  0  0  0  0
  -22.6225  -13.8869   23.2482 C   0  0  0  0  0  0  0  0  0  0  0  0
  -19.5226  -25.1494   19.7367 C   0  0  0  0  0  0  0  0  0  0  0  0
  -21.6904  -29.7734   23.3561 C   0  0  0  0  0  0  0  0  0  0  0  0
  -19.4178  -25.4646   22.2046 C   0  0  0  0  0  0  0  0  0  0  0  0
  -21.9767  -23.2931   20.4653 C   0  0  0  0  0  0  0  0  0  0  0  0
  -20.6982  -23.5557   21.2468 C   0  0  0  0  0  0  0  0  0  0  0  0
  -22.5353  -21.8886   20.6577 C   0  0  0  0  0  0  0  0  0  1  0  0
  -25.8486  -15.2020   19.6848 C   0  0  1  0  0  0  0  0  0  0  0  0
  -23.2796  -12.7992   21.0978 C   0  0  2  0  0  0  0  0  0  0  0  0
  -26.5303  -14.9222   18.3157 C   0  0  0  0  0  0  0  0  0  0  0  0
  -27.9178  -26.4773   20.1289 N   0  0  0  0  0  0  0  0  0  0  0  0
  -26.8395  -25.7592   20.4862 N   0  0  0  0  0  0  0  0  0  0  0  0
  -26.6273  -16.9040   21.3037 N   0  0  0  0  0  0  0  0  0  0  0  0
  -24.5138  -28.6632   21.2162 N   0  0  0  0  0  0  0  0  0  0  0  0
  -26.1126  -23.5579   20.9724 N   0  0  0  0  0  0  0  0  0  0  0  0
  -30.4928  -23.0205   20.0125 N   0  0  0  0  0  0  0  0  0  0  0  0
  -29.8554  -18.3657   21.7195 N   0  0  0  0  0  0  0  0  0  0  0  0
  -25.1333  -14.0585   20.2409 N   0  0  0  0  0  0  0  0  0  0  0  0
  -22.7620  -29.8313   22.3714 N   0  0  0  0  0  0  0  0  0  0  0  0
  -22.2031  -13.0439   22.0990 N   0  3  0  0  0  0  0  0  0  0  0  0
  -20.2430  -24.9519   21.0488 N   0  3  1  0  0  0  0  0  0  0  0  0
  -28.5686  -21.9236   20.6068 O   0  0  0  0  0  0  0  0  0  0  0  0
  -28.0396  -18.9454   20.3818 O   0  0  0  0  0  0  0  0  0  0  0  0
  -27.7538  -14.8773   21.0601 O   0  0  0  0  0  0  0  0  0  0  0  0
  -23.0630  -15.0944   20.3749 O   0  0  0  0  0  0  0  0  0  0  0  0
  -23.9476  -28.1425   23.3893 O   0  0  0  0  0  0  0  0  0  0  0  0
  -34.0717  -27.0474   18.5946 O   0  0  0  0  0  0  0  0  0  0  0  0
  -22.8061  -21.6897   22.0446 O   0  0  0  0  0  0  0  0  0  1  0  0
  -34.6507  -30.5524   14.3775 F   0  0  0  0  0  0  0  0  0  0  0  0
  -19.3278  -31.0849   22.5313 F   0  0  0  0  0  0  0  0  0  0  0  0
  -35.4952  -26.3271   16.3368 F   0  0  0  0  0  0  0  0  0  0  0  0
  1  2  1  0  0  0  0
  1  5  2  0  0  0  0
  2  6  2  0  0  0  0
  3  9  2  0  0  0  0
  3 18  1  0  0  0  0
  4 10  1  0  0  0  0
  4 18  2  0  0  0  0
  5 20  1  0  0  0  0
  6 22  1  0  0  0  0
  7 11  2  0  0  0  0
  7 21  1  0  0  0  0
  8 13  2  0  0  0  0
  8 24  1  0  0  0  0
  9 26  1  0  0  0  0
 10 26  2  0  0  0  0
 11 27  1  0  0  0  0
 12 14  2  0  0  0  0
 12 28  1  0  0  0  0
 13 30  1  0  0  0  0
 14 29  1  0  0  0  0
 15 23  1  0  0  0  0
 15 27  2  0  0  0  0
 16 24  2  0  0  0  0
 16 25  1  0  0  0  0
 17 29  2  0  0  0  0
 17 31  1  0  0  0  0
 18 32  1  0  0  0  0
 19 32  1  0  0  0  0
 19 33  2  0  0  0  0
 19 34  1  0  0  0  0
 20 22  2  0  0  0  0
 20 39  1  0  0  0  0
 21 23  2  0  0  0  0
 21 40  1  0  0  0  0
 22 48  1  0  0  0  0
 23 41  1  0  0  0  0
 24 59  1  0  0  0  0
 25 30  2  0  0  0  0
 25 58  1  0  0  0  0
 26 82  1  0  0  0  0
 27 83  1  0  0  0  0
 28 31  2  0  0  0  0
 28 82  1  0  0  0  0
 29 84  1  0  0  0  0
 30 85  1  0  0  0  0
 31 86  1  0  0  0  0
 32 66  2  0  0  0  0
 33 67  1  0  0  0  0
 33 70  1  0  0  0  0
 34 71  1  0  0  0  0
 34 77  2  0  0  0  0
 35 49  1  0  0  0  0
 35 72  1  0  0  0  0
 35 78  2  0  0  0  0
 36 63  1  0  0  0  0
 36 68  1  0  0  0  0
 36 79  2  0  0  0  0
 37 64  1  0  0  0  0
 37 73  1  0  0  0  0
 37 80  2  0  0  0  0
 38 69  1  0  0  0  0
 38 74  1  0  0  0  0
 38 81  2  0  0  0  0
 39 42  1  0  0  0  0
 40 49  1  0  0  0  0
 41 68  1  0  0  0  0
 42 44  1  0  0  0  0
 43 45  1  0  0  0  0
 43 46  1  0  0  0  0
 44 48  1  0  0  0  0
 45 50  1  0  0  0  0
 46 69  1  0  0  0  0
 47 50  1  0  0  0  0
 47 69  1  0  0  0  0
 48 72  1  0  0  0  0
 49 68  1  0  0  0  0
 50 67  1  0  0  0  0
 51 64  1  0  0  0  0
 52 65  1  0  0  0  0
 53 65  1  0  0  0  0
 54 65  1  0  0  0  0
 55 74  1  0  0  0  0
 56 75  1  0  0  0  0
 57 76  1  0  0  0  0
 58 74  1  0  0  0  0
 59 76  1  0  0  0  0
 60 61  1  0  0  0  0
 60 62  1  0  0  0  0
 61 76  1  0  0  0  0
 62 83  1  0  0  0  0
 63 65  1  0  0  0  0
 63 73  1  0  0  0  0
 64 75  1  0  0  0  0
 66 67  1  0  0  0  0
M  CHG  2  75   1  76   1
M  ISO  4  38 100  62 101  74 100  83 101
M  END
> <Batch ID>
0018

> <Smiles>
CNC(C)C(=O)NC(C(=O)N1Cc2cc([101O:1][101CH2:1]CCN(C)Cc3ccc(F)c(C[100N:0](C)[100C:0](=O)N4CCCC(n5nc(-c6ccc(Oc7ccc(F)cc7F)cc6)c(C(N)=O)c5N)C4)c3)ccc2CC1C(=O)NC1CCCc2ccccc21)C(C)(C)C

> <Shape>
0.218

> <Color>
0.071

> <Negative vol penalty>
0.000

$$$$

  -OEChem-04042321033D

 84 92  0     1  0  0  0  0  0999 V2000
  -30.2847  -36.2321   25.3379 C   0  0  0  0  0  0  0  0  0  0  0  0
  -30.5635  -35.1052   24.5712 C   0  0  0  0  0  0  0  0  0  0  0  0
  -24.0790  -10.7688   20.3779 C   0  0  0  0  0  0  0  0  0  0  0  0
  -24.2751  -10.2139   22.7212 C   0  0  0  0  0  0  0  0  0  0  0  0
  -29.1977  -36.2283   26.2110 C   0  0  0  0  0  0  0  0  0  0  0  0
  -29.7561  -33.9733   24.6781 C   0  0  0  0  0  0  0  0  0  0  0  0
  -28.2728  -30.0726   20.1959 C   0  0  0  0  0  0  0  0  0  0  0  0
  -27.9157  -22.2080   19.5837 C   0  0  0  0  0  0  0  0  0  0  0  0
  -28.0154  -21.0769   20.3937 C   0  0  0  0  0  0  0  0  0  0  0  0
  -23.7358   -9.4470   20.0937 C   0  0  0  0  0  0  0  0  0  0  0  0
  -23.9318   -8.8922   22.4369 C   0  0  0  0  0  0  0  0  0  0  0  0
  -28.7825  -28.8279   19.8288 C   0  0  0  0  0  0  0  0  0  0  0  0
  -21.1178   -7.1338   21.7965 C   0  0  0  0  0  0  0  0  0  0  0  0
  -20.1848   -6.5149   22.6284 C   0  0  0  0  0  0  0  0  0  0  0  0
  -27.0401  -27.7465   21.0991 C   0  0  0  0  0  0  0  0  0  0  0  0
  -27.5946  -20.7953   17.6503 C   0  0  0  0  0  0  0  0  0  0  0  0
  -21.8195   -4.8341   23.2112 C   0  0  0  0  0  0  0  0  0  0  0  0
  -24.3487  -11.1522   21.6917 C   0  0  0  0  0  0  0  0  0  0  0  0
  -23.8297  -13.5724   22.3091 C   0  0  0  0  0  0  0  0  0  0  0  0
  -28.3708  -35.0993   26.3215 C   0  0  0  0  0  0  0  0  0  0  0  0
  -27.1475  -30.1638   21.0276 C   0  0  0  0  0  0  0  0  0  0  0  0
  -28.6578  -33.9540   25.5545 C   0  0  0  0  0  0  0  0  0  0  0  0
  -26.5165  -28.9935   21.4732 C   0  0  0  0  0  0  0  0  0  0  0  0
  -27.6944  -19.6641   18.4603 C   0  0  0  0  0  0  0  0  0  0  0  0
  -27.7052  -22.0673   18.2120 C   0  0  0  0  0  0  0  0  0  0  0  0
  -27.9048  -19.8049   19.8320 C   0  0  0  0  0  0  0  0  0  0  0  0
  -23.6621   -8.5087   21.1231 C   0  0  0  0  0  0  0  0  0  0  0  0
  -28.1679  -27.6646   20.2828 C   0  0  0  0  0  0  0  0  0  0  0  0
  -22.4016   -6.6029   21.6718 C   0  0  0  0  0  0  0  0  0  0  0  0
  -20.5357   -5.3651   23.3357 C   0  0  0  0  0  0  0  0  0  0  0  0
  -22.7525   -5.4530   22.3792 C   0  0  0  0  0  0  0  0  0  0  0  0
  -24.7039  -12.5173   21.9859 C   0  0  0  0  0  0  0  0  0  0  0  0
  -24.6534  -14.6552   22.4975 C   0  0  0  0  0  0  0  0  0  0  0  0
  -22.4009  -13.5735   22.4285 C   0  0  0  0  0  0  0  0  0  0  0  0
  -26.5810  -31.3780   23.9101 C   0  0  0  0  0  0  0  0  0  0  0  0
  -23.5107  -30.6053   23.2040 C   0  0  0  0  0  0  0  0  0  0  0  0
  -21.3504  -28.6700   21.4056 C   0  0  0  0  0  0  0  0  0  0  0  0
  -29.0161  -17.6771   20.4899 C   0  0  0  0  0  0  0  0  0  0  0  0
  -27.2354  -35.1254   27.3139 C   0  0  0  0  0  0  0  0  0  0  0  0
  -26.5940  -31.5139   21.3927 C   0  0  0  0  0  0  0  0  0  0  0  0
  -25.2937  -29.0370   22.3514 C   0  0  0  0  0  0  0  0  0  0  0  0
  -26.2069  -34.0194   27.0920 C   0  0  0  0  0  0  0  0  0  0  0  0
  -29.6773  -14.9620   22.8984 C   0  0  0  0  0  0  0  0  0  0  0  0
  -26.9026  -32.6795   26.8740 C   0  0  0  0  0  0  0  0  0  0  0  0
  -28.3909  -14.1394   22.8458 C   0  0  0  0  0  0  0  0  0  0  0  0
  -29.9600  -15.6575   21.5702 C   0  0  0  0  0  0  0  0  0  0  0  0
  -27.5441  -15.6780   21.0290 C   0  0  0  0  0  0  0  0  0  0  0  0
  -27.7905  -32.7158   25.6242 C   0  0  1  0  0  0  0  0  0  0  0  0
  -25.7500  -31.4900   22.6633 C   0  0  1  0  0  0  0  0  0  0  0  0
  -27.2090  -14.9994   22.3658 C   0  0  1  0  0  0  0  0  0  0  0  0
  -27.5705  -18.3140   17.8318 C   0  0  0  0  0  0  0  0  0  0  0  0
  -18.9005  -28.2413   21.0717 C   0  0  0  0  0  0  0  0  0  0  0  0
  -23.4226  -29.0706   25.8397 C   0  0  0  0  0  0  0  0  0  0  0  0
  -21.3600  -27.9142   25.0170 C   0  0  0  0  0  0  0  0  0  0  0  0
  -21.3592  -30.3889   25.3306 C   0  0  0  0  0  0  0  0  0  0  0  0
  -27.2092  -18.6100   21.9164 C   0  0  0  0  0  0  0  0  0  0  0  0
  -27.3834  -23.0558   15.9582 C   0  0  0  0  0  0  0  0  0  0  0  0
  -21.4860  -29.4411   18.5515 C   0  0  0  0  0  0  0  0  0  0  0  0
  -29.1580  -24.9421   18.1249 C   0  0  0  0  0  0  0  0  0  0  0  0
  -27.7001  -24.5352   17.9481 C   0  0  0  0  0  0  0  0  0  0  0  0
  -29.3192  -26.3593   18.6621 C   0  0  0  0  0  0  0  0  0  1  0  0
  -22.6437  -29.3848   23.3983 C   0  0  1  0  0  0  0  0  0  0  0  0
  -20.1151  -29.0238   20.5972 C   0  0  2  0  0  0  0  0  0  0  0  0
  -22.2206  -29.1885   24.8814 C   0  0  0  0  0  0  0  0  0  0  0  0
  -25.9847  -12.8957   21.9689 N   0  0  0  0  0  0  0  0  0  0  0  0
  -25.9214  -14.2007   22.2836 N   0  0  0  0  0  0  0  0  0  0  0  0
  -24.7942  -30.3809   22.6861 N   0  0  0  0  0  0  0  0  0  0  0  0
  -28.8047  -16.4313   21.1141 N   0  0  0  0  0  0  0  0  0  0  0  0
  -24.4095  -15.9423   22.8234 N   0  0  0  0  0  0  0  0  0  0  0  0
  -21.7106  -12.3750   22.2017 N   0  0  0  0  0  0  0  0  0  0  0  0
  -26.9848  -32.5937   24.4282 N   0  0  0  0  0  0  0  0  0  0  0  0
  -21.5258  -29.5267   22.4717 N   0  0  0  0  0  0  0  0  0  0  0  0
  -28.0092  -18.6467   20.6878 N   0  0  0  0  0  0  0  0  0  0  0  0
  -27.6044  -23.2046   17.3980 N   0  0  3  0  0  0  0  0  0  0  0  0
  -20.3356  -28.7205   19.1549 N   0  3  0  0  0  0  0  0  0  0  0  0
  -21.7542  -14.6105   22.7113 O   0  0  0  0  0  0  0  0  0  0  0  0
  -26.8357  -30.2706   24.3689 O   0  0  0  0  0  0  0  0  0  0  0  0
  -23.0631  -31.7175   23.4942 O   0  0  0  0  0  0  0  0  0  0  0  0
  -22.0841  -27.7257   21.1219 O   0  0  0  0  0  0  0  0  0  0  0  0
  -30.0374  -17.9131   19.8336 O   0  0  0  0  0  0  0  0  0  0  0  0
  -23.3270   -7.2190   20.8461 O   0  0  0  0  0  0  0  0  0  0  0  0
  -28.6638  -26.4485   19.9265 O   0  0  0  0  0  0  0  0  0  1  0  0
  -19.6401   -4.7717   24.1358 F   0  0  0  0  0  0  0  0  0  0  0  0
  -23.9847   -4.9390   22.2645 F   0  0  0  0  0  0  0  0  0  0  0  0
  1  2  1  0  0  0  0
  1  5  2  0  0  0  0
  2  6  2  0  0  0  0
  3 10  2  0  0  0  0
  3 18  1  0  0  0  0
  4 11  1  0  0  0  0
  4 18  2  0  0  0  0
  5 20  1  0  0  0  0
  6 22  1  0  0  0  0
  7 12  2  0  0  0  0
  7 21  1  0  0  0  0
  8  9  2  0  0  0  0
  8 25  1  0  0  0  0
  9 26  1  0  0  0  0
 10 27  1  0  0  0  0
 11 27  2  0  0  0  0
 12 28  1  0  0  0  0
 13 14  2  0  0  0  0
 13 29  1  0  0  0  0
 14 30  1  0  0  0  0
 15 23  1  0  0  0  0
 15 28  2  0  0  0  0
 16 24  1  0  0  0  0
 16 25  2  0  0  0  0
 17 30  2  0  0  0  0
 17 31  1  0  0  0  0
 18 32  1  0  0  0  0
 19 32  1  0  0  0  0
 19 33  2  0  0  0  0
 19 34  1  0  0  0  0
 20 22  2  0  0  0  0
 20 39  1  0  0  0  0
 21 23  2  0  0  0  0
 21 40  1  0  0  0  0
 22 48  1  0  0  0  0
 23 41  1  0  0  0  0
 24 26  2  0  0  0  0
 24 51  1  0  0  0  0
 25 74  1  0  0  0  0
 26 73  1  0  0  0  0
 27 81  1  0  0  0  0
 28 82  1  0  0  0  0
 29 31  2  0  0  0  0
 29 81  1  0  0  0  0
 30 83  1  0  0  0  0
 31 84  1  0  0  0  0
 32 65  2  0  0  0  0
 33 66  1  0  0  0  0
 33 69  1  0  0  0  0
 34 70  1  0  0  0  0
 34 76  2  0  0  0  0
 35 49  1  0  0  0  0
 35 71  1  0  0  0  0
 35 77  2  0  0  0  0
 36 62  1  0  0  0  0
 36 67  1  0  0  0  0
 36 78  2  0  0  0  0
 37 63  1  0  0  0  0
 37 72  1  0  0  0  0
 37 79  2  0  0  0  0
 38 68  1  0  0  0  0
 38 73  1  0  0  0  0
 38 80  2  0  0  0  0
 39 42  1  0  0  0  0
 40 49  1  0  0  0  0
 41 67  1  0  0  0  0
 42 44  1  0  0  0  0
 43 45  1  0  0  0  0
 43 46  1  0  0  0  0
 44 48  1  0  0  0  0
 45 50  1  0  0  0  0
 46 68  1  0  0  0  0
 47 50  1  0  0  0  0
 47 68  1  0  0  0  0
 48 71  1  0  0  0  0
 49 67  1  0  0  0  0
 50 66  1  0  0  0  0
 52 63  1  0  0  0  0
 53 64  1  0  0  0  0
 54 64  1  0  0  0  0
 55 64  1  0  0  0  0
 56 73  1  0  0  0  0
 57 74  1  0  0  0  0
 58 75  1  0  0  0  0
 59 60  1  0  0  0  0
 59 61  1  0  0  0  0
 60 74  1  0  0  0  0
 61 82  1  0  0  0  0
 62 64  1  0  0  0  0
 62 72  1  0  0  0  0
 63 75  1  0  0  0  0
 65 66  1  0  0  0  0
M  CHG  1  75   1
M  ISO  4  38 100  61 101  73 100  82 101
M  END
> <Batch ID>
0018

> <Smiles>
CNC(C)C(=O)NC(C(=O)N1Cc2cc([101O:1][101CH2:1]CCN(C)c3ccc([100N:0](C)[100C:0](=O)N4CCCC(n5nc(-c6ccc(Oc7ccc(F)cc7F)cc6)c(C(N)=O)c5N)C4)c(C)c3)ccc2CC1C(=O)NC1CCCc2ccccc21)C(C)(C)C

> <Shape>
0.292

> <Color>
0.098

> <Negative vol penalty>
0.000

$$$$

  -OEChem-04042321033D

 84 92  0     1  0  0  0  0  0999 V2000
  -18.9778  -24.9994   25.3521 C   0  0  0  0  0  0  0  0  0  0  0  0
  -20.1643  -24.5960   24.7479 C   0  0  0  0  0  0  0  0  0  0  0  0
  -23.8399  -16.5321   21.3437 C   0  0  0  0  0  0  0  0  0  0  0  0
  -23.1261  -15.6673   19.2037 C   0  0  0  0  0  0  0  0  0  0  0  0
  -18.2833  -26.1014   24.8549 C   0  0  0  0  0  0  0  0  0  0  0  0
  -20.6563  -25.2938   23.6454 C   0  0  0  0  0  0  0  0  0  0  0  0
  -25.6330  -26.1740   23.9664 C   0  0  0  0  0  0  0  0  0  0  0  0
  -29.9958  -18.1588   21.5719 C   0  0  0  0  0  0  0  0  0  0  0  0
  -31.0437  -17.5026   19.4963 C   0  0  0  0  0  0  0  0  0  0  0  0
  -30.2096  -16.8793   22.0844 C   0  0  0  0  0  0  0  0  0  0  0  0
  -31.2576  -16.2230   20.0088 C   0  0  0  0  0  0  0  0  0  0  0  0
  -23.0679  -17.6757   21.1391 C   0  0  0  0  0  0  0  0  0  0  0  0
  -22.3540  -16.8109   18.9991 C   0  0  0  0  0  0  0  0  0  0  0  0
  -26.4877  -25.1138   23.6677 C   0  0  0  0  0  0  0  0  0  0  0  0
  -23.3029  -20.5591   19.3913 C   0  0  0  0  0  0  0  0  0  0  0  0
  -23.8835  -21.7930   19.6845 C   0  0  0  0  0  0  0  0  0  0  0  0
  -26.8429  -26.0288   21.4641 C   0  0  0  0  0  0  0  0  0  0  0  0
  -22.1505  -22.2215   21.3125 C   0  0  0  0  0  0  0  0  0  0  0  0
  -23.8690  -15.5279   20.3760 C   0  0  0  0  0  0  0  0  0  0  0  0
  -24.2638  -13.1479   21.2051 C   0  0  0  0  0  0  0  0  0  0  0  0
  -18.7721  -26.8188   23.7517 C   0  0  0  0  0  0  0  0  0  0  0  0
  -25.3678  -27.1654   23.0108 C   0  0  0  0  0  0  0  0  0  0  0  0
  -19.9669  -26.4056   23.1322 C   0  0  0  0  0  0  0  0  0  0  0  0
  -25.9864  -27.1019   21.7540 C   0  0  0  0  0  0  0  0  0  0  0  0
  -30.4128  -18.4705   20.2778 C   0  0  0  0  0  0  0  0  0  0  0  0
  -30.8405  -15.9114   21.3029 C   0  0  0  0  0  0  0  0  0  0  0  0
  -22.3250  -17.8151   19.9668 C   0  0  0  0  0  0  0  0  0  0  0  0
  -27.0905  -25.0395   22.4155 C   0  0  0  0  0  0  0  0  0  0  0  0
  -22.1461  -20.1564   20.0586 C   0  0  0  0  0  0  0  0  0  0  0  0
  -23.3073  -22.6242   20.6451 C   0  0  0  0  0  0  0  0  0  0  0  0
  -21.5699  -20.9876   21.0192 C   0  0  0  0  0  0  0  0  0  0  0  0
  -24.6667  -14.3466   20.5865 C   0  0  0  0  0  0  0  0  0  0  0  0
  -25.3775  -12.3455   21.1570 C   0  0  0  0  0  0  0  0  0  0  0  0
  -22.9962  -12.7916   21.7724 C   0  0  0  0  0  0  0  0  0  0  0  0
  -22.7635  -28.1868   21.5015 C   0  0  0  0  0  0  0  0  0  0  0  0
  -24.7839  -30.4587   20.3704 C   0  0  0  0  0  0  0  0  0  0  0  0
  -27.9879  -31.3881   19.6515 C   0  0  0  0  0  0  0  0  0  0  0  0
  -31.0921  -13.4559   20.9892 C   0  0  0  0  0  0  0  0  0  0  0  0
  -17.9617  -27.9747   23.2207 C   0  0  0  0  0  0  0  0  0  0  0  0
  -24.4644  -28.3169   23.3578 C   0  0  0  0  0  0  0  0  0  0  0  0
  -25.7506  -28.1517   20.7001 C   0  0  0  0  0  0  0  0  0  0  0  0
  -18.7455  -28.8870   22.2806 C   0  0  0  0  0  0  0  0  0  0  0  0
  -29.3155  -11.5431   18.5750 C   0  0  0  0  0  0  0  0  0  0  0  0
  -19.5219  -28.0614   21.2597 C   0  0  0  0  0  0  0  0  0  0  0  0
  -27.8710  -11.9420   18.8751 C   0  0  0  0  0  0  0  0  0  0  0  0
  -30.2727  -12.7300   18.6895 C   0  0  0  0  0  0  0  0  0  0  0  0
  -28.7435  -13.8466   20.2831 C   0  0  0  0  0  0  0  0  0  0  0  0
  -20.5457  -27.1518   21.9497 C   0  0  1  0  0  0  0  0  0  0  0  0
  -23.8627  -28.9951   22.1308 C   0  0  1  0  0  0  0  0  0  0  0  0
  -27.7671  -12.6611   20.2317 C   0  0  1  0  0  0  0  0  0  0  0  0
  -29.3212  -33.2897   18.7008 C   0  0  0  0  0  0  0  0  0  0  0  0
  -23.8862  -29.6799   17.5602 C   0  0  0  0  0  0  0  0  0  0  0  0
  -25.8838  -30.8925   16.6614 C   0  0  0  0  0  0  0  0  0  0  0  0
  -24.1364  -32.1404   17.9310 C   0  0  0  0  0  0  0  0  0  0  0  0
  -31.4982  -14.4553   23.2278 C   0  0  0  0  0  0  0  0  0  0  0  0
  -29.4952  -31.7447   22.1734 C   0  0  0  0  0  0  0  0  0  0  0  0
  -28.3945  -19.3822   18.0572 C   0  0  0  0  0  0  0  0  0  0  0  0
  -30.1827  -19.8468   19.7266 C   0  0  0  0  0  0  0  0  0  0  0  0
  -28.2898  -22.0983   20.7130 C   0  0  0  0  0  0  0  0  0  0  0  0
  -28.4052  -21.5384   19.3032 C   0  0  0  0  0  0  0  0  0  0  0  0
  -27.9899  -23.5916   20.7570 C   0  0  0  0  0  0  0  0  0  1  0  0
  -25.6922  -30.5801   19.1708 C   0  0  1  0  0  0  0  0  0  0  0  0
  -28.7638  -32.6546   19.9652 C   0  0  2  0  0  0  0  0  0  0  0  0
  -24.9028  -30.8022   17.8498 C   0  0  0  0  0  0  0  0  0  0  0  0
  -25.9372  -14.3132   20.1757 N   0  0  0  0  0  0  0  0  0  0  0  0
  -26.3423  -13.0838   20.5369 N   0  0  0  0  0  0  0  0  0  0  0  0
  -24.8544  -29.2545   21.0851 N   0  0  0  0  0  0  0  0  0  0  0  0
  -30.1089  -13.4086   19.9829 N   0  0  0  0  0  0  0  0  0  0  0  0
  -25.6159  -11.0876   21.5850 N   0  0  0  0  0  0  0  0  0  0  0  0
  -21.9600  -13.7346   21.7378 N   0  0  0  0  0  0  0  0  0  0  0  0
  -21.7088  -27.9136   22.3514 N   0  0  0  0  0  0  0  0  0  0  0  0
  -26.6429  -31.6414   19.4844 N   0  0  0  0  0  0  0  0  0  0  0  0
  -31.0623  -14.5867   21.8333 N   0  0  0  0  0  0  0  0  0  0  0  0
  -29.9009  -32.3522   20.8799 N   0  3  0  0  0  0  0  0  0  0  0  0
  -28.7447  -20.0966   19.3404 N   0  3  1  0  0  0  0  0  0  0  0  0
  -22.7935  -11.6761   22.3093 O   0  0  0  0  0  0  0  0  0  0  0  0
  -22.8641  -27.8383   20.3310 O   0  0  0  0  0  0  0  0  0  0  0  0
  -24.0443  -31.4004   20.6669 O   0  0  0  0  0  0  0  0  0  0  0  0
  -28.5222  -30.2851   19.5599 O   0  0  0  0  0  0  0  0  0  0  0  0
  -31.9165  -12.5459   21.1387 O   0  0  0  0  0  0  0  0  0  0  0  0
  -21.5714  -18.9307   19.7669 O   0  0  0  0  0  0  0  0  0  0  0  0
  -27.9246  -24.0054   22.1211 O   0  0  0  0  0  0  0  0  0  1  0  0
  -23.8658  -23.8085   20.9277 F   0  0  0  0  0  0  0  0  0  0  0  0
  -20.4592  -20.6056   21.6644 F   0  0  0  0  0  0  0  0  0  0  0  0
  1  2  1  0  0  0  0
  1  5  2  0  0  0  0
  2  6  2  0  0  0  0
  3 12  2  0  0  0  0
  3 19  1  0  0  0  0
  4 13  1  0  0  0  0
  4 19  2  0  0  0  0
  5 21  1  0  0  0  0
  6 23  1  0  0  0  0
  7 14  2  0  0  0  0
  7 22  1  0  0  0  0
  8 10  2  0  0  0  0
  8 25  1  0  0  0  0
  9 11  1  0  0  0  0
  9 25  2  0  0  0  0
 10 26  1  0  0  0  0
 11 26  2  0  0  0  0
 12 27  1  0  0  0  0
 13 27  2  0  0  0  0
 14 28  1  0  0  0  0
 15 16  2  0  0  0  0
 15 29  1  0  0  0  0
 16 30  1  0  0  0  0
 17 24  1  0  0  0  0
 17 28  2  0  0  0  0
 18 30  2  0  0  0  0
 18 31  1  0  0  0  0
 19 32  1  0  0  0  0
 20 32  1  0  0  0  0
 20 33  2  0  0  0  0
 20 34  1  0  0  0  0
 21 23  2  0  0  0  0
 21 39  1  0  0  0  0
 22 24  2  0  0  0  0
 22 40  1  0  0  0  0
 23 48  1  0  0  0  0
 24 41  1  0  0  0  0
 25 58  1  0  0  0  0
 26 73  1  0  0  0  0
 27 81  1  0  0  0  0
 28 82  1  0  0  0  0
 29 31  2  0  0  0  0
 29 81  1  0  0  0  0
 30 83  1  0  0  0  0
 31 84  1  0  0  0  0
 32 65  2  0  0  0  0
 33 66  1  0  0  0  0
 33 69  1  0  0  0  0
 34 70  1  0  0  0  0
 34 76  2  0  0  0  0
 35 49  1  0  0  0  0
 35 71  1  0  0  0  0
 35 77  2  0  0  0  0
 36 62  1  0  0  0  0
 36 67  1  0  0  0  0
 36 78  2  0  0  0  0
 37 63  1  0  0  0  0
 37 72  1  0  0  0  0
 37 79  2  0  0  0  0
 38 68  1  0  0  0  0
 38 73  1  0  0  0  0
 38 80  2  0  0  0  0
 39 42  1  0  0  0  0
 40 49  1  0  0  0  0
 41 67  1  0  0  0  0
 42 44  1  0  0  0  0
 43 45  1  0  0  0  0
 43 46  1  0  0  0  0
 44 48  1  0  0  0  0
 45 50  1  0  0  0  0
 46 68  1  0  0  0  0
 47 50  1  0  0  0  0
 47 68  1  0  0  0  0
 48 71  1  0  0  0  0
 49 67  1  0  0  0  0
 50 66  1  0  0  0  0
 51 63  1  0  0  0  0
 52 64  1  0  0  0  0
 53 64  1  0  0  0  0
 54 64  1  0  0  0  0
 55 73  1  0  0  0  0
 56 74  1  0  0  0  0
 57 75  1  0  0  0  0
 58 75  1  0  0  0  0
 59 60  1  0  0  0  0
 59 61  1  0  0  0  0
 60 75  1  0  0  0  0
 61 82  1  0  0  0  0
 62 64  1  0  0  0  0
 62 72  1  0  0  0  0
 63 74  1  0  0  0  0
 65 66  1  0  0  0  0
M  CHG  2  74   1  75   1
M  ISO  4  38 100  61 101  73 100  82 101
M  END
> <Batch ID>
0018

> <Smiles>
CNC(C)C(=O)NC(C(=O)N1Cc2cc([101O:1][101CH2:1]CCN(C)Cc3ccc([100N:0](C)[100C:0](=O)N4CCCC(n5nc(-c6ccc(Oc7ccc(F)cc7F)cc6)c(C(N)=O)c5N)C4)cc3)ccc2CC1C(=O)NC1CCCc2ccccc21)C(C)(C)C

> <Shape>
0.244

> <Color>
0.069

> <Negative vol penalty>
0.000

$$$$

  -OEChem-04042321033D

 89 97  0     1  0  0  0  0  0999 V2000
  -30.5357  -32.2987   27.2153 C   0  0  0  0  0  0  0  0  0  0  0  0
  -30.4695  -31.4489   26.1157 C   0  0  0  0  0  0  0  0  0  0  0  0
  -23.0724   -9.8797   19.9543 C   0  0  0  0  0  0  0  0  0  0  0  0
  -23.7491   -9.9506   22.2724 C   0  0  0  0  0  0  0  0  0  0  0  0
  -31.3485  -31.9713   28.2998 C   0  0  0  0  0  0  0  0  0  0  0  0
  -31.2169  -30.2718   26.0996 C   0  0  0  0  0  0  0  0  0  0  0  0
  -28.5427  -26.2949   24.4634 C   0  0  0  0  0  0  0  0  0  0  0  0
  -29.0427  -18.8592   20.8214 C   0  0  0  0  0  0  0  0  0  0  0  0
  -29.3088  -20.0601   20.1637 C   0  0  0  0  0  0  0  0  0  0  0  0
  -22.3219   -8.7317   20.2085 C   0  0  0  0  0  0  0  0  0  0  0  0
  -22.9987   -8.8027   22.5267 C   0  0  0  0  0  0  0  0  0  0  0  0
  -28.3476  -26.1813   23.0876 C   0  0  0  0  0  0  0  0  0  0  0  0
  -23.3152   -5.4676   22.0704 C   0  0  0  0  0  0  0  0  0  0  0  0
  -23.9061   -4.4638   22.8375 C   0  0  0  0  0  0  0  0  0  0  0  0
  -30.1302  -24.5599   22.9748 C   0  0  0  0  0  0  0  0  0  0  0  0
  -30.0553  -17.6371   18.9998 C   0  0  0  0  0  0  0  0  0  0  0  0
  -22.1441   -4.6788   24.4764 C   0  0  0  0  0  0  0  0  0  0  0  0
  -23.7860  -10.4891   20.9862 C   0  0  0  0  0  0  0  0  0  0  0  0
  -24.1276  -13.0110   20.8102 C   0  0  0  0  0  0  0  0  0  0  0  0
  -32.0987  -30.7849   28.3012 C   0  0  0  0  0  0  0  0  0  0  0  0
  -29.5419  -25.5487   25.1046 C   0  0  0  0  0  0  0  0  0  0  0  0
  -32.0415  -29.9290   27.1847 C   0  0  0  0  0  0  0  0  0  0  0  0
  -30.3342  -24.6639   24.3593 C   0  0  0  0  0  0  0  0  0  0  0  0
  -29.4160  -17.6476   20.2395 C   0  0  0  0  0  0  0  0  0  0  0  0
  -29.9480  -20.0495   18.9240 C   0  0  0  0  0  0  0  0  0  0  0  0
  -22.2851   -8.1932   21.4947 C   0  0  0  0  0  0  0  0  0  0  0  0
  -29.1434  -25.3159   22.3426 C   0  0  0  0  0  0  0  0  0  0  0  0
  -22.1386   -6.0772   22.5063 C   0  0  0  0  0  0  0  0  0  0  0  0
  -23.3206   -4.0693   24.0405 C   0  0  0  0  0  0  0  0  0  0  0  0
  -30.3213  -18.8380   18.3420 C   0  0  0  0  0  0  0  0  0  0  0  0
  -21.5531   -5.6828   23.7093 C   0  0  0  0  0  0  0  0  0  0  0  0
  -24.5618  -11.6747   20.7242 C   0  0  0  0  0  0  0  0  0  0  0  0
  -25.2309  -13.7533   20.4663 C   0  0  0  0  0  0  0  0  0  0  0  0
  -22.8420  -13.5346   21.1690 C   0  0  0  0  0  0  0  0  0  0  0  0
  -32.1657  -26.2616   26.7512 C   0  0  0  0  0  0  0  0  0  0  0  0
  -32.2505  -23.0581   27.2537 C   0  0  0  0  0  0  0  0  0  0  0  0
  -31.3495  -19.9367   26.2088 C   0  0  0  0  0  0  0  0  0  0  0  0
  -28.0332  -24.2118   20.6266 C   0  0  0  0  0  0  0  0  0  1  0  0
  -30.8097  -14.4976   21.2659 C   0  0  0  0  0  0  0  0  0  0  0  0
  -32.9994  -30.4969   29.4761 C   0  0  0  0  0  0  0  0  0  0  0  0
  -29.7219  -25.6626   26.5936 C   0  0  0  0  0  0  0  0  0  0  0  0
  -31.4070  -23.8254   25.0031 C   0  0  0  0  0  0  0  0  0  0  0  0
  -33.4707  -29.0464   29.5411 C   0  0  0  0  0  0  0  0  0  0  0  0
  -29.6555  -12.3737   18.4627 C   0  0  0  0  0  0  0  0  0  0  0  0
  -33.9525  -28.5797   28.1711 C   0  0  0  0  0  0  0  0  0  0  0  0
  -28.2127  -12.0598   18.8548 C   0  0  0  0  0  0  0  0  0  0  0  0
  -30.5340  -12.6225   19.6849 C   0  0  0  0  0  0  0  0  0  0  0  0
  -28.5682  -13.3606   20.9907 C   0  0  0  0  0  0  0  0  0  0  0  0
  -32.8181  -28.6309   27.1405 C   0  0  1  0  0  0  0  0  0  0  0  0
  -31.1104  -25.2382   27.0619 C   0  0  1  0  0  0  0  0  0  0  0  0
  -27.6460  -13.1505   19.7803 C   0  0  2  0  0  0  0  0  0  0  0  0
  -31.5984  -17.5117   26.8044 C   0  0  0  0  0  0  0  0  0  0  0  0
  -26.4202  -24.4190   18.7412 C   0  0  0  0  0  0  0  0  0  0  0  0
  -35.1111  -23.0936   26.1926 C   0  0  0  0  0  0  0  0  0  0  0  0
  -34.9655  -20.6094   25.9167 C   0  0  0  0  0  0  0  0  0  0  0  0
  -34.7557  -21.6250   28.1855 C   0  0  0  0  0  0  0  0  0  0  0  0
  -30.8848  -21.2501   16.9641 C   0  0  0  0  0  0  0  0  0  0  0  0
  -31.1869  -16.7227   22.2591 C   0  0  0  0  0  0  0  0  0  0  0  0
  -28.4277  -19.5978   26.5368 C   0  0  0  0  0  0  0  0  0  0  0  0
  -29.1317  -16.3637   20.9428 C   0  0  0  0  0  0  0  0  0  0  0  0
  -28.3517  -22.8009   18.5437 C   0  0  0  0  0  0  0  0  0  0  0  0
  -29.8280  -22.5270   18.8352 C   0  0  0  0  0  0  0  0  0  0  0  0
  -32.8585  -21.8787   26.5337 C   0  0  1  0  0  0  0  0  0  0  0  0
  -30.7439  -18.7608   26.9537 C   0  0  2  0  0  0  0  0  0  0  0  0
  -27.8729  -24.1417   19.1169 C   0  0  2  0  0  0  0  0  0  0  0  0
  -34.4039  -21.8188   26.6944 C   0  0  0  0  0  0  0  0  0  0  0  0
  -25.8411  -11.5710   20.3544 N   0  0  0  0  0  0  0  0  0  0  0  0
  -26.2202  -12.8516   20.2049 N   0  0  0  0  0  0  0  0  0  0  0  0
  -31.5486  -23.9769   26.4607 N   0  0  0  0  0  0  0  0  0  0  0  0
  -29.9507  -13.6321   20.5690 N   0  0  0  0  0  0  0  0  0  0  0  0
  -25.4415  -15.0829   20.3648 N   0  0  0  0  0  0  0  0  0  0  0  0
  -21.8202  -12.6321   21.4942 N   0  0  0  0  0  0  0  0  0  0  0  0
  -31.9285  -27.5023   27.3115 N   0  0  0  0  0  0  0  0  0  0  0  0
  -32.1603  -20.6960   27.0256 N   0  0  0  0  0  0  0  0  0  0  0  0
  -30.2142  -21.2577   18.2650 N   0  0  3  0  0  0  0  0  0  0  0  0
  -30.3289  -15.7851   21.5487 N   0  0  0  0  0  0  0  0  0  0  0  0
  -29.3805  -18.4629   26.4307 N   0  3  0  0  0  0  0  0  0  0  0  0
  -22.6017  -14.7656   21.1845 O   0  0  0  0  0  0  0  0  0  0  0  0
  -33.1249  -25.9485   26.0558 O   0  0  0  0  0  0  0  0  0  0  0  0
  -32.3870  -23.1566   28.4757 O   0  0  0  0  0  0  0  0  0  0  0  0
  -31.1285  -20.1573   25.0201 O   0  0  0  0  0  0  0  0  0  0  0  0
  -27.4259  -23.4847   21.4040 O   0  0  0  0  0  0  0  0  0  0  0  0
  -31.9455  -14.1431   21.6071 O   0  0  0  0  0  0  0  0  0  0  0  0
  -21.5527   -7.0732   21.7431 O   0  0  0  0  0  0  0  0  0  0  0  0
  -28.9555  -25.2036   20.9995 O   0  0  0  0  0  0  0  0  0  1  0  0
  -23.8874   -3.1042   24.7763 F   0  0  0  0  0  0  0  0  0  0  0  0
  -30.9363  -18.8163   17.1510 F   0  0  0  0  0  0  0  0  0  0  0  0
  -20.4222   -6.2639   24.1326 F   0  0  0  0  0  0  0  0  0  0  0  0
  -28.6217  -25.1282   18.5338 F   0  0  0  0  0  0  0  0  0  0  0  0
  1  2  1  0  0  0  0
  1  5  2  0  0  0  0
  2  6  2  0  0  0  0
  3 10  2  0  0  0  0
  3 18  1  0  0  0  0
  4 11  1  0  0  0  0
  4 18  2  0  0  0  0
  5 20  1  0  0  0  0
  6 22  1  0  0  0  0
  7 12  2  0  0  0  0
  7 21  1  0  0  0  0
  8  9  2  0  0  0  0
  8 24  1  0  0  0  0
  9 25  1  0  0  0  0
 10 26  1  0  0  0  0
 11 26  2  0  0  0  0
 12 27  1  0  0  0  0
 13 14  2  0  0  0  0
 13 28  1  0  0  0  0
 14 29  1  0  0  0  0
 15 23  1  0  0  0  0
 15 27  2  0  0  0  0
 16 24  2  0  0  0  0
 16 30  1  0  0  0  0
 17 29  2  0  0  0  0
 17 31  1  0  0  0  0
 18 32  1  0  0  0  0
 19 32  1  0  0  0  0
 19 33  2  0  0  0  0
 19 34  1  0  0  0  0
 20 22  2  0  0  0  0
 20 40  1  0  0  0  0
 21 23  2  0  0  0  0
 21 41  1  0  0  0  0
 22 49  1  0  0  0  0
 23 42  1  0  0  0  0
 24 60  1  0  0  0  0
 25 30  2  0  0  0  0
 25 75  1  0  0  0  0
 26 84  1  0  0  0  0
 27 85  1  0  0  0  0
 28 31  2  0  0  0  0
 28 84  1  0  0  0  0
 29 86  1  0  0  0  0
 30 87  1  0  0  0  0
 31 88  1  0  0  0  0
 32 67  2  0  0  0  0
 33 68  1  0  0  0  0
 33 71  1  0  0  0  0
 34 72  1  0  0  0  0
 34 78  2  0  0  0  0
 35 50  1  0  0  0  0
 35 73  1  0  0  0  0
 35 79  2  0  0  0  0
 36 63  1  0  0  0  0
 36 69  1  0  0  0  0
 36 80  2  0  0  0  0
 37 64  1  0  0  0  0
 37 74  1  0  0  0  0
 37 81  2  0  0  0  0
 38 65  1  0  0  0  0
 38 82  2  0  0  0  0
 38 85  1  0  0  0  0
 39 70  1  0  0  0  0
 39 76  1  0  0  0  0
 39 83  2  0  0  0  0
 40 43  1  0  0  0  0
 41 50  1  0  0  0  0
 42 69  1  0  0  0  0
 43 45  1  0  0  0  0
 44 46  1  0  0  0  0
 44 47  1  0  0  0  0
 45 49  1  0  0  0  0
 46 51  1  0  0  0  0
 47 70  1  0  0  0  0
 48 51  1  0  0  0  0
 48 70  1  0  0  0  0
 49 73  1  0  0  0  0
 50 69  1  0  0  0  0
 51 68  1  0  0  0  0
 52 64  1  0  0  0  0
 53 65  1  0  0  0  0
 54 66  1  0  0  0  0
 55 66  1  0  0  0  0
 56 66  1  0  0  0  0
 57 75  1  0  0  0  0
 58 76  1  0  0  0  0
 59 77  1  0  0  0  0
 60 76  1  0  0  0  0
 61 62  1  0  0  0  0
 61 65  1  0  0  0  0
 62 75  1  0  0  0  0
 63 66  1  0  0  0  0
 63 74  1  0  0  0  0
 64 77  1  0  0  0  0
 65 89  1  0  0  0  0
 67 68  1  0  0  0  0
M  CHG  1  77   1
M  ISO  4  38 101  39 100  76 100  85 101
M  END
> <Batch ID>
0018

> <Smiles>
CNC(C)C(=O)NC(C(=O)N1Cc2cc([101O:1][101C:1](=O)C(C)(F)CCN(C)c3ccc(C[100N:0](C)[100C:0](=O)N4CCCC(n5nc(-c6ccc(Oc7ccc(F)cc7F)cc6)c(C(N)=O)c5N)C4)cc3F)ccc2CC1C(=O)NC1CCCc2ccccc21)C(C)(C)C

> <Shape>
0.227

> <Color>
0.189

> <Negative vol penalty>
0.000

$$$$

  -OEChem-04042321033D

 83 91  0     1  0  0  0  0  0999 V2000
  -17.4048  -11.4590   22.9787 C   0  0  0  0  0  0  0  0  0  0  0  0
  -17.8097  -12.7294   22.5818 C   0  0  0  0  0  0  0  0  0  0  0  0
  -28.6058  -28.2756   20.6917 C   0  0  0  0  0  0  0  0  0  0  0  0
  -27.3373  -26.7674   19.2940 C   0  0  0  0  0  0  0  0  0  0  0  0
  -18.3307  -10.5737   23.5290 C   0  0  0  0  0  0  0  0  0  0  0  0
  -19.1407  -13.1156   22.7359 C   0  0  0  0  0  0  0  0  0  0  0  0
  -22.3674  -16.7678   19.0271 C   0  0  0  0  0  0  0  0  0  0  0  0
  -21.9060  -24.8222   19.6584 C   0  0  0  0  0  0  0  0  0  0  0  0
  -23.3037  -25.3068   21.5685 C   0  0  0  0  0  0  0  0  0  0  0  0
  -22.8105  -23.8442   19.2446 C   0  0  0  0  0  0  0  0  0  0  0  0
  -24.2082  -24.3288   21.1548 C   0  0  0  0  0  0  0  0  0  0  0  0
  -29.7399  -27.4822   20.5186 C   0  0  0  0  0  0  0  0  0  0  0  0
  -28.4715  -25.9740   19.1209 C   0  0  0  0  0  0  0  0  0  0  0  0
  -22.6865  -18.1235   19.0908 C   0  0  0  0  0  0  0  0  0  0  0  0
  -30.1679  -23.6357   20.8774 C   0  0  0  0  0  0  0  0  0  0  0  0
  -30.0168  -22.2543   20.9975 C   0  0  0  0  0  0  0  0  0  0  0  0
  -24.8094  -17.5706   20.0942 C   0  0  0  0  0  0  0  0  0  0  0  0
  -30.7885  -21.9724   18.7254 C   0  0  0  0  0  0  0  0  0  0  0  0
  -27.4045  -27.9182   20.0794 C   0  0  0  0  0  0  0  0  0  0  0  0
  -25.8231  -29.8214   19.4594 C   0  0  0  0  0  0  0  0  0  0  0  0
  -19.6757  -10.9457   23.6810 C   0  0  0  0  0  0  0  0  0  0  0  0
  -23.2639  -15.8023   19.5073 C   0  0  0  0  0  0  0  0  0  0  0  0
  -20.0852  -12.2348   23.2899 C   0  0  0  0  0  0  0  0  0  0  0  0
  -24.5004  -16.2032   20.0331 C   0  0  0  0  0  0  0  0  0  0  0  0
  -22.1527  -25.5535   20.8203 C   0  0  0  0  0  0  0  0  0  0  0  0
  -23.9615  -23.5975   19.9928 C   0  0  0  0  0  0  0  0  0  0  0  0
  -29.6727  -26.3315   19.7332 C   0  0  0  0  0  0  0  0  0  0  0  0
  -23.9063  -18.5253   19.6271 C   0  0  0  0  0  0  0  0  0  0  0  0
  -30.6291  -24.1856   19.6813 C   0  0  0  0  0  0  0  0  0  0  0  0
  -30.3272  -21.4227   19.9215 C   0  0  0  0  0  0  0  0  0  0  0  0
  -30.9394  -23.3539   18.6053 C   0  0  0  0  0  0  0  0  0  0  0  0
  -26.2325  -28.7370   20.2583 C   0  0  0  0  0  0  0  0  0  0  0  0
  -24.6590  -30.2579   20.0434 C   0  0  0  0  0  0  0  0  0  0  0  0
  -26.4398  -30.3839   18.2937 C   0  0  0  0  0  0  0  0  0  0  0  0
  -23.1777  -13.6065   21.8039 C   0  0  0  0  0  0  0  0  0  0  0  0
  -26.0382  -12.7388   20.5443 C   0  0  0  0  0  0  0  0  0  0  0  0
  -28.8011  -13.6246   18.7475 C   0  0  0  0  0  0  0  0  0  0  0  0
  -20.8438  -27.1644   23.7058 C   0  0  0  0  0  0  0  0  0  0  0  0
  -20.6302   -9.9713   24.3245 C   0  0  0  0  0  0  0  0  0  0  0  0
  -22.9161  -14.3424   19.4068 C   0  0  0  0  0  0  0  0  0  0  0  0
  -25.5063  -15.2050   20.5434 C   0  0  0  0  0  0  0  0  0  0  0  0
  -22.0994  -10.3247   24.1080 C   0  0  0  0  0  0  0  0  0  0  0  0
  -22.4207  -30.4671   24.2602 C   0  0  0  0  0  0  0  0  0  0  0  0
  -22.3378  -11.8065   24.3801 C   0  0  0  0  0  0  0  0  0  0  0  0
  -23.5860  -30.4499   23.2723 C   0  0  0  0  0  0  0  0  0  0  0  0
  -22.0497  -29.0619   24.7242 C   0  0  0  0  0  0  0  0  0  0  0  0
  -22.9293  -28.0987   22.6235 C   0  0  0  0  0  0  0  0  0  0  0  0
  -21.5254  -12.6818   23.4181 C   0  0  1  0  0  0  0  0  0  0  0  0
  -23.6875  -13.4749   20.3967 C   0  0  1  0  0  0  0  0  0  0  0  0
  -23.2978  -29.4952   22.1006 C   0  0  2  0  0  0  0  0  0  0  0  0
  -30.9860  -12.7124   17.9160 C   0  0  0  0  0  0  0  0  0  0  0  0
  -27.2097  -12.9935   23.3502 C   0  0  0  0  0  0  0  0  0  0  0  0
  -29.4915  -13.0139   22.3202 C   0  0  0  0  0  0  0  0  0  0  0  0
  -28.0235  -11.0145   22.0556 C   0  0  0  0  0  0  0  0  0  0  0  0
  -26.0774  -22.3538   20.3622 C   0  0  0  0  0  0  0  0  0  0  0  0
  -19.6353  -25.2862   22.6612 C   0  0  0  0  0  0  0  0  0  0  0  0
  -28.0370  -14.0531   15.9206 C   0  0  0  0  0  0  0  0  0  0  0  0
  -21.1865  -26.5996   21.2632 C   0  0  0  0  0  0  0  0  0  0  0  0
  -24.6363  -21.8279   18.3886 C   0  0  0  0  0  0  0  0  0  0  0  0
  -23.6670  -20.6959   18.6854 C   0  0  0  0  0  0  0  0  0  1  0  0
  -27.4759  -13.1310   20.7858 C   0  0  1  0  0  0  0  0  0  0  0  0
  -29.5166  -12.9399   17.5970 C   0  0  2  0  0  0  0  0  0  0  0  0
  -28.0306  -12.5574   22.1202 C   0  0  0  0  0  0  0  0  0  0  0  0
  -25.3966  -28.4993   21.2726 N   0  0  0  0  0  0  0  0  0  0  0  0
  -24.4503  -29.4405   21.1150 N   0  0  0  0  0  0  0  0  0  0  0  0
  -25.1173  -13.7897   20.4293 N   0  0  0  0  0  0  0  0  0  0  0  0
  -21.8235  -28.1643   23.5908 N   0  0  0  0  0  0  0  0  0  0  0  0
  -23.8040  -31.2574   19.7397 N   0  0  0  0  0  0  0  0  0  0  0  0
  -27.6324  -29.8138   17.8278 N   0  0  0  0  0  0  0  0  0  0  0  0
  -22.1594  -12.7267   22.1179 N   0  0  0  0  0  0  0  0  0  0  0  0
  -28.2176  -12.7125   19.6013 N   0  0  0  0  0  0  0  0  0  0  0  0
  -24.8694  -22.6139   19.5785 N   0  0  3  0  0  0  0  0  0  0  0  0
  -20.6477  -26.3304   22.5946 N   0  0  0  0  0  0  0  0  0  0  0  0
  -29.4268  -13.7709   16.3632 N   0  3  0  0  0  0  0  0  0  0  0  0
  -25.9566  -31.3733   17.6928 O   0  0  0  0  0  0  0  0  0  0  0  0
  -23.6725  -14.4432   22.5501 O   0  0  0  0  0  0  0  0  0  0  0  0
  -25.7444  -11.5441   20.4537 O   0  0  0  0  0  0  0  0  0  0  0  0
  -28.7667  -14.8462   18.8780 O   0  0  0  0  0  0  0  0  0  0  0  0
  -20.1756  -27.0312   24.7390 O   0  0  0  0  0  0  0  0  0  0  0  0
  -30.7792  -25.5572   19.5639 O   0  0  0  0  0  0  0  0  0  0  0  0
  -24.2200  -19.8479   19.6911 O   0  0  0  0  0  0  0  0  0  1  0  0
  -30.1836  -20.0960   20.0375 F   0  0  0  0  0  0  0  0  0  0  0  0
  -31.3841  -23.8762   17.4541 F   0  0  0  0  0  0  0  0  0  0  0  0
  1  2  1  0  0  0  0
  1  5  2  0  0  0  0
  2  6  2  0  0  0  0
  3 12  2  0  0  0  0
  3 19  1  0  0  0  0
  4 13  1  0  0  0  0
  4 19  2  0  0  0  0
  5 21  1  0  0  0  0
  6 23  1  0  0  0  0
  7 14  2  0  0  0  0
  7 22  1  0  0  0  0
  8 10  2  0  0  0  0
  8 25  1  0  0  0  0
  9 11  1  0  0  0  0
  9 25  2  0  0  0  0
 10 26  1  0  0  0  0
 11 26  2  0  0  0  0
 12 27  1  0  0  0  0
 13 27  2  0  0  0  0
 14 28  1  0  0  0  0
 15 16  2  0  0  0  0
 15 29  1  0  0  0  0
 16 30  1  0  0  0  0
 17 24  1  0  0  0  0
 17 28  2  0  0  0  0
 18 30  2  0  0  0  0
 18 31  1  0  0  0  0
 19 32  1  0  0  0  0
 20 32  1  0  0  0  0
 20 33  2  0  0  0  0
 20 34  1  0  0  0  0
 21 23  2  0  0  0  0
 21 39  1  0  0  0  0
 22 24  2  0  0  0  0
 22 40  1  0  0  0  0
 23 48  1  0  0  0  0
 24 41  1  0  0  0  0
 25 58  1  0  0  0  0
 26 72  1  0  0  0  0
 27 80  1  0  0  0  0
 28 81  1  0  0  0  0
 29 31  2  0  0  0  0
 29 80  1  0  0  0  0
 30 82  1  0  0  0  0
 31 83  1  0  0  0  0
 32 64  2  0  0  0  0
 33 65  1  0  0  0  0
 33 68  1  0  0  0  0
 34 69  1  0  0  0  0
 34 75  2  0  0  0  0
 35 49  1  0  0  0  0
 35 70  1  0  0  0  0
 35 76  2  0  0  0  0
 36 61  1  0  0  0  0
 36 66  1  0  0  0  0
 36 77  2  0  0  0  0
 37 62  1  0  0  0  0
 37 71  1  0  0  0  0
 37 78  2  0  0  0  0
 38 67  1  0  0  0  0
 38 73  1  0  0  0  0
 38 79  2  0  0  0  0
 39 42  1  0  0  0  0
 40 49  1  0  0  0  0
 41 66  1  0  0  0  0
 42 44  1  0  0  0  0
 43 45  1  0  0  0  0
 43 46  1  0  0  0  0
 44 48  1  0  0  0  0
 45 50  1  0  0  0  0
 46 67  1  0  0  0  0
 47 50  1  0  0  0  0
 47 67  1  0  0  0  0
 48 70  1  0  0  0  0
 49 66  1  0  0  0  0
 50 65  1  0  0  0  0
 51 62  1  0  0  0  0
 52 63  1  0  0  0  0
 53 63  1  0  0  0  0
 54 63  1  0  0  0  0
 55 72  1  0  0  0  0
 56 73  1  0  0  0  0
 57 74  1  0  0  0  0
 58 73  1  0  0  0  0
 59 60  1  0  0  0  0
 59 72  1  0  0  0  0
 60 81  1  0  0  0  0
 61 63  1  0  0  0  0
 61 71  1  0  0  0  0
 62 74  1  0  0  0  0
 64 65  1  0  0  0  0
M  CHG  1  74   1
M  ISO  4  38 100  60 101  73 100  81 101
M  END
> <Batch ID>
0018

> <Smiles>
CNC(C)C(=O)NC(C(=O)N1Cc2cc([101O:1][101CH2:1]CN(C)c3ccc(C[100N:0](C)[100C:0](=O)N4CCCC(n5nc(-c6ccc(Oc7ccc(F)cc7F)cc6)c(C(N)=O)c5N)C4)cc3)ccc2CC1C(=O)NC1CCCc2ccccc21)C(C)(C)C

> <Shape>
0.241

> <Color>
0.066

> <Negative vol penalty>
0.000

$$$$

  -OEChem-04042321033D

 87 95  0     1  0  0  0  0  0999 V2000
  -24.1839  -31.6541   26.4728 C   0  0  0  0  0  0  0  0  0  0  0  0
  -23.5217  -31.2306   25.3250 C   0  0  0  0  0  0  0  0  0  0  0  0
  -22.9203  -10.0798   20.0922 C   0  0  0  0  0  0  0  0  0  0  0  0
  -24.3820   -9.4397   21.9063 C   0  0  0  0  0  0  0  0  0  0  0  0
  -25.5161  -32.0586   26.3985 C   0  0  0  0  0  0  0  0  0  0  0  0
  -24.1911  -31.2125   24.1018 C   0  0  0  0  0  0  0  0  0  0  0  0
  -24.8756  -25.1079   20.3393 C   0  0  0  0  0  0  0  0  0  0  0  0
  -22.3153   -8.8238   20.1365 C   0  0  0  0  0  0  0  0  0  0  0  0
  -23.7770   -8.1837   21.9506 C   0  0  0  0  0  0  0  0  0  0  0  0
  -24.8656  -24.0245   19.4605 C   0  0  0  0  0  0  0  0  0  0  0  0
  -22.3744   -4.9341   22.7819 C   0  0  0  0  0  0  0  0  0  0  0  0
  -22.0391   -4.4188   24.0339 C   0  0  0  0  0  0  0  0  0  0  0  0
  -26.1784  -25.2883   17.8707 C   0  0  0  0  0  0  0  0  0  0  0  0
  -28.6168  -17.6349   19.0936 C   0  0  0  0  0  0  0  0  0  0  0  0
  -28.6099  -20.1874   20.2193 C   0  0  0  0  0  0  0  0  0  0  0  0
  -20.5951   -6.3153   24.4279 C   0  0  0  0  0  0  0  0  0  0  0  0
  -23.9537  -10.3878   20.9771 C   0  0  0  0  0  0  0  0  0  0  0  0
  -24.1995  -12.8376   21.6447 C   0  0  0  0  0  0  0  0  0  0  0  0
  -26.2050  -32.0363   25.1756 C   0  0  0  0  0  0  0  0  0  0  0  0
  -25.5508  -26.2816   19.9932 C   0  0  0  0  0  0  0  0  0  0  0  0
  -25.5334  -31.6184   24.0108 C   0  0  0  0  0  0  0  0  0  0  0  0
  -26.2024  -26.3723   18.7522 C   0  0  0  0  0  0  0  0  0  0  0  0
  -28.7549  -17.7891   20.4729 C   0  0  0  0  0  0  0  0  0  0  0  0
  -28.4719  -20.0331   18.8399 C   0  0  0  0  0  0  0  0  0  0  0  0
  -22.7436   -7.8757   21.0657 C   0  0  0  0  0  0  0  0  0  0  0  0
  -25.5152  -24.1146   18.2292 C   0  0  0  0  0  0  0  0  0  0  0  0
  -21.8201   -6.1401   22.3529 C   0  0  0  0  0  0  0  0  0  0  0  0
  -21.1495   -5.1093   24.8569 C   0  0  0  0  0  0  0  0  0  0  0  0
  -28.4754  -18.7569   18.2770 C   0  0  0  0  0  0  0  0  0  0  0  0
  -28.7514  -19.0653   21.0358 C   0  0  0  0  0  0  0  0  0  0  0  0
  -20.9304   -6.8307   23.1759 C   0  0  0  0  0  0  0  0  0  0  0  0
  -24.5795  -11.6849   20.9315 C   0  0  0  0  0  0  0  0  0  0  0  0
  -25.1034  -13.7957   21.2555 C   0  0  0  0  0  0  0  0  0  0  0  0
  -23.1255  -13.0255   22.5758 C   0  0  0  0  0  0  0  0  0  0  0  0
  -26.5535  -29.7580   20.9857 C   0  0  0  0  0  0  0  0  0  0  0  0
  -28.9772  -28.4951   19.5925 C   0  0  0  0  0  0  0  0  0  0  0  0
  -31.5431  -26.6012   18.3814 C   0  0  0  0  0  0  0  0  0  0  0  0
  -30.5956  -14.9708   20.3770 C   0  0  0  0  0  0  0  0  0  0  0  0
  -27.6304  -32.5277   25.1362 C   0  0  0  0  0  0  0  0  0  0  0  0
  -25.5359  -27.4952   20.8825 C   0  0  0  0  0  0  0  0  0  0  0  0
  -26.8866  -27.6669   18.4076 C   0  0  0  0  0  0  0  0  0  0  0  0
  -28.3794  -32.1232   23.8691 C   0  0  0  0  0  0  0  0  0  0  0  0
  -28.5227  -13.8058   17.5402 C   0  0  0  0  0  0  0  0  0  0  0  0
  -27.5231  -32.3890   22.6350 C   0  0  0  0  0  0  0  0  0  0  0  0
  -27.3172  -13.1830   18.2423 C   0  0  0  0  0  0  0  0  0  0  0  0
  -29.7796  -13.7357   18.4021 C   0  0  0  0  0  0  0  0  0  0  0  0
  -28.4088  -13.7044   20.4597 C   0  0  0  0  0  0  0  0  0  0  0  0
  -26.2328  -31.5610   22.6701 C   0  0  1  0  0  0  0  0  0  0  0  0
  -26.8501  -28.2950   20.8342 C   0  0  1  0  0  0  0  0  0  0  0  0
  -27.1152  -13.8004   19.6370 C   0  0  2  0  0  0  0  0  0  0  0  0
  -30.4276  -22.2948   18.5318 C   0  0  0  0  0  0  0  0  0  0  0  0
  -33.8934  -26.0045   17.7357 C   0  0  0  0  0  0  0  0  0  0  0  0
  -28.2740  -30.0120   17.0413 C   0  0  0  0  0  0  0  0  0  0  0  0
  -30.4725  -29.2863   16.0883 C   0  0  0  0  0  0  0  0  0  0  0  0
  -30.4121  -30.7262   18.1244 C   0  0  0  0  0  0  0  0  0  0  0  0
  -31.2944  -16.7472   21.9377 C   0  0  0  0  0  0  0  0  0  0  0  0
  -32.1551  -25.5899   21.0946 C   0  0  0  0  0  0  0  0  0  0  0  0
  -28.9056  -16.5873   21.3432 C   0  0  0  0  0  0  0  0  0  0  0  0
  -26.1324  -20.7604   17.0368 C   0  0  0  0  0  0  0  0  0  0  0  0
  -28.9478  -22.4313   18.4125 C   0  0  0  0  0  0  0  0  0  0  0  0
  -27.5944  -21.1064   16.7812 C   0  0  0  0  0  0  0  0  0  0  0  0
  -25.4396  -21.7521   17.9639 C   0  0  0  0  0  0  0  0  0  1  0  0
  -29.7342  -28.2972   18.3036 C   0  0  1  0  0  0  0  0  0  0  0  0
  -32.9645  -26.3973   18.8738 C   0  0  2  0  0  0  0  0  0  0  0  0
  -29.7044  -29.5612   17.3987 C   0  0  0  0  0  0  0  0  0  0  0  0
  -25.6419  -11.8899   20.1484 N   0  0  0  0  0  0  0  0  0  0  0  0
  -25.9372  -13.1826   20.3672 N   0  0  0  0  0  0  0  0  0  0  0  0
  -27.6133  -28.1787   19.5800 N   0  0  0  0  0  0  0  0  0  0  0  0
  -29.5474  -14.2898   19.7364 N   0  0  0  0  0  0  0  0  0  0  0  0
  -25.2583  -15.0944   21.5898 N   0  0  0  0  0  0  0  0  0  0  0  0
  -22.2915  -11.9362   22.8624 N   0  0  0  0  0  0  0  0  0  0  0  0
  -26.5025  -30.1888   22.2977 N   0  0  0  0  0  0  0  0  0  0  0  0
  -31.0752  -27.8634   18.6803 N   0  0  0  0  0  0  0  0  0  0  0  0
  -28.3301  -21.1628   18.0212 N   0  0  3  0  0  0  0  0  0  0  0  0
  -30.2427  -16.0040   21.2583 N   0  0  0  0  0  0  0  0  0  0  0  0
  -33.0059  -25.3234   19.9063 N   0  3  0  0  0  0  0  0  0  0  0  0
  -22.9017  -14.1311   23.1244 O   0  0  0  0  0  0  0  0  0  0  0  0
  -26.3846  -30.4469   19.9864 O   0  0  0  0  0  0  0  0  0  0  0  0
  -29.5752  -28.9239   20.5834 O   0  0  0  0  0  0  0  0  0  0  0  0
  -30.9124  -25.7295   17.7875 O   0  0  0  0  0  0  0  0  0  0  0  0
  -31.7796  -14.6786   20.1657 O   0  0  0  0  0  0  0  0  0  0  0  0
  -22.1534   -6.6501   21.1093 O   0  0  0  0  0  0  0  0  0  0  0  0
  -25.5054  -23.0516   17.3779 O   0  0  0  0  0  0  0  0  0  1  0  0
  -20.8264   -4.6135   26.0586 F   0  0  0  0  0  0  0  0  0  0  0  0
  -28.3435  -18.5972   16.9525 F   0  0  0  0  0  0  0  0  0  0  0  0
  -28.8835  -19.2235   22.3603 F   0  0  0  0  0  0  0  0  0  0  0  0
  -20.3938   -7.9891   22.7687 F   0  0  0  0  0  0  0  0  0  0  0  0
  1  2  1  0  0  0  0
  1  5  2  0  0  0  0
  2  6  2  0  0  0  0
  3  8  2  0  0  0  0
  3 17  1  0  0  0  0
  4  9  1  0  0  0  0
  4 17  2  0  0  0  0
  5 19  1  0  0  0  0
  6 21  1  0  0  0  0
  7 10  2  0  0  0  0
  7 20  1  0  0  0  0
  8 25  1  0  0  0  0
  9 25  2  0  0  0  0
 10 26  1  0  0  0  0
 11 12  2  0  0  0  0
 11 27  1  0  0  0  0
 12 28  1  0  0  0  0
 13 22  1  0  0  0  0
 13 26  2  0  0  0  0
 14 23  2  0  0  0  0
 14 29  1  0  0  0  0
 15 24  1  0  0  0  0
 15 30  2  0  0  0  0
 16 28  2  0  0  0  0
 16 31  1  0  0  0  0
 17 32  1  0  0  0  0
 18 32  1  0  0  0  0
 18 33  2  0  0  0  0
 18 34  1  0  0  0  0
 19 21  2  0  0  0  0
 19 39  1  0  0  0  0
 20 22  2  0  0  0  0
 20 40  1  0  0  0  0
 21 48  1  0  0  0  0
 22 41  1  0  0  0  0
 23 30  1  0  0  0  0
 23 58  1  0  0  0  0
 24 29  2  0  0  0  0
 24 74  1  0  0  0  0
 25 82  1  0  0  0  0
 26 83  1  0  0  0  0
 27 31  2  0  0  0  0
 27 82  1  0  0  0  0
 28 84  1  0  0  0  0
 29 85  1  0  0  0  0
 30 86  1  0  0  0  0
 31 87  1  0  0  0  0
 32 66  2  0  0  0  0
 33 67  1  0  0  0  0
 33 70  1  0  0  0  0
 34 71  1  0  0  0  0
 34 77  2  0  0  0  0
 35 49  1  0  0  0  0
 35 72  1  0  0  0  0
 35 78  2  0  0  0  0
 36 63  1  0  0  0  0
 36 68  1  0  0  0  0
 36 79  2  0  0  0  0
 37 64  1  0  0  0  0
 37 73  1  0  0  0  0
 37 80  2  0  0  0  0
 38 69  1  0  0  0  0
 38 75  1  0  0  0  0
 38 81  2  0  0  0  0
 39 42  1  0  0  0  0
 40 49  1  0  0  0  0
 41 68  1  0  0  0  0
 42 44  1  0  0  0  0
 43 45  1  0  0  0  0
 43 46  1  0  0  0  0
 44 48  1  0  0  0  0
 45 50  1  0  0  0  0
 46 69  1  0  0  0  0
 47 50  1  0  0  0  0
 47 69  1  0  0  0  0
 48 72  1  0  0  0  0
 49 68  1  0  0  0  0
 50 67  1  0  0  0  0
 51 60  1  0  0  0  0
 52 64  1  0  0  0  0
 53 65  1  0  0  0  0
 54 65  1  0  0  0  0
 55 65  1  0  0  0  0
 56 75  1  0  0  0  0
 57 76  1  0  0  0  0
 58 75  1  0  0  0  0
 59 61  1  0  0  0  0
 59 62  1  0  0  0  0
 60 74  1  0  0  0  0
 61 74  1  0  0  0  0
 62 83  1  0  0  0  0
 63 65  1  0  0  0  0
 63 73  1  0  0  0  0
 64 76  1  0  0  0  0
 66 67  1  0  0  0  0
M  CHG  1  76   1
M  ISO  4  38 100  62 101  75 100  83 101
M  END
> <Batch ID>
0018

> <Smiles>
CCN(CC[101CH2:1][101O:1]c1ccc2c(c1)CN(C(=O)C(NC(=O)C(C)NC)C(C)(C)C)C(C(=O)NC1CCCc3ccccc31)C2)c1cc(F)c(C[100N:0](C)[100C:0](=O)N2CCCC(n3nc(-c4ccc(Oc5ccc(F)cc5F)cc4)c(C(N)=O)c3N)C2)cc1F

> <Shape>
0.354

> <Color>
0.136

> <Negative vol penalty>
0.000

$$$$

  -OEChem-04042321033D

 89 98  0     1  0  0  0  0  0999 V2000
  -22.1728  -19.1270   22.8366 C   0  0  0  0  0  0  0  0  0  0  0  0
  -23.4556  -19.6525   22.9535 C   0  0  0  0  0  0  0  0  0  0  0  0
  -22.9984   -9.9515   20.7195 C   0  0  0  0  0  0  0  0  0  0  0  0
  -23.7301  -10.4773   22.9612 C   0  0  0  0  0  0  0  0  0  0  0  0
  -32.7618  -17.9226   22.5137 C   0  0  0  0  0  0  0  0  0  0  0  0
  -21.1492  -19.9038   22.2955 C   0  0  0  0  0  0  0  0  0  0  0  0
  -23.7159  -20.9548   22.5283 C   0  0  0  0  0  0  0  0  0  0  0  0
  -26.5228  -23.5566   25.8445 C   0  0  0  0  0  0  0  0  0  0  0  0
  -32.1422  -16.8745   21.8333 C   0  0  0  0  0  0  0  0  0  0  0  0
  -22.2191   -8.9079   21.2186 C   0  0  0  0  0  0  0  0  0  0  0  0
  -22.9508   -9.4337   23.4604 C   0  0  0  0  0  0  0  0  0  0  0  0
  -27.8924  -23.2962   25.8618 C   0  0  0  0  0  0  0  0  0  0  0  0
  -19.6942   -8.8796   24.1730 C   0  0  0  0  0  0  0  0  0  0  0  0
  -18.9222   -9.1341   25.3065 C   0  0  0  0  0  0  0  0  0  0  0  0
  -30.6112  -18.9661   22.8646 C   0  0  0  0  0  0  0  0  0  0  0  0
  -28.2796  -25.2779   24.5419 C   0  0  0  0  0  0  0  0  0  0  0  0
  -20.0990   -7.3932   26.4989 C   0  0  0  0  0  0  0  0  0  0  0  0
  -23.7540  -10.7362   21.5908 C   0  0  0  0  0  0  0  0  0  0  0  0
  -31.9963  -18.9685   23.0294 C   0  0  0  0  0  0  0  0  0  0  0  0
  -24.1688  -13.1535   20.8893 C   0  0  0  0  0  0  0  0  0  0  0  0
  -21.3948  -21.2196   21.8725 C   0  0  0  0  0  0  0  0  0  0  0  0
  -26.0195  -24.6754   25.1654 C   0  0  0  0  0  0  0  0  0  0  0  0
  -22.6949  -21.7494   21.9799 C   0  0  0  0  0  0  0  0  0  0  0  0
  -26.9035  -25.5516   24.5196 C   0  0  0  0  0  0  0  0  0  0  0  0
  -29.9916  -17.9179   22.1842 C   0  0  0  0  0  0  0  0  0  0  0  0
  -30.7571  -16.8721   21.6685 C   0  0  0  0  0  0  0  0  0  0  0  0
  -22.1952   -8.6490   22.5890 C   0  0  0  0  0  0  0  0  0  0  0  0
  -28.7707  -24.1554   25.2080 C   0  0  0  0  0  0  0  0  0  0  0  0
  -20.6685   -7.8818   24.2024 C   0  0  0  0  0  0  0  0  0  0  0  0
  -19.1246   -8.3909   26.4694 C   0  0  0  0  0  0  0  0  0  0  0  0
  -20.8710   -7.1387   25.3653 C   0  0  0  0  0  0  0  0  0  0  0  0
  -24.5596  -11.8140   21.0757 C   0  0  0  0  0  0  0  0  0  0  0  0
  -25.2861  -13.7697   20.3810 C   0  0  0  0  0  0  0  0  0  0  0  0
  -32.6568  -20.0853   23.7531 C   0  0  0  0  0  0  0  0  0  0  0  0
  -22.9085  -13.7845   21.1523 C   0  0  0  0  0  0  0  0  0  0  0  0
  -24.0462  -25.1097   22.7115 C   0  0  0  0  0  0  0  0  0  0  0  0
  -24.3797  -28.2385   23.5001 C   0  0  0  0  0  0  0  0  0  0  0  0
  -26.2592  -30.6665   24.9899 C   0  0  0  0  0  0  0  0  0  0  0  0
  -30.7773  -14.6915   20.4072 C   0  0  0  0  0  0  0  0  0  0  0  0
  -20.2672  -22.0046   21.2504 C   0  0  0  0  0  0  0  0  0  0  0  0
  -24.5420  -24.9569   25.1787 C   0  0  0  0  0  0  0  0  0  0  0  0
  -26.4156  -26.7776   23.7934 C   0  0  0  0  0  0  0  0  0  0  0  0
  -20.5411  -23.5042   21.1694 C   0  0  0  0  0  0  0  0  0  0  0  0
  -29.6237  -11.8179   18.6496 C   0  0  0  0  0  0  0  0  0  0  0  0
  -27.5083  -20.1117   19.2061 C   0  0  0  0  0  0  0  0  0  0  0  0
  -26.2316  -19.6682   19.8915 C   0  0  0  0  0  0  0  0  0  0  0  0
  -21.9433  -23.7622   20.6273 C   0  0  0  0  0  0  0  0  0  0  0  0
  -28.1713  -11.6709   19.1088 C   0  0  0  0  0  0  0  0  0  0  0  0
  -30.5303  -12.2994   19.7810 C   0  0  0  0  0  0  0  0  0  0  0  0
  -28.6279  -13.3746   20.9188 C   0  0  0  0  0  0  0  0  0  0  0  0
  -28.5786  -19.6487   20.1711 C   0  0  0  0  0  0  0  0  0  0  0  0
  -26.5645  -18.2899   20.4353 C   0  0  0  0  0  0  0  0  0  0  0  0
  -23.0110  -23.1664   21.5528 C   0  0  1  0  0  0  0  0  0  0  0  0
  -24.0922  -25.8438   24.0218 C   0  0  1  0  0  0  0  0  0  0  0  0
  -27.6650  -12.9541   19.7964 C   0  0  2  0  0  0  0  0  0  0  0  0
  -26.2899  -33.1349   25.4408 C   0  0  0  0  0  0  0  0  0  0  0  0
  -25.1703  -28.7562   20.5989 C   0  0  0  0  0  0  0  0  0  0  0  0
  -26.0864  -30.9728   21.3170 C   0  0  0  0  0  0  0  0  0  0  0  0
  -23.6561  -30.4815   21.5913 C   0  0  0  0  0  0  0  0  0  0  0  0
  -26.2574  -30.2488   27.9198 C   0  0  0  0  0  0  0  0  0  0  0  0
  -28.5063  -17.9411   22.0220 C   0  0  0  0  0  0  0  0  0  0  0  0
  -32.0562  -22.6268   25.8001 C   0  0  0  0  0  0  0  0  0  0  0  0
  -32.5207  -22.4881   24.3566 C   0  0  0  0  0  0  0  0  0  0  0  0
  -30.5419  -22.7407   25.9273 C   0  0  0  0  0  0  0  0  0  1  0  0
  -25.3293  -29.3446   23.1077 C   0  0  1  0  0  0  0  0  0  0  0  0
  -25.8911  -31.7660   25.9697 C   0  0  2  0  0  0  0  0  0  0  0  0
  -25.0698  -29.8647   21.6657 C   0  0  0  0  0  0  0  0  0  0  0  0
  -25.8263  -11.5915   20.7150 N   0  0  0  0  0  0  0  0  0  0  0  0
  -26.2410  -12.7995   20.2967 N   0  0  0  0  0  0  0  0  0  0  0  0
  -24.9617  -27.0063   23.8296 N   0  0  0  0  0  0  0  0  0  0  0  0
  -29.9901  -13.5208   20.3822 N   0  0  0  0  0  0  0  0  0  0  0  0
  -25.5352  -15.0413   20.0022 N   0  0  0  0  0  0  0  0  0  0  0  0
  -21.8671  -13.0051   21.6742 N   0  0  0  0  0  0  0  0  0  0  0  0
  -30.1465  -15.7984   20.9743 N   0  0  0  0  0  0  0  0  0  0  0  0
  -31.9969  -21.3088   23.7247 N   0  0  0  0  0  0  0  0  0  0  0  0
  -23.2057  -24.0129   22.7104 N   0  0  0  0  0  0  0  0  0  0  0  0
  -25.2140  -30.3674   24.1416 N   0  0  0  0  0  0  0  0  0  0  0  0
  -28.0685  -18.3034   20.6393 N   0  3  0  0  0  0  0  0  0  0  0  0
  -26.5775  -31.5481   27.2745 N   0  3  0  0  0  0  0  0  0  0  0  0
  -33.7338  -19.8864   24.3090 O   0  0  0  0  0  0  0  0  0  0  0  0
  -22.7066  -14.9997   20.9156 O   0  0  0  0  0  0  0  0  0  0  0  0
  -24.7220  -25.5098   21.7708 O   0  0  0  0  0  0  0  0  0  0  0  0
  -23.1667  -28.4618   23.5205 O   0  0  0  0  0  0  0  0  0  0  0  0
  -27.3646  -30.1294   24.9757 O   0  0  0  0  0  0  0  0  0  0  0  0
  -31.9163  -14.7178   19.9341 O   0  0  0  0  0  0  0  0  0  0  0  0
  -21.4347   -7.6309   23.0765 O   0  0  0  0  0  0  0  0  0  0  0  0
  -30.1079  -23.9033   25.2228 O   0  0  0  0  0  0  0  0  0  1  0  0
  -18.3842   -8.6365   27.5584 F   0  0  0  0  0  0  0  0  0  0  0  0
  -21.8063   -6.1797   25.4000 F   0  0  0  0  0  0  0  0  0  0  0  0
  1  2  1  0  0  0  0
  1  6  2  0  0  0  0
  2  7  2  0  0  0  0
  3 10  2  0  0  0  0
  3 18  1  0  0  0  0
  4 11  1  0  0  0  0
  4 18  2  0  0  0  0
  5  9  2  0  0  0  0
  5 19  1  0  0  0  0
  6 21  1  0  0  0  0
  7 23  1  0  0  0  0
  8 12  2  0  0  0  0
  8 22  1  0  0  0  0
  9 26  1  0  0  0  0
 10 27  1  0  0  0  0
 11 27  2  0  0  0  0
 12 28  1  0  0  0  0
 13 14  2  0  0  0  0
 13 29  1  0  0  0  0
 14 30  1  0  0  0  0
 15 19  2  0  0  0  0
 15 25  1  0  0  0  0
 16 24  1  0  0  0  0
 16 28  2  0  0  0  0
 17 30  2  0  0  0  0
 17 31  1  0  0  0  0
 18 32  1  0  0  0  0
 19 34  1  0  0  0  0
 20 32  1  0  0  0  0
 20 33  2  0  0  0  0
 20 35  1  0  0  0  0
 21 23  2  0  0  0  0
 21 40  1  0  0  0  0
 22 24  2  0  0  0  0
 22 41  1  0  0  0  0
 23 53  1  0  0  0  0
 24 42  1  0  0  0  0
 25 26  2  0  0  0  0
 25 61  1  0  0  0  0
 26 74  1  0  0  0  0
 27 86  1  0  0  0  0
 28 87  1  0  0  0  0
 29 31  2  0  0  0  0
 29 86  1  0  0  0  0
 30 88  1  0  0  0  0
 31 89  1  0  0  0  0
 32 68  2  0  0  0  0
 33 69  1  0  0  0  0
 33 72  1  0  0  0  0
 34 75  1  0  0  0  0
 34 80  2  0  0  0  0
 35 73  1  0  0  0  0
 35 81  2  0  0  0  0
 36 54  1  0  0  0  0
 36 76  1  0  0  0  0
 36 82  2  0  0  0  0
 37 65  1  0  0  0  0
 37 70  1  0  0  0  0
 37 83  2  0  0  0  0
 38 66  1  0  0  0  0
 38 77  1  0  0  0  0
 38 84  2  0  0  0  0
 39 71  1  0  0  0  0
 39 74  1  0  0  0  0
 39 85  2  0  0  0  0
 40 43  1  0  0  0  0
 41 54  1  0  0  0  0
 42 70  1  0  0  0  0
 43 47  1  0  0  0  0
 44 48  1  0  0  0  0
 44 49  1  0  0  0  0
 45 46  1  0  0  0  0
 45 51  1  0  0  0  0
 46 52  1  0  0  0  0
 47 53  1  0  0  0  0
 48 55  1  0  0  0  0
 49 71  1  0  0  0  0
 50 55  1  0  0  0  0
 50 71  1  0  0  0  0
 51 78  1  0  0  0  0
 52 78  1  0  0  0  0
 53 76  1  0  0  0  0
 54 70  1  0  0  0  0
 55 69  1  0  0  0  0
 56 66  1  0  0  0  0
 57 67  1  0  0  0  0
 58 67  1  0  0  0  0
 59 67  1  0  0  0  0
 60 79  1  0  0  0  0
 61 78  1  0  0  0  0
 62 63  1  0  0  0  0
 62 64  1  0  0  0  0
 63 75  1  0  0  0  0
 64 87  1  0  0  0  0
 65 67  1  0  0  0  0
 65 77  1  0  0  0  0
 66 79  1  0  0  0  0
 68 69  1  0  0  0  0
M  CHG  2  78   1  79   1
M  ISO  4  39 100  64 101  74 100  87 101
M  END
> <Batch ID>
0018

> <Smiles>
CNC(C)C(=O)NC(C(=O)N1Cc2cc([101O:1][101CH2:1]CCNC(=O)c3ccc([100NH:0][100C:0](=O)N4CCCC(n5nc(-c6ccc(Oc7ccc(F)cc7F)cc6)c(C(N)=O)c5N)C4)c(CN4CCCC4)c3)ccc2CC1C(=O)NC1CCCc2ccccc21)C(C)(C)C

> <Shape>
0.248

> <Color>
0.161

> <Negative vol penalty>
0.000

$$$$

  -OEChem-04042321033D

 84 92  0     1  0  0  0  0  0999 V2000
  -21.7623  -11.8230   20.2708 C   0  0  0  0  0  0  0  0  0  0  0  0
  -21.6024  -13.0293   20.9451 C   0  0  0  0  0  0  0  0  0  0  0  0
  -29.7931  -27.2122   24.8064 C   0  0  0  0  0  0  0  0  0  0  0  0
  -28.0063  -27.3654   26.4253 C   0  0  0  0  0  0  0  0  0  0  0  0
  -23.0402  -11.3766   19.9368 C   0  0  0  0  0  0  0  0  0  0  0  0
  -22.7204  -13.7893   21.2868 C   0  0  0  0  0  0  0  0  0  0  0  0
  -22.1053  -18.7131   20.2752 C   0  0  0  0  0  0  0  0  0  0  0  0
  -19.8519  -27.0752   21.7552 C   0  0  0  0  0  0  0  0  0  0  0  0
  -19.3239  -25.8379   22.1236 C   0  0  0  0  0  0  0  0  0  0  0  0
  -30.7305  -27.3874   25.8243 C   0  0  0  0  0  0  0  0  0  0  0  0
  -28.9437  -27.5406   27.4433 C   0  0  0  0  0  0  0  0  0  0  0  0
  -21.3361  -19.4557   21.1699 C   0  0  0  0  0  0  0  0  0  0  0  0
  -33.6076  -27.4334   28.0458 C   0  0  0  0  0  0  0  0  0  0  0  0
  -34.7230  -26.5959   28.0514 C   0  0  0  0  0  0  0  0  0  0  0  0
  -23.3512  -20.2969   22.1949 C   0  0  0  0  0  0  0  0  0  0  0  0
  -18.6836  -28.1211   23.5932 C   0  0  0  0  0  0  0  0  0  0  0  0
  -33.2768  -24.6709   28.2508 C   0  0  0  0  0  0  0  0  0  0  0  0
  -28.4310  -27.2013   25.1068 C   0  0  0  0  0  0  0  0  0  0  0  0
  -26.9329  -25.8034   23.5871 C   0  0  0  0  0  0  0  0  0  0  0  0
  -24.1739  -12.1362   20.2660 C   0  0  0  0  0  0  0  0  0  0  0  0
  -23.5057  -18.7484   20.3408 C   0  0  0  0  0  0  0  0  0  0  0  0
  -24.0148  -13.3520   20.9580 C   0  0  0  0  0  0  0  0  0  0  0  0
  -24.1360  -19.5559   21.2983 C   0  0  0  0  0  0  0  0  0  0  0  0
  -19.5318  -28.2168   22.4900 C   0  0  0  0  0  0  0  0  0  0  0  0
  -18.4757  -25.7421   23.2268 C   0  0  0  0  0  0  0  0  0  0  0  0
  -30.3058  -27.5516   27.1427 C   0  0  0  0  0  0  0  0  0  0  0  0
  -21.9589  -20.2455   22.1318 C   0  0  0  0  0  0  0  0  0  0  0  0
  -32.3267  -26.8896   28.1428 C   0  0  0  0  0  0  0  0  0  0  0  0
  -34.5576  -25.2147   28.1538 C   0  0  0  0  0  0  0  0  0  0  0  0
  -18.1555  -26.8837   23.9616 C   0  0  0  0  0  0  0  0  0  0  0  0
  -32.1613  -25.5084   28.2452 C   0  0  0  0  0  0  0  0  0  0  0  0
  -27.4621  -27.0209   24.0557 C   0  0  0  0  0  0  0  0  0  0  0  0
  -26.0606  -26.1689   22.5911 C   0  0  0  0  0  0  0  0  0  0  0  0
  -27.2053  -24.4621   24.0141 C   0  0  0  0  0  0  0  0  0  0  0  0
  -25.7806  -16.5969   20.8881 C   0  0  0  0  0  0  0  0  0  0  0  0
  -27.7507  -19.0656   20.1484 C   0  0  0  0  0  0  0  0  0  0  0  0
  -28.2169  -22.4403   19.9477 C   0  0  0  0  0  0  0  0  0  0  0  0
  -22.2887  -30.3565   21.2679 C   0  0  0  0  0  0  0  0  0  0  0  0
  -25.5378  -11.5897   19.9258 C   0  0  0  0  0  0  0  0  0  0  0  0
  -24.3213  -17.9624   19.3512 C   0  0  0  0  0  0  0  0  0  0  0  0
  -25.6363  -19.6443   21.3974 C   0  0  0  0  0  0  0  0  0  0  0  0
  -26.6473  -12.6360   19.9927 C   0  0  0  0  0  0  0  0  0  0  0  0
  -25.5018  -30.1728   19.7452 C   0  0  0  0  0  0  0  0  0  0  0  0
  -26.5317  -13.4555   21.2741 C   0  0  0  0  0  0  0  0  0  0  0  0
  -26.2856  -29.2281   20.6579 C   0  0  0  0  0  0  0  0  0  0  0  0
  -24.5485  -31.0629   20.5394 C   0  0  0  0  0  0  0  0  0  0  0  0
  -24.4110  -29.3946   22.3481 C   0  0  0  0  0  0  0  0  0  0  0  0
  -25.2015  -14.2167   21.3240 C   0  0  1  0  0  0  0  0  0  0  0  0
  -25.7371  -17.6727   19.8400 C   0  0  1  0  0  0  0  0  0  0  0  0
  -25.3451  -28.4379   21.5875 C   0  0  2  0  0  0  0  0  0  0  0  0
  -29.9443  -24.1579   19.3451 C   0  0  0  0  0  0  0  0  0  0  0  0
  -29.1759  -18.5583   22.7983 C   0  0  0  0  0  0  0  0  0  0  0  0
  -30.2221  -20.8233   22.5892 C   0  0  0  0  0  0  0  0  0  0  0  0
  -30.6944  -19.0704   20.8783 C   0  0  0  0  0  0  0  0  0  0  0  0
  -17.0556  -24.3950   24.7529 C   0  0  0  0  0  0  0  0  0  0  0  0
  -26.5372  -23.5348   17.7706 C   0  0  0  0  0  0  0  0  0  0  0  0
  -20.0964  -29.5397   22.0962 C   0  0  0  0  0  0  0  0  0  0  0  0
  -19.5884  -22.7185   23.2778 C   0  0  0  0  0  0  0  0  0  0  0  0
  -18.2470  -23.2999   22.8477 C   0  0  0  0  0  0  0  0  0  0  0  0
  -19.9368  -21.4250   22.5509 C   0  0  0  0  0  0  0  0  0  1  0  0
  -28.4189  -20.1711   20.9296 C   0  0  1  0  0  0  0  0  0  0  0  0
  -28.7821  -23.3152   18.8433 C   0  0  2  0  0  0  0  0  0  0  0  0
  -29.5995  -19.6528   21.7985 C   0  0  0  0  0  0  0  0  0  0  0  0
  -26.9676  -28.0805   23.4103 N   0  0  0  0  0  0  0  0  0  0  0  0
  -26.1185  -27.5300   22.5259 N   0  0  0  0  0  0  0  0  0  0  0  0
  -26.3901  -18.8522   20.4115 N   0  0  0  0  0  0  0  0  0  0  0  0
  -23.6832  -30.2521   21.3995 N   0  0  0  0  0  0  0  0  0  0  0  0
  -25.2576  -25.4556   21.7734 N   0  0  0  0  0  0  0  0  0  0  0  0
  -28.1283  -24.2652   25.0503 N   0  0  0  0  0  0  0  0  0  0  0  0
  -25.2567  -15.3870   20.4744 N   0  0  0  0  0  0  0  0  0  0  0  0
  -28.7961  -21.1891   19.9550 N   0  0  0  0  0  0  0  0  0  0  0  0
  -21.5422  -29.5487   22.1169 N   0  0  0  0  0  0  0  0  0  0  0  0
  -17.9460  -24.4970   23.5951 N   0  0  3  0  0  0  0  0  0  0  0  0
  -27.7300  -24.2307   18.3181 N   0  3  0  0  0  0  0  0  0  0  0  0
  -26.6591  -23.4666   23.4811 O   0  0  0  0  0  0  0  0  0  0  0  0
  -26.2557  -16.8457   21.9899 O   0  0  0  0  0  0  0  0  0  0  0  0
  -28.4098  -18.4199   19.3297 O   0  0  0  0  0  0  0  0  0  0  0  0
  -27.3509  -22.8294   20.7283 O   0  0  0  0  0  0  0  0  0  0  0  0
  -21.7489  -31.1097   20.4504 O   0  0  0  0  0  0  0  0  0  0  0  0
  -31.2202  -27.7223   28.1363 O   0  0  0  0  0  0  0  0  0  0  0  0
  -21.2104  -20.9708   23.0068 O   0  0  0  0  0  0  0  0  0  1  0  0
  -35.6288  -24.4105   28.1576 F   0  0  0  0  0  0  0  0  0  0  0  0
  -17.3414  -26.8031   25.0237 F   0  0  0  0  0  0  0  0  0  0  0  0
  -30.9332  -24.9801   28.3375 F   0  0  0  0  0  0  0  0  0  0  0  0
  1  2  1  0  0  0  0
  1  5  2  0  0  0  0
  2  6  2  0  0  0  0
  3 10  2  0  0  0  0
  3 18  1  0  0  0  0
  4 11  1  0  0  0  0
  4 18  2  0  0  0  0
  5 20  1  0  0  0  0
  6 22  1  0  0  0  0
  7 12  2  0  0  0  0
  7 21  1  0  0  0  0
  8  9  2  0  0  0  0
  8 24  1  0  0  0  0
  9 25  1  0  0  0  0
 10 26  1  0  0  0  0
 11 26  2  0  0  0  0
 12 27  1  0  0  0  0
 13 14  2  0  0  0  0
 13 28  1  0  0  0  0
 14 29  1  0  0  0  0
 15 23  1  0  0  0  0
 15 27  2  0  0  0  0
 16 24  2  0  0  0  0
 16 30  1  0  0  0  0
 17 29  2  0  0  0  0
 17 31  1  0  0  0  0
 18 32  1  0  0  0  0
 19 32  1  0  0  0  0
 19 33  2  0  0  0  0
 19 34  1  0  0  0  0
 20 22  2  0  0  0  0
 20 39  1  0  0  0  0
 21 23  2  0  0  0  0
 21 40  1  0  0  0  0
 22 48  1  0  0  0  0
 23 41  1  0  0  0  0
 24 57  1  0  0  0  0
 25 30  2  0  0  0  0
 25 73  1  0  0  0  0
 26 80  1  0  0  0  0
 27 81  1  0  0  0  0
 28 31  2  0  0  0  0
 28 80  1  0  0  0  0
 29 82  1  0  0  0  0
 30 83  1  0  0  0  0
 31 84  1  0  0  0  0
 32 64  2  0  0  0  0
 33 65  1  0  0  0  0
 33 68  1  0  0  0  0
 34 69  1  0  0  0  0
 34 75  2  0  0  0  0
 35 49  1  0  0  0  0
 35 70  1  0  0  0  0
 35 76  2  0  0  0  0
 36 61  1  0  0  0  0
 36 66  1  0  0  0  0
 36 77  2  0  0  0  0
 37 62  1  0  0  0  0
 37 71  1  0  0  0  0
 37 78  2  0  0  0  0
 38 67  1  0  0  0  0
 38 72  1  0  0  0  0
 38 79  2  0  0  0  0
 39 42  1  0  0  0  0
 40 49  1  0  0  0  0
 41 66  1  0  0  0  0
 42 44  1  0  0  0  0
 43 45  1  0  0  0  0
 43 46  1  0  0  0  0
 44 48  1  0  0  0  0
 45 50  1  0  0  0  0
 46 67  1  0  0  0  0
 47 50  1  0  0  0  0
 47 67  1  0  0  0  0
 48 70  1  0  0  0  0
 49 66  1  0  0  0  0
 50 65  1  0  0  0  0
 51 62  1  0  0  0  0
 52 63  1  0  0  0  0
 53 63  1  0  0  0  0
 54 63  1  0  0  0  0
 55 73  1  0  0  0  0
 56 74  1  0  0  0  0
 57 72  1  0  0  0  0
 58 59  1  0  0  0  0
 58 60  1  0  0  0  0
 59 73  1  0  0  0  0
 60 81  1  0  0  0  0
 61 63  1  0  0  0  0
 61 71  1  0  0  0  0
 62 74  1  0  0  0  0
 64 65  1  0  0  0  0
M  CHG  1  74   1
M  ISO  4  38 100  60 101  72 100  81 101
M  END
> <Batch ID>
0018

> <Smiles>
CNC(C)C(=O)NC(C(=O)N1Cc2cc([101O:1][101CH2:1]CCN(C)c3ccc(C[100NH:0][100C:0](=O)N4CCCC(n5nc(-c6ccc(Oc7ccc(F)cc7F)cc6)c(C(N)=O)c5N)C4)cc3F)ccc2CC1C(=O)NC1CCCc2ccccc21)C(C)(C)C

> <Shape>
0.188

> <Color>
0.083

> <Negative vol penalty>
0.000

$$$$

  -OEChem-04042321033D

 84 93  0     1  0  0  0  0  0999 V2000
  -34.3750  -11.5614   18.6188 C   0  0  0  0  0  0  0  0  0  0  0  0
  -33.8030  -12.8161   18.4346 C   0  0  0  0  0  0  0  0  0  0  0  0
  -24.7563  -28.9951   22.4558 C   0  0  0  0  0  0  0  0  0  0  0  0
  -24.6860  -30.5569   20.6139 C   0  0  0  0  0  0  0  0  0  0  0  0
  -33.5979  -10.4135   18.4691 C   0  0  0  0  0  0  0  0  0  0  0  0
  -32.4537  -12.9236   18.0994 C   0  0  0  0  0  0  0  0  0  0  0  0
  -28.5650  -17.3200   19.8473 C   0  0  0  0  0  0  0  0  0  0  0  0
  -26.6089  -22.3439   20.8572 C   0  0  0  0  0  0  0  0  0  0  0  0
  -27.2434  -22.5557   18.5356 C   0  0  0  0  0  0  0  0  0  0  0  0
  -27.8813  -22.7648   21.2434 C   0  0  0  0  0  0  0  0  0  0  0  0
  -28.5159  -22.9767   18.9218 C   0  0  0  0  0  0  0  0  0  0  0  0
  -24.2999  -29.9917   23.3184 C   0  0  0  0  0  0  0  0  0  0  0  0
  -24.2295  -31.5536   21.4764 C   0  0  0  0  0  0  0  0  0  0  0  0
  -28.1048  -18.4723   19.2115 C   0  0  0  0  0  0  0  0  0  0  0  0
  -21.3541  -31.4615   24.0895 C   0  0  0  0  0  0  0  0  0  0  0  0
  -20.3411  -31.1271   24.9881 C   0  0  0  0  0  0  0  0  0  0  0  0
  -26.1405  -17.2775   18.4813 C   0  0  0  0  0  0  0  0  0  0  0  0
  -21.7927  -31.6925   26.8348 C   0  0  0  0  0  0  0  0  0  0  0  0
  -24.9494  -29.2777   21.1036 C   0  0  0  0  0  0  0  0  0  0  0  0
  -24.6402  -27.3411   19.4722 C   0  0  0  0  0  0  0  0  0  0  0  0
  -32.2361  -10.5073   18.1414 C   0  0  0  0  0  0  0  0  0  0  0  0
  -27.8205  -16.1329   19.7956 C   0  0  0  0  0  0  0  0  0  0  0  0
  -31.6580  -11.7758   17.9438 C   0  0  0  0  0  0  0  0  0  0  0  0
  -26.5922  -16.1123   19.1194 C   0  0  0  0  0  0  0  0  0  0  0  0
  -26.2899  -22.2392   19.5033 C   0  0  0  0  0  0  0  0  0  0  0  0
  -28.8348  -23.0813   20.2757 C   0  0  0  0  0  0  0  0  0  0  0  0
  -24.0365  -31.2710   22.8287 C   0  0  0  0  0  0  0  0  0  0  0  0
  -26.8937  -18.4504   18.5259 C   0  0  0  0  0  0  0  0  0  0  0  0
  -22.5864  -31.9114   24.5635 C   0  0  0  0  0  0  0  0  0  0  0  0
  -20.5603  -31.2427   26.3608 C   0  0  0  0  0  0  0  0  0  0  0  0
  -22.8057  -32.0269   25.9361 C   0  0  0  0  0  0  0  0  0  0  0  0
  -25.4214  -28.2487   20.2122 C   0  0  0  0  0  0  0  0  0  0  0  0
  -25.5553  -26.5779   18.7890 C   0  0  0  0  0  0  0  0  0  0  0  0
  -23.2148  -27.2004   19.4079 C   0  0  0  0  0  0  0  0  0  0  0  0
  -28.3269  -13.2161   18.6381 C   0  0  0  0  0  0  0  0  0  0  0  0
  -25.4895  -12.5766   20.0744 C   0  0  0  0  0  0  0  0  0  0  0  0
  -22.5141  -13.7518   21.2629 C   0  0  0  0  0  0  0  0  0  0  0  0
  -30.9381  -24.3980   19.9099 C   0  0  0  0  0  0  0  0  0  0  0  0
  -31.4478   -9.2368   17.9438 C   0  0  0  0  0  0  0  0  0  0  0  0
  -28.3178  -14.9058   20.5092 C   0  0  0  0  0  0  0  0  0  0  0  0
  -25.7453  -14.8687   19.0513 C   0  0  0  0  0  0  0  0  0  0  0  0
  -29.9363   -9.4498   17.9552 C   0  0  0  0  0  0  0  0  0  0  0  0
  -30.2806  -27.0984   17.4668 C   0  0  0  0  0  0  0  0  0  0  0  0
  -22.6969  -21.4167   19.1407 C   0  0  0  0  0  0  0  0  0  0  0  0
  -29.5583  -10.6401   17.0793 C   0  0  0  0  0  0  0  0  0  0  0  0
  -28.9240  -27.6388   17.9153 C   0  0  0  0  0  0  0  0  0  0  0  0
  -23.1848  -21.4670   17.7014 C   0  0  0  0  0  0  0  0  0  0  0  0
  -23.8315  -22.0688   19.9246 C   0  0  0  0  0  0  0  0  0  0  0  0
  -31.0707  -26.5129   18.6332 C   0  0  0  0  0  0  0  0  0  0  0  0
  -28.9665  -26.0009   19.8381 C   0  0  0  0  0  0  0  0  0  0  0  0
  -30.1919  -11.9343   17.6039 C   0  0  1  0  0  0  0  0  0  0  0  0
  -27.7262  -13.6125   19.9571 C   0  0  1  0  0  0  0  0  0  0  0  0
  -28.1343  -26.5597   18.6742 C   0  0  1  0  0  0  0  0  0  0  0  0
  -24.6966  -21.2278   17.8191 C   0  0  2  0  0  0  0  0  0  0  0  0
  -20.3846  -12.9847   22.3465 C   0  0  0  0  0  0  0  0  0  0  0  0
  -24.5200  -11.4893   17.3934 C   0  0  0  0  0  0  0  0  0  0  0  0
  -22.1763  -11.6314   18.2623 C   0  0  0  0  0  0  0  0  0  0  0  0
  -23.8301  -10.1350   19.3795 C   0  0  0  0  0  0  0  0  0  0  0  0
  -30.7960  -22.8170   21.7839 C   0  0  0  0  0  0  0  0  0  0  0  0
  -23.0033  -15.4091   23.6656 C   0  0  0  0  0  0  0  0  0  0  0  0
  -25.0284  -19.7362   17.8027 C   0  0  0  0  0  0  0  0  0  1  0  0
  -24.0407  -12.6393   19.6548 C   0  0  1  0  0  0  0  0  0  0  0  0
  -21.7906  -13.5165   22.5766 C   0  0  2  0  0  0  0  0  0  0  0  0
  -23.6584  -11.4968   18.6719 C   0  0  0  0  0  0  0  0  0  0  0  0
  -26.7319  -28.0791   20.0177 N   0  0  0  0  0  0  0  0  0  0  0  0
  -26.7812  -27.0560   19.1477 N   0  0  0  0  0  0  0  0  0  0  0  0
  -25.0296  -21.8202   19.1204 N   0  0  3  0  0  0  0  0  0  0  0  0
  -26.2775  -13.6928   19.7596 N   0  0  0  0  0  0  0  0  0  0  0  0
  -30.2852  -25.5311   19.3826 N   0  0  0  0  0  0  0  0  0  0  0  0
  -25.4228  -25.5512   17.9226 N   0  0  0  0  0  0  0  0  0  0  0  0
  -22.4227  -28.0667   20.1737 N   0  0  0  0  0  0  0  0  0  0  0  0
  -29.4571  -12.4289   18.7485 N   0  0  0  0  0  0  0  0  0  0  0  0
  -23.2593  -12.6543   20.8866 N   0  0  0  0  0  0  0  0  0  0  0  0
  -30.1507  -23.5167   20.6752 N   0  0  0  0  0  0  0  0  0  0  0  0
  -21.6919  -14.7875   23.3484 N   0  3  0  0  0  0  0  0  0  0  0  0
  -22.6604  -26.3215   18.7053 O   0  0  0  0  0  0  0  0  0  0  0  0
  -27.8028  -13.5952   17.5972 O   0  0  0  0  0  0  0  0  0  0  0  0
  -25.9050  -11.5772   20.6661 O   0  0  0  0  0  0  0  0  0  0  0  0
  -22.4240  -14.8025   20.6318 O   0  0  0  0  0  0  0  0  0  0  0  0
  -32.1516  -24.2119   19.7571 O   0  0  0  0  0  0  0  0  0  0  0  0
  -23.5909  -32.2437   23.6700 O   0  0  0  0  0  0  0  0  0  0  0  0
  -26.4425  -19.5735   17.9039 O   0  0  0  0  0  0  0  0  0  1  0  0
  -19.5869  -30.9230   27.2236 F   0  0  0  0  0  0  0  0  0  0  0  0
  -23.9871  -32.4596   26.3974 F   0  0  0  0  0  0  0  0  0  0  0  0
  1  2  1  0  0  0  0
  1  5  2  0  0  0  0
  2  6  2  0  0  0  0
  3 12  2  0  0  0  0
  3 19  1  0  0  0  0
  4 13  1  0  0  0  0
  4 19  2  0  0  0  0
  5 21  1  0  0  0  0
  6 23  1  0  0  0  0
  7 14  2  0  0  0  0
  7 22  1  0  0  0  0
  8 10  2  0  0  0  0
  8 25  1  0  0  0  0
  9 11  1  0  0  0  0
  9 25  2  0  0  0  0
 10 26  1  0  0  0  0
 11 26  2  0  0  0  0
 12 27  1  0  0  0  0
 13 27  2  0  0  0  0
 14 28  1  0  0  0  0
 15 16  2  0  0  0  0
 15 29  1  0  0  0  0
 16 30  1  0  0  0  0
 17 24  1  0  0  0  0
 17 28  2  0  0  0  0
 18 30  2  0  0  0  0
 18 31  1  0  0  0  0
 19 32  1  0  0  0  0
 20 32  1  0  0  0  0
 20 33  2  0  0  0  0
 20 34  1  0  0  0  0
 21 23  2  0  0  0  0
 21 39  1  0  0  0  0
 22 24  2  0  0  0  0
 22 40  1  0  0  0  0
 23 51  1  0  0  0  0
 24 41  1  0  0  0  0
 25 67  1  0  0  0  0
 26 74  1  0  0  0  0
 27 81  1  0  0  0  0
 28 82  1  0  0  0  0
 29 31  2  0  0  0  0
 29 81  1  0  0  0  0
 30 83  1  0  0  0  0
 31 84  1  0  0  0  0
 32 65  2  0  0  0  0
 33 66  1  0  0  0  0
 33 70  1  0  0  0  0
 34 71  1  0  0  0  0
 34 76  2  0  0  0  0
 35 52  1  0  0  0  0
 35 72  1  0  0  0  0
 35 77  2  0  0  0  0
 36 62  1  0  0  0  0
 36 68  1  0  0  0  0
 36 78  2  0  0  0  0
 37 63  1  0  0  0  0
 37 73  1  0  0  0  0
 37 79  2  0  0  0  0
 38 69  1  0  0  0  0
 38 74  1  0  0  0  0
 38 80  2  0  0  0  0
 39 42  1  0  0  0  0
 40 52  1  0  0  0  0
 41 68  1  0  0  0  0
 42 45  1  0  0  0  0
 43 46  1  0  0  0  0
 43 49  1  0  0  0  0
 44 47  1  0  0  0  0
 44 48  1  0  0  0  0
 45 51  1  0  0  0  0
 46 53  1  0  0  0  0
 47 54  1  0  0  0  0
 48 67  1  0  0  0  0
 49 69  1  0  0  0  0
 50 53  1  0  0  0  0
 50 69  1  0  0  0  0
 51 72  1  0  0  0  0
 52 68  1  0  0  0  0
 53 66  1  0  0  0  0
 54 61  1  0  0  0  0
 54 67  1  0  0  0  0
 55 63  1  0  0  0  0
 56 64  1  0  0  0  0
 57 64  1  0  0  0  0
 58 64  1  0  0  0  0
 59 74  1  0  0  0  0
 60 75  1  0  0  0  0
 61 82  1  0  0  0  0
 62 64  1  0  0  0  0
 62 73  1  0  0  0  0
 63 75  1  0  0  0  0
 65 66  1  0  0  0  0
M  CHG  1  75   1
M  ISO  4  38 100  61 101  74 100  82 101
M  END
> <Batch ID>
0018

> <Smiles>
CNC(C)C(=O)NC(C(=O)N1Cc2cc([101O:1][101CH2:1]C3CCCN3c3ccc([100N:0](C)[100C:0](=O)N4CCCC(n5nc(-c6ccc(Oc7ccc(F)cc7F)cc6)c(C(N)=O)c5N)C4)cc3)ccc2CC1C(=O)NC1CCCc2ccccc21)C(C)(C)C

> <Shape>
0.229

> <Color>
0.075

> <Negative vol penalty>
0.000

$$$$

  -OEChem-04042321033D

 86 94  0     1  0  0  0  0  0999 V2000
  -16.6258  -28.4864   23.5463 C   0  0  0  0  0  0  0  0  0  0  0  0
  -17.4151  -27.8962   22.5644 C   0  0  0  0  0  0  0  0  0  0  0  0
  -27.7717  -17.9082   20.8724 C   0  0  0  0  0  0  0  0  0  0  0  0
  -29.8259  -18.0692   22.1340 C   0  0  0  0  0  0  0  0  0  0  0  0
  -17.1745  -29.4449   24.3972 C   0  0  0  0  0  0  0  0  0  0  0  0
  -18.7533  -28.2650   22.4321 C   0  0  0  0  0  0  0  0  0  0  0  0
  -23.4233  -24.6544   20.8008 C   0  0  0  0  0  0  0  0  0  0  0  0
  -30.8985  -27.1363   15.5017 C   0  0  0  0  0  0  0  0  0  0  0  0
  -29.6850  -27.3173   14.8382 C   0  0  0  0  0  0  0  0  0  0  0  0
  -27.7738  -16.5242   21.0456 C   0  0  0  0  0  0  0  0  0  0  0  0
  -29.8280  -16.6851   22.3072 C   0  0  0  0  0  0  0  0  0  0  0  0
  -24.0739  -24.4547   19.5840 C   0  0  0  0  0  0  0  0  0  0  0  0
  -29.3370  -13.8480   19.6970 C   0  0  0  0  0  0  0  0  0  0  0  0
  -29.0560  -13.0559   18.5838 C   0  0  0  0  0  0  0  0  0  0  0  0
  -25.7677  -26.0438   20.2358 C   0  0  0  0  0  0  0  0  0  0  0  0
  -30.1684  -28.6388   17.2471 C   0  0  0  0  0  0  0  0  0  0  0  0
  -27.1496  -12.1169   19.7332 C   0  0  0  0  0  0  0  0  0  0  0  0
  -28.7978  -18.6807   21.4166 C   0  0  0  0  0  0  0  0  0  0  0  0
  -28.2049  -21.0720   22.0785 C   0  0  0  0  0  0  0  0  0  0  0  0
  -18.5227  -29.8187   24.2816 C   0  0  0  0  0  0  0  0  0  0  0  0
  -23.9349  -25.5600   21.7413 C   0  0  0  0  0  0  0  0  0  0  0  0
  -19.3202  -29.2304   23.2814 C   0  0  0  0  0  0  0  0  0  0  0  0
  -25.1231  -26.2513   21.4648 C   0  0  0  0  0  0  0  0  0  0  0  0
  -31.1402  -27.7970   16.7062 C   0  0  0  0  0  0  0  0  0  0  0  0
  -28.7132  -28.1591   15.3792 C   0  0  0  0  0  0  0  0  0  0  0  0
  -28.8019  -15.9126   21.7630 C   0  0  0  0  0  0  0  0  0  0  0  0
  -25.2447  -25.1516   19.3001 C   0  0  0  0  0  0  0  0  0  0  0  0
  -28.5243  -13.7745   20.8284 C   0  0  0  0  0  0  0  0  0  0  0  0
  -27.9623  -12.1903   18.6019 C   0  0  0  0  0  0  0  0  0  0  0  0
  -28.9549  -28.8198   16.5836 C   0  0  0  0  0  0  0  0  0  0  0  0
  -27.4306  -12.9090   20.8464 C   0  0  0  0  0  0  0  0  0  0  0  0
  -28.7965  -20.1104   21.2375 C   0  0  0  0  0  0  0  0  0  0  0  0
  -28.4826  -22.2738   21.4745 C   0  0  0  0  0  0  0  0  0  0  0  0
  -27.4701  -20.8946   23.2968 C   0  0  0  0  0  0  0  0  0  0  0  0
  -22.8742  -28.2391   23.0833 C   0  0  0  0  0  0  0  0  0  0  0  0
  -25.5761  -27.9600   24.8565 C   0  0  0  0  0  0  0  0  0  0  0  0
  -28.7426  -26.7183   25.1362 C   0  0  0  0  0  0  0  0  0  0  0  0
  -31.7992  -25.5723   18.6568 C   0  0  0  0  0  0  0  0  0  0  0  0
  -19.0588  -30.8937   25.1935 C   0  0  0  0  0  0  0  0  0  0  0  0
  -23.2358  -25.7442   23.0602 C   0  0  0  0  0  0  0  0  0  0  0  0
  -25.7246  -27.2196   22.4492 C   0  0  0  0  0  0  0  0  0  0  0  0
  -20.5836  -30.9561   25.2310 C   0  0  0  0  0  0  0  0  0  0  0  0
  -31.1963  -22.0875   17.3953 C   0  0  0  0  0  0  0  0  0  0  0  0
  -21.1550  -30.9013   23.8178 C   0  0  0  0  0  0  0  0  0  0  0  0
  -29.7769  -22.3635   17.8915 C   0  0  0  0  0  0  0  0  0  0  0  0
  -32.0842  -23.3338   17.4848 C   0  0  0  0  0  0  0  0  0  0  0  0
  -31.1305  -23.4653   19.7627 C   0  0  0  0  0  0  0  0  0  0  0  0
  -20.7826  -29.5861   23.1227 C   0  0  1  0  0  0  0  0  0  0  0  0
  -23.5666  -27.0737   23.7314 C   0  0  1  0  0  0  0  0  0  0  0  0
  -29.7505  -22.9433   19.3256 C   0  0  2  0  0  0  0  0  0  0  0  0
  -30.9458  -26.1790   26.2097 C   0  0  0  0  0  0  0  0  0  0  0  0
  -26.2693  -30.8116   24.0213 C   0  0  0  0  0  0  0  0  0  0  0  0
  -28.6176  -30.3885   24.7793 C   0  0  0  0  0  0  0  0  0  0  0  0
  -26.7413  -30.2831   26.4197 C   0  0  0  0  0  0  0  0  0  0  0  0
  -33.9545  -25.6615   17.3284 C   0  0  0  0  0  0  0  0  0  0  0  0
  -27.7101  -24.1778   26.2494 C   0  0  0  0  0  0  0  0  0  0  0  0
  -25.7104  -27.1535   13.2930 C   0  0  0  0  0  0  0  0  0  0  0  0
  -32.4377  -27.6038   17.4154 C   0  0  0  0  0  0  0  0  0  0  0  0
  -27.4093  -28.3528   14.6627 C   0  0  0  0  0  0  0  0  0  0  0  0
  -25.7387  -25.1327   15.7249 C   0  0  0  0  0  0  0  0  0  0  0  0
  -25.9422  -26.6403   15.7188 C   0  0  0  0  0  0  0  0  0  0  0  0
  -25.0719  -24.6092   16.9911 C   0  0  0  0  0  0  0  0  0  1  0  0
  -27.0020  -28.4349   24.7144 C   0  0  1  0  0  0  0  0  0  0  0  0
  -29.4391  -25.9803   26.2653 C   0  0  2  0  0  0  0  0  0  0  0  0
  -27.1454  -29.9628   24.9641 C   0  0  0  0  0  0  0  0  0  0  0  0
  -29.4040  -20.6545   20.1797 N   0  0  0  0  0  0  0  0  0  0  0  0
  -29.1956  -21.9709   20.3520 N   0  0  0  0  0  0  0  0  0  0  0  0
  -25.0006  -27.3700   23.7222 N   0  0  0  0  0  0  0  0  0  0  0  0
  -31.7798  -24.1674   18.6570 N   0  0  0  0  0  0  0  0  0  0  0  0
  -28.1839  -23.5497   21.7993 N   0  0  0  0  0  0  0  0  0  0  0  0
  -27.2765  -19.5921   23.7767 N   0  0  0  0  0  0  0  0  0  0  0  0
  -21.6209  -28.5072   23.5998 N   0  0  0  0  0  0  0  0  0  0  0  0
  -27.7998  -27.6054   25.6110 N   0  0  0  0  0  0  0  0  0  0  0  0
  -32.6749  -26.2102   17.7665 N   0  0  0  0  0  0  0  0  0  0  0  0
  -29.1542  -24.5198   26.1829 N   0  3  0  0  0  0  0  0  0  0  0  0
  -26.6370  -27.0681   14.4820 N   0  3  1  0  0  0  0  0  0  0  0  0
  -26.9849  -21.8613   23.9321 O   0  0  0  0  0  0  0  0  0  0  0  0
  -23.4361  -28.8509   22.1823 O   0  0  0  0  0  0  0  0  0  0  0  0
  -24.9966  -28.1006   25.9364 O   0  0  0  0  0  0  0  0  0  0  0  0
  -29.0108  -26.5295   23.9518 O   0  0  0  0  0  0  0  0  0  0  0  0
  -31.0587  -26.2255   19.4040 O   0  0  0  0  0  0  0  0  0  0  0  0
  -28.8041  -14.5621   21.9324 O   0  0  0  0  0  0  0  0  0  0  0  0
  -25.8814  -24.9590   18.1129 O   0  0  0  0  0  0  0  0  0  1  0  0
  -27.6917  -11.4309   17.5322 F   0  0  0  0  0  0  0  0  0  0  0  0
  -28.0273  -29.6314   17.1106 F   0  0  0  0  0  0  0  0  0  0  0  0
  -26.6456  -12.8349   21.9299 F   0  0  0  0  0  0  0  0  0  0  0  0
  1  2  1  0  0  0  0
  1  5  2  0  0  0  0
  2  6  2  0  0  0  0
  3 10  2  0  0  0  0
  3 18  1  0  0  0  0
  4 11  1  0  0  0  0
  4 18  2  0  0  0  0
  5 20  1  0  0  0  0
  6 22  1  0  0  0  0
  7 12  2  0  0  0  0
  7 21  1  0  0  0  0
  8  9  2  0  0  0  0
  8 24  1  0  0  0  0
  9 25  1  0  0  0  0
 10 26  1  0  0  0  0
 11 26  2  0  0  0  0
 12 27  1  0  0  0  0
 13 14  2  0  0  0  0
 13 28  1  0  0  0  0
 14 29  1  0  0  0  0
 15 23  1  0  0  0  0
 15 27  2  0  0  0  0
 16 24  2  0  0  0  0
 16 30  1  0  0  0  0
 17 29  2  0  0  0  0
 17 31  1  0  0  0  0
 18 32  1  0  0  0  0
 19 32  1  0  0  0  0
 19 33  2  0  0  0  0
 19 34  1  0  0  0  0
 20 22  2  0  0  0  0
 20 39  1  0  0  0  0
 21 23  2  0  0  0  0
 21 40  1  0  0  0  0
 22 48  1  0  0  0  0
 23 41  1  0  0  0  0
 24 58  1  0  0  0  0
 25 30  2  0  0  0  0
 25 59  1  0  0  0  0
 26 82  1  0  0  0  0
 27 83  1  0  0  0  0
 28 31  2  0  0  0  0
 28 82  1  0  0  0  0
 29 84  1  0  0  0  0
 30 85  1  0  0  0  0
 31 86  1  0  0  0  0
 32 66  2  0  0  0  0
 33 67  1  0  0  0  0
 33 70  1  0  0  0  0
 34 71  1  0  0  0  0
 34 77  2  0  0  0  0
 35 49  1  0  0  0  0
 35 72  1  0  0  0  0
 35 78  2  0  0  0  0
 36 63  1  0  0  0  0
 36 68  1  0  0  0  0
 36 79  2  0  0  0  0
 37 64  1  0  0  0  0
 37 73  1  0  0  0  0
 37 80  2  0  0  0  0
 38 69  1  0  0  0  0
 38 74  1  0  0  0  0
 38 81  2  0  0  0  0
 39 42  1  0  0  0  0
 40 49  1  0  0  0  0
 41 68  1  0  0  0  0
 42 44  1  0  0  0  0
 43 45  1  0  0  0  0
 43 46  1  0  0  0  0
 44 48  1  0  0  0  0
 45 50  1  0  0  0  0
 46 69  1  0  0  0  0
 47 50  1  0  0  0  0
 47 69  1  0  0  0  0
 48 72  1  0  0  0  0
 49 68  1  0  0  0  0
 50 67  1  0  0  0  0
 51 64  1  0  0  0  0
 52 65  1  0  0  0  0
 53 65  1  0  0  0  0
 54 65  1  0  0  0  0
 55 74  1  0  0  0  0
 56 75  1  0  0  0  0
 57 76  1  0  0  0  0
 58 74  1  0  0  0  0
 59 76  1  0  0  0  0
 60 61  1  0  0  0  0
 60 62  1  0  0  0  0
 61 76  1  0  0  0  0
 62 83  1  0  0  0  0
 63 65  1  0  0  0  0
 63 73  1  0  0  0  0
 64 75  1  0  0  0  0
 66 67  1  0  0  0  0
M  CHG  2  75   1  76   1
M  ISO  4  38 100  62 101  74 100  83 101
M  END
> <Batch ID>
0018

> <Smiles>
CNC(C)C(=O)NC(C(=O)N1Cc2cc([101O:1][101CH2:1]CCN(C)Cc3ccc(C[100N:0](C)[100C:0](=O)N4CCCC(n5nc(-c6ccc(Oc7ccc(F)cc7F)cc6)c(C(N)=O)c5N)C4)cc3F)ccc2CC1C(=O)NC1CCCc2ccccc21)C(C)(C)C

> <Shape>
0.219

> <Color>
0.061

> <Negative vol penalty>
0.000

$$$$

  -OEChem-04042321033D

 84 92  0     1  0  0  0  0  0999 V2000
  -18.9778  -24.9994   25.3521 C   0  0  0  0  0  0  0  0  0  0  0  0
  -20.1643  -24.5960   24.7479 C   0  0  0  0  0  0  0  0  0  0  0  0
  -23.8399  -16.5321   21.3437 C   0  0  0  0  0  0  0  0  0  0  0  0
  -23.1261  -15.6673   19.2037 C   0  0  0  0  0  0  0  0  0  0  0  0
  -18.2833  -26.1014   24.8549 C   0  0  0  0  0  0  0  0  0  0  0  0
  -20.6563  -25.2938   23.6454 C   0  0  0  0  0  0  0  0  0  0  0  0
  -25.6330  -26.1740   23.9664 C   0  0  0  0  0  0  0  0  0  0  0  0
  -29.9958  -18.1588   21.5719 C   0  0  0  0  0  0  0  0  0  0  0  0
  -31.0437  -17.5026   19.4963 C   0  0  0  0  0  0  0  0  0  0  0  0
  -30.2096  -16.8793   22.0844 C   0  0  0  0  0  0  0  0  0  0  0  0
  -31.2576  -16.2230   20.0088 C   0  0  0  0  0  0  0  0  0  0  0  0
  -23.0679  -17.6757   21.1391 C   0  0  0  0  0  0  0  0  0  0  0  0
  -22.3540  -16.8109   18.9991 C   0  0  0  0  0  0  0  0  0  0  0  0
  -26.4877  -25.1138   23.6677 C   0  0  0  0  0  0  0  0  0  0  0  0
  -23.3029  -20.5591   19.3913 C   0  0  0  0  0  0  0  0  0  0  0  0
  -23.8835  -21.7930   19.6845 C   0  0  0  0  0  0  0  0  0  0  0  0
  -26.8429  -26.0288   21.4641 C   0  0  0  0  0  0  0  0  0  0  0  0
  -22.1505  -22.2215   21.3125 C   0  0  0  0  0  0  0  0  0  0  0  0
  -23.8690  -15.5279   20.3760 C   0  0  0  0  0  0  0  0  0  0  0  0
  -24.2638  -13.1479   21.2051 C   0  0  0  0  0  0  0  0  0  0  0  0
  -18.7721  -26.8188   23.7517 C   0  0  0  0  0  0  0  0  0  0  0  0
  -25.3678  -27.1654   23.0108 C   0  0  0  0  0  0  0  0  0  0  0  0
  -19.9669  -26.4056   23.1322 C   0  0  0  0  0  0  0  0  0  0  0  0
  -25.9864  -27.1019   21.7540 C   0  0  0  0  0  0  0  0  0  0  0  0
  -30.4128  -18.4705   20.2778 C   0  0  0  0  0  0  0  0  0  0  0  0
  -30.8405  -15.9114   21.3029 C   0  0  0  0  0  0  0  0  0  0  0  0
  -22.3250  -17.8151   19.9668 C   0  0  0  0  0  0  0  0  0  0  0  0
  -27.0905  -25.0395   22.4155 C   0  0  0  0  0  0  0  0  0  0  0  0
  -22.1461  -20.1564   20.0586 C   0  0  0  0  0  0  0  0  0  0  0  0
  -23.3073  -22.6242   20.6451 C   0  0  0  0  0  0  0  0  0  0  0  0
  -21.5699  -20.9876   21.0192 C   0  0  0  0  0  0  0  0  0  0  0  0
  -24.6667  -14.3466   20.5865 C   0  0  0  0  0  0  0  0  0  0  0  0
  -25.3775  -12.3455   21.1570 C   0  0  0  0  0  0  0  0  0  0  0  0
  -22.9962  -12.7916   21.7724 C   0  0  0  0  0  0  0  0  0  0  0  0
  -22.7635  -28.1868   21.5015 C   0  0  0  0  0  0  0  0  0  0  0  0
  -24.7839  -30.4587   20.3704 C   0  0  0  0  0  0  0  0  0  0  0  0
  -27.9879  -31.3881   19.6515 C   0  0  0  0  0  0  0  0  0  0  0  0
  -31.0921  -13.4559   20.9892 C   0  0  0  0  0  0  0  0  0  0  0  0
  -17.9617  -27.9747   23.2207 C   0  0  0  0  0  0  0  0  0  0  0  0
  -24.4644  -28.3169   23.3578 C   0  0  0  0  0  0  0  0  0  0  0  0
  -25.7506  -28.1517   20.7001 C   0  0  0  0  0  0  0  0  0  0  0  0
  -18.7455  -28.8870   22.2806 C   0  0  0  0  0  0  0  0  0  0  0  0
  -29.3155  -11.5431   18.5750 C   0  0  0  0  0  0  0  0  0  0  0  0
  -19.5219  -28.0614   21.2597 C   0  0  0  0  0  0  0  0  0  0  0  0
  -27.8710  -11.9420   18.8751 C   0  0  0  0  0  0  0  0  0  0  0  0
  -30.2727  -12.7300   18.6895 C   0  0  0  0  0  0  0  0  0  0  0  0
  -28.7435  -13.8466   20.2831 C   0  0  0  0  0  0  0  0  0  0  0  0
  -20.5457  -27.1518   21.9497 C   0  0  1  0  0  0  0  0  0  0  0  0
  -23.8627  -28.9951   22.1308 C   0  0  1  0  0  0  0  0  0  0  0  0
  -27.7671  -12.6611   20.2317 C   0  0  1  0  0  0  0  0  0  0  0  0
  -29.3212  -33.2897   18.7008 C   0  0  0  0  0  0  0  0  0  0  0  0
  -23.8862  -29.6799   17.5602 C   0  0  0  0  0  0  0  0  0  0  0  0
  -25.8838  -30.8925   16.6614 C   0  0  0  0  0  0  0  0  0  0  0  0
  -24.1364  -32.1404   17.9310 C   0  0  0  0  0  0  0  0  0  0  0  0
  -31.4982  -14.4553   23.2278 C   0  0  0  0  0  0  0  0  0  0  0  0
  -29.4952  -31.7447   22.1734 C   0  0  0  0  0  0  0  0  0  0  0  0
  -28.3945  -19.3822   18.0572 C   0  0  0  0  0  0  0  0  0  0  0  0
  -30.1827  -19.8468   19.7266 C   0  0  0  0  0  0  0  0  0  0  0  0
  -28.2898  -22.0983   20.7130 C   0  0  0  0  0  0  0  0  0  0  0  0
  -28.4052  -21.5384   19.3032 C   0  0  0  0  0  0  0  0  0  0  0  0
  -27.9899  -23.5916   20.7570 C   0  0  0  0  0  0  0  0  0  1  0  0
  -25.6922  -30.5801   19.1708 C   0  0  1  0  0  0  0  0  0  0  0  0
  -28.7638  -32.6546   19.9652 C   0  0  2  0  0  0  0  0  0  0  0  0
  -24.9028  -30.8022   17.8498 C   0  0  0  0  0  0  0  0  0  0  0  0
  -25.9372  -14.3132   20.1757 N   0  0  0  0  0  0  0  0  0  0  0  0
  -26.3423  -13.0838   20.5369 N   0  0  0  0  0  0  0  0  0  0  0  0
  -24.8544  -29.2545   21.0851 N   0  0  0  0  0  0  0  0  0  0  0  0
  -30.1089  -13.4086   19.9829 N   0  0  0  0  0  0  0  0  0  0  0  0
  -25.6159  -11.0876   21.5850 N   0  0  0  0  0  0  0  0  0  0  0  0
  -21.9600  -13.7346   21.7378 N   0  0  0  0  0  0  0  0  0  0  0  0
  -21.7088  -27.9136   22.3514 N   0  0  0  0  0  0  0  0  0  0  0  0
  -26.6429  -31.6414   19.4844 N   0  0  0  0  0  0  0  0  0  0  0  0
  -31.0623  -14.5867   21.8333 N   0  0  0  0  0  0  0  0  0  0  0  0
  -29.9009  -32.3522   20.8799 N   0  3  0  0  0  0  0  0  0  0  0  0
  -28.7447  -20.0966   19.3404 N   0  3  1  0  0  0  0  0  0  0  0  0
  -22.7935  -11.6761   22.3093 O   0  0  0  0  0  0  0  0  0  0  0  0
  -22.8641  -27.8383   20.3310 O   0  0  0  0  0  0  0  0  0  0  0  0
  -24.0443  -31.4004   20.6669 O   0  0  0  0  0  0  0  0  0  0  0  0
  -28.5222  -30.2851   19.5599 O   0  0  0  0  0  0  0  0  0  0  0  0
  -31.9165  -12.5459   21.1387 O   0  0  0  0  0  0  0  0  0  0  0  0
  -21.5714  -18.9307   19.7669 O   0  0  0  0  0  0  0  0  0  0  0  0
  -27.9246  -24.0054   22.1211 O   0  0  0  0  0  0  0  0  0  1  0  0
  -23.8658  -23.8085   20.9277 F   0  0  0  0  0  0  0  0  0  0  0  0
  -20.4592  -20.6056   21.6644 F   0  0  0  0  0  0  0  0  0  0  0  0
  1  2  1  0  0  0  0
  1  5  2  0  0  0  0
  2  6  2  0  0  0  0
  3 12  2  0  0  0  0
  3 19  1  0  0  0  0
  4 13  1  0  0  0  0
  4 19  2  0  0  0  0
  5 21  1  0  0  0  0
  6 23  1  0  0  0  0
  7 14  2  0  0  0  0
  7 22  1  0  0  0  0
  8 10  2  0  0  0  0
  8 25  1  0  0  0  0
  9 11  1  0  0  0  0
  9 25  2  0  0  0  0
 10 26  1  0  0  0  0
 11 26  2  0  0  0  0
 12 27  1  0  0  0  0
 13 27  2  0  0  0  0
 14 28  1  0  0  0  0
 15 16  2  0  0  0  0
 15 29  1  0  0  0  0
 16 30  1  0  0  0  0
 17 24  1  0  0  0  0
 17 28  2  0  0  0  0
 18 30  2  0  0  0  0
 18 31  1  0  0  0  0
 19 32  1  0  0  0  0
 20 32  1  0  0  0  0
 20 33  2  0  0  0  0
 20 34  1  0  0  0  0
 21 23  2  0  0  0  0
 21 39  1  0  0  0  0
 22 24  2  0  0  0  0
 22 40  1  0  0  0  0
 23 48  1  0  0  0  0
 24 41  1  0  0  0  0
 25 58  1  0  0  0  0
 26 73  1  0  0  0  0
 27 81  1  0  0  0  0
 28 82  1  0  0  0  0
 29 31  2  0  0  0  0
 29 81  1  0  0  0  0
 30 83  1  0  0  0  0
 31 84  1  0  0  0  0
 32 65  2  0  0  0  0
 33 66  1  0  0  0  0
 33 69  1  0  0  0  0
 34 70  1  0  0  0  0
 34 76  2  0  0  0  0
 35 49  1  0  0  0  0
 35 71  1  0  0  0  0
 35 77  2  0  0  0  0
 36 62  1  0  0  0  0
 36 67  1  0  0  0  0
 36 78  2  0  0  0  0
 37 63  1  0  0  0  0
 37 72  1  0  0  0  0
 37 79  2  0  0  0  0
 38 68  1  0  0  0  0
 38 73  1  0  0  0  0
 38 80  2  0  0  0  0
 39 42  1  0  0  0  0
 40 49  1  0  0  0  0
 41 67  1  0  0  0  0
 42 44  1  0  0  0  0
 43 45  1  0  0  0  0
 43 46  1  0  0  0  0
 44 48  1  0  0  0  0
 45 50  1  0  0  0  0
 46 68  1  0  0  0  0
 47 50  1  0  0  0  0
 47 68  1  0  0  0  0
 48 71  1  0  0  0  0
 49 67  1  0  0  0  0
 50 66  1  0  0  0  0
 51 63  1  0  0  0  0
 52 64  1  0  0  0  0
 53 64  1  0  0  0  0
 54 64  1  0  0  0  0
 55 73  1  0  0  0  0
 56 74  1  0  0  0  0
 57 75  1  0  0  0  0
 58 75  1  0  0  0  0
 59 60  1  0  0  0  0
 59 61  1  0  0  0  0
 60 75  1  0  0  0  0
 61 82  1  0  0  0  0
 62 64  1  0  0  0  0
 62 72  1  0  0  0  0
 63 74  1  0  0  0  0
 65 66  1  0  0  0  0
M  CHG  2  74   1  75   1
M  ISO  4  38 100  61 101  73 100  82 101
M  END
> <Batch ID>
0018

> <Smiles>
CNC(C)C(=O)NC(C(=O)N1Cc2cc([101O:1][101CH2:1]CCN(C)Cc3ccc([100N:0](C)[100C:0](=O)N4CCCC(n5nc(-c6ccc(Oc7ccc(F)cc7F)cc6)c(C(N)=O)c5N)C4)cc3)ccc2CC1C(=O)NC1CCCc2ccccc21)C(C)(C)C

> <Shape>
0.244

> <Color>
0.069

> <Negative vol penalty>
0.000

$$$$

  -OEChem-04042321033D

 85 93  0     1  0  0  0  0  0999 V2000
  -25.9186  -36.6084   16.3936 C   0  0  0  0  0  0  0  0  0  0  0  0
  -26.2049  -35.2502   16.2996 C   0  0  0  0  0  0  0  0  0  0  0  0
  -23.9610   -8.9627   19.7780 C   0  0  0  0  0  0  0  0  0  0  0  0
  -23.1856  -10.3582   21.5914 C   0  0  0  0  0  0  0  0  0  0  0  0
  -25.9701  -37.2464   17.6323 C   0  0  0  0  0  0  0  0  0  0  0  0
  -26.5440  -34.5295   17.4441 C   0  0  0  0  0  0  0  0  0  0  0  0
  -25.1566  -28.6904   18.6633 C   0  0  0  0  0  0  0  0  0  0  0  0
  -26.9527  -19.2122   20.0939 C   0  0  0  0  0  0  0  0  0  0  0  0
  -26.8171  -20.5695   20.3855 C   0  0  0  0  0  0  0  0  0  0  0  0
  -23.2944   -7.8706   20.3333 C   0  0  0  0  0  0  0  0  0  0  0  0
  -22.5189   -9.2660   22.1467 C   0  0  0  0  0  0  0  0  0  0  0  0
  -25.8847  -27.5079   18.5399 C   0  0  0  0  0  0  0  0  0  0  0  0
  -19.6392   -7.5774   21.6208 C   0  0  0  0  0  0  0  0  0  0  0  0
  -18.3348   -7.7775   22.0725 C   0  0  0  0  0  0  0  0  0  0  0  0
  -26.5074  -27.6556   20.8658 C   0  0  0  0  0  0  0  0  0  0  0  0
  -29.1014  -19.1895   21.1983 C   0  0  0  0  0  0  0  0  0  0  0  0
  -19.0073   -7.1315   24.3013 C   0  0  0  0  0  0  0  0  0  0  0  0
  -23.9067  -10.2065   20.4071 C   0  0  0  0  0  0  0  0  0  0  0  0
  -24.0848  -12.2602   18.9042 C   0  0  0  0  0  0  0  0  0  0  0  0
  -26.3006  -36.5310   18.7940 C   0  0  0  0  0  0  0  0  0  0  0  0
  -25.1073  -29.3714   19.8882 C   0  0  0  0  0  0  0  0  0  0  0  0
  -26.6013  -35.1588   18.6993 C   0  0  0  0  0  0  0  0  0  0  0  0
  -25.7759  -28.8452   21.0028 C   0  0  0  0  0  0  0  0  0  0  0  0
  -28.0948  -18.5222   20.5003 C   0  0  0  0  0  0  0  0  0  0  0  0
  -27.8237  -21.2368   21.0835 C   0  0  0  0  0  0  0  0  0  0  0  0
  -28.9658  -20.5468   21.4899 C   0  0  0  0  0  0  0  0  0  0  0  0
  -22.5733   -8.0222   21.5176 C   0  0  0  0  0  0  0  0  0  0  0  0
  -26.5626  -26.9918   19.6405 C   0  0  0  0  0  0  0  0  0  0  0  0
  -20.6277   -7.1542   22.5094 C   0  0  0  0  0  0  0  0  0  0  0  0
  -18.0188   -7.5546   23.4127 C   0  0  0  0  0  0  0  0  0  0  0  0
  -20.3118   -6.9313   23.8496 C   0  0  0  0  0  0  0  0  0  0  0  0
  -24.5956  -11.3350   19.8343 C   0  0  0  0  0  0  0  0  0  0  0  0
  -25.1235  -13.1304   18.6798 C   0  0  0  0  0  0  0  0  0  0  0  0
  -22.7875  -12.3270   18.2975 C   0  0  0  0  0  0  0  0  0  0  0  0
  -26.0197  -32.2448   20.8955 C   0  0  0  0  0  0  0  0  0  0  0  0
  -24.5271  -31.3317   23.6269 C   0  0  0  0  0  0  0  0  0  0  0  0
  -27.5117  -23.5538   20.3038 C   0  0  0  0  0  0  0  0  0  0  0  0
  -23.4318  -28.7855   25.6179 C   0  0  0  0  0  0  0  0  0  0  0  0
  -29.3007  -16.3107   20.5345 C   0  0  0  0  0  0  0  0  0  0  0  0
  -26.3896  -37.2741   20.1034 C   0  0  0  0  0  0  0  0  0  0  0  0
  -24.2956  -30.6316   20.0118 C   0  0  0  0  0  0  0  0  0  0  0  0
  -25.7379  -29.5272   22.3452 C   0  0  0  0  0  0  0  0  0  0  0  0
  -26.3916  -36.3581   21.3246 C   0  0  0  0  0  0  0  0  0  0  0  0
  -29.9974  -12.8574   20.0183 C   0  0  0  0  0  0  0  0  0  0  0  0
  -27.3624  -35.1992   21.1210 C   0  0  0  0  0  0  0  0  0  0  0  0
  -28.6122  -12.2295   19.8479 C   0  0  0  0  0  0  0  0  0  0  0  0
  -29.9878  -13.9799   21.0545 C   0  0  0  0  0  0  0  0  0  0  0  0
  -27.5911  -14.3933   20.6620 C   0  0  0  0  0  0  0  0  0  0  0  0
  -26.9490  -34.3375   19.9219 C   0  0  1  0  0  0  0  0  0  0  0  0
  -24.7365  -31.5147   21.1750 C   0  0  1  0  0  0  0  0  0  0  0  0
  -27.5368  -13.3010   19.5814 C   0  0  2  0  0  0  0  0  0  0  0  0
  -22.2822  -28.3505   27.8057 C   0  0  0  0  0  0  0  0  0  0  0  0
  -27.1055  -32.0049   25.1130 C   0  0  0  0  0  0  0  0  0  0  0  0
  -26.2447  -30.6881   27.0606 C   0  0  0  0  0  0  0  0  0  0  0  0
  -25.0118  -32.7126   26.2834 C   0  0  0  0  0  0  0  0  0  0  0  0
  -27.6521  -23.0888   22.7777 C   0  0  0  0  0  0  0  0  0  0  0  0
  -30.3706  -20.7591   23.5250 C   0  0  0  0  0  0  0  0  0  0  0  0
  -30.7015  -22.3177   21.5989 C   0  0  0  0  0  0  0  0  0  0  0  0
  -21.1767  -27.4029   24.2906 C   0  0  0  0  0  0  0  0  0  0  0  0
  -27.3849  -25.0211   20.6873 C   0  0  0  0  0  0  0  0  0  1  0  0
  -24.9463  -30.6081   24.8838 C   0  0  1  0  0  0  0  0  0  0  0  0
  -22.1011  -28.5480   26.3088 C   0  0  2  0  0  0  0  0  0  0  0  0
  -25.8296  -31.4914   25.8095 C   0  0  0  0  0  0  0  0  0  0  0  0
  -25.8604  -11.5933   20.1771 N   0  0  0  0  0  0  0  0  0  0  0  0
  -26.1532  -12.6906   19.4585 N   0  0  0  0  0  0  0  0  0  0  0  0
  -24.9358  -30.7599   22.4138 N   0  0  0  0  0  0  0  0  0  0  0  0
  -28.9471  -14.9595   20.7350 N   0  0  0  0  0  0  0  0  0  0  0  0
  -25.2473  -14.2213   17.8943 N   0  0  0  0  0  0  0  0  0  0  0  0
  -21.8389  -11.3537   18.6398 N   0  0  0  0  0  0  0  0  0  0  0  0
  -28.2321  -17.1434   20.2040 N   0  0  0  0  0  0  0  0  0  0  0  0
  -25.8474  -33.4695   20.2790 N   0  0  0  0  0  0  0  0  0  0  0  0
  -23.7177  -30.1300   25.5086 N   0  0  0  0  0  0  0  0  0  0  0  0
  -27.6596  -22.6467   21.3747 N   0  0  0  0  0  0  0  0  0  0  0  0
  -29.9975  -21.2031   22.1982 N   0  0  0  0  0  0  0  0  0  0  0  0
  -21.4373  -27.3356   25.7516 N   0  3  0  0  0  0  0  0  0  0  0  0
  -22.4840  -13.2136   17.4637 O   0  0  0  0  0  0  0  0  0  0  0  0
  -27.0869  -31.7355   21.2168 O   0  0  0  0  0  0  0  0  0  0  0  0
  -23.8554  -32.3624   23.7180 O   0  0  0  0  0  0  0  0  0  0  0  0
  -27.5090  -23.2505   19.1081 O   0  0  0  0  0  0  0  0  0  0  0  0
  -24.1479  -27.8699   25.2188 O   0  0  0  0  0  0  0  0  0  0  0  0
  -30.4697  -16.6952   20.6209 O   0  0  0  0  0  0  0  0  0  0  0  0
  -21.9225   -6.9567   22.0596 O   0  0  0  0  0  0  0  0  0  0  0  0
  -27.2745  -25.8381   19.5226 O   0  0  0  0  0  0  0  0  0  1  0  0
  -16.7665   -7.7483   23.8466 F   0  0  0  0  0  0  0  0  0  0  0  0
  -21.2575   -6.5259   24.7082 F   0  0  0  0  0  0  0  0  0  0  0  0
  1  2  1  0  0  0  0
  1  5  2  0  0  0  0
  2  6  2  0  0  0  0
  3 10  2  0  0  0  0
  3 18  1  0  0  0  0
  4 11  1  0  0  0  0
  4 18  2  0  0  0  0
  5 20  1  0  0  0  0
  6 22  1  0  0  0  0
  7 12  2  0  0  0  0
  7 21  1  0  0  0  0
  8  9  2  0  0  0  0
  8 24  1  0  0  0  0
  9 25  1  0  0  0  0
 10 27  1  0  0  0  0
 11 27  2  0  0  0  0
 12 28  1  0  0  0  0
 13 14  2  0  0  0  0
 13 29  1  0  0  0  0
 14 30  1  0  0  0  0
 15 23  1  0  0  0  0
 15 28  2  0  0  0  0
 16 24  2  0  0  0  0
 16 26  1  0  0  0  0
 17 30  2  0  0  0  0
 17 31  1  0  0  0  0
 18 32  1  0  0  0  0
 19 32  1  0  0  0  0
 19 33  2  0  0  0  0
 19 34  1  0  0  0  0
 20 22  2  0  0  0  0
 20 40  1  0  0  0  0
 21 23  2  0  0  0  0
 21 41  1  0  0  0  0
 22 49  1  0  0  0  0
 23 42  1  0  0  0  0
 24 70  1  0  0  0  0
 25 26  2  0  0  0  0
 25 73  1  0  0  0  0
 26 74  1  0  0  0  0
 27 82  1  0  0  0  0
 28 83  1  0  0  0  0
 29 31  2  0  0  0  0
 29 82  1  0  0  0  0
 30 84  1  0  0  0  0
 31 85  1  0  0  0  0
 32 64  2  0  0  0  0
 33 65  1  0  0  0  0
 33 68  1  0  0  0  0
 34 69  1  0  0  0  0
 34 76  2  0  0  0  0
 35 50  1  0  0  0  0
 35 71  1  0  0  0  0
 35 77  2  0  0  0  0
 36 61  1  0  0  0  0
 36 66  1  0  0  0  0
 36 78  2  0  0  0  0
 37 60  1  0  0  0  0
 37 73  1  0  0  0  0
 37 79  2  0  0  0  0
 38 62  1  0  0  0  0
 38 72  1  0  0  0  0
 38 80  2  0  0  0  0
 39 67  1  0  0  0  0
 39 70  1  0  0  0  0
 39 81  2  0  0  0  0
 40 43  1  0  0  0  0
 41 50  1  0  0  0  0
 42 66  1  0  0  0  0
 43 45  1  0  0  0  0
 44 46  1  0  0  0  0
 44 47  1  0  0  0  0
 45 49  1  0  0  0  0
 46 51  1  0  0  0  0
 47 67  1  0  0  0  0
 48 51  1  0  0  0  0
 48 67  1  0  0  0  0
 49 71  1  0  0  0  0
 50 66  1  0  0  0  0
 51 65  1  0  0  0  0
 52 62  1  0  0  0  0
 53 63  1  0  0  0  0
 54 63  1  0  0  0  0
 55 63  1  0  0  0  0
 56 73  1  0  0  0  0
 57 74  1  0  0  0  0
 58 74  1  0  0  0  0
 59 75  1  0  0  0  0
 60 83  1  0  0  0  0
 61 63  1  0  0  0  0
 61 72  1  0  0  0  0
 62 75  1  0  0  0  0
 64 65  1  0  0  0  0
M  CHG  1  75   1
M  ISO  4  39 100  60 101  70 100  83 101
M  END
> <Batch ID>
0018

> <Smiles>
CNC(C)C(=O)NC(C(=O)N1Cc2cc([101O:1][101CH2:1]C(=O)N(C)c3ccc([100NH:0][100C:0](=O)N4CCCC(n5nc(-c6ccc(Oc7ccc(F)cc7F)cc6)c(C(N)=O)c5N)C4)cc3N(C)C)ccc2CC1C(=O)NC1CCCc2ccccc21)C(C)(C)C

> <Shape>
0.260

> <Color>
0.128

> <Negative vol penalty>
0.000

$$$$

  -OEChem-04042321033D

 89 98  0     1  0  0  0  0  0999 V2000
  -23.2200  -28.0883   22.2559 C   0  0  0  0  0  0  0  0  0  0  0  0
  -23.1138  -26.8939   21.5505 C   0  0  0  0  0  0  0  0  0  0  0  0
  -20.8622  -22.1662   22.7113 C   0  0  0  0  0  0  0  0  0  0  0  0
  -19.1825  -20.4631   23.0502 C   0  0  0  0  0  0  0  0  0  0  0  0
  -24.2972  -28.9418   22.0210 C   0  0  0  0  0  0  0  0  0  0  0  0
  -24.0842  -26.5529   20.6090 C   0  0  0  0  0  0  0  0  0  0  0  0
  -27.8656  -20.4525   21.2239 C   0  0  0  0  0  0  0  0  0  0  0  0
  -24.5128  -13.3471   20.1227 C   0  0  0  0  0  0  0  0  0  0  0  0
  -25.8162  -13.3628   19.6264 C   0  0  0  0  0  0  0  0  0  0  0  0
  -20.1675  -23.0215   23.5665 C   0  0  0  0  0  0  0  0  0  0  0  0
  -18.4878  -21.3184   23.9055 C   0  0  0  0  0  0  0  0  0  0  0  0
  -28.4825  -19.2031   21.1568 C   0  0  0  0  0  0  0  0  0  0  0  0
  -18.6468  -25.7830   25.3791 C   0  0  0  0  0  0  0  0  0  0  0  0
  -18.4785  -27.1080   24.9773 C   0  0  0  0  0  0  0  0  0  0  0  0
  -29.7085  -19.9020   19.1930 C   0  0  0  0  0  0  0  0  0  0  0  0
  -25.0790  -11.4826   21.5510 C   0  0  0  0  0  0  0  0  0  0  0  0
  -17.2866  -26.3611   23.0130 C   0  0  0  0  0  0  0  0  0  0  0  0
  -20.3696  -20.8869   22.4531 C   0  0  0  0  0  0  0  0  0  0  0  0
  -21.3956  -20.2236   20.2137 C   0  0  0  0  0  0  0  0  0  0  0  0
  -25.2864  -28.6065   21.0831 C   0  0  0  0  0  0  0  0  0  0  0  0
  -28.1798  -21.4378   20.2837 C   0  0  0  0  0  0  0  0  0  0  0  0
  -25.1749  -27.4033   20.3604 C   0  0  0  0  0  0  0  0  0  0  0  0
  -29.1031  -21.1595   19.2626 C   0  0  0  0  0  0  0  0  0  0  0  0
  -26.3825  -11.4982   21.0547 C   0  0  0  0  0  0  0  0  0  0  0  0
  -24.1442  -12.4070   21.0851 C   0  0  0  0  0  0  0  0  0  0  0  0
  -26.7511  -12.4383   20.0923 C   0  0  0  0  0  0  0  0  0  0  0  0
  -18.9804  -22.5976   24.1636 C   0  0  0  0  0  0  0  0  0  0  0  0
  -29.4015  -18.9284   20.1437 C   0  0  0  0  0  0  0  0  0  0  0  0
  -18.1351  -24.7469   24.5978 C   0  0  0  0  0  0  0  0  0  0  0  0
  -17.7984  -27.3971   23.7943 C   0  0  0  0  0  0  0  0  0  0  0  0
  -17.4550  -25.0360   23.4148 C   0  0  0  0  0  0  0  0  0  0  0  0
  -21.0865  -20.0031   21.5693 C   0  0  0  0  0  0  0  0  0  0  0  0
  -22.0799  -19.0962   19.8298 C   0  0  0  0  0  0  0  0  0  0  0  0
  -21.0914  -21.3469   19.3763 C   0  0  0  0  0  0  0  0  0  0  0  0
  -27.6149  -24.9443   19.0749 C   0  0  0  0  0  0  0  0  0  0  0  0
  -30.6203  -24.3863   18.8172 C   0  0  0  0  0  0  0  0  0  0  0  0
  -33.5951  -23.6942   19.5750 C   0  0  0  0  0  0  0  0  0  0  0  0
  -22.0271  -13.5731   21.6764 C   0  0  0  0  0  0  0  0  0  0  0  0
  -26.4072  -29.5833   20.8295 C   0  0  0  0  0  0  0  0  0  0  0  0
  -27.4939  -22.7770   20.2810 C   0  0  0  0  0  0  0  0  0  0  0  0
  -29.3844  -22.2382   18.2525 C   0  0  0  0  0  0  0  0  0  0  0  0
  -27.5912  -28.9718   20.0849 C   0  0  0  0  0  0  0  0  0  0  0  0
  -24.9077  -15.6540   21.5539 C   0  0  0  0  0  0  0  0  0  0  0  0
  -27.1067  -28.1522   18.8931 C   0  0  0  0  0  0  0  0  0  0  0  0
  -24.2759  -17.0393   21.4216 C   0  0  0  0  0  0  0  0  0  0  0  0
  -28.5322  -14.3772   21.0191 C   0  0  0  0  0  0  0  0  0  0  0  0
  -28.7055  -14.5452   18.5002 C   0  0  0  0  0  0  0  0  0  0  0  0
  -29.3298  -15.6716   21.1573 C   0  0  0  0  0  0  0  0  0  0  0  0
  -29.5017  -15.8400   18.6441 C   0  0  0  0  0  0  0  0  0  0  0  0
  -24.1228  -14.7559   22.5106 C   0  0  0  0  0  0  0  0  0  0  0  0
  -22.0505  -16.0280   22.0506 C   0  0  0  0  0  0  0  0  0  0  0  0
  -26.2205  -26.9867   19.3488 C   0  0  1  0  0  0  0  0  0  0  0  0
  -28.4149  -23.9258   19.8325 C   0  0  1  0  0  0  0  0  0  0  0  0
  -22.7862  -16.9337   21.0507 C   0  0  1  0  0  0  0  0  0  0  0  0
  -28.8880  -13.6436   19.7233 C   0  0  0  0  0  0  0  0  0  0  0  0
  -29.1552  -16.5748   19.9382 C   0  0  0  0  0  0  0  0  0  1  0  0
  -27.3634  -10.4960   21.5704 C   0  0  0  0  0  0  0  0  0  0  0  0
  -28.3712   -9.6826   16.9661 C   0  0  0  0  0  0  0  0  0  0  0  0
  -36.0684  -23.4757   19.9393 C   0  0  0  0  0  0  0  0  0  0  0  0
  -30.2482  -23.8781   15.8327 C   0  0  0  0  0  0  0  0  0  0  0  0
  -32.7408  -23.8392   15.6008 C   0  0  0  0  0  0  0  0  0  0  0  0
  -31.5952  -25.9116   16.3851 C   0  0  0  0  0  0  0  0  0  0  0  0
  -22.1419  -11.0944   21.8105 C   0  0  0  0  0  0  0  0  0  0  0  0
  -33.5759  -25.7303   21.7228 C   0  0  0  0  0  0  0  0  0  0  0  0
  -27.8126  -10.9137   17.6655 C   0  0  0  0  0  0  0  0  0  0  0  0
  -28.6096  -11.2988   18.9060 C   0  0  0  0  0  0  0  0  0  0  0  0
  -31.7488  -23.9187   17.9333 C   0  0  1  0  0  0  0  0  0  0  0  0
  -34.8580  -24.3898   20.0500 C   0  0  2  0  0  0  0  0  0  0  0  0
  -31.5701  -24.3692   16.4560 C   0  0  0  0  0  0  0  0  0  0  0  0
  -21.5372  -18.8280   22.0165 N   0  0  0  0  0  0  0  0  0  0  0  0
  -22.1366  -18.3000   20.9357 N   0  0  0  0  0  0  0  0  0  0  0  0
  -29.5113  -23.5388   18.9286 N   0  0  0  0  0  0  0  0  0  0  0  0
  -22.7007  -14.7184   22.1413 N   0  0  0  0  0  0  0  0  0  0  0  0
  -22.6326  -18.7183   18.6576 N   0  0  0  0  0  0  0  0  0  0  0  0
  -19.8883  -21.3381   18.6575 N   0  0  0  0  0  0  0  0  0  0  0  0
  -27.0323  -25.9097   19.8737 N   0  0  0  0  0  0  0  0  0  0  0  0
  -32.9794  -24.3923   18.5577 N   0  0  0  0  0  0  0  0  0  0  0  0
  -22.7943  -12.3909   21.5980 N   0  0  0  0  0  0  0  0  0  0  0  0
  -28.0544  -12.4690   19.5834 N   0  0  3  0  0  0  0  0  0  0  0  0
  -34.7144  -24.8093   21.4729 N   0  3  0  0  0  0  0  0  0  0  0  0
  -21.8713  -22.3220   19.2560 O   0  0  0  0  0  0  0  0  0  0  0  0
  -27.5326  -24.8623   17.8550 O   0  0  0  0  0  0  0  0  0  0  0  0
  -30.7143  -25.4755   19.3900 O   0  0  0  0  0  0  0  0  0  0  0  0
  -33.1968  -22.6355   20.0556 O   0  0  0  0  0  0  0  0  0  0  0  0
  -20.8267  -13.5982   21.3793 O   0  0  0  0  0  0  0  0  0  0  0  0
  -18.3024  -23.4319   24.9984 O   0  0  0  0  0  0  0  0  0  0  0  0
  -30.0034  -17.7081   20.0868 O   0  0  0  0  0  0  0  0  0  1  0  0
  -17.6355  -28.6697   23.4094 F   0  0  0  0  0  0  0  0  0  0  0  0
  -16.9601  -24.0449   22.6606 F   0  0  0  0  0  0  0  0  0  0  0  0
  1  2  1  0  0  0  0
  1  5  2  0  0  0  0
  2  6  2  0  0  0  0
  3 10  2  0  0  0  0
  3 18  1  0  0  0  0
  4 11  1  0  0  0  0
  4 18  2  0  0  0  0
  5 20  1  0  0  0  0
  6 22  1  0  0  0  0
  7 12  2  0  0  0  0
  7 21  1  0  0  0  0
  8  9  2  0  0  0  0
  8 25  1  0  0  0  0
  9 26  1  0  0  0  0
 10 27  1  0  0  0  0
 11 27  2  0  0  0  0
 12 28  1  0  0  0  0
 13 14  2  0  0  0  0
 13 29  1  0  0  0  0
 14 30  1  0  0  0  0
 15 23  1  0  0  0  0
 15 28  2  0  0  0  0
 16 24  1  0  0  0  0
 16 25  2  0  0  0  0
 17 30  2  0  0  0  0
 17 31  1  0  0  0  0
 18 32  1  0  0  0  0
 19 32  1  0  0  0  0
 19 33  2  0  0  0  0
 19 34  1  0  0  0  0
 20 22  2  0  0  0  0
 20 39  1  0  0  0  0
 21 23  2  0  0  0  0
 21 40  1  0  0  0  0
 22 52  1  0  0  0  0
 23 41  1  0  0  0  0
 24 26  2  0  0  0  0
 24 57  1  0  0  0  0
 25 78  1  0  0  0  0
 26 79  1  0  0  0  0
 27 86  1  0  0  0  0
 28 87  1  0  0  0  0
 29 31  2  0  0  0  0
 29 86  1  0  0  0  0
 30 88  1  0  0  0  0
 31 89  1  0  0  0  0
 32 70  2  0  0  0  0
 33 71  1  0  0  0  0
 33 74  1  0  0  0  0
 34 75  1  0  0  0  0
 34 81  2  0  0  0  0
 35 53  1  0  0  0  0
 35 76  1  0  0  0  0
 35 82  2  0  0  0  0
 36 67  1  0  0  0  0
 36 72  1  0  0  0  0
 36 83  2  0  0  0  0
 37 68  1  0  0  0  0
 37 77  1  0  0  0  0
 37 84  2  0  0  0  0
 38 73  1  0  0  0  0
 38 78  1  0  0  0  0
 38 85  2  0  0  0  0
 39 42  1  0  0  0  0
 40 53  1  0  0  0  0
 41 72  1  0  0  0  0
 42 44  1  0  0  0  0
 43 45  1  0  0  0  0
 43 50  1  0  0  0  0
 44 52  1  0  0  0  0
 45 54  1  0  0  0  0
 46 48  1  0  0  0  0
 46 55  1  0  0  0  0
 47 49  1  0  0  0  0
 47 55  1  0  0  0  0
 48 56  1  0  0  0  0
 49 56  1  0  0  0  0
 50 73  1  0  0  0  0
 51 54  1  0  0  0  0
 51 73  1  0  0  0  0
 52 76  1  0  0  0  0
 53 72  1  0  0  0  0
 54 71  1  0  0  0  0
 55 79  1  0  0  0  0
 56 87  1  0  0  0  0
 58 65  1  0  0  0  0
 59 68  1  0  0  0  0
 60 69  1  0  0  0  0
 61 69  1  0  0  0  0
 62 69  1  0  0  0  0
 63 78  1  0  0  0  0
 64 80  1  0  0  0  0
 65 66  1  0  0  0  0
 66 79  1  0  0  0  0
 67 69  1  0  0  0  0
 67 77  1  0  0  0  0
 68 80  1  0  0  0  0
 70 71  1  0  0  0  0
M  CHG  1  80   1
M  ISO  4  38 100  56 101  78 100  87 101
M  END
> <Batch ID>
0018

> <Smiles>
CCCN(c1ccc([100N:0](C)[100C:0](=O)N2CCCC(n3nc(-c4ccc(Oc5ccc(F)cc5F)cc4)c(C(N)=O)c3N)C2)cc1C)C1CC[101CH:1]([101O:1]c2ccc3c(c2)CN(C(=O)C(NC(=O)C(C)NC)C(C)(C)C)C(C(=O)NC2CCCc4ccccc42)C3)CC1

> <Shape>
0.225

> <Color>
0.073

> <Negative vol penalty>
0.000

$$$$

  -OEChem-04042321033D

 84 92  0     1  0  0  0  0  0999 V2000
  -29.8678   -2.0832   36.8256 C   0  0  0  0  0  0  0  0  0  0  0  0
  -29.8000   -2.9386   35.7306 C   0  0  0  0  0  0  0  0  0  0  0  0
  -23.2846   -9.7975   19.9080 C   0  0  0  0  0  0  0  0  0  0  0  0
  -23.7225   -9.9368   22.2799 C   0  0  0  0  0  0  0  0  0  0  0  0
  -28.6956   -1.5915   37.3984 C   0  0  0  0  0  0  0  0  0  0  0  0
  -28.5597   -3.3021   35.2070 C   0  0  0  0  0  0  0  0  0  0  0  0
  -27.0427   -8.6994   32.7426 C   0  0  0  0  0  0  0  0  0  0  0  0
  -28.4291  -11.5084   25.2454 C   0  0  0  0  0  0  0  0  0  0  0  0
  -28.4860  -10.3588   23.1212 C   0  0  0  0  0  0  0  0  0  0  0  0
  -27.7612  -10.4241   25.8143 C   0  0  0  0  0  0  0  0  0  0  0  0
  -27.8181   -9.2744   23.6902 C   0  0  0  0  0  0  0  0  0  0  0  0
  -22.5525   -8.6278   20.1119 C   0  0  0  0  0  0  0  0  0  0  0  0
  -22.9904   -8.7671   22.4838 C   0  0  0  0  0  0  0  0  0  0  0  0
  -26.9560   -9.1361   31.4214 C   0  0  0  0  0  0  0  0  0  0  0  0
  -19.7387   -7.8687   22.6830 C   0  0  0  0  0  0  0  0  0  0  0  0
  -18.8303   -7.8507   23.7413 C   0  0  0  0  0  0  0  0  0  0  0  0
  -24.5870   -8.6809   31.4327 C   0  0  0  0  0  0  0  0  0  0  0  0
  -20.0233   -5.9990   24.7339 C   0  0  0  0  0  0  0  0  0  0  0  0
  -23.8696  -10.4519   20.9921 C   0  0  0  0  0  0  0  0  0  0  0  0
  -24.1400  -12.9809   20.7945 C   0  0  0  0  0  0  0  0  0  0  0  0
  -27.4401   -1.9568   36.8876 C   0  0  0  0  0  0  0  0  0  0  0  0
  -25.9022   -8.2391   33.4164 C   0  0  0  0  0  0  0  0  0  0  0  0
  -27.3696   -2.8138   35.7726 C   0  0  0  0  0  0  0  0  0  0  0  0
  -24.6614   -8.2413   32.7633 C   0  0  0  0  0  0  0  0  0  0  0  0
  -28.7915  -11.4758   23.8987 C   0  0  0  0  0  0  0  0  0  0  0  0
  -27.4557   -9.3071   25.0368 C   0  0  0  0  0  0  0  0  0  0  0  0
  -22.4054   -8.1126   21.3998 C   0  0  0  0  0  0  0  0  0  0  0  0
  -25.7286   -9.1242   30.7653 C   0  0  0  0  0  0  0  0  0  0  0  0
  -20.7894   -6.9518   22.6500 C   0  0  0  0  0  0  0  0  0  0  0  0
  -18.9726   -6.9159   24.7667 C   0  0  0  0  0  0  0  0  0  0  0  0
  -20.9317   -6.0170   23.6755 C   0  0  0  0  0  0  0  0  0  0  0  0
  -24.6265  -11.6599   20.7821 C   0  0  0  0  0  0  0  0  0  0  0  0
  -25.2459  -13.7565   20.5456 C   0  0  0  0  0  0  0  0  0  0  0  0
  -22.8075  -13.4637   21.0117 C   0  0  0  0  0  0  0  0  0  0  0  0
  -25.0315   -5.4755   34.7233 C   0  0  0  0  0  0  0  0  0  0  0  0
  -22.4723   -7.2006   35.7218 C   0  0  0  0  0  0  0  0  0  0  0  0
  -20.4424   -9.9047   35.2594 C   0  0  0  0  0  0  0  0  0  0  0  0
  -31.1496  -12.3509   21.3872 C   0  0  0  0  0  0  0  0  0  0  0  0
  -26.2020   -1.3624   37.5107 C   0  0  0  0  0  0  0  0  0  0  0  0
  -26.0076   -7.7965   34.8501 C   0  0  0  0  0  0  0  0  0  0  0  0
  -23.4036   -7.7759   33.4487 C   0  0  0  0  0  0  0  0  0  0  0  0
  -24.9172   -2.0935   37.1297 C   0  0  0  0  0  0  0  0  0  0  0  0
  -29.4877  -13.6547   18.3475 C   0  0  0  0  0  0  0  0  0  0  0  0
  -24.8769   -2.3545   35.6274 C   0  0  0  0  0  0  0  0  0  0  0  0
  -28.0171  -13.3328   18.6079 C   0  0  0  0  0  0  0  0  0  0  0  0
  -30.4170  -12.6711   19.0522 C   0  0  0  0  0  0  0  0  0  0  0  0
  -28.6994  -12.2294   20.7753 C   0  0  0  0  0  0  0  0  0  0  0  0
  -26.0424   -3.2508   35.1916 C   0  0  1  0  0  0  0  0  0  0  0  0
  -24.8755   -6.8653   35.2727 C   0  0  1  0  0  0  0  0  0  0  0  0
  -27.7370  -13.2295   20.1172 C   0  0  2  0  0  0  0  0  0  0  0  0
  -18.4121  -11.0298   36.2130 C   0  0  0  0  0  0  0  0  0  0  0  0
  -20.6974   -5.0672   34.4536 C   0  0  0  0  0  0  0  0  0  0  0  0
  -18.7849   -6.6772   34.5889 C   0  0  0  0  0  0  0  0  0  0  0  0
  -19.9058   -5.8966   36.6762 C   0  0  0  0  0  0  0  0  0  0  0  0
  -26.4659   -7.0444   24.7913 C   0  0  0  0  0  0  0  0  0  0  0  0
  -31.8627  -12.0559   23.7290 C   0  0  0  0  0  0  0  0  0  0  0  0
  -21.9521  -12.3786   35.8592 C   0  0  0  0  0  0  0  0  0  0  0  0
  -29.5053  -12.6348   23.2894 C   0  0  0  0  0  0  0  0  0  0  0  0
  -25.1026   -8.9645   27.2113 C   0  0  0  0  0  0  0  0  0  0  0  0
  -26.4098   -8.2097   27.0020 C   0  0  0  0  0  0  0  0  0  0  0  0
  -24.6335   -8.9512   28.6614 C   0  0  0  0  0  0  0  0  0  1  0  0
  -21.1096   -7.5176   35.1547 C   0  0  1  0  0  0  0  0  0  0  0  0
  -19.9311  -10.9575   36.2262 C   0  0  2  0  0  0  0  0  0  0  0  0
  -20.1483   -6.2967   35.2045 C   0  0  0  0  0  0  0  0  0  0  0  0
  -25.9392  -11.5961   20.5439 N   0  0  0  0  0  0  0  0  0  0  0  0
  -26.2869  -12.8867   20.4044 N   0  0  0  0  0  0  0  0  0  0  0  0
  -23.5593   -7.3469   34.8484 N   0  0  0  0  0  0  0  0  0  0  0  0
  -30.1009  -12.5599   20.4766 N   0  0  0  0  0  0  0  0  0  0  0  0
  -25.4196  -15.0907   20.4359 N   0  0  0  0  0  0  0  0  0  0  0  0
  -21.7900  -12.5308   21.2536 N   0  0  0  0  0  0  0  0  0  0  0  0
  -25.7716   -4.6317   35.5293 N   0  0  0  0  0  0  0  0  0  0  0  0
  -20.6276   -8.6877   35.8806 N   0  0  0  0  0  0  0  0  0  0  0  0
  -26.7858   -8.2161   25.6089 N   0  0  3  0  0  0  0  0  0  0  0  0
  -30.8090  -12.2608   22.7454 N   0  0  0  0  0  0  0  0  0  0  0  0
  -20.4686  -12.2991   35.8629 N   0  3  0  0  0  0  0  0  0  0  0  0
  -22.5246  -14.6852   20.9756 O   0  0  0  0  0  0  0  0  0  0  0  0
  -24.5171   -5.1895   33.6485 O   0  0  0  0  0  0  0  0  0  0  0  0
  -22.5694   -6.8434   36.8985 O   0  0  0  0  0  0  0  0  0  0  0  0
  -20.6527  -10.1376   34.0711 O   0  0  0  0  0  0  0  0  0  0  0  0
  -32.3246  -12.2600   21.0088 O   0  0  0  0  0  0  0  0  0  0  0  0
  -21.6909   -6.9715   21.5991 O   0  0  0  0  0  0  0  0  0  0  0  0
  -25.6413   -9.5493   29.4756 O   0  0  0  0  0  0  0  0  0  1  0  0
  -18.1010   -6.8998   25.7838 F   0  0  0  0  0  0  0  0  0  0  0  0
  -21.9398   -5.1344   23.6500 F   0  0  0  0  0  0  0  0  0  0  0  0
  1  2  1  0  0  0  0
  1  5  2  0  0  0  0
  2  6  2  0  0  0  0
  3 12  2  0  0  0  0
  3 19  1  0  0  0  0
  4 13  1  0  0  0  0
  4 19  2  0  0  0  0
  5 21  1  0  0  0  0
  6 23  1  0  0  0  0
  7 14  2  0  0  0  0
  7 22  1  0  0  0  0
  8 10  2  0  0  0  0
  8 25  1  0  0  0  0
  9 11  1  0  0  0  0
  9 25  2  0  0  0  0
 10 26  1  0  0  0  0
 11 26  2  0  0  0  0
 12 27  1  0  0  0  0
 13 27  2  0  0  0  0
 14 28  1  0  0  0  0
 15 16  2  0  0  0  0
 15 29  1  0  0  0  0
 16 30  1  0  0  0  0
 17 24  1  0  0  0  0
 17 28  2  0  0  0  0
 18 30  2  0  0  0  0
 18 31  1  0  0  0  0
 19 32  1  0  0  0  0
 20 32  1  0  0  0  0
 20 33  2  0  0  0  0
 20 34  1  0  0  0  0
 21 23  2  0  0  0  0
 21 39  1  0  0  0  0
 22 24  2  0  0  0  0
 22 40  1  0  0  0  0
 23 48  1  0  0  0  0
 24 41  1  0  0  0  0
 25 58  1  0  0  0  0
 26 73  1  0  0  0  0
 27 81  1  0  0  0  0
 28 82  1  0  0  0  0
 29 31  2  0  0  0  0
 29 81  1  0  0  0  0
 30 83  1  0  0  0  0
 31 84  1  0  0  0  0
 32 65  2  0  0  0  0
 33 66  1  0  0  0  0
 33 69  1  0  0  0  0
 34 70  1  0  0  0  0
 34 76  2  0  0  0  0
 35 49  1  0  0  0  0
 35 71  1  0  0  0  0
 35 77  2  0  0  0  0
 36 62  1  0  0  0  0
 36 67  1  0  0  0  0
 36 78  2  0  0  0  0
 37 63  1  0  0  0  0
 37 72  1  0  0  0  0
 37 79  2  0  0  0  0
 38 68  1  0  0  0  0
 38 74  1  0  0  0  0
 38 80  2  0  0  0  0
 39 42  1  0  0  0  0
 40 49  1  0  0  0  0
 41 67  1  0  0  0  0
 42 44  1  0  0  0  0
 43 45  1  0  0  0  0
 43 46  1  0  0  0  0
 44 48  1  0  0  0  0
 45 50  1  0  0  0  0
 46 68  1  0  0  0  0
 47 50  1  0  0  0  0
 47 68  1  0  0  0  0
 48 71  1  0  0  0  0
 49 67  1  0  0  0  0
 50 66  1  0  0  0  0
 51 63  1  0  0  0  0
 52 64  1  0  0  0  0
 53 64  1  0  0  0  0
 54 64  1  0  0  0  0
 55 73  1  0  0  0  0
 56 74  1  0  0  0  0
 57 75  1  0  0  0  0
 58 74  1  0  0  0  0
 59 60  1  0  0  0  0
 59 61  1  0  0  0  0
 60 73  1  0  0  0  0
 61 82  1  0  0  0  0
 62 64  1  0  0  0  0
 62 72  1  0  0  0  0
 63 75  1  0  0  0  0
 65 66  1  0  0  0  0
M  CHG  1  75   1
M  ISO  4  38 100  61 101  74 100  82 101
M  END
> <Batch ID>
0018

> <Smiles>
CNC(C)C(=O)NC(C(=O)N1Cc2cc([101O:1][101CH2:1]CCN(C)c3ccc(C[100N:0](C)[100C:0](=O)N4CCCC(n5nc(-c6ccc(Oc7ccc(F)cc7F)cc6)c(C(N)=O)c5N)C4)cc3)ccc2CC1C(=O)NC1CCCc2ccccc21)C(C)(C)C

> <Shape>
0.132

> <Color>
0.185

> <Negative vol penalty>
0.000

$$$$

  -OEChem-04042321033D

 84 92  0     1  0  0  0  0  0999 V2000
  -31.3851  -25.2396   17.9816 C   0  0  0  0  0  0  0  0  0  0  0  0
  -30.0150  -25.0326   18.1052 C   0  0  0  0  0  0  0  0  0  0  0  0
  -27.6061  -14.9481   19.7239 C   0  0  0  0  0  0  0  0  0  0  0  0
  -25.2245  -15.2319   19.4332 C   0  0  0  0  0  0  0  0  0  0  0  0
  -32.0725  -25.9529   18.9628 C   0  0  0  0  0  0  0  0  0  0  0  0
  -29.3316  -25.5380   19.2106 C   0  0  0  0  0  0  0  0  0  0  0  0
  -23.6015  -27.6965   19.3253 C   0  0  0  0  0  0  0  0  0  0  0  0
  -21.2718  -23.8504   23.6345 C   0  0  0  0  0  0  0  0  0  0  0  0
  -22.5274  -23.5294   23.1187 C   0  0  0  0  0  0  0  0  0  0  0  0
  -27.4015  -13.6224   20.1062 C   0  0  0  0  0  0  0  0  0  0  0  0
  -25.0199  -13.9061   19.8155 C   0  0  0  0  0  0  0  0  0  0  0  0
  -22.3899  -27.1212   19.7058 C   0  0  0  0  0  0  0  0  0  0  0  0
  -24.9111  -12.1308   22.6908 C   0  0  0  0  0  0  0  0  0  0  0  0
  -23.8844  -11.8690   23.5980 C   0  0  0  0  0  0  0  0  0  0  0  0
  -22.6134  -28.1123   21.8938 C   0  0  0  0  0  0  0  0  0  0  0  0
  -20.2238  -22.5222   21.9098 C   0  0  0  0  0  0  0  0  0  0  0  0
  -22.8117  -10.4402   21.9717 C   0  0  0  0  0  0  0  0  0  0  0  0
  -26.5175  -15.7529   19.3874 C   0  0  0  0  0  0  0  0  0  0  0  0
  -26.9449  -17.6082   17.6895 C   0  0  0  0  0  0  0  0  0  0  0  0
  -31.3955  -26.4755   20.0759 C   0  0  0  0  0  0  0  0  0  0  0  0
  -24.3348  -28.4763   20.2312 C   0  0  0  0  0  0  0  0  0  0  0  0
  -30.0108  -26.2578   20.2083 C   0  0  0  0  0  0  0  0  0  0  0  0
  -23.8328  -28.6985   21.5214 C   0  0  0  0  0  0  0  0  0  0  0  0
  -20.1199  -23.3467   23.0300 C   0  0  0  0  0  0  0  0  0  0  0  0
  -21.4794  -22.2013   21.3940 C   0  0  0  0  0  0  0  0  0  0  0  0
  -22.6312  -22.7049   21.9985 C   0  0  0  0  0  0  0  0  0  0  0  0
  -26.1084  -13.1014   20.1519 C   0  0  0  0  0  0  0  0  0  0  0  0
  -21.8971  -27.3266   20.9911 C   0  0  0  0  0  0  0  0  0  0  0  0
  -24.8880  -11.5474   21.4240 C   0  0  0  0  0  0  0  0  0  0  0  0
  -22.8348  -11.0237   23.2385 C   0  0  0  0  0  0  0  0  0  0  0  0
  -23.8384  -10.7021   21.0645 C   0  0  0  0  0  0  0  0  0  0  0  0
  -26.7282  -17.1226   18.9930 C   0  0  0  0  0  0  0  0  0  0  0  0
  -27.0864  -18.9652   17.8477 C   0  0  0  0  0  0  0  0  0  0  0  0
  -27.0122  -16.8963   16.4468 C   0  0  0  0  0  0  0  0  0  0  0  0
  -27.2142  -28.2590   21.5599 C   0  0  0  0  0  0  0  0  0  0  0  0
  -26.4701  -31.1941   22.7236 C   0  0  0  0  0  0  0  0  0  0  0  0
  -24.0501  -33.4405   23.5862 C   0  0  0  0  0  0  0  0  0  0  0  0
  -25.1479  -22.8169   21.9843 C   0  0  0  0  0  0  0  0  0  0  0  0
  -32.1895  -27.1993   21.1344 C   0  0  0  0  0  0  0  0  0  0  0  0
  -25.6269  -29.1120   19.7966 C   0  0  0  0  0  0  0  0  0  0  0  0
  -24.5716  -29.5442   22.5251 C   0  0  0  0  0  0  0  0  0  0  0  0
  -31.3262  -28.0234   22.0863 C   0  0  0  0  0  0  0  0  0  0  0  0
  -28.5300  -22.2331   21.0369 C   0  0  0  0  0  0  0  0  0  0  0  0
  -30.1263  -27.2090   22.5593 C   0  0  0  0  0  0  0  0  0  0  0  0
  -28.4705  -20.9036   20.2814 C   0  0  0  0  0  0  0  0  0  0  0  0
  -27.5585  -22.2596   22.2156 C   0  0  0  0  0  0  0  0  0  0  0  0
  -26.1096  -20.5907   21.1271 C   0  0  0  0  0  0  0  0  0  0  0  0
  -29.2299  -26.8115   21.3803 C   0  0  1  0  0  0  0  0  0  0  0  0
  -26.5421  -29.4642   20.9652 C   0  0  1  0  0  0  0  0  0  0  0  0
  -27.0240  -20.5408   19.8921 C   0  0  2  0  0  0  0  0  0  0  0  0
  -21.5606  -21.3182   20.1910 C   0  0  0  0  0  0  0  0  0  0  0  0
  -23.7484  -35.7401   24.5445 C   0  0  0  0  0  0  0  0  0  0  0  0
  -27.1140  -30.1168   25.5048 C   0  0  0  0  0  0  0  0  0  0  0  0
  -25.9115  -32.0889   26.4709 C   0  0  0  0  0  0  0  0  0  0  0  0
  -27.9436  -32.4350   25.0661 C   0  0  0  0  0  0  0  0  0  0  0  0
  -22.6930  -34.4079   21.1405 C   0  0  0  0  0  0  0  0  0  0  0  0
  -17.4847  -25.5456   24.6426 C   0  0  0  0  0  0  0  0  0  0  0  0
  -18.7693  -23.6939   23.5835 C   0  0  0  0  0  0  0  0  0  0  0  0
  -18.4694  -27.1618   22.1094 C   0  0  0  0  0  0  0  0  0  0  0  0
  -18.1202  -25.6868   22.2389 C   0  0  0  0  0  0  0  0  0  0  0  0
  -19.9445  -27.4653   22.3417 C   0  0  0  0  0  0  0  0  0  1  0  0
  -25.7857  -31.7092   23.9667 C   0  0  1  0  0  0  0  0  0  0  0  0
  -23.8889  -34.9172   23.2734 C   0  0  2  0  0  0  0  0  0  0  0  0
  -26.6755  -31.5699   25.2341 C   0  0  0  0  0  0  0  0  0  0  0  0
  -26.7311  -18.0923   19.9116 N   0  0  0  0  0  0  0  0  0  0  0  0
  -26.9515  -19.2007   19.1843 N   0  0  0  0  0  0  0  0  0  0  0  0
  -25.8336  -30.1390   22.0547 N   0  0  0  0  0  0  0  0  0  0  0  0
  -26.2076  -21.9103   21.7706 N   0  0  0  0  0  0  0  0  0  0  0  0
  -27.3120  -19.9680   16.9725 N   0  0  0  0  0  0  0  0  0  0  0  0
  -26.8451  -15.5048   16.4640 N   0  0  0  0  0  0  0  0  0  0  0  0
  -23.9157  -22.3906   21.4896 N   0  0  0  0  0  0  0  0  0  0  0  0
  -28.4171  -27.9337   20.9627 N   0  0  0  0  0  0  0  0  0  0  0  0
  -25.3779  -33.0783   23.6705 N   0  0  0  0  0  0  0  0  0  0  0  0
  -22.6782  -35.1396   22.4333 N   0  3  0  0  0  0  0  0  0  0  0  0
  -18.4923  -25.1782   23.5799 N   0  3  1  0  0  0  0  0  0  0  0  0
  -27.2309  -17.4749   15.3555 O   0  0  0  0  0  0  0  0  0  0  0  0
  -26.6815  -27.6689   22.4925 O   0  0  0  0  0  0  0  0  0  0  0  0
  -27.5266  -31.7135   22.3556 O   0  0  0  0  0  0  0  0  0  0  0  0
  -23.0938  -32.6848   23.7439 O   0  0  0  0  0  0  0  0  0  0  0  0
  -25.3260  -23.9042   22.5394 O   0  0  0  0  0  0  0  0  0  0  0  0
  -25.9084  -11.8077   20.5247 O   0  0  0  0  0  0  0  0  0  0  0  0
  -20.7151  -26.7657   21.3654 O   0  0  0  0  0  0  0  0  0  1  0  0
  -21.8497  -10.7711   24.1103 F   0  0  0  0  0  0  0  0  0  0  0  0
  -23.8114  -10.1377   19.8493 F   0  0  0  0  0  0  0  0  0  0  0  0
  1  2  1  0  0  0  0
  1  5  2  0  0  0  0
  2  6  2  0  0  0  0
  3 10  2  0  0  0  0
  3 18  1  0  0  0  0
  4 11  1  0  0  0  0
  4 18  2  0  0  0  0
  5 20  1  0  0  0  0
  6 22  1  0  0  0  0
  7 12  2  0  0  0  0
  7 21  1  0  0  0  0
  8  9  2  0  0  0  0
  8 24  1  0  0  0  0
  9 26  1  0  0  0  0
 10 27  1  0  0  0  0
 11 27  2  0  0  0  0
 12 28  1  0  0  0  0
 13 14  2  0  0  0  0
 13 29  1  0  0  0  0
 14 30  1  0  0  0  0
 15 23  1  0  0  0  0
 15 28  2  0  0  0  0
 16 24  2  0  0  0  0
 16 25  1  0  0  0  0
 17 30  2  0  0  0  0
 17 31  1  0  0  0  0
 18 32  1  0  0  0  0
 19 32  1  0  0  0  0
 19 33  2  0  0  0  0
 19 34  1  0  0  0  0
 20 22  2  0  0  0  0
 20 39  1  0  0  0  0
 21 23  2  0  0  0  0
 21 40  1  0  0  0  0
 22 48  1  0  0  0  0
 23 41  1  0  0  0  0
 24 58  1  0  0  0  0
 25 26  2  0  0  0  0
 25 51  1  0  0  0  0
 26 71  1  0  0  0  0
 27 81  1  0  0  0  0
 28 82  1  0  0  0  0
 29 31  2  0  0  0  0
 29 81  1  0  0  0  0
 30 83  1  0  0  0  0
 31 84  1  0  0  0  0
 32 65  2  0  0  0  0
 33 66  1  0  0  0  0
 33 69  1  0  0  0  0
 34 70  1  0  0  0  0
 34 76  2  0  0  0  0
 35 49  1  0  0  0  0
 35 72  1  0  0  0  0
 35 77  2  0  0  0  0
 36 62  1  0  0  0  0
 36 67  1  0  0  0  0
 36 78  2  0  0  0  0
 37 63  1  0  0  0  0
 37 73  1  0  0  0  0
 37 79  2  0  0  0  0
 38 68  1  0  0  0  0
 38 71  1  0  0  0  0
 38 80  2  0  0  0  0
 39 42  1  0  0  0  0
 40 49  1  0  0  0  0
 41 67  1  0  0  0  0
 42 44  1  0  0  0  0
 43 45  1  0  0  0  0
 43 46  1  0  0  0  0
 44 48  1  0  0  0  0
 45 50  1  0  0  0  0
 46 68  1  0  0  0  0
 47 50  1  0  0  0  0
 47 68  1  0  0  0  0
 48 72  1  0  0  0  0
 49 67  1  0  0  0  0
 50 66  1  0  0  0  0
 52 63  1  0  0  0  0
 53 64  1  0  0  0  0
 54 64  1  0  0  0  0
 55 64  1  0  0  0  0
 56 74  1  0  0  0  0
 57 75  1  0  0  0  0
 58 75  1  0  0  0  0
 59 60  1  0  0  0  0
 59 61  1  0  0  0  0
 60 75  1  0  0  0  0
 61 82  1  0  0  0  0
 62 64  1  0  0  0  0
 62 73  1  0  0  0  0
 63 74  1  0  0  0  0
 65 66  1  0  0  0  0
M  CHG  2  74   1  75   1
M  ISO  4  38 100  61 101  71 100  82 101
M  END
> <Batch ID>
0018

> <Smiles>
CNC(C)C(=O)NC(C(=O)N1Cc2cc([101O:1][101CH2:1]CCN(C)Cc3ccc([100NH:0][100C:0](=O)N4CCCC(n5nc(-c6ccc(Oc7ccc(F)cc7F)cc6)c(C(N)=O)c5N)C4)c(C)c3)ccc2CC1C(=O)NC1CCCc2ccccc21)C(C)(C)C

> <Shape>
0.275

> <Color>
0.062

> <Negative vol penalty>
0.000

$$$$

  -OEChem-04042321033D

 84 92  0     1  0  0  0  0  0999 V2000
  -29.3013  -24.5428   24.2041 C   0  0  0  0  0  0  0  0  0  0  0  0
  -27.9200  -24.4946   24.0462 C   0  0  0  0  0  0  0  0  0  0  0  0
  -28.9863  -26.9971   17.0711 C   0  0  0  0  0  0  0  0  0  0  0  0
  -28.9751  -25.6895   19.1027 C   0  0  0  0  0  0  0  0  0  0  0  0
  -30.1209  -23.7421   23.4097 C   0  0  0  0  0  0  0  0  0  0  0  0
  -27.3574  -23.6465   23.0930 C   0  0  0  0  0  0  0  0  0  0  0  0
  -22.0426  -20.6344   23.5240 C   0  0  0  0  0  0  0  0  0  0  0  0
  -19.6530  -27.5924   23.8747 C   0  0  0  0  0  0  0  0  0  0  0  0
  -19.8341  -28.8712   21.8329 C   0  0  0  0  0  0  0  0  0  0  0  0
  -18.7359  -26.7402   23.2597 C   0  0  0  0  0  0  0  0  0  0  0  0
  -18.9170  -28.0190   21.2179 C   0  0  0  0  0  0  0  0  0  0  0  0
  -30.2270  -26.4581   16.7309 C   0  0  0  0  0  0  0  0  0  0  0  0
  -30.2158  -25.1504   18.7625 C   0  0  0  0  0  0  0  0  0  0  0  0
  -20.7677  -20.9062   23.0296 C   0  0  0  0  0  0  0  0  0  0  0  0
  -33.2137  -23.1576   18.2533 C   0  0  0  0  0  0  0  0  0  0  0  0
  -33.3887  -21.7825   18.4083 C   0  0  0  0  0  0  0  0  0  0  0  0
  -21.2088  -19.4876   21.1290 C   0  0  0  0  0  0  0  0  0  0  0  0
  -31.5846  -21.3777   16.8531 C   0  0  0  0  0  0  0  0  0  0  0  0
  -28.3604  -26.6129   18.2570 C   0  0  0  0  0  0  0  0  0  0  0  0
  -25.8099  -26.6607   18.2748 C   0  0  0  0  0  0  0  0  0  0  0  0
  -29.5676  -22.8766   22.4529 C   0  0  0  0  0  0  0  0  0  0  0  0
  -22.9157  -19.7944   22.8179 C   0  0  0  0  0  0  0  0  0  0  0  0
  -28.1705  -22.8345   22.2841 C   0  0  0  0  0  0  0  0  0  0  0  0
  -22.4934  -19.2047   21.6179 C   0  0  0  0  0  0  0  0  0  0  0  0
  -20.2021  -28.6579   23.1614 C   0  0  0  0  0  0  0  0  0  0  0  0
  -18.3678  -26.9535   21.9313 C   0  0  0  0  0  0  0  0  0  0  0  0
  -30.8417  -25.5347   17.5766 C   0  0  0  0  0  0  0  0  0  0  0  0
  -20.3516  -20.3351   21.8305 C   0  0  0  0  0  0  0  0  0  0  0  0
  -32.2242  -23.6428   17.3983 C   0  0  0  0  0  0  0  0  0  0  0  0
  -32.5741  -20.8925   17.7082 C   0  0  0  0  0  0  0  0  0  0  0  0
  -31.4096  -22.7528   16.6982 C   0  0  0  0  0  0  0  0  0  0  0  0
  -27.0790  -27.1698   18.6092 C   0  0  0  0  0  0  0  0  0  0  0  0
  -24.9249  -27.5457   18.8406 C   0  0  0  0  0  0  0  0  0  0  0  0
  -25.4620  -25.4922   17.5203 C   0  0  0  0  0  0  0  0  0  0  0  0
  -25.7637  -20.1568   21.4535 C   0  0  0  0  0  0  0  0  0  0  0  0
  -25.5238  -16.9528   21.0066 C   0  0  0  0  0  0  0  0  0  0  0  0
  -23.5128  -14.2121   20.7057 C   0  0  0  0  0  0  0  0  0  0  0  0
  -23.2792  -30.7081   23.1343 C   0  0  0  0  0  0  0  0  0  0  0  0
  -30.4964  -22.0651   21.5849 C   0  0  0  0  0  0  0  0  0  0  0  0
  -24.2780  -19.4900   23.3781 C   0  0  0  0  0  0  0  0  0  0  0  0
  -23.3852  -18.2799   20.8319 C   0  0  0  0  0  0  0  0  0  0  0  0
  -29.8018  -20.9175   20.8562 C   0  0  0  0  0  0  0  0  0  0  0  0
  -25.6906  -32.0961   20.9128 C   0  0  0  0  0  0  0  0  0  0  0  0
  -28.5036  -21.3995   20.2164 C   0  0  0  0  0  0  0  0  0  0  0  0
  -26.1662  -30.8956   20.0927 C   0  0  0  0  0  0  0  0  0  0  0  0
  -25.4085  -31.7124   22.3637 C   0  0  0  0  0  0  0  0  0  0  0  0
  -24.9566  -29.3781   21.7152 C   0  0  0  0  0  0  0  0  0  0  0  0
  -27.5213  -21.9091   21.2780 C   0  0  1  0  0  0  0  0  0  0  0  0
  -25.2715  -19.0292   22.3161 C   0  0  1  0  0  0  0  0  0  0  0  0
  -25.2003  -29.7035   20.2317 C   0  0  2  0  0  0  0  0  0  0  0  0
  -23.6039  -11.7360   20.3082 C   0  0  0  0  0  0  0  0  0  0  0  0
  -26.0734  -17.4508   18.0469 C   0  0  0  0  0  0  0  0  0  0  0  0
  -25.2243  -15.1438   17.5726 C   0  0  0  0  0  0  0  0  0  0  0  0
  -27.2428  -15.4581   19.0042 C   0  0  0  0  0  0  0  0  0  0  0  0
  -22.2520  -13.6289   23.3190 C   0  0  0  0  0  0  0  0  0  0  0  0
  -18.8772  -24.8065   19.7027 C   0  0  0  0  0  0  0  0  0  0  0  0
  -21.1828  -29.5694   23.8182 C   0  0  0  0  0  0  0  0  0  0  0  0
  -17.3826  -26.0355   21.2699 C   0  0  0  0  0  0  0  0  0  0  0  0
  -17.5996  -22.2816   20.5405 C   0  0  0  0  0  0  0  0  0  0  0  0
  -16.9462  -23.6384   20.7557 C   0  0  0  0  0  0  0  0  0  0  0  0
  -18.5428  -21.8701   21.6644 C   0  0  0  0  0  0  0  0  0  1  0  0
  -24.9660  -16.0635   19.9217 C   0  0  1  0  0  0  0  0  0  0  0  0
  -23.5759  -12.8405   21.3532 C   0  0  2  0  0  0  0  0  0  0  0  0
  -25.8603  -16.0480   18.6500 C   0  0  0  0  0  0  0  0  0  0  0  0
  -27.0108  -28.2914   19.3313 N   0  0  0  0  0  0  0  0  0  0  0  0
  -25.6881  -28.4944   19.4552 N   0  0  0  0  0  0  0  0  0  0  0  0
  -24.7102  -18.0181   21.4178 N   0  0  0  0  0  0  0  0  0  0  0  0
  -24.4849  -30.5771   22.4257 N   0  0  0  0  0  0  0  0  0  0  0  0
  -23.5762  -27.5972   18.8672 N   0  0  0  0  0  0  0  0  0  0  0  0
  -26.4951  -24.6936   17.0111 N   0  0  0  0  0  0  0  0  0  0  0  0
  -26.8824  -20.7981   21.9502 N   0  0  0  0  0  0  0  0  0  0  0  0
  -24.7692  -14.7521   20.5299 N   0  0  0  0  0  0  0  0  0  0  0  0
  -22.4585  -29.5869   23.1377 N   0  0  0  0  0  0  0  0  0  0  0  0
  -22.3906  -12.6270   22.2309 N   0  3  0  0  0  0  0  0  0  0  0  0
  -17.9744  -24.6945   20.9076 N   0  3  1  0  0  0  0  0  0  0  0  0
  -24.2705  -25.1749   17.2901 O   0  0  0  0  0  0  0  0  0  0  0  0
  -25.1731  -20.4242   20.4136 O   0  0  0  0  0  0  0  0  0  0  0  0
  -26.6374  -16.7071   21.4770 O   0  0  0  0  0  0  0  0  0  0  0  0
  -22.4549  -14.7490   20.3844 O   0  0  0  0  0  0  0  0  0  0  0  0
  -22.9554  -31.7492   23.7160 O   0  0  0  0  0  0  0  0  0  0  0  0
  -32.0523  -25.0083   17.2448 O   0  0  0  0  0  0  0  0  0  0  0  0
  -19.1079  -20.5992   21.3454 O   0  0  0  0  0  0  0  0  0  1  0  0
  -32.7433  -19.5720   17.8560 F   0  0  0  0  0  0  0  0  0  0  0  0
  -30.4581  -23.2130   15.8744 F   0  0  0  0  0  0  0  0  0  0  0  0
  1  2  1  0  0  0  0
  1  5  2  0  0  0  0
  2  6  2  0  0  0  0
  3 12  2  0  0  0  0
  3 19  1  0  0  0  0
  4 13  1  0  0  0  0
  4 19  2  0  0  0  0
  5 21  1  0  0  0  0
  6 23  1  0  0  0  0
  7 14  2  0  0  0  0
  7 22  1  0  0  0  0
  8 10  2  0  0  0  0
  8 25  1  0  0  0  0
  9 11  1  0  0  0  0
  9 25  2  0  0  0  0
 10 26  1  0  0  0  0
 11 26  2  0  0  0  0
 12 27  1  0  0  0  0
 13 27  2  0  0  0  0
 14 28  1  0  0  0  0
 15 16  2  0  0  0  0
 15 29  1  0  0  0  0
 16 30  1  0  0  0  0
 17 24  1  0  0  0  0
 17 28  2  0  0  0  0
 18 30  2  0  0  0  0
 18 31  1  0  0  0  0
 19 32  1  0  0  0  0
 20 32  1  0  0  0  0
 20 33  2  0  0  0  0
 20 34  1  0  0  0  0
 21 23  2  0  0  0  0
 21 39  1  0  0  0  0
 22 24  2  0  0  0  0
 22 40  1  0  0  0  0
 23 48  1  0  0  0  0
 24 41  1  0  0  0  0
 25 57  1  0  0  0  0
 26 58  1  0  0  0  0
 27 81  1  0  0  0  0
 28 82  1  0  0  0  0
 29 31  2  0  0  0  0
 29 81  1  0  0  0  0
 30 83  1  0  0  0  0
 31 84  1  0  0  0  0
 32 65  2  0  0  0  0
 33 66  1  0  0  0  0
 33 69  1  0  0  0  0
 34 70  1  0  0  0  0
 34 76  2  0  0  0  0
 35 49  1  0  0  0  0
 35 71  1  0  0  0  0
 35 77  2  0  0  0  0
 36 62  1  0  0  0  0
 36 67  1  0  0  0  0
 36 78  2  0  0  0  0
 37 63  1  0  0  0  0
 37 72  1  0  0  0  0
 37 79  2  0  0  0  0
 38 68  1  0  0  0  0
 38 73  1  0  0  0  0
 38 80  2  0  0  0  0
 39 42  1  0  0  0  0
 40 49  1  0  0  0  0
 41 67  1  0  0  0  0
 42 44  1  0  0  0  0
 43 45  1  0  0  0  0
 43 46  1  0  0  0  0
 44 48  1  0  0  0  0
 45 50  1  0  0  0  0
 46 68  1  0  0  0  0
 47 50  1  0  0  0  0
 47 68  1  0  0  0  0
 48 71  1  0  0  0  0
 49 67  1  0  0  0  0
 50 66  1  0  0  0  0
 51 63  1  0  0  0  0
 52 64  1  0  0  0  0
 53 64  1  0  0  0  0
 54 64  1  0  0  0  0
 55 74  1  0  0  0  0
 56 75  1  0  0  0  0
 57 73  1  0  0  0  0
 58 75  1  0  0  0  0
 59 60  1  0  0  0  0
 59 61  1  0  0  0  0
 60 75  1  0  0  0  0
 61 82  1  0  0  0  0
 62 64  1  0  0  0  0
 62 72  1  0  0  0  0
 63 74  1  0  0  0  0
 65 66  1  0  0  0  0
M  CHG  2  74   1  75   1
M  ISO  4  38 100  61 101  73 100  82 101
M  END
> <Batch ID>
0018

> <Smiles>
CNC(C)C(=O)NC(C(=O)N1Cc2cc([101O:1][101CH2:1]CCN(C)Cc3ccc(C[100NH:0][100C:0](=O)N4CCCC(n5nc(-c6ccc(Oc7ccc(F)cc7F)cc6)c(C(N)=O)c5N)C4)cc3)ccc2CC1C(=O)NC1CCCc2ccccc21)C(C)(C)C

> <Shape>
0.198

> <Color>
0.091

> <Negative vol penalty>
0.000

$$$$

  -OEChem-04042321033D

 84 92  0     1  0  0  0  0  0999 V2000
  -29.8678   -2.0832   36.8256 C   0  0  0  0  0  0  0  0  0  0  0  0
  -29.8000   -2.9386   35.7306 C   0  0  0  0  0  0  0  0  0  0  0  0
  -23.2846   -9.7975   19.9080 C   0  0  0  0  0  0  0  0  0  0  0  0
  -23.7225   -9.9368   22.2799 C   0  0  0  0  0  0  0  0  0  0  0  0
  -28.6956   -1.5915   37.3984 C   0  0  0  0  0  0  0  0  0  0  0  0
  -28.5597   -3.3021   35.2070 C   0  0  0  0  0  0  0  0  0  0  0  0
  -27.0427   -8.6994   32.7426 C   0  0  0  0  0  0  0  0  0  0  0  0
  -28.4291  -11.5084   25.2454 C   0  0  0  0  0  0  0  0  0  0  0  0
  -28.4860  -10.3588   23.1212 C   0  0  0  0  0  0  0  0  0  0  0  0
  -27.7612  -10.4241   25.8143 C   0  0  0  0  0  0  0  0  0  0  0  0
  -27.8181   -9.2744   23.6902 C   0  0  0  0  0  0  0  0  0  0  0  0
  -22.5525   -8.6278   20.1119 C   0  0  0  0  0  0  0  0  0  0  0  0
  -22.9904   -8.7671   22.4838 C   0  0  0  0  0  0  0  0  0  0  0  0
  -26.9560   -9.1361   31.4214 C   0  0  0  0  0  0  0  0  0  0  0  0
  -19.7387   -7.8687   22.6830 C   0  0  0  0  0  0  0  0  0  0  0  0
  -18.8303   -7.8507   23.7413 C   0  0  0  0  0  0  0  0  0  0  0  0
  -24.5870   -8.6809   31.4327 C   0  0  0  0  0  0  0  0  0  0  0  0
  -20.0233   -5.9990   24.7339 C   0  0  0  0  0  0  0  0  0  0  0  0
  -23.8696  -10.4519   20.9921 C   0  0  0  0  0  0  0  0  0  0  0  0
  -24.1400  -12.9809   20.7945 C   0  0  0  0  0  0  0  0  0  0  0  0
  -27.4401   -1.9568   36.8876 C   0  0  0  0  0  0  0  0  0  0  0  0
  -25.9022   -8.2391   33.4164 C   0  0  0  0  0  0  0  0  0  0  0  0
  -27.3696   -2.8138   35.7726 C   0  0  0  0  0  0  0  0  0  0  0  0
  -24.6614   -8.2413   32.7633 C   0  0  0  0  0  0  0  0  0  0  0  0
  -28.7915  -11.4758   23.8987 C   0  0  0  0  0  0  0  0  0  0  0  0
  -27.4557   -9.3071   25.0368 C   0  0  0  0  0  0  0  0  0  0  0  0
  -22.4054   -8.1126   21.3998 C   0  0  0  0  0  0  0  0  0  0  0  0
  -25.7286   -9.1242   30.7653 C   0  0  0  0  0  0  0  0  0  0  0  0
  -20.7894   -6.9518   22.6500 C   0  0  0  0  0  0  0  0  0  0  0  0
  -18.9726   -6.9159   24.7667 C   0  0  0  0  0  0  0  0  0  0  0  0
  -20.9317   -6.0170   23.6755 C   0  0  0  0  0  0  0  0  0  0  0  0
  -24.6265  -11.6599   20.7821 C   0  0  0  0  0  0  0  0  0  0  0  0
  -25.2459  -13.7565   20.5456 C   0  0  0  0  0  0  0  0  0  0  0  0
  -22.8075  -13.4637   21.0117 C   0  0  0  0  0  0  0  0  0  0  0  0
  -25.0315   -5.4755   34.7233 C   0  0  0  0  0  0  0  0  0  0  0  0
  -22.4723   -7.2006   35.7218 C   0  0  0  0  0  0  0  0  0  0  0  0
  -20.4424   -9.9047   35.2594 C   0  0  0  0  0  0  0  0  0  0  0  0
  -31.1496  -12.3509   21.3872 C   0  0  0  0  0  0  0  0  0  0  0  0
  -26.2020   -1.3624   37.5107 C   0  0  0  0  0  0  0  0  0  0  0  0
  -26.0076   -7.7965   34.8501 C   0  0  0  0  0  0  0  0  0  0  0  0
  -23.4036   -7.7759   33.4487 C   0  0  0  0  0  0  0  0  0  0  0  0
  -24.9172   -2.0935   37.1297 C   0  0  0  0  0  0  0  0  0  0  0  0
  -29.4877  -13.6547   18.3475 C   0  0  0  0  0  0  0  0  0  0  0  0
  -24.8769   -2.3545   35.6274 C   0  0  0  0  0  0  0  0  0  0  0  0
  -28.0171  -13.3328   18.6079 C   0  0  0  0  0  0  0  0  0  0  0  0
  -30.4170  -12.6711   19.0522 C   0  0  0  0  0  0  0  0  0  0  0  0
  -28.6994  -12.2294   20.7753 C   0  0  0  0  0  0  0  0  0  0  0  0
  -26.0424   -3.2508   35.1916 C   0  0  1  0  0  0  0  0  0  0  0  0
  -24.8755   -6.8653   35.2727 C   0  0  1  0  0  0  0  0  0  0  0  0
  -27.7370  -13.2295   20.1172 C   0  0  2  0  0  0  0  0  0  0  0  0
  -18.4121  -11.0298   36.2130 C   0  0  0  0  0  0  0  0  0  0  0  0
  -20.6974   -5.0672   34.4536 C   0  0  0  0  0  0  0  0  0  0  0  0
  -18.7849   -6.6772   34.5889 C   0  0  0  0  0  0  0  0  0  0  0  0
  -19.9058   -5.8966   36.6762 C   0  0  0  0  0  0  0  0  0  0  0  0
  -26.4659   -7.0444   24.7913 C   0  0  0  0  0  0  0  0  0  0  0  0
  -31.8627  -12.0559   23.7290 C   0  0  0  0  0  0  0  0  0  0  0  0
  -21.9521  -12.3786   35.8592 C   0  0  0  0  0  0  0  0  0  0  0  0
  -29.5053  -12.6348   23.2894 C   0  0  0  0  0  0  0  0  0  0  0  0
  -25.1026   -8.9645   27.2113 C   0  0  0  0  0  0  0  0  0  0  0  0
  -26.4098   -8.2097   27.0020 C   0  0  0  0  0  0  0  0  0  0  0  0
  -24.6335   -8.9512   28.6614 C   0  0  0  0  0  0  0  0  0  1  0  0
  -21.1096   -7.5176   35.1547 C   0  0  1  0  0  0  0  0  0  0  0  0
  -19.9311  -10.9575   36.2262 C   0  0  2  0  0  0  0  0  0  0  0  0
  -20.1483   -6.2967   35.2045 C   0  0  0  0  0  0  0  0  0  0  0  0
  -25.9392  -11.5961   20.5439 N   0  0  0  0  0  0  0  0  0  0  0  0
  -26.2869  -12.8867   20.4044 N   0  0  0  0  0  0  0  0  0  0  0  0
  -23.5593   -7.3469   34.8484 N   0  0  0  0  0  0  0  0  0  0  0  0
  -30.1009  -12.5599   20.4766 N   0  0  0  0  0  0  0  0  0  0  0  0
  -25.4196  -15.0907   20.4359 N   0  0  0  0  0  0  0  0  0  0  0  0
  -21.7900  -12.5308   21.2536 N   0  0  0  0  0  0  0  0  0  0  0  0
  -25.7716   -4.6317   35.5293 N   0  0  0  0  0  0  0  0  0  0  0  0
  -20.6276   -8.6877   35.8806 N   0  0  0  0  0  0  0  0  0  0  0  0
  -26.7858   -8.2161   25.6089 N   0  0  3  0  0  0  0  0  0  0  0  0
  -30.8090  -12.2608   22.7454 N   0  0  0  0  0  0  0  0  0  0  0  0
  -20.4686  -12.2991   35.8629 N   0  3  0  0  0  0  0  0  0  0  0  0
  -22.5246  -14.6852   20.9756 O   0  0  0  0  0  0  0  0  0  0  0  0
  -24.5171   -5.1895   33.6485 O   0  0  0  0  0  0  0  0  0  0  0  0
  -22.5694   -6.8434   36.8985 O   0  0  0  0  0  0  0  0  0  0  0  0
  -20.6527  -10.1376   34.0711 O   0  0  0  0  0  0  0  0  0  0  0  0
  -32.3246  -12.2600   21.0088 O   0  0  0  0  0  0  0  0  0  0  0  0
  -21.6909   -6.9715   21.5991 O   0  0  0  0  0  0  0  0  0  0  0  0
  -25.6413   -9.5493   29.4756 O   0  0  0  0  0  0  0  0  0  1  0  0
  -18.1010   -6.8998   25.7838 F   0  0  0  0  0  0  0  0  0  0  0  0
  -21.9398   -5.1344   23.6500 F   0  0  0  0  0  0  0  0  0  0  0  0
  1  2  1  0  0  0  0
  1  5  2  0  0  0  0
  2  6  2  0  0  0  0
  3 12  2  0  0  0  0
  3 19  1  0  0  0  0
  4 13  1  0  0  0  0
  4 19  2  0  0  0  0
  5 21  1  0  0  0  0
  6 23  1  0  0  0  0
  7 14  2  0  0  0  0
  7 22  1  0  0  0  0
  8 10  2  0  0  0  0
  8 25  1  0  0  0  0
  9 11  1  0  0  0  0
  9 25  2  0  0  0  0
 10 26  1  0  0  0  0
 11 26  2  0  0  0  0
 12 27  1  0  0  0  0
 13 27  2  0  0  0  0
 14 28  1  0  0  0  0
 15 16  2  0  0  0  0
 15 29  1  0  0  0  0
 16 30  1  0  0  0  0
 17 24  1  0  0  0  0
 17 28  2  0  0  0  0
 18 30  2  0  0  0  0
 18 31  1  0  0  0  0
 19 32  1  0  0  0  0
 20 32  1  0  0  0  0
 20 33  2  0  0  0  0
 20 34  1  0  0  0  0
 21 23  2  0  0  0  0
 21 39  1  0  0  0  0
 22 24  2  0  0  0  0
 22 40  1  0  0  0  0
 23 48  1  0  0  0  0
 24 41  1  0  0  0  0
 25 58  1  0  0  0  0
 26 73  1  0  0  0  0
 27 81  1  0  0  0  0
 28 82  1  0  0  0  0
 29 31  2  0  0  0  0
 29 81  1  0  0  0  0
 30 83  1  0  0  0  0
 31 84  1  0  0  0  0
 32 65  2  0  0  0  0
 33 66  1  0  0  0  0
 33 69  1  0  0  0  0
 34 70  1  0  0  0  0
 34 76  2  0  0  0  0
 35 49  1  0  0  0  0
 35 71  1  0  0  0  0
 35 77  2  0  0  0  0
 36 62  1  0  0  0  0
 36 67  1  0  0  0  0
 36 78  2  0  0  0  0
 37 63  1  0  0  0  0
 37 72  1  0  0  0  0
 37 79  2  0  0  0  0
 38 68  1  0  0  0  0
 38 74  1  0  0  0  0
 38 80  2  0  0  0  0
 39 42  1  0  0  0  0
 40 49  1  0  0  0  0
 41 67  1  0  0  0  0
 42 44  1  0  0  0  0
 43 45  1  0  0  0  0
 43 46  1  0  0  0  0
 44 48  1  0  0  0  0
 45 50  1  0  0  0  0
 46 68  1  0  0  0  0
 47 50  1  0  0  0  0
 47 68  1  0  0  0  0
 48 71  1  0  0  0  0
 49 67  1  0  0  0  0
 50 66  1  0  0  0  0
 51 63  1  0  0  0  0
 52 64  1  0  0  0  0
 53 64  1  0  0  0  0
 54 64  1  0  0  0  0
 55 73  1  0  0  0  0
 56 74  1  0  0  0  0
 57 75  1  0  0  0  0
 58 74  1  0  0  0  0
 59 60  1  0  0  0  0
 59 61  1  0  0  0  0
 60 73  1  0  0  0  0
 61 82  1  0  0  0  0
 62 64  1  0  0  0  0
 62 72  1  0  0  0  0
 63 75  1  0  0  0  0
 65 66  1  0  0  0  0
M  CHG  1  75   1
M  ISO  4  38 100  61 101  74 100  82 101
M  END
> <Batch ID>
0018

> <Smiles>
CNC(C)C(=O)NC(C(=O)N1Cc2cc([101O:1][101CH2:1]CCN(C)c3ccc(C[100N:0](C)[100C:0](=O)N4CCCC(n5nc(-c6ccc(Oc7ccc(F)cc7F)cc6)c(C(N)=O)c5N)C4)cc3)ccc2CC1C(=O)NC1CCCc2ccccc21)C(C)(C)C

> <Shape>
0.132

> <Color>
0.185

> <Negative vol penalty>
0.000

$$$$

  -OEChem-04042321033D

 85 94  0     1  0  0  0  0  0999 V2000
  -21.9385  -26.9536   27.9555 C   0  0  0  0  0  0  0  0  0  0  0  0
  -23.2741  -26.5769   27.8570 C   0  0  0  0  0  0  0  0  0  0  0  0
  -23.2278   -9.7483   19.9115 C   0  0  0  0  0  0  0  0  0  0  0  0
  -23.8397   -9.8875   22.2446 C   0  0  0  0  0  0  0  0  0  0  0  0
  -21.1096  -26.8773   26.8371 C   0  0  0  0  0  0  0  0  0  0  0  0
  -23.7812  -26.1225   26.6401 C   0  0  0  0  0  0  0  0  0  0  0  0
  -29.4260  -27.0177   24.4398 C   0  0  0  0  0  0  0  0  0  0  0  0
  -32.2511  -17.9191   23.6372 C   0  0  0  0  0  0  0  0  0  0  0  0
  -31.7376  -16.9793   22.7435 C   0  0  0  0  0  0  0  0  0  0  0  0
  -22.5197   -8.5741   20.1672 C   0  0  0  0  0  0  0  0  0  0  0  0
  -23.1316   -8.7133   22.5003 C   0  0  0  0  0  0  0  0  0  0  0  0
  -30.5660  -26.2152   24.4273 C   0  0  0  0  0  0  0  0  0  0  0  0
  -19.5222   -7.7061   21.4691 C   0  0  0  0  0  0  0  0  0  0  0  0
  -18.2520   -7.5797   20.9071 C   0  0  0  0  0  0  0  0  0  0  0  0
  -30.0119  -25.4732   22.1998 C   0  0  0  0  0  0  0  0  0  0  0  0
  -30.0151  -18.7204   24.0793 C   0  0  0  0  0  0  0  0  0  0  0  0
  -18.9772   -5.6097   19.7111 C   0  0  0  0  0  0  0  0  0  0  0  0
  -23.8878  -10.4050   20.9502 C   0  0  0  0  0  0  0  0  0  0  0  0
  -24.1279  -12.9357   20.7371 C   0  0  0  0  0  0  0  0  0  0  0  0
  -21.6092  -26.4310   25.6035 C   0  0  0  0  0  0  0  0  0  0  0  0
  -28.5631  -27.0457   23.3348 C   0  0  0  0  0  0  0  0  0  0  0  0
  -22.9579  -26.0390   25.5044 C   0  0  0  0  0  0  0  0  0  0  0  0
  -28.8630  -26.2788   22.1998 C   0  0  0  0  0  0  0  0  0  0  0  0
  -31.3899  -18.7897   24.3051 C   0  0  0  0  0  0  0  0  0  0  0  0
  -30.3629  -16.9100   22.5177 C   0  0  0  0  0  0  0  0  0  0  0  0
  -29.5016  -17.7806   23.1856 C   0  0  0  0  0  0  0  0  0  0  0  0
  -22.4716   -8.0566   21.4616 C   0  0  0  0  0  0  0  0  0  0  0  0
  -30.8576  -25.4406   23.3083 C   0  0  0  0  0  0  0  0  0  0  0  0
  -20.5201   -6.7844   21.1521 C   0  0  0  0  0  0  0  0  0  0  0  0
  -17.9794   -6.5315   20.0281 C   0  0  0  0  0  0  0  0  0  0  0  0
  -20.2476   -5.7362   20.2732 C   0  0  0  0  0  0  0  0  0  0  0  0
  -24.6199  -11.6177   20.6865 C   0  0  0  0  0  0  0  0  0  0  0  0
  -25.2077  -13.7182   20.4081 C   0  0  0  0  0  0  0  0  0  0  0  0
  -22.8125  -13.4104   21.0533 C   0  0  0  0  0  0  0  0  0  0  0  0
  -25.5153  -26.2850   22.8489 C   0  0  0  0  0  0  0  0  0  0  0  0
  -26.0721  -27.5506   19.9145 C   0  0  0  0  0  0  0  0  0  0  0  0
  -28.3315  -28.3460   17.4836 C   0  0  0  0  0  0  0  0  0  0  0  0
  -30.6019  -15.0187   20.8709 C   0  0  0  0  0  0  0  0  0  0  0  0
  -20.6631  -26.3209   24.4340 C   0  0  0  0  0  0  0  0  0  0  0  0
  -27.3517  -27.9370   23.3536 C   0  0  0  0  0  0  0  0  0  0  0  0
  -27.9797  -26.2889   20.9799 C   0  0  0  0  0  0  0  0  0  0  0  0
  -21.3712  -26.1839   23.0886 C   0  0  0  0  0  0  0  0  0  0  0  0
  -29.7446  -12.4580   18.5504 C   0  0  0  0  0  0  0  0  0  0  0  0
  -22.4857  -25.1460   23.1751 C   0  0  0  0  0  0  0  0  0  0  0  0
  -28.2944  -12.1195   18.9034 C   0  0  0  0  0  0  0  0  0  0  0  0
  -30.5710  -12.7792   19.7944 C   0  0  0  0  0  0  0  0  0  0  0  0
  -28.5509  -13.4739   21.0216 C   0  0  0  0  0  0  0  0  0  0  0  0
  -33.2296  -21.8677   25.5300 C   0  0  0  0  0  0  0  0  0  0  0  0
  -32.2081  -21.6791   23.7175 C   0  0  0  0  0  0  0  0  0  0  0  0
  -23.5511  -25.5644   24.1956 C   0  0  1  0  0  0  0  0  0  0  0  0
  -26.2692  -27.4947   22.3737 C   0  0  1  0  0  0  0  0  0  0  0  0
  -33.0867  -22.8016   24.3096 C   0  0  0  0  0  0  0  0  0  0  0  0
  -27.6631  -13.2065   19.7953 C   0  0  2  0  0  0  0  0  0  0  0  0
  -28.4827  -29.3352   15.1823 C   0  0  0  0  0  0  0  0  0  0  0  0
  -25.0136  -24.9463   18.7282 C   0  0  0  0  0  0  0  0  0  0  0  0
  -26.0540  -25.5986   16.5464 C   0  0  0  0  0  0  0  0  0  0  0  0
  -24.2589  -27.0152   17.5431 C   0  0  0  0  0  0  0  0  0  0  0  0
  -27.2618  -18.8752   23.0834 C   0  0  0  0  0  0  0  0  0  0  0  0
  -30.0440  -30.5685   18.4254 C   0  0  0  0  0  0  0  0  0  0  0  0
  -31.9428  -19.8003   25.2663 C   0  0  0  0  0  0  0  0  0  0  0  0
  -32.4178  -24.1416   24.5470 C   0  0  0  0  0  0  0  0  0  1  0  0
  -26.5593  -27.0098   18.5919 C   0  0  1  0  0  0  0  0  0  0  0  0
  -28.5375  -29.6149   16.6762 C   0  0  2  0  0  0  0  0  0  0  0  0
  -25.4873  -26.1406   17.8760 C   0  0  0  0  0  0  0  0  0  0  0  0
  -25.9117  -11.5620   20.3515 N   0  0  0  0  0  0  0  0  0  0  0  0
  -26.2405  -12.8548   20.1886 N   0  0  0  0  0  0  0  0  0  0  0  0
  -26.8035  -27.1718   21.0492 N   0  0  0  0  0  0  0  0  0  0  0  0
  -29.9138  -13.8198   20.5882 N   0  0  0  0  0  0  0  0  0  0  0  0
  -25.3650  -15.0535   20.2879 N   0  0  0  0  0  0  0  0  0  0  0  0
  -21.8211  -12.4711   21.3686 N   0  0  0  0  0  0  0  0  0  0  0  0
  -29.8649  -15.9472   21.6052 N   0  0  0  0  0  0  0  0  0  0  0  0
  -28.1059  -17.7279   22.9718 N   0  0  0  0  0  0  0  0  0  0  0  0
  -24.4174  -26.5791   23.6347 N   0  0  0  0  0  0  0  0  0  0  0  0
  -27.0066  -28.1635   17.8191 N   0  0  0  0  0  0  0  0  0  0  0  0
  -32.8909  -20.7433   24.6340 N   0  3  0  0  0  0  0  0  0  0  0  0
  -29.8617  -30.2210   16.9926 N   0  3  0  0  0  0  0  0  0  0  0  0
  -22.5205  -14.6302   21.0402 O   0  0  0  0  0  0  0  0  0  0  0  0
  -25.9004  -25.1675   22.5253 O   0  0  0  0  0  0  0  0  0  0  0  0
  -25.0835  -28.2878   19.9392 O   0  0  0  0  0  0  0  0  0  0  0  0
  -29.2532  -27.5902   17.7834 O   0  0  0  0  0  0  0  0  0  0  0  0
  -31.7501  -15.2187   20.4664 O   0  0  0  0  0  0  0  0  0  0  0  0
  -21.7805   -6.9109   21.7116 O   0  0  0  0  0  0  0  0  0  0  0  0
  -31.9694  -24.6560   23.2937 O   0  0  0  0  0  0  0  0  0  1  0  0
  -16.7591   -6.4093   19.4896 F   0  0  0  0  0  0  0  0  0  0  0  0
  -21.2018   -4.8470   19.9658 F   0  0  0  0  0  0  0  0  0  0  0  0
  1  2  1  0  0  0  0
  1  5  2  0  0  0  0
  2  6  2  0  0  0  0
  3 10  2  0  0  0  0
  3 18  1  0  0  0  0
  4 11  1  0  0  0  0
  4 18  2  0  0  0  0
  5 20  1  0  0  0  0
  6 22  1  0  0  0  0
  7 12  2  0  0  0  0
  7 21  1  0  0  0  0
  8  9  2  0  0  0  0
  8 24  1  0  0  0  0
  9 25  1  0  0  0  0
 10 27  1  0  0  0  0
 11 27  2  0  0  0  0
 12 28  1  0  0  0  0
 13 14  2  0  0  0  0
 13 29  1  0  0  0  0
 14 30  1  0  0  0  0
 15 23  1  0  0  0  0
 15 28  2  0  0  0  0
 16 24  2  0  0  0  0
 16 26  1  0  0  0  0
 17 30  2  0  0  0  0
 17 31  1  0  0  0  0
 18 32  1  0  0  0  0
 19 32  1  0  0  0  0
 19 33  2  0  0  0  0
 19 34  1  0  0  0  0
 20 22  2  0  0  0  0
 20 39  1  0  0  0  0
 21 23  2  0  0  0  0
 21 40  1  0  0  0  0
 22 50  1  0  0  0  0
 23 41  1  0  0  0  0
 24 60  1  0  0  0  0
 25 26  2  0  0  0  0
 25 71  1  0  0  0  0
 26 72  1  0  0  0  0
 27 82  1  0  0  0  0
 28 83  1  0  0  0  0
 29 31  2  0  0  0  0
 29 82  1  0  0  0  0
 30 84  1  0  0  0  0
 31 85  1  0  0  0  0
 32 65  2  0  0  0  0
 33 66  1  0  0  0  0
 33 69  1  0  0  0  0
 34 70  1  0  0  0  0
 34 77  2  0  0  0  0
 35 51  1  0  0  0  0
 35 73  1  0  0  0  0
 35 78  2  0  0  0  0
 36 62  1  0  0  0  0
 36 67  1  0  0  0  0
 36 79  2  0  0  0  0
 37 63  1  0  0  0  0
 37 74  1  0  0  0  0
 37 80  2  0  0  0  0
 38 68  1  0  0  0  0
 38 71  1  0  0  0  0
 38 81  2  0  0  0  0
 39 42  1  0  0  0  0
 40 51  1  0  0  0  0
 41 67  1  0  0  0  0
 42 44  1  0  0  0  0
 43 45  1  0  0  0  0
 43 46  1  0  0  0  0
 44 50  1  0  0  0  0
 45 53  1  0  0  0  0
 46 68  1  0  0  0  0
 47 53  1  0  0  0  0
 47 68  1  0  0  0  0
 48 52  1  0  0  0  0
 48 75  1  0  0  0  0
 49 52  1  0  0  0  0
 49 75  1  0  0  0  0
 50 73  1  0  0  0  0
 51 67  1  0  0  0  0
 52 61  1  0  0  0  0
 53 66  1  0  0  0  0
 54 63  1  0  0  0  0
 55 64  1  0  0  0  0
 56 64  1  0  0  0  0
 57 64  1  0  0  0  0
 58 72  1  0  0  0  0
 59 76  1  0  0  0  0
 60 75  1  0  0  0  0
 61 83  1  0  0  0  0
 62 64  1  0  0  0  0
 62 74  1  0  0  0  0
 63 76  1  0  0  0  0
 65 66  1  0  0  0  0
M  CHG  2  75   1  76   1
M  ISO  4  38 100  61 101  71 100  83 101
M  END
> <Batch ID>
0018

> <Smiles>
CNc1cc(CN2CC([101CH2:1][101O:1]c3ccc4c(c3)CN(C(=O)C(NC(=O)C(C)NC)C(C)(C)C)C(C(=O)NC3CCCc5ccccc53)C4)C2)ccc1[100NH:0][100C:0](=O)N1CCCC(n2nc(-c3ccc(Oc4ccc(F)cc4F)cc3)c(C(N)=O)c2N)C1

> <Shape>
0.194

> <Color>
0.176

> <Negative vol penalty>
0.000

$$$$

  -OEChem-04042321033D

 85 94  0     1  0  0  0  0  0999 V2000
  -19.8515  -29.9069   18.0123 C   0  0  0  0  0  0  0  0  0  0  0  0
  -20.2200  -28.6446   18.4662 C   0  0  0  0  0  0  0  0  0  0  0  0
  -23.2349   -9.8259   19.9079 C   0  0  0  0  0  0  0  0  0  0  0  0
  -23.7731   -9.9267   22.2611 C   0  0  0  0  0  0  0  0  0  0  0  0
  -20.2263  -30.3243   16.7358 C   0  0  0  0  0  0  0  0  0  0  0  0
  -20.9626  -27.7984   17.6434 C   0  0  0  0  0  0  0  0  0  0  0  0
  -25.2651  -23.8066   19.3929 C   0  0  0  0  0  0  0  0  0  0  0  0
  -25.5737  -15.1957   15.9206 C   0  0  0  0  0  0  0  0  0  0  0  0
  -26.6411  -14.3380   15.6547 C   0  0  0  0  0  0  0  0  0  0  0  0
  -22.5069   -8.6560   20.1245 C   0  0  0  0  0  0  0  0  0  0  0  0
  -23.0450   -8.7568   22.4777 C   0  0  0  0  0  0  0  0  0  0  0  0
  -25.2333  -22.4306   19.6150 C   0  0  0  0  0  0  0  0  0  0  0  0
  -19.4604   -7.8029   21.3178 C   0  0  0  0  0  0  0  0  0  0  0  0
  -18.2075   -7.6978   20.7137 C   0  0  0  0  0  0  0  0  0  0  0  0
  -26.0538  -22.0565   17.3776 C   0  0  0  0  0  0  0  0  0  0  0  0
  -26.9441  -16.4132   17.4944 C   0  0  0  0  0  0  0  0  0  0  0  0
  -18.9504   -5.7366   19.5142 C   0  0  0  0  0  0  0  0  0  0  0  0
  -23.8681  -10.4612   20.9762 C   0  0  0  0  0  0  0  0  0  0  0  0
  -24.1411  -12.9919   20.8062 C   0  0  0  0  0  0  0  0  0  0  0  0
  -20.9821  -29.4865   15.9007 C   0  0  0  0  0  0  0  0  0  0  0  0
  -25.6818  -24.3184   18.1556 C   0  0  0  0  0  0  0  0  0  0  0  0
  -21.3467  -28.2044   16.3541 C   0  0  0  0  0  0  0  0  0  0  0  0
  -26.0924  -23.4395   17.1432 C   0  0  0  0  0  0  0  0  0  0  0  0
  -25.7252  -16.2333   16.8404 C   0  0  0  0  0  0  0  0  0  0  0  0
  -27.8599  -14.5179   16.3087 C   0  0  0  0  0  0  0  0  0  0  0  0
  -22.4119   -8.1215   21.4094 C   0  0  0  0  0  0  0  0  0  0  0  0
  -25.6249  -21.5552   18.6064 C   0  0  0  0  0  0  0  0  0  0  0  0
  -20.4583   -6.8748   21.0200 C   0  0  0  0  0  0  0  0  0  0  0  0
  -17.9525   -6.6647   19.8119 C   0  0  0  0  0  0  0  0  0  0  0  0
  -28.0115  -15.5555   17.2285 C   0  0  0  0  0  0  0  0  0  0  0  0
  -20.2033   -5.8417   20.1183 C   0  0  0  0  0  0  0  0  0  0  0  0
  -24.6207  -11.6694   20.7530 C   0  0  0  0  0  0  0  0  0  0  0  0
  -25.2389  -13.7670   20.5228 C   0  0  0  0  0  0  0  0  0  0  0  0
  -22.8211  -13.4764   21.0869 C   0  0  0  0  0  0  0  0  0  0  0  0
  -24.3160  -26.0585   15.8730 C   0  0  0  0  0  0  0  0  0  0  0  0
  -27.3031  -26.0353   14.6086 C   0  0  0  0  0  0  0  0  0  0  0  0
  -30.3419  -24.4985   14.3831 C   0  0  0  0  0  0  0  0  0  0  0  0
  -29.9524  -13.3084   16.9794 C   0  0  0  0  0  0  0  0  0  0  0  0
  -21.3234  -29.9632   14.5111 C   0  0  0  0  0  0  0  0  0  0  0  0
  -25.7359  -25.8061   17.9409 C   0  0  0  0  0  0  0  0  0  0  0  0
  -26.5674  -23.9389   15.8040 C   0  0  0  0  0  0  0  0  0  0  0  0
  -22.4299  -29.1511   13.8431 C   0  0  0  0  0  0  0  0  0  0  0  0
  -30.1292  -13.1261   20.6711 C   0  0  0  0  0  0  0  0  0  0  0  0
  -22.5312  -18.0999   17.0181 C   0  0  0  0  0  0  0  0  0  0  0  0
  -22.1752  -27.6572   14.0175 C   0  0  0  0  0  0  0  0  0  0  0  0
  -28.6962  -12.7700   21.0623 C   0  0  0  0  0  0  0  0  0  0  0  0
  -23.1505  -18.3477   18.3845 C   0  0  0  0  0  0  0  0  0  0  0  0
  -23.3623  -16.9524   16.4530 C   0  0  0  0  0  0  0  0  0  0  0  0
  -30.4873  -12.5940   19.2868 C   0  0  0  0  0  0  0  0  0  0  0  0
  -28.1054  -12.6776   18.6079 C   0  0  0  0  0  0  0  0  0  0  0  0
  -22.1734  -27.2673   15.5005 C   0  0  1  0  0  0  0  0  0  0  0  0
  -25.6887  -26.1994   16.4676 C   0  0  1  0  0  0  0  0  0  0  0  0
  -27.7070  -13.2372   19.9817 C   0  0  1  0  0  0  0  0  0  0  0  0
  -24.6492  -18.1066   18.1561 C   0  0  2  0  0  0  0  0  0  0  0  0
  -32.5680  -24.6934   13.2412 C   0  0  0  0  0  0  0  0  0  0  0  0
  -26.0647  -24.9938   12.0218 C   0  0  0  0  0  0  0  0  0  0  0  0
  -28.3579  -24.3191   11.2774 C   0  0  0  0  0  0  0  0  0  0  0  0
  -27.8439  -26.7224   11.7045 C   0  0  0  0  0  0  0  0  0  0  0  0
  -29.2037  -13.2513   14.6411 C   0  0  0  0  0  0  0  0  0  0  0  0
  -31.7709  -24.7676   16.9608 C   0  0  0  0  0  0  0  0  0  0  0  0
  -25.3538  -19.3788   17.6868 C   0  0  0  0  0  0  0  0  0  1  0  0
  -28.0555  -25.1338   13.6598 C   0  0  1  0  0  0  0  0  0  0  0  0
  -31.7557  -25.0432   14.4784 C   0  0  2  0  0  0  0  0  0  0  0  0
  -27.5697  -25.2825   12.1903 C   0  0  0  0  0  0  0  0  0  0  0  0
  -25.9220  -11.6044   20.4587 N   0  0  0  0  0  0  0  0  0  0  0  0
  -26.2693  -12.8957   20.3244 N   0  0  0  0  0  0  0  0  0  0  0  0
  -24.6677  -17.0836   17.1033 N   0  0  3  0  0  0  0  0  0  0  0  0
  -26.5962  -25.4017   15.6404 N   0  0  0  0  0  0  0  0  0  0  0  0
  -29.5044  -12.9967   18.2796 N   0  0  0  0  0  0  0  0  0  0  0  0
  -25.4138  -15.1021   20.4263 N   0  0  0  0  0  0  0  0  0  0  0  0
  -21.8105  -12.5437   21.3572 N   0  0  0  0  0  0  0  0  0  0  0  0
  -23.5280  -27.1861   16.0034 N   0  0  0  0  0  0  0  0  0  0  0  0
  -29.4713  -25.4276   13.8538 N   0  0  0  0  0  0  0  0  0  0  0  0
  -28.9617  -13.6289   16.0318 N   0  0  0  0  0  0  0  0  0  0  0  0
  -32.4489  -24.4790   15.6708 N   0  3  0  0  0  0  0  0  0  0  0  0
  -22.5424  -14.6994   21.0814 O   0  0  0  0  0  0  0  0  0  0  0  0
  -23.9960  -25.0053   15.3344 O   0  0  0  0  0  0  0  0  0  0  0  0
  -27.3470  -27.2571   14.4446 O   0  0  0  0  0  0  0  0  0  0  0  0
  -30.0408  -23.3613   14.7389 O   0  0  0  0  0  0  0  0  0  0  0  0
  -31.1484  -13.2511   16.6681 O   0  0  0  0  0  0  0  0  0  0  0  0
  -21.7014   -6.9801   21.6212 O   0  0  0  0  0  0  0  0  0  0  0  0
  -25.5942  -20.2117   18.8204 O   0  0  0  0  0  0  0  0  0  1  0  0
  -16.7489   -6.5630   19.2331 F   0  0  0  0  0  0  0  0  0  0  0  0
  -29.1784  -15.7373   17.8631 F   0  0  0  0  0  0  0  0  0  0  0  0
  -21.1576   -4.9464   19.8292 F   0  0  0  0  0  0  0  0  0  0  0  0
  1  2  1  0  0  0  0
  1  5  2  0  0  0  0
  2  6  2  0  0  0  0
  3 10  2  0  0  0  0
  3 18  1  0  0  0  0
  4 11  1  0  0  0  0
  4 18  2  0  0  0  0
  5 20  1  0  0  0  0
  6 22  1  0  0  0  0
  7 12  2  0  0  0  0
  7 21  1  0  0  0  0
  8  9  2  0  0  0  0
  8 24  1  0  0  0  0
  9 25  1  0  0  0  0
 10 26  1  0  0  0  0
 11 26  2  0  0  0  0
 12 27  1  0  0  0  0
 13 14  2  0  0  0  0
 13 28  1  0  0  0  0
 14 29  1  0  0  0  0
 15 23  1  0  0  0  0
 15 27  2  0  0  0  0
 16 24  2  0  0  0  0
 16 30  1  0  0  0  0
 17 29  2  0  0  0  0
 17 31  1  0  0  0  0
 18 32  1  0  0  0  0
 19 32  1  0  0  0  0
 19 33  2  0  0  0  0
 19 34  1  0  0  0  0
 20 22  2  0  0  0  0
 20 39  1  0  0  0  0
 21 23  2  0  0  0  0
 21 40  1  0  0  0  0
 22 51  1  0  0  0  0
 23 41  1  0  0  0  0
 24 67  1  0  0  0  0
 25 30  2  0  0  0  0
 25 74  1  0  0  0  0
 26 81  1  0  0  0  0
 27 82  1  0  0  0  0
 28 31  2  0  0  0  0
 28 81  1  0  0  0  0
 29 83  1  0  0  0  0
 30 84  1  0  0  0  0
 31 85  1  0  0  0  0
 32 65  2  0  0  0  0
 33 66  1  0  0  0  0
 33 70  1  0  0  0  0
 34 71  1  0  0  0  0
 34 76  2  0  0  0  0
 35 52  1  0  0  0  0
 35 72  1  0  0  0  0
 35 77  2  0  0  0  0
 36 62  1  0  0  0  0
 36 68  1  0  0  0  0
 36 78  2  0  0  0  0
 37 63  1  0  0  0  0
 37 73  1  0  0  0  0
 37 79  2  0  0  0  0
 38 69  1  0  0  0  0
 38 74  1  0  0  0  0
 38 80  2  0  0  0  0
 39 42  1  0  0  0  0
 40 52  1  0  0  0  0
 41 68  1  0  0  0  0
 42 45  1  0  0  0  0
 43 46  1  0  0  0  0
 43 49  1  0  0  0  0
 44 47  1  0  0  0  0
 44 48  1  0  0  0  0
 45 51  1  0  0  0  0
 46 53  1  0  0  0  0
 47 54  1  0  0  0  0
 48 67  1  0  0  0  0
 49 69  1  0  0  0  0
 50 53  1  0  0  0  0
 50 69  1  0  0  0  0
 51 72  1  0  0  0  0
 52 68  1  0  0  0  0
 53 66  1  0  0  0  0
 54 61  1  0  0  0  0
 54 67  1  0  0  0  0
 55 63  1  0  0  0  0
 56 64  1  0  0  0  0
 57 64  1  0  0  0  0
 58 64  1  0  0  0  0
 59 74  1  0  0  0  0
 60 75  1  0  0  0  0
 61 82  1  0  0  0  0
 62 64  1  0  0  0  0
 62 73  1  0  0  0  0
 63 75  1  0  0  0  0
 65 66  1  0  0  0  0
M  CHG  1  75   1
M  ISO  4  38 100  61 101  74 100  82 101
M  END
> <Batch ID>
0018

> <Smiles>
CNC(C)C(=O)NC(C(=O)N1Cc2cc([101O:1][101CH2:1]C3CCCN3c3ccc([100N:0](C)[100C:0](=O)N4CCCC(n5nc(-c6ccc(Oc7ccc(F)cc7F)cc6)c(C(N)=O)c5N)C4)c(F)c3)ccc2CC1C(=O)NC1CCCc2ccccc21)C(C)(C)C

> <Shape>
0.129

> <Color>
0.181

> <Negative vol penalty>
0.000

$$$$

  -OEChem-04042321033D

 84 92  0     1  0  0  0  0  0999 V2000
  -19.2909  -26.5827   26.1658 C   0  0  0  0  0  0  0  0  0  0  0  0
  -20.5195  -26.1472   25.6794 C   0  0  0  0  0  0  0  0  0  0  0  0
  -23.6177   -9.8090   19.9133 C   0  0  0  0  0  0  0  0  0  0  0  0
  -23.7157  -10.1270   22.3062 C   0  0  0  0  0  0  0  0  0  0  0  0
  -18.4563  -27.3537   25.3577 C   0  0  0  0  0  0  0  0  0  0  0  0
  -20.9135  -26.4815   24.3843 C   0  0  0  0  0  0  0  0  0  0  0  0
  -26.6060  -27.6580   22.4564 C   0  0  0  0  0  0  0  0  0  0  0  0
  -27.8713  -19.6570   21.2379 C   0  0  0  0  0  0  0  0  0  0  0  0
  -28.0980  -20.8536   20.5579 C   0  0  0  0  0  0  0  0  0  0  0  0
  -23.0001   -8.5728   20.1028 C   0  0  0  0  0  0  0  0  0  0  0  0
  -23.0980   -8.8908   22.4958 C   0  0  0  0  0  0  0  0  0  0  0  0
  -27.5561  -26.8739   21.8034 C   0  0  0  0  0  0  0  0  0  0  0  0
  -23.9845   -5.6286   22.4415 C   0  0  0  0  0  0  0  0  0  0  0  0
  -24.5163   -4.7806   23.4129 C   0  0  0  0  0  0  0  0  0  0  0  0
  -26.8454  -27.7864   19.6865 C   0  0  0  0  0  0  0  0  0  0  0  0
  -29.6778  -19.7335   19.1134 C   0  0  0  0  0  0  0  0  0  0  0  0
  -22.4074   -4.8080   24.5914 C   0  0  0  0  0  0  0  0  0  0  0  0
  -23.9755  -10.5861   21.0150 C   0  0  0  0  0  0  0  0  0  0  0  0
  -23.9859  -13.1149   20.6794 C   0  0  0  0  0  0  0  0  0  0  0  0
  -18.8445  -27.7057   24.0554 C   0  0  0  0  0  0  0  0  0  0  0  0
  -25.7598  -28.5055   21.7271 C   0  0  0  0  0  0  0  0  0  0  0  0
  -20.0827  -27.2568   23.5576 C   0  0  0  0  0  0  0  0  0  0  0  0
  -25.8872  -28.5822   20.3328 C   0  0  0  0  0  0  0  0  0  0  0  0
  -28.5479  -18.4986   20.8557 C   0  0  0  0  0  0  0  0  0  0  0  0
  -29.4511  -18.5369   19.7934 C   0  0  0  0  0  0  0  0  0  0  0  0
  -29.0012  -20.8918   19.4957 C   0  0  0  0  0  0  0  0  0  0  0  0
  -22.7402   -8.1137   21.3940 C   0  0  0  0  0  0  0  0  0  0  0  0
  -27.6739  -26.9359   20.4180 C   0  0  0  0  0  0  0  0  0  0  0  0
  -22.6641   -6.0663   22.5450 C   0  0  0  0  0  0  0  0  0  0  0  0
  -23.7278   -4.3703   24.4879 C   0  0  0  0  0  0  0  0  0  0  0  0
  -21.8756   -5.6560   23.6199 C   0  0  0  0  0  0  0  0  0  0  0  0
  -24.6141  -11.8630   20.8199 C   0  0  0  0  0  0  0  0  0  0  0  0
  -25.0216  -14.0028   20.5199 C   0  0  0  0  0  0  0  0  0  0  0  0
  -22.5909  -13.4458   20.6922 C   0  0  0  0  0  0  0  0  0  0  0  0
  -22.6173  -28.7051   21.2925 C   0  0  0  0  0  0  0  0  0  0  0  0
  -23.4025  -31.4205   19.7011 C   0  0  0  0  0  0  0  0  0  0  0  0
  -25.7603  -33.1950   17.9868 C   0  0  0  0  0  0  0  0  0  0  0  0
  -30.0936  -15.6802   22.4638 C   0  0  0  0  0  0  0  0  0  0  0  0
  -17.8879  -28.5010   23.2027 C   0  0  0  0  0  0  0  0  0  0  0  0
  -24.7582  -29.3649   22.4488 C   0  0  0  0  0  0  0  0  0  0  0  0
  -25.0164  -29.4911   19.5057 C   0  0  0  0  0  0  0  0  0  0  0  0
  -18.5431  -29.1268   21.9741 C   0  0  0  0  0  0  0  0  0  0  0  0
  -29.9425  -13.2338   19.6900 C   0  0  0  0  0  0  0  0  0  0  0  0
  -19.4203  -28.1048   21.2581 C   0  0  0  0  0  0  0  0  0  0  0  0
  -28.5078  -12.7164   19.7799 C   0  0  0  0  0  0  0  0  0  0  0  0
  -30.4658  -13.6936   21.0474 C   0  0  0  0  0  0  0  0  0  0  0  0
  -28.1644  -14.1835   21.8074 C   0  0  0  0  0  0  0  0  0  0  0  0
  -20.5562  -27.6196   22.1669 C   0  0  1  0  0  0  0  0  0  0  0  0
  -23.6010  -29.8090   21.5594 C   0  0  1  0  0  0  0  0  0  0  0  0
  -27.5908  -13.7556   20.4481 C   0  0  2  0  0  0  0  0  0  0  0  0
  -30.1881  -17.3097   19.3673 C   0  0  0  0  0  0  0  0  0  0  0  0
  -26.0960  -35.3667   16.7751 C   0  0  0  0  0  0  0  0  0  0  0  0
  -21.8216  -30.3373   17.3268 C   0  0  0  0  0  0  0  0  0  0  0  0
  -22.9589  -32.0374   15.8831 C   0  0  0  0  0  0  0  0  0  0  0  0
  -21.5013  -32.7782   17.7671 C   0  0  0  0  0  0  0  0  0  0  0  0
  -29.9067  -17.9926   23.2990 C   0  0  0  0  0  0  0  0  0  0  0  0
  -27.9007  -34.0370   19.8493 C   0  0  0  0  0  0  0  0  0  0  0  0
  -28.2895  -17.2297   21.5995 C   0  0  0  0  0  0  0  0  0  0  0  0
  -28.9884  -24.4248   18.1784 C   0  0  0  0  0  0  0  0  0  0  0  0
  -28.5701  -23.3245   19.1461 C   0  0  0  0  0  0  0  0  0  0  0  0
  -28.2905  -25.7524   18.4494 C   0  0  0  0  0  0  0  0  0  1  0  0
  -23.7585  -31.7580   18.2734 C   0  0  1  0  0  0  0  0  0  0  0  0
  -26.2177  -34.6377   18.1042 C   0  0  2  0  0  0  0  0  0  0  0  0
  -22.5253  -31.7090   17.3277 C   0  0  0  0  0  0  0  0  0  0  0  0
  -25.9457  -11.9440   20.7550 N   0  0  0  0  0  0  0  0  0  0  0  0
  -26.1627  -13.2576   20.5721 N   0  0  0  0  0  0  0  0  0  0  0  0
  -24.0481  -30.3068   20.2569 N   0  0  0  0  0  0  0  0  0  0  0  0
  -29.5539  -14.6476   21.6793 N   0  0  0  0  0  0  0  0  0  0  0  0
  -25.0584  -15.3404   20.3414 N   0  0  0  0  0  0  0  0  0  0  0  0
  -21.6606  -12.4121   20.8669 N   0  0  0  0  0  0  0  0  0  0  0  0
  -29.2255  -22.0810   18.8197 N   0  0  0  0  0  0  0  0  0  0  0  0
  -21.6091  -28.6104   22.2327 N   0  0  0  0  0  0  0  0  0  0  0  0
  -24.4286  -33.0532   18.3150 N   0  0  0  0  0  0  0  0  0  0  0  0
  -29.3815  -16.8884   22.5086 N   0  0  0  0  0  0  0  0  0  0  0  0
  -27.6406  -34.6959   18.5435 N   0  3  0  0  0  0  0  0  0  0  0  0
  -22.1807  -14.6210   20.5363 O   0  0  0  0  0  0  0  0  0  0  0  0
  -22.7614  -27.9929   20.3057 O   0  0  0  0  0  0  0  0  0  0  0  0
  -22.5873  -32.1235   20.3034 O   0  0  0  0  0  0  0  0  0  0  0  0
  -26.5084  -32.2855   17.6354 O   0  0  0  0  0  0  0  0  0  0  0  0
  -31.1565  -15.5339   23.0809 O   0  0  0  0  0  0  0  0  0  0  0  0
  -22.1374   -6.9076   21.5794 O   0  0  0  0  0  0  0  0  0  0  0  0
  -28.5999  -26.1711   19.7780 O   0  0  0  0  0  0  0  0  0  1  0  0
  -24.2381   -3.5547   25.4198 F   0  0  0  0  0  0  0  0  0  0  0  0
  -20.6061   -6.0723   23.7241 F   0  0  0  0  0  0  0  0  0  0  0  0
  1  2  1  0  0  0  0
  1  5  2  0  0  0  0
  2  6  2  0  0  0  0
  3 10  2  0  0  0  0
  3 18  1  0  0  0  0
  4 11  1  0  0  0  0
  4 18  2  0  0  0  0
  5 20  1  0  0  0  0
  6 22  1  0  0  0  0
  7 12  2  0  0  0  0
  7 21  1  0  0  0  0
  8  9  2  0  0  0  0
  8 24  1  0  0  0  0
  9 26  1  0  0  0  0
 10 27  1  0  0  0  0
 11 27  2  0  0  0  0
 12 28  1  0  0  0  0
 13 14  2  0  0  0  0
 13 29  1  0  0  0  0
 14 30  1  0  0  0  0
 15 23  1  0  0  0  0
 15 28  2  0  0  0  0
 16 25  1  0  0  0  0
 16 26  2  0  0  0  0
 17 30  2  0  0  0  0
 17 31  1  0  0  0  0
 18 32  1  0  0  0  0
 19 32  1  0  0  0  0
 19 33  2  0  0  0  0
 19 34  1  0  0  0  0
 20 22  2  0  0  0  0
 20 39  1  0  0  0  0
 21 23  2  0  0  0  0
 21 40  1  0  0  0  0
 22 48  1  0  0  0  0
 23 41  1  0  0  0  0
 24 25  2  0  0  0  0
 24 58  1  0  0  0  0
 25 51  1  0  0  0  0
 26 71  1  0  0  0  0
 27 81  1  0  0  0  0
 28 82  1  0  0  0  0
 29 31  2  0  0  0  0
 29 81  1  0  0  0  0
 30 83  1  0  0  0  0
 31 84  1  0  0  0  0
 32 65  2  0  0  0  0
 33 66  1  0  0  0  0
 33 69  1  0  0  0  0
 34 70  1  0  0  0  0
 34 76  2  0  0  0  0
 35 49  1  0  0  0  0
 35 72  1  0  0  0  0
 35 77  2  0  0  0  0
 36 62  1  0  0  0  0
 36 67  1  0  0  0  0
 36 78  2  0  0  0  0
 37 63  1  0  0  0  0
 37 73  1  0  0  0  0
 37 79  2  0  0  0  0
 38 68  1  0  0  0  0
 38 74  1  0  0  0  0
 38 80  2  0  0  0  0
 39 42  1  0  0  0  0
 40 49  1  0  0  0  0
 41 67  1  0  0  0  0
 42 44  1  0  0  0  0
 43 45  1  0  0  0  0
 43 46  1  0  0  0  0
 44 48  1  0  0  0  0
 45 50  1  0  0  0  0
 46 68  1  0  0  0  0
 47 50  1  0  0  0  0
 47 68  1  0  0  0  0
 48 72  1  0  0  0  0
 49 67  1  0  0  0  0
 50 66  1  0  0  0  0
 52 63  1  0  0  0  0
 53 64  1  0  0  0  0
 54 64  1  0  0  0  0
 55 64  1  0  0  0  0
 56 74  1  0  0  0  0
 57 75  1  0  0  0  0
 58 74  1  0  0  0  0
 59 60  1  0  0  0  0
 59 61  1  0  0  0  0
 60 71  1  0  0  0  0
 61 82  1  0  0  0  0
 62 64  1  0  0  0  0
 62 73  1  0  0  0  0
 63 75  1  0  0  0  0
 65 66  1  0  0  0  0
M  CHG  1  75   1
M  ISO  4  38 100  61 101  74 100  82 101
M  END
> <Batch ID>
0018

> <Smiles>
CNC(C)C(=O)NC(C(=O)N1Cc2cc([101O:1][101CH2:1]CCNc3ccc(C[100N:0](C)[100C:0](=O)N4CCCC(n5nc(-c6ccc(Oc7ccc(F)cc7F)cc6)c(C(N)=O)c5N)C4)c(C)c3)ccc2CC1C(=O)NC1CCCc2ccccc21)C(C)(C)C

> <Shape>
0.329

> <Color>
0.212

> <Negative vol penalty>
0.000

$$$$

  -OEChem-04042321033D

 84 92  0     1  0  0  0  0  0999 V2000
  -20.3028  -24.4767   24.1571 C   0  0  0  0  0  0  0  0  0  0  0  0
  -21.3804  -24.6027   23.2863 C   0  0  0  0  0  0  0  0  0  0  0  0
  -22.2940  -14.4820   21.9807 C   0  0  0  0  0  0  0  0  0  0  0  0
  -22.5672  -16.6957   21.0523 C   0  0  0  0  0  0  0  0  0  0  0  0
  -19.3082  -25.4536   24.1795 C   0  0  0  0  0  0  0  0  0  0  0  0
  -21.4635  -25.7052   22.4366 C   0  0  0  0  0  0  0  0  0  0  0  0
  -26.1058  -27.7254   22.3236 C   0  0  0  0  0  0  0  0  0  0  0  0
  -32.3793  -19.8333   19.8983 C   0  0  0  0  0  0  0  0  0  0  0  0
  -31.7819  -18.5729   19.8951 C   0  0  0  0  0  0  0  0  0  0  0  0
  -21.3244  -14.9692   22.8570 C   0  0  0  0  0  0  0  0  0  0  0  0
  -21.5976  -17.1829   21.9287 C   0  0  0  0  0  0  0  0  0  0  0  0
  -27.0669  -27.0699   21.5553 C   0  0  0  0  0  0  0  0  0  0  0  0
  -21.4063  -18.0828   25.1820 C   0  0  0  0  0  0  0  0  0  0  0  0
  -21.6753  -19.2798   25.8457 C   0  0  0  0  0  0  0  0  0  0  0  0
  -26.7299  -28.6686   19.7806 C   0  0  0  0  0  0  0  0  0  0  0  0
  -30.4547  -20.7486   18.7603 C   0  0  0  0  0  0  0  0  0  0  0  0
  -19.7235  -20.2803   24.8325 C   0  0  0  0  0  0  0  0  0  0  0  0
  -22.9155  -15.3453   21.0783 C   0  0  0  0  0  0  0  0  0  0  0  0
  -23.7126  -14.3259   18.8799 C   0  0  0  0  0  0  0  0  0  0  0  0
  -19.3841  -26.5734   23.3364 C   0  0  0  0  0  0  0  0  0  0  0  0
  -25.4405  -28.8529   21.8210 C   0  0  0  0  0  0  0  0  0  0  0  0
  -20.4683  -26.6972   22.4467 C   0  0  0  0  0  0  0  0  0  0  0  0
  -25.7626  -29.3382   20.5455 C   0  0  0  0  0  0  0  0  0  0  0  0
  -31.7157  -20.9212   19.3310 C   0  0  0  0  0  0  0  0  0  0  0  0
  -30.5209  -18.4003   19.3244 C   0  0  0  0  0  0  0  0  0  0  0  0
  -20.9761  -16.3196   22.8310 C   0  0  0  0  0  0  0  0  0  0  0  0
  -27.3770  -27.5398   20.2825 C   0  0  0  0  0  0  0  0  0  0  0  0
  -20.2959  -17.9846   24.3435 C   0  0  0  0  0  0  0  0  0  0  0  0
  -20.8339  -20.3785   25.6710 C   0  0  0  0  0  0  0  0  0  0  0  0
  -29.8572  -19.4881   18.7569 C   0  0  0  0  0  0  0  0  0  0  0  0
  -19.4545  -19.0833   24.1687 C   0  0  0  0  0  0  0  0  0  0  0  0
  -23.9176  -14.8427   20.1732 C   0  0  0  0  0  0  0  0  0  0  0  0
  -24.9697  -13.9879   18.4419 C   0  0  0  0  0  0  0  0  0  0  0  0
  -22.4946  -14.1657   18.1405 C   0  0  0  0  0  0  0  0  0  0  0  0
  -22.4143  -29.5592   21.1525 C   0  0  0  0  0  0  0  0  0  0  0  0
  -23.6332  -32.5148   20.6035 C   0  0  0  0  0  0  0  0  0  0  0  0
  -26.3425  -34.4278   19.7993 C   0  0  0  0  0  0  0  0  0  0  0  0
  -30.4418  -15.9364   19.8435 C   0  0  0  0  0  0  0  0  0  0  0  0
  -18.2607  -27.5794   23.3628 C   0  0  0  0  0  0  0  0  0  0  0  0
  -24.4254  -29.5646   22.6728 C   0  0  0  0  0  0  0  0  0  0  0  0
  -25.0916  -30.5566   19.9678 C   0  0  0  0  0  0  0  0  0  0  0  0
  -18.6153  -28.9061   22.6962 C   0  0  0  0  0  0  0  0  0  0  0  0
  -29.2513  -12.5884   20.0678 C   0  0  0  0  0  0  0  0  0  0  0  0
  -19.2934  -28.6634   21.3515 C   0  0  0  0  0  0  0  0  0  0  0  0
  -27.7300  -12.7390   19.9964 C   0  0  0  0  0  0  0  0  0  0  0  0
  -29.8982  -13.7303   20.8497 C   0  0  0  0  0  0  0  0  0  0  0  0
  -28.0156  -15.2289   20.3215 C   0  0  0  0  0  0  0  0  0  0  0  0
  -20.6065  -27.8912   21.5272 C   0  0  1  0  0  0  0  0  0  0  0  0
  -23.4414  -30.3986   21.8584 C   0  0  1  0  0  0  0  0  0  0  0  0
  -27.3253  -14.1367   19.4883 C   0  0  2  0  0  0  0  0  0  0  0  0
  -27.0205  -36.8086   19.3875 C   0  0  0  0  0  0  0  0  0  0  0  0
  -22.3052  -32.4156   17.8582 C   0  0  0  0  0  0  0  0  0  0  0  0
  -23.7667  -34.3246   17.1595 C   0  0  0  0  0  0  0  0  0  0  0  0
  -22.1333  -34.6230   19.0211 C   0  0  0  0  0  0  0  0  0  0  0  0
  -33.6392  -22.3690   19.9344 C   0  0  0  0  0  0  0  0  0  0  0  0
  -28.2721  -34.3881   22.0429 C   0  0  0  0  0  0  0  0  0  0  0  0
  -30.6534  -23.9449   19.7116 C   0  0  0  0  0  0  0  0  0  0  0  0
  -29.9713  -25.1884   19.1396 C   0  0  0  0  0  0  0  0  0  0  0  0
  -31.6632  -23.3323   18.7445 C   0  0  0  0  0  0  0  0  0  0  0  0
  -28.9408  -25.7565   20.1073 C   0  0  0  0  0  0  0  0  0  1  0  0
  -24.2072  -33.2285   19.4035 C   0  0  1  0  0  0  0  0  0  0  0  0
  -26.8987  -35.6973   20.4185 C   0  0  2  0  0  0  0  0  0  0  0  0
  -23.1145  -33.6238   18.3704 C   0  0  0  0  0  0  0  0  0  0  0  0
  -25.2038  -14.8356   20.5334 N   0  0  0  0  0  0  0  0  0  0  0  0
  -25.8183  -14.3100   19.4599 N   0  0  0  0  0  0  0  0  0  0  0  0
  -24.1016  -31.2140   20.8369 N   0  0  0  0  0  0  0  0  0  0  0  0
  -29.4724  -15.0232   20.3095 N   0  0  0  0  0  0  0  0  0  0  0  0
  -25.4210  -13.4496   17.2891 N   0  0  0  0  0  0  0  0  0  0  0  0
  -21.2920  -14.5645   18.7396 N   0  0  0  0  0  0  0  0  0  0  0  0
  -29.9169  -17.1185   19.3223 N   0  0  0  0  0  0  0  0  0  0  0  0
  -21.6529  -28.7738   21.9968 N   0  0  0  0  0  0  0  0  0  0  0  0
  -24.9713  -34.3561   19.9261 N   0  0  0  0  0  0  0  0  0  0  0  0
  -32.3160  -22.1882   19.3349 N   0  0  3  0  0  0  0  0  0  0  0  0
  -28.2483  -35.4431   20.9972 N   0  3  0  0  0  0  0  0  0  0  0  0
  -22.4716  -13.6679   16.9893 O   0  0  0  0  0  0  0  0  0  0  0  0
  -22.3186  -29.6208   19.9324 O   0  0  0  0  0  0  0  0  0  0  0  0
  -22.8052  -33.0928   21.3119 O   0  0  0  0  0  0  0  0  0  0  0  0
  -27.0528  -33.5860   19.2540 O   0  0  0  0  0  0  0  0  0  0  0  0
  -31.6474  -15.6767   19.8775 O   0  0  0  0  0  0  0  0  0  0  0  0
  -20.0298  -16.7953   23.6859 O   0  0  0  0  0  0  0  0  0  0  0  0
  -28.3143  -26.9014   19.5302 O   0  0  0  0  0  0  0  0  0  1  0  0
  -21.0915  -21.5274   26.3096 F   0  0  0  0  0  0  0  0  0  0  0  0
  -28.6451  -19.3335   18.2053 F   0  0  0  0  0  0  0  0  0  0  0  0
  -18.3856  -18.9945   23.3654 F   0  0  0  0  0  0  0  0  0  0  0  0
  1  2  1  0  0  0  0
  1  5  2  0  0  0  0
  2  6  2  0  0  0  0
  3 10  2  0  0  0  0
  3 18  1  0  0  0  0
  4 11  1  0  0  0  0
  4 18  2  0  0  0  0
  5 20  1  0  0  0  0
  6 22  1  0  0  0  0
  7 12  2  0  0  0  0
  7 21  1  0  0  0  0
  8  9  2  0  0  0  0
  8 24  1  0  0  0  0
  9 25  1  0  0  0  0
 10 26  1  0  0  0  0
 11 26  2  0  0  0  0
 12 27  1  0  0  0  0
 13 14  2  0  0  0  0
 13 28  1  0  0  0  0
 14 29  1  0  0  0  0
 15 23  1  0  0  0  0
 15 27  2  0  0  0  0
 16 24  2  0  0  0  0
 16 30  1  0  0  0  0
 17 29  2  0  0  0  0
 17 31  1  0  0  0  0
 18 32  1  0  0  0  0
 19 32  1  0  0  0  0
 19 33  2  0  0  0  0
 19 34  1  0  0  0  0
 20 22  2  0  0  0  0
 20 39  1  0  0  0  0
 21 23  2  0  0  0  0
 21 40  1  0  0  0  0
 22 48  1  0  0  0  0
 23 41  1  0  0  0  0
 24 73  1  0  0  0  0
 25 30  2  0  0  0  0
 25 70  1  0  0  0  0
 26 80  1  0  0  0  0
 27 81  1  0  0  0  0
 28 31  2  0  0  0  0
 28 80  1  0  0  0  0
 29 82  1  0  0  0  0
 30 83  1  0  0  0  0
 31 84  1  0  0  0  0
 32 64  2  0  0  0  0
 33 65  1  0  0  0  0
 33 68  1  0  0  0  0
 34 69  1  0  0  0  0
 34 75  2  0  0  0  0
 35 49  1  0  0  0  0
 35 71  1  0  0  0  0
 35 76  2  0  0  0  0
 36 61  1  0  0  0  0
 36 66  1  0  0  0  0
 36 77  2  0  0  0  0
 37 62  1  0  0  0  0
 37 72  1  0  0  0  0
 37 78  2  0  0  0  0
 38 67  1  0  0  0  0
 38 70  1  0  0  0  0
 38 79  2  0  0  0  0
 39 42  1  0  0  0  0
 40 49  1  0  0  0  0
 41 66  1  0  0  0  0
 42 44  1  0  0  0  0
 43 45  1  0  0  0  0
 43 46  1  0  0  0  0
 44 48  1  0  0  0  0
 45 50  1  0  0  0  0
 46 67  1  0  0  0  0
 47 50  1  0  0  0  0
 47 67  1  0  0  0  0
 48 71  1  0  0  0  0
 49 66  1  0  0  0  0
 50 65  1  0  0  0  0
 51 62  1  0  0  0  0
 52 63  1  0  0  0  0
 53 63  1  0  0  0  0
 54 63  1  0  0  0  0
 55 73  1  0  0  0  0
 56 74  1  0  0  0  0
 57 58  1  0  0  0  0
 57 59  1  0  0  0  0
 58 60  1  0  0  0  0
 59 73  1  0  0  0  0
 60 81  1  0  0  0  0
 61 63  1  0  0  0  0
 61 72  1  0  0  0  0
 62 74  1  0  0  0  0
 64 65  1  0  0  0  0
M  CHG  1  74   1
M  ISO  4  38 100  60 101  70 100  81 101
M  END
> <Batch ID>
0018

> <Smiles>
CNC(C)C(=O)NC(C(=O)N1Cc2cc([101O:1][101CH2:1]CCCN(C)c3ccc([100NH:0][100C:0](=O)N4CCCC(n5nc(-c6ccc(Oc7ccc(F)cc7F)cc6)c(C(N)=O)c5N)C4)c(F)c3)ccc2CC1C(=O)NC1CCCc2ccccc21)C(C)(C)C

> <Shape>
0.204

> <Color>
0.101

> <Negative vol penalty>
0.000

$$$$

  -OEChem-04042321033D

 82 90  0     1  0  0  0  0  0999 V2000
  -24.5775  -25.9682   36.9384 C   0  0  0  0  0  0  0  0  0  0  0  0
  -25.5147  -25.5869   35.9837 C   0  0  0  0  0  0  0  0  0  0  0  0
  -23.0742   -9.8686   19.9404 C   0  0  0  0  0  0  0  0  0  0  0  0
  -23.8338   -9.8748   22.2338 C   0  0  0  0  0  0  0  0  0  0  0  0
  -23.8030  -25.0014   37.5783 C   0  0  0  0  0  0  0  0  0  0  0  0
  -25.6788  -24.2384   35.6690 C   0  0  0  0  0  0  0  0  0  0  0  0
  -27.0489  -21.8777   30.1866 C   0  0  0  0  0  0  0  0  0  0  0  0
  -29.8813  -17.4535   23.1395 C   0  0  0  0  0  0  0  0  0  0  0  0
  -32.0652  -16.6033   22.5523 C   0  0  0  0  0  0  0  0  0  0  0  0
  -30.4686  -18.3363   24.0458 C   0  0  0  0  0  0  0  0  0  0  0  0
  -32.6526  -17.4861   23.4585 C   0  0  0  0  0  0  0  0  0  0  0  0
  -22.3295   -8.7159   20.1901 C   0  0  0  0  0  0  0  0  0  0  0  0
  -23.0891   -8.7221   22.4836 C   0  0  0  0  0  0  0  0  0  0  0  0
  -28.2493  -21.4443   29.6254 C   0  0  0  0  0  0  0  0  0  0  0  0
  -19.8603   -7.9263   23.0857 C   0  0  0  0  0  0  0  0  0  0  0  0
  -19.1032   -7.8867   24.2564 C   0  0  0  0  0  0  0  0  0  0  0  0
  -27.7247  -19.1790   30.2674 C   0  0  0  0  0  0  0  0  0  0  0  0
  -20.3433   -5.9484   24.9928 C   0  0  0  0  0  0  0  0  0  0  0  0
  -23.8264  -10.4480   20.9622 C   0  0  0  0  0  0  0  0  0  0  0  0
  -24.1698  -12.9730   20.8425 C   0  0  0  0  0  0  0  0  0  0  0  0
  -23.9509  -23.6411   37.2643 C   0  0  0  0  0  0  0  0  0  0  0  0
  -26.1810  -20.9650   30.8032 C   0  0  0  0  0  0  0  0  0  0  0  0
  -24.9066  -23.2524   36.3062 C   0  0  0  0  0  0  0  0  0  0  0  0
  -26.5127  -19.6029   30.8335 C   0  0  0  0  0  0  0  0  0  0  0  0
  -30.6796  -16.5869   22.3928 C   0  0  0  0  0  0  0  0  0  0  0  0
  -31.8542  -18.3526   24.2053 C   0  0  0  0  0  0  0  0  0  0  0  0
  -22.3369   -8.1426   21.4617 C   0  0  0  0  0  0  0  0  0  0  0  0
  -28.5887  -20.0952   29.6683 C   0  0  0  0  0  0  0  0  0  0  0  0
  -20.8589   -6.9769   22.8684 C   0  0  0  0  0  0  0  0  0  0  0  0
  -19.3447   -6.8978   25.2101 C   0  0  0  0  0  0  0  0  0  0  0  0
  -21.1004   -5.9880   23.8220 C   0  0  0  0  0  0  0  0  0  0  0  0
  -24.5962  -11.6384   20.7047 C   0  0  0  0  0  0  0  0  0  0  0  0
  -25.2625  -13.7218   20.4795 C   0  0  0  0  0  0  0  0  0  0  0  0
  -22.8997  -13.4896   21.2614 C   0  0  0  0  0  0  0  0  0  0  0  0
  -25.0412  -20.5908   33.7467 C   0  0  0  0  0  0  0  0  0  0  0  0
  -23.2609  -18.2707   32.3432 C   0  0  0  0  0  0  0  0  0  0  0  0
  -22.8988  -16.0502   29.7771 C   0  0  0  0  0  0  0  0  0  0  0  0
  -30.7294  -14.7638   20.6550 C   0  0  0  0  0  0  0  0  0  0  0  0
  -23.1244  -22.6284   38.0165 C   0  0  0  0  0  0  0  0  0  0  0  0
  -24.8774  -21.4445   31.3802 C   0  0  0  0  0  0  0  0  0  0  0  0
  -25.6060  -18.5798   31.4657 C   0  0  0  0  0  0  0  0  0  0  0  0
  -23.0967  -21.2528   37.3554 C   0  0  0  0  0  0  0  0  0  0  0  0
  -29.6137  -12.3509   18.2863 C   0  0  0  0  0  0  0  0  0  0  0  0
  -24.5037  -20.8288   36.9462 C   0  0  0  0  0  0  0  0  0  0  0  0
  -28.1738  -12.0603   18.7157 C   0  0  0  0  0  0  0  0  0  0  0  0
  -30.5288  -12.5790   19.4881 C   0  0  0  0  0  0  0  0  0  0  0  0
  -28.6222  -13.3046   20.8692 C   0  0  0  0  0  0  0  0  0  0  0  0
  -25.0964  -21.8016   35.9197 C   0  0  1  0  0  0  0  0  0  0  0  0
  -24.3094  -20.5026   32.4374 C   0  0  1  0  0  0  0  0  0  0  0  0
  -27.6494  -13.1321   19.6912 C   0  0  2  0  0  0  0  0  0  0  0  0
  -21.3598  -14.2622   28.9215 C   0  0  0  0  0  0  0  0  0  0  0  0
  -24.3109  -16.3522   34.4708 C   0  0  0  0  0  0  0  0  0  0  0  0
  -23.5309  -14.4504   33.0413 C   0  0  0  0  0  0  0  0  0  0  0  0
  -21.8810  -16.0919   33.9392 C   0  0  0  0  0  0  0  0  0  0  0  0
  -33.8988  -19.2575   25.2828 C   0  0  0  0  0  0  0  0  0  0  0  0
  -22.3889  -17.5290   27.2647 C   0  0  0  0  0  0  0  0  0  0  0  0
  -31.0777  -19.4702   27.1260 C   0  0  0  0  0  0  0  0  0  0  0  0
  -31.6493  -20.1604   25.8935 C   0  0  0  0  0  0  0  0  0  0  0  0
  -30.2643  -20.4084   28.0099 C   0  0  0  0  0  0  0  0  0  1  0  0
  -23.4431  -16.7954   32.0799 C   0  0  1  0  0  0  0  0  0  0  0  0
  -21.7197  -15.7390   28.8731 C   0  0  2  0  0  0  0  0  0  0  0  0
  -23.3097  -15.9418   33.3725 C   0  0  0  0  0  0  0  0  0  0  0  0
  -25.8611  -11.5418   20.2866 N   0  0  0  0  0  0  0  0  0  0  0  0
  -26.2389  -12.8251   20.1585 N   0  0  0  0  0  0  0  0  0  0  0  0
  -24.3456  -19.0989   32.0218 N   0  0  0  0  0  0  0  0  0  0  0  0
  -29.9704  -13.6101   20.3655 N   0  0  0  0  0  0  0  0  0  0  0  0
  -25.4738  -15.0531   20.4067 N   0  0  0  0  0  0  0  0  0  0  0  0
  -21.8871  -12.5810   21.5984 N   0  0  0  0  0  0  0  0  0  0  0  0
  -30.0825  -15.6891   21.4734 N   0  0  0  0  0  0  0  0  0  0  0  0
  -24.5421  -21.5505   34.6066 N   0  0  0  0  0  0  0  0  0  0  0  0
  -22.4892  -16.4469   31.0325 N   0  0  0  0  0  0  0  0  0  0  0  0
  -32.4443  -19.2409   25.1159 N   0  0  3  0  0  0  0  0  0  0  0  0
  -22.0393  -16.0988   27.4626 N   0  3  0  0  0  0  0  0  0  0  0  0
  -22.6642  -14.7203   21.3188 O   0  0  0  0  0  0  0  0  0  0  0  0
  -25.9876  -19.8425   33.9616 O   0  0  0  0  0  0  0  0  0  0  0  0
  -22.1927  -18.6743   32.8100 O   0  0  0  0  0  0  0  0  0  0  0  0
  -24.0666  -15.9477   29.4078 O   0  0  0  0  0  0  0  0  0  0  0  0
  -31.8586  -14.9318   20.1875 O   0  0  0  0  0  0  0  0  0  0  0  0
  -21.6102   -7.0180   21.7058 O   0  0  0  0  0  0  0  0  0  0  0  0
  -29.7601  -19.6697   29.1219 O   0  0  0  0  0  0  0  0  0  1  0  0
  -18.6186   -6.8609   26.3350 F   0  0  0  0  0  0  0  0  0  0  0  0
  -22.0591   -5.0739   23.6194 F   0  0  0  0  0  0  0  0  0  0  0  0
  1  2  1  0  0  0  0
  1  5  2  0  0  0  0
  2  6  2  0  0  0  0
  3 12  2  0  0  0  0
  3 19  1  0  0  0  0
  4 13  1  0  0  0  0
  4 19  2  0  0  0  0
  5 21  1  0  0  0  0
  6 23  1  0  0  0  0
  7 14  2  0  0  0  0
  7 22  1  0  0  0  0
  8 10  2  0  0  0  0
  8 25  1  0  0  0  0
  9 11  1  0  0  0  0
  9 25  2  0  0  0  0
 10 26  1  0  0  0  0
 11 26  2  0  0  0  0
 12 27  1  0  0  0  0
 13 27  2  0  0  0  0
 14 28  1  0  0  0  0
 15 16  2  0  0  0  0
 15 29  1  0  0  0  0
 16 30  1  0  0  0  0
 17 24  1  0  0  0  0
 17 28  2  0  0  0  0
 18 30  2  0  0  0  0
 18 31  1  0  0  0  0
 19 32  1  0  0  0  0
 20 32  1  0  0  0  0
 20 33  2  0  0  0  0
 20 34  1  0  0  0  0
 21 23  2  0  0  0  0
 21 39  1  0  0  0  0
 22 24  2  0  0  0  0
 22 40  1  0  0  0  0
 23 48  1  0  0  0  0
 24 41  1  0  0  0  0
 25 69  1  0  0  0  0
 26 72  1  0  0  0  0
 27 79  1  0  0  0  0
 28 80  1  0  0  0  0
 29 31  2  0  0  0  0
 29 79  1  0  0  0  0
 30 81  1  0  0  0  0
 31 82  1  0  0  0  0
 32 63  2  0  0  0  0
 33 64  1  0  0  0  0
 33 67  1  0  0  0  0
 34 68  1  0  0  0  0
 34 74  2  0  0  0  0
 35 49  1  0  0  0  0
 35 70  1  0  0  0  0
 35 75  2  0  0  0  0
 36 60  1  0  0  0  0
 36 65  1  0  0  0  0
 36 76  2  0  0  0  0
 37 61  1  0  0  0  0
 37 71  1  0  0  0  0
 37 77  2  0  0  0  0
 38 66  1  0  0  0  0
 38 69  1  0  0  0  0
 38 78  2  0  0  0  0
 39 42  1  0  0  0  0
 40 49  1  0  0  0  0
 41 65  1  0  0  0  0
 42 44  1  0  0  0  0
 43 45  1  0  0  0  0
 43 46  1  0  0  0  0
 44 48  1  0  0  0  0
 45 50  1  0  0  0  0
 46 66  1  0  0  0  0
 47 50  1  0  0  0  0
 47 66  1  0  0  0  0
 48 70  1  0  0  0  0
 49 65  1  0  0  0  0
 50 64  1  0  0  0  0
 51 61  1  0  0  0  0
 52 62  1  0  0  0  0
 53 62  1  0  0  0  0
 54 62  1  0  0  0  0
 55 72  1  0  0  0  0
 56 73  1  0  0  0  0
 57 58  1  0  0  0  0
 57 59  1  0  0  0  0
 58 72  1  0  0  0  0
 59 80  1  0  0  0  0
 60 62  1  0  0  0  0
 60 71  1  0  0  0  0
 61 73  1  0  0  0  0
 63 64  1  0  0  0  0
M  CHG  1  73   1
M  ISO  4  38 100  59 101  69 100  80 101
M  END
> <Batch ID>
0018

> <Smiles>
CNC(C)C(=O)NC(C(=O)N1Cc2cc([101O:1][101CH2:1]CCN(C)c3ccc([100NH:0][100C:0](=O)N4CCCC(n5nc(-c6ccc(Oc7ccc(F)cc7F)cc6)c(C(N)=O)c5N)C4)cc3)ccc2CC1C(=O)NC1CCCc2ccccc21)C(C)(C)C

> <Shape>
0.167

> <Color>
0.200

> <Negative vol penalty>
0.000

$$$$

  -OEChem-04042321033D

 81 89  0     1  0  0  0  0  0999 V2000
  -19.1917  -30.2117   18.1528 C   0  0  0  0  0  0  0  0  0  0  0  0
  -20.5773  -30.1230   18.2401 C   0  0  0  0  0  0  0  0  0  0  0  0
  -25.9946  -14.1320   21.6324 C   0  0  0  0  0  0  0  0  0  0  0  0
  -25.8606  -15.5778   19.7014 C   0  0  0  0  0  0  0  0  0  0  0  0
  -18.4249  -30.2919   19.3145 C   0  0  0  0  0  0  0  0  0  0  0  0
  -21.1971  -30.1157   19.4892 C   0  0  0  0  0  0  0  0  0  0  0  0
  -24.8143  -26.5892   19.8424 C   0  0  0  0  0  0  0  0  0  0  0  0
  -30.5195  -22.2091   19.0092 C   0  0  0  0  0  0  0  0  0  0  0  0
  -31.2376  -23.2594   21.0630 C   0  0  0  0  0  0  0  0  0  0  0  0
  -30.3289  -23.4651   18.4334 C   0  0  0  0  0  0  0  0  0  0  0  0
  -31.0471  -24.5155   20.4872 C   0  0  0  0  0  0  0  0  0  0  0  0
  -24.6154  -13.9314   21.5779 C   0  0  0  0  0  0  0  0  0  0  0  0
  -24.4813  -15.3771   19.6468 C   0  0  0  0  0  0  0  0  0  0  0  0
  -26.0409  -26.8731   19.2435 C   0  0  0  0  0  0  0  0  0  0  0  0
  -22.4375  -12.0740   19.7779 C   0  0  0  0  0  0  0  0  0  0  0  0
  -21.9659  -10.7696   19.9247 C   0  0  0  0  0  0  0  0  0  0  0  0
  -26.9432  -27.4850   21.3954 C   0  0  0  0  0  0  0  0  0  0  0  0
  -20.7078  -11.4439   21.8740 C   0  0  0  0  0  0  0  0  0  0  0  0
  -26.6173  -14.9553   20.6941 C   0  0  0  0  0  0  0  0  0  0  0  0
  -29.0381  -14.4017   20.1106 C   0  0  0  0  0  0  0  0  0  0  0  0
  -19.0350  -30.2758   20.5787 C   0  0  0  0  0  0  0  0  0  0  0  0
  -24.6394  -26.7618   21.2230 C   0  0  0  0  0  0  0  0  0  0  0  0
  -20.4378  -30.1971   20.6689 C   0  0  0  0  0  0  0  0  0  0  0  0
  -25.7141  -27.2002   22.0098 C   0  0  0  0  0  0  0  0  0  0  0  0
  -30.9738  -22.1061   20.3240 C   0  0  0  0  0  0  0  0  0  0  0  0
  -30.5927  -24.6184   19.1724 C   0  0  0  0  0  0  0  0  0  0  0  0
  -23.8587  -14.5539   20.5852 C   0  0  0  0  0  0  0  0  0  0  0  0
  -27.1047  -27.3238   20.0196 C   0  0  0  0  0  0  0  0  0  0  0  0
  -22.0444  -13.0634   20.6791 C   0  0  0  0  0  0  0  0  0  0  0  0
  -21.1010  -10.4545   20.9728 C   0  0  0  0  0  0  0  0  0  0  0  0
  -21.1795  -12.7484   21.7272 C   0  0  0  0  0  0  0  0  0  0  0  0
  -28.0419  -15.1634   20.7502 C   0  0  0  0  0  0  0  0  0  0  0  0
  -30.2178  -15.0021   20.4772 C   0  0  0  0  0  0  0  0  0  0  0  0
  -28.9087  -13.2540   19.2609 C   0  0  0  0  0  0  0  0  0  0  0  0
  -22.7727  -28.5864   23.0368 C   0  0  0  0  0  0  0  0  0  0  0  0
  -24.0713  -26.8443   25.4453 C   0  0  0  0  0  0  0  0  0  0  0  0
  -26.6648  -24.9282   26.5631 C   0  0  0  0  0  0  0  0  0  0  0  0
  -31.6107  -20.5512   22.2010 C   0  0  0  0  0  0  0  0  0  0  0  0
  -18.1677  -30.4123   21.8051 C   0  0  0  0  0  0  0  0  0  0  0  0
  -23.3179  -26.4257   21.8578 C   0  0  0  0  0  0  0  0  0  0  0  0
  -25.5840  -27.3825   23.4992 C   0  0  0  0  0  0  0  0  0  0  0  0
  -18.8765  -30.0208   23.0991 C   0  0  0  0  0  0  0  0  0  0  0  0
  -32.1785  -17.5483   24.0278 C   0  0  0  0  0  0  0  0  0  0  0  0
  -20.2634  -30.6529   23.1604 C   0  0  0  0  0  0  0  0  0  0  0  0
  -31.2774  -16.5252   23.3326 C   0  0  0  0  0  0  0  0  0  0  0  0
  -31.5299  -18.9304   24.0828 C   0  0  0  0  0  0  0  0  0  0  0  0
  -30.1644  -18.4270   22.0951 C   0  0  0  0  0  0  0  0  0  0  0  0
  -21.1453  -30.1612   22.0062 C   0  0  1  0  0  0  0  0  0  0  0  0
  -23.1010  -27.1287   23.1943 C   0  0  1  0  0  0  0  0  0  0  0  0
  -30.8022  -17.0349   21.9578 C   0  0  2  0  0  0  0  0  0  0  0  0
  -27.4598  -23.6768   28.5877 C   0  0  0  0  0  0  0  0  0  0  0  0
  -24.8401  -29.4827   26.7712 C   0  0  0  0  0  0  0  0  0  0  0  0
  -26.4152  -28.2055   28.2396 C   0  0  0  0  0  0  0  0  0  0  0  0
  -23.9661  -27.7424   28.3403 C   0  0  0  0  0  0  0  0  0  0  0  0
  -29.9262  -25.9896   17.2140 C   0  0  0  0  0  0  0  0  0  0  0  0
  -26.6787  -22.3511   25.1079 C   0  0  0  0  0  0  0  0  0  0  0  0
  -30.6527  -27.0943   19.3354 C   0  0  0  0  0  0  0  0  0  0  0  0
  -29.4713  -27.4163   20.2352 C   0  0  0  0  0  0  0  0  0  1  0  0
  -25.2900  -26.9796   26.3259 C   0  0  1  0  0  0  0  0  0  0  0  0
  -26.6930  -23.5890   27.2773 C   0  0  2  0  0  0  0  0  0  0  0  0
  -25.1301  -28.1011   27.3909 C   0  0  0  0  0  0  0  0  0  0  0  0
  -28.5449  -16.1707   21.4689 N   0  0  0  0  0  0  0  0  0  0  0  0
  -29.8700  -16.0460   21.2831 N   0  0  0  0  0  0  0  0  0  0  0  0
  -24.2701  -27.0467   24.0722 N   0  0  0  0  0  0  0  0  0  0  0  0
  -31.1090  -19.3496   22.7442 N   0  0  0  0  0  0  0  0  0  0  0  0
  -31.5083  -14.7335   20.1857 N   0  0  0  0  0  0  0  0  0  0  0  0
  -27.6234  -12.7673   18.9866 N   0  0  0  0  0  0  0  0  0  0  0  0
  -31.1658  -20.8300   20.9091 N   0  0  0  0  0  0  0  0  0  0  0  0
  -21.6417  -28.8299   22.2811 N   0  0  0  0  0  0  0  0  0  0  0  0
  -25.5384  -25.6553   26.8854 N   0  0  0  0  0  0  0  0  0  0  0  0
  -30.4019  -25.8800   18.5933 N   0  0  3  0  0  0  0  0  0  0  0  0
  -27.3439  -22.5583   26.4200 N   0  3  0  0  0  0  0  0  0  0  0  0
  -29.9044  -12.6674   18.7730 O   0  0  0  0  0  0  0  0  0  0  0  0
  -23.4914  -29.4279   23.5632 O   0  0  0  0  0  0  0  0  0  0  0  0
  -22.9845  -26.5622   25.9560 O   0  0  0  0  0  0  0  0  0  0  0  0
  -27.5549  -25.2944   25.7987 O   0  0  0  0  0  0  0  0  0  0  0  0
  -32.3998  -21.2657   22.8246 O   0  0  0  0  0  0  0  0  0  0  0  0
  -22.5128  -14.3582   20.5315 O   0  0  0  0  0  0  0  0  0  0  0  0
  -28.3028  -27.6022   19.4375 O   0  0  0  0  0  0  0  0  0  1  0  0
  -20.6470   -9.2021   21.1127 F   0  0  0  0  0  0  0  0  0  0  0  0
  -20.7973  -13.6949   22.5954 F   0  0  0  0  0  0  0  0  0  0  0  0
  1  2  1  0  0  0  0
  1  5  2  0  0  0  0
  2  6  2  0  0  0  0
  3 12  2  0  0  0  0
  3 19  1  0  0  0  0
  4 13  1  0  0  0  0
  4 19  2  0  0  0  0
  5 21  1  0  0  0  0
  6 23  1  0  0  0  0
  7 14  2  0  0  0  0
  7 22  1  0  0  0  0
  8 10  2  0  0  0  0
  8 25  1  0  0  0  0
  9 11  1  0  0  0  0
  9 25  2  0  0  0  0
 10 26  1  0  0  0  0
 11 26  2  0  0  0  0
 12 27  1  0  0  0  0
 13 27  2  0  0  0  0
 14 28  1  0  0  0  0
 15 16  2  0  0  0  0
 15 29  1  0  0  0  0
 16 30  1  0  0  0  0
 17 24  1  0  0  0  0
 17 28  2  0  0  0  0
 18 30  2  0  0  0  0
 18 31  1  0  0  0  0
 19 32  1  0  0  0  0
 20 32  1  0  0  0  0
 20 33  2  0  0  0  0
 20 34  1  0  0  0  0
 21 23  2  0  0  0  0
 21 39  1  0  0  0  0
 22 24  2  0  0  0  0
 22 40  1  0  0  0  0
 23 48  1  0  0  0  0
 24 41  1  0  0  0  0
 25 68  1  0  0  0  0
 26 71  1  0  0  0  0
 27 78  1  0  0  0  0
 28 79  1  0  0  0  0
 29 31  2  0  0  0  0
 29 78  1  0  0  0  0
 30 80  1  0  0  0  0
 31 81  1  0  0  0  0
 32 62  2  0  0  0  0
 33 63  1  0  0  0  0
 33 66  1  0  0  0  0
 34 67  1  0  0  0  0
 34 73  2  0  0  0  0
 35 49  1  0  0  0  0
 35 69  1  0  0  0  0
 35 74  2  0  0  0  0
 36 59  1  0  0  0  0
 36 64  1  0  0  0  0
 36 75  2  0  0  0  0
 37 60  1  0  0  0  0
 37 70  1  0  0  0  0
 37 76  2  0  0  0  0
 38 65  1  0  0  0  0
 38 68  1  0  0  0  0
 38 77  2  0  0  0  0
 39 42  1  0  0  0  0
 40 49  1  0  0  0  0
 41 64  1  0  0  0  0
 42 44  1  0  0  0  0
 43 45  1  0  0  0  0
 43 46  1  0  0  0  0
 44 48  1  0  0  0  0
 45 50  1  0  0  0  0
 46 65  1  0  0  0  0
 47 50  1  0  0  0  0
 47 65  1  0  0  0  0
 48 69  1  0  0  0  0
 49 64  1  0  0  0  0
 50 63  1  0  0  0  0
 51 60  1  0  0  0  0
 52 61  1  0  0  0  0
 53 61  1  0  0  0  0
 54 61  1  0  0  0  0
 55 71  1  0  0  0  0
 56 72  1  0  0  0  0
 57 58  1  0  0  0  0
 57 71  1  0  0  0  0
 58 79  1  0  0  0  0
 59 61  1  0  0  0  0
 59 70  1  0  0  0  0
 60 72  1  0  0  0  0
 62 63  1  0  0  0  0
M  CHG  1  72   1
M  ISO  4  38 100  58 101  68 100  79 101
M  END
> <Batch ID>
0018

> <Smiles>
CNC(C)C(=O)NC(C(=O)N1Cc2cc([101O:1][101CH2:1]CN(C)c3ccc([100NH:0][100C:0](=O)N4CCCC(n5nc(-c6ccc(Oc7ccc(F)cc7F)cc6)c(C(N)=O)c5N)C4)cc3)ccc2CC1C(=O)NC1CCCc2ccccc21)C(C)(C)C

> <Shape>
0.226

> <Color>
0.074

> <Negative vol penalty>
0.000

$$$$

  -OEChem-04042321033D

 84 92  0     1  0  0  0  0  0999 V2000
  -26.9651  -28.8100   18.1302 C   0  0  0  0  0  0  0  0  0  0  0  0
  -26.3664  -27.5817   18.3915 C   0  0  0  0  0  0  0  0  0  0  0  0
  -30.1424  -19.6518   20.1751 C   0  0  0  0  0  0  0  0  0  0  0  0
  -27.7566  -19.6534   20.5559 C   0  0  0  0  0  0  0  0  0  0  0  0
  -26.7116  -29.8991   18.9631 C   0  0  0  0  0  0  0  0  0  0  0  0
  -25.5146  -27.4415   19.4866 C   0  0  0  0  0  0  0  0  0  0  0  0
  -21.2859  -24.8997   18.3454 C   0  0  0  0  0  0  0  0  0  0  0  0
  -24.4641  -15.9243   20.3714 C   0  0  0  0  0  0  0  0  0  0  0  0
  -24.9780  -15.3694   18.0768 C   0  0  0  0  0  0  0  0  0  0  0  0
  -24.0197  -17.1832   19.9674 C   0  0  0  0  0  0  0  0  0  0  0  0
  -24.5336  -16.6283   17.6728 C   0  0  0  0  0  0  0  0  0  0  0  0
  -30.0608  -20.9448   19.6583 C   0  0  0  0  0  0  0  0  0  0  0  0
  -27.6750  -20.9464   20.0391 C   0  0  0  0  0  0  0  0  0  0  0  0
  -21.3827  -23.5120   18.2521 C   0  0  0  0  0  0  0  0  0  0  0  0
  -29.1461  -22.4129   16.7545 C   0  0  0  0  0  0  0  0  0  0  0  0
  -29.8423  -22.6844   15.5767 C   0  0  0  0  0  0  0  0  0  0  0  0
  -20.4664  -23.3048   20.4740 C   0  0  0  0  0  0  0  0  0  0  0  0
  -31.1238  -24.3803   16.7251 C   0  0  0  0  0  0  0  0  0  0  0  0
  -28.9903  -19.0061   20.6239 C   0  0  0  0  0  0  0  0  0  0  0  0
  -29.2876  -17.3025   22.4993 C   0  0  0  0  0  0  0  0  0  0  0  0
  -25.8486  -29.7746   20.0633 C   0  0  0  0  0  0  0  0  0  0  0  0
  -20.7880  -25.5018   19.5099 C   0  0  0  0  0  0  0  0  0  0  0  0
  -25.2503  -28.5295   20.3357 C   0  0  0  0  0  0  0  0  0  0  0  0
  -20.3619  -24.7002   20.5786 C   0  0  0  0  0  0  0  0  0  0  0  0
  -24.9433  -15.0173   19.4260 C   0  0  0  0  0  0  0  0  0  0  0  0
  -24.0544  -17.5352   18.6182 C   0  0  0  0  0  0  0  0  0  0  0  0
  -28.8271  -21.5921   19.5903 C   0  0  0  0  0  0  0  0  0  0  0  0
  -20.9756  -22.7144   19.3176 C   0  0  0  0  0  0  0  0  0  0  0  0
  -29.4387  -23.1251   17.9176 C   0  0  0  0  0  0  0  0  0  0  0  0
  -30.8312  -23.6680   15.5620 C   0  0  0  0  0  0  0  0  0  0  0  0
  -30.4276  -24.1088   17.9029 C   0  0  0  0  0  0  0  0  0  0  0  0
  -29.0738  -17.6702   21.1573 C   0  0  0  0  0  0  0  0  0  0  0  0
  -29.2833  -15.9291   22.4839 C   0  0  0  0  0  0  0  0  0  0  0  0
  -29.4733  -18.1286   23.6564 C   0  0  0  0  0  0  0  0  0  0  0  0
  -21.9685  -27.4976   21.6840 C   0  0  0  0  0  0  0  0  0  0  0  0
  -18.9250  -27.4579   22.8055 C   0  0  0  0  0  0  0  0  0  0  0  0
  -22.5770  -19.4810   18.9417 C   0  0  0  0  0  0  0  0  0  0  0  0
  -15.9413  -25.8166   23.0299 C   0  0  0  0  0  0  0  0  0  0  0  0
  -26.7807  -12.1757   18.3382 C   0  0  0  0  0  0  0  0  0  0  0  0
  -25.6422  -30.9676   20.9626 C   0  0  0  0  0  0  0  0  0  0  0  0
  -20.6650  -26.9991   19.5844 C   0  0  0  0  0  0  0  0  0  0  0  0
  -19.8013  -25.2966   21.8429 C   0  0  0  0  0  0  0  0  0  0  0  0
  -24.4331  -30.8333   21.8847 C   0  0  0  0  0  0  0  0  0  0  0  0
  -30.2413  -12.2014   19.6517 C   0  0  0  0  0  0  0  0  0  0  0  0
  -24.4163  -29.4590   22.5462 C   0  0  0  0  0  0  0  0  0  0  0  0
  -30.3654  -13.6076   20.2359 C   0  0  0  0  0  0  0  0  0  0  0  0
  -29.2435  -12.1523   18.4986 C   0  0  0  0  0  0  0  0  0  0  0  0
  -28.0213  -14.0904   19.4281 C   0  0  0  0  0  0  0  0  0  0  0  0
  -24.3009  -28.3443   21.4995 C   0  0  1  0  0  0  0  0  0  0  0  0
  -20.6229  -27.5246   21.0160 C   0  0  1  0  0  0  0  0  0  0  0  0
  -28.9844  -14.1649   20.6225 C   0  0  2  0  0  0  0  0  0  0  0  0
  -13.6548  -26.0160   24.0447 C   0  0  0  0  0  0  0  0  0  0  0  0
  -20.0721  -26.7076   25.5315 C   0  0  0  0  0  0  0  0  0  0  0  0
  -17.7726  -26.0032   26.2276 C   0  0  0  0  0  0  0  0  0  0  0  0
  -18.2129  -28.3786   25.6061 C   0  0  0  0  0  0  0  0  0  0  0  0
  -24.1967  -19.4647   17.0097 C   0  0  0  0  0  0  0  0  0  0  0  0
  -24.3185  -12.2015   18.2103 C   0  0  0  0  0  0  0  0  0  0  0  0
  -14.6338  -25.7907   20.3750 C   0  0  0  0  0  0  0  0  0  0  0  0
  -25.4185  -13.6713   19.8581 C   0  0  0  0  0  0  0  0  0  0  0  0
  -22.1168  -20.8329   18.4157 C   0  0  0  0  0  0  0  0  0  1  0  0
  -18.1619  -26.6132   23.7970 C   0  0  1  0  0  0  0  0  0  0  0  0
  -14.5138  -26.2884   22.8197 C   0  0  2  0  0  0  0  0  0  0  0  0
  -18.5672  -26.9142   25.2676 C   0  0  0  0  0  0  0  0  0  0  0  0
  -28.9435  -16.6155   20.3482 N   0  0  0  0  0  0  0  0  0  0  0  0
  -29.0758  -15.5716   21.1842 N   0  0  0  0  0  0  0  0  0  0  0  0
  -19.7070  -26.7656   21.8700 N   0  0  0  0  0  0  0  0  0  0  0  0
  -27.9532  -12.7274   18.8801 N   0  0  0  0  0  0  0  0  0  0  0  0
  -29.4371  -15.0045   23.4555 N   0  0  0  0  0  0  0  0  0  0  0  0
  -29.4491  -19.5206   23.4944 N   0  0  0  0  0  0  0  0  0  0  0  0
  -22.9372  -28.2330   21.0280 N   0  0  0  0  0  0  0  0  0  0  0  0
  -16.7472  -26.8264   23.5115 N   0  0  0  0  0  0  0  0  0  0  0  0
  -23.5926  -18.8428   18.1982 N   0  0  0  0  0  0  0  0  0  0  0  0
  -25.5622  -12.7463   18.7360 N   0  0  0  0  0  0  0  0  0  0  0  0
  -13.9038  -25.5898   21.6531 N   0  3  0  0  0  0  0  0  0  0  0  0
  -29.6716  -17.6467   24.7974 O   0  0  0  0  0  0  0  0  0  0  0  0
  -22.1166  -26.8582   22.7189 O   0  0  0  0  0  0  0  0  0  0  0  0
  -18.8251  -28.6864   22.8545 O   0  0  0  0  0  0  0  0  0  0  0  0
  -22.0293  -19.0168   19.9449 O   0  0  0  0  0  0  0  0  0  0  0  0
  -16.3041  -24.6662   22.7943 O   0  0  0  0  0  0  0  0  0  0  0  0
  -26.8203  -11.2210   17.5515 O   0  0  0  0  0  0  0  0  0  0  0  0
  -28.7472  -22.8539   19.0863 O   0  0  0  0  0  0  0  0  0  0  0  0
  -21.0696  -21.3597   19.2295 O   0  0  0  0  0  0  0  0  0  1  0  0
  -31.5007  -23.9275   14.4312 F   0  0  0  0  0  0  0  0  0  0  0  0
  -30.7139  -24.7955   19.0174 F   0  0  0  0  0  0  0  0  0  0  0  0
  1  2  1  0  0  0  0
  1  5  2  0  0  0  0
  2  6  2  0  0  0  0
  3 12  2  0  0  0  0
  3 19  1  0  0  0  0
  4 13  1  0  0  0  0
  4 19  2  0  0  0  0
  5 21  1  0  0  0  0
  6 23  1  0  0  0  0
  7 14  2  0  0  0  0
  7 22  1  0  0  0  0
  8 10  2  0  0  0  0
  8 25  1  0  0  0  0
  9 11  1  0  0  0  0
  9 25  2  0  0  0  0
 10 26  1  0  0  0  0
 11 26  2  0  0  0  0
 12 27  1  0  0  0  0
 13 27  2  0  0  0  0
 14 28  1  0  0  0  0
 15 16  2  0  0  0  0
 15 29  1  0  0  0  0
 16 30  1  0  0  0  0
 17 24  1  0  0  0  0
 17 28  2  0  0  0  0
 18 30  2  0  0  0  0
 18 31  1  0  0  0  0
 19 32  1  0  0  0  0
 20 32  1  0  0  0  0
 20 33  2  0  0  0  0
 20 34  1  0  0  0  0
 21 23  2  0  0  0  0
 21 40  1  0  0  0  0
 22 24  2  0  0  0  0
 22 41  1  0  0  0  0
 23 49  1  0  0  0  0
 24 42  1  0  0  0  0
 25 59  1  0  0  0  0
 26 72  1  0  0  0  0
 27 81  1  0  0  0  0
 28 82  1  0  0  0  0
 29 31  2  0  0  0  0
 29 81  1  0  0  0  0
 30 83  1  0  0  0  0
 31 84  1  0  0  0  0
 32 64  2  0  0  0  0
 33 65  1  0  0  0  0
 33 68  1  0  0  0  0
 34 69  1  0  0  0  0
 34 75  2  0  0  0  0
 35 50  1  0  0  0  0
 35 70  1  0  0  0  0
 35 76  2  0  0  0  0
 36 61  1  0  0  0  0
 36 66  1  0  0  0  0
 36 77  2  0  0  0  0
 37 60  1  0  0  0  0
 37 72  1  0  0  0  0
 37 78  2  0  0  0  0
 38 62  1  0  0  0  0
 38 71  1  0  0  0  0
 38 79  2  0  0  0  0
 39 67  1  0  0  0  0
 39 73  1  0  0  0  0
 39 80  2  0  0  0  0
 40 43  1  0  0  0  0
 41 50  1  0  0  0  0
 42 66  1  0  0  0  0
 43 45  1  0  0  0  0
 44 46  1  0  0  0  0
 44 47  1  0  0  0  0
 45 49  1  0  0  0  0
 46 51  1  0  0  0  0
 47 67  1  0  0  0  0
 48 51  1  0  0  0  0
 48 67  1  0  0  0  0
 49 70  1  0  0  0  0
 50 66  1  0  0  0  0
 51 65  1  0  0  0  0
 52 62  1  0  0  0  0
 53 63  1  0  0  0  0
 54 63  1  0  0  0  0
 55 63  1  0  0  0  0
 56 72  1  0  0  0  0
 57 73  1  0  0  0  0
 58 74  1  0  0  0  0
 59 73  1  0  0  0  0
 60 82  1  0  0  0  0
 61 63  1  0  0  0  0
 61 71  1  0  0  0  0
 62 74  1  0  0  0  0
 64 65  1  0  0  0  0
M  CHG  1  74   1
M  ISO  4  39 100  60 101  73 100  82 101
M  END
> <Batch ID>
0018

> <Smiles>
CNC(C)C(=O)NC(C(=O)N1Cc2cc([101O:1][101CH2:1]C(=O)N(C)c3ccc(C[100N:0](C)[100C:0](=O)N4CCCC(n5nc(-c6ccc(Oc7ccc(F)cc7F)cc6)c(C(N)=O)c5N)C4)cc3)ccc2CC1C(=O)NC1CCCc2ccccc21)C(C)(C)C

> <Shape>
0.239

> <Color>
0.056

> <Negative vol penalty>
0.000

$$$$

  -OEChem-04042321033D

 87 95  0     1  0  0  0  0  0999 V2000
  -17.3150  -27.2206   21.4812 C   0  0  0  0  0  0  0  0  0  0  0  0
  -18.5896  -26.9710   20.9828 C   0  0  0  0  0  0  0  0  0  0  0  0
  -23.4265   -9.5264   20.0855 C   0  0  0  0  0  0  0  0  0  0  0  0
  -23.9879   -9.9003   22.4054 C   0  0  0  0  0  0  0  0  0  0  0  0
  -17.1241  -28.2186   22.4359 C   0  0  0  0  0  0  0  0  0  0  0  0
  -19.6740  -27.7201   21.4381 C   0  0  0  0  0  0  0  0  0  0  0  0
  -23.7185  -24.8533   22.4718 C   0  0  0  0  0  0  0  0  0  0  0  0
  -27.9194  -18.9783   22.3095 C   0  0  0  0  0  0  0  0  0  0  0  0
  -27.9791  -20.3712   22.2671 C   0  0  0  0  0  0  0  0  0  0  0  0
  -22.8111   -8.3226   20.4283 C   0  0  0  0  0  0  0  0  0  0  0  0
  -23.3723   -8.6964   22.7483 C   0  0  0  0  0  0  0  0  0  0  0  0
  -24.4830  -24.4172   21.3905 C   0  0  0  0  0  0  0  0  0  0  0  0
  -20.2272   -7.5572   23.2288 C   0  0  0  0  0  0  0  0  0  0  0  0
  -19.3867   -7.5549   24.3419 C   0  0  0  0  0  0  0  0  0  0  0  0
  -26.0799  -26.1738   21.8188 C   0  0  0  0  0  0  0  0  0  0  0  0
  -29.3408  -20.2523   20.2750 C   0  0  0  0  0  0  0  0  0  0  0  0
  -20.7905   -5.8963   25.3983 C   0  0  0  0  0  0  0  0  0  0  0  0
  -24.0150  -10.3153   21.0740 C   0  0  0  0  0  0  0  0  0  0  0  0
  -24.0545  -12.8321   20.6598 C   0  0  0  0  0  0  0  0  0  0  0  0
  -18.2082  -28.9738   22.9102 C   0  0  0  0  0  0  0  0  0  0  0  0
  -24.1241  -25.9615   23.2293 C   0  0  0  0  0  0  0  0  0  0  0  0
  -19.4973  -28.7301   22.3990 C   0  0  0  0  0  0  0  0  0  0  0  0
  -25.3201  -26.6204   22.9108 C   0  0  0  0  0  0  0  0  0  0  0  0
  -28.5705  -18.2223   21.3347 C   0  0  0  0  0  0  0  0  0  0  0  0
  -29.2812  -18.8593   20.3174 C   0  0  0  0  0  0  0  0  0  0  0  0
  -28.6897  -21.0082   21.2499 C   0  0  0  0  0  0  0  0  0  0  0  0
  -22.7839   -7.9076   21.7598 C   0  0  0  0  0  0  0  0  0  0  0  0
  -25.6624  -25.0792   21.0621 C   0  0  0  0  0  0  0  0  0  0  0  0
  -21.3493   -6.7291   23.2003 C   0  0  0  0  0  0  0  0  0  0  0  0
  -19.6684   -6.7245   25.4267 C   0  0  0  0  0  0  0  0  0  0  0  0
  -21.6309   -5.8987   24.2851 C   0  0  0  0  0  0  0  0  0  0  0  0
  -24.6515  -11.5586   20.7204 C   0  0  0  0  0  0  0  0  0  0  0  0
  -25.0731  -13.6711   20.2791 C   0  0  0  0  0  0  0  0  0  0  0  0
  -22.7003  -13.2218   20.9242 C   0  0  0  0  0  0  0  0  0  0  0  0
  -22.8950  -28.8269   23.8478 C   0  0  0  0  0  0  0  0  0  0  0  0
  -25.4248  -29.0456   25.8664 C   0  0  0  0  0  0  0  0  0  0  0  0
  -28.5735  -28.0168   26.6875 C   0  0  0  0  0  0  0  0  0  0  0  0
  -30.4797  -15.1811   21.1769 C   0  0  0  0  0  0  0  0  0  0  0  0
  -17.9454  -30.0740   23.9078 C   0  0  0  0  0  0  0  0  0  0  0  0
  -23.3021  -26.4030   24.4090 C   0  0  0  0  0  0  0  0  0  0  0  0
  -25.8100  -27.8028   23.7048 C   0  0  0  0  0  0  0  0  0  0  0  0
  -19.2048  -30.5698   24.6136 C   0  0  0  0  0  0  0  0  0  0  0  0
  -29.7159  -12.6741   18.5628 C   0  0  0  0  0  0  0  0  0  0  0  0
  -20.3244  -30.8056   23.6048 C   0  0  0  0  0  0  0  0  0  0  0  0
  -28.3063  -12.2202   18.9383 C   0  0  0  0  0  0  0  0  0  0  0  0
  -30.5035  -13.1454   19.7815 C   0  0  0  0  0  0  0  0  0  0  0  0
  -28.4074  -13.7512   20.9449 C   0  0  0  0  0  0  0  0  0  0  0  0
  -20.7025  -29.5047   22.8863 C   0  0  1  0  0  0  0  0  0  0  0  0
  -23.5450  -27.8587   24.7953 C   0  0  1  0  0  0  0  0  0  0  0  0
  -27.5713  -13.3137   19.7329 C   0  0  2  0  0  0  0  0  0  0  0  0
  -29.9874  -18.0708   19.2638 C   0  0  0  0  0  0  0  0  0  0  0  0
  -31.1952  -23.1668   22.7954 C   0  0  0  0  0  0  0  0  0  0  0  0
  -30.3962  -28.4026   28.3686 C   0  0  0  0  0  0  0  0  0  0  0  0
  -26.1411  -31.6698   24.4840 C   0  0  0  0  0  0  0  0  0  0  0  0
  -28.4160  -31.5125   25.5176 C   0  0  0  0  0  0  0  0  0  0  0  0
  -26.3975  -31.6972   26.9716 C   0  0  0  0  0  0  0  0  0  0  0  0
  -30.3383  -16.7921   23.0381 C   0  0  0  0  0  0  0  0  0  0  0  0
  -28.4780  -25.2059   27.6086 C   0  0  0  0  0  0  0  0  0  0  0  0
  -28.4933  -16.7324   21.4016 C   0  0  0  0  0  0  0  0  0  0  0  0
  -29.8317  -22.8564   23.3964 C   0  0  0  0  0  0  0  0  0  0  0  0
  -27.6875  -22.8609   19.0553 C   0  0  0  0  0  0  0  0  0  0  0  0
  -28.6828  -23.1812   22.4491 C   0  0  0  0  0  0  0  0  0  0  0  0
  -28.8875  -23.1186   19.9586 C   0  0  0  0  0  0  0  0  0  0  0  0
  -26.3640  -23.2643   19.6947 C   0  0  0  0  0  0  0  0  0  1  0  0
  -26.8490  -29.5319   25.7468 C   0  0  1  0  0  0  0  0  0  0  0  0
  -29.1752  -27.5709   28.0079 C   0  0  2  0  0  0  0  0  0  0  0  0
  -26.9409  -31.0818   25.6637 C   0  0  0  0  0  0  0  0  0  0  0  0
  -25.9487  -11.5817   20.4033 N   0  0  0  0  0  0  0  0  0  0  0  0
  -26.1753  -12.8799   20.1398 N   0  0  0  0  0  0  0  0  0  0  0  0
  -24.9680  -28.2003   24.8453 N   0  0  0  0  0  0  0  0  0  0  0  0
  -29.7635  -14.1528   20.5424 N   0  0  0  0  0  0  0  0  0  0  0  0
  -25.1246  -15.0010   20.0531 N   0  0  0  0  0  0  0  0  0  0  0  0
  -21.7826  -12.2332   21.3048 N   0  0  0  0  0  0  0  0  0  0  0  0
  -21.5256  -28.6761   23.7410 N   0  0  0  0  0  0  0  0  0  0  0  0
  -27.5748  -28.9497   26.8705 N   0  0  0  0  0  0  0  0  0  0  0  0
  -28.7486  -22.4086   21.2072 N   0  0  3  0  0  0  0  0  0  0  0  0
  -29.7351  -16.1347   21.8875 N   0  0  0  0  0  0  0  0  0  0  0  0
  -29.5863  -26.1404   27.9330 N   0  3  0  0  0  0  0  0  0  0  0  0
  -22.3115  -14.4090   20.8100 O   0  0  0  0  0  0  0  0  0  0  0  0
  -23.5846  -29.6508   23.2585 O   0  0  0  0  0  0  0  0  0  0  0  0
  -24.7450  -29.3969   26.8339 O   0  0  0  0  0  0  0  0  0  0  0  0
  -28.9541  -27.5838   25.6020 O   0  0  0  0  0  0  0  0  0  0  0  0
  -31.7134  -15.2486   21.1039 O   0  0  0  0  0  0  0  0  0  0  0  0
  -22.1832   -6.7331   22.0947 O   0  0  0  0  0  0  0  0  0  0  0  0
  -26.4101  -24.6560   20.0068 O   0  0  0  0  0  0  0  0  0  1  0  0
  -18.8620   -6.7234   26.4963 F   0  0  0  0  0  0  0  0  0  0  0  0
  -22.7081   -5.1018   24.2640 F   0  0  0  0  0  0  0  0  0  0  0  0
  1  2  1  0  0  0  0
  1  5  2  0  0  0  0
  2  6  2  0  0  0  0
  3 10  2  0  0  0  0
  3 18  1  0  0  0  0
  4 11  1  0  0  0  0
  4 18  2  0  0  0  0
  5 20  1  0  0  0  0
  6 22  1  0  0  0  0
  7 12  2  0  0  0  0
  7 21  1  0  0  0  0
  8  9  2  0  0  0  0
  8 24  1  0  0  0  0
  9 26  1  0  0  0  0
 10 27  1  0  0  0  0
 11 27  2  0  0  0  0
 12 28  1  0  0  0  0
 13 14  2  0  0  0  0
 13 29  1  0  0  0  0
 14 30  1  0  0  0  0
 15 23  1  0  0  0  0
 15 28  2  0  0  0  0
 16 25  1  0  0  0  0
 16 26  2  0  0  0  0
 17 30  2  0  0  0  0
 17 31  1  0  0  0  0
 18 32  1  0  0  0  0
 19 32  1  0  0  0  0
 19 33  2  0  0  0  0
 19 34  1  0  0  0  0
 20 22  2  0  0  0  0
 20 39  1  0  0  0  0
 21 23  2  0  0  0  0
 21 40  1  0  0  0  0
 22 48  1  0  0  0  0
 23 41  1  0  0  0  0
 24 25  2  0  0  0  0
 24 59  1  0  0  0  0
 25 51  1  0  0  0  0
 26 76  1  0  0  0  0
 27 84  1  0  0  0  0
 28 85  1  0  0  0  0
 29 31  2  0  0  0  0
 29 84  1  0  0  0  0
 30 86  1  0  0  0  0
 31 87  1  0  0  0  0
 32 68  2  0  0  0  0
 33 69  1  0  0  0  0
 33 72  1  0  0  0  0
 34 73  1  0  0  0  0
 34 79  2  0  0  0  0
 35 49  1  0  0  0  0
 35 74  1  0  0  0  0
 35 80  2  0  0  0  0
 36 65  1  0  0  0  0
 36 70  1  0  0  0  0
 36 81  2  0  0  0  0
 37 66  1  0  0  0  0
 37 75  1  0  0  0  0
 37 82  2  0  0  0  0
 38 71  1  0  0  0  0
 38 77  1  0  0  0  0
 38 83  2  0  0  0  0
 39 42  1  0  0  0  0
 40 49  1  0  0  0  0
 41 70  1  0  0  0  0
 42 44  1  0  0  0  0
 43 45  1  0  0  0  0
 43 46  1  0  0  0  0
 44 48  1  0  0  0  0
 45 50  1  0  0  0  0
 46 71  1  0  0  0  0
 47 50  1  0  0  0  0
 47 71  1  0  0  0  0
 48 74  1  0  0  0  0
 49 70  1  0  0  0  0
 50 69  1  0  0  0  0
 52 60  1  0  0  0  0
 53 66  1  0  0  0  0
 54 67  1  0  0  0  0
 55 67  1  0  0  0  0
 56 67  1  0  0  0  0
 57 77  1  0  0  0  0
 58 78  1  0  0  0  0
 59 77  1  0  0  0  0
 60 62  1  0  0  0  0
 61 63  1  0  0  0  0
 61 64  1  0  0  0  0
 62 76  1  0  0  0  0
 63 76  1  0  0  0  0
 64 85  1  0  0  0  0
 65 67  1  0  0  0  0
 65 75  1  0  0  0  0
 66 78  1  0  0  0  0
 68 69  1  0  0  0  0
M  CHG  1  78   1
M  ISO  4  38 100  64 101  77 100  85 101
M  END
> <Batch ID>
0018

> <Smiles>
CCCN(CC[101CH2:1][101O:1]c1ccc2c(c1)CN(C(=O)C(NC(=O)C(C)NC)C(C)(C)C)C(C(=O)NC1CCCc3ccccc31)C2)c1ccc(C[100N:0](C)[100C:0](=O)N2CCCC(n3nc(-c4ccc(Oc5ccc(F)cc5F)cc4)c(C(N)=O)c3N)C2)c(C)c1

> <Shape>
0.341

> <Color>
0.200

> <Negative vol penalty>
0.000

$$$$

  -OEChem-04042321033D

 85 93  0     1  0  0  0  0  0999 V2000
  -34.1083  -31.6303   17.6705 C   0  0  0  0  0  0  0  0  0  0  0  0
  -34.0274  -30.2697   17.9492 C   0  0  0  0  0  0  0  0  0  0  0  0
  -23.1790   -9.8002   19.8810 C   0  0  0  0  0  0  0  0  0  0  0  0
  -23.5904   -9.8630   22.2608 C   0  0  0  0  0  0  0  0  0  0  0  0
  -33.0023  -32.4517   17.8853 C   0  0  0  0  0  0  0  0  0  0  0  0
  -32.8407  -29.7299   18.4439 C   0  0  0  0  0  0  0  0  0  0  0  0
  -30.5522  -24.1725   17.2672 C   0  0  0  0  0  0  0  0  0  0  0  0
  -30.5565  -15.6363   21.9145 C   0  0  0  0  0  0  0  0  0  0  0  0
  -31.0282  -16.9475   21.8528 C   0  0  0  0  0  0  0  0  0  0  0  0
  -22.4194   -8.6416   20.0428 C   0  0  0  0  0  0  0  0  0  0  0  0
  -22.8308   -8.7044   22.4227 C   0  0  0  0  0  0  0  0  0  0  0  0
  -30.5867  -22.9740   17.9786 C   0  0  0  0  0  0  0  0  0  0  0  0
  -23.2388   -5.3767   21.9861 C   0  0  0  0  0  0  0  0  0  0  0  0
  -23.7527   -4.3746   22.8092 C   0  0  0  0  0  0  0  0  0  0  0  0
  -28.4172  -23.4708   18.9090 C   0  0  0  0  0  0  0  0  0  0  0  0
  -31.1884  -17.0032   24.2629 C   0  0  0  0  0  0  0  0  0  0  0  0
  -21.8153   -4.5571   24.2410 C   0  0  0  0  0  0  0  0  0  0  0  0
  -23.7645  -10.4109   20.9900 C   0  0  0  0  0  0  0  0  0  0  0  0
  -24.0917  -12.9379   20.8676 C   0  0  0  0  0  0  0  0  0  0  0  0
  -31.7985  -31.9200   18.3738 C   0  0  0  0  0  0  0  0  0  0  0  0
  -29.4529  -25.0358   17.3800 C   0  0  0  0  0  0  0  0  0  0  0  0
  -31.7180  -30.5452   18.6667 C   0  0  0  0  0  0  0  0  0  0  0  0
  -28.3700  -24.6784   18.1960 C   0  0  0  0  0  0  0  0  0  0  0  0
  -30.4007  -15.0085   23.1503 C   0  0  0  0  0  0  0  0  0  0  0  0
  -31.3442  -17.6309   23.0270 C   0  0  0  0  0  0  0  0  0  0  0  0
  -22.2453   -8.0937   21.3137 C   0  0  0  0  0  0  0  0  0  0  0  0
  -29.5204  -22.6243   18.8019 C   0  0  0  0  0  0  0  0  0  0  0  0
  -22.0132   -5.9690   22.2906 C   0  0  0  0  0  0  0  0  0  0  0  0
  -23.0409   -3.9648   23.9366 C   0  0  0  0  0  0  0  0  0  0  0  0
  -30.7167  -15.6919   24.3245 C   0  0  0  0  0  0  0  0  0  0  0  0
  -21.3014   -5.5592   23.4180 C   0  0  0  0  0  0  0  0  0  0  0  0
  -24.5498  -11.6075   20.8233 C   0  0  0  0  0  0  0  0  0  0  0  0
  -25.2170  -13.6958   20.6539 C   0  0  0  0  0  0  0  0  0  0  0  0
  -22.7674  -13.4435   21.0827 C   0  0  0  0  0  0  0  0  0  0  0  0
  -29.0370  -28.0161   18.4038 C   0  0  0  0  0  0  0  0  0  0  0  0
  -26.0212  -27.5606   17.2992 C   0  0  0  0  0  0  0  0  0  0  0  0
  -23.5293  -25.3711   16.4974 C   0  0  0  0  0  0  0  0  0  0  0  0
  -31.0783  -12.1383   21.5247 C   0  0  0  0  0  0  0  0  0  0  0  0
  -30.6446  -32.8555   18.6347 C   0  0  0  0  0  0  0  0  0  0  0  0
  -29.4191  -26.3123   16.5852 C   0  0  0  0  0  0  0  0  0  0  0  0
  -27.1574  -25.5607   18.3359 C   0  0  0  0  0  0  0  0  0  0  0  0
  -29.3073  -32.1400   18.8069 C   0  0  0  0  0  0  0  0  0  0  0  0
  -29.4826  -13.5632   18.5039 C   0  0  0  0  0  0  0  0  0  0  0  0
  -29.4565  -30.9486   19.7478 C   0  0  0  0  0  0  0  0  0  0  0  0
  -28.0023  -13.2663   18.7377 C   0  0  0  0  0  0  0  0  0  0  0  0
  -30.3817  -12.5400   19.1913 C   0  0  0  0  0  0  0  0  0  0  0  0
  -28.6338  -12.0876   20.8807 C   0  0  0  0  0  0  0  0  0  0  0  0
  -30.4404  -29.9180   19.1811 C   0  0  1  0  0  0  0  0  0  0  0  0
  -28.4774  -27.3581   17.1743 C   0  0  1  0  0  0  0  0  0  0  0  0
  -27.7014  -13.1268   20.2401 C   0  0  2  0  0  0  0  0  0  0  0  0
  -21.1660  -25.2983   15.6565 C   0  0  0  0  0  0  0  0  0  0  0  0
  -25.0182  -28.4160   20.0509 C   0  0  0  0  0  0  0  0  0  0  0  0
  -22.7915  -27.4305   19.4687 C   0  0  0  0  0  0  0  0  0  0  0  0
  -23.7016  -29.3289   18.1305 C   0  0  0  0  0  0  0  0  0  0  0  0
  -32.1502  -19.6659   24.1972 C   0  0  0  0  0  0  0  0  0  0  0  0
  -31.9631  -12.4003   23.8112 C   0  0  0  0  0  0  0  0  0  0  0  0
  -24.3100  -23.8345   14.0916 C   0  0  0  0  0  0  0  0  0  0  0  0
  -29.8960  -13.6064   23.2127 C   0  0  0  0  0  0  0  0  0  0  0  0
  -30.6877  -20.2039   21.2017 C   0  0  0  0  0  0  0  0  0  0  0  0
  -32.0047  -19.6231   21.7021 C   0  0  0  0  0  0  0  0  0  0  0  0
  -30.8341  -20.9677   19.8909 C   0  0  0  0  0  0  0  0  0  1  0  0
  -24.7350  -27.0341   17.8885 C   0  0  1  0  0  0  0  0  0  0  0  0
  -22.6374  -25.2642   15.2736 C   0  0  2  0  0  0  0  0  0  0  0  0
  -24.0851  -28.0365   18.8837 C   0  0  0  0  0  0  0  0  0  0  0  0
  -25.8636  -11.5217   20.5990 N   0  0  0  0  0  0  0  0  0  0  0  0
  -26.2408  -12.8078   20.5002 N   0  0  0  0  0  0  0  0  0  0  0  0
  -27.1744  -26.8014   17.5435 N   0  0  0  0  0  0  0  0  0  0  0  0
  -30.0456  -12.3958   20.6081 N   0  0  0  0  0  0  0  0  0  0  0  0
  -25.4208  -15.0285   20.5842 N   0  0  0  0  0  0  0  0  0  0  0  0
  -21.7270  -12.5266   21.2860 N   0  0  0  0  0  0  0  0  0  0  0  0
  -29.8077  -29.1330   18.1428 N   0  0  0  0  0  0  0  0  0  0  0  0
  -23.8840  -26.6777   16.7583 N   0  0  0  0  0  0  0  0  0  0  0  0
  -31.8187  -18.9490   22.9644 N   0  0  3  0  0  0  0  0  0  0  0  0
  -30.9145  -12.6318   22.8279 N   0  0  0  0  0  0  0  0  0  0  0  0
  -22.9048  -23.9904   14.5476 N   0  3  0  0  0  0  0  0  0  0  0  0
  -22.5113  -14.6714   21.0780 O   0  0  0  0  0  0  0  0  0  0  0  0
  -28.7867  -27.5463   19.5075 O   0  0  0  0  0  0  0  0  0  0  0  0
  -26.0023  -28.6032   16.6401 O   0  0  0  0  0  0  0  0  0  0  0  0
  -23.8735  -24.3936   17.1582 O   0  0  0  0  0  0  0  0  0  0  0  0
  -32.0933  -11.5117   21.1943 O   0  0  0  0  0  0  0  0  0  0  0  0
  -21.5040   -6.9632   21.4721 O   0  0  0  0  0  0  0  0  0  0  0  0
  -29.5519  -21.4554   19.4979 O   0  0  0  0  0  0  0  0  0  1  0  0
  -23.5338   -3.0014   24.7260 F   0  0  0  0  0  0  0  0  0  0  0  0
  -30.5691  -15.0974   25.5168 F   0  0  0  0  0  0  0  0  0  0  0  0
  -20.1229   -6.1237   23.7149 F   0  0  0  0  0  0  0  0  0  0  0  0
  1  2  1  0  0  0  0
  1  5  2  0  0  0  0
  2  6  2  0  0  0  0
  3 10  2  0  0  0  0
  3 18  1  0  0  0  0
  4 11  1  0  0  0  0
  4 18  2  0  0  0  0
  5 20  1  0  0  0  0
  6 22  1  0  0  0  0
  7 12  2  0  0  0  0
  7 21  1  0  0  0  0
  8  9  2  0  0  0  0
  8 24  1  0  0  0  0
  9 25  1  0  0  0  0
 10 26  1  0  0  0  0
 11 26  2  0  0  0  0
 12 27  1  0  0  0  0
 13 14  2  0  0  0  0
 13 28  1  0  0  0  0
 14 29  1  0  0  0  0
 15 23  1  0  0  0  0
 15 27  2  0  0  0  0
 16 25  2  0  0  0  0
 16 30  1  0  0  0  0
 17 29  2  0  0  0  0
 17 31  1  0  0  0  0
 18 32  1  0  0  0  0
 19 32  1  0  0  0  0
 19 33  2  0  0  0  0
 19 34  1  0  0  0  0
 20 22  2  0  0  0  0
 20 39  1  0  0  0  0
 21 23  2  0  0  0  0
 21 40  1  0  0  0  0
 22 48  1  0  0  0  0
 23 41  1  0  0  0  0
 24 30  2  0  0  0  0
 24 58  1  0  0  0  0
 25 73  1  0  0  0  0
 26 81  1  0  0  0  0
 27 82  1  0  0  0  0
 28 31  2  0  0  0  0
 28 81  1  0  0  0  0
 29 83  1  0  0  0  0
 30 84  1  0  0  0  0
 31 85  1  0  0  0  0
 32 65  2  0  0  0  0
 33 66  1  0  0  0  0
 33 69  1  0  0  0  0
 34 70  1  0  0  0  0
 34 76  2  0  0  0  0
 35 49  1  0  0  0  0
 35 71  1  0  0  0  0
 35 77  2  0  0  0  0
 36 62  1  0  0  0  0
 36 67  1  0  0  0  0
 36 78  2  0  0  0  0
 37 63  1  0  0  0  0
 37 72  1  0  0  0  0
 37 79  2  0  0  0  0
 38 68  1  0  0  0  0
 38 74  1  0  0  0  0
 38 80  2  0  0  0  0
 39 42  1  0  0  0  0
 40 49  1  0  0  0  0
 41 67  1  0  0  0  0
 42 44  1  0  0  0  0
 43 45  1  0  0  0  0
 43 46  1  0  0  0  0
 44 48  1  0  0  0  0
 45 50  1  0  0  0  0
 46 68  1  0  0  0  0
 47 50  1  0  0  0  0
 47 68  1  0  0  0  0
 48 71  1  0  0  0  0
 49 67  1  0  0  0  0
 50 66  1  0  0  0  0
 51 63  1  0  0  0  0
 52 64  1  0  0  0  0
 53 64  1  0  0  0  0
 54 64  1  0  0  0  0
 55 73  1  0  0  0  0
 56 74  1  0  0  0  0
 57 75  1  0  0  0  0
 58 74  1  0  0  0  0
 59 60  1  0  0  0  0
 59 61  1  0  0  0  0
 60 73  1  0  0  0  0
 61 82  1  0  0  0  0
 62 64  1  0  0  0  0
 62 72  1  0  0  0  0
 63 75  1  0  0  0  0
 65 66  1  0  0  0  0
M  CHG  1  75   1
M  ISO  4  38 100  61 101  74 100  82 101
M  END
> <Batch ID>
0018

> <Smiles>
CNC(C)C(=O)NC(C(=O)N1Cc2cc([101O:1][101CH2:1]CCN(C)c3ccc(C[100N:0](C)[100C:0](=O)N4CCCC(n5nc(-c6ccc(Oc7ccc(F)cc7F)cc6)c(C(N)=O)c5N)C4)c(F)c3)ccc2CC1C(=O)NC1CCCc2ccccc21)C(C)(C)C

> <Shape>
0.238

> <Color>
0.207

> <Negative vol penalty>
0.000

$$$$

  -OEChem-04042321033D

 83 91  0     1  0  0  0  0  0999 V2000
  -28.1665  -38.0395   24.2568 C   0  0  0  0  0  0  0  0  0  0  0  0
  -28.6107  -37.0037   23.4412 C   0  0  0  0  0  0  0  0  0  0  0  0
  -26.5020  -12.6725   21.6253 C   0  0  0  0  0  0  0  0  0  0  0  0
  -26.1153  -13.6939   19.4702 C   0  0  0  0  0  0  0  0  0  0  0  0
  -27.2668  -37.7758   25.2887 C   0  0  0  0  0  0  0  0  0  0  0  0
  -28.1562  -35.7033   23.6577 C   0  0  0  0  0  0  0  0  0  0  0  0
  -27.0808  -31.4241   19.4107 C   0  0  0  0  0  0  0  0  0  0  0  0
  -29.1232  -22.6785   19.5904 C   0  0  0  0  0  0  0  0  0  0  0  0
  -28.6423  -23.7237   18.8018 C   0  0  0  0  0  0  0  0  0  0  0  0
  -25.2346  -12.0920   21.5776 C   0  0  0  0  0  0  0  0  0  0  0  0
  -24.8479  -13.1133   19.4225 C   0  0  0  0  0  0  0  0  0  0  0  0
  -27.8374  -30.3466   18.9522 C   0  0  0  0  0  0  0  0  0  0  0  0
  -22.2418  -10.0477   21.8589 C   0  0  0  0  0  0  0  0  0  0  0  0
  -22.1288   -8.7061   22.2235 C   0  0  0  0  0  0  0  0  0  0  0  0
  -26.6584  -28.8829   20.4643 C   0  0  0  0  0  0  0  0  0  0  0  0
  -28.8530  -21.1544   17.7353 C   0  0  0  0  0  0  0  0  0  0  0  0
  -23.6509   -8.0958   20.4492 C   0  0  0  0  0  0  0  0  0  0  0  0
  -26.9423  -13.4735   20.5716 C   0  0  0  0  0  0  0  0  0  0  0  0
  -29.4567  -13.5250   20.1439 C   0  0  0  0  0  0  0  0  0  0  0  0
  -26.7936  -36.4732   25.5119 C   0  0  0  0  0  0  0  0  0  0  0  0
  -26.1131  -31.2408   20.4089 C   0  0  0  0  0  0  0  0  0  0  0  0
  -27.2504  -35.4218   24.6945 C   0  0  0  0  0  0  0  0  0  0  0  0
  -25.8890  -29.9593   20.9319 C   0  0  0  0  0  0  0  0  0  0  0  0
  -29.2286  -21.3938   19.0572 C   0  0  0  0  0  0  0  0  0  0  0  0
  -28.2668  -23.4842   17.4799 C   0  0  0  0  0  0  0  0  0  0  0  0
  -24.4076  -12.3124   20.4762 C   0  0  0  0  0  0  0  0  0  0  0  0
  -27.6283  -29.0763   19.4810 C   0  0  0  0  0  0  0  0  0  0  0  0
  -23.0592  -10.4134   20.7894 C   0  0  0  0  0  0  0  0  0  0  0  0
  -22.8334   -7.7302   21.5187 C   0  0  0  0  0  0  0  0  0  0  0  0
  -28.3722  -22.1996   16.9467 C   0  0  0  0  0  0  0  0  0  0  0  0
  -23.7638   -9.4374   20.0846 C   0  0  0  0  0  0  0  0  0  0  0  0
  -28.2512  -14.0740   20.6206 C   0  0  0  0  0  0  0  0  0  0  0  0
  -30.4036  -14.4793   20.4254 C   0  0  0  0  0  0  0  0  0  0  0  0
  -29.6989  -12.2651   19.5039 C   0  0  0  0  0  0  0  0  0  0  0  0
  -25.6977  -32.3457   23.3602 C   0  0  0  0  0  0  0  0  0  0  0  0
  -22.8685  -30.7755   23.1317 C   0  0  0  0  0  0  0  0  0  0  0  0
  -21.0439  -28.2912   21.6669 C   0  0  0  0  0  0  0  0  0  0  0  0
  -30.1314  -20.3995   21.1885 C   0  0  0  0  0  0  0  0  0  0  0  0
  -25.8581  -36.2291   26.6695 C   0  0  0  0  0  0  0  0  0  0  0  0
  -25.2867  -32.4085   20.8737 C   0  0  0  0  0  0  0  0  0  0  0  0
  -24.8482  -29.7058   21.9907 C   0  0  0  0  0  0  0  0  0  0  0  0
  -25.1358  -34.8862   26.5962 C   0  0  0  0  0  0  0  0  0  0  0  0
  -31.3609  -18.0062   23.5204 C   0  0  0  0  0  0  0  0  0  0  0  0
  -26.1176  -33.7699   26.2546 C   0  0  0  0  0  0  0  0  0  0  0  0
  -30.8178  -16.6755   22.9946 C   0  0  0  0  0  0  0  0  0  0  0  0
  -30.3622  -19.1449   23.3211 C   0  0  0  0  0  0  0  0  0  0  0  0
  -29.3207  -17.9698   21.4227 C   0  0  0  0  0  0  0  0  0  0  0  0
  -26.7612  -34.0020   24.8822 C   0  0  1  0  0  0  0  0  0  0  0  0
  -24.6849  -32.2004   22.2600 C   0  0  1  0  0  0  0  0  0  0  0  0
  -30.3174  -16.8054   21.5426 C   0  0  2  0  0  0  0  0  0  0  0  0
  -18.7722  -27.2260   21.7137 C   0  0  0  0  0  0  0  0  0  0  0  0
  -23.5945  -29.3471   25.7284 C   0  0  0  0  0  0  0  0  0  0  0  0
  -21.8081  -27.6675   25.2223 C   0  0  0  0  0  0  0  0  0  0  0  0
  -21.2039  -30.0634   25.5649 C   0  0  0  0  0  0  0  0  0  0  0  0
  -27.3891  -24.2784   15.2984 C   0  0  0  0  0  0  0  0  0  0  0  0
  -20.5306  -28.9892   18.8370 C   0  0  0  0  0  0  0  0  0  0  0  0
  -28.9550  -26.6485   17.1590 C   0  0  0  0  0  0  0  0  0  0  0  0
  -27.6462  -25.8718   17.2072 C   0  0  0  0  0  0  0  0  0  0  0  0
  -28.8189  -28.0728   17.6835 C   0  0  0  0  0  0  0  0  0  1  0  0
  -22.3941  -29.3765   23.4427 C   0  0  1  0  0  0  0  0  0  0  0  0
  -19.6499  -28.2856   21.0660 C   0  0  2  0  0  0  0  0  0  0  0  0
  -22.2712  -29.1184   24.9710 C   0  0  0  0  0  0  0  0  0  0  0  0
  -28.4146  -15.2832   21.1639 N   0  0  0  0  0  0  0  0  0  0  0  0
  -29.7338  -15.5019   21.0303 N   0  0  0  0  0  0  0  0  0  0  0  0
  -24.0702  -30.8807   22.4170 N   0  0  0  0  0  0  0  0  0  0  0  0
  -29.9359  -19.2098   21.9214 N   0  0  0  0  0  0  0  0  0  0  0  0
  -31.7354  -14.5351   20.2121 N   0  0  0  0  0  0  0  0  0  0  0  0
  -28.6137  -11.4041   19.2913 N   0  0  0  0  0  0  0  0  0  0  0  0
  -29.7167  -20.3323   19.8588 N   0  0  0  0  0  0  0  0  0  0  0  0
  -25.8419  -33.6390   23.8250 N   0  0  0  0  0  0  0  0  0  0  0  0
  -21.1494  -29.1939   22.7039 N   0  0  0  0  0  0  0  0  0  0  0  0
  -27.7818  -24.5391   16.6878 N   0  0  3  0  0  0  0  0  0  0  0  0
  -19.7176  -28.0097   19.6030 N   0  3  0  0  0  0  0  0  0  0  0  0
  -30.8465  -11.9063   19.1462 O   0  0  0  0  0  0  0  0  0  0  0  0
  -26.3025  -31.3573   23.7591 O   0  0  0  0  0  0  0  0  0  0  0  0
  -22.1940  -31.7393   23.5029 O   0  0  0  0  0  0  0  0  0  0  0  0
  -21.9476  -27.5645   21.2598 O   0  0  0  0  0  0  0  0  0  0  0  0
  -30.6549  -21.3952   21.6951 O   0  0  0  0  0  0  0  0  0  0  0  0
  -23.1709  -11.7458   20.4291 O   0  0  0  0  0  0  0  0  0  0  0  0
  -28.3659  -28.0230   19.0357 O   0  0  0  0  0  0  0  0  0  1  0  0
  -22.7261   -6.4420   21.8699 F   0  0  0  0  0  0  0  0  0  0  0  0
  -28.0124  -21.9582   15.6780 F   0  0  0  0  0  0  0  0  0  0  0  0
  -24.5515   -9.7828   19.0570 F   0  0  0  0  0  0  0  0  0  0  0  0
  1  2  1  0  0  0  0
  1  5  2  0  0  0  0
  2  6  2  0  0  0  0
  3 10  2  0  0  0  0
  3 18  1  0  0  0  0
  4 11  1  0  0  0  0
  4 18  2  0  0  0  0
  5 20  1  0  0  0  0
  6 22  1  0  0  0  0
  7 12  2  0  0  0  0
  7 21  1  0  0  0  0
  8  9  2  0  0  0  0
  8 24  1  0  0  0  0
  9 25  1  0  0  0  0
 10 26  1  0  0  0  0
 11 26  2  0  0  0  0
 12 27  1  0  0  0  0
 13 14  2  0  0  0  0
 13 28  1  0  0  0  0
 14 29  1  0  0  0  0
 15 23  1  0  0  0  0
 15 27  2  0  0  0  0
 16 24  2  0  0  0  0
 16 30  1  0  0  0  0
 17 29  2  0  0  0  0
 17 31  1  0  0  0  0
 18 32  1  0  0  0  0
 19 32  1  0  0  0  0
 19 33  2  0  0  0  0
 19 34  1  0  0  0  0
 20 22  2  0  0  0  0
 20 39  1  0  0  0  0
 21 23  2  0  0  0  0
 21 40  1  0  0  0  0
 22 48  1  0  0  0  0
 23 41  1  0  0  0  0
 24 69  1  0  0  0  0
 25 30  2  0  0  0  0
 25 72  1  0  0  0  0
 26 79  1  0  0  0  0
 27 80  1  0  0  0  0
 28 31  2  0  0  0  0
 28 79  1  0  0  0  0
 29 81  1  0  0  0  0
 30 82  1  0  0  0  0
 31 83  1  0  0  0  0
 32 63  2  0  0  0  0
 33 64  1  0  0  0  0
 33 67  1  0  0  0  0
 34 68  1  0  0  0  0
 34 74  2  0  0  0  0
 35 49  1  0  0  0  0
 35 70  1  0  0  0  0
 35 75  2  0  0  0  0
 36 60  1  0  0  0  0
 36 65  1  0  0  0  0
 36 76  2  0  0  0  0
 37 61  1  0  0  0  0
 37 71  1  0  0  0  0
 37 77  2  0  0  0  0
 38 66  1  0  0  0  0
 38 69  1  0  0  0  0
 38 78  2  0  0  0  0
 39 42  1  0  0  0  0
 40 49  1  0  0  0  0
 41 65  1  0  0  0  0
 42 44  1  0  0  0  0
 43 45  1  0  0  0  0
 43 46  1  0  0  0  0
 44 48  1  0  0  0  0
 45 50  1  0  0  0  0
 46 66  1  0  0  0  0
 47 50  1  0  0  0  0
 47 66  1  0  0  0  0
 48 70  1  0  0  0  0
 49 65  1  0  0  0  0
 50 64  1  0  0  0  0
 51 61  1  0  0  0  0
 52 62  1  0  0  0  0
 53 62  1  0  0  0  0
 54 62  1  0  0  0  0
 55 72  1  0  0  0  0
 56 73  1  0  0  0  0
 57 58  1  0  0  0  0
 57 59  1  0  0  0  0
 58 72  1  0  0  0  0
 59 80  1  0  0  0  0
 60 62  1  0  0  0  0
 60 71  1  0  0  0  0
 61 73  1  0  0  0  0
 63 64  1  0  0  0  0
M  CHG  1  73   1
M  ISO  4  38 100  59 101  69 100  80 101
M  END
> <Batch ID>
0018

> <Smiles>
CNC(C)C(=O)NC(C(=O)N1Cc2cc([101O:1][101CH2:1]CCN(C)c3ccc([100NH:0][100C:0](=O)N4CCCC(n5nc(-c6ccc(Oc7ccc(F)cc7F)cc6)c(C(N)=O)c5N)C4)cc3F)ccc2CC1C(=O)NC1CCCc2ccccc21)C(C)(C)C

> <Shape>
0.329

> <Color>
0.096

> <Negative vol penalty>
0.000

$$$$

  -OEChem-04042321033D

 84 92  0     1  0  0  0  0  0999 V2000
  -28.6328  -31.7384   27.8545 C   0  0  0  0  0  0  0  0  0  0  0  0
  -29.2586  -31.5427   26.6275 C   0  0  0  0  0  0  0  0  0  0  0  0
  -24.3558   -9.7797   21.4945 C   0  0  0  0  0  0  0  0  0  0  0  0
  -24.9048  -10.9771   23.5197 C   0  0  0  0  0  0  0  0  0  0  0  0
  -27.6799  -30.8249   28.3033 C   0  0  0  0  0  0  0  0  0  0  0  0
  -28.9325  -30.4327   25.8490 C   0  0  0  0  0  0  0  0  0  0  0  0
  -28.3312  -28.3938   19.0081 C   0  0  0  0  0  0  0  0  0  0  0  0
  -29.4112  -17.7254   19.4980 C   0  0  0  0  0  0  0  0  0  0  0  0
  -29.3972  -18.9564   18.8422 C   0  0  0  0  0  0  0  0  0  0  0  0
  -24.0561   -8.6442   22.2470 C   0  0  0  0  0  0  0  0  0  0  0  0
  -24.6050   -9.8416   24.2724 C   0  0  0  0  0  0  0  0  0  0  0  0
  -28.7667  -27.3935   18.1401 C   0  0  0  0  0  0  0  0  0  0  0  0
  -21.4930   -7.5171   24.1426 C   0  0  0  0  0  0  0  0  0  0  0  0
  -20.3246   -6.8222   23.8302 C   0  0  0  0  0  0  0  0  0  0  0  0
  -27.0480  -25.9242   18.9807 C   0  0  0  0  0  0  0  0  0  0  0  0
  -29.7298  -18.8542   21.6102 C   0  0  0  0  0  0  0  0  0  0  0  0
  -21.6285   -4.8453   23.3516 C   0  0  0  0  0  0  0  0  0  0  0  0
  -24.7802  -10.9461   22.1308 C   0  0  0  0  0  0  0  0  0  0  0  0
  -24.2078  -13.1514   20.9832 C   0  0  0  0  0  0  0  0  0  0  0  0
  -27.3349  -29.7083   27.5255 C   0  0  0  0  0  0  0  0  0  0  0  0
  -27.2559  -28.1628   19.8781 C   0  0  0  0  0  0  0  0  0  0  0  0
  -27.9750  -29.5027   26.2884 C   0  0  0  0  0  0  0  0  0  0  0  0
  -26.5991  -26.9241   19.8569 C   0  0  0  0  0  0  0  0  0  0  0  0
  -29.5775  -17.6743   20.8820 C   0  0  0  0  0  0  0  0  0  0  0  0
  -29.5495  -20.1363   19.5704 C   0  0  0  0  0  0  0  0  0  0  0  0
  -24.1807   -8.6751   23.6360 C   0  0  0  0  0  0  0  0  0  0  0  0
  -28.1269  -26.1575   18.1283 C   0  0  0  0  0  0  0  0  0  0  0  0
  -22.7291   -6.8762   24.0594 C   0  0  0  0  0  0  0  0  0  0  0  0
  -20.3924   -5.4863   23.4347 C   0  0  0  0  0  0  0  0  0  0  0  0
  -29.7158  -20.0852   20.9544 C   0  0  0  0  0  0  0  0  0  0  0  0
  -22.7969   -5.5403   23.6640 C   0  0  0  0  0  0  0  0  0  0  0  0
  -25.0905  -12.1193   21.3539 C   0  0  0  0  0  0  0  0  0  0  0  0
  -24.9835  -14.0229   20.2586 C   0  0  0  0  0  0  0  0  0  0  0  0
  -22.8114  -13.3083   21.2685 C   0  0  0  0  0  0  0  0  0  0  0  0
  -26.8941  -28.1224   23.0358 C   0  0  0  0  0  0  0  0  0  0  0  0
  -23.7606  -27.7567   22.2813 C   0  0  0  0  0  0  0  0  0  0  0  0
  -21.4274  -26.7508   20.0029 C   0  0  0  0  0  0  0  0  0  0  0  0
  -31.0718  -14.6996   20.3737 C   0  0  0  0  0  0  0  0  0  0  0  0
  -26.3334  -28.7230   28.0739 C   0  0  0  0  0  0  0  0  0  0  0  0
  -26.7812  -29.2612   20.7894 C   0  0  0  0  0  0  0  0  0  0  0  0
  -25.4270  -26.6325   20.7567 C   0  0  0  0  0  0  0  0  0  0  0  0
  -25.7725  -27.7734   27.0185 C   0  0  0  0  0  0  0  0  0  0  0  0
  -28.8530  -14.1704   17.4585 C   0  0  0  0  0  0  0  0  0  0  0  0
  -26.8974  -27.2076   26.1576 C   0  0  0  0  0  0  0  0  0  0  0  0
  -27.5881  -13.6037   18.1012 C   0  0  0  0  0  0  0  0  0  0  0  0
  -30.0998  -13.8410   18.2738 C   0  0  0  0  0  0  0  0  0  0  0  0
  -28.7515  -13.6956   20.3414 C   0  0  0  0  0  0  0  0  0  0  0  0
  -27.6303  -28.3241   25.4040 C   0  0  1  0  0  0  0  0  0  0  0  0
  -26.0046  -28.7428   21.9959 C   0  0  1  0  0  0  0  0  0  0  0  0
  -27.4717  -14.0495   19.5692 C   0  0  2  0  0  0  0  0  0  0  0  0
  -18.9471  -26.5384   19.6859 C   0  0  0  0  0  0  0  0  0  0  0  0
  -23.7442  -25.2917   24.0795 C   0  0  0  0  0  0  0  0  0  0  0  0
  -21.5934  -24.6034   22.9986 C   0  0  0  0  0  0  0  0  0  0  0  0
  -21.7160  -26.7413   24.2781 C   0  0  0  0  0  0  0  0  0  0  0  0
  -31.9881  -16.1595   22.1368 C   0  0  0  0  0  0  0  0  0  0  0  0
  -21.4466  -28.6042   17.6956 C   0  0  0  0  0  0  0  0  0  0  0  0
  -29.5923  -16.3582   21.5831 C   0  0  0  0  0  0  0  0  0  0  0  0
  -29.4603  -22.9676   17.0817 C   0  0  0  0  0  0  0  0  0  0  0  0
  -29.3689  -21.5023   17.4902 C   0  0  0  0  0  0  0  0  0  0  0  0
  -28.3708  -23.8292   17.7091 C   0  0  0  0  0  0  0  0  0  1  0  0
  -22.8529  -26.5778   22.0258 C   0  0  1  0  0  0  0  0  0  0  0  0
  -20.1680  -27.4232   19.4869 C   0  0  2  0  0  0  0  0  0  0  0  0
  -22.4999  -25.8081   23.3298 C   0  0  0  0  0  0  0  0  0  0  0  0
  -26.3320  -12.3154   20.9020 N   0  0  0  0  0  0  0  0  0  0  0  0
  -26.2349  -13.4808   20.2398 N   0  0  0  0  0  0  0  0  0  0  0  0
  -25.0042  -27.7364   21.6343 N   0  0  0  0  0  0  0  0  0  0  0  0
  -29.9454  -14.2360   19.6743 N   0  0  0  0  0  0  0  0  0  0  0  0
  -24.7105  -15.1924   19.6421 N   0  0  0  0  0  0  0  0  0  0  0  0
  -22.1691  -12.3196   22.0262 N   0  0  0  0  0  0  0  0  0  0  0  0
  -29.5353  -21.3584   18.9163 N   0  0  0  0  0  0  0  0  0  0  0  0
  -26.8536  -28.7575   24.2624 N   0  0  0  0  0  0  0  0  0  0  0  0
  -21.6952  -27.1017   21.3092 N   0  0  0  0  0  0  0  0  0  0  0  0
  -30.8505  -15.6403   21.3909 N   0  0  0  0  0  0  0  0  0  0  0  0
  -20.2993  -27.7229   18.0330 N   0  3  0  0  0  0  0  0  0  0  0  0
  -22.1491  -14.2877   20.8494 O   0  0  0  0  0  0  0  0  0  0  0  0
  -27.5663  -27.1392   22.7473 O   0  0  0  0  0  0  0  0  0  0  0  0
  -23.3772  -28.6657   23.0219 O   0  0  0  0  0  0  0  0  0  0  0  0
  -22.1038  -25.9875   19.3169 O   0  0  0  0  0  0  0  0  0  0  0  0
  -32.2113  -14.3028   20.0979 O   0  0  0  0  0  0  0  0  0  0  0  0
  -23.8881   -7.5673   24.3707 O   0  0  0  0  0  0  0  0  0  0  0  0
  -28.5504  -25.1791   17.2826 O   0  0  0  0  0  0  0  0  0  1  0  0
  -19.2702   -4.8186   23.1363 F   0  0  0  0  0  0  0  0  0  0  0  0
  -29.8629  -21.2131   21.6641 F   0  0  0  0  0  0  0  0  0  0  0  0
  -23.9814   -4.9189   23.5833 F   0  0  0  0  0  0  0  0  0  0  0  0
  1  2  1  0  0  0  0
  1  5  2  0  0  0  0
  2  6  2  0  0  0  0
  3 10  2  0  0  0  0
  3 18  1  0  0  0  0
  4 11  1  0  0  0  0
  4 18  2  0  0  0  0
  5 20  1  0  0  0  0
  6 22  1  0  0  0  0
  7 12  2  0  0  0  0
  7 21  1  0  0  0  0
  8  9  2  0  0  0  0
  8 24  1  0  0  0  0
  9 25  1  0  0  0  0
 10 26  1  0  0  0  0
 11 26  2  0  0  0  0
 12 27  1  0  0  0  0
 13 14  2  0  0  0  0
 13 28  1  0  0  0  0
 14 29  1  0  0  0  0
 15 23  1  0  0  0  0
 15 27  2  0  0  0  0
 16 24  2  0  0  0  0
 16 30  1  0  0  0  0
 17 29  2  0  0  0  0
 17 31  1  0  0  0  0
 18 32  1  0  0  0  0
 19 32  1  0  0  0  0
 19 33  2  0  0  0  0
 19 34  1  0  0  0  0
 20 22  2  0  0  0  0
 20 39  1  0  0  0  0
 21 23  2  0  0  0  0
 21 40  1  0  0  0  0
 22 48  1  0  0  0  0
 23 41  1  0  0  0  0
 24 57  1  0  0  0  0
 25 30  2  0  0  0  0
 25 70  1  0  0  0  0
 26 80  1  0  0  0  0
 27 81  1  0  0  0  0
 28 31  2  0  0  0  0
 28 80  1  0  0  0  0
 29 82  1  0  0  0  0
 30 83  1  0  0  0  0
 31 84  1  0  0  0  0
 32 64  2  0  0  0  0
 33 65  1  0  0  0  0
 33 68  1  0  0  0  0
 34 69  1  0  0  0  0
 34 75  2  0  0  0  0
 35 49  1  0  0  0  0
 35 71  1  0  0  0  0
 35 76  2  0  0  0  0
 36 61  1  0  0  0  0
 36 66  1  0  0  0  0
 36 77  2  0  0  0  0
 37 62  1  0  0  0  0
 37 72  1  0  0  0  0
 37 78  2  0  0  0  0
 38 67  1  0  0  0  0
 38 73  1  0  0  0  0
 38 79  2  0  0  0  0
 39 42  1  0  0  0  0
 40 49  1  0  0  0  0
 41 66  1  0  0  0  0
 42 44  1  0  0  0  0
 43 45  1  0  0  0  0
 43 46  1  0  0  0  0
 44 48  1  0  0  0  0
 45 50  1  0  0  0  0
 46 67  1  0  0  0  0
 47 50  1  0  0  0  0
 47 67  1  0  0  0  0
 48 71  1  0  0  0  0
 49 66  1  0  0  0  0
 50 65  1  0  0  0  0
 51 62  1  0  0  0  0
 52 63  1  0  0  0  0
 53 63  1  0  0  0  0
 54 63  1  0  0  0  0
 55 73  1  0  0  0  0
 56 74  1  0  0  0  0
 57 73  1  0  0  0  0
 58 59  1  0  0  0  0
 58 60  1  0  0  0  0
 59 70  1  0  0  0  0
 60 81  1  0  0  0  0
 61 63  1  0  0  0  0
 61 72  1  0  0  0  0
 62 74  1  0  0  0  0
 64 65  1  0  0  0  0
M  CHG  1  74   1
M  ISO  4  38 100  60 101  73 100  81 101
M  END
> <Batch ID>
0018

> <Smiles>
CNC(C)C(=O)NC(C(=O)N1Cc2cc([101O:1][101CH2:1]CCNc3ccc(C[100N:0](C)[100C:0](=O)N4CCCC(n5nc(-c6ccc(Oc7ccc(F)cc7F)cc6)c(C(N)=O)c5N)C4)cc3F)ccc2CC1C(=O)NC1CCCc2ccccc21)C(C)(C)C

> <Shape>
0.271

> <Color>
0.134

> <Negative vol penalty>
0.000

$$$$

  -OEChem-04042321033D

 84 92  0     1  0  0  0  0  0999 V2000
  -31.4236  -25.3022   17.9806 C   0  0  0  0  0  0  0  0  0  0  0  0
  -30.0554  -25.0846   18.1076 C   0  0  0  0  0  0  0  0  0  0  0  0
  -27.6019  -14.9096   19.6827 C   0  0  0  0  0  0  0  0  0  0  0  0
  -25.2173  -15.2028   19.4290 C   0  0  0  0  0  0  0  0  0  0  0  0
  -32.1076  -26.0220   18.9593 C   0  0  0  0  0  0  0  0  0  0  0  0
  -29.3706  -25.5858   19.2140 C   0  0  0  0  0  0  0  0  0  0  0  0
  -23.6239  -27.6992   19.3395 C   0  0  0  0  0  0  0  0  0  0  0  0
  -20.2889  -22.4991   21.9390 C   0  0  0  0  0  0  0  0  0  0  0  0
  -21.5442  -22.1818   21.4200 C   0  0  0  0  0  0  0  0  0  0  0  0
  -27.3979  -13.5855   20.0709 C   0  0  0  0  0  0  0  0  0  0  0  0
  -25.0132  -13.8787   19.8171 C   0  0  0  0  0  0  0  0  0  0  0  0
  -22.4178  -27.1148   19.7235 C   0  0  0  0  0  0  0  0  0  0  0  0
  -24.9422  -12.1095   22.6974 C   0  0  0  0  0  0  0  0  0  0  0  0
  -23.9289  -11.8538   23.6211 C   0  0  0  0  0  0  0  0  0  0  0  0
  -22.6385  -28.1101   21.9097 C   0  0  0  0  0  0  0  0  0  0  0  0
  -22.5923  -23.5189   23.1378 C   0  0  0  0  0  0  0  0  0  0  0  0
  -22.8248  -10.4263   22.0148 C   0  0  0  0  0  0  0  0  0  0  0  0
  -26.5116  -15.7183   19.3618 C   0  0  0  0  0  0  0  0  0  0  0  0
  -26.9200  -17.5684   17.6536 C   0  0  0  0  0  0  0  0  0  0  0  0
  -31.4290  -26.5406   20.0735 C   0  0  0  0  0  0  0  0  0  0  0  0
  -24.3531  -28.4858   20.2427 C   0  0  0  0  0  0  0  0  0  0  0  0
  -30.0464  -26.3121   20.2093 C   0  0  0  0  0  0  0  0  0  0  0  0
  -23.8524  -28.7055   21.5339 C   0  0  0  0  0  0  0  0  0  0  0  0
  -20.1854  -23.3264   23.0573 C   0  0  0  0  0  0  0  0  0  0  0  0
  -22.6959  -22.6917   22.0194 C   0  0  0  0  0  0  0  0  0  0  0  0
  -26.1035  -13.0700   20.1381 C   0  0  0  0  0  0  0  0  0  0  0  0
  -21.9263  -27.3178   21.0097 C   0  0  0  0  0  0  0  0  0  0  0  0
  -24.8968  -11.5237   21.4323 C   0  0  0  0  0  0  0  0  0  0  0  0
  -22.8702  -11.0122   23.2799 C   0  0  0  0  0  0  0  0  0  0  0  0
  -21.3370  -23.8363   23.6567 C   0  0  0  0  0  0  0  0  0  0  0  0
  -23.8381  -10.6820   21.0910 C   0  0  0  0  0  0  0  0  0  0  0  0
  -26.7217  -17.0864   18.9613 C   0  0  0  0  0  0  0  0  0  0  0  0
  -27.0696  -18.9251   17.8068 C   0  0  0  0  0  0  0  0  0  0  0  0
  -26.9647  -16.8538   16.4115 C   0  0  0  0  0  0  0  0  0  0  0  0
  -27.2372  -28.2928   21.5650 C   0  0  0  0  0  0  0  0  0  0  0  0
  -26.4726  -31.2233   22.7271 C   0  0  0  0  0  0  0  0  0  0  0  0
  -24.0370  -33.4516   23.5926 C   0  0  0  0  0  0  0  0  0  0  0  0
  -25.2124  -22.7931   21.9655 C   0  0  0  0  0  0  0  0  0  0  0  0
  -32.2197  -27.2719   21.1293 C   0  0  0  0  0  0  0  0  0  0  0  0
  -25.6392  -29.1311   19.8045 C   0  0  0  0  0  0  0  0  0  0  0  0
  -24.5868  -29.5583   22.5348 C   0  0  0  0  0  0  0  0  0  0  0  0
  -31.3522  -28.0903   22.0822 C   0  0  0  0  0  0  0  0  0  0  0  0
  -28.5768  -22.1933   20.9662 C   0  0  0  0  0  0  0  0  0  0  0  0
  -30.1598  -27.2670   22.5590 C   0  0  0  0  0  0  0  0  0  0  0  0
  -28.4999  -20.8625   20.2144 C   0  0  0  0  0  0  0  0  0  0  0  0
  -27.6240  -22.2261   22.1599 C   0  0  0  0  0  0  0  0  0  0  0  0
  -26.1513  -20.5612   21.0978 C   0  0  0  0  0  0  0  0  0  0  0  0
  -29.2639  -26.8611   21.3825 C   0  0  1  0  0  0  0  0  0  0  0  0
  -26.5543  -29.4920   20.9705 C   0  0  1  0  0  0  0  0  0  0  0  0
  -27.0459  -20.5050   19.8487 C   0  0  2  0  0  0  0  0  0  0  0  0
  -23.7193  -35.7498   24.5490 C   0  0  0  0  0  0  0  0  0  0  0  0
  -27.1315  -30.1544   25.5080 C   0  0  0  0  0  0  0  0  0  0  0  0
  -25.9157  -32.1180   26.4746 C   0  0  0  0  0  0  0  0  0  0  0  0
  -27.9417  -32.4785   25.0647 C   0  0  0  0  0  0  0  0  0  0  0  0
  -22.6667  -34.4053   21.1489 C   0  0  0  0  0  0  0  0  0  0  0  0
  -17.5366  -25.5063   24.6734 C   0  0  0  0  0  0  0  0  0  0  0  0
  -18.8333  -23.6636   23.6135 C   0  0  0  0  0  0  0  0  0  0  0  0
  -18.5027  -27.1272   22.1361 C   0  0  0  0  0  0  0  0  0  0  0  0
  -18.1654  -25.6497   22.2680 C   0  0  0  0  0  0  0  0  0  0  0  0
  -19.9758  -27.4426   22.3646 C   0  0  0  0  0  0  0  0  0  1  0  0
  -25.7871  -31.7345   23.9711 C   0  0  1  0  0  0  0  0  0  0  0  0
  -23.8634  -34.9266   23.2785 C   0  0  2  0  0  0  0  0  0  0  0  0
  -26.6809  -31.6037   25.2366 C   0  0  0  0  0  0  0  0  0  0  0  0
  -26.7432  -18.0578   19.8778 N   0  0  0  0  0  0  0  0  0  0  0  0
  -26.9567  -19.1639   19.1449 N   0  0  0  0  0  0  0  0  0  0  0  0
  -25.8429  -30.1624   22.0608 N   0  0  0  0  0  0  0  0  0  0  0  0
  -26.2649  -21.8816   21.7369 N   0  0  0  0  0  0  0  0  0  0  0  0
  -27.2855  -19.9252   16.9261 N   0  0  0  0  0  0  0  0  0  0  0  0
  -26.7921  -15.4631   16.4341 N   0  0  0  0  0  0  0  0  0  0  0  0
  -23.9709  -22.3710   21.4911 N   0  0  0  0  0  0  0  0  0  0  0  0
  -28.4412  -27.9763   20.9654 N   0  0  0  0  0  0  0  0  0  0  0  0
  -25.3678  -33.0999   23.6743 N   0  0  0  0  0  0  0  0  0  0  0  0
  -22.6491  -35.1384   22.4409 N   0  3  0  0  0  0  0  0  0  0  0  0
  -18.5446  -25.1456   23.6088 N   0  3  1  0  0  0  0  0  0  0  0  0
  -27.1686  -17.4293   15.3157 O   0  0  0  0  0  0  0  0  0  0  0  0
  -26.7114  -27.6996   22.4996 O   0  0  0  0  0  0  0  0  0  0  0  0
  -27.5242  -31.7506   22.3560 O   0  0  0  0  0  0  0  0  0  0  0  0
  -23.0871  -32.6885   23.7535 O   0  0  0  0  0  0  0  0  0  0  0  0
  -25.4038  -23.8807   22.5155 O   0  0  0  0  0  0  0  0  0  0  0  0
  -25.9040  -11.7779   20.5166 O   0  0  0  0  0  0  0  0  0  0  0  0
  -20.7496  -26.7481   21.3873 O   0  0  0  0  0  0  0  0  0  1  0  0
  -21.8979  -10.7655   24.1676 F   0  0  0  0  0  0  0  0  0  0  0  0
  -21.2477  -24.6318   24.7316 F   0  0  0  0  0  0  0  0  0  0  0  0
  -23.7897  -10.1154   19.8776 F   0  0  0  0  0  0  0  0  0  0  0  0
  1  2  1  0  0  0  0
  1  5  2  0  0  0  0
  2  6  2  0  0  0  0
  3 10  2  0  0  0  0
  3 18  1  0  0  0  0
  4 11  1  0  0  0  0
  4 18  2  0  0  0  0
  5 20  1  0  0  0  0
  6 22  1  0  0  0  0
  7 12  2  0  0  0  0
  7 21  1  0  0  0  0
  8  9  2  0  0  0  0
  8 24  1  0  0  0  0
  9 25  1  0  0  0  0
 10 26  1  0  0  0  0
 11 26  2  0  0  0  0
 12 27  1  0  0  0  0
 13 14  2  0  0  0  0
 13 28  1  0  0  0  0
 14 29  1  0  0  0  0
 15 23  1  0  0  0  0
 15 27  2  0  0  0  0
 16 25  2  0  0  0  0
 16 30  1  0  0  0  0
 17 29  2  0  0  0  0
 17 31  1  0  0  0  0
 18 32  1  0  0  0  0
 19 32  1  0  0  0  0
 19 33  2  0  0  0  0
 19 34  1  0  0  0  0
 20 22  2  0  0  0  0
 20 39  1  0  0  0  0
 21 23  2  0  0  0  0
 21 40  1  0  0  0  0
 22 48  1  0  0  0  0
 23 41  1  0  0  0  0
 24 30  2  0  0  0  0
 24 57  1  0  0  0  0
 25 70  1  0  0  0  0
 26 80  1  0  0  0  0
 27 81  1  0  0  0  0
 28 31  2  0  0  0  0
 28 80  1  0  0  0  0
 29 82  1  0  0  0  0
 30 83  1  0  0  0  0
 31 84  1  0  0  0  0
 32 64  2  0  0  0  0
 33 65  1  0  0  0  0
 33 68  1  0  0  0  0
 34 69  1  0  0  0  0
 34 75  2  0  0  0  0
 35 49  1  0  0  0  0
 35 71  1  0  0  0  0
 35 76  2  0  0  0  0
 36 61  1  0  0  0  0
 36 66  1  0  0  0  0
 36 77  2  0  0  0  0
 37 62  1  0  0  0  0
 37 72  1  0  0  0  0
 37 78  2  0  0  0  0
 38 67  1  0  0  0  0
 38 70  1  0  0  0  0
 38 79  2  0  0  0  0
 39 42  1  0  0  0  0
 40 49  1  0  0  0  0
 41 66  1  0  0  0  0
 42 44  1  0  0  0  0
 43 45  1  0  0  0  0
 43 46  1  0  0  0  0
 44 48  1  0  0  0  0
 45 50  1  0  0  0  0
 46 67  1  0  0  0  0
 47 50  1  0  0  0  0
 47 67  1  0  0  0  0
 48 71  1  0  0  0  0
 49 66  1  0  0  0  0
 50 65  1  0  0  0  0
 51 62  1  0  0  0  0
 52 63  1  0  0  0  0
 53 63  1  0  0  0  0
 54 63  1  0  0  0  0
 55 73  1  0  0  0  0
 56 74  1  0  0  0  0
 57 74  1  0  0  0  0
 58 59  1  0  0  0  0
 58 60  1  0  0  0  0
 59 74  1  0  0  0  0
 60 81  1  0  0  0  0
 61 63  1  0  0  0  0
 61 72  1  0  0  0  0
 62 73  1  0  0  0  0
 64 65  1  0  0  0  0
M  CHG  2  73   1  74   1
M  ISO  4  38 100  60 101  70 100  81 101
M  END
> <Batch ID>
0018

> <Smiles>
CNC(C)C(=O)NC(C(=O)N1Cc2cc([101O:1][101CH2:1]CCN(C)Cc3ccc([100NH:0][100C:0](=O)N4CCCC(n5nc(-c6ccc(Oc7ccc(F)cc7F)cc6)c(C(N)=O)c5N)C4)cc3F)ccc2CC1C(=O)NC1CCCc2ccccc21)C(C)(C)C

> <Shape>
0.275

> <Color>
0.062

> <Negative vol penalty>
0.000

$$$$

  -OEChem-04042321033D

 87 96  0     1  0  0  0  0  0999 V2000
  -30.4816  -36.4308   14.9216 C   0  0  0  0  0  0  0  0  0  0  0  0
  -30.5158  -35.0546   15.1221 C   0  0  0  0  0  0  0  0  0  0  0  0
  -24.2647   -9.3064   22.3755 C   0  0  0  0  0  0  0  0  0  0  0  0
  -24.0338   -9.2418   19.9714 C   0  0  0  0  0  0  0  0  0  0  0  0
  -30.1729  -37.2812   15.9825 C   0  0  0  0  0  0  0  0  0  0  0  0
  -30.2422  -34.5280   16.3840 C   0  0  0  0  0  0  0  0  0  0  0  0
  -27.4000  -29.2491   17.6332 C   0  0  0  0  0  0  0  0  0  0  0  0
  -31.2047  -20.5105   20.1928 C   0  0  0  0  0  0  0  0  0  0  0  0
  -30.7747  -21.7700   19.7753 C   0  0  0  0  0  0  0  0  0  0  0  0
  -23.7515   -8.0121   22.4596 C   0  0  0  0  0  0  0  0  0  0  0  0
  -23.5206   -7.9476   20.0555 C   0  0  0  0  0  0  0  0  0  0  0  0
  -27.8778  -27.9827   17.9674 C   0  0  0  0  0  0  0  0  0  0  0  0
  -22.1655   -4.8590   23.3348 C   0  0  0  0  0  0  0  0  0  0  0  0
  -21.2034   -4.6035   24.3119 C   0  0  0  0  0  0  0  0  0  0  0  0
  -27.5714  -28.4909   20.3056 C   0  0  0  0  0  0  0  0  0  0  0  0
  -30.3528  -19.5424   18.1497 C   0  0  0  0  0  0  0  0  0  0  0  0
  -19.7560   -6.2650   23.3212 C   0  0  0  0  0  0  0  0  0  0  0  0
  -24.4059   -9.9213   21.1314 C   0  0  0  0  0  0  0  0  0  0  0  0
  -24.4025  -12.4237   21.6271 C   0  0  0  0  0  0  0  0  0  0  0  0
  -29.8860  -36.7643   17.2557 C   0  0  0  0  0  0  0  0  0  0  0  0
  -27.0138  -30.1514   18.6348 C   0  0  0  0  0  0  0  0  0  0  0  0
  -29.9307  -35.3724   17.4632 C   0  0  0  0  0  0  0  0  0  0  0  0
  -27.0865  -29.7672   19.9813 C   0  0  0  0  0  0  0  0  0  0  0  0
  -30.9938  -19.3967   19.3799 C   0  0  0  0  0  0  0  0  0  0  0  0
  -30.1336  -21.9157   18.5451 C   0  0  0  0  0  0  0  0  0  0  0  0
  -23.3794   -7.3327   21.2996 C   0  0  0  0  0  0  0  0  0  0  0  0
  -27.9663  -27.6045   19.3039 C   0  0  0  0  0  0  0  0  0  0  0  0
  -21.9229   -5.8177   22.3510 C   0  0  0  0  0  0  0  0  0  0  0  0
  -19.9987   -5.3064   24.3051 C   0  0  0  0  0  0  0  0  0  0  0  0
  -29.9227  -20.8019   17.7322 C   0  0  0  0  0  0  0  0  0  0  0  0
  -20.7182   -6.5206   22.3442 C   0  0  0  0  0  0  0  0  0  0  0  0
  -24.9354  -11.2584   21.0439 C   0  0  0  0  0  0  0  0  0  0  0  0
  -25.2673  -13.4223   21.2508 C   0  0  0  0  0  0  0  0  0  0  0  0
  -23.2307  -12.5886   22.4366 C   0  0  0  0  0  0  0  0  0  0  0  0
  -30.4265  -15.2535   20.6973 C   0  0  0  0  0  0  0  0  0  0  0  0
  -28.0000  -33.0261   19.5657 C   0  0  0  0  0  0  0  0  0  0  0  0
  -25.4246  -32.8444   21.5295 C   0  0  0  0  0  0  0  0  0  0  0  0
  -29.3095  -24.1738   19.0888 C   0  0  0  0  0  0  0  0  0  0  0  0
  -23.1800  -30.8817   23.1899 C   0  0  0  0  0  0  0  0  0  0  0  0
  -29.6039  -37.7257   18.3829 C   0  0  0  0  0  0  0  0  0  0  0  0
  -26.4753  -31.5039   18.2566 C   0  0  0  0  0  0  0  0  0  0  0  0
  -26.6655  -30.6914   21.0935 C   0  0  0  0  0  0  0  0  0  0  0  0
  -28.9593  -37.0660   19.5993 C   0  0  0  0  0  0  0  0  0  0  0  0
  -29.0230  -13.4402   17.8744 C   0  0  0  0  0  0  0  0  0  0  0  0
  -29.6916  -35.7769   19.9582 C   0  0  0  0  0  0  0  0  0  0  0  0
  -27.8007  -12.7808   18.5119 C   0  0  0  0  0  0  0  0  0  0  0  0
  -32.6027  -16.4644   20.9411 C   0  0  0  0  0  0  0  0  0  0  0  0
  -30.1919  -13.5201   18.8529 C   0  0  0  0  0  0  0  0  0  0  0  0
  -32.0980  -17.9015   21.0597 C   0  0  0  0  0  0  0  0  0  0  0  0
  -31.2276  -16.9254   19.0191 C   0  0  0  0  0  0  0  0  0  0  0  0
  -28.6348  -13.5491   20.7762 C   0  0  0  0  0  0  0  0  0  0  0  0
  -29.6156  -34.7617   18.8115 C   0  0  1  0  0  0  0  0  0  0  0  0
  -31.6309  -15.8017   19.9743 C   0  0  2  0  0  0  0  0  0  0  0  0
  -26.5942  -32.5297   19.3795 C   0  0  1  0  0  0  0  0  0  0  0  0
  -27.4236  -13.4767   19.8315 C   0  0  2  0  0  0  0  0  0  0  0  0
  -21.2155  -31.0189   24.7452 C   0  0  0  0  0  0  0  0  0  0  0  0
  -27.3079  -33.4587   23.8503 C   0  0  0  0  0  0  0  0  0  0  0  0
  -25.5275  -32.6553   25.4165 C   0  0  0  0  0  0  0  0  0  0  0  0
  -25.1027  -34.6334   23.9573 C   0  0  0  0  0  0  0  0  0  0  0  0
  -29.6430  -23.5260   16.6752 C   0  0  0  0  0  0  0  0  0  0  0  0
  -21.3914  -29.5663   21.2331 C   0  0  0  0  0  0  0  0  0  0  0  0
  -28.8145  -25.5115   18.5582 C   0  0  0  0  0  0  0  0  0  1  0  0
  -25.1796  -32.3263   22.9262 C   0  0  1  0  0  0  0  0  0  0  0  0
  -21.6671  -30.9491   23.2947 C   0  0  2  0  0  0  0  0  0  0  0  0
  -25.7892  -33.2515   24.0169 C   0  0  0  0  0  0  0  0  0  0  0  0
  -26.0521  -11.4936   20.3498 N   0  0  0  0  0  0  0  0  0  0  0  0
  -26.2279  -12.8181   20.4943 N   0  0  0  0  0  0  0  0  0  0  0  0
  -31.4198  -18.1510   19.7927 N   0  0  3  0  0  0  0  0  0  0  0  0
  -29.7846  -14.1645   20.1072 N   0  0  0  0  0  0  0  0  0  0  0  0
  -26.1516  -32.0054   20.6731 N   0  0  0  0  0  0  0  0  0  0  0  0
  -25.2919  -14.7494   21.4965 N   0  0  0  0  0  0  0  0  0  0  0  0
  -22.0128  -12.8653   21.8006 N   0  0  0  0  0  0  0  0  0  0  0  0
  -28.3172  -34.1229   18.7872 N   0  0  0  0  0  0  0  0  0  0  0  0
  -23.7381  -32.1340   23.0432 N   0  0  0  0  0  0  0  0  0  0  0  0
  -29.6877  -23.2254   18.1145 N   0  0  0  0  0  0  0  0  0  0  0  0
  -21.0504  -29.7460   22.6678 N   0  3  0  0  0  0  0  0  0  0  0  0
  -23.2658  -12.5097   23.6881 O   0  0  0  0  0  0  0  0  0  0  0  0
  -30.0670  -15.7804   21.7534 O   0  0  0  0  0  0  0  0  0  0  0  0
  -28.7417  -32.4573   20.3582 O   0  0  0  0  0  0  0  0  0  0  0  0
  -24.9810  -33.9496   21.2080 O   0  0  0  0  0  0  0  0  0  0  0  0
  -29.3232  -23.9873   20.3081 O   0  0  0  0  0  0  0  0  0  0  0  0
  -23.8046  -29.8243   23.2374 O   0  0  0  0  0  0  0  0  0  0  0  0
  -22.8788   -6.0697   21.3812 O   0  0  0  0  0  0  0  0  0  0  0  0
  -28.4330  -26.3693   19.6330 O   0  0  0  0  0  0  0  0  0  1  0  0
  -19.0742   -5.0598   25.2425 F   0  0  0  0  0  0  0  0  0  0  0  0
  -29.3073  -20.9304   16.5481 F   0  0  0  0  0  0  0  0  0  0  0  0
  -20.4789   -7.4419   21.4009 F   0  0  0  0  0  0  0  0  0  0  0  0
  1  2  1  0  0  0  0
  1  5  2  0  0  0  0
  2  6  2  0  0  0  0
  3 10  2  0  0  0  0
  3 18  1  0  0  0  0
  4 11  1  0  0  0  0
  4 18  2  0  0  0  0
  5 20  1  0  0  0  0
  6 22  1  0  0  0  0
  7 12  2  0  0  0  0
  7 21  1  0  0  0  0
  8  9  2  0  0  0  0
  8 24  1  0  0  0  0
  9 25  1  0  0  0  0
 10 26  1  0  0  0  0
 11 26  2  0  0  0  0
 12 27  1  0  0  0  0
 13 14  2  0  0  0  0
 13 28  1  0  0  0  0
 14 29  1  0  0  0  0
 15 23  1  0  0  0  0
 15 27  2  0  0  0  0
 16 24  2  0  0  0  0
 16 30  1  0  0  0  0
 17 29  2  0  0  0  0
 17 31  1  0  0  0  0
 18 32  1  0  0  0  0
 19 32  1  0  0  0  0
 19 33  2  0  0  0  0
 19 34  1  0  0  0  0
 20 22  2  0  0  0  0
 20 40  1  0  0  0  0
 21 23  2  0  0  0  0
 21 41  1  0  0  0  0
 22 52  1  0  0  0  0
 23 42  1  0  0  0  0
 24 68  1  0  0  0  0
 25 30  2  0  0  0  0
 25 75  1  0  0  0  0
 26 83  1  0  0  0  0
 27 84  1  0  0  0  0
 28 31  2  0  0  0  0
 28 83  1  0  0  0  0
 29 85  1  0  0  0  0
 30 86  1  0  0  0  0
 31 87  1  0  0  0  0
 32 66  2  0  0  0  0
 33 67  1  0  0  0  0
 33 71  1  0  0  0  0
 34 72  1  0  0  0  0
 34 77  2  0  0  0  0
 35 53  1  0  0  0  0
 35 69  1  0  0  0  0
 35 78  2  0  0  0  0
 36 54  1  0  0  0  0
 36 73  1  0  0  0  0
 36 79  2  0  0  0  0
 37 63  1  0  0  0  0
 37 70  1  0  0  0  0
 37 80  2  0  0  0  0
 38 62  1  0  0  0  0
 38 75  1  0  0  0  0
 38 81  2  0  0  0  0
 39 64  1  0  0  0  0
 39 74  1  0  0  0  0
 39 82  2  0  0  0  0
 40 43  1  0  0  0  0
 41 54  1  0  0  0  0
 42 70  1  0  0  0  0
 43 45  1  0  0  0  0
 44 46  1  0  0  0  0
 44 48  1  0  0  0  0
 45 52  1  0  0  0  0
 46 55  1  0  0  0  0
 47 49  1  0  0  0  0
 47 53  1  0  0  0  0
 48 69  1  0  0  0  0
 49 68  1  0  0  0  0
 50 53  1  0  0  0  0
 50 68  1  0  0  0  0
 51 55  1  0  0  0  0
 51 69  1  0  0  0  0
 52 73  1  0  0  0  0
 54 70  1  0  0  0  0
 55 67  1  0  0  0  0
 56 64  1  0  0  0  0
 57 65  1  0  0  0  0
 58 65  1  0  0  0  0
 59 65  1  0  0  0  0
 60 75  1  0  0  0  0
 61 76  1  0  0  0  0
 62 84  1  0  0  0  0
 63 65  1  0  0  0  0
 63 74  1  0  0  0  0
 64 76  1  0  0  0  0
 66 67  1  0  0  0  0
M  CHG  1  76   1
M  ISO  4  35 100  53 100  62 101  84 101
M  END
> <Batch ID>
0018

> <Smiles>
CNC(C)C(=O)NC(C(=O)N1Cc2cc([101O:1][101CH2:1]C(=O)N(C)c3ccc(N4CC[100CH:0]([100C:0](=O)N5CCCC(n6nc(-c7ccc(Oc8ccc(F)cc8F)cc7)c(C(N)=O)c6N)C5)C4)cc3F)ccc2CC1C(=O)NC1CCCc2ccccc21)C(C)(C)C

> <Shape>
0.289

> <Color>
0.135

> <Negative vol penalty>
0.000

$$$$
