
  -OEChem-04042321053D

 90 99  0     1  0  0  0  0  0999 V2000
  -28.8785  -11.1155   19.3975 C   0  0  0  0  0  0  0  0  0  0  0  0
  -28.9491  -12.4827   19.1501 C   0  0  0  0  0  0  0  0  0  0  0  0
  -19.8402  -27.9757   23.8022 C   0  0  0  0  0  0  0  0  0  0  0  0
  -19.7294  -27.3355   21.4752 C   0  0  0  0  0  0  0  0  0  0  0  0
  -27.7051  -10.5598   19.9057 C   0  0  0  0  0  0  0  0  0  0  0  0
  -27.8458  -13.2949   19.4098 C   0  0  0  0  0  0  0  0  0  0  0  0
  -29.1066  -17.5791   21.7975 C   0  0  0  0  0  0  0  0  0  0  0  0
  -18.4471  -27.9684   23.8706 C   0  0  0  0  0  0  0  0  0  0  0  0
  -18.3362  -27.3282   21.5436 C   0  0  0  0  0  0  0  0  0  0  0  0
  -29.6654  -18.5972   21.0262 C   0  0  0  0  0  0  0  0  0  0  0  0
  -14.7570  -26.7895   21.2014 C   0  0  0  0  0  0  0  0  0  0  0  0
  -14.0842  -25.7137   20.6223 C   0  0  0  0  0  0  0  0  0  0  0  0
  -27.5243  -19.7057   20.9491 C   0  0  0  0  0  0  0  0  0  0  0  0
  -30.4440  -27.2419   16.4083 C   0  0  0  0  0  0  0  0  0  0  0  0
  -29.4267  -29.1327   17.5159 C   0  0  0  0  0  0  0  0  0  0  0  0
  -15.2353  -24.1945   22.1069 C   0  0  0  0  0  0  0  0  0  0  0  0
  -20.4814  -27.6593   22.6045 C   0  0  0  0  0  0  0  0  0  0  0  0
  -22.7902  -26.5900   22.7878 C   0  0  0  0  0  0  0  0  0  0  0  0
  -26.5902  -11.3671   20.1809 C   0  0  0  0  0  0  0  0  0  0  0  0
  -27.7476  -17.6112   22.1419 C   0  0  0  0  0  0  0  0  0  0  0  0
  -26.6559  -12.7493   19.9210 C   0  0  0  0  0  0  0  0  0  0  0  0
  -26.9513  -18.6882   21.7270 C   0  0  0  0  0  0  0  0  0  0  0  0
  -30.2702  -28.6205   16.5301 C   0  0  0  0  0  0  0  0  0  0  0  0
  -29.7742  -26.3754   17.2722 C   0  0  0  0  0  0  0  0  0  0  0  0
  -28.9307  -26.8876   18.2580 C   0  0  0  0  0  0  0  0  0  0  0  0
  -28.7569  -28.2663   18.3798 C   0  0  0  0  0  0  0  0  0  0  0  0
  -17.6951  -27.6446   22.7414 C   0  0  0  0  0  0  0  0  0  0  0  0
  -28.8736  -19.6592   20.5994 C   0  0  0  0  0  0  0  0  0  0  0  0
  -15.6690  -26.5679   22.2333 C   0  0  0  0  0  0  0  0  0  0  0  0
  -14.3233  -24.4162   21.0750 C   0  0  0  0  0  0  0  0  0  0  0  0
  -15.9081  -25.2704   22.6861 C   0  0  0  0  0  0  0  0  0  0  0  0
  -21.9205  -27.6672   22.5331 C   0  0  0  0  0  0  0  0  0  0  0  0
  -24.0462  -27.1073   22.5847 C   0  0  0  0  0  0  0  0  0  0  0  0
  -22.4896  -25.2421   23.1733 C   0  0  0  0  0  0  0  0  0  0  0  0
  -25.2426  -15.7416   21.5646 C   0  0  0  0  0  0  0  0  0  0  0  0
  -23.7497  -17.7711   23.6079 C   0  0  0  0  0  0  0  0  0  0  0  0
  -23.6296  -20.8621   25.0494 C   0  0  0  0  0  0  0  0  0  0  0  0
  -27.6373  -30.1550   19.6150 C   0  0  0  0  0  0  0  0  0  0  0  0
  -25.3277  -10.7140   20.6852 C   0  0  0  0  0  0  0  0  0  0  0  0
  -27.1661  -16.5189   22.9970 C   0  0  0  0  0  0  0  0  0  0  0  0
  -25.4916  -18.7800   22.0869 C   0  0  0  0  0  0  0  0  0  0  0  0
  -24.3295  -11.7005   21.2857 C   0  0  0  0  0  0  0  0  0  0  0  0
  -25.5743  -31.8899   21.9412 C   0  0  0  0  0  0  0  0  0  0  0  0
  -34.0268  -30.9251   17.1820 C   0  0  0  0  0  0  0  0  0  0  0  0
  -33.8653  -31.6304   15.8504 C   0  0  0  0  0  0  0  0  0  0  0  0
  -24.1634  -12.9128   20.3749 C   0  0  0  0  0  0  0  0  0  0  0  0
  -24.5113  -30.8574   22.3235 C   0  0  0  0  0  0  0  0  0  0  0  0
  -25.9649  -31.7829   20.4682 C   0  0  0  0  0  0  0  0  0  0  0  0
  -25.3082  -29.4092   20.4117 C   0  0  0  0  0  0  0  0  0  0  0  0
  -32.7158  -30.1818   17.3226 C   0  0  0  0  0  0  0  0  0  0  0  0
  -33.1988  -30.5941   14.9627 C   0  0  0  0  0  0  0  0  0  0  0  0
  -25.4887  -13.6671   20.2131 C   0  0  1  0  0  0  0  0  0  0  0  0
  -25.6525  -16.3914   22.8559 C   0  0  1  0  0  0  0  0  0  0  0  0
  -24.9297  -29.4352   21.9016 C   0  0  2  0  0  0  0  0  0  0  0  0
  -28.2136  -25.9536   19.1818 C   0  0  0  0  0  0  0  0  0  0  0  0
  -22.2720  -22.2379   26.6499 C   0  0  0  0  0  0  0  0  0  0  0  0
  -21.6301  -18.1831   21.4520 C   0  0  0  0  0  0  0  0  0  0  0  0
  -20.8654  -20.2197   22.6914 C   0  0  0  0  0  0  0  0  0  0  0  0
  -20.7285  -17.9773   23.7757 C   0  0  0  0  0  0  0  0  0  0  0  0
  -25.9144  -21.1684   26.9054 C   0  0  0  0  0  0  0  0  0  0  0  0
  -32.3139  -24.6635   17.9470 C   0  0  0  0  0  0  0  0  0  0  0  0
  -30.9852  -29.5468   15.6055 C   0  0  0  0  0  0  0  0  0  0  0  0
  -29.9773  -24.8969   17.1184 C   0  0  0  0  0  0  0  0  0  0  0  0
  -31.0326  -22.4249   19.7763 C   0  0  0  0  0  0  0  0  0  0  0  0
  -30.6575  -22.8514   18.3650 C   0  0  0  0  0  0  0  0  0  0  0  0
  -30.7981  -20.9448   20.0522 C   0  0  0  0  0  0  0  0  0  1  0  0
  -22.9884  -19.0666   23.4621 C   0  0  1  0  0  0  0  0  0  0  0  0
  -23.4539  -21.2937   26.4942 C   0  0  2  0  0  0  0  0  0  0  0  0
  -21.5801  -18.8593   22.8367 C   0  0  0  0  0  0  0  0  0  0  0  0
  -22.5691  -28.7846   22.1943 N   0  0  0  0  0  0  0  0  0  0  0  0
  -23.8598  -28.4123   22.2347 N   0  0  0  0  0  0  0  0  0  0  0  0
  -24.9680  -17.6844   22.9194 N   0  0  0  0  0  0  0  0  0  0  0  0
  -26.3535  -30.4090   20.1424 N   0  0  0  0  0  0  0  0  0  0  0  0
  -25.2810  -26.5688   22.6733 N   0  0  0  0  0  0  0  0  0  0  0  0
  -21.1463  -24.8782   23.3382 N   0  0  0  0  0  0  0  0  0  0  0  0
  -27.9057  -28.8078   19.3748 N   0  0  0  0  0  0  0  0  0  0  0  0
  -25.7583  -14.4723   21.3851 N   0  0  0  0  0  0  0  0  0  0  0  0
  -22.9701  -19.6803   24.7855 N   0  0  0  0  0  0  0  0  0  0  0  0
  -32.4399  -29.6914   15.9182 N   0  3  0  0  0  0  0  0  0  0  0  0
  -24.6789  -21.9900   26.9794 N   0  3  0  0  0  0  0  0  0  0  0  0
  -30.8664  -24.3075   18.1870 N   0  3  1  0  0  0  0  0  0  0  0  0
  -23.3865  -24.3903   23.3819 O   0  0  0  0  0  0  0  0  0  0  0  0
  -24.5113  -16.3464   20.7893 O   0  0  0  0  0  0  0  0  0  0  0  0
  -23.2841  -16.8721   24.3125 O   0  0  0  0  0  0  0  0  0  0  0  0
  -24.2831  -21.5107   24.2353 O   0  0  0  0  0  0  0  0  0  0  0  0
  -28.4493  -31.0627   19.4182 O   0  0  0  0  0  0  0  0  0  0  0  0
  -16.3356  -27.6371   22.8078 O   0  0  0  0  0  0  0  0  0  0  0  0
  -29.4164  -20.6539   19.8458 O   0  0  0  0  0  0  0  0  0  1  0  0
  -13.6759  -23.3833   20.5198 F   0  0  0  0  0  0  0  0  0  0  0  0
  -16.7823  -25.0514   23.6779 F   0  0  0  0  0  0  0  0  0  0  0  0
  1  2  1  0  0  0  0
  1  5  2  0  0  0  0
  2  6  2  0  0  0  0
  3  8  2  0  0  0  0
  3 17  1  0  0  0  0
  4  9  1  0  0  0  0
  4 17  2  0  0  0  0
  5 19  1  0  0  0  0
  6 21  1  0  0  0  0
  7 10  2  0  0  0  0
  7 20  1  0  0  0  0
  8 27  1  0  0  0  0
  9 27  2  0  0  0  0
 10 28  1  0  0  0  0
 11 12  2  0  0  0  0
 11 29  1  0  0  0  0
 12 30  1  0  0  0  0
 13 22  1  0  0  0  0
 13 28  2  0  0  0  0
 14 23  2  0  0  0  0
 14 24  1  0  0  0  0
 15 23  1  0  0  0  0
 15 26  2  0  0  0  0
 16 30  2  0  0  0  0
 16 31  1  0  0  0  0
 17 32  1  0  0  0  0
 18 32  1  0  0  0  0
 18 33  2  0  0  0  0
 18 34  1  0  0  0  0
 19 21  2  0  0  0  0
 19 39  1  0  0  0  0
 20 22  2  0  0  0  0
 20 40  1  0  0  0  0
 21 52  1  0  0  0  0
 22 41  1  0  0  0  0
 23 62  1  0  0  0  0
 24 25  2  0  0  0  0
 24 63  1  0  0  0  0
 25 26  1  0  0  0  0
 25 55  1  0  0  0  0
 26 76  1  0  0  0  0
 27 87  1  0  0  0  0
 28 88  1  0  0  0  0
 29 31  2  0  0  0  0
 29 87  1  0  0  0  0
 30 89  1  0  0  0  0
 31 90  1  0  0  0  0
 32 70  2  0  0  0  0
 33 71  1  0  0  0  0
 33 74  1  0  0  0  0
 34 75  1  0  0  0  0
 34 82  2  0  0  0  0
 35 53  1  0  0  0  0
 35 77  1  0  0  0  0
 35 83  2  0  0  0  0
 36 67  1  0  0  0  0
 36 72  1  0  0  0  0
 36 84  2  0  0  0  0
 37 68  1  0  0  0  0
 37 78  1  0  0  0  0
 37 85  2  0  0  0  0
 38 73  1  0  0  0  0
 38 76  1  0  0  0  0
 38 86  2  0  0  0  0
 39 42  1  0  0  0  0
 40 53  1  0  0  0  0
 41 72  1  0  0  0  0
 42 46  1  0  0  0  0
 43 47  1  0  0  0  0
 43 48  1  0  0  0  0
 44 45  1  0  0  0  0
 44 50  1  0  0  0  0
 45 51  1  0  0  0  0
 46 52  1  0  0  0  0
 47 54  1  0  0  0  0
 48 73  1  0  0  0  0
 49 54  1  0  0  0  0
 49 73  1  0  0  0  0
 50 79  1  0  0  0  0
 51 79  1  0  0  0  0
 52 77  1  0  0  0  0
 53 72  1  0  0  0  0
 54 71  1  0  0  0  0
 56 68  1  0  0  0  0
 57 69  1  0  0  0  0
 58 69  1  0  0  0  0
 59 69  1  0  0  0  0
 60 80  1  0  0  0  0
 61 81  1  0  0  0  0
 62 79  1  0  0  0  0
 63 81  1  0  0  0  0
 64 65  1  0  0  0  0
 64 66  1  0  0  0  0
 65 81  1  0  0  0  0
 66 88  1  0  0  0  0
 67 69  1  0  0  0  0
 67 78  1  0  0  0  0
 68 80  1  0  0  0  0
 70 71  1  0  0  0  0
M  CHG  3  79   1  80   1  81   1
M  ISO  4  38 100  66 101  76 100  88 101
M  END
> <Batch ID>
0019

> <Smiles>
CNC(C)C(=O)NC(C(=O)N1Cc2cc([101O:1][101CH2:1]CCN(C)Cc3cc(CN4CCCC4)cc([100NH:0][100C:0](=O)N4CCCC(n5nc(-c6ccc(Oc7ccc(F)cc7F)cc6)c(C(N)=O)c5N)C4)c3C)ccc2CC1C(=O)NC1CCCc2ccccc21)C(C)(C)C

> <Shape>
0.214

> <Color>
0.065

> <Negative vol penalty>
0.000

$$$$

  -OEChem-04042321053D

 80 88  0     1  0  0  0  0  0999 V2000
  -22.4832  -31.0549   26.2564 C   0  0  0  0  0  0  0  0  0  0  0  0
  -23.2942  -30.1172   26.8877 C   0  0  0  0  0  0  0  0  0  0  0  0
  -23.6748   -9.4929   19.9552 C   0  0  0  0  0  0  0  0  0  0  0  0
  -23.2036  -10.0994   22.2459 C   0  0  0  0  0  0  0  0  0  0  0  0
  -21.9441  -30.7762   25.0012 C   0  0  0  0  0  0  0  0  0  0  0  0
  -23.5657  -28.8997   26.2645 C   0  0  0  0  0  0  0  0  0  0  0  0
  -28.7301  -23.9739   25.6457 C   0  0  0  0  0  0  0  0  0  0  0  0
  -30.9092  -16.5083   25.7636 C   0  0  0  0  0  0  0  0  0  0  0  0
  -30.7599  -17.8939   25.8231 C   0  0  0  0  0  0  0  0  0  0  0  0
  -22.9403   -8.3180   20.1151 C   0  0  0  0  0  0  0  0  0  0  0  0
  -22.4690   -8.9244   22.4058 C   0  0  0  0  0  0  0  0  0  0  0  0
  -28.9299  -22.6005   25.7779 C   0  0  0  0  0  0  0  0  0  0  0  0
  -23.0989   -5.6446   22.9321 C   0  0  0  0  0  0  0  0  0  0  0  0
  -23.3112   -4.9005   24.0926 C   0  0  0  0  0  0  0  0  0  0  0  0
  -28.0084  -22.2605   23.5746 C   0  0  0  0  0  0  0  0  0  0  0  0
  -28.5333  -16.2374   26.1084 C   0  0  0  0  0  0  0  0  0  0  0  0
  -20.9849   -5.1661   24.6884 C   0  0  0  0  0  0  0  0  0  0  0  0
  -23.8065  -10.3836   21.0206 C   0  0  0  0  0  0  0  0  0  0  0  0
  -24.0853  -12.8487   20.4262 C   0  0  0  0  0  0  0  0  0  0  0  0
  -22.2170  -29.5586   24.3580 C   0  0  0  0  0  0  0  0  0  0  0  0
  -28.1569  -24.5008   24.4794 C   0  0  0  0  0  0  0  0  0  0  0  0
  -23.0287  -28.6039   25.0000 C   0  0  0  0  0  0  0  0  0  0  0  0
  -27.8047  -23.6412   23.4291 C   0  0  0  0  0  0  0  0  0  0  0  0
  -29.7959  -15.6801   25.9062 C   0  0  0  0  0  0  0  0  0  0  0  0
  -29.4973  -18.4512   26.0252 C   0  0  0  0  0  0  0  0  0  0  0  0
  -22.3374   -8.0337   21.3404 C   0  0  0  0  0  0  0  0  0  0  0  0
  -28.5664  -21.7433   24.7434 C   0  0  0  0  0  0  0  0  0  0  0  0
  -21.8297   -6.1495   22.6497 C   0  0  0  0  0  0  0  0  0  0  0  0
  -22.2542   -4.6612   24.9708 C   0  0  0  0  0  0  0  0  0  0  0  0
  -28.3840  -17.6230   26.1679 C   0  0  0  0  0  0  0  0  0  0  0  0
  -20.7727   -5.9102   23.5279 C   0  0  0  0  0  0  0  0  0  0  0  0
  -24.5656  -11.5972   20.8562 C   0  0  0  0  0  0  0  0  0  0  0  0
  -25.1909  -13.6636   20.4388 C   0  0  0  0  0  0  0  0  0  0  0  0
  -22.7584  -13.2397   20.0492 C   0  0  0  0  0  0  0  0  0  0  0  0
  -25.5102  -26.1333   23.8206 C   0  0  0  0  0  0  0  0  0  0  0  0
  -26.8103  -26.2874   20.8528 C   0  0  0  0  0  0  0  0  0  0  0  0
  -28.9385  -24.9426   18.5486 C   0  0  0  0  0  0  0  0  0  0  0  0
  -30.3393  -13.5039   23.4916 C   0  0  0  0  0  0  0  0  0  0  0  0
  -21.5732  -29.2829   23.0223 C   0  0  0  0  0  0  0  0  0  0  0  0
  -27.9726  -25.9872   24.3417 C   0  0  0  0  0  0  0  0  0  0  0  0
  -27.2044  -24.1586   22.1483 C   0  0  0  0  0  0  0  0  0  0  0  0
  -22.2140  -28.1226   22.2652 C   0  0  0  0  0  0  0  0  0  0  0  0
  -29.9486  -13.5274   19.9527 C   0  0  0  0  0  0  0  0  0  0  0  0
  -22.4192  -26.9287   23.1922 C   0  0  0  0  0  0  0  0  0  0  0  0
  -28.4814  -13.1483   19.7442 C   0  0  0  0  0  0  0  0  0  0  0  0
  -30.5626  -12.7786   21.1335 C   0  0  0  0  0  0  0  0  0  0  0  0
  -28.3517  -12.5252   22.1924 C   0  0  0  0  0  0  0  0  0  0  0  0
  -23.3664  -27.2820   24.3453 C   0  0  1  0  0  0  0  0  0  0  0  0
  -26.9069  -26.3648   23.3173 C   0  0  1  0  0  0  0  0  0  0  0  0
  -27.6733  -13.2965   21.0473 C   0  0  2  0  0  0  0  0  0  0  0  0
  -29.7596  -25.2675   16.1997 C   0  0  0  0  0  0  0  0  0  0  0  0
  -24.1896  -25.1493   19.7819 C   0  0  0  0  0  0  0  0  0  0  0  0
  -25.3767  -24.6139   17.6436 C   0  0  0  0  0  0  0  0  0  0  0  0
  -25.1740  -26.9836   18.3959 C   0  0  0  0  0  0  0  0  0  0  0  0
  -31.7308  -25.3216   19.4536 C   0  0  0  0  0  0  0  0  0  0  0  0
  -29.9556  -14.1987   25.8430 C   0  0  0  0  0  0  0  0  0  0  0  0
  -29.3398  -19.9420   26.0899 C   0  0  0  0  0  0  0  0  0  1  0  0
  -26.7510  -25.4272   19.6136 C   0  0  1  0  0  0  0  0  0  0  0  0
  -30.0016  -25.5756   17.6691 C   0  0  2  0  0  0  0  0  0  0  0  0
  -25.3824  -25.5332   18.8835 C   0  0  0  0  0  0  0  0  0  0  0  0
  -25.8744  -11.6109   21.1223 N   0  0  0  0  0  0  0  0  0  0  0  0
  -26.2259  -12.8810   20.8588 N   0  0  0  0  0  0  0  0  0  0  0  0
  -27.0382  -25.6190   22.0640 N   0  0  0  0  0  0  0  0  0  0  0  0
  -29.7493  -12.9613   22.3381 N   0  0  0  0  0  0  0  0  0  0  0  0
  -25.3689  -14.9659   20.1314 N   0  0  0  0  0  0  0  0  0  0  0  0
  -21.7403  -12.2775   20.0938 N   0  0  0  0  0  0  0  0  0  0  0  0
  -24.7401  -27.2785   23.8900 N   0  0  0  0  0  0  0  0  0  0  0  0
  -27.8961  -25.8108   18.7951 N   0  0  0  0  0  0  0  0  0  0  0  0
  -29.4965  -13.6493   24.5867 N   0  0  0  0  0  0  0  0  0  0  0  0
  -31.3519  -25.0657   18.0401 N   0  3  0  0  0  0  0  0  0  0  0  0
  -22.4869  -14.4035   19.6681 O   0  0  0  0  0  0  0  0  0  0  0  0
  -25.1569  -24.9993   24.1222 O   0  0  0  0  0  0  0  0  0  0  0  0
  -26.6671  -27.5082   20.7489 O   0  0  0  0  0  0  0  0  0  0  0  0
  -29.0226  -23.7916   18.9714 O   0  0  0  0  0  0  0  0  0  0  0  0
  -31.5276  -13.8393   23.5401 O   0  0  0  0  0  0  0  0  0  0  0  0
  -21.6203   -6.8874   21.4968 O   0  0  0  0  0  0  0  0  0  0  0  0
  -28.7598  -20.4022   24.8701 O   0  0  0  0  0  0  0  0  0  1  0  0
  -22.4579   -3.9453   26.0844 F   0  0  0  0  0  0  0  0  0  0  0  0
  -27.1670  -18.1495   26.3634 F   0  0  0  0  0  0  0  0  0  0  0  0
  -19.5508   -6.3917   23.2614 F   0  0  0  0  0  0  0  0  0  0  0  0
  1  2  1  0  0  0  0
  1  5  2  0  0  0  0
  2  6  2  0  0  0  0
  3 10  2  0  0  0  0
  3 18  1  0  0  0  0
  4 11  1  0  0  0  0
  4 18  2  0  0  0  0
  5 20  1  0  0  0  0
  6 22  1  0  0  0  0
  7 12  2  0  0  0  0
  7 21  1  0  0  0  0
  8  9  2  0  0  0  0
  8 24  1  0  0  0  0
  9 25  1  0  0  0  0
 10 26  1  0  0  0  0
 11 26  2  0  0  0  0
 12 27  1  0  0  0  0
 13 14  2  0  0  0  0
 13 28  1  0  0  0  0
 14 29  1  0  0  0  0
 15 23  1  0  0  0  0
 15 27  2  0  0  0  0
 16 24  2  0  0  0  0
 16 30  1  0  0  0  0
 17 29  2  0  0  0  0
 17 31  1  0  0  0  0
 18 32  1  0  0  0  0
 19 32  1  0  0  0  0
 19 33  2  0  0  0  0
 19 34  1  0  0  0  0
 20 22  2  0  0  0  0
 20 39  1  0  0  0  0
 21 23  2  0  0  0  0
 21 40  1  0  0  0  0
 22 48  1  0  0  0  0
 23 41  1  0  0  0  0
 24 56  1  0  0  0  0
 25 30  2  0  0  0  0
 25 57  1  0  0  0  0
 26 76  1  0  0  0  0
 27 77  1  0  0  0  0
 28 31  2  0  0  0  0
 28 76  1  0  0  0  0
 29 78  1  0  0  0  0
 30 79  1  0  0  0  0
 31 80  1  0  0  0  0
 32 61  2  0  0  0  0
 33 62  1  0  0  0  0
 33 65  1  0  0  0  0
 34 66  1  0  0  0  0
 34 71  2  0  0  0  0
 35 49  1  0  0  0  0
 35 67  1  0  0  0  0
 35 72  2  0  0  0  0
 36 58  1  0  0  0  0
 36 63  1  0  0  0  0
 36 73  2  0  0  0  0
 37 59  1  0  0  0  0
 37 68  1  0  0  0  0
 37 74  2  0  0  0  0
 38 64  1  0  0  0  0
 38 69  1  0  0  0  0
 38 75  2  0  0  0  0
 39 42  1  0  0  0  0
 40 49  1  0  0  0  0
 41 63  1  0  0  0  0
 42 44  1  0  0  0  0
 43 45  1  0  0  0  0
 43 46  1  0  0  0  0
 44 48  1  0  0  0  0
 45 50  1  0  0  0  0
 46 64  1  0  0  0  0
 47 50  1  0  0  0  0
 47 64  1  0  0  0  0
 48 67  1  0  0  0  0
 49 63  1  0  0  0  0
 50 62  1  0  0  0  0
 51 59  1  0  0  0  0
 52 60  1  0  0  0  0
 53 60  1  0  0  0  0
 54 60  1  0  0  0  0
 55 70  1  0  0  0  0
 56 69  1  0  0  0  0
 57 77  1  0  0  0  0
 58 60  1  0  0  0  0
 58 68  1  0  0  0  0
 59 70  1  0  0  0  0
 61 62  1  0  0  0  0
M  CHG  1  70   1
M  ISO  4  38 100  57 101  69 100  77 101
M  END
> <Batch ID>
0019

> <Smiles>
CNC(C)C(=O)NC(C(=O)N1Cc2cc([101O:1][101CH2:1]c3ccc(C[100NH:0][100C:0](=O)N4CCCC(n5nc(-c6ccc(Oc7ccc(F)cc7F)cc6)c(C(N)=O)c5N)C4)cc3F)ccc2CC1C(=O)NC1CCCc2ccccc21)C(C)(C)C

> <Shape>
0.195

> <Color>
0.156

> <Negative vol penalty>
0.000

$$$$

  -OEChem-04042321053D

 84 93  0     1  0  0  0  0  0999 V2000
  -28.0582  -37.1058   22.2197 C   0  0  0  0  0  0  0  0  0  0  0  0
  -28.5173  -35.8566   21.8143 C   0  0  0  0  0  0  0  0  0  0  0  0
  -22.4885  -10.6070   21.9352 C   0  0  0  0  0  0  0  0  0  0  0  0
  -23.5697   -9.9339   19.8821 C   0  0  0  0  0  0  0  0  0  0  0  0
  -27.0027  -37.1989   23.1259 C   0  0  0  0  0  0  0  0  0  0  0  0
  -27.9218  -34.6998   22.3158 C   0  0  0  0  0  0  0  0  0  0  0  0
  -27.0711  -29.4123   19.3452 C   0  0  0  0  0  0  0  0  0  0  0  0
  -25.5104  -21.1759   16.2392 C   0  0  0  0  0  0  0  0  0  0  0  0
  -24.6549  -20.0744   16.2232 C   0  0  0  0  0  0  0  0  0  0  0  0
  -22.1910   -9.2734   22.2157 C   0  0  0  0  0  0  0  0  0  0  0  0
  -23.2722   -8.6003   20.1627 C   0  0  0  0  0  0  0  0  0  0  0  0
  -27.7845  -28.2144   19.3393 C   0  0  0  0  0  0  0  0  0  0  0  0
  -23.8075   -6.5625   23.4285 C   0  0  0  0  0  0  0  0  0  0  0  0
  -24.0389   -6.1059   24.7260 C   0  0  0  0  0  0  0  0  0  0  0  0
  -26.2783  -27.3163   20.9958 C   0  0  0  0  0  0  0  0  0  0  0  0
  -26.5600  -18.5930   16.3375 C   0  0  0  0  0  0  0  0  0  0  0  0
  -21.6971   -5.5552   24.9497 C   0  0  0  0  0  0  0  0  0  0  0  0
  -23.1778  -10.9373   20.7683 C   0  0  0  0  0  0  0  0  0  0  0  0
  -24.6406  -13.0255   20.8531 C   0  0  0  0  0  0  0  0  0  0  0  0
  -26.3876  -36.0427   23.6313 C   0  0  0  0  0  0  0  0  0  0  0  0
  -25.9607  -29.5753   20.1858 C   0  0  0  0  0  0  0  0  0  0  0  0
  -26.8579  -34.7775   23.2307 C   0  0  0  0  0  0  0  0  0  0  0  0
  -25.5510  -28.5163   21.0086 C   0  0  0  0  0  0  0  0  0  0  0  0
  -26.8908  -20.9860   16.3043 C   0  0  0  0  0  0  0  0  0  0  0  0
  -27.4156  -19.6945   16.3535 C   0  0  0  0  0  0  0  0  0  0  0  0
  -25.1796  -18.7829   16.2724 C   0  0  0  0  0  0  0  0  0  0  0  0
  -22.5829   -8.2701   21.3295 C   0  0  0  0  0  0  0  0  0  0  0  0
  -27.3899  -27.1672   20.1668 C   0  0  0  0  0  0  0  0  0  0  0  0
  -22.5209   -6.5156   22.8916 C   0  0  0  0  0  0  0  0  0  0  0  0
  -22.9837   -5.6021   25.4866 C   0  0  0  0  0  0  0  0  0  0  0  0
  -21.4657   -6.0119   23.6522 C   0  0  0  0  0  0  0  0  0  0  0  0
  -23.4849  -12.3147   20.4777 C   0  0  0  0  0  0  0  0  0  0  0  0
  -24.4511  -14.2851   20.3393 C   0  0  0  0  0  0  0  0  0  0  0  0
  -25.7834  -12.5864   21.5994 C   0  0  0  0  0  0  0  0  0  0  0  0
  -25.2371  -31.5185   22.5950 C   0  0  0  0  0  0  0  0  0  0  0  0
  -22.3380  -30.0804   22.3719 C   0  0  0  0  0  0  0  0  0  0  0  0
  -20.5204  -27.3600   21.4011 C   0  0  0  0  0  0  0  0  0  0  0  0
  -22.9176  -17.6764   16.1980 C   0  0  0  0  0  0  0  0  0  0  0  0
  -25.2811  -36.1932   24.6450 C   0  0  0  0  0  0  0  0  0  0  0  0
  -25.1858  -30.8642   20.1608 C   0  0  0  0  0  0  0  0  0  0  0  0
  -24.3537  -28.6335   21.9147 C   0  0  0  0  0  0  0  0  0  0  0  0
  -24.4583  -34.9225   24.8417 C   0  0  0  0  0  0  0  0  0  0  0  0
  -20.3387  -16.4319   18.3141 C   0  0  0  0  0  0  0  0  0  0  0  0
  -25.3738  -33.7119   24.9934 C   0  0  0  0  0  0  0  0  0  0  0  0
  -21.0224  -15.3083   19.0965 C   0  0  0  0  0  0  0  0  0  0  0  0
  -20.8343  -16.5008   16.8706 C   0  0  0  0  0  0  0  0  0  0  0  0
  -22.9762  -15.4593   17.5005 C   0  0  0  0  0  0  0  0  0  0  0  0
  -27.5058  -23.3772   18.4407 C   0  0  0  0  0  0  0  0  0  0  0  0
  -29.4136  -23.5012   17.5988 C   0  0  0  0  0  0  0  0  0  0  0  0
  -26.2215  -33.4999   23.7333 C   0  0  1  0  0  0  0  0  0  0  0  0
  -24.3794  -31.1014   21.4339 C   0  0  1  0  0  0  0  0  0  0  0  0
  -28.7922  -24.1125   18.8726 C   0  0  0  0  0  0  0  0  0  0  0  0
  -22.5569  -15.3920   18.9781 C   0  0  2  0  0  0  0  0  0  0  0  0
  -28.8899  -19.4670   16.4256 C   0  0  0  0  0  0  0  0  0  0  0  0
  -18.1780  -26.4598   21.3841 C   0  0  0  0  0  0  0  0  0  0  0  0
  -22.5615  -29.4493   25.3488 C   0  0  0  0  0  0  0  0  0  0  0  0
  -20.7198  -27.7778   25.0616 C   0  0  0  0  0  0  0  0  0  0  0  0
  -20.2917  -30.1931   24.6076 C   0  0  0  0  0  0  0  0  0  0  0  0
  -20.4736  -27.2155   18.4454 C   0  0  0  0  0  0  0  0  0  0  0  0
  -27.7910  -22.1861   16.3195 C   0  0  0  0  0  0  0  0  0  0  0  0
  -28.7254  -25.6257   18.9436 C   0  0  0  0  0  0  0  0  0  1  0  0
  -21.7007  -28.8581   22.9875 C   0  0  1  0  0  0  0  0  0  0  0  0
  -19.2296  -27.2407   20.6112 C   0  0  2  0  0  0  0  0  0  0  0  0
  -21.3422  -29.0677   24.4859 C   0  0  0  0  0  0  0  0  0  0  0  0
  -22.6247  -13.0608   19.7795 N   0  0  0  0  0  0  0  0  0  0  0  0
  -23.2403  -14.2535   19.7122 N   0  0  0  0  0  0  0  0  0  0  0  0
  -23.6325  -29.9158   21.8590 N   0  0  0  0  0  0  0  0  0  0  0  0
  -22.2961  -16.5827   16.8370 N   0  0  0  0  0  0  0  0  0  0  0  0
  -25.2035  -15.4055   20.3674 N   0  0  0  0  0  0  0  0  0  0  0  0
  -25.8164  -11.2604   22.0523 N   0  0  0  0  0  0  0  0  0  0  0  0
  -24.3108  -17.6637   16.2582 N   0  0  0  0  0  0  0  0  0  0  0  0
  -25.4305  -32.8834   22.6899 N   0  0  0  0  0  0  0  0  0  0  0  0
  -20.5605  -28.5224   22.1416 N   0  0  0  0  0  0  0  0  0  0  0  0
  -28.3620  -22.4654   17.6551 N   0  3  0  0  0  0  0  0  0  0  0  0
  -19.4765  -26.5431   19.3176 N   0  3  0  0  0  0  0  0  0  0  0  0
  -26.7393  -13.3519   21.8710 O   0  0  0  0  0  0  0  0  0  0  0  0
  -25.6886  -30.6652   23.3498 O   0  0  0  0  0  0  0  0  0  0  0  0
  -21.7077  -31.1402   22.3407 O   0  0  0  0  0  0  0  0  0  0  0  0
  -21.4032  -26.5055   21.3676 O   0  0  0  0  0  0  0  0  0  0  0  0
  -22.2616  -18.5735   15.6623 O   0  0  0  0  0  0  0  0  0  0  0  0
  -22.2930   -6.9687   21.6030 O   0  0  0  0  0  0  0  0  0  0  0  0
  -28.0848  -25.9972   20.1635 O   0  0  0  0  0  0  0  0  0  1  0  0
  -23.2063   -5.1622   26.7320 F   0  0  0  0  0  0  0  0  0  0  0  0
  -20.2278   -5.9632   23.1414 F   0  0  0  0  0  0  0  0  0  0  0  0
  1  2  1  0  0  0  0
  1  5  2  0  0  0  0
  2  6  2  0  0  0  0
  3 10  2  0  0  0  0
  3 18  1  0  0  0  0
  4 11  1  0  0  0  0
  4 18  2  0  0  0  0
  5 20  1  0  0  0  0
  6 22  1  0  0  0  0
  7 12  2  0  0  0  0
  7 21  1  0  0  0  0
  8  9  2  0  0  0  0
  8 24  1  0  0  0  0
  9 26  1  0  0  0  0
 10 27  1  0  0  0  0
 11 27  2  0  0  0  0
 12 28  1  0  0  0  0
 13 14  2  0  0  0  0
 13 29  1  0  0  0  0
 14 30  1  0  0  0  0
 15 23  1  0  0  0  0
 15 28  2  0  0  0  0
 16 25  1  0  0  0  0
 16 26  2  0  0  0  0
 17 30  2  0  0  0  0
 17 31  1  0  0  0  0
 18 32  1  0  0  0  0
 19 32  1  0  0  0  0
 19 33  2  0  0  0  0
 19 34  1  0  0  0  0
 20 22  2  0  0  0  0
 20 39  1  0  0  0  0
 21 23  2  0  0  0  0
 21 40  1  0  0  0  0
 22 50  1  0  0  0  0
 23 41  1  0  0  0  0
 24 25  2  0  0  0  0
 24 60  1  0  0  0  0
 25 54  1  0  0  0  0
 26 71  1  0  0  0  0
 27 81  1  0  0  0  0
 28 82  1  0  0  0  0
 29 31  2  0  0  0  0
 29 81  1  0  0  0  0
 30 83  1  0  0  0  0
 31 84  1  0  0  0  0
 32 65  2  0  0  0  0
 33 66  1  0  0  0  0
 33 69  1  0  0  0  0
 34 70  1  0  0  0  0
 34 76  2  0  0  0  0
 35 51  1  0  0  0  0
 35 72  1  0  0  0  0
 35 77  2  0  0  0  0
 36 62  1  0  0  0  0
 36 67  1  0  0  0  0
 36 78  2  0  0  0  0
 37 63  1  0  0  0  0
 37 73  1  0  0  0  0
 37 79  2  0  0  0  0
 38 68  1  0  0  0  0
 38 71  1  0  0  0  0
 38 80  2  0  0  0  0
 39 42  1  0  0  0  0
 40 51  1  0  0  0  0
 41 67  1  0  0  0  0
 42 44  1  0  0  0  0
 43 45  1  0  0  0  0
 43 46  1  0  0  0  0
 44 50  1  0  0  0  0
 45 53  1  0  0  0  0
 46 68  1  0  0  0  0
 47 53  1  0  0  0  0
 47 68  1  0  0  0  0
 48 52  1  0  0  0  0
 48 74  1  0  0  0  0
 49 52  1  0  0  0  0
 49 74  1  0  0  0  0
 50 72  1  0  0  0  0
 51 67  1  0  0  0  0
 52 61  1  0  0  0  0
 53 66  1  0  0  0  0
 55 63  1  0  0  0  0
 56 64  1  0  0  0  0
 57 64  1  0  0  0  0
 58 64  1  0  0  0  0
 59 75  1  0  0  0  0
 60 74  1  0  0  0  0
 61 82  1  0  0  0  0
 62 64  1  0  0  0  0
 62 73  1  0  0  0  0
 63 75  1  0  0  0  0
 65 66  1  0  0  0  0
M  CHG  2  74   1  75   1
M  ISO  4  38 100  61 101  71 100  82 101
M  END
> <Batch ID>
0019

> <Smiles>
CNC(C)C(=O)NC(C(=O)N1Cc2cc([101O:1][101CH2:1]C3CN(Cc4ccc([100NH:0][100C:0](=O)N5CCCC(n6nc(-c7ccc(Oc8ccc(F)cc8F)cc7)c(C(N)=O)c6N)C5)cc4C)C3)ccc2CC1C(=O)NC1CCCc2ccccc21)C(C)(C)C

> <Shape>
0.279

> <Color>
0.112

> <Negative vol penalty>
0.000

$$$$

  -OEChem-04042321053D

 84 92  0     1  0  0  0  0  0999 V2000
  -28.1063  -36.4033   22.2466 C   0  0  0  0  0  0  0  0  0  0  0  0
  -28.3927  -35.0429   22.1948 C   0  0  0  0  0  0  0  0  0  0  0  0
  -24.6851  -12.2763   19.8039 C   0  0  0  0  0  0  0  0  0  0  0  0
  -25.6606  -12.9987   21.8928 C   0  0  0  0  0  0  0  0  0  0  0  0
  -26.8795  -36.8376   22.7467 C   0  0  0  0  0  0  0  0  0  0  0  0
  -27.4527  -34.1160   22.6440 C   0  0  0  0  0  0  0  0  0  0  0  0
  -26.9333  -30.1902   19.4875 C   0  0  0  0  0  0  0  0  0  0  0  0
  -28.8366  -20.4352   22.7686 C   0  0  0  0  0  0  0  0  0  0  0  0
  -25.1982  -10.9953   20.0072 C   0  0  0  0  0  0  0  0  0  0  0  0
  -26.1737  -11.7177   22.0961 C   0  0  0  0  0  0  0  0  0  0  0  0
  -27.9169  -29.2032   19.5317 C   0  0  0  0  0  0  0  0  0  0  0  0
  -24.4174   -8.2605   21.8357 C   0  0  0  0  0  0  0  0  0  0  0  0
  -29.9030  -20.9474   23.5075 C   0  0  0  0  0  0  0  0  0  0  0  0
  -23.5710   -7.1777   21.5971 C   0  0  0  0  0  0  0  0  0  0  0  0
  -26.4693  -27.8297   20.8871 C   0  0  0  0  0  0  0  0  0  0  0  0
  -29.7068  -21.4938   20.7788 C   0  0  0  0  0  0  0  0  0  0  0  0
  -25.0972   -6.3558   19.9140 C   0  0  0  0  0  0  0  0  0  0  0  0
  -24.9163  -13.2780   20.7466 C   0  0  0  0  0  0  0  0  0  0  0  0
  -23.1346  -15.0920   20.9524 C   0  0  0  0  0  0  0  0  0  0  0  0
  -25.9201  -35.9152   23.1933 C   0  0  0  0  0  0  0  0  0  0  0  0
  -25.7124  -30.0087   20.1530 C   0  0  0  0  0  0  0  0  0  0  0  0
  -26.2124  -34.5385   23.1517 C   0  0  0  0  0  0  0  0  0  0  0  0
  -25.4708  -28.8149   20.8477 C   0  0  0  0  0  0  0  0  0  0  0  0
  -30.7733  -22.0060   21.5177 C   0  0  0  0  0  0  0  0  0  0  0  0
  -28.7385  -20.7084   21.4042 C   0  0  0  0  0  0  0  0  0  0  0  0
  -25.9425  -10.7160   21.1533 C   0  0  0  0  0  0  0  0  0  0  0  0
  -27.6862  -28.0240   20.2340 C   0  0  0  0  0  0  0  0  0  0  0  0
  -25.6036   -8.3910   21.1135 C   0  0  0  0  0  0  0  0  0  0  0  0
  -23.9109   -6.2254   20.6362 C   0  0  0  0  0  0  0  0  0  0  0  0
  -30.8714  -21.7328   22.8821 C   0  0  0  0  0  0  0  0  0  0  0  0
  -25.9435   -7.4386   20.1527 C   0  0  0  0  0  0  0  0  0  0  0  0
  -24.3870  -14.6017   20.5369 C   0  0  0  0  0  0  0  0  0  0  0  0
  -23.1126  -16.3934   20.5137 C   0  0  0  0  0  0  0  0  0  0  0  0
  -22.0849  -14.4304   21.6709 C   0  0  0  0  0  0  0  0  0  0  0  0
  -24.2016  -31.5045   22.5160 C   0  0  0  0  0  0  0  0  0  0  0  0
  -21.8128  -29.4392   21.7738 C   0  0  0  0  0  0  0  0  0  0  0  0
  -30.8483  -25.1082   20.4228 C   0  0  0  0  0  0  0  0  0  0  0  0
  -20.8839  -26.4581   20.3966 C   0  0  0  0  0  0  0  0  0  0  0  0
  -27.4089  -20.3627   19.2925 C   0  0  0  0  0  0  0  0  0  0  0  0
  -24.6267  -36.4346   23.7694 C   0  0  0  0  0  0  0  0  0  0  0  0
  -24.6512  -31.0717   20.0734 C   0  0  0  0  0  0  0  0  0  0  0  0
  -24.1691  -28.5625   21.5620 C   0  0  0  0  0  0  0  0  0  0  0  0
  -23.5374  -35.3706   23.8774 C   0  0  0  0  0  0  0  0  0  0  0  0
  -24.8765  -19.2141   17.0689 C   0  0  0  0  0  0  0  0  0  0  0  0
  -24.1000  -34.0905   24.4869 C   0  0  0  0  0  0  0  0  0  0  0  0
  -24.3454  -17.9489   17.7467 C   0  0  0  0  0  0  0  0  0  0  0  0
  -26.3845  -19.3687   17.2585 C   0  0  0  0  0  0  0  0  0  0  0  0
  -26.3142  -18.0355   19.3289 C   0  0  0  0  0  0  0  0  0  0  0  0
  -25.2088  -33.5013   23.6066 C   0  0  1  0  0  0  0  0  0  0  0  0
  -23.6437  -30.9970   21.2165 C   0  0  1  0  0  0  0  0  0  0  0  0
  -24.7895  -17.8704   19.2205 C   0  0  2  0  0  0  0  0  0  0  0  0
  -18.8659  -25.0283   19.9712 C   0  0  0  0  0  0  0  0  0  0  0  0
  -21.7744  -28.6229   24.7136 C   0  0  0  0  0  0  0  0  0  0  0  0
  -20.4662  -26.5907   24.0602 C   0  0  0  0  0  0  0  0  0  0  0  0
  -19.5153  -28.8633   23.6681 C   0  0  0  0  0  0  0  0  0  0  0  0
  -21.2823  -26.5649   17.4660 C   0  0  0  0  0  0  0  0  0  0  0  0
  -31.8151  -22.8501   20.8423 C   0  0  0  0  0  0  0  0  0  0  0  0
  -30.8827  -26.5220   20.9820 C   0  0  0  0  0  0  0  0  0  0  0  0
  -30.0034  -27.4895   20.2050 C   0  0  0  0  0  0  0  0  0  1  0  0
  -21.4224  -28.0511   22.2206 C   0  0  1  0  0  0  0  0  0  0  0  0
  -19.7853  -26.1025   19.4112 C   0  0  2  0  0  0  0  0  0  0  0  0
  -20.8200  -28.0373   23.6539 C   0  0  0  0  0  0  0  0  0  0  0  0
  -25.1084  -15.5168   19.8842 N   0  0  0  0  0  0  0  0  0  0  0  0
  -24.3066  -16.5954   19.8861 N   0  0  0  0  0  0  0  0  0  0  0  0
  -23.1653  -29.6347   21.4601 N   0  0  0  0  0  0  0  0  0  0  0  0
  -26.7304  -19.2883   18.6793 N   0  0  0  0  0  0  0  0  0  0  0  0
  -22.1886  -17.3731   20.6072 N   0  0  0  0  0  0  0  0  0  0  0  0
  -22.2717  -13.0928   22.0453 N   0  0  0  0  0  0  0  0  0  0  0  0
  -27.6555  -20.1872   20.6538 N   0  0  0  0  0  0  0  0  0  0  0  0
  -24.6384  -32.8145   22.4675 N   0  0  0  0  0  0  0  0  0  0  0  0
  -31.6600  -24.2528   21.1539 N   0  0  0  0  0  0  0  0  0  0  0  0
  -20.5300  -27.5272   21.1923 N   0  0  0  0  0  0  0  0  0  0  0  0
  -20.3743  -25.5999   18.1379 N   0  3  0  0  0  0  0  0  0  0  0  0
  -21.0064  -15.0033   21.9575 O   0  0  0  0  0  0  0  0  0  0  0  0
  -24.2321  -30.7628   23.4911 O   0  0  0  0  0  0  0  0  0  0  0  0
  -20.9483  -30.3159   21.6989 O   0  0  0  0  0  0  0  0  0  0  0  0
  -30.1784  -24.7866   19.4453 O   0  0  0  0  0  0  0  0  0  0  0  0
  -21.9480  -25.8461   20.4573 O   0  0  0  0  0  0  0  0  0  0  0  0
  -27.7223  -21.3764   18.6630 O   0  0  0  0  0  0  0  0  0  0  0  0
  -26.4432   -9.4660   21.3521 O   0  0  0  0  0  0  0  0  0  0  0  0
  -28.6448  -27.0592   20.2792 O   0  0  0  0  0  0  0  0  0  1  0  0
  -23.0988   -5.1848   20.4083 F   0  0  0  0  0  0  0  0  0  0  0  0
  -31.8917  -22.2214   23.6008 F   0  0  0  0  0  0  0  0  0  0  0  0
  -27.0823   -7.5580   19.4565 F   0  0  0  0  0  0  0  0  0  0  0  0
  1  2  1  0  0  0  0
  1  5  2  0  0  0  0
  2  6  2  0  0  0  0
  3  9  2  0  0  0  0
  3 18  1  0  0  0  0
  4 10  1  0  0  0  0
  4 18  2  0  0  0  0
  5 20  1  0  0  0  0
  6 22  1  0  0  0  0
  7 11  2  0  0  0  0
  7 21  1  0  0  0  0
  8 13  2  0  0  0  0
  8 25  1  0  0  0  0
  9 26  1  0  0  0  0
 10 26  2  0  0  0  0
 11 27  1  0  0  0  0
 12 14  2  0  0  0  0
 12 28  1  0  0  0  0
 13 30  1  0  0  0  0
 14 29  1  0  0  0  0
 15 23  1  0  0  0  0
 15 27  2  0  0  0  0
 16 24  1  0  0  0  0
 16 25  2  0  0  0  0
 17 29  2  0  0  0  0
 17 31  1  0  0  0  0
 18 32  1  0  0  0  0
 19 32  1  0  0  0  0
 19 33  2  0  0  0  0
 19 34  1  0  0  0  0
 20 22  2  0  0  0  0
 20 40  1  0  0  0  0
 21 23  2  0  0  0  0
 21 41  1  0  0  0  0
 22 49  1  0  0  0  0
 23 42  1  0  0  0  0
 24 30  2  0  0  0  0
 24 57  1  0  0  0  0
 25 69  1  0  0  0  0
 26 80  1  0  0  0  0
 27 81  1  0  0  0  0
 28 31  2  0  0  0  0
 28 80  1  0  0  0  0
 29 82  1  0  0  0  0
 30 83  1  0  0  0  0
 31 84  1  0  0  0  0
 32 63  2  0  0  0  0
 33 64  1  0  0  0  0
 33 67  1  0  0  0  0
 34 68  1  0  0  0  0
 34 74  2  0  0  0  0
 35 50  1  0  0  0  0
 35 70  1  0  0  0  0
 35 75  2  0  0  0  0
 36 60  1  0  0  0  0
 36 65  1  0  0  0  0
 36 76  2  0  0  0  0
 37 58  1  0  0  0  0
 37 71  1  0  0  0  0
 37 77  2  0  0  0  0
 38 61  1  0  0  0  0
 38 72  1  0  0  0  0
 38 78  2  0  0  0  0
 39 66  1  0  0  0  0
 39 69  1  0  0  0  0
 39 79  2  0  0  0  0
 40 43  1  0  0  0  0
 41 50  1  0  0  0  0
 42 65  1  0  0  0  0
 43 45  1  0  0  0  0
 44 46  1  0  0  0  0
 44 47  1  0  0  0  0
 45 49  1  0  0  0  0
 46 51  1  0  0  0  0
 47 66  1  0  0  0  0
 48 51  1  0  0  0  0
 48 66  1  0  0  0  0
 49 70  1  0  0  0  0
 50 65  1  0  0  0  0
 51 64  1  0  0  0  0
 52 61  1  0  0  0  0
 53 62  1  0  0  0  0
 54 62  1  0  0  0  0
 55 62  1  0  0  0  0
 56 73  1  0  0  0  0
 57 71  1  0  0  0  0
 58 59  1  0  0  0  0
 59 81  1  0  0  0  0
 60 62  1  0  0  0  0
 60 72  1  0  0  0  0
 61 73  1  0  0  0  0
 63 64  1  0  0  0  0
M  CHG  1  73   1
M  ISO  4  39 100  59 101  69 100  81 101
M  END
> <Batch ID>
0019

> <Smiles>
CNC(C)C(=O)NC(C(=O)N1Cc2cc([101O:1][101CH2:1]CC(=O)NCc3cc([100NH:0][100C:0](=O)N4CCCC(n5nc(-c6ccc(Oc7ccc(F)cc7F)cc6)c(C(N)=O)c5N)C4)ccc3F)ccc2CC1C(=O)NC1CCCc2ccccc21)C(C)(C)C

> <Shape>
0.274

> <Color>
0.093

> <Negative vol penalty>
0.000

$$$$

  -OEChem-04042321053D

 87 95  0     1  0  0  0  0  0999 V2000
  -29.5616  -31.8283   25.5376 C   0  0  0  0  0  0  0  0  0  0  0  0
  -29.2741  -30.7130   24.7573 C   0  0  0  0  0  0  0  0  0  0  0  0
  -25.3933  -14.0819   21.5879 C   0  0  0  0  0  0  0  0  0  0  0  0
  -27.0770  -13.5992   19.9238 C   0  0  0  0  0  0  0  0  0  0  0  0
  -28.5351  -32.4916   26.2086 C   0  0  0  0  0  0  0  0  0  0  0  0
  -27.9599  -30.2597   24.6484 C   0  0  0  0  0  0  0  0  0  0  0  0
  -26.6861  -29.1214   19.8812 C   0  0  0  0  0  0  0  0  0  0  0  0
  -24.5772  -13.0863   21.0510 C   0  0  0  0  0  0  0  0  0  0  0  0
  -26.2609  -12.6036   19.3869 C   0  0  0  0  0  0  0  0  0  0  0  0
  -27.1402  -27.9047   19.3740 C   0  0  0  0  0  0  0  0  0  0  0  0
  -24.3619   -9.7136   21.1609 C   0  0  0  0  0  0  0  0  0  0  0  0
  -23.7379   -8.8379   22.0493 C   0  0  0  0  0  0  0  0  0  0  0  0
  -24.9748  -26.9282   19.7944 C   0  0  0  0  0  0  0  0  0  0  0  0
  -30.5625  -21.6932   16.4418 C   0  0  0  0  0  0  0  0  0  0  0  0
  -31.8959  -20.8721   14.6021 C   0  0  0  0  0  0  0  0  0  0  0  0
  -31.5574  -19.4946   16.5579 C   0  0  0  0  0  0  0  0  0  0  0  0
  -21.5780   -9.5484   21.2326 C   0  0  0  0  0  0  0  0  0  0  0  0
  -26.6432  -14.3384   21.0243 C   0  0  0  0  0  0  0  0  0  0  0  0
  -28.4494  -15.2212   22.5946 C   0  0  0  0  0  0  0  0  0  0  0  0
  -27.2064  -32.0519   26.1001 C   0  0  0  0  0  0  0  0  0  0  0  0
  -25.3740  -29.2479   20.3597 C   0  0  0  0  0  0  0  0  0  0  0  0
  -26.9149  -30.9169   25.3197 C   0  0  0  0  0  0  0  0  0  0  0  0
  -24.5057  -28.1483   20.3048 C   0  0  0  0  0  0  0  0  0  0  0  0
  -31.1199  -21.8787   15.1767 C   0  0  0  0  0  0  0  0  0  0  0  0
  -30.7813  -20.5012   17.1325 C   0  0  0  0  0  0  0  0  0  0  0  0
  -25.0110  -12.3471   19.9505 C   0  0  0  0  0  0  0  0  0  0  0  0
  -26.2854  -26.8071   19.3332 C   0  0  0  0  0  0  0  0  0  0  0  0
  -23.5939  -10.5069   20.3084 C   0  0  0  0  0  0  0  0  0  0  0  0
  -22.3460   -8.7552   22.0851 C   0  0  0  0  0  0  0  0  0  0  0  0
  -32.1147  -19.6800   15.2927 C   0  0  0  0  0  0  0  0  0  0  0  0
  -22.2020  -10.4243   20.3443 C   0  0  0  0  0  0  0  0  0  0  0  0
  -27.4864  -15.3671   21.5782 C   0  0  0  0  0  0  0  0  0  0  0  0
  -28.9716  -16.4812   22.7563 C   0  0  0  0  0  0  0  0  0  0  0  0
  -28.8373  -14.0512   23.3270 C   0  0  0  0  0  0  0  0  0  0  0  0
  -24.0699  -29.9364   23.1755 C   0  0  0  0  0  0  0  0  0  0  0  0
  -21.3118  -29.9015   21.4683 C   0  0  0  0  0  0  0  0  0  0  0  0
  -19.6231  -28.8020   18.7141 C   0  0  0  0  0  0  0  0  0  0  0  0
  -29.4213  -21.2099   19.1311 C   0  0  0  0  0  0  0  0  0  0  0  0
  -26.1371  -32.7731   26.8819 C   0  0  0  0  0  0  0  0  0  0  0  0
  -24.8914  -30.5745   20.8790 C   0  0  0  0  0  0  0  0  0  0  0  0
  -23.0817  -28.2375   20.7873 C   0  0  0  0  0  0  0  0  0  0  0  0
  -24.7198  -32.4530   26.4137 C   0  0  0  0  0  0  0  0  0  0  0  0
  -27.8068  -21.1042   22.3027 C   0  0  0  0  0  0  0  0  0  0  0  0
  -24.5451  -30.9488   26.2302 C   0  0  0  0  0  0  0  0  0  0  0  0
  -27.6346  -19.6075   22.5722 C   0  0  0  0  0  0  0  0  0  0  0  0
  -27.6173  -21.4398   20.8245 C   0  0  0  0  0  0  0  0  0  0  0  0
  -28.2700  -19.1568   20.1680 C   0  0  0  0  0  0  0  0  0  0  0  0
  -25.4984  -30.4096   25.1569 C   0  0  1  0  0  0  0  0  0  0  0  0
  -23.6929  -30.4496   21.8146 C   0  0  1  0  0  0  0  0  0  0  0  0
  -28.5159  -18.7608   21.6330 C   0  0  2  0  0  0  0  0  0  0  0  0
  -30.0992  -21.3996   10.5617 C   0  0  0  0  0  0  0  0  0  0  0  0
  -17.3714  -28.9084   17.6114 C   0  0  0  0  0  0  0  0  0  0  0  0
  -20.2228  -27.9080   23.5054 C   0  0  0  0  0  0  0  0  0  0  0  0
  -18.4072  -27.3421   21.8770 C   0  0  0  0  0  0  0  0  0  0  0  0
  -18.5896  -29.6590   22.7833 C   0  0  0  0  0  0  0  0  0  0  0  0
  -20.7387  -30.0966   16.2978 C   0  0  0  0  0  0  0  0  0  0  0  0
  -30.8844  -23.1604   14.4332 C   0  0  0  0  0  0  0  0  0  0  0  0
  -30.3073  -22.4010   11.6863 C   0  0  0  0  0  0  0  0  0  0  0  0
  -28.6251  -24.4464   15.8095 C   0  0  0  0  0  0  0  0  0  0  0  0
  -27.5855  -24.4495   16.9278 C   0  0  0  0  0  0  0  0  0  0  0  0
  -29.2736  -22.2162   12.7857 C   0  0  0  0  0  0  0  0  0  0  0  0
  -28.4384  -23.2463   14.8933 C   0  0  0  0  0  0  0  0  0  0  0  0
  -27.7323  -25.6678   17.8284 C   0  0  0  0  0  0  0  0  0  1  0  0
  -20.2946  -28.8480   21.1018 C   0  0  1  0  0  0  0  0  0  0  0  0
  -18.7545  -29.5334   17.7066 C   0  0  2  0  0  0  0  0  0  0  0  0
  -19.4059  -28.4367   22.3095 C   0  0  0  0  0  0  0  0  0  0  0  0
  -27.3998  -16.6210   21.1261 N   0  0  0  0  0  0  0  0  0  0  0  0
  -28.3150  -17.2744   21.8620 N   0  0  0  0  0  0  0  0  0  0  0  0
  -22.6587  -29.5542   21.2920 N   0  0  0  0  0  0  0  0  0  0  0  0
  -28.4869  -20.6019   19.9960 N   0  0  0  0  0  0  0  0  0  0  0  0
  -29.9238  -16.9769   23.5749 N   0  0  0  0  0  0  0  0  0  0  0  0
  -28.1995  -12.8380   23.0347 N   0  0  0  0  0  0  0  0  0  0  0  0
  -30.2155  -20.3127   18.4178 N   0  0  0  0  0  0  0  0  0  0  0  0
  -24.9982  -30.7194   23.8348 N   0  0  0  0  0  0  0  0  0  0  0  0
  -19.5497  -29.3778   19.9648 N   0  0  0  0  0  0  0  0  0  0  0  0
  -19.3824  -29.4932   16.3556 N   0  3  0  0  0  0  0  0  0  0  0  0
  -29.4946  -23.2607   13.8527 N   0  3  1  0  0  0  0  0  0  0  0  0
  -29.7117  -14.0842   24.2259 O   0  0  0  0  0  0  0  0  0  0  0  0
  -23.5555  -28.9071   23.5969 O   0  0  0  0  0  0  0  0  0  0  0  0
  -20.9254  -30.9950   21.8887 O   0  0  0  0  0  0  0  0  0  0  0  0
  -20.2961  -27.8161   18.4218 O   0  0  0  0  0  0  0  0  0  0  0  0
  -29.5289  -22.4362   19.0508 O   0  0  0  0  0  0  0  0  0  0  0  0
  -24.2150  -11.3753   19.4265 O   0  0  0  0  0  0  0  0  0  0  0  0
  -26.7262  -25.6182   18.8393 O   0  0  0  0  0  0  0  0  0  1  0  0
  -21.7469   -7.9130   22.9372 F   0  0  0  0  0  0  0  0  0  0  0  0
  -32.8599  -18.7135   14.7408 F   0  0  0  0  0  0  0  0  0  0  0  0
  -21.4590  -11.1829   19.5269 F   0  0  0  0  0  0  0  0  0  0  0  0
  1  2  1  0  0  0  0
  1  5  2  0  0  0  0
  2  6  2  0  0  0  0
  3  8  2  0  0  0  0
  3 18  1  0  0  0  0
  4  9  1  0  0  0  0
  4 18  2  0  0  0  0
  5 20  1  0  0  0  0
  6 22  1  0  0  0  0
  7 10  2  0  0  0  0
  7 21  1  0  0  0  0
  8 26  1  0  0  0  0
  9 26  2  0  0  0  0
 10 27  1  0  0  0  0
 11 12  2  0  0  0  0
 11 28  1  0  0  0  0
 12 29  1  0  0  0  0
 13 23  1  0  0  0  0
 13 27  2  0  0  0  0
 14 24  2  0  0  0  0
 14 25  1  0  0  0  0
 15 24  1  0  0  0  0
 15 30  2  0  0  0  0
 16 25  2  0  0  0  0
 16 30  1  0  0  0  0
 17 29  2  0  0  0  0
 17 31  1  0  0  0  0
 18 32  1  0  0  0  0
 19 32  1  0  0  0  0
 19 33  2  0  0  0  0
 19 34  1  0  0  0  0
 20 22  2  0  0  0  0
 20 39  1  0  0  0  0
 21 23  2  0  0  0  0
 21 40  1  0  0  0  0
 22 48  1  0  0  0  0
 23 41  1  0  0  0  0
 24 57  1  0  0  0  0
 25 73  1  0  0  0  0
 26 83  1  0  0  0  0
 27 84  1  0  0  0  0
 28 31  2  0  0  0  0
 28 83  1  0  0  0  0
 29 85  1  0  0  0  0
 30 86  1  0  0  0  0
 31 87  1  0  0  0  0
 32 67  2  0  0  0  0
 33 68  1  0  0  0  0
 33 71  1  0  0  0  0
 34 72  1  0  0  0  0
 34 78  2  0  0  0  0
 35 49  1  0  0  0  0
 35 74  1  0  0  0  0
 35 79  2  0  0  0  0
 36 64  1  0  0  0  0
 36 69  1  0  0  0  0
 36 80  2  0  0  0  0
 37 65  1  0  0  0  0
 37 75  1  0  0  0  0
 37 81  2  0  0  0  0
 38 70  1  0  0  0  0
 38 73  1  0  0  0  0
 38 82  2  0  0  0  0
 39 42  1  0  0  0  0
 40 49  1  0  0  0  0
 41 69  1  0  0  0  0
 42 44  1  0  0  0  0
 43 45  1  0  0  0  0
 43 46  1  0  0  0  0
 44 48  1  0  0  0  0
 45 50  1  0  0  0  0
 46 70  1  0  0  0  0
 47 50  1  0  0  0  0
 47 70  1  0  0  0  0
 48 74  1  0  0  0  0
 49 69  1  0  0  0  0
 50 68  1  0  0  0  0
 51 58  1  0  0  0  0
 52 65  1  0  0  0  0
 53 66  1  0  0  0  0
 54 66  1  0  0  0  0
 55 66  1  0  0  0  0
 56 76  1  0  0  0  0
 57 77  1  0  0  0  0
 58 61  1  0  0  0  0
 59 60  1  0  0  0  0
 59 62  1  0  0  0  0
 60 63  1  0  0  0  0
 61 77  1  0  0  0  0
 62 77  1  0  0  0  0
 63 84  1  0  0  0  0
 64 66  1  0  0  0  0
 64 75  1  0  0  0  0
 65 76  1  0  0  0  0
 67 68  1  0  0  0  0
M  CHG  2  76   1  77   1
M  ISO  4  38 100  63 101  73 100  84 101
M  END
> <Batch ID>
0019

> <Smiles>
CCCN(CCC[101CH2:1][101O:1]c1ccc2c(c1)CN(C(=O)C(NC(=O)C(C)NC)C(C)(C)C)C(C(=O)NC1CCCc3ccccc31)C2)Cc1cc(F)cc([100NH:0][100C:0](=O)N2CCCC(n3nc(-c4ccc(Oc5ccc(F)cc5F)cc4)c(C(N)=O)c3N)C2)c1

> <Shape>
0.284

> <Color>
0.073

> <Negative vol penalty>
0.000

$$$$

  -OEChem-04042321053D

 89 97  0     1  0  0  0  0  0999 V2000
  -21.5221  -34.3610   21.1781 C   0  0  0  0  0  0  0  0  0  0  0  0
  -22.7023  -33.6259   21.2252 C   0  0  0  0  0  0  0  0  0  0  0  0
  -26.6539  -15.4244   22.5986 C   0  0  0  0  0  0  0  0  0  0  0  0
  -26.0390  -14.9145   20.3184 C   0  0  0  0  0  0  0  0  0  0  0  0
  -20.3748  -33.8763   21.8049 C   0  0  0  0  0  0  0  0  0  0  0  0
  -22.7361  -32.4061   21.9000 C   0  0  0  0  0  0  0  0  0  0  0  0
  -25.1320  -28.7992   19.2741 C   0  0  0  0  0  0  0  0  0  0  0  0
  -29.1222  -24.7457   15.6300 C   0  0  0  0  0  0  0  0  0  0  0  0
  -29.4328  -25.8706   16.3940 C   0  0  0  0  0  0  0  0  0  0  0  0
  -25.6521  -14.5704   23.0597 C   0  0  0  0  0  0  0  0  0  0  0  0
  -25.0372  -14.0604   20.7796 C   0  0  0  0  0  0  0  0  0  0  0  0
  -26.5258  -28.8303   19.2753 C   0  0  0  0  0  0  0  0  0  0  0  0
  -24.8148  -10.9222   22.0136 C   0  0  0  0  0  0  0  0  0  0  0  0
  -24.6946   -9.6756   21.3995 C   0  0  0  0  0  0  0  0  0  0  0  0
  -26.5569  -27.1058   20.9618 C   0  0  0  0  0  0  0  0  0  0  0  0
  -30.6031  -24.4715   17.9783 C   0  0  0  0  0  0  0  0  0  0  0  0
  -22.4351  -10.2190   20.7387 C   0  0  0  0  0  0  0  0  0  0  0  0
  -26.8473  -15.5965   21.2279 C   0  0  0  0  0  0  0  0  0  0  0  0
  -29.2189  -16.1449   20.4649 C   0  0  0  0  0  0  0  0  0  0  0  0
  -20.3921  -32.6454   22.4794 C   0  0  0  0  0  0  0  0  0  0  0  0
  -24.4388  -27.9274   20.1261 C   0  0  0  0  0  0  0  0  0  0  0  0
  -21.5883  -31.9051   22.5374 C   0  0  0  0  0  0  0  0  0  0  0  0
  -25.1543  -27.0638   20.9677 C   0  0  0  0  0  0  0  0  0  0  0  0
  -29.5520  -23.4837   16.0402 C   0  0  0  0  0  0  0  0  0  0  0  0
  -30.1732  -25.7336   17.5681 C   0  0  0  0  0  0  0  0  0  0  0  0
  -24.8438  -13.8884   22.1502 C   0  0  0  0  0  0  0  0  0  0  0  0
  -27.2385  -27.9855   20.1213 C   0  0  0  0  0  0  0  0  0  0  0  0
  -23.7451  -11.8172   21.9904 C   0  0  0  0  0  0  0  0  0  0  0  0
  -23.5048   -9.3240   20.7621 C   0  0  0  0  0  0  0  0  0  0  0  0
  -30.2925  -23.3466   17.2143 C   0  0  0  0  0  0  0  0  0  0  0  0
  -22.5553  -11.4656   21.3529 C   0  0  0  0  0  0  0  0  0  0  0  0
  -27.8816  -16.4790   20.7510 C   0  0  0  0  0  0  0  0  0  0  0  0
  -29.7857  -17.3243   20.0474 C   0  0  0  0  0  0  0  0  0  0  0  0
  -29.8889  -14.8815   20.5672 C   0  0  0  0  0  0  0  0  0  0  0  0
  -22.3781  -28.2956   22.5182 C   0  0  0  0  0  0  0  0  0  0  0  0
  -22.2035  -25.0609   22.3497 C   0  0  0  0  0  0  0  0  0  0  0  0
  -23.6816  -22.1233   21.4372 C   0  0  0  0  0  0  0  0  0  0  0  0
  -27.0077  -22.2847   17.7635 C   0  0  0  0  0  0  0  0  0  0  0  0
  -19.1394  -32.1850   23.1821 C   0  0  0  0  0  0  0  0  0  0  0  0
  -22.9355  -27.8871   20.0936 C   0  0  0  0  0  0  0  0  0  0  0  0
  -24.4578  -26.0950   21.8869 C   0  0  0  0  0  0  0  0  0  0  0  0
  -19.1602  -30.7054   23.5570 C   0  0  0  0  0  0  0  0  0  0  0  0
  -29.4154  -22.0603   20.5661 C   0  0  0  0  0  0  0  0  0  0  0  0
  -20.4907  -30.3378   24.2061 C   0  0  0  0  0  0  0  0  0  0  0  0
  -29.3470  -20.5822   20.9464 C   0  0  0  0  0  0  0  0  0  0  0  0
  -28.1048  -22.5508   19.9584 C   0  0  0  0  0  0  0  0  0  0  0  0
  -27.5716  -20.2660   19.1776 C   0  0  0  0  0  0  0  0  0  0  0  0
  -21.6582  -30.5658   23.2384 C   0  0  1  0  0  0  0  0  0  0  0  0
  -22.3251  -27.3239   21.3733 C   0  0  1  0  0  0  0  0  0  0  0  0
  -28.8918  -19.7284   19.7501 C   0  0  2  0  0  0  0  0  0  0  0  0
  -23.9055  -19.6571   21.0309 C   0  0  0  0  0  0  0  0  0  0  0  0
  -33.1543  -29.3708   14.9343 C   0  0  0  0  0  0  0  0  0  0  0  0
  -32.3453  -30.6308   16.9391 C   0  0  0  0  0  0  0  0  0  0  0  0
  -22.8467  -24.9958   25.3317 C   0  0  0  0  0  0  0  0  0  0  0  0
  -23.3961  -22.5653   25.0892 C   0  0  0  0  0  0  0  0  0  0  0  0
  -21.0857  -23.3739   24.6087 C   0  0  0  0  0  0  0  0  0  0  0  0
  -26.1099  -21.7780   15.5237 C   0  0  0  0  0  0  0  0  0  0  0  0
  -22.5889  -22.3579   18.6968 C   0  0  0  0  0  0  0  0  0  0  0  0
  -29.2182  -22.2829   15.2209 C   0  0  0  0  0  0  0  0  0  0  0  0
  -31.7696  -28.1609   16.6468 C   0  0  0  0  0  0  0  0  0  0  0  0
  -28.4607  -21.2000   15.9987 C   0  0  0  0  0  0  0  0  0  0  0  0
  -30.6531  -28.1657   17.6882 C   0  0  0  0  0  0  0  0  0  0  0  0
  -30.6351  -26.7820   19.7699 C   0  0  0  0  0  0  0  0  0  0  0  0
  -29.2735  -26.7980   20.4443 C   0  0  0  0  0  0  0  0  0  1  0  0
  -22.9502  -23.9152   22.9891 C   0  0  1  0  0  0  0  0  0  0  0  0
  -23.1541  -20.9275   20.6649 C   0  0  2  0  0  0  0  0  0  0  0  0
  -32.0161  -29.5132   15.9485 C   0  0  0  0  0  0  0  0  0  0  0  0
  -22.5831  -23.7320   24.4889 C   0  0  0  0  0  0  0  0  0  0  0  0
  -27.6147  -17.7695   20.5338 N   0  0  0  0  0  0  0  0  0  0  0  0
  -28.7922  -18.2569   20.1068 N   0  0  0  0  0  0  0  0  0  0  0  0
  -22.9869  -26.0976   21.8231 N   0  0  0  0  0  0  0  0  0  0  0  0
  -27.6731  -21.6964   18.8516 N   0  0  0  0  0  0  0  0  0  0  0  0
  -31.0319  -17.6444   19.6390 N   0  0  0  0  0  0  0  0  0  0  0  0
  -29.1581  -13.7719   21.0132 N   0  0  0  0  0  0  0  0  0  0  0  0
  -21.7307  -29.4912   22.2717 N   0  0  0  0  0  0  0  0  0  0  0  0
  -22.6855  -22.7431   22.1618 N   0  0  0  0  0  0  0  0  0  0  0  0
  -30.4853  -26.8640   18.3350 N   0  0  3  0  0  0  0  0  0  0  0  0
  -27.1788  -21.6827   16.5078 N   0  0  0  0  0  0  0  0  0  0  0  0
  -23.2985  -21.1531   19.1989 N   0  3  0  0  0  0  0  0  0  0  0  0
  -31.1040  -14.7442   20.2876 O   0  0  0  0  0  0  0  0  0  0  0  0
  -22.9619  -27.9831   23.5493 O   0  0  0  0  0  0  0  0  0  0  0  0
  -20.9709  -25.0334   22.3123 O   0  0  0  0  0  0  0  0  0  0  0  0
  -24.8601  -22.4703   21.4042 O   0  0  0  0  0  0  0  0  0  0  0  0
  -26.3086  -23.2963   17.9048 O   0  0  0  0  0  0  0  0  0  0  0  0
  -23.8663  -13.0548   22.5999 O   0  0  0  0  0  0  0  0  0  0  0  0
  -28.5990  -28.0143   20.1249 O   0  0  0  0  0  0  0  0  0  1  0  0
  -23.3900   -8.1275   20.1710 F   0  0  0  0  0  0  0  0  0  0  0  0
  -30.7088  -22.1379   17.6171 F   0  0  0  0  0  0  0  0  0  0  0  0
  -21.5246  -12.3217   21.3263 F   0  0  0  0  0  0  0  0  0  0  0  0
  1  2  1  0  0  0  0
  1  5  2  0  0  0  0
  2  6  2  0  0  0  0
  3 10  2  0  0  0  0
  3 18  1  0  0  0  0
  4 11  1  0  0  0  0
  4 18  2  0  0  0  0
  5 20  1  0  0  0  0
  6 22  1  0  0  0  0
  7 12  2  0  0  0  0
  7 21  1  0  0  0  0
  8  9  2  0  0  0  0
  8 24  1  0  0  0  0
  9 25  1  0  0  0  0
 10 26  1  0  0  0  0
 11 26  2  0  0  0  0
 12 27  1  0  0  0  0
 13 14  2  0  0  0  0
 13 28  1  0  0  0  0
 14 29  1  0  0  0  0
 15 23  1  0  0  0  0
 15 27  2  0  0  0  0
 16 25  2  0  0  0  0
 16 30  1  0  0  0  0
 17 29  2  0  0  0  0
 17 31  1  0  0  0  0
 18 32  1  0  0  0  0
 19 32  1  0  0  0  0
 19 33  2  0  0  0  0
 19 34  1  0  0  0  0
 20 22  2  0  0  0  0
 20 39  1  0  0  0  0
 21 23  2  0  0  0  0
 21 40  1  0  0  0  0
 22 48  1  0  0  0  0
 23 41  1  0  0  0  0
 24 30  2  0  0  0  0
 24 59  1  0  0  0  0
 25 77  1  0  0  0  0
 26 85  1  0  0  0  0
 27 86  1  0  0  0  0
 28 31  2  0  0  0  0
 28 85  1  0  0  0  0
 29 87  1  0  0  0  0
 30 88  1  0  0  0  0
 31 89  1  0  0  0  0
 32 69  2  0  0  0  0
 33 70  1  0  0  0  0
 33 73  1  0  0  0  0
 34 74  1  0  0  0  0
 34 80  2  0  0  0  0
 35 49  1  0  0  0  0
 35 75  1  0  0  0  0
 35 81  2  0  0  0  0
 36 65  1  0  0  0  0
 36 71  1  0  0  0  0
 36 82  2  0  0  0  0
 37 66  1  0  0  0  0
 37 76  1  0  0  0  0
 37 83  2  0  0  0  0
 38 72  1  0  0  0  0
 38 78  1  0  0  0  0
 38 84  2  0  0  0  0
 39 42  1  0  0  0  0
 40 49  1  0  0  0  0
 41 71  1  0  0  0  0
 42 44  1  0  0  0  0
 43 45  1  0  0  0  0
 43 46  1  0  0  0  0
 44 48  1  0  0  0  0
 45 50  1  0  0  0  0
 46 72  1  0  0  0  0
 47 50  1  0  0  0  0
 47 72  1  0  0  0  0
 48 75  1  0  0  0  0
 49 71  1  0  0  0  0
 50 70  1  0  0  0  0
 51 66  1  0  0  0  0
 52 67  1  0  0  0  0
 53 67  1  0  0  0  0
 54 68  1  0  0  0  0
 55 68  1  0  0  0  0
 56 68  1  0  0  0  0
 57 78  1  0  0  0  0
 58 79  1  0  0  0  0
 59 61  1  0  0  0  0
 60 62  1  0  0  0  0
 60 67  1  0  0  0  0
 61 78  1  0  0  0  0
 62 77  1  0  0  0  0
 63 64  1  0  0  0  0
 63 77  1  0  0  0  0
 64 86  1  0  0  0  0
 65 68  1  0  0  0  0
 65 76  1  0  0  0  0
 66 79  1  0  0  0  0
 69 70  1  0  0  0  0
M  CHG  1  79   1
M  ISO  4  38 100  64 101  78 100  86 101
M  END
> <Batch ID>
0019

> <Smiles>
CNC(C)C(=O)NC(C(=O)N1Cc2cc([101O:1][101CH2:1]CN(CCC(C)C)c3ccc(CC[100N:0](C)[100C:0](=O)N4CCCC(n5nc(-c6ccc(Oc7ccc(F)cc7F)cc6)c(C(N)=O)c5N)C4)c(F)c3)ccc2CC1C(=O)NC1CCCc2ccccc21)C(C)(C)C

> <Shape>
0.241

> <Color>
0.072

> <Negative vol penalty>
0.000

$$$$

  -OEChem-04042321053D

 84 92  0     1  0  0  0  0  0999 V2000
  -23.2359  -37.8475   18.6037 C   0  0  0  0  0  0  0  0  0  0  0  0
  -23.5245  -36.6668   17.9270 C   0  0  0  0  0  0  0  0  0  0  0  0
  -23.6406   -9.6286   21.7118 C   0  0  0  0  0  0  0  0  0  0  0  0
  -22.9530  -11.9447   21.7240 C   0  0  0  0  0  0  0  0  0  0  0  0
  -23.7581  -38.0648   19.8780 C   0  0  0  0  0  0  0  0  0  0  0  0
  -24.3365  -35.7030   18.5239 C   0  0  0  0  0  0  0  0  0  0  0  0
  -25.2535  -28.6064   18.8604 C   0  0  0  0  0  0  0  0  0  0  0  0
  -30.6732  -18.8615   21.7529 C   0  0  0  0  0  0  0  0  0  0  0  0
  -30.5730  -17.5584   21.2657 C   0  0  0  0  0  0  0  0  0  0  0  0
  -22.7210   -9.3503   22.7229 C   0  0  0  0  0  0  0  0  0  0  0  0
  -22.0334  -11.6663   22.7351 C   0  0  0  0  0  0  0  0  0  0  0  0
  -26.2462  -27.6400   18.7041 C   0  0  0  0  0  0  0  0  0  0  0  0
  -19.3908   -8.8276   22.9864 C   0  0  0  0  0  0  0  0  0  0  0  0
  -18.6027   -7.6849   22.8493 C   0  0  0  0  0  0  0  0  0  0  0  0
  -27.0277  -28.0896   20.9415 C   0  0  0  0  0  0  0  0  0  0  0  0
  -28.2886  -17.9819   20.6027 C   0  0  0  0  0  0  0  0  0  0  0  0
  -19.5098   -6.8119   24.9114 C   0  0  0  0  0  0  0  0  0  0  0  0
  -23.7567  -10.9258   21.2124 C   0  0  0  0  0  0  0  0  0  0  0  0
  -24.4870  -11.1563   18.7790 C   0  0  0  0  0  0  0  0  0  0  0  0
  -24.5690  -37.0991   20.4948 C   0  0  0  0  0  0  0  0  0  0  0  0
  -25.1471  -29.3305   20.0565 C   0  0  0  0  0  0  0  0  0  0  0  0
  -24.8711  -35.9082   19.8072 C   0  0  0  0  0  0  0  0  0  0  0  0
  -26.0312  -29.0628   21.1115 C   0  0  0  0  0  0  0  0  0  0  0  0
  -29.5811  -19.7249   21.6650 C   0  0  0  0  0  0  0  0  0  0  0  0
  -28.3888  -19.2851   21.0899 C   0  0  0  0  0  0  0  0  0  0  0  0
  -29.3807  -17.1186   20.6906 C   0  0  0  0  0  0  0  0  0  0  0  0
  -21.9173  -10.3691   23.2346 C   0  0  0  0  0  0  0  0  0  0  0  0
  -27.1354  -27.3835   19.7437 C   0  0  0  0  0  0  0  0  0  0  0  0
  -20.2385   -8.9624   24.0860 C   0  0  0  0  0  0  0  0  0  0  0  0
  -18.6622   -6.6771   23.8118 C   0  0  0  0  0  0  0  0  0  0  0  0
  -20.2979   -7.9546   25.0485 C   0  0  0  0  0  0  0  0  0  0  0  0
  -24.7069  -11.2141   20.1683 C   0  0  0  0  0  0  0  0  0  0  0  0
  -25.6909  -11.5175   18.2254 C   0  0  0  0  0  0  0  0  0  0  0  0
  -23.3004  -10.8074   18.0537 C   0  0  0  0  0  0  0  0  0  0  0  0
  -25.3807  -32.3999   20.8489 C   0  0  0  0  0  0  0  0  0  0  0  0
  -24.4395  -31.3184   23.7586 C   0  0  0  0  0  0  0  0  0  0  0  0
  -24.2303  -28.7123   25.9521 C   0  0  0  0  0  0  0  0  0  0  0  0
  -30.2678  -14.8121   20.2011 C   0  0  0  0  0  0  0  0  0  0  0  0
  -25.1491  -37.3992   21.8542 C   0  0  0  0  0  0  0  0  0  0  0  0
  -24.0539  -30.3508   20.2191 C   0  0  0  0  0  0  0  0  0  0  0  0
  -25.9466  -29.7983   22.4231 C   0  0  0  0  0  0  0  0  0  0  0  0
  -25.6948  -36.1659   22.5694 C   0  0  0  0  0  0  0  0  0  0  0  0
  -30.3968  -11.4256   19.1092 C   0  0  0  0  0  0  0  0  0  0  0  0
  -26.5527  -35.3347   21.6208 C   0  0  0  0  0  0  0  0  0  0  0  0
  -28.9317  -10.9837   19.1246 C   0  0  0  0  0  0  0  0  0  0  0  0
  -30.7168  -12.3689   20.2674 C   0  0  0  0  0  0  0  0  0  0  0  0
  -28.3654  -13.0922   20.3976 C   0  0  0  0  0  0  0  0  0  0  0  0
  -25.7277  -34.8281   20.4315 C   0  0  1  0  0  0  0  0  0  0  0  0
  -24.3611  -31.3896   21.2932 C   0  0  1  0  0  0  0  0  0  0  0  0
  -27.9793  -12.1924   19.2123 C   0  0  2  0  0  0  0  0  0  0  0  0
  -27.2073  -20.1923   20.9832 C   0  0  0  0  0  0  0  0  0  0  0  0
  -23.4443  -28.1437   28.2665 C   0  0  0  0  0  0  0  0  0  0  0  0
  -26.8869  -32.7140   24.9301 C   0  0  0  0  0  0  0  0  0  0  0  0
  -26.5828  -31.3512   27.0082 C   0  0  0  0  0  0  0  0  0  0  0  0
  -24.8024  -32.9452   26.2924 C   0  0  0  0  0  0  0  0  0  0  0  0
  -22.2915  -26.7233   24.9303 C   0  0  0  0  0  0  0  0  0  0  0  0
  -31.2307  -22.1219   20.4951 C   0  0  0  0  0  0  0  0  0  0  0  0
  -29.7126  -21.1217   22.1967 C   0  0  0  0  0  0  0  0  0  0  0  0
  -28.9979  -24.3580   20.3790 C   0  0  0  0  0  0  0  0  0  0  0  0
  -29.4612  -23.5153   21.5578 C   0  0  0  0  0  0  0  0  0  0  0  0
  -28.5326  -25.7554   20.7698 C   0  0  0  0  0  0  0  0  0  1  0  0
  -25.1481  -30.8063   24.9894 C   0  0  1  0  0  0  0  0  0  0  0  0
  -23.0773  -28.1922   26.7914 C   0  0  2  0  0  0  0  0  0  0  0  0
  -25.8581  -31.9415   25.7797 C   0  0  0  0  0  0  0  0  0  0  0  0
  -25.9527  -11.5828   20.4782 N   0  0  0  0  0  0  0  0  0  0  0  0
  -26.5264  -11.7599   19.2759 N   0  0  0  0  0  0  0  0  0  0  0  0
  -24.8646  -30.7909   22.5311 N   0  0  0  0  0  0  0  0  0  0  0  0
  -29.7769  -13.4919   20.2848 N   0  0  0  0  0  0  0  0  0  0  0  0
  -26.1059  -11.6481   16.9475 N   0  0  0  0  0  0  0  0  0  0  0  0
  -22.1517  -10.4618   18.7785 N   0  0  0  0  0  0  0  0  0  0  0  0
  -29.2791  -15.7955   20.1938 N   0  0  0  0  0  0  0  0  0  0  0  0
  -24.9121  -33.6997   20.8262 N   0  0  0  0  0  0  0  0  0  0  0  0
  -24.1490  -30.0754   25.7613 N   0  0  0  0  0  0  0  0  0  0  0  0
  -22.6981  -26.8183   26.3560 N   0  3  0  0  0  0  0  0  0  0  0  0
  -29.8513  -22.1585   21.1079 N   0  3  1  0  0  0  0  0  0  0  0  0
  -23.2647  -10.7863   16.8000 O   0  0  0  0  0  0  0  0  0  0  0  0
  -26.5095  -32.0279   20.5502 O   0  0  0  0  0  0  0  0  0  0  0  0
  -23.5371  -32.1502   23.8825 O   0  0  0  0  0  0  0  0  0  0  0  0
  -25.1167  -27.9828   25.5131 O   0  0  0  0  0  0  0  0  0  0  0  0
  -31.4749  -15.0512   20.1131 O   0  0  0  0  0  0  0  0  0  0  0  0
  -21.0197  -10.0978   24.2211 O   0  0  0  0  0  0  0  0  0  0  0  0
  -28.1057  -26.4413   19.5935 O   0  0  0  0  0  0  0  0  0  1  0  0
  -17.9041   -5.5806   23.6808 F   0  0  0  0  0  0  0  0  0  0  0  0
  -21.1095   -8.0790   26.1076 F   0  0  0  0  0  0  0  0  0  0  0  0
  1  2  1  0  0  0  0
  1  5  2  0  0  0  0
  2  6  2  0  0  0  0
  3 10  2  0  0  0  0
  3 18  1  0  0  0  0
  4 11  1  0  0  0  0
  4 18  2  0  0  0  0
  5 20  1  0  0  0  0
  6 22  1  0  0  0  0
  7 12  2  0  0  0  0
  7 21  1  0  0  0  0
  8  9  2  0  0  0  0
  8 24  1  0  0  0  0
  9 26  1  0  0  0  0
 10 27  1  0  0  0  0
 11 27  2  0  0  0  0
 12 28  1  0  0  0  0
 13 14  2  0  0  0  0
 13 29  1  0  0  0  0
 14 30  1  0  0  0  0
 15 23  1  0  0  0  0
 15 28  2  0  0  0  0
 16 25  1  0  0  0  0
 16 26  2  0  0  0  0
 17 30  2  0  0  0  0
 17 31  1  0  0  0  0
 18 32  1  0  0  0  0
 19 32  1  0  0  0  0
 19 33  2  0  0  0  0
 19 34  1  0  0  0  0
 20 22  2  0  0  0  0
 20 39  1  0  0  0  0
 21 23  2  0  0  0  0
 21 40  1  0  0  0  0
 22 48  1  0  0  0  0
 23 41  1  0  0  0  0
 24 25  2  0  0  0  0
 24 58  1  0  0  0  0
 25 51  1  0  0  0  0
 26 71  1  0  0  0  0
 27 81  1  0  0  0  0
 28 82  1  0  0  0  0
 29 31  2  0  0  0  0
 29 81  1  0  0  0  0
 30 83  1  0  0  0  0
 31 84  1  0  0  0  0
 32 65  2  0  0  0  0
 33 66  1  0  0  0  0
 33 69  1  0  0  0  0
 34 70  1  0  0  0  0
 34 76  2  0  0  0  0
 35 49  1  0  0  0  0
 35 72  1  0  0  0  0
 35 77  2  0  0  0  0
 36 62  1  0  0  0  0
 36 67  1  0  0  0  0
 36 78  2  0  0  0  0
 37 63  1  0  0  0  0
 37 73  1  0  0  0  0
 37 79  2  0  0  0  0
 38 68  1  0  0  0  0
 38 71  1  0  0  0  0
 38 80  2  0  0  0  0
 39 42  1  0  0  0  0
 40 49  1  0  0  0  0
 41 67  1  0  0  0  0
 42 44  1  0  0  0  0
 43 45  1  0  0  0  0
 43 46  1  0  0  0  0
 44 48  1  0  0  0  0
 45 50  1  0  0  0  0
 46 68  1  0  0  0  0
 47 50  1  0  0  0  0
 47 68  1  0  0  0  0
 48 72  1  0  0  0  0
 49 67  1  0  0  0  0
 50 66  1  0  0  0  0
 52 63  1  0  0  0  0
 53 64  1  0  0  0  0
 54 64  1  0  0  0  0
 55 64  1  0  0  0  0
 56 74  1  0  0  0  0
 57 75  1  0  0  0  0
 58 75  1  0  0  0  0
 59 60  1  0  0  0  0
 59 61  1  0  0  0  0
 60 75  1  0  0  0  0
 61 82  1  0  0  0  0
 62 64  1  0  0  0  0
 62 73  1  0  0  0  0
 63 74  1  0  0  0  0
 65 66  1  0  0  0  0
M  CHG  2  74   1  75   1
M  ISO  4  38 100  61 101  71 100  82 101
M  END
> <Batch ID>
0019

> <Smiles>
CNC(C)C(=O)NC(C(=O)N1Cc2cc([101O:1][101CH2:1]CCN(C)Cc3ccc([100NH:0][100C:0](=O)N4CCCC(n5nc(-c6ccc(Oc7ccc(F)cc7F)cc6)c(C(N)=O)c5N)C4)cc3C)ccc2CC1C(=O)NC1CCCc2ccccc21)C(C)(C)C

> <Shape>
0.270

> <Color>
0.126

> <Negative vol penalty>
0.000

$$$$

  -OEChem-04042321053D

 96105  0     1  0  0  0  0  0999 V2000
  -28.1014  -35.7747   21.2956 C   0  0  0  0  0  0  0  0  0  0  0  0
  -28.3336  -34.4078   21.4110 C   0  0  0  0  0  0  0  0  0  0  0  0
  -21.5233   -4.9646   22.4443 C   0  0  0  0  0  0  0  0  0  0  0  0
  -22.8366   -6.7395   23.4250 C   0  0  0  0  0  0  0  0  0  0  0  0
  -28.1495  -13.7635   20.3346 C   0  0  0  0  0  0  0  0  0  0  0  0
  -26.8822  -36.3107   21.7082 C   0  0  0  0  0  0  0  0  0  0  0  0
  -27.3471  -33.5764   21.9401 C   0  0  0  0  0  0  0  0  0  0  0  0
  -26.7400  -29.3280   19.2516 C   0  0  0  0  0  0  0  0  0  0  0  0
  -27.6224  -12.4775   20.2165 C   0  0  0  0  0  0  0  0  0  0  0  0
  -21.2217   -4.4837   23.7184 C   0  0  0  0  0  0  0  0  0  0  0  0
  -22.5350   -6.2586   24.6992 C   0  0  0  0  0  0  0  0  0  0  0  0
  -27.6817  -28.3169   19.4374 C   0  0  0  0  0  0  0  0  0  0  0  0
  -19.1083   -5.2642   26.2398 C   0  0  0  0  0  0  0  0  0  0  0  0
  -17.7848   -4.9114   26.5030 C   0  0  0  0  0  0  0  0  0  0  0  0
  -26.1499  -27.1681   20.9047 C   0  0  0  0  0  0  0  0  0  0  0  0
  -29.4027  -11.8877   18.6933 C   0  0  0  0  0  0  0  0  0  0  0  0
  -18.4839   -2.6500   26.9873 C   0  0  0  0  0  0  0  0  0  0  0  0
  -22.3308   -6.0925   22.2976 C   0  0  0  0  0  0  0  0  0  0  0  0
  -29.3031  -14.1116   19.6319 C   0  0  0  0  0  0  0  0  0  0  0  0
  -21.7343   -7.0383   20.0047 C   0  0  0  0  0  0  0  0  0  0  0  0
  -25.8767  -35.4840   22.2337 C   0  0  0  0  0  0  0  0  0  0  0  0
  -25.4982  -29.2721   19.9007 C   0  0  0  0  0  0  0  0  0  0  0  0
  -26.1139  -34.1020   22.3613 C   0  0  0  0  0  0  0  0  0  0  0  0
  -25.1932  -28.1785   20.7235 C   0  0  0  0  0  0  0  0  0  0  0  0
  -28.2490  -11.5395   19.3960 C   0  0  0  0  0  0  0  0  0  0  0  0
  -21.7276   -5.1307   24.8458 C   0  0  0  0  0  0  0  0  0  0  0  0
  -27.3879  -27.2381   20.2663 C   0  0  0  0  0  0  0  0  0  0  0  0
  -20.1197   -4.3098   26.3502 C   0  0  0  0  0  0  0  0  0  0  0  0
  -17.4725   -3.6043   26.8768 C   0  0  0  0  0  0  0  0  0  0  0  0
  -29.9297  -13.1737   18.8114 C   0  0  0  0  0  0  0  0  0  0  0  0
  -19.8075   -3.0028   26.7240 C   0  0  0  0  0  0  0  0  0  0  0  0
  -22.6431   -6.5895   20.9817 C   0  0  0  0  0  0  0  0  0  0  0  0
  -22.5247   -7.4021   18.9419 C   0  0  0  0  0  0  0  0  0  0  0  0
  -29.8540  -15.4704   19.7574 C   0  0  0  0  0  0  0  0  0  0  0  0
  -20.3037   -7.1193   20.0535 C   0  0  0  0  0  0  0  0  0  0  0  0
  -23.9968  -31.0917   22.0311 C   0  0  0  0  0  0  0  0  0  0  0  0
  -21.5437  -29.0444   21.4715 C   0  0  0  0  0  0  0  0  0  0  0  0
  -20.5259  -25.9587   20.4280 C   0  0  0  0  0  0  0  0  0  0  0  0
  -28.2117   -9.1833   18.5053 C   0  0  0  0  0  0  0  0  0  0  0  0
  -24.5927  -36.1158   22.7102 C   0  0  0  0  0  0  0  0  0  0  0  0
  -24.4829  -30.3574   19.6688 C   0  0  0  0  0  0  0  0  0  0  0  0
  -23.8667  -28.0611   21.4272 C   0  0  0  0  0  0  0  0  0  0  0  0
  -23.4592  -35.1136   22.9125 C   0  0  0  0  0  0  0  0  0  0  0  0
  -26.7254   -6.3865   16.8786 C   0  0  0  0  0  0  0  0  0  0  0  0
  -23.9558  -33.8941   23.6825 C   0  0  0  0  0  0  0  0  0  0  0  0
  -25.4242   -6.1658   17.6535 C   0  0  0  0  0  0  0  0  0  0  0  0
  -28.7126  -18.7139   20.4915 C   0  0  0  0  0  0  0  0  0  0  0  0
  -29.6507  -18.5852   18.1395 C   0  0  0  0  0  0  0  0  0  0  0  0
  -29.2059  -20.1585   20.6070 C   0  0  0  0  0  0  0  0  0  0  0  0
  -30.1426  -20.0300   18.2590 C   0  0  0  0  0  0  0  0  0  0  0  0
  -27.8643   -6.8271   17.7965 C   0  0  0  0  0  0  0  0  0  0  0  0
  -26.2651   -7.7701   19.4159 C   0  0  0  0  0  0  0  0  0  0  0  0
  -25.0592  -33.1640   22.9072 C   0  0  1  0  0  0  0  0  0  0  0  0
  -23.4479  -30.4559   20.7852 C   0  0  1  0  0  0  0  0  0  0  0  0
  -25.0725   -7.3881   18.5240 C   0  0  2  0  0  0  0  0  0  0  0  0
  -29.5658  -17.9054   19.5094 C   0  0  0  0  0  0  0  0  0  0  0  0
  -29.2973  -20.8561   19.2409 C   0  0  0  0  0  0  0  0  0  0  0  0
  -27.9139  -21.1915   18.6706 C   0  0  0  0  0  0  0  0  0  0  0  0
  -18.4618  -24.5654   20.1186 C   0  0  0  0  0  0  0  0  0  0  0  0
  -29.6415  -24.2923   23.3975 C   0  0  0  0  0  0  0  0  0  0  0  0
  -21.4068  -28.5826   24.4845 C   0  0  0  0  0  0  0  0  0  0  0  0
  -20.0324  -26.5380   24.0383 C   0  0  0  0  0  0  0  0  0  0  0  0
  -19.1831  -28.7826   23.3577 C   0  0  0  0  0  0  0  0  0  0  0  0
  -27.6951  -16.4379   18.8418 C   0  0  0  0  0  0  0  0  0  0  0  0
  -20.9936  -25.7041   17.5167 C   0  0  0  0  0  0  0  0  0  0  0  0
  -30.2515  -22.8637   18.1334 C   0  0  0  0  0  0  0  0  0  0  0  0
  -30.2635  -24.0957   20.9765 C   0  0  0  0  0  0  0  0  0  0  0  0
  -29.3118  -23.0348   20.4330 C   0  0  0  0  0  0  0  0  0  0  0  0
  -28.2866  -25.5711   21.7048 C   0  0  0  0  0  0  0  0  0  1  0  0
  -21.0876  -27.7343   22.0669 C   0  0  1  0  0  0  0  0  0  0  0  0
  -19.4361  -25.5308   19.4617 C   0  0  2  0  0  0  0  0  0  0  0  0
  -29.6802  -25.0338   22.0552 C   0  0  1  0  0  0  0  0  0  0  0  0
  -20.4533  -27.9122   23.4753 C   0  0  0  0  0  0  0  0  0  0  0  0
  -23.9135   -6.6605   20.5756 N   0  0  0  0  0  0  0  0  0  0  0  0
  -23.8088   -7.1582   19.3316 N   0  0  0  0  0  0  0  0  0  0  0  0
  -22.9096  -29.1507   21.1736 N   0  0  0  0  0  0  0  0  0  0  0  0
  -27.4603   -7.9919   18.5870 N   0  0  0  0  0  0  0  0  0  0  0  0
  -22.2396   -7.9036   17.7214 N   0  0  0  0  0  0  0  0  0  0  0  0
  -19.6505   -6.7043   21.2220 N   0  0  0  0  0  0  0  0  0  0  0  0
  -27.7135  -10.2332   19.2762 N   0  0  0  0  0  0  0  0  0  0  0  0
  -24.4871  -32.3696   21.8414 N   0  0  0  0  0  0  0  0  0  0  0  0
  -20.1979  -27.1267   21.0833 N   0  0  0  0  0  0  0  0  0  0  0  0
  -29.0543  -16.5615   19.3788 N   0  0  0  0  0  0  0  0  0  0  0  0
  -20.0326  -24.8598   18.2722 N   0  3  0  0  0  0  0  0  0  0  0  0
  -29.9998  -22.1672   19.4494 N   0  3  1  0  0  0  0  0  0  0  0  0
  -30.9957  -15.5555   20.2082 O   0  0  0  0  0  0  0  0  0  0  0  0
  -19.6236   -7.5315   19.0834 O   0  0  0  0  0  0  0  0  0  0  0  0
  -23.9755  -30.4696   23.0866 O   0  0  0  0  0  0  0  0  0  0  0  0
  -20.7171  -29.9380   21.2714 O   0  0  0  0  0  0  0  0  0  0  0  0
  -21.5628  -25.3186   20.5884 O   0  0  0  0  0  0  0  0  0  0  0  0
  -29.2070   -9.2746   17.7821 O   0  0  0  0  0  0  0  0  0  0  0  0
  -21.4333   -4.6618   26.0893 O   0  0  0  0  0  0  0  0  0  0  0  0
  -28.3055  -26.2502   20.4499 O   0  0  0  0  0  0  0  0  0  1  0  0
  -16.2017   -3.2661   27.1311 F   0  0  0  0  0  0  0  0  0  0  0  0
  -31.0388  -13.4974   18.1311 F   0  0  0  0  0  0  0  0  0  0  0  0
  -20.7749   -2.0819   26.8329 F   0  0  0  0  0  0  0  0  0  0  0  0
  1  2  1  0  0  0  0
  1  6  2  0  0  0  0
  2  7  2  0  0  0  0
  3 10  2  0  0  0  0
  3 18  1  0  0  0  0
  4 11  1  0  0  0  0
  4 18  2  0  0  0  0
  5  9  2  0  0  0  0
  5 19  1  0  0  0  0
  6 21  1  0  0  0  0
  7 23  1  0  0  0  0
  8 12  2  0  0  0  0
  8 22  1  0  0  0  0
  9 25  1  0  0  0  0
 10 26  1  0  0  0  0
 11 26  2  0  0  0  0
 12 27  1  0  0  0  0
 13 14  2  0  0  0  0
 13 28  1  0  0  0  0
 14 29  1  0  0  0  0
 15 24  1  0  0  0  0
 15 27  2  0  0  0  0
 16 25  2  0  0  0  0
 16 30  1  0  0  0  0
 17 29  2  0  0  0  0
 17 31  1  0  0  0  0
 18 32  1  0  0  0  0
 19 30  2  0  0  0  0
 19 34  1  0  0  0  0
 20 32  1  0  0  0  0
 20 33  2  0  0  0  0
 20 35  1  0  0  0  0
 21 23  2  0  0  0  0
 21 40  1  0  0  0  0
 22 24  2  0  0  0  0
 22 41  1  0  0  0  0
 23 53  1  0  0  0  0
 24 42  1  0  0  0  0
 25 80  1  0  0  0  0
 26 92  1  0  0  0  0
 27 93  1  0  0  0  0
 28 31  2  0  0  0  0
 28 92  1  0  0  0  0
 29 94  1  0  0  0  0
 30 95  1  0  0  0  0
 31 96  1  0  0  0  0
 32 74  2  0  0  0  0
 33 75  1  0  0  0  0
 33 78  1  0  0  0  0
 34 83  1  0  0  0  0
 34 86  2  0  0  0  0
 35 79  1  0  0  0  0
 35 87  2  0  0  0  0
 36 54  1  0  0  0  0
 36 81  1  0  0  0  0
 36 88  2  0  0  0  0
 37 70  1  0  0  0  0
 37 76  1  0  0  0  0
 37 89  2  0  0  0  0
 38 71  1  0  0  0  0
 38 82  1  0  0  0  0
 38 90  2  0  0  0  0
 39 77  1  0  0  0  0
 39 80  1  0  0  0  0
 39 91  2  0  0  0  0
 40 43  1  0  0  0  0
 41 54  1  0  0  0  0
 42 76  1  0  0  0  0
 43 45  1  0  0  0  0
 44 46  1  0  0  0  0
 44 51  1  0  0  0  0
 45 53  1  0  0  0  0
 46 55  1  0  0  0  0
 47 49  1  0  0  0  0
 47 56  1  0  0  0  0
 48 50  1  0  0  0  0
 48 56  1  0  0  0  0
 49 57  1  0  0  0  0
 50 57  1  0  0  0  0
 51 77  1  0  0  0  0
 52 55  1  0  0  0  0
 52 77  1  0  0  0  0
 53 81  1  0  0  0  0
 54 76  1  0  0  0  0
 55 75  1  0  0  0  0
 56 83  1  0  0  0  0
 57 58  1  0  0  0  0
 57 85  1  0  0  0  0
 59 71  1  0  0  0  0
 60 72  1  0  0  0  0
 61 73  1  0  0  0  0
 62 73  1  0  0  0  0
 63 73  1  0  0  0  0
 64 83  1  0  0  0  0
 65 84  1  0  0  0  0
 66 85  1  0  0  0  0
 67 68  1  0  0  0  0
 67 72  1  0  0  0  0
 68 85  1  0  0  0  0
 69 72  1  0  0  0  0
 69 93  1  0  0  0  0
 70 73  1  0  0  0  0
 70 82  1  0  0  0  0
 71 84  1  0  0  0  0
 74 75  1  0  0  0  0
M  CHG  2  84   1  85   1
M  ISO  4  39 100  69 101  80 100  93 101
M  END
> <Batch ID>
0019

> <Smiles>
CNC(C)C(=O)NC(C(=O)N1Cc2cc([101O:1][101CH2:1]C(C)CCN(C)C3(C)CCC(N(C)C(=O)c4ccc([100NH:0][100C:0](=O)N5CCCC(n6nc(-c7ccc(Oc8ccc(F)cc8F)cc7)c(C(N)=O)c6N)C5)cc4F)CC3)ccc2CC1C(=O)NC1CCCc2ccccc21)C(C)(C)C

> <Shape>
0.293

> <Color>
0.069

> <Negative vol penalty>
0.000

$$$$

  -OEChem-04042321053D

 85 93  0     1  0  0  0  0  0999 V2000
  -16.8325  -28.9334   24.2448 C   0  0  0  0  0  0  0  0  0  0  0  0
  -17.2348  -28.1415   23.1741 C   0  0  0  0  0  0  0  0  0  0  0  0
  -25.8268  -14.0525   20.6700 C   0  0  0  0  0  0  0  0  0  0  0  0
  -23.4974  -13.9081   21.2946 C   0  0  0  0  0  0  0  0  0  0  0  0
  -17.5580  -30.0772   24.5757 C   0  0  0  0  0  0  0  0  0  0  0  0
  -18.3622  -28.4935   22.4329 C   0  0  0  0  0  0  0  0  0  0  0  0
  -22.3958  -24.6872   19.8350 C   0  0  0  0  0  0  0  0  0  0  0  0
  -28.4576  -21.3435   18.9565 C   0  0  0  0  0  0  0  0  0  0  0  0
  -28.5872  -21.0129   20.3054 C   0  0  0  0  0  0  0  0  0  0  0  0
  -26.0052  -12.7157   21.0260 C   0  0  0  0  0  0  0  0  0  0  0  0
  -23.6758  -12.5712   21.6506 C   0  0  0  0  0  0  0  0  0  0  0  0
  -22.5349  -24.2160   18.5303 C   0  0  0  0  0  0  0  0  0  0  0  0
  -23.9024   -9.5865   20.0819 C   0  0  0  0  0  0  0  0  0  0  0  0
  -22.9397   -8.6706   19.6579 C   0  0  0  0  0  0  0  0  0  0  0  0
  -24.1555  -25.9463   18.0845 C   0  0  0  0  0  0  0  0  0  0  0  0
  -26.6754  -22.8800   19.5045 C   0  0  0  0  0  0  0  0  0  0  0  0
  -22.4675   -8.1019   21.9581 C   0  0  0  0  0  0  0  0  0  0  0  0
  -24.5729  -14.6487   20.8043 C   0  0  0  0  0  0  0  0  0  0  0  0
  -24.0184  -16.5317   19.1751 C   0  0  0  0  0  0  0  0  0  0  0  0
  -18.7005  -30.4381   23.8442 C   0  0  0  0  0  0  0  0  0  0  0  0
  -23.1287  -25.8002   20.2717 C   0  0  0  0  0  0  0  0  0  0  0  0
  -19.1029  -29.6438   22.7535 C   0  0  0  0  0  0  0  0  0  0  0  0
  -24.0258  -26.4281   19.3960 C   0  0  0  0  0  0  0  0  0  0  0  0
  -27.5017  -22.2772   18.5561 C   0  0  0  0  0  0  0  0  0  0  0  0
  -27.7610  -21.6157   21.2538 C   0  0  0  0  0  0  0  0  0  0  0  0
  -24.9297  -11.9750   21.5163 C   0  0  0  0  0  0  0  0  0  0  0  0
  -23.4127  -24.8472   17.6539 C   0  0  0  0  0  0  0  0  0  0  0  0
  -24.1477   -9.7602   21.4441 C   0  0  0  0  0  0  0  0  0  0  0  0
  -22.2223   -7.9283   20.5959 C   0  0  0  0  0  0  0  0  0  0  0  0
  -26.8051  -22.5493   20.8534 C   0  0  0  0  0  0  0  0  0  0  0  0
  -23.4303   -9.0179   22.3821 C   0  0  0  0  0  0  0  0  0  0  0  0
  -24.3882  -16.0297   20.4373 C   0  0  0  0  0  0  0  0  0  0  0  0
  -23.9788  -17.8940   19.3456 C   0  0  0  0  0  0  0  0  0  0  0  0
  -23.7359  -15.8294   17.9575 C   0  0  0  0  0  0  0  0  0  0  0  0
  -22.3819  -28.7012   21.3347 C   0  0  0  0  0  0  0  0  0  0  0  0
  -25.5755  -28.9033   21.8659 C   0  0  0  0  0  0  0  0  0  0  0  0
  -28.7168  -27.8240   21.0824 C   0  0  0  0  0  0  0  0  0  0  0  0
  -26.8244  -21.3029   23.5595 C   0  0  0  0  0  0  0  0  0  0  0  0
  -19.4251  -31.7092   24.2100 C   0  0  0  0  0  0  0  0  0  0  0  0
  -22.9871  -26.2798   21.6903 C   0  0  0  0  0  0  0  0  0  0  0  0
  -24.8508  -27.6141   19.8218 C   0  0  0  0  0  0  0  0  0  0  0  0
  -20.8244  -31.8075   23.6078 C   0  0  0  0  0  0  0  0  0  0  0  0
  -23.2352  -21.2568   22.6603 C   0  0  0  0  0  0  0  0  0  0  0  0
  -20.7976  -31.4287   22.1304 C   0  0  0  0  0  0  0  0  0  0  0  0
  -23.0796  -19.9112   21.9540 C   0  0  0  0  0  0  0  0  0  0  0  0
  -24.3554  -21.2268   23.6956 C   0  0  0  0  0  0  0  0  0  0  0  0
  -25.5153  -19.4396   22.4299 C   0  0  0  0  0  0  0  0  0  0  0  0
  -20.3348  -29.9790   21.9409 C   0  0  1  0  0  0  0  0  0  0  0  0
  -23.4009  -27.7368   21.8725 C   0  0  1  0  0  0  0  0  0  0  0  0
  -24.4198  -19.4557   21.3534 C   0  0  1  0  0  0  0  0  0  0  0  0
  -31.2104  -27.5974   21.2499 C   0  0  0  0  0  0  0  0  0  0  0  0
  -25.5554  -31.4867   20.2424 C   0  0  0  0  0  0  0  0  0  0  0  0
  -28.0444  -31.3007   20.0460 C   0  0  0  0  0  0  0  0  0  0  0  0
  -26.9876  -31.5534   22.2915 C   0  0  0  0  0  0  0  0  0  0  0  0
  -29.2468  -21.1358   23.1910 C   0  0  0  0  0  0  0  0  0  0  0  0
  -28.5008  -25.6025   23.0259 C   0  0  0  0  0  0  0  0  0  0  0  0
  -26.3460  -20.5402   16.2144 C   0  0  0  0  0  0  0  0  0  0  0  0
  -27.3613  -22.6322   17.1051 C   0  0  0  0  0  0  0  0  0  0  0  0
  -24.2211  -22.5440   15.0026 C   0  0  0  0  0  0  0  0  0  0  0  0
  -25.7096  -22.7440   15.2450 C   0  0  0  0  0  0  0  0  0  0  0  0
  -23.3448  -22.9938   16.1652 C   0  0  0  0  0  0  0  0  0  1  0  0
  -26.7670  -29.3576   21.0579 C   0  0  1  0  0  0  0  0  0  0  0  0
  -29.8797  -27.3893   21.9560 C   0  0  2  0  0  0  0  0  0  0  0  0
  -26.8218  -30.9035   20.9005 C   0  0  0  0  0  0  0  0  0  0  0  0
  -24.5707  -16.9946   21.3427 N   0  0  0  0  0  0  0  0  0  0  0  0
  -24.3146  -18.1165   20.6487 N   0  0  0  0  0  0  0  0  0  0  0  0
  -24.6724  -28.0495   21.2168 N   0  0  0  0  0  0  0  0  0  0  0  0
  -25.6097  -20.7343   23.1241 N   0  0  0  0  0  0  0  0  0  0  0  0
  -23.6900  -18.9113   18.5065 N   0  0  0  0  0  0  0  0  0  0  0  0
  -23.8234  -14.4306   17.9573 N   0  0  0  0  0  0  0  0  0  0  0  0
  -21.4102  -29.0608   22.2490 N   0  0  0  0  0  0  0  0  0  0  0  0
  -27.9416  -28.7806   21.7028 N   0  0  0  0  0  0  0  0  0  0  0  0
  -27.8970  -21.2714   22.6480 N   0  0  0  0  0  0  0  0  0  0  0  0
  -29.7538  -25.9461   22.3056 N   0  3  0  0  0  0  0  0  0  0  0  0
  -26.1429  -22.0159   16.4605 N   0  3  1  0  0  0  0  0  0  0  0  0
  -23.4314  -16.4257   16.8967 O   0  0  0  0  0  0  0  0  0  0  0  0
  -22.4714  -29.0914   20.1765 O   0  0  0  0  0  0  0  0  0  0  0  0
  -25.4544  -29.2860   23.0323 O   0  0  0  0  0  0  0  0  0  0  0  0
  -28.5184  -27.3637   19.9602 O   0  0  0  0  0  0  0  0  0  0  0  0
  -26.9617  -21.7576   24.7018 O   0  0  0  0  0  0  0  0  0  0  0  0
  -25.1033  -10.6705   21.8635 O   0  0  0  0  0  0  0  0  0  0  0  0
  -23.5499  -24.3897   16.3797 O   0  0  0  0  0  0  0  0  0  1  0  0
  -21.2968   -7.0498   20.1886 F   0  0  0  0  0  0  0  0  0  0  0  0
  -26.0046  -23.1339   21.7561 F   0  0  0  0  0  0  0  0  0  0  0  0
  -23.6607   -9.1812   23.6921 F   0  0  0  0  0  0  0  0  0  0  0  0
  1  2  1  0  0  0  0
  1  5  2  0  0  0  0
  2  6  2  0  0  0  0
  3 10  2  0  0  0  0
  3 18  1  0  0  0  0
  4 11  1  0  0  0  0
  4 18  2  0  0  0  0
  5 20  1  0  0  0  0
  6 22  1  0  0  0  0
  7 12  2  0  0  0  0
  7 21  1  0  0  0  0
  8  9  2  0  0  0  0
  8 24  1  0  0  0  0
  9 25  1  0  0  0  0
 10 26  1  0  0  0  0
 11 26  2  0  0  0  0
 12 27  1  0  0  0  0
 13 14  2  0  0  0  0
 13 28  1  0  0  0  0
 14 29  1  0  0  0  0
 15 23  1  0  0  0  0
 15 27  2  0  0  0  0
 16 24  2  0  0  0  0
 16 30  1  0  0  0  0
 17 29  2  0  0  0  0
 17 31  1  0  0  0  0
 18 32  1  0  0  0  0
 19 32  1  0  0  0  0
 19 33  2  0  0  0  0
 19 34  1  0  0  0  0
 20 22  2  0  0  0  0
 20 39  1  0  0  0  0
 21 23  2  0  0  0  0
 21 40  1  0  0  0  0
 22 48  1  0  0  0  0
 23 41  1  0  0  0  0
 24 58  1  0  0  0  0
 25 30  2  0  0  0  0
 25 73  1  0  0  0  0
 26 81  1  0  0  0  0
 27 82  1  0  0  0  0
 28 31  2  0  0  0  0
 28 81  1  0  0  0  0
 29 83  1  0  0  0  0
 30 84  1  0  0  0  0
 31 85  1  0  0  0  0
 32 65  2  0  0  0  0
 33 66  1  0  0  0  0
 33 69  1  0  0  0  0
 34 70  1  0  0  0  0
 34 76  2  0  0  0  0
 35 49  1  0  0  0  0
 35 71  1  0  0  0  0
 35 77  2  0  0  0  0
 36 62  1  0  0  0  0
 36 67  1  0  0  0  0
 36 78  2  0  0  0  0
 37 63  1  0  0  0  0
 37 72  1  0  0  0  0
 37 79  2  0  0  0  0
 38 68  1  0  0  0  0
 38 73  1  0  0  0  0
 38 80  2  0  0  0  0
 39 42  1  0  0  0  0
 40 49  1  0  0  0  0
 41 67  1  0  0  0  0
 42 44  1  0  0  0  0
 43 45  1  0  0  0  0
 43 46  1  0  0  0  0
 44 48  1  0  0  0  0
 45 50  1  0  0  0  0
 46 68  1  0  0  0  0
 47 50  1  0  0  0  0
 47 68  1  0  0  0  0
 48 71  1  0  0  0  0
 49 67  1  0  0  0  0
 50 66  1  0  0  0  0
 51 63  1  0  0  0  0
 52 64  1  0  0  0  0
 53 64  1  0  0  0  0
 54 64  1  0  0  0  0
 55 73  1  0  0  0  0
 56 74  1  0  0  0  0
 57 75  1  0  0  0  0
 58 75  1  0  0  0  0
 59 60  1  0  0  0  0
 59 61  1  0  0  0  0
 60 75  1  0  0  0  0
 61 82  1  0  0  0  0
 62 64  1  0  0  0  0
 62 72  1  0  0  0  0
 63 74  1  0  0  0  0
 65 66  1  0  0  0  0
M  CHG  2  74   1  75   1
M  ISO  4  38 100  61 101  73 100  82 101
M  END
> <Batch ID>
0019

> <Smiles>
CNC(C)C(=O)NC(C(=O)N1Cc2cc([101O:1][101CH2:1]CCN(C)Cc3ccc([100N:0](C)[100C:0](=O)N4CCCC(n5nc(-c6ccc(Oc7ccc(F)cc7F)cc6)c(C(N)=O)c5N)C4)c(F)c3)ccc2CC1C(=O)NC1CCCc2ccccc21)C(C)(C)C

> <Shape>
0.216

> <Color>
0.075

> <Negative vol penalty>
0.000

$$$$

  -OEChem-04042321053D

 81 89  0     1  0  0  0  0  0999 V2000
  -14.6975  -23.0995   22.3102 C   0  0  0  0  0  0  0  0  0  0  0  0
  -15.8527  -22.8410   21.5794 C   0  0  0  0  0  0  0  0  0  0  0  0
  -26.5377  -12.6343   21.6690 C   0  0  0  0  0  0  0  0  0  0  0  0
  -26.0095  -13.7639   19.5997 C   0  0  0  0  0  0  0  0  0  0  0  0
  -14.4108  -24.4004   22.7218 C   0  0  0  0  0  0  0  0  0  0  0  0
  -16.7215  -23.8836   21.2589 C   0  0  0  0  0  0  0  0  0  0  0  0
  -22.8259  -23.5975   20.8586 C   0  0  0  0  0  0  0  0  0  0  0  0
  -28.0291  -22.4191   17.4041 C   0  0  0  0  0  0  0  0  0  0  0  0
  -28.3985  -23.8456   19.3186 C   0  0  0  0  0  0  0  0  0  0  0  0
  -28.5671  -21.3396   18.1046 C   0  0  0  0  0  0  0  0  0  0  0  0
  -28.9365  -22.7661   20.0192 C   0  0  0  0  0  0  0  0  0  0  0  0
  -25.2752  -12.0414   21.6677 C   0  0  0  0  0  0  0  0  0  0  0  0
  -24.7469  -13.1710   19.5983 C   0  0  0  0  0  0  0  0  0  0  0  0
  -23.6894  -23.4629   19.7724 C   0  0  0  0  0  0  0  0  0  0  0  0
  -22.3242   -9.9480   22.0210 C   0  0  0  0  0  0  0  0  0  0  0  0
  -22.2463   -8.5877   22.3191 C   0  0  0  0  0  0  0  0  0  0  0  0
  -23.9794  -25.8570   19.7139 C   0  0  0  0  0  0  0  0  0  0  0  0
  -23.6614   -8.0915   20.4248 C   0  0  0  0  0  0  0  0  0  0  0  0
  -26.9049  -13.4956   20.6350 C   0  0  0  0  0  0  0  0  0  0  0  0
  -29.3875  -13.6010   20.0578 C   0  0  0  0  0  0  0  0  0  0  0  0
  -15.2814  -25.4578   22.4145 C   0  0  0  0  0  0  0  0  0  0  0  0
  -22.5237  -24.8659   21.3747 C   0  0  0  0  0  0  0  0  0  0  0  0
  -16.4456  -25.2000   21.6657 C   0  0  0  0  0  0  0  0  0  0  0  0
  -23.1138  -26.0048   20.8084 C   0  0  0  0  0  0  0  0  0  0  0  0
  -27.9448  -23.6721   18.0111 C   0  0  0  0  0  0  0  0  0  0  0  0
  -29.0208  -21.5130   19.4122 C   0  0  0  0  0  0  0  0  0  0  0  0
  -24.3798  -12.3097   20.6323 C   0  0  0  0  0  0  0  0  0  0  0  0
  -24.2640  -24.5929   19.1980 C   0  0  0  0  0  0  0  0  0  0  0  0
  -23.0707  -10.3802   20.9247 C   0  0  0  0  0  0  0  0  0  0  0  0
  -22.9149   -7.6594   21.5210 C   0  0  0  0  0  0  0  0  0  0  0  0
  -23.7393   -9.4519   20.1267 C   0  0  0  0  0  0  0  0  0  0  0  0
  -28.2087  -14.1088   20.6362 C   0  0  0  0  0  0  0  0  0  0  0  0
  -30.3411  -14.5507   20.3318 C   0  0  0  0  0  0  0  0  0  0  0  0
  -29.6012  -12.3800   19.3372 C   0  0  0  0  0  0  0  0  0  0  0  0
  -19.8698  -26.5882   21.6827 C   0  0  0  0  0  0  0  0  0  0  0  0
  -21.8288  -28.5996   23.3073 C   0  0  0  0  0  0  0  0  0  0  0  0
  -25.0009  -29.7215   23.8782 C   0  0  0  0  0  0  0  0  0  0  0  0
  -30.0625  -20.4181   21.4277 C   0  0  0  0  0  0  0  0  0  0  0  0
  -14.9054  -26.8549   22.8404 C   0  0  0  0  0  0  0  0  0  0  0  0
  -21.6112  -24.9922   22.5638 C   0  0  0  0  0  0  0  0  0  0  0  0
  -22.8378  -27.3875   21.3379 C   0  0  0  0  0  0  0  0  0  0  0  0
  -16.0674  -27.8431   22.7818 C   0  0  0  0  0  0  0  0  0  0  0  0
  -31.4554  -17.9197   23.5478 C   0  0  0  0  0  0  0  0  0  0  0  0
  -16.8216  -27.7027   21.4634 C   0  0  0  0  0  0  0  0  0  0  0  0
  -30.8930  -16.6122   22.9854 C   0  0  0  0  0  0  0  0  0  0  0  0
  -30.4359  -19.0549   23.4715 C   0  0  0  0  0  0  0  0  0  0  0  0
  -29.2900  -17.9695   21.5799 C   0  0  0  0  0  0  0  0  0  0  0  0
  -17.4252  -26.3004   21.3198 C   0  0  1  0  0  0  0  0  0  0  0  0
  -20.9710  -26.3719   22.6819 C   0  0  1  0  0  0  0  0  0  0  0  0
  -30.3028  -16.8128   21.5757 C   0  0  2  0  0  0  0  0  0  0  0  0
  -26.2828  -31.3989   25.2348 C   0  0  0  0  0  0  0  0  0  0  0  0
  -26.8946  -24.5071   15.8022 C   0  0  0  0  0  0  0  0  0  0  0  0
  -28.4255  -25.9677   17.1062 C   0  0  0  0  0  0  0  0  0  0  0  0
  -20.8780  -30.8252   21.4492 C   0  0  0  0  0  0  0  0  0  0  0  0
  -22.8356  -32.1934   22.2003 C   0  0  0  0  0  0  0  0  0  0  0  0
  -21.0994  -31.4931   23.8490 C   0  0  0  0  0  0  0  0  0  0  0  0
  -26.5607  -27.6043   25.2359 C   0  0  0  0  0  0  0  0  0  0  0  0
  -26.1328  -25.4466   18.0000 C   0  0  0  0  0  0  0  0  0  1  0  0
  -22.7071  -29.7694   22.9345 C   0  0  1  0  0  0  0  0  0  0  0  0
  -25.7646  -29.9708   25.1662 C   0  0  2  0  0  0  0  0  0  0  0  0
  -27.3507  -24.8641   17.2374 C   0  0  0  0  0  0  0  0  0  0  0  0
  -21.8839  -31.0445   22.5968 C   0  0  0  0  0  0  0  0  0  0  0  0
  -28.3942  -15.2894   21.2327 N   0  0  0  0  0  0  0  0  0  0  0  0
  -29.7007  -15.5313   21.0307 N   0  0  0  0  0  0  0  0  0  0  0  0
  -21.9341  -27.4595   22.4980 N   0  0  0  0  0  0  0  0  0  0  0  0
  -29.9235  -19.1888   22.1061 N   0  0  0  0  0  0  0  0  0  0  0  0
  -31.6567  -14.6343   20.0408 N   0  0  0  0  0  0  0  0  0  0  0  0
  -28.5128  -11.5181   19.1454 N   0  0  0  0  0  0  0  0  0  0  0  0
  -29.5671  -20.4165   20.1242 N   0  0  0  0  0  0  0  0  0  0  0  0
  -18.6242  -26.1817   22.1215 N   0  0  0  0  0  0  0  0  0  0  0  0
  -23.6486  -29.9402   24.0357 N   0  0  0  0  0  0  0  0  0  0  0  0
  -26.9270  -29.0437   25.2668 N   0  3  0  0  0  0  0  0  0  0  0  0
  -30.7278  -12.0550   18.8913 O   0  0  0  0  0  0  0  0  0  0  0  0
  -20.1308  -27.0883   20.5948 O   0  0  0  0  0  0  0  0  0  0  0  0
  -21.0822  -28.6913   24.2849 O   0  0  0  0  0  0  0  0  0  0  0  0
  -25.5495  -29.3716   22.8355 O   0  0  0  0  0  0  0  0  0  0  0  0
  -30.6071  -21.3919   21.9541 O   0  0  0  0  0  0  0  0  0  0  0  0
  -23.1478  -11.7312   20.6306 O   0  0  0  0  0  0  0  0  0  0  0  0
  -25.1067  -24.4643   18.1372 O   0  0  0  0  0  0  0  0  0  1  0  0
  -22.8412   -6.3532   21.8083 F   0  0  0  0  0  0  0  0  0  0  0  0
  -24.4590   -9.8611   19.0729 F   0  0  0  0  0  0  0  0  0  0  0  0
  1  2  1  0  0  0  0
  1  5  2  0  0  0  0
  2  6  2  0  0  0  0
  3 12  2  0  0  0  0
  3 19  1  0  0  0  0
  4 13  1  0  0  0  0
  4 19  2  0  0  0  0
  5 21  1  0  0  0  0
  6 23  1  0  0  0  0
  7 14  2  0  0  0  0
  7 22  1  0  0  0  0
  8 10  2  0  0  0  0
  8 25  1  0  0  0  0
  9 11  1  0  0  0  0
  9 25  2  0  0  0  0
 10 26  1  0  0  0  0
 11 26  2  0  0  0  0
 12 27  1  0  0  0  0
 13 27  2  0  0  0  0
 14 28  1  0  0  0  0
 15 16  2  0  0  0  0
 15 29  1  0  0  0  0
 16 30  1  0  0  0  0
 17 24  1  0  0  0  0
 17 28  2  0  0  0  0
 18 30  2  0  0  0  0
 18 31  1  0  0  0  0
 19 32  1  0  0  0  0
 20 32  1  0  0  0  0
 20 33  2  0  0  0  0
 20 34  1  0  0  0  0
 21 23  2  0  0  0  0
 21 39  1  0  0  0  0
 22 24  2  0  0  0  0
 22 40  1  0  0  0  0
 23 48  1  0  0  0  0
 24 41  1  0  0  0  0
 25 61  1  0  0  0  0
 26 69  1  0  0  0  0
 27 78  1  0  0  0  0
 28 79  1  0  0  0  0
 29 31  2  0  0  0  0
 29 78  1  0  0  0  0
 30 80  1  0  0  0  0
 31 81  1  0  0  0  0
 32 63  2  0  0  0  0
 33 64  1  0  0  0  0
 33 67  1  0  0  0  0
 34 68  1  0  0  0  0
 34 73  2  0  0  0  0
 35 49  1  0  0  0  0
 35 70  1  0  0  0  0
 35 74  2  0  0  0  0
 36 59  1  0  0  0  0
 36 65  1  0  0  0  0
 36 75  2  0  0  0  0
 37 60  1  0  0  0  0
 37 71  1  0  0  0  0
 37 76  2  0  0  0  0
 38 66  1  0  0  0  0
 38 69  1  0  0  0  0
 38 77  2  0  0  0  0
 39 42  1  0  0  0  0
 40 49  1  0  0  0  0
 41 65  1  0  0  0  0
 42 44  1  0  0  0  0
 43 45  1  0  0  0  0
 43 46  1  0  0  0  0
 44 48  1  0  0  0  0
 45 50  1  0  0  0  0
 46 66  1  0  0  0  0
 47 50  1  0  0  0  0
 47 66  1  0  0  0  0
 48 70  1  0  0  0  0
 49 65  1  0  0  0  0
 50 64  1  0  0  0  0
 51 60  1  0  0  0  0
 52 61  1  0  0  0  0
 53 61  1  0  0  0  0
 54 62  1  0  0  0  0
 55 62  1  0  0  0  0
 56 62  1  0  0  0  0
 57 72  1  0  0  0  0
 58 61  1  0  0  0  0
 58 79  1  0  0  0  0
 59 62  1  0  0  0  0
 59 71  1  0  0  0  0
 60 72  1  0  0  0  0
 63 64  1  0  0  0  0
M  CHG  1  72   1
M  ISO  4  38 100  58 101  69 100  79 101
M  END
> <Batch ID>
0019

> <Smiles>
CNC(C)C(=O)NC(C(=O)N1Cc2cc([101O:1][101CH2:1]C(C)(C)c3ccc([100NH:0][100C:0](=O)N4CCCC(n5nc(-c6ccc(Oc7ccc(F)cc7F)cc6)c(C(N)=O)c5N)C4)cc3)ccc2CC1C(=O)NC1CCCc2ccccc21)C(C)(C)C

> <Shape>
0.280

> <Color>
0.052

> <Negative vol penalty>
0.000

$$$$

  -OEChem-04042321053D

 87 95  0     1  0  0  0  0  0999 V2000
  -25.2689  -21.3390   13.5331 C   0  0  0  0  0  0  0  0  0  0  0  0
  -26.0525  -20.5318   13.1140 C   0  0  0  0  0  0  0  0  0  0  0  0
  -27.7092  -30.3568   23.6555 C   0  0  0  0  0  0  0  0  0  0  0  0
  -28.0162  -29.0337   23.3547 C   0  0  0  0  0  0  0  0  0  0  0  0
  -23.4228   -9.7352   19.9248 C   0  0  0  0  0  0  0  0  0  0  0  0
  -23.7462   -9.9775   22.3068 C   0  0  0  0  0  0  0  0  0  0  0  0
  -26.6627  -30.9965   22.9926 C   0  0  0  0  0  0  0  0  0  0  0  0
  -27.2760  -28.3491   22.3913 C   0  0  0  0  0  0  0  0  0  0  0  0
  -29.6644  -24.6956   15.9126 C   0  0  0  0  0  0  0  0  0  0  0  0
  -29.7517  -18.8076   15.0368 C   0  0  0  0  0  0  0  0  0  0  0  0
  -29.6663  -18.0233   16.1870 C   0  0  0  0  0  0  0  0  0  0  0  0
  -22.7464   -8.5343   20.1388 C   0  0  0  0  0  0  0  0  0  0  0  0
  -23.0697   -8.7765   22.5208 C   0  0  0  0  0  0  0  0  0  0  0  0
  -29.9475  -24.1534   14.6588 C   0  0  0  0  0  0  0  0  0  0  0  0
  -20.6194   -5.5868   20.0820 C   0  0  0  0  0  0  0  0  0  0  0  0
  -19.4342   -5.3757   19.3775 C   0  0  0  0  0  0  0  0  0  0  0  0
  -27.7052  -24.6721   13.9164 C   0  0  0  0  0  0  0  0  0  0  0  0
  -28.8900  -16.9731   13.7218 C   0  0  0  0  0  0  0  0  0  0  0  0
  -18.4739   -7.3404   20.4046 C   0  0  0  0  0  0  0  0  0  0  0  0
  -23.9228  -10.4568   21.0088 C   0  0  0  0  0  0  0  0  0  0  0  0
  -24.0653  -12.9888   20.7328 C   0  0  0  0  0  0  0  0  0  0  0  0
  -25.9156  -30.3225   22.0137 C   0  0  0  0  0  0  0  0  0  0  0  0
  -28.4041  -25.2427   16.1684 C   0  0  0  0  0  0  0  0  0  0  0  0
  -26.2177  -28.9800   21.7156 C   0  0  0  0  0  0  0  0  0  0  0  0
  -27.4199  -25.2279   15.1664 C   0  0  0  0  0  0  0  0  0  0  0  0
  -29.3635  -18.2825   13.8041 C   0  0  0  0  0  0  0  0  0  0  0  0
  -29.1928  -16.7138   16.1047 C   0  0  0  0  0  0  0  0  0  0  0  0
  -22.5698   -8.0550   21.4367 C   0  0  0  0  0  0  0  0  0  0  0  0
  -28.9702  -24.1415   13.6633 C   0  0  0  0  0  0  0  0  0  0  0  0
  -20.7319   -6.6746   20.9478 C   0  0  0  0  0  0  0  0  0  0  0  0
  -18.3614   -6.2525   19.5388 C   0  0  0  0  0  0  0  0  0  0  0  0
  -19.6591   -7.5514   21.1091 C   0  0  0  0  0  0  0  0  0  0  0  0
  -28.8046  -16.1887   14.8720 C   0  0  0  0  0  0  0  0  0  0  0  0
  -24.6222  -11.6971   20.7884 C   0  0  0  0  0  0  0  0  0  0  0  0
  -25.1379  -13.8156   20.5040 C   0  0  0  0  0  0  0  0  0  0  0  0
  -22.7004  -13.4042   20.8754 C   0  0  0  0  0  0  0  0  0  0  0  0
  -26.1446  -26.9567   18.6247 C   0  0  0  0  0  0  0  0  0  0  0  0
  -25.6572  -28.2728   15.8969 C   0  0  0  0  0  0  0  0  0  0  0  0
  -25.7221  -29.7336   12.8149 C   0  0  0  0  0  0  0  0  0  0  0  0
  -29.8356  -14.7237   17.4542 C   0  0  0  0  0  0  0  0  0  0  0  0
  -24.7632  -31.0409   21.3576 C   0  0  0  0  0  0  0  0  0  0  0  0
  -28.0353  -25.7819   17.5239 C   0  0  0  0  0  0  0  0  0  0  0  0
  -26.0671  -25.7963   15.4977 C   0  0  0  0  0  0  0  0  0  0  0  0
  -24.2689  -30.3622   20.0827 C   0  0  0  0  0  0  0  0  0  0  0  0
  -30.1036  -12.9144   20.6581 C   0  0  0  0  0  0  0  0  0  0  0  0
  -24.1110  -28.8612   20.3038 C   0  0  0  0  0  0  0  0  0  0  0  0
  -28.6616  -12.4898   20.9309 C   0  0  0  0  0  0  0  0  0  0  0  0
  -30.3906  -13.0183   19.1631 C   0  0  0  0  0  0  0  0  0  0  0  0
  -28.0029  -13.4853   18.7037 C   0  0  0  0  0  0  0  0  0  0  0  0
  -25.4538  -28.2116   20.6591 C   0  0  1  0  0  0  0  0  0  0  0  0
  -27.0831  -26.9893   17.4544 C   0  0  1  0  0  0  0  0  0  0  0  0
  -27.6704  -13.4133   20.2017 C   0  0  1  0  0  0  0  0  0  0  0  0
  -24.6717  -31.5895   11.4922 C   0  0  0  0  0  0  0  0  0  0  0  0
  -23.1277  -26.6005   15.5661 C   0  0  0  0  0  0  0  0  0  0  0  0
  -22.5587  -27.9869   13.5605 C   0  0  0  0  0  0  0  0  0  0  0  0
  -22.7301  -29.0578   15.8069 C   0  0  0  0  0  0  0  0  0  0  0  0
  -28.4748  -16.5232   18.4931 C   0  0  0  0  0  0  0  0  0  0  0  0
  -28.3261  -31.0844   12.4231 C   0  0  0  0  0  0  0  0  0  0  0  0
  -27.0017  -19.5460   12.6036 C   0  0  0  0  0  0  0  0  0  0  0  0
  -29.4560  -19.1267   12.5673 C   0  0  0  0  0  0  0  0  0  0  0  0
  -29.8888  -21.6517   11.2162 C   0  0  0  0  0  0  0  0  0  0  0  0
  -28.4999  -21.0346   11.2841 C   0  0  0  0  0  0  0  0  0  0  0  0
  -30.2146  -22.5597   12.3956 C   0  0  0  0  0  0  0  0  0  1  0  0
  -24.8359  -28.2968   14.6327 C   0  0  1  0  0  0  0  0  0  0  0  0
  -25.8306  -31.1872   12.3909 C   0  0  2  0  0  0  0  0  0  0  0  0
  -23.3379  -27.9715   14.8930 C   0  0  0  0  0  0  0  0  0  0  0  0
  -25.9458  -11.6981   20.6091 N   0  0  0  0  0  0  0  0  0  0  0  0
  -26.2295  -13.0006   20.4386 N   0  0  0  0  0  0  0  0  0  0  0  0
  -26.2199  -27.0439   16.2624 N   0  0  0  0  0  0  0  0  0  0  0  0
  -29.4073  -13.8650   18.4864 N   0  0  0  0  0  0  0  0  0  0  0  0
  -25.2443  -15.1530   20.3542 N   0  0  0  0  0  0  0  0  0  0  0  0
  -21.7247  -12.4250   21.1067 N   0  0  0  0  0  0  0  0  0  0  0  0
  -26.2633  -28.0422   19.4715 N   0  0  0  0  0  0  0  0  0  0  0  0
  -25.0666  -29.6008   14.0207 N   0  0  0  0  0  0  0  0  0  0  0  0
  -29.1161  -15.9303   17.3150 N   0  0  0  0  0  0  0  0  0  0  0  0
  -27.1025  -31.4167   11.6489 N   0  3  0  0  0  0  0  0  0  0  0  0
  -28.3701  -20.1723   12.4821 N   0  3  1  0  0  0  0  0  0  0  0  0
  -22.3541  -14.6063   20.7836 O   0  0  0  0  0  0  0  0  0  0  0  0
  -25.3682  -26.0170   18.7505 O   0  0  0  0  0  0  0  0  0  0  0  0
  -25.7931  -29.3127   16.5477 O   0  0  0  0  0  0  0  0  0  0  0  0
  -26.1704  -28.8081   12.1417 O   0  0  0  0  0  0  0  0  0  0  0  0
  -30.8026  -14.4470   16.7344 O   0  0  0  0  0  0  0  0  0  0  0  0
  -21.9095   -6.8833   21.6459 O   0  0  0  0  0  0  0  0  0  0  0  0
  -29.2546  -23.6146   12.4401 O   0  0  0  0  0  0  0  0  0  1  0  0
  -17.2239   -6.0505   18.8611 F   0  0  0  0  0  0  0  0  0  0  0  0
  -19.7616   -8.5989   21.9386 F   0  0  0  0  0  0  0  0  0  0  0  0
  -28.2130  -14.5721   14.7251 Cl  0  0  0  0  0  0  0  0  0  0  0  0
  1  2  3  0  0  0  0
  2 59  1  0  0  0  0
  3  4  1  0  0  0  0
  3  7  2  0  0  0  0
  4  8  2  0  0  0  0
  5 12  2  0  0  0  0
  5 20  1  0  0  0  0
  6 13  1  0  0  0  0
  6 20  2  0  0  0  0
  7 22  1  0  0  0  0
  8 24  1  0  0  0  0
  9 14  2  0  0  0  0
  9 23  1  0  0  0  0
 10 11  2  0  0  0  0
 10 26  1  0  0  0  0
 11 27  1  0  0  0  0
 12 28  1  0  0  0  0
 13 28  2  0  0  0  0
 14 29  1  0  0  0  0
 15 16  2  0  0  0  0
 15 30  1  0  0  0  0
 16 31  1  0  0  0  0
 17 25  1  0  0  0  0
 17 29  2  0  0  0  0
 18 26  2  0  0  0  0
 18 33  1  0  0  0  0
 19 31  2  0  0  0  0
 19 32  1  0  0  0  0
 20 34  1  0  0  0  0
 21 34  1  0  0  0  0
 21 35  2  0  0  0  0
 21 36  1  0  0  0  0
 22 24  2  0  0  0  0
 22 41  1  0  0  0  0
 23 25  2  0  0  0  0
 23 42  1  0  0  0  0
 24 50  1  0  0  0  0
 25 43  1  0  0  0  0
 26 60  1  0  0  0  0
 27 33  2  0  0  0  0
 27 75  1  0  0  0  0
 28 83  1  0  0  0  0
 29 84  1  0  0  0  0
 30 32  2  0  0  0  0
 30 83  1  0  0  0  0
 31 85  1  0  0  0  0
 32 86  1  0  0  0  0
 33 87  1  0  0  0  0
 34 67  2  0  0  0  0
 35 68  1  0  0  0  0
 35 71  1  0  0  0  0
 36 72  1  0  0  0  0
 36 78  2  0  0  0  0
 37 51  1  0  0  0  0
 37 73  1  0  0  0  0
 37 79  2  0  0  0  0
 38 64  1  0  0  0  0
 38 69  1  0  0  0  0
 38 80  2  0  0  0  0
 39 65  1  0  0  0  0
 39 74  1  0  0  0  0
 39 81  2  0  0  0  0
 40 70  1  0  0  0  0
 40 75  1  0  0  0  0
 40 82  2  0  0  0  0
 41 44  1  0  0  0  0
 42 51  1  0  0  0  0
 43 69  1  0  0  0  0
 44 46  1  0  0  0  0
 45 47  1  0  0  0  0
 45 48  1  0  0  0  0
 46 50  1  0  0  0  0
 47 52  1  0  0  0  0
 48 70  1  0  0  0  0
 49 52  1  0  0  0  0
 49 70  1  0  0  0  0
 50 73  1  0  0  0  0
 51 69  1  0  0  0  0
 52 68  1  0  0  0  0
 53 65  1  0  0  0  0
 54 66  1  0  0  0  0
 55 66  1  0  0  0  0
 56 66  1  0  0  0  0
 57 75  1  0  0  0  0
 58 76  1  0  0  0  0
 59 77  1  0  0  0  0
 60 77  1  0  0  0  0
 61 62  1  0  0  0  0
 61 63  1  0  0  0  0
 62 77  1  0  0  0  0
 63 84  1  0  0  0  0
 64 66  1  0  0  0  0
 64 74  1  0  0  0  0
 65 76  1  0  0  0  0
 67 68  1  0  0  0  0
M  CHG  2  76   1  77   1
M  ISO  4  40 100  63 101  75 100  84 101
M  END
> <Batch ID>
0019

> <Smiles>
C#CCN(CC[101CH2:1][101O:1]c1ccc2c(c1)CN(C(=O)C(NC(=O)C(C)NC)C(C)(C)C)C(C(=O)NC1CCCc3ccccc31)C2)Cc1ccc([100N:0](C)[100C:0](=O)N2CCCC(n3nc(-c4ccc(Oc5ccc(F)cc5F)cc4)c(C(N)=O)c3N)C2)c(Cl)c1

> <Shape>
0.185

> <Color>
0.183

> <Negative vol penalty>
0.000

$$$$

  -OEChem-04042321053D

 85 93  0     1  0  0  0  0  0999 V2000
  -21.9309  -23.2340   21.9098 C   0  0  0  0  0  0  0  0  0  0  0  0
  -23.1274  -22.5427   22.0699 C   0  0  0  0  0  0  0  0  0  0  0  0
  -23.8541  -29.2034   21.9999 C   0  0  0  0  0  0  0  0  0  0  0  0
  -25.6338  -30.5966   21.1462 C   0  0  0  0  0  0  0  0  0  0  0  0
  -20.7171  -22.5859   22.1351 C   0  0  0  0  0  0  0  0  0  0  0  0
  -23.1110  -21.2030   22.4566 C   0  0  0  0  0  0  0  0  0  0  0  0
  -26.3064  -18.3593   19.7459 C   0  0  0  0  0  0  0  0  0  0  0  0
  -32.3276  -21.6556   18.4128 C   0  0  0  0  0  0  0  0  0  0  0  0
  -34.0817  -21.3639   20.0484 C   0  0  0  0  0  0  0  0  0  0  0  0
  -32.4844  -20.3300   18.0081 C   0  0  0  0  0  0  0  0  0  0  0  0
  -34.2385  -20.0383   19.6437 C   0  0  0  0  0  0  0  0  0  0  0  0
  -23.4283  -30.2491   22.8188 C   0  0  0  0  0  0  0  0  0  0  0  0
  -25.2079  -31.6424   21.9651 C   0  0  0  0  0  0  0  0  0  0  0  0
  -27.6590  -18.4305   20.0762 C   0  0  0  0  0  0  0  0  0  0  0  0
  -22.7668  -33.9793   21.9510 C   0  0  0  0  0  0  0  0  0  0  0  0
  -22.6849  -35.2514   21.3849 C   0  0  0  0  0  0  0  0  0  0  0  0
  -27.4591  -16.3697   21.3142 C   0  0  0  0  0  0  0  0  0  0  0  0
  -24.2873  -36.0716   22.9964 C   0  0  0  0  0  0  0  0  0  0  0  0
  -24.9570  -29.3771   21.1636 C   0  0  0  0  0  0  0  0  0  0  0  0
  -24.9806  -28.0235   19.0015 C   0  0  0  0  0  0  0  0  0  0  0  0
  -20.6855  -21.2350   22.5154 C   0  0  0  0  0  0  0  0  0  0  0  0
  -25.5161  -17.2966   20.2072 C   0  0  0  0  0  0  0  0  0  0  0  0
  -21.8957  -20.5366   22.6885 C   0  0  0  0  0  0  0  0  0  0  0  0
  -26.0973  -16.2860   20.9862 C   0  0  0  0  0  0  0  0  0  0  0  0
  -33.1263  -22.1726   19.4329 C   0  0  0  0  0  0  0  0  0  0  0  0
  -33.4399  -19.5213   18.6236 C   0  0  0  0  0  0  0  0  0  0  0  0
  -24.1051  -31.4687   22.8013 C   0  0  0  0  0  0  0  0  0  0  0  0
  -28.2349  -17.4372   20.8628 C   0  0  0  0  0  0  0  0  0  0  0  0
  -23.6089  -33.7532   23.0398 C   0  0  0  0  0  0  0  0  0  0  0  0
  -23.4451  -36.2976   21.9076 C   0  0  0  0  0  0  0  0  0  0  0  0
  -24.3692  -34.7994   23.5624 C   0  0  0  0  0  0  0  0  0  0  0  0
  -25.3977  -28.2970   20.3179 C   0  0  0  0  0  0  0  0  0  0  0  0
  -25.6879  -26.9019   18.6432 C   0  0  0  0  0  0  0  0  0  0  0  0
  -24.0382  -28.7209   18.1762 C   0  0  0  0  0  0  0  0  0  0  0  0
  -22.9590  -17.0508   22.0792 C   0  0  0  0  0  0  0  0  0  0  0  0
  -23.0869  -13.9351   21.1855 C   0  0  0  0  0  0  0  0  0  0  0  0
  -24.9608  -11.3266   20.0318 C   0  0  0  0  0  0  0  0  0  0  0  0
  -30.8041  -24.7162   20.2723 C   0  0  0  0  0  0  0  0  0  0  0  0
  -19.3508  -20.5902   22.7936 C   0  0  0  0  0  0  0  0  0  0  0  0
  -24.0647  -17.2203   19.8198 C   0  0  0  0  0  0  0  0  0  0  0  0
  -25.2969  -15.1136   21.4896 C   0  0  0  0  0  0  0  0  0  0  0  0
  -19.4081  -19.0654   22.8371 C   0  0  0  0  0  0  0  0  0  0  0  0
  -27.7261  -22.9990   20.4936 C   0  0  0  0  0  0  0  0  0  0  0  0
  -20.5895  -18.5995   23.6821 C   0  0  0  0  0  0  0  0  0  0  0  0
  -26.7281  -24.1474   20.3528 C   0  0  0  0  0  0  0  0  0  0  0  0
  -28.9311  -23.3870   21.3525 C   0  0  0  0  0  0  0  0  0  0  0  0
  -28.6165  -25.7689   20.7607 C   0  0  0  0  0  0  0  0  0  0  0  0
  -21.9183  -19.0758   23.0828 C   0  0  1  0  0  0  0  0  0  0  0  0
  -23.2364  -16.3634   20.7722 C   0  0  1  0  0  0  0  0  0  0  0  0
  -27.4257  -25.4244   19.8529 C   0  0  2  0  0  0  0  0  0  0  0  0
  -24.7961   -8.8943   19.4366 C   0  0  0  0  0  0  0  0  0  0  0  0
  -23.0648  -13.2136   24.1501 C   0  0  0  0  0  0  0  0  0  0  0  0
  -23.8482  -10.9191   23.5261 C   0  0  0  0  0  0  0  0  0  0  0  0
  -21.6415  -11.7469   22.7088 C   0  0  0  0  0  0  0  0  0  0  0  0
  -31.8148  -23.1824   22.0132 C   0  0  0  0  0  0  0  0  0  0  0  0
  -25.7357  -11.8424   17.2225 C   0  0  0  0  0  0  0  0  0  0  0  0
  -34.0989  -15.8115   19.0514 C   0  0  0  0  0  0  0  0  0  0  0  0
  -32.9592  -23.5898   19.8661 C   0  0  0  0  0  0  0  0  0  0  0  0
  -33.6068  -18.0951   18.1890 C   0  0  0  0  0  0  0  0  0  0  0  0
  -31.7047  -16.4552   21.0142 C   0  0  0  0  0  0  0  0  0  0  0  0
  -31.9196  -16.8973   19.5745 C   0  0  0  0  0  0  0  0  0  0  0  0
  -30.2388  -16.2681   21.3857 C   0  0  0  0  0  0  0  0  0  1  0  0
  -23.7654  -12.6968   21.7194 C   0  0  1  0  0  0  0  0  0  0  0  0
  -24.7133  -10.3225   18.9206 C   0  0  2  0  0  0  0  0  0  0  0  0
  -23.0949  -12.1671   23.0184 C   0  0  0  0  0  0  0  0  0  0  0  0
  -26.2999  -27.4197   20.7657 N   0  0  0  0  0  0  0  0  0  0  0  0
  -26.4555  -26.5840   19.7248 N   0  0  0  0  0  0  0  0  0  0  0  0
  -23.8804  -15.0871   21.0893 N   0  0  0  0  0  0  0  0  0  0  0  0
  -29.5378  -24.6352   20.8701 N   0  0  0  0  0  0  0  0  0  0  0  0
  -25.7218  -26.1665   17.5117 N   0  0  0  0  0  0  0  0  0  0  0  0
  -23.4014  -29.8542   18.7003 N   0  0  0  0  0  0  0  0  0  0  0  0
  -22.2870  -18.2515   21.9519 N   0  0  0  0  0  0  0  0  0  0  0  0
  -23.7836  -11.7359   20.6218 N   0  0  0  0  0  0  0  0  0  0  0  0
  -31.7683  -23.7828   20.6815 N   0  0  0  0  0  0  0  0  0  0  0  0
  -25.7226  -10.4899   17.8369 N   0  3  0  0  0  0  0  0  0  0  0  0
  -33.3612  -17.1048   19.3020 N   0  3  1  0  0  0  0  0  0  0  0  0
  -23.7564  -28.3407   17.0145 O   0  0  0  0  0  0  0  0  0  0  0  0
  -23.3261  -16.5297   23.1258 O   0  0  0  0  0  0  0  0  0  0  0  0
  -21.8987  -13.8805   20.8588 O   0  0  0  0  0  0  0  0  0  0  0  0
  -26.0861  -11.7068   20.3476 O   0  0  0  0  0  0  0  0  0  0  0  0
  -31.0631  -25.5801   19.4246 O   0  0  0  0  0  0  0  0  0  0  0  0
  -23.6897  -32.4894   23.6001 O   0  0  0  0  0  0  0  0  0  0  0  0
  -29.5548  -17.5046   21.1872 O   0  0  0  0  0  0  0  0  0  1  0  0
  -23.3675  -37.5189   21.3630 F   0  0  0  0  0  0  0  0  0  0  0  0
  -25.1809  -34.5880   24.6075 F   0  0  0  0  0  0  0  0  0  0  0  0
  1  2  1  0  0  0  0
  1  5  2  0  0  0  0
  2  6  2  0  0  0  0
  3 12  2  0  0  0  0
  3 19  1  0  0  0  0
  4 13  1  0  0  0  0
  4 19  2  0  0  0  0
  5 21  1  0  0  0  0
  6 23  1  0  0  0  0
  7 14  2  0  0  0  0
  7 22  1  0  0  0  0
  8 10  2  0  0  0  0
  8 25  1  0  0  0  0
  9 11  1  0  0  0  0
  9 25  2  0  0  0  0
 10 26  1  0  0  0  0
 11 26  2  0  0  0  0
 12 27  1  0  0  0  0
 13 27  2  0  0  0  0
 14 28  1  0  0  0  0
 15 16  2  0  0  0  0
 15 29  1  0  0  0  0
 16 30  1  0  0  0  0
 17 24  1  0  0  0  0
 17 28  2  0  0  0  0
 18 30  2  0  0  0  0
 18 31  1  0  0  0  0
 19 32  1  0  0  0  0
 20 32  1  0  0  0  0
 20 33  2  0  0  0  0
 20 34  1  0  0  0  0
 21 23  2  0  0  0  0
 21 39  1  0  0  0  0
 22 24  2  0  0  0  0
 22 40  1  0  0  0  0
 23 48  1  0  0  0  0
 24 41  1  0  0  0  0
 25 58  1  0  0  0  0
 26 59  1  0  0  0  0
 27 82  1  0  0  0  0
 28 83  1  0  0  0  0
 29 31  2  0  0  0  0
 29 82  1  0  0  0  0
 30 84  1  0  0  0  0
 31 85  1  0  0  0  0
 32 66  2  0  0  0  0
 33 67  1  0  0  0  0
 33 70  1  0  0  0  0
 34 71  1  0  0  0  0
 34 77  2  0  0  0  0
 35 49  1  0  0  0  0
 35 72  1  0  0  0  0
 35 78  2  0  0  0  0
 36 63  1  0  0  0  0
 36 68  1  0  0  0  0
 36 79  2  0  0  0  0
 37 64  1  0  0  0  0
 37 73  1  0  0  0  0
 37 80  2  0  0  0  0
 38 69  1  0  0  0  0
 38 74  1  0  0  0  0
 38 81  2  0  0  0  0
 39 42  1  0  0  0  0
 40 49  1  0  0  0  0
 41 68  1  0  0  0  0
 42 44  1  0  0  0  0
 43 45  1  0  0  0  0
 43 46  1  0  0  0  0
 44 48  1  0  0  0  0
 45 50  1  0  0  0  0
 46 69  1  0  0  0  0
 47 50  1  0  0  0  0
 47 69  1  0  0  0  0
 48 72  1  0  0  0  0
 49 68  1  0  0  0  0
 50 67  1  0  0  0  0
 51 64  1  0  0  0  0
 52 65  1  0  0  0  0
 53 65  1  0  0  0  0
 54 65  1  0  0  0  0
 55 74  1  0  0  0  0
 56 75  1  0  0  0  0
 57 76  1  0  0  0  0
 58 74  1  0  0  0  0
 59 76  1  0  0  0  0
 60 61  1  0  0  0  0
 60 62  1  0  0  0  0
 61 76  1  0  0  0  0
 62 83  1  0  0  0  0
 63 65  1  0  0  0  0
 63 73  1  0  0  0  0
 64 75  1  0  0  0  0
 66 67  1  0  0  0  0
M  CHG  2  75   1  76   1
M  ISO  4  38 100  62 101  74 100  83 101
M  END
> <Batch ID>
0019

> <Smiles>
CNC(C)C(=O)NC(C(=O)N1Cc2cc([101O:1][101CH2:1]CCN(C)Cc3ccc(C[100N:0](C)[100C:0](=O)N4CCCC(n5nc(-c6ccc(Oc7ccc(F)cc7F)cc6)c(C(N)=O)c5N)C4)cc3)ccc2CC1C(=O)NC1CCCc2ccccc21)C(C)(C)C

> <Shape>
0.198

> <Color>
0.077

> <Negative vol penalty>
0.000

$$$$

  -OEChem-04042321053D

 83 91  0     1  0  0  0  0  0999 V2000
  -28.3774  -31.9611   26.3316 C   0  0  0  0  0  0  0  0  0  0  0  0
  -28.9365  -30.9407   25.5689 C   0  0  0  0  0  0  0  0  0  0  0  0
  -23.2194   -9.8513   22.7831 C   0  0  0  0  0  0  0  0  0  0  0  0
  -23.3372  -10.0000   20.3746 C   0  0  0  0  0  0  0  0  0  0  0  0
  -26.9962  -32.0175   26.5133 C   0  0  0  0  0  0  0  0  0  0  0  0
  -28.1146  -29.9754   24.9883 C   0  0  0  0  0  0  0  0  0  0  0  0
  -28.9473  -27.1905   19.5979 C   0  0  0  0  0  0  0  0  0  0  0  0
  -28.6579  -19.0286   17.3547 C   0  0  0  0  0  0  0  0  0  0  0  0
  -27.9309  -18.3385   18.3247 C   0  0  0  0  0  0  0  0  0  0  0  0
  -22.5212   -8.6487   22.6747 C   0  0  0  0  0  0  0  0  0  0  0  0
  -22.6390   -8.7973   20.2662 C   0  0  0  0  0  0  0  0  0  0  0  0
  -29.4815  -25.9488   19.2563 C   0  0  0  0  0  0  0  0  0  0  0  0
  -23.2340   -5.4011   22.0597 C   0  0  0  0  0  0  0  0  0  0  0  0
  -23.6231   -4.3487   22.8883 C   0  0  0  0  0  0  0  0  0  0  0  0
  -27.2573  -25.0175   19.1880 C   0  0  0  0  0  0  0  0  0  0  0  0
  -26.1964  -20.0170   18.2188 C   0  0  0  0  0  0  0  0  0  0  0  0
  -21.4140   -4.3012   23.8653 C   0  0  0  0  0  0  0  0  0  0  0  0
  -23.6274  -10.5270   21.6330 C   0  0  0  0  0  0  0  0  0  0  0  0
  -25.7436  -11.9389   21.8229 C   0  0  0  0  0  0  0  0  0  0  0  0
  -26.1562  -31.0579   25.9267 C   0  0  0  0  0  0  0  0  0  0  0  0
  -27.5626  -27.3526   19.7481 C   0  0  0  0  0  0  0  0  0  0  0  0
  -26.7209  -30.0182   25.1635 C   0  0  0  0  0  0  0  0  0  0  0  0
  -26.7079  -26.2629   19.5291 C   0  0  0  0  0  0  0  0  0  0  0  0
  -28.1542  -20.2130   16.8168 C   0  0  0  0  0  0  0  0  0  0  0  0
  -26.7001  -18.8327   18.7567 C   0  0  0  0  0  0  0  0  0  0  0  0
  -22.2310   -8.1217   21.4163 C   0  0  0  0  0  0  0  0  0  0  0  0
  -28.6367  -24.8614   19.0541 C   0  0  0  0  0  0  0  0  0  0  0  0
  -21.9349   -5.9037   22.1340 C   0  0  0  0  0  0  0  0  0  0  0  0
  -22.7131   -3.7987   23.7910 C   0  0  0  0  0  0  0  0  0  0  0  0
  -26.9234  -20.7071   17.2488 C   0  0  0  0  0  0  0  0  0  0  0  0
  -21.0249   -5.3537   23.0367 C   0  0  0  0  0  0  0  0  0  0  0  0
  -24.3482  -11.7696   21.7443 C   0  0  0  0  0  0  0  0  0  0  0  0
  -25.9200  -13.2979   21.9145 C   0  0  0  0  0  0  0  0  0  0  0  0
  -26.7870  -10.9556   21.8136 C   0  0  0  0  0  0  0  0  0  0  0  0
  -25.6472  -28.1697   22.1497 C   0  0  0  0  0  0  0  0  0  0  0  0
  -23.3688  -28.1017   19.8418 C   0  0  0  0  0  0  0  0  0  0  0  0
  -22.3527  -26.9145   16.8078 C   0  0  0  0  0  0  0  0  0  0  0  0
  -24.7258  -18.4857   20.2825 C   0  0  0  0  0  0  0  0  0  0  0  0
  -24.6731  -31.1330   26.1904 C   0  0  0  0  0  0  0  0  0  0  0  0
  -27.0002  -28.7049   20.0909 C   0  0  0  0  0  0  0  0  0  0  0  0
  -25.2126  -26.3893   19.6581 C   0  0  0  0  0  0  0  0  0  0  0  0
  -23.8403  -30.2865   25.2312 C   0  0  0  0  0  0  0  0  0  0  0  0
  -22.5683  -17.0090   22.6993 C   0  0  0  0  0  0  0  0  0  0  0  0
  -24.4459  -28.8941   25.0847 C   0  0  0  0  0  0  0  0  0  0  0  0
  -22.9538  -15.5282   22.6728 C   0  0  0  0  0  0  0  0  0  0  0  0
  -22.6278  -17.6356   21.3074 C   0  0  0  0  0  0  0  0  0  0  0  0
  -24.2845  -15.9681   20.5698 C   0  0  0  0  0  0  0  0  0  0  0  0
  -25.8604  -28.9668   24.4970 C   0  0  1  0  0  0  0  0  0  0  0  0
  -25.6126  -28.6328   20.7207 C   0  0  1  0  0  0  0  0  0  0  0  0
  -24.3022  -15.3096   21.9590 C   0  0  2  0  0  0  0  0  0  0  0  0
  -20.4269  -27.0054   15.2014 C   0  0  0  0  0  0  0  0  0  0  0  0
  -21.7874  -26.2051   21.6341 C   0  0  0  0  0  0  0  0  0  0  0  0
  -20.3946  -25.5977   19.6443 C   0  0  0  0  0  0  0  0  0  0  0  0
  -20.4088  -27.9464   20.4844 C   0  0  0  0  0  0  0  0  0  0  0  0
  -24.0340  -28.0972   14.6786 C   0  0  0  0  0  0  0  0  0  0  0  0
  -29.5243  -23.2417   14.9909 C   0  0  0  0  0  0  0  0  0  0  0  0
  -28.9385  -20.9511   15.7723 C   0  0  0  0  0  0  0  0  0  0  0  0
  -30.4500  -22.3835   17.1377 C   0  0  0  0  0  0  0  0  0  0  0  0
  -30.3721  -23.6446   17.9755 C   0  0  0  0  0  0  0  0  0  1  0  0
  -22.4438  -27.0473   19.2834 C   0  0  1  0  0  0  0  0  0  0  0  0
  -21.7620  -27.6161   15.5981 C   0  0  2  0  0  0  0  0  0  0  0  0
  -21.2869  -26.6960   20.2609 C   0  0  0  0  0  0  0  0  0  0  0  0
  -23.6853  -12.9285   21.7829 N   0  0  0  0  0  0  0  0  0  0  0  0
  -24.6683  -13.8390   21.8868 N   0  0  0  0  0  0  0  0  0  0  0  0
  -24.7114  -27.7305   20.0011 N   0  0  0  0  0  0  0  0  0  0  0  0
  -23.9353  -17.3920   20.6943 N   0  0  0  0  0  0  0  0  0  0  0  0
  -27.0221  -14.0710   22.0155 N   0  0  0  0  0  0  0  0  0  0  0  0
  -26.4304   -9.6039   21.7135 N   0  0  0  0  0  0  0  0  0  0  0  0
  -25.9625  -18.1327   19.7435 N   0  0  0  0  0  0  0  0  0  0  0  0
  -25.8033  -29.1901   23.0683 N   0  0  0  0  0  0  0  0  0  0  0  0
  -21.9994  -27.5407   17.9844 N   0  0  0  0  0  0  0  0  0  0  0  0
  -22.6894  -27.5139   14.4360 N   0  3  0  0  0  0  0  0  0  0  0  0
  -29.3070  -22.3531   16.1906 N   0  3  1  0  0  0  0  0  0  0  0  0
  -27.9988  -11.2654   21.9084 O   0  0  0  0  0  0  0  0  0  0  0  0
  -25.5388  -26.9751   22.4004 O   0  0  0  0  0  0  0  0  0  0  0  0
  -22.9181  -29.2158   20.1195 O   0  0  0  0  0  0  0  0  0  0  0  0
  -23.0540  -25.9092   16.7182 O   0  0  0  0  0  0  0  0  0  0  0  0
  -24.3459  -19.6509   20.4244 O   0  0  0  0  0  0  0  0  0  0  0  0
  -21.5499   -6.9481   21.3101 O   0  0  0  0  0  0  0  0  0  0  0  0
  -29.1555  -23.6482   18.7212 O   0  0  0  0  0  0  0  0  0  1  0  0
  -23.0865   -2.7870   24.5856 F   0  0  0  0  0  0  0  0  0  0  0  0
  -26.4311  -21.8442   16.7378 F   0  0  0  0  0  0  0  0  0  0  0  0
  -19.7751   -5.8314   23.1118 F   0  0  0  0  0  0  0  0  0  0  0  0
  1  2  1  0  0  0  0
  1  5  2  0  0  0  0
  2  6  2  0  0  0  0
  3 10  2  0  0  0  0
  3 18  1  0  0  0  0
  4 11  1  0  0  0  0
  4 18  2  0  0  0  0
  5 20  1  0  0  0  0
  6 22  1  0  0  0  0
  7 12  2  0  0  0  0
  7 21  1  0  0  0  0
  8  9  2  0  0  0  0
  8 24  1  0  0  0  0
  9 25  1  0  0  0  0
 10 26  1  0  0  0  0
 11 26  2  0  0  0  0
 12 27  1  0  0  0  0
 13 14  2  0  0  0  0
 13 28  1  0  0  0  0
 14 29  1  0  0  0  0
 15 23  1  0  0  0  0
 15 27  2  0  0  0  0
 16 25  2  0  0  0  0
 16 30  1  0  0  0  0
 17 29  2  0  0  0  0
 17 31  1  0  0  0  0
 18 32  1  0  0  0  0
 19 32  1  0  0  0  0
 19 33  2  0  0  0  0
 19 34  1  0  0  0  0
 20 22  2  0  0  0  0
 20 39  1  0  0  0  0
 21 23  2  0  0  0  0
 21 40  1  0  0  0  0
 22 48  1  0  0  0  0
 23 41  1  0  0  0  0
 24 30  2  0  0  0  0
 24 57  1  0  0  0  0
 25 69  1  0  0  0  0
 26 79  1  0  0  0  0
 27 80  1  0  0  0  0
 28 31  2  0  0  0  0
 28 79  1  0  0  0  0
 29 81  1  0  0  0  0
 30 82  1  0  0  0  0
 31 83  1  0  0  0  0
 32 63  2  0  0  0  0
 33 64  1  0  0  0  0
 33 67  1  0  0  0  0
 34 68  1  0  0  0  0
 34 74  2  0  0  0  0
 35 49  1  0  0  0  0
 35 70  1  0  0  0  0
 35 75  2  0  0  0  0
 36 60  1  0  0  0  0
 36 65  1  0  0  0  0
 36 76  2  0  0  0  0
 37 61  1  0  0  0  0
 37 71  1  0  0  0  0
 37 77  2  0  0  0  0
 38 66  1  0  0  0  0
 38 69  1  0  0  0  0
 38 78  2  0  0  0  0
 39 42  1  0  0  0  0
 40 49  1  0  0  0  0
 41 65  1  0  0  0  0
 42 44  1  0  0  0  0
 43 45  1  0  0  0  0
 43 46  1  0  0  0  0
 44 48  1  0  0  0  0
 45 50  1  0  0  0  0
 46 66  1  0  0  0  0
 47 50  1  0  0  0  0
 47 66  1  0  0  0  0
 48 70  1  0  0  0  0
 49 65  1  0  0  0  0
 50 64  1  0  0  0  0
 51 61  1  0  0  0  0
 52 62  1  0  0  0  0
 53 62  1  0  0  0  0
 54 62  1  0  0  0  0
 55 72  1  0  0  0  0
 56 73  1  0  0  0  0
 57 73  1  0  0  0  0
 58 59  1  0  0  0  0
 58 73  1  0  0  0  0
 59 80  1  0  0  0  0
 60 62  1  0  0  0  0
 60 71  1  0  0  0  0
 61 72  1  0  0  0  0
 63 64  1  0  0  0  0
M  CHG  2  72   1  73   1
M  ISO  4  38 100  59 101  69 100  80 101
M  END
> <Batch ID>
0019

> <Smiles>
CNC(C)C(=O)NC(C(=O)N1Cc2cc([101O:1][101CH2:1]CN(C)Cc3ccc([100NH:0][100C:0](=O)N4CCCC(n5nc(-c6ccc(Oc7ccc(F)cc7F)cc6)c(C(N)=O)c5N)C4)cc3F)ccc2CC1C(=O)NC1CCCc2ccccc21)C(C)(C)C

> <Shape>
0.236

> <Color>
0.068

> <Negative vol penalty>
0.000

$$$$

  -OEChem-04042321053D

 84 92  0     1  0  0  0  0  0999 V2000
  -25.6064  -11.1471   20.9205 C   0  0  0  0  0  0  0  0  0  0  0  0
  -26.6509  -11.9902   20.5550 C   0  0  0  0  0  0  0  0  0  0  0  0
  -20.2717  -26.9048   23.2652 C   0  0  0  0  0  0  0  0  0  0  0  0
  -20.3889  -28.7454   21.7047 C   0  0  0  0  0  0  0  0  0  0  0  0
  -24.3008  -11.6345   20.9630 C   0  0  0  0  0  0  0  0  0  0  0  0
  -26.3902  -13.3211   20.2307 C   0  0  0  0  0  0  0  0  0  0  0  0
  -29.3245  -19.8436   20.6347 C   0  0  0  0  0  0  0  0  0  0  0  0
  -30.7457  -30.2559   19.7205 C   0  0  0  0  0  0  0  0  0  0  0  0
  -31.1094  -29.2943   18.7778 C   0  0  0  0  0  0  0  0  0  0  0  0
  -18.8785  -26.9538   23.2184 C   0  0  0  0  0  0  0  0  0  0  0  0
  -18.9957  -28.7944   21.6578 C   0  0  0  0  0  0  0  0  0  0  0  0
  -29.6245  -20.9414   19.8294 C   0  0  0  0  0  0  0  0  0  0  0  0
  -15.2924  -26.3584   23.2318 C   0  0  0  0  0  0  0  0  0  0  0  0
  -14.6048  -25.1510   23.1097 C   0  0  0  0  0  0  0  0  0  0  0  0
  -27.3400  -21.6938   20.0144 C   0  0  0  0  0  0  0  0  0  0  0  0
  -30.8501  -27.5635   20.4434 C   0  0  0  0  0  0  0  0  0  0  0  0
  -15.7296  -24.7223   21.0149 C   0  0  0  0  0  0  0  0  0  0  0  0
  -21.0269  -27.8007   22.5084 C   0  0  0  0  0  0  0  0  0  0  0  0
  -23.3189  -26.9957   21.7297 C   0  0  0  0  0  0  0  0  0  0  0  0
  -24.0253  -12.9746   20.6484 C   0  0  0  0  0  0  0  0  0  0  0  0
  -28.0252  -19.6565   21.1278 C   0  0  0  0  0  0  0  0  0  0  0  0
  -25.0795  -13.8266   20.2677 C   0  0  0  0  0  0  0  0  0  0  0  0
  -27.0267  -20.5942   20.8279 C   0  0  0  0  0  0  0  0  0  0  0  0
  -30.4342  -29.8713   21.0246 C   0  0  0  0  0  0  0  0  0  0  0  0
  -31.1616  -27.9481   19.1393 C   0  0  0  0  0  0  0  0  0  0  0  0
  -18.2405  -27.8986   22.4147 C   0  0  0  0  0  0  0  0  0  0  0  0
  -28.6316  -21.8652   19.5168 C   0  0  0  0  0  0  0  0  0  0  0  0
  -16.1986  -26.7478   22.2455 C   0  0  0  0  0  0  0  0  0  0  0  0
  -14.8234  -24.3329   22.0012 C   0  0  0  0  0  0  0  0  0  0  0  0
  -30.4864  -28.5251   21.3861 C   0  0  0  0  0  0  0  0  0  0  0  0
  -16.4172  -25.9298   21.1370 C   0  0  0  0  0  0  0  0  0  0  0  0
  -22.4661  -27.7510   22.5568 C   0  0  0  0  0  0  0  0  0  0  0  0
  -24.5831  -27.2945   22.1759 C   0  0  0  0  0  0  0  0  0  0  0  0
  -22.9972  -26.1038   20.6542 C   0  0  0  0  0  0  0  0  0  0  0  0
  -25.7988  -17.4132   20.7892 C   0  0  0  0  0  0  0  0  0  0  0  0
  -24.2435  -19.1686   23.0300 C   0  0  0  0  0  0  0  0  0  0  0  0
  -23.7987  -22.1940   24.5452 C   0  0  0  0  0  0  0  0  0  0  0  0
  -28.3937  -30.9988   23.8796 C   0  0  0  0  0  0  0  0  0  0  0  0
  -22.5919  -13.4436   20.6627 C   0  0  0  0  0  0  0  0  0  0  0  0
  -27.7241  -18.4814   22.0172 C   0  0  0  0  0  0  0  0  0  0  0  0
  -25.6210  -20.4498   21.3489 C   0  0  0  0  0  0  0  0  0  0  0  0
  -22.4484  -14.9634   20.6672 C   0  0  0  0  0  0  0  0  0  0  0  0
  -26.1153  -29.7594   26.3187 C   0  0  0  0  0  0  0  0  0  0  0  0
  -23.3695  -15.5897   19.6250 C   0  0  0  0  0  0  0  0  0  0  0  0
  -25.0307  -29.0700   25.4892 C   0  0  0  0  0  0  0  0  0  0  0  0
  -26.6397  -31.0168   25.6288 C   0  0  0  0  0  0  0  0  0  0  0  0
  -26.0237  -30.1248   23.4155 C   0  0  0  0  0  0  0  0  0  0  0  0
  -24.8401  -15.2828   19.9328 C   0  0  1  0  0  0  0  0  0  0  0  0
  -26.2436  -18.1142   22.0415 C   0  0  1  0  0  0  0  0  0  0  0  0
  -25.5033  -28.8208   24.0442 C   0  0  2  0  0  0  0  0  0  0  0  0
  -22.4296  -23.3278   26.3165 C   0  0  0  0  0  0  0  0  0  0  0  0
  -21.8560  -19.2463   21.1316 C   0  0  0  0  0  0  0  0  0  0  0  0
  -20.9231  -21.1287   22.4934 C   0  0  0  0  0  0  0  0  0  0  0  0
  -21.2662  -18.8884   23.5355 C   0  0  0  0  0  0  0  0  0  0  0  0
  -31.8533  -27.3873   16.8225 C   0  0  0  0  0  0  0  0  0  0  0  0
  -26.2007  -22.8531   26.1436 C   0  0  0  0  0  0  0  0  0  0  0  0
  -30.0457  -30.9021   22.0301 C   0  0  0  0  0  0  0  0  0  0  0  0
  -30.2252  -24.9364   18.4792 C   0  0  0  0  0  0  0  0  0  0  0  0
  -31.6045  -25.5822   18.5338 C   0  0  0  0  0  0  0  0  0  0  0  0
  -30.2541  -23.4444   18.7892 C   0  0  0  0  0  0  0  0  0  1  0  0
  -23.2752  -20.3264   22.9986 C   0  0  1  0  0  0  0  0  0  0  0  0
  -23.7210  -22.5853   26.0099 C   0  0  2  0  0  0  0  0  0  0  0  0
  -21.8560  -19.8994   22.5282 C   0  0  0  0  0  0  0  0  0  0  0  0
  -23.1323  -28.4750   23.4601 N   0  0  0  0  0  0  0  0  0  0  0  0
  -24.4171  -28.1760   23.2033 N   0  0  0  0  0  0  0  0  0  0  0  0
  -25.3747  -19.2809   22.2093 N   0  0  0  0  0  0  0  0  0  0  0  0
  -27.0733  -30.7118   24.2632 N   0  0  0  0  0  0  0  0  0  0  0  0
  -25.8094  -26.8866   21.7857 N   0  0  0  0  0  0  0  0  0  0  0  0
  -21.6481  -25.9111   20.3269 N   0  0  0  0  0  0  0  0  0  0  0  0
  -25.3212  -16.1337   21.0000 N   0  0  0  0  0  0  0  0  0  0  0  0
  -23.3092  -20.9232   24.3294 N   0  0  0  0  0  0  0  0  0  0  0  0
  -28.7241  -30.6727   22.5699 N   0  0  0  0  0  0  0  0  0  0  0  0
  -31.5270  -26.9818   18.1911 N   0  0  3  0  0  0  0  0  0  0  0  0
  -24.8670  -23.4664   26.3722 N   0  3  0  0  0  0  0  0  0  0  0  0
  -23.8790  -25.4830   20.0136 O   0  0  0  0  0  0  0  0  0  0  0  0
  -25.8814  -17.9908   19.7116 O   0  0  0  0  0  0  0  0  0  0  0  0
  -24.0085  -18.2035   23.7615 O   0  0  0  0  0  0  0  0  0  0  0  0
  -24.2454  -22.9424   23.6786 O   0  0  0  0  0  0  0  0  0  0  0  0
  -29.2187  -31.5031   24.6491 O   0  0  0  0  0  0  0  0  0  0  0  0
  -16.8811  -27.9465   22.3686 O   0  0  0  0  0  0  0  0  0  0  0  0
  -28.9216  -22.9373   18.7304 O   0  0  0  0  0  0  0  0  0  1  0  0
  -14.1642  -23.1728   21.8848 F   0  0  0  0  0  0  0  0  0  0  0  0
  -30.1900  -28.1461   22.6371 F   0  0  0  0  0  0  0  0  0  0  0  0
  -17.2874  -26.2980   20.1868 F   0  0  0  0  0  0  0  0  0  0  0  0
  1  2  1  0  0  0  0
  1  5  2  0  0  0  0
  2  6  2  0  0  0  0
  3 10  2  0  0  0  0
  3 18  1  0  0  0  0
  4 11  1  0  0  0  0
  4 18  2  0  0  0  0
  5 20  1  0  0  0  0
  6 22  1  0  0  0  0
  7 12  2  0  0  0  0
  7 21  1  0  0  0  0
  8  9  2  0  0  0  0
  8 24  1  0  0  0  0
  9 25  1  0  0  0  0
 10 26  1  0  0  0  0
 11 26  2  0  0  0  0
 12 27  1  0  0  0  0
 13 14  2  0  0  0  0
 13 28  1  0  0  0  0
 14 29  1  0  0  0  0
 15 23  1  0  0  0  0
 15 27  2  0  0  0  0
 16 25  2  0  0  0  0
 16 30  1  0  0  0  0
 17 29  2  0  0  0  0
 17 31  1  0  0  0  0
 18 32  1  0  0  0  0
 19 32  1  0  0  0  0
 19 33  2  0  0  0  0
 19 34  1  0  0  0  0
 20 22  2  0  0  0  0
 20 39  1  0  0  0  0
 21 23  2  0  0  0  0
 21 40  1  0  0  0  0
 22 48  1  0  0  0  0
 23 41  1  0  0  0  0
 24 30  2  0  0  0  0
 24 57  1  0  0  0  0
 25 73  1  0  0  0  0
 26 80  1  0  0  0  0
 27 81  1  0  0  0  0
 28 31  2  0  0  0  0
 28 80  1  0  0  0  0
 29 82  1  0  0  0  0
 30 83  1  0  0  0  0
 31 84  1  0  0  0  0
 32 64  2  0  0  0  0
 33 65  1  0  0  0  0
 33 68  1  0  0  0  0
 34 69  1  0  0  0  0
 34 75  2  0  0  0  0
 35 49  1  0  0  0  0
 35 70  1  0  0  0  0
 35 76  2  0  0  0  0
 36 61  1  0  0  0  0
 36 66  1  0  0  0  0
 36 77  2  0  0  0  0
 37 62  1  0  0  0  0
 37 71  1  0  0  0  0
 37 78  2  0  0  0  0
 38 67  1  0  0  0  0
 38 72  1  0  0  0  0
 38 79  2  0  0  0  0
 39 42  1  0  0  0  0
 40 49  1  0  0  0  0
 41 66  1  0  0  0  0
 42 44  1  0  0  0  0
 43 45  1  0  0  0  0
 43 46  1  0  0  0  0
 44 48  1  0  0  0  0
 45 50  1  0  0  0  0
 46 67  1  0  0  0  0
 47 50  1  0  0  0  0
 47 67  1  0  0  0  0
 48 70  1  0  0  0  0
 49 66  1  0  0  0  0
 50 65  1  0  0  0  0
 51 62  1  0  0  0  0
 52 63  1  0  0  0  0
 53 63  1  0  0  0  0
 54 63  1  0  0  0  0
 55 73  1  0  0  0  0
 56 74  1  0  0  0  0
 57 72  1  0  0  0  0
 58 59  1  0  0  0  0
 58 60  1  0  0  0  0
 59 73  1  0  0  0  0
 60 81  1  0  0  0  0
 61 63  1  0  0  0  0
 61 71  1  0  0  0  0
 62 74  1  0  0  0  0
 64 65  1  0  0  0  0
M  CHG  1  74   1
M  ISO  4  38 100  60 101  72 100  81 101
M  END
> <Batch ID>
0019

> <Smiles>
CNC(C)C(=O)NC(C(=O)N1Cc2cc([101O:1][101CH2:1]CCN(C)c3ccc(C[100NH:0][100C:0](=O)N4CCCC(n5nc(-c6ccc(Oc7ccc(F)cc7F)cc6)c(C(N)=O)c5N)C4)c(F)c3)ccc2CC1C(=O)NC1CCCc2ccccc21)C(C)(C)C

> <Shape>
0.212

> <Color>
0.078

> <Negative vol penalty>
0.000

$$$$

  -OEChem-04042321053D

 83 91  0     1  0  0  0  0  0999 V2000
  -16.6032  -29.8790   23.7829 C   0  0  0  0  0  0  0  0  0  0  0  0
  -17.7199  -30.4868   24.3478 C   0  0  0  0  0  0  0  0  0  0  0  0
  -22.0993  -17.0041   21.4901 C   0  0  0  0  0  0  0  0  0  0  0  0
  -24.2108  -15.8672   21.7839 C   0  0  0  0  0  0  0  0  0  0  0  0
  -16.7551  -28.7376   22.9967 C   0  0  0  0  0  0  0  0  0  0  0  0
  -18.9891  -29.9529   24.1277 C   0  0  0  0  0  0  0  0  0  0  0  0
  -25.8281  -31.9439   23.3657 C   0  0  0  0  0  0  0  0  0  0  0  0
  -30.0704  -24.9611   21.1909 C   0  0  0  0  0  0  0  0  0  0  0  0
  -30.5952  -25.9986   21.9615 C   0  0  0  0  0  0  0  0  0  0  0  0
  -21.4563  -15.7741   21.3517 C   0  0  0  0  0  0  0  0  0  0  0  0
  -23.5677  -14.6372   21.6455 C   0  0  0  0  0  0  0  0  0  0  0  0
  -27.0946  -31.6645   23.8772 C   0  0  0  0  0  0  0  0  0  0  0  0
  -22.5399  -11.2092   21.0110 C   0  0  0  0  0  0  0  0  0  0  0  0
  -23.1396  -10.2527   20.1919 C   0  0  0  0  0  0  0  0  0  0  0  0
  -27.2441  -29.7353   22.4367 C   0  0  0  0  0  0  0  0  0  0  0  0
  -30.3341  -23.4446   23.0530 C   0  0  0  0  0  0  0  0  0  0  0  0
  -22.9753  -11.7601   18.3110 C   0  0  0  0  0  0  0  0  0  0  0  0
  -23.4766  -17.0507   21.7062 C   0  0  0  0  0  0  0  0  0  0  0  0
  -24.3612  -19.0365   23.0410 C   0  0  0  0  0  0  0  0  0  0  0  0
  -18.0278  -28.1950   22.7589 C   0  0  0  0  0  0  0  0  0  0  0  0
  -25.2545  -31.1135   22.3921 C   0  0  0  0  0  0  0  0  0  0  0  0
  -19.1580  -28.8024   23.3386 C   0  0  0  0  0  0  0  0  0  0  0  0
  -25.9712  -30.0078   21.9127 C   0  0  0  0  0  0  0  0  0  0  0  0
  -29.9398  -23.6841   21.7367 C   0  0  0  0  0  0  0  0  0  0  0  0
  -30.9895  -25.7591   23.2778 C   0  0  0  0  0  0  0  0  0  0  0  0
  -22.1905  -14.5907   21.4294 C   0  0  0  0  0  0  0  0  0  0  0  0
  -27.8016  -30.5584   23.4149 C   0  0  0  0  0  0  0  0  0  0  0  0
  -22.1578  -12.4413   20.4800 C   0  0  0  0  0  0  0  0  0  0  0  0
  -23.3574  -10.5281   18.8420 C   0  0  0  0  0  0  0  0  0  0  0  0
  -22.3756  -12.7167   19.1301 C   0  0  0  0  0  0  0  0  0  0  0  0
  -30.8590  -24.4820   23.8236 C   0  0  0  0  0  0  0  0  0  0  0  0
  -24.1416  -18.3210   21.8487 C   0  0  0  0  0  0  0  0  0  0  0  0
  -25.0276  -20.1698   22.6435 C   0  0  0  0  0  0  0  0  0  0  0  0
  -23.9955  -18.7063   24.3874 C   0  0  0  0  0  0  0  0  0  0  0  0
  -22.6542  -29.2911   22.2475 C   0  0  0  0  0  0  0  0  0  0  0  0
  -23.5534  -28.9310   19.1517 C   0  0  0  0  0  0  0  0  0  0  0  0
  -26.0586  -29.0028   16.8352 C   0  0  0  0  0  0  0  0  0  0  0  0
  -28.9689  -22.6988   19.6312 C   0  0  0  0  0  0  0  0  0  0  0  0
  -18.1375  -26.9325   21.9411 C   0  0  0  0  0  0  0  0  0  0  0  0
  -23.8986  -31.4438   21.8312 C   0  0  0  0  0  0  0  0  0  0  0  0
  -25.4085  -29.0966   20.8537 C   0  0  0  0  0  0  0  0  0  0  0  0
  -19.5539  -26.6470   21.4486 C   0  0  0  0  0  0  0  0  0  0  0  0
  -25.8620  -22.0490   18.0181 C   0  0  0  0  0  0  0  0  0  0  0  0
  -20.5592  -26.8251   22.5819 C   0  0  0  0  0  0  0  0  0  0  0  0
  -25.1555  -21.0800   18.9689 C   0  0  0  0  0  0  0  0  0  0  0  0
  -27.3669  -21.7923   17.9618 C   0  0  0  0  0  0  0  0  0  0  0  0
  -27.3354  -20.8002   20.2166 C   0  0  0  0  0  0  0  0  0  0  0  0
  -20.5538  -28.2674   23.1026 C   0  0  1  0  0  0  0  0  0  0  0  0
  -23.1971  -30.2376   21.2145 C   0  0  1  0  0  0  0  0  0  0  0  0
  -25.8269  -21.0618   20.3562 C   0  0  2  0  0  0  0  0  0  0  0  0
  -26.4943  -28.6272   14.3926 C   0  0  0  0  0  0  0  0  0  0  0  0
  -23.4183  -25.9150   19.5939 C   0  0  0  0  0  0  0  0  0  0  0  0
  -24.7463  -25.6176   17.4924 C   0  0  0  0  0  0  0  0  0  0  0  0
  -22.4961  -26.6904   17.4024 C   0  0  0  0  0  0  0  0  0  0  0  0
  -32.7230  -27.5108   23.5722 C   0  0  0  0  0  0  0  0  0  0  0  0
  -26.9557  -31.7963   16.4469 C   0  0  0  0  0  0  0  0  0  0  0  0
  -30.4076  -28.7135   25.1042 C   0  0  0  0  0  0  0  0  0  0  0  0
  -30.8793  -27.2711   25.2430 C   0  0  0  0  0  0  0  0  0  0  0  0
  -29.4325  -28.9122   23.9497 C   0  0  0  0  0  0  0  0  0  1  0  0
  -24.4378  -27.9651   18.4007 C   0  0  1  0  0  0  0  0  0  0  0  0
  -26.1443  -29.6482   15.4639 C   0  0  2  0  0  0  0  0  0  0  0  0
  -23.7847  -26.5629   18.2437 C   0  0  0  0  0  0  0  0  0  0  0  0
  -24.6288  -18.9473   20.7742 N   0  0  0  0  0  0  0  0  0  0  0  0
  -25.1612  -20.0683   21.2899 N   0  0  0  0  0  0  0  0  0  0  0  0
  -24.0765  -29.4578   20.3411 N   0  0  0  0  0  0  0  0  0  0  0  0
  -27.9350  -21.7935   19.3117 N   0  0  0  0  0  0  0  0  0  0  0  0
  -25.5065  -21.2333   23.3232 N   0  0  0  0  0  0  0  0  0  0  0  0
  -23.3147  -17.5033   24.6189 N   0  0  0  0  0  0  0  0  0  0  0  0
  -29.4071  -22.6304   20.9533 N   0  0  0  0  0  0  0  0  0  0  0  0
  -21.2823  -29.1332   22.2002 N   0  0  0  0  0  0  0  0  0  0  0  0
  -24.7706  -28.6141   17.1372 N   0  0  0  0  0  0  0  0  0  0  0  0
  -31.5137  -26.8221   24.0272 N   0  0  3  0  0  0  0  0  0  0  0  0
  -27.1868  -30.7131   15.4568 N   0  3  0  0  0  0  0  0  0  0  0  0
  -24.2501  -19.4636   25.3545 O   0  0  0  0  0  0  0  0  0  0  0  0
  -23.4234  -28.7433   23.0286 O   0  0  0  0  0  0  0  0  0  0  0  0
  -22.4424  -29.2132   18.6960 O   0  0  0  0  0  0  0  0  0  0  0  0
  -27.0371  -28.8547   17.5640 O   0  0  0  0  0  0  0  0  0  0  0  0
  -29.4127  -23.4962   18.8011 O   0  0  0  0  0  0  0  0  0  0  0  0
  -21.5633  -13.3902   21.2947 O   0  0  0  0  0  0  0  0  0  0  0  0
  -29.0377  -30.2830   23.9129 O   0  0  0  0  0  0  0  0  0  1  0  0
  -23.9347   -9.6100   18.0559 F   0  0  0  0  0  0  0  0  0  0  0  0
  -22.0118  -13.8990   18.6146 F   0  0  0  0  0  0  0  0  0  0  0  0
  -31.3341  -24.1429   25.4495 Cl  0  0  0  0  0  0  0  0  0  0  0  0
  1  2  1  0  0  0  0
  1  5  2  0  0  0  0
  2  6  2  0  0  0  0
  3 10  2  0  0  0  0
  3 18  1  0  0  0  0
  4 11  1  0  0  0  0
  4 18  2  0  0  0  0
  5 20  1  0  0  0  0
  6 22  1  0  0  0  0
  7 12  2  0  0  0  0
  7 21  1  0  0  0  0
  8  9  2  0  0  0  0
  8 24  1  0  0  0  0
  9 25  1  0  0  0  0
 10 26  1  0  0  0  0
 11 26  2  0  0  0  0
 12 27  1  0  0  0  0
 13 14  2  0  0  0  0
 13 28  1  0  0  0  0
 14 29  1  0  0  0  0
 15 23  1  0  0  0  0
 15 27  2  0  0  0  0
 16 24  2  0  0  0  0
 16 31  1  0  0  0  0
 17 29  2  0  0  0  0
 17 30  1  0  0  0  0
 18 32  1  0  0  0  0
 19 32  1  0  0  0  0
 19 33  2  0  0  0  0
 19 34  1  0  0  0  0
 20 22  2  0  0  0  0
 20 39  1  0  0  0  0
 21 23  2  0  0  0  0
 21 40  1  0  0  0  0
 22 48  1  0  0  0  0
 23 41  1  0  0  0  0
 24 69  1  0  0  0  0
 25 31  2  0  0  0  0
 25 72  1  0  0  0  0
 26 79  1  0  0  0  0
 27 80  1  0  0  0  0
 28 30  2  0  0  0  0
 28 79  1  0  0  0  0
 29 81  1  0  0  0  0
 30 82  1  0  0  0  0
 31 83  1  0  0  0  0
 32 63  2  0  0  0  0
 33 64  1  0  0  0  0
 33 67  1  0  0  0  0
 34 68  1  0  0  0  0
 34 74  2  0  0  0  0
 35 49  1  0  0  0  0
 35 70  1  0  0  0  0
 35 75  2  0  0  0  0
 36 60  1  0  0  0  0
 36 65  1  0  0  0  0
 36 76  2  0  0  0  0
 37 61  1  0  0  0  0
 37 71  1  0  0  0  0
 37 77  2  0  0  0  0
 38 66  1  0  0  0  0
 38 69  1  0  0  0  0
 38 78  2  0  0  0  0
 39 42  1  0  0  0  0
 40 49  1  0  0  0  0
 41 65  1  0  0  0  0
 42 44  1  0  0  0  0
 43 45  1  0  0  0  0
 43 46  1  0  0  0  0
 44 48  1  0  0  0  0
 45 50  1  0  0  0  0
 46 66  1  0  0  0  0
 47 50  1  0  0  0  0
 47 66  1  0  0  0  0
 48 70  1  0  0  0  0
 49 65  1  0  0  0  0
 50 64  1  0  0  0  0
 51 61  1  0  0  0  0
 52 62  1  0  0  0  0
 53 62  1  0  0  0  0
 54 62  1  0  0  0  0
 55 72  1  0  0  0  0
 56 73  1  0  0  0  0
 57 58  1  0  0  0  0
 57 59  1  0  0  0  0
 58 72  1  0  0  0  0
 59 80  1  0  0  0  0
 60 62  1  0  0  0  0
 60 71  1  0  0  0  0
 61 73  1  0  0  0  0
 63 64  1  0  0  0  0
M  CHG  1  73   1
M  ISO  4  38 100  59 101  69 100  80 101
M  END
> <Batch ID>
0019

> <Smiles>
CNC(C)C(=O)NC(C(=O)N1Cc2cc([101O:1][101CH2:1]CCN(C)c3ccc([100NH:0][100C:0](=O)N4CCCC(n5nc(-c6ccc(Oc7ccc(F)cc7F)cc6)c(C(N)=O)c5N)C4)cc3Cl)ccc2CC1C(=O)NC1CCCc2ccccc21)C(C)(C)C

> <Shape>
0.221

> <Color>
0.111

> <Negative vol penalty>
0.000

$$$$

  -OEChem-04042321053D

 80 88  0     1  0  0  0  0  0999 V2000
  -19.1693  -20.6198   30.0505 C   0  0  0  0  0  0  0  0  0  0  0  0
  -20.4578  -20.4628   29.5500 C   0  0  0  0  0  0  0  0  0  0  0  0
  -23.1969   -9.8526   19.9568 C   0  0  0  0  0  0  0  0  0  0  0  0
  -23.9043   -9.9367   22.2654 C   0  0  0  0  0  0  0  0  0  0  0  0
  -18.0749  -20.1861   29.3034 C   0  0  0  0  0  0  0  0  0  0  0  0
  -20.6527  -19.8709   28.3025 C   0  0  0  0  0  0  0  0  0  0  0  0
  -24.9881  -21.2594   24.2059 C   0  0  0  0  0  0  0  0  0  0  0  0
  -32.1348  -17.5317   21.9657 C   0  0  0  0  0  0  0  0  0  0  0  0
  -22.5035   -8.6696   20.2123 C   0  0  0  0  0  0  0  0  0  0  0  0
  -23.2108   -8.7537   22.5210 C   0  0  0  0  0  0  0  0  0  0  0  0
  -26.2182  -20.6750   23.9074 C   0  0  0  0  0  0  0  0  0  0  0  0
  -20.8436   -5.4344   20.1741 C   0  0  0  0  0  0  0  0  0  0  0  0
  -31.9554  -18.8854   21.6814 C   0  0  0  0  0  0  0  0  0  0  0  0
  -20.9769   -4.3918   19.2572 C   0  0  0  0  0  0  0  0  0  0  0  0
  -25.1849  -19.4272   22.1201 C   0  0  0  0  0  0  0  0  0  0  0  0
  -30.0369  -17.5051   23.1637 C   0  0  0  0  0  0  0  0  0  0  0  0
  -23.3587   -4.3428   19.6591 C   0  0  0  0  0  0  0  0  0  0  0  0
  -23.8973  -10.4862   20.9834 C   0  0  0  0  0  0  0  0  0  0  0  0
  -24.1209  -13.0223   20.8234 C   0  0  0  0  0  0  0  0  0  0  0  0
  -18.2559  -19.5974   28.0419 C   0  0  0  0  0  0  0  0  0  0  0  0
  -23.8430  -20.9233   23.4695 C   0  0  0  0  0  0  0  0  0  0  0  0
  -19.5597  -19.4278   27.5385 C   0  0  0  0  0  0  0  0  0  0  0  0
  -23.9419  -20.0107   22.4096 C   0  0  0  0  0  0  0  0  0  0  0  0
  -31.1755  -16.8415   22.7068 C   0  0  0  0  0  0  0  0  0  0  0  0
  -29.8575  -18.8589   22.8794 C   0  0  0  0  0  0  0  0  0  0  0  0
  -22.5105   -8.1201   21.4944 C   0  0  0  0  0  0  0  0  0  0  0  0
  -26.3162  -19.7566   22.8662 C   0  0  0  0  0  0  0  0  0  0  0  0
  -21.9679   -5.9313   20.8335 C   0  0  0  0  0  0  0  0  0  0  0  0
  -22.2344   -3.8460   18.9997 C   0  0  0  0  0  0  0  0  0  0  0  0
  -30.8167  -19.5490   22.1383 C   0  0  0  0  0  0  0  0  0  0  0  0
  -23.2254   -5.3855   20.5760 C   0  0  0  0  0  0  0  0  0  0  0  0
  -24.6143  -11.7079   20.7199 C   0  0  0  0  0  0  0  0  0  0  0  0
  -25.1838  -13.8169   20.4696 C   0  0  0  0  0  0  0  0  0  0  0  0
  -22.8182  -13.4837   21.2053 C   0  0  0  0  0  0  0  0  0  0  0  0
  -21.0474  -19.5771   24.1595 C   0  0  0  0  0  0  0  0  0  0  0  0
  -20.3709  -20.3176   21.0747 C   0  0  0  0  0  0  0  0  0  0  0  0
  -21.5290  -20.9912   17.9359 C   0  0  0  0  0  0  0  0  0  0  0  0
  -30.9469  -14.0532   20.9647 C   0  0  0  0  0  0  0  0  0  0  0  0
  -17.0451  -19.1013   27.2920 C   0  0  0  0  0  0  0  0  0  0  0  0
  -22.5289  -21.5827   23.7868 C   0  0  0  0  0  0  0  0  0  0  0  0
  -22.7465  -19.6313   21.5756 C   0  0  0  0  0  0  0  0  0  0  0  0
  -17.3145  -18.8247   25.8151 C   0  0  0  0  0  0  0  0  0  0  0  0
  -29.3601  -13.1167   17.9181 C   0  0  0  0  0  0  0  0  0  0  0  0
  -18.6046  -18.0281   25.6479 C   0  0  0  0  0  0  0  0  0  0  0  0
  -27.9287  -12.7801   18.3396 C   0  0  0  0  0  0  0  0  0  0  0  0
  -30.3751  -12.6906   18.9765 C   0  0  0  0  0  0  0  0  0  0  0  0
  -28.6775  -12.8692   20.7542 C   0  0  0  0  0  0  0  0  0  0  0  0
  -19.8103  -18.8130   26.1786 C   0  0  1  0  0  0  0  0  0  0  0  0
  -21.3253  -20.7798   23.3029 C   0  0  1  0  0  0  0  0  0  0  0  0
  -27.6135  -13.3305   19.7436 C   0  0  2  0  0  0  0  0  0  0  0  0
  -20.7353  -21.5203   15.6148 C   0  0  0  0  0  0  0  0  0  0  0  0
  -19.6117  -17.3902   20.6696 C   0  0  0  0  0  0  0  0  0  0  0  0
  -19.7526  -17.7679   18.1986 C   0  0  0  0  0  0  0  0  0  0  0  0
  -18.0830  -19.0278   19.5580 C   0  0  0  0  0  0  0  0  0  0  0  0
  -22.9027  -23.6126   17.9387 C   0  0  0  0  0  0  0  0  0  0  0  0
  -31.3674  -15.3940   23.0103 C   0  0  0  0  0  0  0  0  0  0  0  0
  -28.6323  -19.5705   23.3731 C   0  0  0  0  0  0  0  0  0  1  0  0
  -20.5341  -19.6181   19.7468 C   0  0  1  0  0  0  0  0  0  0  0  0
  -21.1846  -22.0930   16.9500 C   0  0  2  0  0  0  0  0  0  0  0  0
  -19.5177  -18.4565   19.5600 C   0  0  0  0  0  0  0  0  0  0  0  0
  -25.8913  -11.6657   20.3307 N   0  0  0  0  0  0  0  0  0  0  0  0
  -26.2093  -12.9634   20.1864 N   0  0  0  0  0  0  0  0  0  0  0  0
  -21.4825  -20.2984   21.9289 N   0  0  0  0  0  0  0  0  0  0  0  0
  -30.0196  -13.2470   20.2842 N   0  0  0  0  0  0  0  0  0  0  0  0
  -25.3320  -15.1555   20.3762 N   0  0  0  0  0  0  0  0  0  0  0  0
  -21.8435  -12.5330   21.5378 N   0  0  0  0  0  0  0  0  0  0  0  0
  -20.2094  -19.8294   25.2289 N   0  0  0  0  0  0  0  0  0  0  0  0
  -20.4493  -20.6564   18.7254 N   0  0  0  0  0  0  0  0  0  0  0  0
  -30.5277  -14.5452   22.1947 N   0  0  0  0  0  0  0  0  0  0  0  0
  -22.3697  -22.9647   16.7127 N   0  3  0  0  0  0  0  0  0  0  0  0
  -22.5222  -14.7024   21.2345 O   0  0  0  0  0  0  0  0  0  0  0  0
  -21.5546  -18.4995   23.8708 O   0  0  0  0  0  0  0  0  0  0  0  0
  -19.2991  -20.8670   21.3411 O   0  0  0  0  0  0  0  0  0  0  0  0
  -22.6433  -20.4762   17.9967 O   0  0  0  0  0  0  0  0  0  0  0  0
  -32.0636  -14.3196   20.5073 O   0  0  0  0  0  0  0  0  0  0  0  0
  -21.8338   -6.9659   21.7441 O   0  0  0  0  0  0  0  0  0  0  0  0
  -27.5155  -19.1842   22.5732 O   0  0  0  0  0  0  0  0  0  1  0  0
  -22.3620   -2.8437   18.1203 F   0  0  0  0  0  0  0  0  0  0  0  0
  -30.6539  -20.8503   21.8614 F   0  0  0  0  0  0  0  0  0  0  0  0
  -24.3090   -5.8579   21.2073 F   0  0  0  0  0  0  0  0  0  0  0  0
  1  2  1  0  0  0  0
  1  5  2  0  0  0  0
  2  6  2  0  0  0  0
  3  9  2  0  0  0  0
  3 18  1  0  0  0  0
  4 10  1  0  0  0  0
  4 18  2  0  0  0  0
  5 20  1  0  0  0  0
  6 22  1  0  0  0  0
  7 11  2  0  0  0  0
  7 21  1  0  0  0  0
  8 13  2  0  0  0  0
  8 24  1  0  0  0  0
  9 26  1  0  0  0  0
 10 26  2  0  0  0  0
 11 27  1  0  0  0  0
 12 14  2  0  0  0  0
 12 28  1  0  0  0  0
 13 30  1  0  0  0  0
 14 29  1  0  0  0  0
 15 23  1  0  0  0  0
 15 27  2  0  0  0  0
 16 24  2  0  0  0  0
 16 25  1  0  0  0  0
 17 29  2  0  0  0  0
 17 31  1  0  0  0  0
 18 32  1  0  0  0  0
 19 32  1  0  0  0  0
 19 33  2  0  0  0  0
 19 34  1  0  0  0  0
 20 22  2  0  0  0  0
 20 39  1  0  0  0  0
 21 23  2  0  0  0  0
 21 40  1  0  0  0  0
 22 48  1  0  0  0  0
 23 41  1  0  0  0  0
 24 56  1  0  0  0  0
 25 30  2  0  0  0  0
 25 57  1  0  0  0  0
 26 76  1  0  0  0  0
 27 77  1  0  0  0  0
 28 31  2  0  0  0  0
 28 76  1  0  0  0  0
 29 78  1  0  0  0  0
 30 79  1  0  0  0  0
 31 80  1  0  0  0  0
 32 61  2  0  0  0  0
 33 62  1  0  0  0  0
 33 65  1  0  0  0  0
 34 66  1  0  0  0  0
 34 71  2  0  0  0  0
 35 49  1  0  0  0  0
 35 67  1  0  0  0  0
 35 72  2  0  0  0  0
 36 58  1  0  0  0  0
 36 63  1  0  0  0  0
 36 73  2  0  0  0  0
 37 59  1  0  0  0  0
 37 68  1  0  0  0  0
 37 74  2  0  0  0  0
 38 64  1  0  0  0  0
 38 69  1  0  0  0  0
 38 75  2  0  0  0  0
 39 42  1  0  0  0  0
 40 49  1  0  0  0  0
 41 63  1  0  0  0  0
 42 44  1  0  0  0  0
 43 45  1  0  0  0  0
 43 46  1  0  0  0  0
 44 48  1  0  0  0  0
 45 50  1  0  0  0  0
 46 64  1  0  0  0  0
 47 50  1  0  0  0  0
 47 64  1  0  0  0  0
 48 67  1  0  0  0  0
 49 63  1  0  0  0  0
 50 62  1  0  0  0  0
 51 59  1  0  0  0  0
 52 60  1  0  0  0  0
 53 60  1  0  0  0  0
 54 60  1  0  0  0  0
 55 70  1  0  0  0  0
 56 69  1  0  0  0  0
 57 77  1  0  0  0  0
 58 60  1  0  0  0  0
 58 68  1  0  0  0  0
 59 70  1  0  0  0  0
 61 62  1  0  0  0  0
M  CHG  1  70   1
M  ISO  4  38 100  57 101  69 100  77 101
M  END
> <Batch ID>
0019

> <Smiles>
CNC(C)C(=O)NC(C(=O)N1Cc2cc([101O:1][101CH2:1]c3cc(C[100NH:0][100C:0](=O)N4CCCC(n5nc(-c6ccc(Oc7ccc(F)cc7F)cc6)c(C(N)=O)c5N)C4)ccc3F)ccc2CC1C(=O)NC1CCCc2ccccc21)C(C)(C)C

> <Shape>
0.156

> <Color>
0.193

> <Negative vol penalty>
0.000

$$$$

  -OEChem-04042321053D

 80 88  0     1  0  0  0  0  0999 V2000
  -22.4832  -31.0549   26.2564 C   0  0  0  0  0  0  0  0  0  0  0  0
  -23.2942  -30.1172   26.8877 C   0  0  0  0  0  0  0  0  0  0  0  0
  -23.6748   -9.4929   19.9552 C   0  0  0  0  0  0  0  0  0  0  0  0
  -23.2036  -10.0994   22.2459 C   0  0  0  0  0  0  0  0  0  0  0  0
  -21.9441  -30.7762   25.0012 C   0  0  0  0  0  0  0  0  0  0  0  0
  -23.5657  -28.8997   26.2645 C   0  0  0  0  0  0  0  0  0  0  0  0
  -28.7301  -23.9739   25.6457 C   0  0  0  0  0  0  0  0  0  0  0  0
  -30.9092  -16.5083   25.7636 C   0  0  0  0  0  0  0  0  0  0  0  0
  -30.7599  -17.8939   25.8231 C   0  0  0  0  0  0  0  0  0  0  0  0
  -22.9403   -8.3180   20.1151 C   0  0  0  0  0  0  0  0  0  0  0  0
  -22.4690   -8.9244   22.4058 C   0  0  0  0  0  0  0  0  0  0  0  0
  -28.9299  -22.6005   25.7779 C   0  0  0  0  0  0  0  0  0  0  0  0
  -23.0989   -5.6446   22.9321 C   0  0  0  0  0  0  0  0  0  0  0  0
  -23.3112   -4.9005   24.0926 C   0  0  0  0  0  0  0  0  0  0  0  0
  -28.0084  -22.2605   23.5746 C   0  0  0  0  0  0  0  0  0  0  0  0
  -28.5333  -16.2374   26.1084 C   0  0  0  0  0  0  0  0  0  0  0  0
  -20.9849   -5.1661   24.6884 C   0  0  0  0  0  0  0  0  0  0  0  0
  -23.8065  -10.3836   21.0206 C   0  0  0  0  0  0  0  0  0  0  0  0
  -24.0853  -12.8487   20.4262 C   0  0  0  0  0  0  0  0  0  0  0  0
  -22.2170  -29.5586   24.3580 C   0  0  0  0  0  0  0  0  0  0  0  0
  -28.1569  -24.5008   24.4794 C   0  0  0  0  0  0  0  0  0  0  0  0
  -23.0287  -28.6039   25.0000 C   0  0  0  0  0  0  0  0  0  0  0  0
  -27.8047  -23.6412   23.4291 C   0  0  0  0  0  0  0  0  0  0  0  0
  -29.7959  -15.6801   25.9062 C   0  0  0  0  0  0  0  0  0  0  0  0
  -29.4973  -18.4512   26.0252 C   0  0  0  0  0  0  0  0  0  0  0  0
  -22.3374   -8.0337   21.3404 C   0  0  0  0  0  0  0  0  0  0  0  0
  -28.5664  -21.7433   24.7434 C   0  0  0  0  0  0  0  0  0  0  0  0
  -21.8297   -6.1495   22.6497 C   0  0  0  0  0  0  0  0  0  0  0  0
  -22.2542   -4.6612   24.9708 C   0  0  0  0  0  0  0  0  0  0  0  0
  -28.3840  -17.6230   26.1679 C   0  0  0  0  0  0  0  0  0  0  0  0
  -20.7727   -5.9102   23.5279 C   0  0  0  0  0  0  0  0  0  0  0  0
  -24.5656  -11.5972   20.8562 C   0  0  0  0  0  0  0  0  0  0  0  0
  -25.1909  -13.6636   20.4388 C   0  0  0  0  0  0  0  0  0  0  0  0
  -22.7584  -13.2397   20.0492 C   0  0  0  0  0  0  0  0  0  0  0  0
  -25.5102  -26.1333   23.8206 C   0  0  0  0  0  0  0  0  0  0  0  0
  -26.8103  -26.2874   20.8528 C   0  0  0  0  0  0  0  0  0  0  0  0
  -28.9385  -24.9426   18.5486 C   0  0  0  0  0  0  0  0  0  0  0  0
  -30.3393  -13.5039   23.4916 C   0  0  0  0  0  0  0  0  0  0  0  0
  -21.5732  -29.2829   23.0223 C   0  0  0  0  0  0  0  0  0  0  0  0
  -27.9726  -25.9872   24.3417 C   0  0  0  0  0  0  0  0  0  0  0  0
  -27.2044  -24.1586   22.1483 C   0  0  0  0  0  0  0  0  0  0  0  0
  -22.2140  -28.1226   22.2652 C   0  0  0  0  0  0  0  0  0  0  0  0
  -29.9486  -13.5274   19.9527 C   0  0  0  0  0  0  0  0  0  0  0  0
  -22.4192  -26.9287   23.1922 C   0  0  0  0  0  0  0  0  0  0  0  0
  -28.4814  -13.1483   19.7442 C   0  0  0  0  0  0  0  0  0  0  0  0
  -30.5626  -12.7786   21.1335 C   0  0  0  0  0  0  0  0  0  0  0  0
  -28.3517  -12.5252   22.1924 C   0  0  0  0  0  0  0  0  0  0  0  0
  -23.3664  -27.2820   24.3453 C   0  0  1  0  0  0  0  0  0  0  0  0
  -26.9069  -26.3648   23.3173 C   0  0  1  0  0  0  0  0  0  0  0  0
  -27.6733  -13.2965   21.0473 C   0  0  2  0  0  0  0  0  0  0  0  0
  -29.7596  -25.2675   16.1997 C   0  0  0  0  0  0  0  0  0  0  0  0
  -24.1896  -25.1493   19.7819 C   0  0  0  0  0  0  0  0  0  0  0  0
  -25.3767  -24.6139   17.6436 C   0  0  0  0  0  0  0  0  0  0  0  0
  -25.1740  -26.9836   18.3959 C   0  0  0  0  0  0  0  0  0  0  0  0
  -31.7308  -25.3216   19.4536 C   0  0  0  0  0  0  0  0  0  0  0  0
  -29.9556  -14.1987   25.8430 C   0  0  0  0  0  0  0  0  0  0  0  0
  -29.3398  -19.9420   26.0899 C   0  0  0  0  0  0  0  0  0  1  0  0
  -26.7510  -25.4272   19.6136 C   0  0  1  0  0  0  0  0  0  0  0  0
  -30.0016  -25.5756   17.6691 C   0  0  2  0  0  0  0  0  0  0  0  0
  -25.3824  -25.5332   18.8835 C   0  0  0  0  0  0  0  0  0  0  0  0
  -25.8744  -11.6109   21.1223 N   0  0  0  0  0  0  0  0  0  0  0  0
  -26.2259  -12.8810   20.8588 N   0  0  0  0  0  0  0  0  0  0  0  0
  -27.0382  -25.6190   22.0640 N   0  0  0  0  0  0  0  0  0  0  0  0
  -29.7493  -12.9613   22.3381 N   0  0  0  0  0  0  0  0  0  0  0  0
  -25.3689  -14.9659   20.1314 N   0  0  0  0  0  0  0  0  0  0  0  0
  -21.7403  -12.2775   20.0938 N   0  0  0  0  0  0  0  0  0  0  0  0
  -24.7401  -27.2785   23.8900 N   0  0  0  0  0  0  0  0  0  0  0  0
  -27.8961  -25.8108   18.7951 N   0  0  0  0  0  0  0  0  0  0  0  0
  -29.4965  -13.6493   24.5867 N   0  0  0  0  0  0  0  0  0  0  0  0
  -31.3519  -25.0657   18.0401 N   0  3  0  0  0  0  0  0  0  0  0  0
  -22.4869  -14.4035   19.6681 O   0  0  0  0  0  0  0  0  0  0  0  0
  -25.1569  -24.9993   24.1222 O   0  0  0  0  0  0  0  0  0  0  0  0
  -26.6671  -27.5082   20.7489 O   0  0  0  0  0  0  0  0  0  0  0  0
  -29.0226  -23.7916   18.9714 O   0  0  0  0  0  0  0  0  0  0  0  0
  -31.5276  -13.8393   23.5401 O   0  0  0  0  0  0  0  0  0  0  0  0
  -21.6203   -6.8874   21.4968 O   0  0  0  0  0  0  0  0  0  0  0  0
  -28.7598  -20.4022   24.8701 O   0  0  0  0  0  0  0  0  0  1  0  0
  -22.4579   -3.9453   26.0844 F   0  0  0  0  0  0  0  0  0  0  0  0
  -27.1670  -18.1495   26.3634 F   0  0  0  0  0  0  0  0  0  0  0  0
  -19.5508   -6.3917   23.2614 F   0  0  0  0  0  0  0  0  0  0  0  0
  1  2  1  0  0  0  0
  1  5  2  0  0  0  0
  2  6  2  0  0  0  0
  3 10  2  0  0  0  0
  3 18  1  0  0  0  0
  4 11  1  0  0  0  0
  4 18  2  0  0  0  0
  5 20  1  0  0  0  0
  6 22  1  0  0  0  0
  7 12  2  0  0  0  0
  7 21  1  0  0  0  0
  8  9  2  0  0  0  0
  8 24  1  0  0  0  0
  9 25  1  0  0  0  0
 10 26  1  0  0  0  0
 11 26  2  0  0  0  0
 12 27  1  0  0  0  0
 13 14  2  0  0  0  0
 13 28  1  0  0  0  0
 14 29  1  0  0  0  0
 15 23  1  0  0  0  0
 15 27  2  0  0  0  0
 16 24  2  0  0  0  0
 16 30  1  0  0  0  0
 17 29  2  0  0  0  0
 17 31  1  0  0  0  0
 18 32  1  0  0  0  0
 19 32  1  0  0  0  0
 19 33  2  0  0  0  0
 19 34  1  0  0  0  0
 20 22  2  0  0  0  0
 20 39  1  0  0  0  0
 21 23  2  0  0  0  0
 21 40  1  0  0  0  0
 22 48  1  0  0  0  0
 23 41  1  0  0  0  0
 24 56  1  0  0  0  0
 25 30  2  0  0  0  0
 25 57  1  0  0  0  0
 26 76  1  0  0  0  0
 27 77  1  0  0  0  0
 28 31  2  0  0  0  0
 28 76  1  0  0  0  0
 29 78  1  0  0  0  0
 30 79  1  0  0  0  0
 31 80  1  0  0  0  0
 32 61  2  0  0  0  0
 33 62  1  0  0  0  0
 33 65  1  0  0  0  0
 34 66  1  0  0  0  0
 34 71  2  0  0  0  0
 35 49  1  0  0  0  0
 35 67  1  0  0  0  0
 35 72  2  0  0  0  0
 36 58  1  0  0  0  0
 36 63  1  0  0  0  0
 36 73  2  0  0  0  0
 37 59  1  0  0  0  0
 37 68  1  0  0  0  0
 37 74  2  0  0  0  0
 38 64  1  0  0  0  0
 38 69  1  0  0  0  0
 38 75  2  0  0  0  0
 39 42  1  0  0  0  0
 40 49  1  0  0  0  0
 41 63  1  0  0  0  0
 42 44  1  0  0  0  0
 43 45  1  0  0  0  0
 43 46  1  0  0  0  0
 44 48  1  0  0  0  0
 45 50  1  0  0  0  0
 46 64  1  0  0  0  0
 47 50  1  0  0  0  0
 47 64  1  0  0  0  0
 48 67  1  0  0  0  0
 49 63  1  0  0  0  0
 50 62  1  0  0  0  0
 51 59  1  0  0  0  0
 52 60  1  0  0  0  0
 53 60  1  0  0  0  0
 54 60  1  0  0  0  0
 55 70  1  0  0  0  0
 56 69  1  0  0  0  0
 57 77  1  0  0  0  0
 58 60  1  0  0  0  0
 58 68  1  0  0  0  0
 59 70  1  0  0  0  0
 61 62  1  0  0  0  0
M  CHG  1  70   1
M  ISO  4  38 100  57 101  69 100  77 101
M  END
> <Batch ID>
0019

> <Smiles>
CNC(C)C(=O)NC(C(=O)N1Cc2cc([101O:1][101CH2:1]c3ccc(C[100NH:0][100C:0](=O)N4CCCC(n5nc(-c6ccc(Oc7ccc(F)cc7F)cc6)c(C(N)=O)c5N)C4)cc3F)ccc2CC1C(=O)NC1CCCc2ccccc21)C(C)(C)C

> <Shape>
0.195

> <Color>
0.156

> <Negative vol penalty>
0.000

$$$$

  -OEChem-04042321053D

 82 90  0     1  0  0  0  0  0999 V2000
  -28.2931  -34.6006   23.5816 C   0  0  0  0  0  0  0  0  0  0  0  0
  -28.9774  -33.5638   22.9554 C   0  0  0  0  0  0  0  0  0  0  0  0
  -23.4819  -10.4402   21.4502 C   0  0  0  0  0  0  0  0  0  0  0  0
  -24.9221   -8.5980   22.0577 C   0  0  0  0  0  0  0  0  0  0  0  0
  -27.0897  -34.3443   24.2373 C   0  0  0  0  0  0  0  0  0  0  0  0
  -28.4590  -32.2696   22.9855 C   0  0  0  0  0  0  0  0  0  0  0  0
  -28.1043  -26.3046   19.0346 C   0  0  0  0  0  0  0  0  0  0  0  0
  -28.7639  -19.9649   18.3420 C   0  0  0  0  0  0  0  0  0  0  0  0
  -28.8234  -18.5797   18.4947 C   0  0  0  0  0  0  0  0  0  0  0  0
  -22.4110   -9.5574   21.3117 C   0  0  0  0  0  0  0  0  0  0  0  0
  -23.8511   -7.7151   21.9193 C   0  0  0  0  0  0  0  0  0  0  0  0
  -28.3546  -24.9361   19.1255 C   0  0  0  0  0  0  0  0  0  0  0  0
  -21.1477   -6.7796   23.7184 C   0  0  0  0  0  0  0  0  0  0  0  0
  -20.9664   -5.8216   24.7159 C   0  0  0  0  0  0  0  0  0  0  0  0
  -26.2276  -24.6259   20.2204 C   0  0  0  0  0  0  0  0  0  0  0  0
  -29.2766  -18.8590   20.8514 C   0  0  0  0  0  0  0  0  0  0  0  0
  -21.2300   -4.0658   23.0774 C   0  0  0  0  0  0  0  0  0  0  0  0
  -24.7375   -9.9605   21.8232 C   0  0  0  0  0  0  0  0  0  0  0  0
  -26.2340  -11.5603   23.1303 C   0  0  0  0  0  0  0  0  0  0  0  0
  -26.5514  -33.0481   24.2671 C   0  0  0  0  0  0  0  0  0  0  0  0
  -26.9166  -26.8465   19.5466 C   0  0  0  0  0  0  0  0  0  0  0  0
  -27.2479  -31.9954   23.6433 C   0  0  0  0  0  0  0  0  0  0  0  0
  -25.9635  -26.0012   20.1325 C   0  0  0  0  0  0  0  0  0  0  0  0
  -28.9609  -20.7971   19.4440 C   0  0  0  0  0  0  0  0  0  0  0  0
  -29.0797  -18.0267   19.7494 C   0  0  0  0  0  0  0  0  0  0  0  0
  -22.5955   -8.1948   21.5462 C   0  0  0  0  0  0  0  0  0  0  0  0
  -27.4175  -24.0969   19.7210 C   0  0  0  0  0  0  0  0  0  0  0  0
  -21.3700   -6.3808   22.4004 C   0  0  0  0  0  0  0  0  0  0  0  0
  -21.0076   -4.4647   24.3954 C   0  0  0  0  0  0  0  0  0  0  0  0
  -29.2172  -20.2442   20.6986 C   0  0  0  0  0  0  0  0  0  0  0  0
  -21.4112   -5.0238   22.0799 C   0  0  0  0  0  0  0  0  0  0  0  0
  -25.8443  -10.8719   21.9658 C   0  0  0  0  0  0  0  0  0  0  0  0
  -27.3319  -12.2908   22.7462 C   0  0  0  0  0  0  0  0  0  0  0  0
  -27.1986  -16.3457   22.9653 C   0  0  0  0  0  0  0  0  0  0  0  0
  -27.5724  -16.1914   21.6900 C   0  0  0  0  0  0  0  0  0  0  0  0
  -25.6554  -11.5412   24.4420 C   0  0  0  0  0  0  0  0  0  0  0  0
  -26.2092  -28.9562   21.8165 C   0  0  0  0  0  0  0  0  0  0  0  0
  -23.1936  -28.5808   20.6819 C   0  0  0  0  0  0  0  0  0  0  0  0
  -20.9454  -26.6215   19.0224 C   0  0  0  0  0  0  0  0  0  0  0  0
  -29.5724  -15.7576   18.8531 C   0  0  0  0  0  0  0  0  0  0  0  0
  -25.2715  -32.8110   25.0288 C   0  0  0  0  0  0  0  0  0  0  0  0
  -26.6498  -28.3210   19.4168 C   0  0  0  0  0  0  0  0  0  0  0  0
  -24.6637  -26.5304   20.6793 C   0  0  0  0  0  0  0  0  0  0  0  0
  -24.6009  -31.4811   24.6940 C   0  0  0  0  0  0  0  0  0  0  0  0
  -30.1110  -12.1219   18.5341 C   0  0  0  0  0  0  0  0  0  0  0  0
  -25.6255  -30.3511   24.6967 C   0  0  0  0  0  0  0  0  0  0  0  0
  -29.0340  -11.5368   19.4461 C   0  0  0  0  0  0  0  0  0  0  0  0
  -29.6827  -13.4588   17.9364 C   0  0  0  0  0  0  0  0  0  0  0  0
  -28.1917  -13.8817   19.8673 C   0  0  0  0  0  0  0  0  0  0  0  0
  -26.7053  -30.5828   23.6328 C   0  0  1  0  0  0  0  0  0  0  0  0
  -25.6353  -28.8364   20.4330 C   0  0  1  0  0  0  0  0  0  0  0  0
  -28.6109  -12.5552   20.5189 C   0  0  1  0  0  0  0  0  0  0  0  0
  -18.5477  -26.5671   18.2839 C   0  0  0  0  0  0  0  0  0  0  0  0
  -22.3297  -27.9566   23.5409 C   0  0  0  0  0  0  0  0  0  0  0  0
  -20.2071  -27.0028   22.6173 C   0  0  0  0  0  0  0  0  0  0  0  0
  -20.7455  -29.4132   22.2670 C   0  0  0  0  0  0  0  0  0  0  0  0
  -21.7075  -26.4566   16.1674 C   0  0  0  0  0  0  0  0  0  0  0  0
  -28.8942  -22.2866   19.2757 C   0  0  0  0  0  0  0  0  0  1  0  0
  -28.9902  -16.0294   21.2524 C   0  0  0  0  0  0  0  0  0  0  0  0
  -22.0417  -27.6558   20.9929 C   0  0  1  0  0  0  0  0  0  0  0  0
  -19.9726  -26.9341   17.8997 C   0  0  2  0  0  0  0  0  0  0  0  0
  -21.3563  -27.9971   22.3461 C   0  0  0  0  0  0  0  0  0  0  0  0
  -26.6306  -11.1411   20.9202 N   0  0  0  0  0  0  0  0  0  0  0  0
  -27.5253  -12.0069   21.4263 N   0  0  0  0  0  0  0  0  0  0  0  0
  -24.4518  -27.9801   20.5344 N   0  0  0  0  0  0  0  0  0  0  0  0
  -29.2423  -14.3927   18.9735 N   0  0  0  0  0  0  0  0  0  0  0  0
  -28.1410  -13.1420   23.4121 N   0  0  0  0  0  0  0  0  0  0  0  0
  -24.5301  -10.7357   24.6641 N   0  0  0  0  0  0  0  0  0  0  0  0
  -26.2016  -30.2433   22.3192 N   0  0  0  0  0  0  0  0  0  0  0  0
  -21.1496  -27.7130   19.8400 N   0  0  0  0  0  0  0  0  0  0  0  0
  -29.1432  -16.5929   19.9071 N   0  0  0  0  0  0  0  0  0  0  0  0
  -20.3385  -26.1747   16.6708 N   0  3  0  0  0  0  0  0  0  0  0  0
  -26.1125  -12.2308   25.3848 O   0  0  0  0  0  0  0  0  0  0  0  0
  -26.6266  -27.9548   22.3862 O   0  0  0  0  0  0  0  0  0  0  0  0
  -22.9834  -29.7908   20.5669 O   0  0  0  0  0  0  0  0  0  0  0  0
  -21.4687  -25.5184   19.1625 O   0  0  0  0  0  0  0  0  0  0  0  0
  -30.2243  -16.1891   17.8948 O   0  0  0  0  0  0  0  0  0  0  0  0
  -21.5506   -7.3331   21.4114 O   0  0  0  0  0  0  0  0  0  0  0  0
  -27.6595  -22.7608   19.8116 O   0  0  0  0  0  0  0  0  0  1  0  0
  -20.8350   -3.5448   25.3536 F   0  0  0  0  0  0  0  0  0  0  0  0
  -29.4076  -21.0357   21.7634 F   0  0  0  0  0  0  0  0  0  0  0  0
  -21.6257   -4.6346   20.8157 F   0  0  0  0  0  0  0  0  0  0  0  0
  1  2  1  0  0  0  0
  1  5  2  0  0  0  0
  2  6  2  0  0  0  0
  3 10  2  0  0  0  0
  3 18  1  0  0  0  0
  4 11  1  0  0  0  0
  4 18  2  0  0  0  0
  5 20  1  0  0  0  0
  6 22  1  0  0  0  0
  7 12  2  0  0  0  0
  7 21  1  0  0  0  0
  8  9  2  0  0  0  0
  8 24  1  0  0  0  0
  9 25  1  0  0  0  0
 10 26  1  0  0  0  0
 11 26  2  0  0  0  0
 12 27  1  0  0  0  0
 13 14  2  0  0  0  0
 13 28  1  0  0  0  0
 14 29  1  0  0  0  0
 15 23  1  0  0  0  0
 15 27  2  0  0  0  0
 16 25  2  0  0  0  0
 16 30  1  0  0  0  0
 17 29  2  0  0  0  0
 17 31  1  0  0  0  0
 18 32  1  0  0  0  0
 19 32  1  0  0  0  0
 19 33  2  0  0  0  0
 19 36  1  0  0  0  0
 20 22  2  0  0  0  0
 20 41  1  0  0  0  0
 21 23  2  0  0  0  0
 21 42  1  0  0  0  0
 22 50  1  0  0  0  0
 23 43  1  0  0  0  0
 24 30  2  0  0  0  0
 24 58  1  0  0  0  0
 25 71  1  0  0  0  0
 26 78  1  0  0  0  0
 27 79  1  0  0  0  0
 28 31  2  0  0  0  0
 28 78  1  0  0  0  0
 29 80  1  0  0  0  0
 30 81  1  0  0  0  0
 31 82  1  0  0  0  0
 32 63  2  0  0  0  0
 33 64  1  0  0  0  0
 33 67  1  0  0  0  0
 34 35  2  0  0  0  0
 35 59  1  0  0  0  0
 36 68  1  0  0  0  0
 36 73  2  0  0  0  0
 37 51  1  0  0  0  0
 37 69  1  0  0  0  0
 37 74  2  0  0  0  0
 38 60  1  0  0  0  0
 38 65  1  0  0  0  0
 38 75  2  0  0  0  0
 39 61  1  0  0  0  0
 39 70  1  0  0  0  0
 39 76  2  0  0  0  0
 40 66  1  0  0  0  0
 40 71  1  0  0  0  0
 40 77  2  0  0  0  0
 41 44  1  0  0  0  0
 42 51  1  0  0  0  0
 43 65  1  0  0  0  0
 44 46  1  0  0  0  0
 45 47  1  0  0  0  0
 45 48  1  0  0  0  0
 46 50  1  0  0  0  0
 47 52  1  0  0  0  0
 48 66  1  0  0  0  0
 49 52  1  0  0  0  0
 49 66  1  0  0  0  0
 50 69  1  0  0  0  0
 51 65  1  0  0  0  0
 52 64  1  0  0  0  0
 53 61  1  0  0  0  0
 54 62  1  0  0  0  0
 55 62  1  0  0  0  0
 56 62  1  0  0  0  0
 57 72  1  0  0  0  0
 58 79  1  0  0  0  0
 59 71  1  0  0  0  0
 60 62  1  0  0  0  0
 60 70  1  0  0  0  0
 61 72  1  0  0  0  0
 63 64  1  0  0  0  0
M  CHG  1  72   1
M  ISO  4  40 100  58 101  71 100  79 101
M  END
> <Batch ID>
0019

> <Smiles>
C=CC[100N:0](c1ccc([101CH2:1][101O:1]c2ccc3c(c2)CN(C(=O)C(NC(=O)C(C)NC)C(C)(C)C)C(C(=O)NC2CCCc4ccccc42)C3)c(F)c1)[100C:0](=O)N1CCCC(n2nc(-c3ccc(Oc4ccc(F)cc4F)cc3)c(C(N)=O)c2N)C1

> <Shape>
0.325

> <Color>
0.078

> <Negative vol penalty>
0.000

$$$$

  -OEChem-04042321053D

 86 94  0     1  0  0  0  0  0999 V2000
  -31.7712  -23.7470   25.1264 C   0  0  0  0  0  0  0  0  0  0  0  0
  -31.4675  -24.6922   24.1517 C   0  0  0  0  0  0  0  0  0  0  0  0
  -24.5238  -13.4245   21.2488 C   0  0  0  0  0  0  0  0  0  0  0  0
  -26.4616  -12.8526   19.9240 C   0  0  0  0  0  0  0  0  0  0  0  0
  -30.9546  -22.6288   25.2898 C   0  0  0  0  0  0  0  0  0  0  0  0
  -30.3476  -24.5190   23.3392 C   0  0  0  0  0  0  0  0  0  0  0  0
  -26.6960  -28.9059   21.1194 C   0  0  0  0  0  0  0  0  0  0  0  0
  -23.9063  -12.2362   20.8586 C   0  0  0  0  0  0  0  0  0  0  0  0
  -25.8441  -11.6642   19.5338 C   0  0  0  0  0  0  0  0  0  0  0  0
  -26.6411  -29.5427   19.8804 C   0  0  0  0  0  0  0  0  0  0  0  0
  -24.0618   -8.9607   21.6831 C   0  0  0  0  0  0  0  0  0  0  0  0
  -23.4263   -8.2062   22.6692 C   0  0  0  0  0  0  0  0  0  0  0  0
  -24.9210  -28.0062   19.1736 C   0  0  0  0  0  0  0  0  0  0  0  0
  -29.2576  -25.2413   18.8928 C   0  0  0  0  0  0  0  0  0  0  0  0
  -30.5504  -25.8335   16.4926 C   0  0  0  0  0  0  0  0  0  0  0  0
  -21.3308   -8.4262   21.4871 C   0  0  0  0  0  0  0  0  0  0  0  0
  -25.8014  -13.7327   20.7815 C   0  0  0  0  0  0  0  0  0  0  0  0
  -27.2660  -15.1609   22.3056 C   0  0  0  0  0  0  0  0  0  0  0  0
  -29.8187  -22.4468   24.4853 C   0  0  0  0  0  0  0  0  0  0  0  0
  -25.8701  -27.8057   21.3915 C   0  0  0  0  0  0  0  0  0  0  0  0
  -29.5158  -23.3966   23.4911 C   0  0  0  0  0  0  0  0  0  0  0  0
  -24.9655  -27.3587   20.4178 C   0  0  0  0  0  0  0  0  0  0  0  0
  -30.1576  -24.3291   18.3419 C   0  0  0  0  0  0  0  0  0  0  0  0
  -29.6502  -26.7456   17.0435 C   0  0  0  0  0  0  0  0  0  0  0  0
  -24.5665  -11.3561   20.0011 C   0  0  0  0  0  0  0  0  0  0  0  0
  -25.7556  -29.0911   18.9062 C   0  0  0  0  0  0  0  0  0  0  0  0
  -23.3318   -9.4481   20.5990 C   0  0  0  0  0  0  0  0  0  0  0  0
  -22.0608   -7.9389   22.5712 C   0  0  0  0  0  0  0  0  0  0  0  0
  -30.8041  -24.6252   17.1419 C   0  0  0  0  0  0  0  0  0  0  0  0
  -29.0038  -26.4495   18.2435 C   0  0  0  0  0  0  0  0  0  0  0  0
  -21.9663   -9.1808   20.5010 C   0  0  0  0  0  0  0  0  0  0  0  0
  -26.4396  -14.9603   21.1837 C   0  0  0  0  0  0  0  0  0  0  0  0
  -27.6152  -16.4877   22.2420 C   0  0  0  0  0  0  0  0  0  0  0  0
  -27.6809  -14.2310   23.3149 C   0  0  0  0  0  0  0  0  0  0  0  0
  -26.3689  -24.7486   22.1047 C   0  0  0  0  0  0  0  0  0  0  0  0
  -23.1508  -24.7221   22.5114 C   0  0  0  0  0  0  0  0  0  0  0  0
  -20.1260  -26.1211   21.7762 C   0  0  0  0  0  0  0  0  0  0  0  0
  -29.4090  -20.8032   19.3949 C   0  0  0  0  0  0  0  0  0  0  0  0
  -28.9927  -21.1981   24.6675 C   0  0  0  0  0  0  0  0  0  0  0  0
  -25.9225  -27.1465   22.7424 C   0  0  0  0  0  0  0  0  0  0  0  0
  -24.0431  -26.1945   20.6672 C   0  0  0  0  0  0  0  0  0  0  0  0
  -27.6143  -21.2793   24.0164 C   0  0  0  0  0  0  0  0  0  0  0  0
  -25.8366  -20.2270   19.3359 C   0  0  0  0  0  0  0  0  0  0  0  0
  -27.7250  -21.8334   22.5996 C   0  0  0  0  0  0  0  0  0  0  0  0
  -25.7473  -18.8114   19.9088 C   0  0  0  0  0  0  0  0  0  0  0  0
  -27.0622  -20.3848   18.4408 C   0  0  0  0  0  0  0  0  0  0  0  0
  -28.2666  -18.6211   19.6705 C   0  0  0  0  0  0  0  0  0  0  0  0
  -28.2958  -23.2566   22.6068 C   0  0  1  0  0  0  0  0  0  0  0  0
  -25.4003  -25.7131   22.7285 C   0  0  1  0  0  0  0  0  0  0  0  0
  -27.0606  -18.4038   20.6025 C   0  0  2  0  0  0  0  0  0  0  0  0
  -17.6716  -25.8571   22.2275 C   0  0  0  0  0  0  0  0  0  0  0  0
  -23.0516  -22.3631   20.5787 C   0  0  0  0  0  0  0  0  0  0  0  0
  -20.5914  -22.7573   20.3333 C   0  0  0  0  0  0  0  0  0  0  0  0
  -21.5399  -22.1528   22.5599 C   0  0  0  0  0  0  0  0  0  0  0  0
  -19.9510  -28.7954   23.0318 C   0  0  0  0  0  0  0  0  0  0  0  0
  -28.0697  -27.2473   14.3815 C   0  0  0  0  0  0  0  0  0  0  0  0
  -30.4263  -23.0382   19.0387 C   0  0  0  0  0  0  0  0  0  0  0  0
  -29.3798  -28.0447   16.3433 C   0  0  0  0  0  0  0  0  0  0  0  0
  -26.0260  -29.4651   15.3321 C   0  0  0  0  0  0  0  0  0  0  0  0
  -27.5448  -29.4504   15.4174 C   0  0  0  0  0  0  0  0  0  0  0  0
  -25.3368  -28.9094   16.5723 C   0  0  0  0  0  0  0  0  0  1  0  0
  -21.9624  -24.4607   21.6178 C   0  0  1  0  0  0  0  0  0  0  0  0
  -18.9637  -26.5310   22.6625 C   0  0  2  0  0  0  0  0  0  0  0  0
  -21.8049  -22.9542   21.2667 C   0  0  0  0  0  0  0  0  0  0  0  0
  -26.2735  -16.0709   20.4605 N   0  0  0  0  0  0  0  0  0  0  0  0
  -27.0004  -16.9821   21.1295 N   0  0  0  0  0  0  0  0  0  0  0  0
  -24.1363  -25.5791   22.0014 N   0  0  0  0  0  0  0  0  0  0  0  0
  -28.2803  -19.9985   19.1667 N   0  0  0  0  0  0  0  0  0  0  0  0
  -28.3850  -17.2682   23.0299 N   0  0  0  0  0  0  0  0  0  0  0  0
  -27.2304  -12.9066   23.2290 N   0  0  0  0  0  0  0  0  0  0  0  0
  -27.2767  -24.2079   22.9953 N   0  0  0  0  0  0  0  0  0  0  0  0
  -20.8073  -25.0403   22.2948 N   0  0  0  0  0  0  0  0  0  0  0  0
  -29.3447  -22.0918   18.8791 N   0  0  0  0  0  0  0  0  0  0  0  0
  -18.7656  -28.0071   22.6073 N   0  3  0  0  0  0  0  0  0  0  0  0
  -28.0413  -28.0730   15.6452 N   0  3  1  0  0  0  0  0  0  0  0  0
  -28.4158  -14.5685   24.2739 O   0  0  0  0  0  0  0  0  0  0  0  0
  -26.2970  -24.5112   20.9047 O   0  0  0  0  0  0  0  0  0  0  0  0
  -23.1993  -24.1913   23.6238 O   0  0  0  0  0  0  0  0  0  0  0  0
  -20.3997  -26.6994   20.7268 O   0  0  0  0  0  0  0  0  0  0  0  0
  -30.3993  -20.4044   20.0173 O   0  0  0  0  0  0  0  0  0  0  0  0
  -23.9643  -10.1963   19.6204 O   0  0  0  0  0  0  0  0  0  0  0  0
  -25.7005  -29.7105   17.6958 O   0  0  0  0  0  0  0  0  0  1  0  0
  -21.4510   -7.2131   23.5175 F   0  0  0  0  0  0  0  0  0  0  0  0
  -31.6704  -23.7547   16.6048 F   0  0  0  0  0  0  0  0  0  0  0  0
  -28.1374  -27.3199   18.7806 F   0  0  0  0  0  0  0  0  0  0  0  0
  -21.2599   -9.6453   19.4612 F   0  0  0  0  0  0  0  0  0  0  0  0
  1  2  1  0  0  0  0
  1  5  2  0  0  0  0
  2  6  2  0  0  0  0
  3  8  2  0  0  0  0
  3 17  1  0  0  0  0
  4  9  1  0  0  0  0
  4 17  2  0  0  0  0
  5 19  1  0  0  0  0
  6 21  1  0  0  0  0
  7 10  2  0  0  0  0
  7 20  1  0  0  0  0
  8 25  1  0  0  0  0
  9 25  2  0  0  0  0
 10 26  1  0  0  0  0
 11 12  2  0  0  0  0
 11 27  1  0  0  0  0
 12 28  1  0  0  0  0
 13 22  1  0  0  0  0
 13 26  2  0  0  0  0
 14 23  2  0  0  0  0
 14 30  1  0  0  0  0
 15 24  1  0  0  0  0
 15 29  2  0  0  0  0
 16 28  2  0  0  0  0
 16 31  1  0  0  0  0
 17 32  1  0  0  0  0
 18 32  1  0  0  0  0
 18 33  2  0  0  0  0
 18 34  1  0  0  0  0
 19 21  2  0  0  0  0
 19 39  1  0  0  0  0
 20 22  2  0  0  0  0
 20 40  1  0  0  0  0
 21 48  1  0  0  0  0
 22 41  1  0  0  0  0
 23 29  1  0  0  0  0
 23 57  1  0  0  0  0
 24 30  2  0  0  0  0
 24 58  1  0  0  0  0
 25 81  1  0  0  0  0
 26 82  1  0  0  0  0
 27 31  2  0  0  0  0
 27 81  1  0  0  0  0
 28 83  1  0  0  0  0
 29 84  1  0  0  0  0
 30 85  1  0  0  0  0
 31 86  1  0  0  0  0
 32 65  2  0  0  0  0
 33 66  1  0  0  0  0
 33 69  1  0  0  0  0
 34 70  1  0  0  0  0
 34 76  2  0  0  0  0
 35 49  1  0  0  0  0
 35 71  1  0  0  0  0
 35 77  2  0  0  0  0
 36 62  1  0  0  0  0
 36 67  1  0  0  0  0
 36 78  2  0  0  0  0
 37 63  1  0  0  0  0
 37 72  1  0  0  0  0
 37 79  2  0  0  0  0
 38 68  1  0  0  0  0
 38 73  1  0  0  0  0
 38 80  2  0  0  0  0
 39 42  1  0  0  0  0
 40 49  1  0  0  0  0
 41 67  1  0  0  0  0
 42 44  1  0  0  0  0
 43 45  1  0  0  0  0
 43 46  1  0  0  0  0
 44 48  1  0  0  0  0
 45 50  1  0  0  0  0
 46 68  1  0  0  0  0
 47 50  1  0  0  0  0
 47 68  1  0  0  0  0
 48 71  1  0  0  0  0
 49 67  1  0  0  0  0
 50 66  1  0  0  0  0
 51 63  1  0  0  0  0
 52 64  1  0  0  0  0
 53 64  1  0  0  0  0
 54 64  1  0  0  0  0
 55 74  1  0  0  0  0
 56 75  1  0  0  0  0
 57 73  1  0  0  0  0
 58 75  1  0  0  0  0
 59 60  1  0  0  0  0
 59 61  1  0  0  0  0
 60 75  1  0  0  0  0
 61 82  1  0  0  0  0
 62 64  1  0  0  0  0
 62 72  1  0  0  0  0
 63 74  1  0  0  0  0
 65 66  1  0  0  0  0
M  CHG  2  74   1  75   1
M  ISO  4  38 100  61 101  73 100  82 101
M  END
> <Batch ID>
0019

> <Smiles>
CNC(C)C(=O)NC(C(=O)N1Cc2cc([101O:1][101CH2:1]CCN(C)Cc3cc(F)c(C[100NH:0][100C:0](=O)N4CCCC(n5nc(-c6ccc(Oc7ccc(F)cc7F)cc6)c(C(N)=O)c5N)C4)cc3F)ccc2CC1C(=O)NC1CCCc2ccccc21)C(C)(C)C

> <Shape>
0.215

> <Color>
0.055

> <Negative vol penalty>
0.000

$$$$

  -OEChem-04042321053D

 89 97  0     1  0  0  0  0  0999 V2000
  -16.8811  -26.3062   21.5759 C   0  0  0  0  0  0  0  0  0  0  0  0
  -18.1743  -25.7936   21.5949 C   0  0  0  0  0  0  0  0  0  0  0  0
  -24.2186   -9.6254   21.9697 C   0  0  0  0  0  0  0  0  0  0  0  0
  -22.7488  -10.1266   20.1189 C   0  0  0  0  0  0  0  0  0  0  0  0
  -16.6761  -27.6705   21.3747 C   0  0  0  0  0  0  0  0  0  0  0  0
  -19.2633  -26.6451   21.4117 C   0  0  0  0  0  0  0  0  0  0  0  0
  -23.0028  -25.7534   24.7081 C   0  0  0  0  0  0  0  0  0  0  0  0
  -24.5344  -20.8828   18.6394 C   0  0  0  0  0  0  0  0  0  0  0  0
  -23.6280   -8.3683   22.0983 C   0  0  0  0  0  0  0  0  0  0  0  0
  -22.1582   -8.8695   20.2475 C   0  0  0  0  0  0  0  0  0  0  0  0
  -23.8265  -24.6573   24.4554 C   0  0  0  0  0  0  0  0  0  0  0  0
  -20.7974   -7.0691   23.4115 C   0  0  0  0  0  0  0  0  0  0  0  0
  -23.4595  -20.4746   17.8498 C   0  0  0  0  0  0  0  0  0  0  0  0
  -20.4675   -6.6373   24.6960 C   0  0  0  0  0  0  0  0  0  0  0  0
  -25.4947  -26.1325   23.5279 C   0  0  0  0  0  0  0  0  0  0  0  0
  -24.0824  -19.0822   20.1855 C   0  0  0  0  0  0  0  0  0  0  0  0
  -21.9314   -4.7335   24.4321 C   0  0  0  0  0  0  0  0  0  0  0  0
  -23.7789  -10.5046   20.9800 C   0  0  0  0  0  0  0  0  0  0  0  0
  -25.5012  -12.1433   20.0549 C   0  0  0  0  0  0  0  0  0  0  0  0
  -17.7636  -28.5406   21.1985 C   0  0  0  0  0  0  0  0  0  0  0  0
  -23.4150  -27.0483   24.3621 C   0  0  0  0  0  0  0  0  0  0  0  0
  -19.0726  -28.0221   21.2066 C   0  0  0  0  0  0  0  0  0  0  0  0
  -24.6755  -27.2436   23.7797 C   0  0  0  0  0  0  0  0  0  0  0  0
  -24.8459  -20.1865   19.8073 C   0  0  0  0  0  0  0  0  0  0  0  0
  -23.0075  -18.6740   19.3959 C   0  0  0  0  0  0  0  0  0  0  0  0
  -22.5979   -7.9903   21.2372 C   0  0  0  0  0  0  0  0  0  0  0  0
  -25.0714  -24.8464   23.8626 C   0  0  0  0  0  0  0  0  0  0  0  0
  -21.6944   -6.3331   22.6371 C   0  0  0  0  0  0  0  0  0  0  0  0
  -21.0345   -5.4695   25.2064 C   0  0  0  0  0  0  0  0  0  0  0  0
  -22.6960  -19.3702   18.2280 C   0  0  0  0  0  0  0  0  0  0  0  0
  -22.2614   -5.1654   23.1474 C   0  0  0  0  0  0  0  0  0  0  0  0
  -24.3882  -11.8035   20.8471 C   0  0  0  0  0  0  0  0  0  0  0  0
  -25.6815  -13.4871   20.2746 C   0  0  0  0  0  0  0  0  0  0  0  0
  -26.3006  -11.3181   19.1972 C   0  0  0  0  0  0  0  0  0  0  0  0
  -22.3320  -29.2960   22.3927 C   0  0  0  0  0  0  0  0  0  0  0  0
  -24.6877  -31.0681   23.7463 C   0  0  0  0  0  0  0  0  0  0  0  0
  -27.6781  -31.1412   25.3892 C   0  0  0  0  0  0  0  0  0  0  0  0
  -21.5995  -17.6018   22.2608 C   0  0  0  0  0  0  0  0  0  0  0  0
  -17.4902  -30.0006   20.9372 C   0  0  0  0  0  0  0  0  0  0  0  0
  -22.5260  -28.2230   24.6658 C   0  0  0  0  0  0  0  0  0  0  0  0
  -25.1733  -28.6156   23.4078 C   0  0  0  0  0  0  0  0  0  0  0  0
  -18.7146  -30.8927   21.1248 C   0  0  0  0  0  0  0  0  0  0  0  0
  -24.9878  -16.8816   23.5656 C   0  0  0  0  0  0  0  0  0  0  0  0
  -19.9301  -30.2833   20.4334 C   0  0  0  0  0  0  0  0  0  0  0  0
  -25.2738  -15.4914   23.0005 C   0  0  0  0  0  0  0  0  0  0  0  0
  -23.4937  -17.1158   23.7666 C   0  0  0  0  0  0  0  0  0  0  0  0
  -22.9634  -15.4914   21.9794 C   0  0  0  0  0  0  0  0  0  0  0  0
  -20.2806  -28.9175   21.0363 C   0  0  1  0  0  0  0  0  0  0  0  0
  -22.8317  -29.4428   23.8020 C   0  0  1  0  0  0  0  0  0  0  0  0
  -24.4567  -15.2404   21.7212 C   0  0  2  0  0  0  0  0  0  0  0  0
  -24.5990  -21.3419   23.1698 C   0  0  0  0  0  0  0  0  0  0  0  0
  -29.3712  -32.7376   26.3285 C   0  0  0  0  0  0  0  0  0  0  0  0
  -28.2816  -23.3763   19.9148 C   0  0  0  0  0  0  0  0  0  0  0  0
  -29.6273  -22.6105   21.8838 C   0  0  0  0  0  0  0  0  0  0  0  0
  -25.6944  -31.6557   20.9265 C   0  0  0  0  0  0  0  0  0  0  0  0
  -27.8563  -32.4188   21.9324 C   0  0  0  0  0  0  0  0  0  0  0  0
  -25.7371  -33.6159   22.4790 C   0  0  0  0  0  0  0  0  0  0  0  0
  -20.1226  -18.6032   20.5592 C   0  0  0  0  0  0  0  0  0  0  0  0
  -27.3157  -30.0930   28.1331 C   0  0  0  0  0  0  0  0  0  0  0  0
  -22.1921  -17.4934   19.8032 C   0  0  0  0  0  0  0  0  0  0  0  0
  -26.0023  -20.6256   20.6564 C   0  0  0  0  0  0  0  0  0  0  0  0
  -24.5711  -22.2135   21.9333 C   0  0  0  0  0  0  0  0  0  0  0  0
  -26.7583  -23.8755   22.4960 C   0  0  0  0  0  0  0  0  0  1  0  0
  -26.1462  -31.3158   23.4457 C   0  0  1  0  0  0  0  0  0  0  0  0
  -28.1328  -31.9046   26.6201 C   0  0  2  0  0  0  0  0  0  0  0  0
  -28.3297  -22.4015   21.0970 C   0  0  0  0  0  0  0  0  0  0  0  0
  -27.0473  -22.4755   21.9555 C   0  0  2  0  0  0  0  0  0  0  0  0
  -26.3486  -32.2254   22.2010 C   0  0  0  0  0  0  0  0  0  0  0  0
  -23.8961  -12.8472   21.5198 N   0  0  0  0  0  0  0  0  0  0  0  0
  -24.7038  -13.8560   21.1510 N   0  0  0  0  0  0  0  0  0  0  0  0
  -24.2649  -29.7316   23.7190 N   0  0  0  0  0  0  0  0  0  0  0  0
  -22.7363  -16.8285   22.5480 N   0  0  0  0  0  0  0  0  0  0  0  0
  -26.5794  -14.3773   19.8016 N   0  0  0  0  0  0  0  0  0  0  0  0
  -25.9773   -9.9589   19.0868 N   0  0  0  0  0  0  0  0  0  0  0  0
  -20.9698  -29.0839   22.2980 N   0  0  0  0  0  0  0  0  0  0  0  0
  -26.7321  -31.8437   24.6731 N   0  0  0  0  0  0  0  0  0  0  0  0
  -21.2853  -17.7990   20.9076 N   0  0  0  0  0  0  0  0  0  0  0  0
  -28.4521  -30.9594   27.7272 N   0  3  0  0  0  0  0  0  0  0  0  0
  -25.8559  -22.0326   21.1704 N   0  3  1  0  0  0  0  0  0  0  0  0
  -27.2828  -11.7692   18.5606 O   0  0  0  0  0  0  0  0  0  0  0  0
  -23.1233  -29.3712   21.4601 O   0  0  0  0  0  0  0  0  0  0  0  0
  -23.9523  -32.0246   24.0032 O   0  0  0  0  0  0  0  0  0  0  0  0
  -28.1208  -30.0342   25.0907 O   0  0  0  0  0  0  0  0  0  0  0  0
  -20.9104  -18.0960   23.1624 O   0  0  0  0  0  0  0  0  0  0  0  0
  -22.0215   -6.7636   21.3622 O   0  0  0  0  0  0  0  0  0  0  0  0
  -25.8771  -23.7782   23.6142 O   0  0  0  0  0  0  0  0  0  1  0  0
  -20.7187   -5.0558   26.4406 F   0  0  0  0  0  0  0  0  0  0  0  0
  -21.6641  -18.9865   17.4635 F   0  0  0  0  0  0  0  0  0  0  0  0
  -23.1246   -4.4548   22.4087 F   0  0  0  0  0  0  0  0  0  0  0  0
  1  2  1  0  0  0  0
  1  5  2  0  0  0  0
  2  6  2  0  0  0  0
  3  9  2  0  0  0  0
  3 18  1  0  0  0  0
  4 10  1  0  0  0  0
  4 18  2  0  0  0  0
  5 20  1  0  0  0  0
  6 22  1  0  0  0  0
  7 11  2  0  0  0  0
  7 21  1  0  0  0  0
  8 13  2  0  0  0  0
  8 24  1  0  0  0  0
  9 26  1  0  0  0  0
 10 26  2  0  0  0  0
 11 27  1  0  0  0  0
 12 14  2  0  0  0  0
 12 28  1  0  0  0  0
 13 30  1  0  0  0  0
 14 29  1  0  0  0  0
 15 23  1  0  0  0  0
 15 27  2  0  0  0  0
 16 24  2  0  0  0  0
 16 25  1  0  0  0  0
 17 29  2  0  0  0  0
 17 31  1  0  0  0  0
 18 32  1  0  0  0  0
 19 32  1  0  0  0  0
 19 33  2  0  0  0  0
 19 34  1  0  0  0  0
 20 22  2  0  0  0  0
 20 39  1  0  0  0  0
 21 23  2  0  0  0  0
 21 40  1  0  0  0  0
 22 48  1  0  0  0  0
 23 41  1  0  0  0  0
 24 61  1  0  0  0  0
 25 30  2  0  0  0  0
 25 60  1  0  0  0  0
 26 85  1  0  0  0  0
 27 86  1  0  0  0  0
 28 31  2  0  0  0  0
 28 85  1  0  0  0  0
 29 87  1  0  0  0  0
 30 88  1  0  0  0  0
 31 89  1  0  0  0  0
 32 69  2  0  0  0  0
 33 70  1  0  0  0  0
 33 73  1  0  0  0  0
 34 74  1  0  0  0  0
 34 80  2  0  0  0  0
 35 49  1  0  0  0  0
 35 75  1  0  0  0  0
 35 81  2  0  0  0  0
 36 64  1  0  0  0  0
 36 71  1  0  0  0  0
 36 82  2  0  0  0  0
 37 65  1  0  0  0  0
 37 76  1  0  0  0  0
 37 83  2  0  0  0  0
 38 72  1  0  0  0  0
 38 77  1  0  0  0  0
 38 84  2  0  0  0  0
 39 42  1  0  0  0  0
 40 49  1  0  0  0  0
 41 71  1  0  0  0  0
 42 44  1  0  0  0  0
 43 45  1  0  0  0  0
 43 46  1  0  0  0  0
 44 48  1  0  0  0  0
 45 50  1  0  0  0  0
 46 72  1  0  0  0  0
 47 50  1  0  0  0  0
 47 72  1  0  0  0  0
 48 75  1  0  0  0  0
 49 71  1  0  0  0  0
 50 70  1  0  0  0  0
 51 62  1  0  0  0  0
 52 65  1  0  0  0  0
 53 66  1  0  0  0  0
 54 66  1  0  0  0  0
 55 68  1  0  0  0  0
 56 68  1  0  0  0  0
 57 68  1  0  0  0  0
 58 77  1  0  0  0  0
 59 78  1  0  0  0  0
 60 77  1  0  0  0  0
 61 79  1  0  0  0  0
 62 79  1  0  0  0  0
 63 67  1  0  0  0  0
 63 86  1  0  0  0  0
 64 68  1  0  0  0  0
 64 76  1  0  0  0  0
 65 78  1  0  0  0  0
 66 67  1  0  0  0  0
 67 79  1  0  0  0  0
 69 70  1  0  0  0  0
M  CHG  2  78   1  79   1
M  ISO  4  38 100  63 101  77 100  86 101
M  END
> <Batch ID>
0019

> <Smiles>
CCN(Cc1ccc(F)c(C[100N:0](C)[100C:0](=O)N2CCCC(n3nc(-c4ccc(Oc5ccc(F)cc5F)cc4)c(C(N)=O)c3N)C2)c1)C(C(C)C)[101CH2:1][101O:1]c1ccc2c(c1)CN(C(=O)C(NC(=O)C(C)NC)C(C)(C)C)C(C(=O)NC1CCCc3ccccc31)C2

> <Shape>
0.251

> <Color>
0.097

> <Negative vol penalty>
0.000

$$$$

  -OEChem-04042321053D

 91 99  0     1  0  0  0  0  0999 V2000
  -18.5269  -33.0546   24.7851 C   0  0  0  0  0  0  0  0  0  0  0  0
  -19.8471  -33.1922   24.3685 C   0  0  0  0  0  0  0  0  0  0  0  0
  -27.0493  -13.0425   21.1403 C   0  0  0  0  0  0  0  0  0  0  0  0
  -26.8922  -13.3749   18.7524 C   0  0  0  0  0  0  0  0  0  0  0  0
  -17.9825  -31.7836   24.9643 C   0  0  0  0  0  0  0  0  0  0  0  0
  -20.6241  -32.0588   24.1319 C   0  0  0  0  0  0  0  0  0  0  0  0
  -25.9166  -29.6978   19.9210 C   0  0  0  0  0  0  0  0  0  0  0  0
  -28.8738  -21.5710   15.5087 C   0  0  0  0  0  0  0  0  0  0  0  0
  -29.6910  -22.5073   14.8754 C   0  0  0  0  0  0  0  0  0  0  0  0
  -26.2800  -11.8842   21.0297 C   0  0  0  0  0  0  0  0  0  0  0  0
  -26.1230  -12.2166   18.6418 C   0  0  0  0  0  0  0  0  0  0  0  0
  -27.1675  -29.0877   20.0031 C   0  0  0  0  0  0  0  0  0  0  0  0
  -23.0136  -11.0878   20.6818 C   0  0  0  0  0  0  0  0  0  0  0  0
  -21.9862  -10.9023   21.6067 C   0  0  0  0  0  0  0  0  0  0  0  0
  -26.0971  -26.9423   20.2693 C   0  0  0  0  0  0  0  0  0  0  0  0
  -23.0249   -8.8511   22.3490 C   0  0  0  0  0  0  0  0  0  0  0  0
  -27.3553  -13.7878   20.0017 C   0  0  0  0  0  0  0  0  0  0  0  0
  -29.5514  -15.0853   20.0370 C   0  0  0  0  0  0  0  0  0  0  0  0
  -18.7503  -30.6339   24.7205 C   0  0  0  0  0  0  0  0  0  0  0  0
  -24.7445  -28.9348   20.0236 C   0  0  0  0  0  0  0  0  0  0  0  0
  -20.0899  -30.7712   24.3093 C   0  0  0  0  0  0  0  0  0  0  0  0
  -24.8325  -27.5448   20.1856 C   0  0  0  0  0  0  0  0  0  0  0  0
  -28.7038  -21.6161   16.8925 C   0  0  0  0  0  0  0  0  0  0  0  0
  -30.1685  -23.5339   17.0097 C   0  0  0  0  0  0  0  0  0  0  0  0
  -30.3384  -23.4887   15.6259 C   0  0  0  0  0  0  0  0  0  0  0  0
  -25.8169  -11.4712   19.7804 C   0  0  0  0  0  0  0  0  0  0  0  0
  -27.2579  -27.7102   20.1801 C   0  0  0  0  0  0  0  0  0  0  0  0
  -24.0467  -10.1549   20.5903 C   0  0  0  0  0  0  0  0  0  0  0  0
  -21.9918   -9.7839   22.4404 C   0  0  0  0  0  0  0  0  0  0  0  0
  -24.0523   -9.0366   21.4240 C   0  0  0  0  0  0  0  0  0  0  0  0
  -29.3512  -22.5976   17.6430 C   0  0  0  0  0  0  0  0  0  0  0  0
  -28.1495  -14.9847   20.1154 C   0  0  0  0  0  0  0  0  0  0  0  0
  -29.8096  -16.4238   20.2055 C   0  0  0  0  0  0  0  0  0  0  0  0
  -30.5327  -14.0606   19.8303 C   0  0  0  0  0  0  0  0  0  0  0  0
  -22.2889  -28.8556   22.0404 C   0  0  0  0  0  0  0  0  0  0  0  0
  -21.1094  -26.7144   19.9082 C   0  0  0  0  0  0  0  0  0  0  0  0
  -21.7314  -24.4333   17.4471 C   0  0  0  0  0  0  0  0  0  0  0  0
  -26.0512  -21.1726   19.2770 C   0  0  0  0  0  0  0  0  0  0  0  0
  -18.1328  -29.2814   24.9735 C   0  0  0  0  0  0  0  0  0  0  0  0
  -23.4028  -29.6046   19.9064 C   0  0  0  0  0  0  0  0  0  0  0  0
  -23.6044  -26.6782   20.2811 C   0  0  0  0  0  0  0  0  0  0  0  0
  -18.9089  -28.1294   24.3404 C   0  0  0  0  0  0  0  0  0  0  0  0
  -28.0559  -20.3555   22.2795 C   0  0  0  0  0  0  0  0  0  0  0  0
  -20.4009  -28.2712   24.6242 C   0  0  0  0  0  0  0  0  0  0  0  0
  -28.3608  -18.8715   22.0827 C   0  0  0  0  0  0  0  0  0  0  0  0
  -26.7464  -20.7593   21.6088 C   0  0  0  0  0  0  0  0  0  0  0  0
  -26.9815  -18.9251   19.9673 C   0  0  0  0  0  0  0  0  0  0  0  0
  -20.9571  -29.5656   24.0186 C   0  0  1  0  0  0  0  0  0  0  0  0
  -22.2742  -28.7964   20.5391 C   0  0  1  0  0  0  0  0  0  0  0  0
  -28.3177  -18.4956   20.5914 C   0  0  2  0  0  0  0  0  0  0  0  0
  -34.7892  -23.4482   14.2564 C   0  0  0  0  0  0  0  0  0  0  0  0
  -29.1603  -27.6562   14.5296 C   0  0  0  0  0  0  0  0  0  0  0  0
  -20.5688  -22.8158   15.9209 C   0  0  0  0  0  0  0  0  0  0  0  0
  -20.7334  -24.7858   22.2425 C   0  0  0  0  0  0  0  0  0  0  0  0
  -20.4892  -22.9303   20.5795 C   0  0  0  0  0  0  0  0  0  0  0  0
  -18.8506  -24.8111   20.5966 C   0  0  0  0  0  0  0  0  0  0  0  0
  -25.8929  -22.0211   16.9673 C   0  0  0  0  0  0  0  0  0  0  0  0
  -22.7007  -25.8385   15.0295 C   0  0  0  0  0  0  0  0  0  0  0  0
  -27.8284  -20.6132   17.5649 C   0  0  0  0  0  0  0  0  0  0  0  0
  -30.8558  -24.5792   17.8379 C   0  0  0  0  0  0  0  0  0  0  0  0
  -33.5718  -23.8911   15.0555 C   0  0  0  0  0  0  0  0  0  0  0  0
  -29.4781  -26.1685   14.4809 C   0  0  0  0  0  0  0  0  0  0  0  0
  -32.3112  -23.9860   14.2044 C   0  0  0  0  0  0  0  0  0  0  0  0
  -30.8593  -25.8428   15.0365 C   0  0  0  0  0  0  0  0  0  0  0  0
  -30.5754  -26.6729   19.1708 C   0  0  0  0  0  0  0  0  0  0  0  0
  -29.5500  -27.7245   19.5459 C   0  0  0  0  0  0  0  0  0  1  0  0
  -21.1941  -25.2167   19.7389 C   0  0  1  0  0  0  0  0  0  0  0  0
  -21.1039  -24.2304   16.0798 C   0  0  2  0  0  0  0  0  0  0  0  0
  -20.3402  -24.4523   20.7895 C   0  0  0  0  0  0  0  0  0  0  0  0
  -27.5583  -16.1652   20.3181 N   0  0  0  0  0  0  0  0  0  0  0  0
  -28.5939  -17.0202   20.3686 N   0  0  0  0  0  0  0  0  0  0  0  0
  -22.3155  -27.3807   20.1672 N   0  0  0  0  0  0  0  0  0  0  0  0
  -26.7148  -20.3519   20.2037 N   0  0  0  0  0  0  0  0  0  0  0  0
  -30.9556  -17.1369   20.2287 N   0  0  0  0  0  0  0  0  0  0  0  0
  -30.0952  -12.7381   19.6757 N   0  0  0  0  0  0  0  0  0  0  0  0
  -21.1516  -29.4135   22.5926 N   0  0  0  0  0  0  0  0  0  0  0  0
  -20.8256  -24.9409   18.3545 N   0  0  0  0  0  0  0  0  0  0  0  0
  -31.1622  -24.4279   14.9675 N   0  0  0  0  0  0  0  0  0  0  0  0
  -26.5403  -21.1775   17.9619 N   0  0  0  0  0  0  0  0  0  0  0  0
  -22.1089  -24.4760   15.0071 N   0  3  0  0  0  0  0  0  0  0  0  0
  -29.9370  -25.6549   18.2988 N   0  3  0  0  0  0  0  0  0  0  0  0
  -31.7621  -14.3080   19.8004 O   0  0  0  0  0  0  0  0  0  0  0  0
  -23.2594  -28.4255   22.6525 O   0  0  0  0  0  0  0  0  0  0  0  0
  -20.0144  -27.2734   19.8070 O   0  0  0  0  0  0  0  0  0  0  0  0
  -22.9064  -24.1647   17.6873 O   0  0  0  0  0  0  0  0  0  0  0  0
  -25.0831  -21.8689   19.6084 O   0  0  0  0  0  0  0  0  0  0  0  0
  -25.0664  -10.3409   19.6721 O   0  0  0  0  0  0  0  0  0  0  0  0
  -28.4777  -27.1122   20.2612 O   0  0  0  0  0  0  0  0  0  1  0  0
  -21.0059   -9.6067   23.3296 F   0  0  0  0  0  0  0  0  0  0  0  0
  -25.0426   -8.1376   21.3416 F   0  0  0  0  0  0  0  0  0  0  0  0
  -29.1852  -22.6415   18.9734 F   0  0  0  0  0  0  0  0  0  0  0  0
  1  2  1  0  0  0  0
  1  5  2  0  0  0  0
  2  6  2  0  0  0  0
  3 10  2  0  0  0  0
  3 17  1  0  0  0  0
  4 11  1  0  0  0  0
  4 17  2  0  0  0  0
  5 19  1  0  0  0  0
  6 21  1  0  0  0  0
  7 12  2  0  0  0  0
  7 20  1  0  0  0  0
  8  9  2  0  0  0  0
  8 23  1  0  0  0  0
  9 25  1  0  0  0  0
 10 26  1  0  0  0  0
 11 26  2  0  0  0  0
 12 27  1  0  0  0  0
 13 14  2  0  0  0  0
 13 28  1  0  0  0  0
 14 29  1  0  0  0  0
 15 22  1  0  0  0  0
 15 27  2  0  0  0  0
 16 29  2  0  0  0  0
 16 30  1  0  0  0  0
 17 32  1  0  0  0  0
 18 32  1  0  0  0  0
 18 33  2  0  0  0  0
 18 34  1  0  0  0  0
 19 21  2  0  0  0  0
 19 39  1  0  0  0  0
 20 22  2  0  0  0  0
 20 40  1  0  0  0  0
 21 48  1  0  0  0  0
 22 41  1  0  0  0  0
 23 31  2  0  0  0  0
 23 59  1  0  0  0  0
 24 25  2  0  0  0  0
 24 31  1  0  0  0  0
 24 60  1  0  0  0  0
 25 78  1  0  0  0  0
 26 87  1  0  0  0  0
 27 88  1  0  0  0  0
 28 30  2  0  0  0  0
 28 87  1  0  0  0  0
 29 89  1  0  0  0  0
 30 90  1  0  0  0  0
 31 91  1  0  0  0  0
 32 70  2  0  0  0  0
 33 71  1  0  0  0  0
 33 74  1  0  0  0  0
 34 75  1  0  0  0  0
 34 82  2  0  0  0  0
 35 49  1  0  0  0  0
 35 76  1  0  0  0  0
 35 83  2  0  0  0  0
 36 67  1  0  0  0  0
 36 72  1  0  0  0  0
 36 84  2  0  0  0  0
 37 68  1  0  0  0  0
 37 77  1  0  0  0  0
 37 85  2  0  0  0  0
 38 73  1  0  0  0  0
 38 79  1  0  0  0  0
 38 86  2  0  0  0  0
 39 42  1  0  0  0  0
 40 49  1  0  0  0  0
 41 72  1  0  0  0  0
 42 44  1  0  0  0  0
 43 45  1  0  0  0  0
 43 46  1  0  0  0  0
 44 48  1  0  0  0  0
 45 50  1  0  0  0  0
 46 73  1  0  0  0  0
 47 50  1  0  0  0  0
 47 73  1  0  0  0  0
 48 76  1  0  0  0  0
 49 72  1  0  0  0  0
 50 71  1  0  0  0  0
 51 61  1  0  0  0  0
 52 62  1  0  0  0  0
 53 68  1  0  0  0  0
 54 69  1  0  0  0  0
 55 69  1  0  0  0  0
 56 69  1  0  0  0  0
 57 79  1  0  0  0  0
 58 80  1  0  0  0  0
 59 79  1  0  0  0  0
 60 81  1  0  0  0  0
 61 63  1  0  0  0  0
 62 64  1  0  0  0  0
 63 78  1  0  0  0  0
 64 78  1  0  0  0  0
 65 66  1  0  0  0  0
 65 81  1  0  0  0  0
 66 88  1  0  0  0  0
 67 69  1  0  0  0  0
 67 77  1  0  0  0  0
 68 80  1  0  0  0  0
 70 71  1  0  0  0  0
M  CHG  2  80   1  81   1
M  ISO  4  38 100  66 101  79 100  88 101
M  END
> <Batch ID>
0019

> <Smiles>
CCCN(CCC)c1ccc(C[100N:0](C)[100C:0](=O)N2CCCC(n3nc(-c4ccc(Oc5ccc(F)cc5F)cc4)c(C(N)=O)c3N)C2)c(F)c1CNC[101CH2:1][101O:1]c1ccc2c(c1)CN(C(=O)C(NC(=O)C(C)NC)C(C)(C)C)C(C(=O)NC1CCCc3ccccc31)C2

> <Shape>
0.257

> <Color>
0.100

> <Negative vol penalty>
0.000

$$$$

  -OEChem-04042321053D

 94104  0     1  0  0  0  0  0999 V2000
  -19.2005  -17.2657   18.7826 C   0  0  0  0  0  0  0  0  0  0  0  0
  -19.6662  -18.5638   18.5993 C   0  0  0  0  0  0  0  0  0  0  0  0
  -30.2519  -18.0489   21.4646 C   0  0  0  0  0  0  0  0  0  0  0  0
  -29.3098  -17.6255   19.2806 C   0  0  0  0  0  0  0  0  0  0  0  0
  -18.7186  -16.8688   20.0292 C   0  0  0  0  0  0  0  0  0  0  0  0
  -19.6492  -19.4660   19.6623 C   0  0  0  0  0  0  0  0  0  0  0  0
  -23.9574  -22.1002   20.0439 C   0  0  0  0  0  0  0  0  0  0  0  0
  -26.6757  -27.8758   21.5486 C   0  0  0  0  0  0  0  0  0  0  0  0
  -25.6273  -28.7947   21.5042 C   0  0  0  0  0  0  0  0  0  0  0  0
  -30.7850  -16.7601   21.4845 C   0  0  0  0  0  0  0  0  0  0  0  0
  -29.8429  -16.3367   19.3004 C   0  0  0  0  0  0  0  0  0  0  0  0
  -24.1362  -23.1604   19.1563 C   0  0  0  0  0  0  0  0  0  0  0  0
  -29.0916  -13.3512   20.6979 C   0  0  0  0  0  0  0  0  0  0  0  0
  -28.2665  -12.3022   20.2924 C   0  0  0  0  0  0  0  0  0  0  0  0
  -23.4695  -24.7092   20.8814 C   0  0  0  0  0  0  0  0  0  0  0  0
  -26.5921  -27.6639   19.1434 C   0  0  0  0  0  0  0  0  0  0  0  0
  -29.8228  -11.7610   18.5255 C   0  0  0  0  0  0  0  0  0  0  0  0
  -29.5142  -18.4816   20.3627 C   0  0  0  0  0  0  0  0  0  0  0  0
  -28.0420  -20.3657   21.2517 C   0  0  0  0  0  0  0  0  0  0  0  0
  -18.7046  -17.7638   21.1106 C   0  0  0  0  0  0  0  0  0  0  0  0
  -23.5221  -22.3360   21.3559 C   0  0  0  0  0  0  0  0  0  0  0  0
  -19.1653  -19.0811   20.9242 C   0  0  0  0  0  0  0  0  0  0  0  0
  -23.2884  -23.6505   21.7844 C   0  0  0  0  0  0  0  0  0  0  0  0
  -27.1581  -27.3104   20.3682 C   0  0  0  0  0  0  0  0  0  0  0  0
  -25.0612  -29.1482   20.2793 C   0  0  0  0  0  0  0  0  0  0  0  0
  -25.5436  -28.5828   19.0989 C   0  0  0  0  0  0  0  0  0  0  0  0
  -30.5805  -15.9040   20.4024 C   0  0  0  0  0  0  0  0  0  0  0  0
  -23.8895  -24.4648   19.5741 C   0  0  0  0  0  0  0  0  0  0  0  0
  -30.2823  -13.6051   20.0171 C   0  0  0  0  0  0  0  0  0  0  0  0
  -28.6320  -11.5071   19.2062 C   0  0  0  0  0  0  0  0  0  0  0  0
  -30.6479  -12.8100   18.9310 C   0  0  0  0  0  0  0  0  0  0  0  0
  -28.9628  -19.8126   20.3418 C   0  0  0  0  0  0  0  0  0  0  0  0
  -27.8380  -21.6460   20.7983 C   0  0  0  0  0  0  0  0  0  0  0  0
  -27.4262  -19.7749   22.4039 C   0  0  0  0  0  0  0  0  0  0  0  0
  -20.9729  -21.4957   23.0586 C   0  0  0  0  0  0  0  0  0  0  0  0
  -22.6019  -22.9196   25.4754 C   0  0  0  0  0  0  0  0  0  0  0  0
  -24.9732  -25.1788   26.4345 C   0  0  0  0  0  0  0  0  0  0  0  0
  -30.3246  -26.4042   18.9291 C   0  0  0  0  0  0  0  0  0  0  0  0
  -18.1303  -17.3030   22.4269 C   0  0  0  0  0  0  0  0  0  0  0  0
  -23.3597  -21.1838   22.3090 C   0  0  0  0  0  0  0  0  0  0  0  0
  -22.8391  -23.9587   23.1886 C   0  0  0  0  0  0  0  0  0  0  0  0
  -18.4944  -18.2086   23.6006 C   0  0  0  0  0  0  0  0  0  0  0  0
  -24.8591  -27.0861   13.4321 C   0  0  0  0  0  0  0  0  0  0  0  0
  -25.6584  -28.3788   13.6238 C   0  0  0  0  0  0  0  0  0  0  0  0
  -29.1827  -23.8799   16.4744 C   0  0  0  0  0  0  0  0  0  0  0  0
  -25.2021  -33.5976   20.4558 C   0  0  0  0  0  0  0  0  0  0  0  0
  -23.6905  -33.6774   20.5297 C   0  0  0  0  0  0  0  0  0  0  0  0
  -18.2838  -19.6733   23.2303 C   0  0  0  0  0  0  0  0  0  0  0  0
  -29.0198  -22.6282   17.3350 C   0  0  0  0  0  0  0  0  0  0  0  0
  -24.3637  -26.6834   14.8186 C   0  0  0  0  0  0  0  0  0  0  0  0
  -25.6168  -28.6852   15.1182 C   0  0  0  0  0  0  0  0  0  0  0  0
  -30.2433  -24.8212   17.0372 C   0  0  0  0  0  0  0  0  0  0  0  0
  -29.8547  -23.9505   19.3187 C   0  0  0  0  0  0  0  0  0  0  0  0
  -25.4610  -32.1126   20.5923 C   0  0  0  0  0  0  0  0  0  0  0  0
  -23.2180  -32.4958   19.7010 C   0  0  0  0  0  0  0  0  0  0  0  0
  -19.1861  -20.0815   22.0595 C   0  0  1  0  0  0  0  0  0  0  0  0
  -22.4185  -21.4956   23.4684 C   0  0  1  0  0  0  0  0  0  0  0  0
  -28.7606  -23.0028   18.8046 C   0  0  2  0  0  0  0  0  0  0  0  0
  -24.3469  -27.9953   15.5822 C   0  0  0  0  0  0  0  0  0  0  0  0
  -26.0567  -26.1491   28.4795 C   0  0  0  0  0  0  0  0  0  0  0  0
  -20.1158  -24.6133   25.9860 C   0  0  0  0  0  0  0  0  0  0  0  0
  -21.5360  -26.1631   27.3458 C   0  0  0  0  0  0  0  0  0  0  0  0
  -21.2574  -23.7868   28.0519 C   0  0  0  0  0  0  0  0  0  0  0  0
  -29.8408  -28.2347   20.5086 C   0  0  0  0  0  0  0  0  0  0  0  0
  -27.6460  -24.1987   25.6254 C   0  0  0  0  0  0  0  0  0  0  0  0
  -28.2787  -26.3276   20.4161 C   0  0  0  0  0  0  0  0  0  0  0  0
  -23.9389  -30.1334   20.2568 C   0  0  0  0  0  0  0  0  0  0  0  0
  -24.9503  -28.9476   17.7701 C   0  0  0  0  0  0  0  0  0  0  0  0
  -23.0439  -27.3581   17.5705 C   0  0  0  0  0  0  0  0  0  0  0  0
  -23.2341  -26.6482   18.8964 C   0  0  0  0  0  0  0  0  0  1  0  0
  -22.6806  -24.3208   26.0317 C   0  0  1  0  0  0  0  0  0  0  0  0
  -26.1314  -25.0707   27.4099 C   0  0  2  0  0  0  0  0  0  0  0  0
  -21.4041  -24.7154   26.8267 C   0  0  0  0  0  0  0  0  0  0  0  0
  -29.3190  -20.6712   19.3826 N   0  0  0  0  0  0  0  0  0  0  0  0
  -28.6183  -21.7768   19.6874 N   0  0  0  0  0  0  0  0  0  0  0  0
  -22.6886  -22.7977   24.0813 N   0  0  0  0  0  0  0  0  0  0  0  0
  -29.9968  -25.1263   18.4470 N   0  0  0  0  0  0  0  0  0  0  0  0
  -27.0690  -22.6615   21.2455 N   0  0  0  0  0  0  0  0  0  0  0  0
  -26.2075  -19.1027   22.2393 N   0  0  0  0  0  0  0  0  0  0  0  0
  -20.5413  -20.2994   22.5180 N   0  0  0  0  0  0  0  0  0  0  0  0
  -23.9126  -24.3821   26.8108 N   0  0  0  0  0  0  0  0  0  0  0  0
  -29.5470  -26.9094   19.9821 N   0  0  0  0  0  0  0  0  0  0  0  0
  -24.3504  -31.4880   19.7766 N   0  3  0  0  0  0  0  0  0  0  0  0
  -27.4291  -25.2111   26.6908 N   0  3  0  0  0  0  0  0  0  0  0  0
  -24.3688  -27.7638   17.0373 N   0  3  1  0  0  0  0  0  0  0  0  0
  -27.9333  -19.8554   23.5485 O   0  0  0  0  0  0  0  0  0  0  0  0
  -20.2986  -22.5057   23.2222 O   0  0  0  0  0  0  0  0  0  0  0  0
  -22.4756  -21.9678   26.2497 O   0  0  0  0  0  0  0  0  0  0  0  0
  -25.0048  -25.9009   25.4405 O   0  0  0  0  0  0  0  0  0  0  0  0
  -31.2530  -27.0602   18.4395 O   0  0  0  0  0  0  0  0  0  0  0  0
  -31.1008  -14.6464   20.4214 O   0  0  0  0  0  0  0  0  0  0  0  0
  -24.0626  -25.5014   18.7096 O   0  0  0  0  0  0  0  0  0  1  0  0
  -27.8403  -10.4989   18.8179 F   0  0  0  0  0  0  0  0  0  0  0  0
  -31.7912  -13.0484   18.2738 F   0  0  0  0  0  0  0  0  0  0  0  0
  1  2  1  0  0  0  0
  1  5  2  0  0  0  0
  2  6  2  0  0  0  0
  3 10  2  0  0  0  0
  3 18  1  0  0  0  0
  4 11  1  0  0  0  0
  4 18  2  0  0  0  0
  5 20  1  0  0  0  0
  6 22  1  0  0  0  0
  7 12  2  0  0  0  0
  7 21  1  0  0  0  0
  8  9  2  0  0  0  0
  8 24  1  0  0  0  0
  9 25  1  0  0  0  0
 10 27  1  0  0  0  0
 11 27  2  0  0  0  0
 12 28  1  0  0  0  0
 13 14  2  0  0  0  0
 13 29  1  0  0  0  0
 14 30  1  0  0  0  0
 15 23  1  0  0  0  0
 15 28  2  0  0  0  0
 16 24  2  0  0  0  0
 16 26  1  0  0  0  0
 17 30  2  0  0  0  0
 17 31  1  0  0  0  0
 18 32  1  0  0  0  0
 19 32  1  0  0  0  0
 19 33  2  0  0  0  0
 19 34  1  0  0  0  0
 20 22  2  0  0  0  0
 20 39  1  0  0  0  0
 21 23  2  0  0  0  0
 21 40  1  0  0  0  0
 22 56  1  0  0  0  0
 23 41  1  0  0  0  0
 24 66  1  0  0  0  0
 25 26  2  0  0  0  0
 25 67  1  0  0  0  0
 26 68  1  0  0  0  0
 27 91  1  0  0  0  0
 28 92  1  0  0  0  0
 29 31  2  0  0  0  0
 29 91  1  0  0  0  0
 30 93  1  0  0  0  0
 31 94  1  0  0  0  0
 32 74  2  0  0  0  0
 33 75  1  0  0  0  0
 33 78  1  0  0  0  0
 34 79  1  0  0  0  0
 34 86  2  0  0  0  0
 35 57  1  0  0  0  0
 35 80  1  0  0  0  0
 35 87  2  0  0  0  0
 36 71  1  0  0  0  0
 36 76  1  0  0  0  0
 36 88  2  0  0  0  0
 37 72  1  0  0  0  0
 37 81  1  0  0  0  0
 37 89  2  0  0  0  0
 38 77  1  0  0  0  0
 38 82  1  0  0  0  0
 38 90  2  0  0  0  0
 39 42  1  0  0  0  0
 40 57  1  0  0  0  0
 41 76  1  0  0  0  0
 42 48  1  0  0  0  0
 43 44  1  0  0  0  0
 43 50  1  0  0  0  0
 44 51  1  0  0  0  0
 45 49  1  0  0  0  0
 45 52  1  0  0  0  0
 46 47  1  0  0  0  0
 46 54  1  0  0  0  0
 47 55  1  0  0  0  0
 48 56  1  0  0  0  0
 49 58  1  0  0  0  0
 50 59  1  0  0  0  0
 51 59  1  0  0  0  0
 52 77  1  0  0  0  0
 53 58  1  0  0  0  0
 53 77  1  0  0  0  0
 54 83  1  0  0  0  0
 55 83  1  0  0  0  0
 56 80  1  0  0  0  0
 57 76  1  0  0  0  0
 58 75  1  0  0  0  0
 59 85  1  0  0  0  0
 60 72  1  0  0  0  0
 61 73  1  0  0  0  0
 62 73  1  0  0  0  0
 63 73  1  0  0  0  0
 64 82  1  0  0  0  0
 65 84  1  0  0  0  0
 66 82  1  0  0  0  0
 67 83  1  0  0  0  0
 68 85  1  0  0  0  0
 69 70  1  0  0  0  0
 69 85  1  0  0  0  0
 70 92  1  0  0  0  0
 71 73  1  0  0  0  0
 71 81  1  0  0  0  0
 72 84  1  0  0  0  0
 74 75  1  0  0  0  0
M  CHG  3  83   1  84   1  85   1
M  ISO  4  38 100  70 101  82 100  92 101
M  END
> <Batch ID>
0019

> <Smiles>
CNC(C)C(=O)NC(C(=O)N1Cc2cc([101O:1][101CH2:1]CN(Cc3cc(C[100N:0](C)[100C:0](=O)N4CCCC(n5nc(-c6ccc(Oc7ccc(F)cc7F)cc6)c(C(N)=O)c5N)C4)ccc3CN3CCCC3)C3CCCC3)ccc2CC1C(=O)NC1CCCc2ccccc21)C(C)(C)C

> <Shape>
0.199

> <Color>
0.054

> <Negative vol penalty>
0.000

$$$$

  -OEChem-04042321053D

 80 88  0     1  0  0  0  0  0999 V2000
  -21.9239  -11.7839   19.4976 C   0  0  0  0  0  0  0  0  0  0  0  0
  -21.6822  -13.0910   19.9079 C   0  0  0  0  0  0  0  0  0  0  0  0
  -25.4890  -27.1402   19.6576 C   0  0  0  0  0  0  0  0  0  0  0  0
  -25.8051  -28.7995   21.3850 C   0  0  0  0  0  0  0  0  0  0  0  0
  -23.1953  -11.2314   19.6467 C   0  0  0  0  0  0  0  0  0  0  0  0
  -22.7116  -13.8461   20.4688 C   0  0  0  0  0  0  0  0  0  0  0  0
  -22.8942  -18.5574   18.6206 C   0  0  0  0  0  0  0  0  0  0  0  0
  -18.8184  -22.1356   21.9786 C   0  0  0  0  0  0  0  0  0  0  0  0
  -26.4793  -27.7517   18.8889 C   0  0  0  0  0  0  0  0  0  0  0  0
  -26.7955  -29.4111   20.6163 C   0  0  0  0  0  0  0  0  0  0  0  0
  -21.9644  -19.4715   19.1143 C   0  0  0  0  0  0  0  0  0  0  0  0
  -29.1761  -28.6646   16.6286 C   0  0  0  0  0  0  0  0  0  0  0  0
  -18.0419  -23.1321   22.5700 C   0  0  0  0  0  0  0  0  0  0  0  0
  -30.1256  -27.8428   16.0213 C   0  0  0  0  0  0  0  0  0  0  0  0
  -23.6470  -20.3793   20.5853 C   0  0  0  0  0  0  0  0  0  0  0  0
  -18.9689  -23.4518   19.9582 C   0  0  0  0  0  0  0  0  0  0  0  0
  -30.8083  -27.0282   18.1910 C   0  0  0  0  0  0  0  0  0  0  0  0
  -25.1519  -27.6641   20.9056 C   0  0  0  0  0  0  0  0  0  0  0  0
  -24.3010  -26.0101   22.6515 C   0  0  0  0  0  0  0  0  0  0  0  0
  -24.2432  -11.9834   20.2008 C   0  0  0  0  0  0  0  0  0  0  0  0
  -24.2066  -18.5402   19.1142 C   0  0  0  0  0  0  0  0  0  0  0  0
  -23.9979  -13.3028   20.6267 C   0  0  0  0  0  0  0  0  0  0  0  0
  -24.5922  -19.4657   20.0944 C   0  0  0  0  0  0  0  0  0  0  0  0
  -19.2820  -22.2955   20.6727 C   0  0  0  0  0  0  0  0  0  0  0  0
  -18.1923  -24.4483   20.5495 C   0  0  0  0  0  0  0  0  0  0  0  0
  -27.1325  -28.8872   19.3682 C   0  0  0  0  0  0  0  0  0  0  0  0
  -22.3399  -20.3807   20.0988 C   0  0  0  0  0  0  0  0  0  0  0  0
  -29.0427  -28.6682   18.0171 C   0  0  0  0  0  0  0  0  0  0  0  0
  -30.9416  -27.0246   16.8024 C   0  0  0  0  0  0  0  0  0  0  0  0
  -17.7288  -24.2884   21.8554 C   0  0  0  0  0  0  0  0  0  0  0  0
  -29.8588  -27.8500   18.7982 C   0  0  0  0  0  0  0  0  0  0  0  0
  -24.1286  -27.0332   21.7000 C   0  0  0  0  0  0  0  0  0  0  0  0
  -23.0348  -25.7623   23.1224 C   0  0  0  0  0  0  0  0  0  0  0  0
  -25.4987  -25.3434   23.0721 C   0  0  0  0  0  0  0  0  0  0  0  0
  -25.9990  -16.4089   20.6468 C   0  0  0  0  0  0  0  0  0  0  0  0
  -28.3227  -18.6303   20.2131 C   0  0  0  0  0  0  0  0  0  0  0  0
  -29.1420  -21.9011   19.6860 C   0  0  0  0  0  0  0  0  0  0  0  0
  -17.6612  -26.8961   20.4183 C   0  0  0  0  0  0  0  0  0  0  0  0
  -25.5887  -11.3275   20.3854 C   0  0  0  0  0  0  0  0  0  0  0  0
  -25.2049  -17.5655   18.5521 C   0  0  0  0  0  0  0  0  0  0  0  0
  -25.9944  -19.5019   20.6430 C   0  0  0  0  0  0  0  0  0  0  0  0
  -26.7196  -12.3196   20.6445 C   0  0  0  0  0  0  0  0  0  0  0  0
  -18.7927  -27.8557   23.8082 C   0  0  0  0  0  0  0  0  0  0  0  0
  -26.3010  -13.3440   21.6943 C   0  0  0  0  0  0  0  0  0  0  0  0
  -20.3126  -27.7460   23.7023 C   0  0  0  0  0  0  0  0  0  0  0  0
  -18.1544  -28.1955   22.4649 C   0  0  0  0  0  0  0  0  0  0  0  0
  -20.0457  -27.1340   21.2659 C   0  0  0  0  0  0  0  0  0  0  0  0
  -25.0950  -14.1620   21.2168 C   0  0  1  0  0  0  0  0  0  0  0  0
  -26.3741  -17.2975   19.4947 C   0  0  1  0  0  0  0  0  0  0  0  0
  -20.7091  -26.7525   22.5978 C   0  0  1  0  0  0  0  0  0  0  0  0
  -31.1238  -23.4160   19.4129 C   0  0  0  0  0  0  0  0  0  0  0  0
  -28.8298  -18.5048   23.2192 C   0  0  0  0  0  0  0  0  0  0  0  0
  -30.0979  -20.6547   23.0246 C   0  0  0  0  0  0  0  0  0  0  0  0
  -30.8969  -18.6237   21.8167 C   0  0  0  0  0  0  0  0  0  0  0  0
  -17.4913  -25.4988   18.4058 C   0  0  0  0  0  0  0  0  0  0  0  0
  -28.3061  -22.6947   16.9602 C   0  0  0  0  0  0  0  0  0  0  0  0
  -20.1167  -21.2230   20.0370 C   0  0  0  0  0  0  0  0  0  1  0  0
  -28.8253  -19.8187   20.9967 C   0  0  1  0  0  0  0  0  0  0  0  0
  -30.0929  -22.5550   18.6998 C   0  0  2  0  0  0  0  0  0  0  0  0
  -29.6355  -19.3988   22.2556 C   0  0  0  0  0  0  0  0  0  0  0  0
  -22.8534  -27.4094   21.5727 N   0  0  0  0  0  0  0  0  0  0  0  0
  -22.2129  -26.6184   22.4503 N   0  0  0  0  0  0  0  0  0  0  0  0
  -26.9323  -18.5247   20.0660 N   0  0  0  0  0  0  0  0  0  0  0  0
  -18.5878  -27.2777   21.4102 N   0  0  0  0  0  0  0  0  0  0  0  0
  -22.5554  -24.8977   24.0417 N   0  0  0  0  0  0  0  0  0  0  0  0
  -26.7145  -25.7209   22.4859 N   0  0  0  0  0  0  0  0  0  0  0  0
  -25.5129  -15.1720   20.2683 N   0  0  0  0  0  0  0  0  0  0  0  0
  -29.5722  -20.6435   20.0532 N   0  0  0  0  0  0  0  0  0  0  0  0
  -17.8700  -25.6439   19.8096 N   0  0  0  0  0  0  0  0  0  0  0  0
  -29.3385  -23.4173   17.7469 N   0  3  0  0  0  0  0  0  0  0  0  0
  -25.4887  -24.4284   23.9300 O   0  0  0  0  0  0  0  0  0  0  0  0
  -26.1414  -16.8149   21.7942 O   0  0  0  0  0  0  0  0  0  0  0  0
  -29.1341  -17.8292   19.7425 O   0  0  0  0  0  0  0  0  0  0  0  0
  -28.1217  -22.4523   20.0930 O   0  0  0  0  0  0  0  0  0  0  0  0
  -16.7426  -27.6429   20.0589 O   0  0  0  0  0  0  0  0  0  0  0  0
  -28.0991  -29.4840   18.6185 O   0  0  0  0  0  0  0  0  0  0  0  0
  -21.4342  -21.2736   20.5829 O   0  0  0  0  0  0  0  0  0  1  0  0
  -31.8523  -26.2344   16.2190 F   0  0  0  0  0  0  0  0  0  0  0  0
  -16.9811  -25.2391   22.4338 F   0  0  0  0  0  0  0  0  0  0  0  0
  -29.7345  -27.8483   20.1325 F   0  0  0  0  0  0  0  0  0  0  0  0
  1  2  1  0  0  0  0
  1  5  2  0  0  0  0
  2  6  2  0  0  0  0
  3  9  2  0  0  0  0
  3 18  1  0  0  0  0
  4 10  1  0  0  0  0
  4 18  2  0  0  0  0
  5 20  1  0  0  0  0
  6 22  1  0  0  0  0
  7 11  2  0  0  0  0
  7 21  1  0  0  0  0
  8 13  2  0  0  0  0
  8 24  1  0  0  0  0
  9 26  1  0  0  0  0
 10 26  2  0  0  0  0
 11 27  1  0  0  0  0
 12 14  2  0  0  0  0
 12 28  1  0  0  0  0
 13 30  1  0  0  0  0
 14 29  1  0  0  0  0
 15 23  1  0  0  0  0
 15 27  2  0  0  0  0
 16 24  2  0  0  0  0
 16 25  1  0  0  0  0
 17 29  2  0  0  0  0
 17 31  1  0  0  0  0
 18 32  1  0  0  0  0
 19 32  1  0  0  0  0
 19 33  2  0  0  0  0
 19 34  1  0  0  0  0
 20 22  2  0  0  0  0
 20 39  1  0  0  0  0
 21 23  2  0  0  0  0
 21 40  1  0  0  0  0
 22 48  1  0  0  0  0
 23 41  1  0  0  0  0
 24 57  1  0  0  0  0
 25 30  2  0  0  0  0
 25 69  1  0  0  0  0
 26 76  1  0  0  0  0
 27 77  1  0  0  0  0
 28 31  2  0  0  0  0
 28 76  1  0  0  0  0
 29 78  1  0  0  0  0
 30 79  1  0  0  0  0
 31 80  1  0  0  0  0
 32 61  2  0  0  0  0
 33 62  1  0  0  0  0
 33 65  1  0  0  0  0
 34 66  1  0  0  0  0
 34 71  2  0  0  0  0
 35 49  1  0  0  0  0
 35 67  1  0  0  0  0
 35 72  2  0  0  0  0
 36 58  1  0  0  0  0
 36 63  1  0  0  0  0
 36 73  2  0  0  0  0
 37 59  1  0  0  0  0
 37 68  1  0  0  0  0
 37 74  2  0  0  0  0
 38 64  1  0  0  0  0
 38 69  1  0  0  0  0
 38 75  2  0  0  0  0
 39 42  1  0  0  0  0
 40 49  1  0  0  0  0
 41 63  1  0  0  0  0
 42 44  1  0  0  0  0
 43 45  1  0  0  0  0
 43 46  1  0  0  0  0
 44 48  1  0  0  0  0
 45 50  1  0  0  0  0
 46 64  1  0  0  0  0
 47 50  1  0  0  0  0
 47 64  1  0  0  0  0
 48 67  1  0  0  0  0
 49 63  1  0  0  0  0
 50 62  1  0  0  0  0
 51 59  1  0  0  0  0
 52 60  1  0  0  0  0
 53 60  1  0  0  0  0
 54 60  1  0  0  0  0
 55 69  1  0  0  0  0
 56 70  1  0  0  0  0
 57 77  1  0  0  0  0
 58 60  1  0  0  0  0
 58 68  1  0  0  0  0
 59 70  1  0  0  0  0
 61 62  1  0  0  0  0
M  CHG  1  70   1
M  ISO  4  38 100  57 101  69 100  77 101
M  END
> <Batch ID>
0019

> <Smiles>
CNC(C)C(=O)NC(C(=O)N1Cc2cc([101O:1][101CH2:1]c3ccc(F)c([100N:0](C)[100C:0](=O)N4CCCC(n5nc(-c6ccc(Oc7ccc(F)cc7F)cc6)c(C(N)=O)c5N)C4)c3)ccc2CC1C(=O)NC1CCCc2ccccc21)C(C)(C)C

> <Shape>
0.205

> <Color>
0.086

> <Negative vol penalty>
0.000

$$$$

  -OEChem-04042321053D

 82 90  0     1  0  0  0  0  0999 V2000
  -35.9092  -31.1665   20.0709 C   0  0  0  0  0  0  0  0  0  0  0  0
  -35.9895  -30.0060   20.8339 C   0  0  0  0  0  0  0  0  0  0  0  0
  -23.0463   -9.9635   19.8683 C   0  0  0  0  0  0  0  0  0  0  0  0
  -23.9077   -9.7563   22.1160 C   0  0  0  0  0  0  0  0  0  0  0  0
  -34.6783  -31.7950   19.8874 C   0  0  0  0  0  0  0  0  0  0  0  0
  -34.8389  -29.4739   21.4148 C   0  0  0  0  0  0  0  0  0  0  0  0
  -33.5448  -23.5480   22.2608 C   0  0  0  0  0  0  0  0  0  0  0  0
  -32.7769  -17.2532   23.6545 C   0  0  0  0  0  0  0  0  0  0  0  0
  -32.1462  -16.4571   22.6984 C   0  0  0  0  0  0  0  0  0  0  0  0
  -22.3135   -8.7894   20.0408 C   0  0  0  0  0  0  0  0  0  0  0  0
  -23.1748   -8.5821   22.2886 C   0  0  0  0  0  0  0  0  0  0  0  0
  -33.6592  -22.7121   23.3707 C   0  0  0  0  0  0  0  0  0  0  0  0
  -19.9761   -7.7198   22.9558 C   0  0  0  0  0  0  0  0  0  0  0  0
  -19.2721   -7.5667   24.1502 C   0  0  0  0  0  0  0  0  0  0  0  0
  -31.3390  -23.1072   23.8997 C   0  0  0  0  0  0  0  0  0  0  0  0
  -30.6244  -18.0379   24.4212 C   0  0  0  0  0  0  0  0  0  0  0  0
  -20.5436   -5.5726   24.6441 C   0  0  0  0  0  0  0  0  0  0  0  0
  -23.8435  -10.4470   20.9058 C   0  0  0  0  0  0  0  0  0  0  0  0
  -24.1816  -12.9733   21.0101 C   0  0  0  0  0  0  0  0  0  0  0  0
  -33.5105  -31.2649   20.4583 C   0  0  0  0  0  0  0  0  0  0  0  0
  -32.3275  -24.1795   21.9677 C   0  0  0  0  0  0  0  0  0  0  0  0
  -33.5914  -30.0966   21.2399 C   0  0  0  0  0  0  0  0  0  0  0  0
  -31.2111  -23.9486   22.7840 C   0  0  0  0  0  0  0  0  0  0  0  0
  -32.0160  -18.0435   24.5160 C   0  0  0  0  0  0  0  0  0  0  0  0
  -30.7546  -16.4515   22.6037 C   0  0  0  0  0  0  0  0  0  0  0  0
  -22.3777   -8.0986   21.2510 C   0  0  0  0  0  0  0  0  0  0  0  0
  -32.5569  -22.4939   24.1920 C   0  0  0  0  0  0  0  0  0  0  0  0
  -20.9638   -6.7992   22.6055 C   0  0  0  0  0  0  0  0  0  0  0  0
  -19.5558   -6.4932   24.9943 C   0  0  0  0  0  0  0  0  0  0  0  0
  -29.9936  -17.2419   23.4651 C   0  0  0  0  0  0  0  0  0  0  0  0
  -21.2476   -5.7257   23.4497 C   0  0  0  0  0  0  0  0  0  0  0  0
  -24.6013  -11.6595   20.7280 C   0  0  0  0  0  0  0  0  0  0  0  0
  -25.2570  -13.7576   20.6712 C   0  0  0  0  0  0  0  0  0  0  0  0
  -22.9314  -13.4428   21.5320 C   0  0  0  0  0  0  0  0  0  0  0  0
  -31.3586  -27.2002   21.7675 C   0  0  0  0  0  0  0  0  0  0  0  0
  -28.6079  -25.8397   20.7163 C   0  0  0  0  0  0  0  0  0  0  0  0
  -26.5814  -23.0951   20.6311 C   0  0  0  0  0  0  0  0  0  0  0  0
  -30.7264  -14.8008   20.7008 C   0  0  0  0  0  0  0  0  0  0  0  0
  -32.2102  -32.0058   20.2713 C   0  0  0  0  0  0  0  0  0  0  0  0
  -32.2134  -25.0571   20.7515 C   0  0  0  0  0  0  0  0  0  0  0  0
  -29.8764  -24.5866   22.5013 C   0  0  0  0  0  0  0  0  0  0  0  0
  -30.9787  -31.1698   20.6101 C   0  0  0  0  0  0  0  0  0  0  0  0
  -29.5056  -12.6179   18.1667 C   0  0  0  0  0  0  0  0  0  0  0  0
  -31.1749  -30.4436   21.9371 C   0  0  0  0  0  0  0  0  0  0  0  0
  -28.0864  -12.2820   18.6304 C   0  0  0  0  0  0  0  0  0  0  0  0
  -30.4736  -12.7352   19.3428 C   0  0  0  0  0  0  0  0  0  0  0  0
  -28.6307  -13.3193   20.8698 C   0  0  0  0  0  0  0  0  0  0  0  0
  -32.3617  -29.4751   21.8657 C   0  0  1  0  0  0  0  0  0  0  0  0
  -31.0630  -26.0551   20.8406 C   0  0  1  0  0  0  0  0  0  0  0  0
  -27.6062  -13.2548   19.7253 C   0  0  2  0  0  0  0  0  0  0  0  0
  -24.3818  -22.2980   19.7234 C   0  0  0  0  0  0  0  0  0  0  0  0
  -27.1454  -27.4281   22.8722 C   0  0  0  0  0  0  0  0  0  0  0  0
  -25.1776  -25.9129   22.5555 C   0  0  0  0  0  0  0  0  0  0  0  0
  -25.9704  -27.3361   20.6664 C   0  0  0  0  0  0  0  0  0  0  0  0
  -34.1094  -18.8496   25.5781 C   0  0  0  0  0  0  0  0  0  0  0  0
  -27.8791  -20.9667   19.0359 C   0  0  0  0  0  0  0  0  0  0  0  0
  -31.8916  -19.6831   26.3751 C   0  0  0  0  0  0  0  0  0  0  0  0
  -31.4927  -20.9739   25.6797 C   0  0  0  0  0  0  0  0  0  1  0  0
  -27.3455  -25.3357   21.3730 C   0  0  1  0  0  0  0  0  0  0  0  0
  -25.8798  -22.3964   19.4804 C   0  0  2  0  0  0  0  0  0  0  0  0
  -26.4352  -26.4926   21.8735 C   0  0  0  0  0  0  0  0  0  0  0  0
  -25.8461  -11.6080   20.2467 N   0  0  0  0  0  0  0  0  0  0  0  0
  -26.2179  -12.8993   20.2237 N   0  0  0  0  0  0  0  0  0  0  0  0
  -29.8169  -25.4414   21.3041 N   0  0  0  0  0  0  0  0  0  0  0  0
  -29.9551  -13.6765   20.3377 N   0  0  0  0  0  0  0  0  0  0  0  0
  -25.4650  -15.0907   20.7152 N   0  0  0  0  0  0  0  0  0  0  0  0
  -21.9349  -12.5024   21.8264 N   0  0  0  0  0  0  0  0  0  0  0  0
  -30.1169  -15.6421   21.6311 N   0  0  0  0  0  0  0  0  0  0  0  0
  -31.9879  -28.2690   21.1584 N   0  0  0  0  0  0  0  0  0  0  0  0
  -26.7078  -24.4495   20.4053 N   0  0  0  0  0  0  0  0  0  0  0  0
  -32.6497  -18.8427   25.4768 N   0  0  3  0  0  0  0  0  0  0  0  0
  -26.4191  -21.0181   19.3052 N   0  3  0  0  0  0  0  0  0  0  0  0
  -22.6989  -14.6617   21.7160 O   0  0  0  0  0  0  0  0  0  0  0  0
  -31.0380  -27.1206   22.9476 O   0  0  0  0  0  0  0  0  0  0  0  0
  -28.5245  -26.5544   19.7144 O   0  0  0  0  0  0  0  0  0  0  0  0
  -26.9744  -22.4997   21.6318 O   0  0  0  0  0  0  0  0  0  0  0  0
  -31.8336  -15.0169   20.2015 O   0  0  0  0  0  0  0  0  0  0  0  0
  -21.6625   -6.9530   21.4198 O   0  0  0  0  0  0  0  0  0  0  0  0
  -32.6660  -21.6789   25.2764 O   0  0  0  0  0  0  0  0  0  1  0  0
  -18.8807   -6.3472   26.1420 F   0  0  0  0  0  0  0  0  0  0  0  0
  -28.6555  -17.2445   23.3825 F   0  0  0  0  0  0  0  0  0  0  0  0
  -22.1962   -4.8387   23.1191 F   0  0  0  0  0  0  0  0  0  0  0  0
  1  2  1  0  0  0  0
  1  5  2  0  0  0  0
  2  6  2  0  0  0  0
  3 10  2  0  0  0  0
  3 18  1  0  0  0  0
  4 11  1  0  0  0  0
  4 18  2  0  0  0  0
  5 20  1  0  0  0  0
  6 22  1  0  0  0  0
  7 12  2  0  0  0  0
  7 21  1  0  0  0  0
  8  9  2  0  0  0  0
  8 24  1  0  0  0  0
  9 25  1  0  0  0  0
 10 26  1  0  0  0  0
 11 26  2  0  0  0  0
 12 27  1  0  0  0  0
 13 14  2  0  0  0  0
 13 28  1  0  0  0  0
 14 29  1  0  0  0  0
 15 23  1  0  0  0  0
 15 27  2  0  0  0  0
 16 24  2  0  0  0  0
 16 30  1  0  0  0  0
 17 29  2  0  0  0  0
 17 31  1  0  0  0  0
 18 32  1  0  0  0  0
 19 32  1  0  0  0  0
 19 33  2  0  0  0  0
 19 34  1  0  0  0  0
 20 22  2  0  0  0  0
 20 39  1  0  0  0  0
 21 23  2  0  0  0  0
 21 40  1  0  0  0  0
 22 48  1  0  0  0  0
 23 41  1  0  0  0  0
 24 71  1  0  0  0  0
 25 30  2  0  0  0  0
 25 68  1  0  0  0  0
 26 78  1  0  0  0  0
 27 79  1  0  0  0  0
 28 31  2  0  0  0  0
 28 78  1  0  0  0  0
 29 80  1  0  0  0  0
 30 81  1  0  0  0  0
 31 82  1  0  0  0  0
 32 62  2  0  0  0  0
 33 63  1  0  0  0  0
 33 66  1  0  0  0  0
 34 67  1  0  0  0  0
 34 73  2  0  0  0  0
 35 49  1  0  0  0  0
 35 69  1  0  0  0  0
 35 74  2  0  0  0  0
 36 59  1  0  0  0  0
 36 64  1  0  0  0  0
 36 75  2  0  0  0  0
 37 60  1  0  0  0  0
 37 70  1  0  0  0  0
 37 76  2  0  0  0  0
 38 65  1  0  0  0  0
 38 68  1  0  0  0  0
 38 77  2  0  0  0  0
 39 42  1  0  0  0  0
 40 49  1  0  0  0  0
 41 64  1  0  0  0  0
 42 44  1  0  0  0  0
 43 45  1  0  0  0  0
 43 46  1  0  0  0  0
 44 48  1  0  0  0  0
 45 50  1  0  0  0  0
 46 65  1  0  0  0  0
 47 50  1  0  0  0  0
 47 65  1  0  0  0  0
 48 69  1  0  0  0  0
 49 64  1  0  0  0  0
 50 63  1  0  0  0  0
 51 60  1  0  0  0  0
 52 61  1  0  0  0  0
 53 61  1  0  0  0  0
 54 61  1  0  0  0  0
 55 71  1  0  0  0  0
 56 72  1  0  0  0  0
 57 58  1  0  0  0  0
 57 71  1  0  0  0  0
 58 79  1  0  0  0  0
 59 61  1  0  0  0  0
 59 70  1  0  0  0  0
 60 72  1  0  0  0  0
 62 63  1  0  0  0  0
M  CHG  1  72   1
M  ISO  4  38 100  58 101  68 100  79 101
M  END
> <Batch ID>
0019

> <Smiles>
CNC(C)C(=O)NC(C(=O)N1Cc2cc([101O:1][101CH2:1]CN(C)c3ccc([100NH:0][100C:0](=O)N4CCCC(n5nc(-c6ccc(Oc7ccc(F)cc7F)cc6)c(C(N)=O)c5N)C4)c(F)c3)ccc2CC1C(=O)NC1CCCc2ccccc21)C(C)(C)C

> <Shape>
0.212

> <Color>
0.214

> <Negative vol penalty>
0.000

$$$$

  -OEChem-04042321053D

 89 98  0     1  0  0  0  0  0999 V2000
  -31.6583  -11.3941   22.2685 C   0  0  0  0  0  0  0  0  0  0  0  0
  -31.9384  -12.7490   22.4133 C   0  0  0  0  0  0  0  0  0  0  0  0
  -21.8660  -28.3035   20.8862 C   0  0  0  0  0  0  0  0  0  0  0  0
  -23.5058  -27.3485   22.3816 C   0  0  0  0  0  0  0  0  0  0  0  0
  -30.8004  -10.9650   21.2567 C   0  0  0  0  0  0  0  0  0  0  0  0
  -31.3615  -13.6757   21.5455 C   0  0  0  0  0  0  0  0  0  0  0  0
  -28.9203  -20.4086   21.3871 C   0  0  0  0  0  0  0  0  0  0  0  0
  -29.5164  -28.3444   22.5673 C   0  0  0  0  0  0  0  0  0  0  0  0
  -29.1999  -29.0475   23.7297 C   0  0  0  0  0  0  0  0  0  0  0  0
  -20.9461  -27.3287   21.2724 C   0  0  0  0  0  0  0  0  0  0  0  0
  -22.5859  -26.3737   22.7678 C   0  0  0  0  0  0  0  0  0  0  0  0
  -29.0621  -21.5888   20.6585 C   0  0  0  0  0  0  0  0  0  0  0  0
  -20.3310  -24.0757   20.5911 C   0  0  0  0  0  0  0  0  0  0  0  0
  -19.5941  -23.4472   19.5874 C   0  0  0  0  0  0  0  0  0  0  0  0
  -27.5329  -20.7397   18.9971 C   0  0  0  0  0  0  0  0  0  0  0  0
  -29.9652  -30.4278   21.4293 C   0  0  0  0  0  0  0  0  0  0  0  0
  -17.5463  -24.2442   20.5916 C   0  0  0  0  0  0  0  0  0  0  0  0
  -23.1459  -28.3134   21.4408 C   0  0  0  0  0  0  0  0  0  0  0  0
  -24.5910  -29.5557   19.7450 C   0  0  0  0  0  0  0  0  0  0  0  0
  -30.2051  -11.8877   20.3821 C   0  0  0  0  0  0  0  0  0  0  0  0
  -28.0909  -19.3789   20.9199 C   0  0  0  0  0  0  0  0  0  0  0  0
  -30.4958  -13.2584   20.5202 C   0  0  0  0  0  0  0  0  0  0  0  0
  -27.3804  -19.5484   19.7230 C   0  0  0  0  0  0  0  0  0  0  0  0
  -29.8991  -29.0346   21.4171 C   0  0  0  0  0  0  0  0  0  0  0  0
  -29.2660  -30.4407   23.7419 C   0  0  0  0  0  0  0  0  0  0  0  0
  -21.3060  -26.3638   22.2133 C   0  0  0  0  0  0  0  0  0  0  0  0
  -28.3706  -21.7533   19.4619 C   0  0  0  0  0  0  0  0  0  0  0  0
  -19.6755  -24.7885   21.5952 C   0  0  0  0  0  0  0  0  0  0  0  0
  -18.2018  -23.5314   19.5876 C   0  0  0  0  0  0  0  0  0  0  0  0
  -29.6487  -31.1309   22.5917 C   0  0  0  0  0  0  0  0  0  0  0  0
  -18.2832  -24.8727   21.5954 C   0  0  0  0  0  0  0  0  0  0  0  0
  -24.0968  -29.3197   21.0418 C   0  0  0  0  0  0  0  0  0  0  0  0
  -25.4588  -30.6098   19.8948 C   0  0  0  0  0  0  0  0  0  0  0  0
  -29.6142  -27.0673   19.9318 C   0  0  0  0  0  0  0  0  0  0  0  0
  -24.2924  -28.8824   18.5149 C   0  0  0  0  0  0  0  0  0  0  0  0
  -28.5442  -16.3587   20.0386 C   0  0  0  0  0  0  0  0  0  0  0  0
  -25.3062  -16.3374   19.8464 C   0  0  0  0  0  0  0  0  0  0  0  0
  -22.4156  -18.1081   19.4515 C   0  0  0  0  0  0  0  0  0  0  0  0
  -28.3882  -32.4612   24.9411 C   0  0  0  0  0  0  0  0  0  0  0  0
  -29.3216  -11.3719   19.2740 C   0  0  0  0  0  0  0  0  0  0  0  0
  -27.9280  -18.1228   21.7310 C   0  0  0  0  0  0  0  0  0  0  0  0
  -26.4616  -18.4815   19.1882 C   0  0  0  0  0  0  0  0  0  0  0  0
  -28.4566  -12.4531   18.6314 C   0  0  0  0  0  0  0  0  0  0  0  0
  -31.7557  -28.0991   18.2174 C   0  0  0  0  0  0  0  0  0  0  0  0
  -26.2939  -34.4447   22.6231 C   0  0  0  0  0  0  0  0  0  0  0  0
  -29.2905  -13.6940   18.3286 C   0  0  0  0  0  0  0  0  0  0  0  0
  -30.8083  -27.0432   17.6902 C   0  0  0  0  0  0  0  0  0  0  0  0
  -25.4747  -33.3737   21.9052 C   0  0  0  0  0  0  0  0  0  0  0  0
  -31.0267  -29.0070   19.1927 C   0  0  0  0  0  0  0  0  0  0  0  0
  -26.6856  -34.0087   24.0317 C   0  0  0  0  0  0  0  0  0  0  0  0
  -26.5879  -31.6275   23.3519 C   0  0  0  0  0  0  0  0  0  0  0  0
  -29.8700  -14.2964   19.6142 C   0  0  1  0  0  0  0  0  0  0  0  0
  -30.2999  -26.2137   18.8598 C   0  0  2  0  0  0  0  0  0  0  0  0
  -27.4562  -16.9327   20.9013 C   0  0  1  0  0  0  0  0  0  0  0  0
  -26.2153  -32.0263   21.9162 C   0  0  1  0  0  0  0  0  0  0  0  0
  -30.8942  -30.9778   26.4305 C   0  0  0  0  0  0  0  0  0  0  0  0
  -19.9285  -17.8107   19.2993 C   0  0  0  0  0  0  0  0  0  0  0  0
  -25.6072  -15.3003   16.9927 C   0  0  0  0  0  0  0  0  0  0  0  0
  -23.2161  -15.9226   16.5885 C   0  0  0  0  0  0  0  0  0  0  0  0
  -23.7833  -14.2105   18.3118 C   0  0  0  0  0  0  0  0  0  0  0  0
  -21.9525  -19.7779   21.8507 C   0  0  0  0  0  0  0  0  0  0  0  0
  -29.3749  -25.1056   18.3557 C   0  0  0  0  0  0  0  0  0  0  0  0
  -29.4325  -30.6406   26.2164 C   0  0  0  0  0  0  0  0  0  0  0  0
  -29.3763  -23.9011   19.2846 C   0  0  0  0  0  0  0  0  0  1  0  0
  -24.2973  -16.6439   18.7661 C   0  0  1  0  0  0  0  0  0  0  0  0
  -21.1070  -18.0848   20.2206 C   0  0  2  0  0  0  0  0  0  0  0  0
  -24.2447  -15.5388   17.6736 C   0  0  0  0  0  0  0  0  0  0  0  0
  -24.6082  -30.1564   21.9487 N   0  0  0  0  0  0  0  0  0  0  0  0
  -25.4329  -30.9284   21.2207 N   0  0  0  0  0  0  0  0  0  0  0  0
  -30.2268  -28.3054   20.2108 N   0  0  0  0  0  0  0  0  0  0  0  0
  -26.3406  -17.2689   20.0143 N   0  0  0  0  0  0  0  0  0  0  0  0
  -27.3356  -32.6972   24.0329 N   0  0  0  0  0  0  0  0  0  0  0  0
  -26.2340  -31.2858   19.0204 N   0  0  0  0  0  0  0  0  0  0  0  0
  -23.2304  -29.3580   17.7336 N   0  0  0  0  0  0  0  0  0  0  0  0
  -28.8542  -15.0429   20.3250 N   0  0  0  0  0  0  0  0  0  0  0  0
  -23.0272  -16.8723   19.4466 N   0  0  0  0  0  0  0  0  0  0  0  0
  -28.9376  -31.1650   24.9454 N   0  0  0  0  0  0  0  0  0  0  0  0
  -20.8804  -19.3933   20.8970 N   0  3  0  0  0  0  0  0  0  0  0  0
  -28.6322  -26.6205   20.5305 O   0  0  0  0  0  0  0  0  0  0  0  0
  -24.9374  -27.8784   18.1283 O   0  0  0  0  0  0  0  0  0  0  0  0
  -29.0631  -17.0574   19.1759 O   0  0  0  0  0  0  0  0  0  0  0  0
  -25.1771  -15.3130   20.5214 O   0  0  0  0  0  0  0  0  0  0  0  0
  -22.8498  -19.1203   18.9062 O   0  0  0  0  0  0  0  0  0  0  0  0
  -28.7755  -33.3288   25.7335 O   0  0  0  0  0  0  0  0  0  0  0  0
  -20.4086  -25.4126   22.5905 O   0  0  0  0  0  0  0  0  0  0  0  0
  -28.5076  -22.9040   18.7484 O   0  0  0  0  0  0  0  0  0  1  0  0
  -17.4944  -22.9290   18.6228 F   0  0  0  0  0  0  0  0  0  0  0  0
  -29.7143  -32.4701   22.5914 F   0  0  0  0  0  0  0  0  0  0  0  0
  -17.6480  -25.5570   22.5567 F   0  0  0  0  0  0  0  0  0  0  0  0
  1  2  1  0  0  0  0
  1  5  2  0  0  0  0
  2  6  2  0  0  0  0
  3 10  2  0  0  0  0
  3 18  1  0  0  0  0
  4 11  1  0  0  0  0
  4 18  2  0  0  0  0
  5 20  1  0  0  0  0
  6 22  1  0  0  0  0
  7 12  2  0  0  0  0
  7 21  1  0  0  0  0
  8  9  2  0  0  0  0
  8 24  1  0  0  0  0
  9 25  1  0  0  0  0
 10 26  1  0  0  0  0
 11 26  2  0  0  0  0
 12 27  1  0  0  0  0
 13 14  2  0  0  0  0
 13 28  1  0  0  0  0
 14 29  1  0  0  0  0
 15 23  1  0  0  0  0
 15 27  2  0  0  0  0
 16 24  2  0  0  0  0
 16 30  1  0  0  0  0
 17 29  2  0  0  0  0
 17 31  1  0  0  0  0
 18 32  1  0  0  0  0
 19 32  1  0  0  0  0
 19 33  2  0  0  0  0
 19 35  1  0  0  0  0
 20 22  2  0  0  0  0
 20 40  1  0  0  0  0
 21 23  2  0  0  0  0
 21 41  1  0  0  0  0
 22 52  1  0  0  0  0
 23 42  1  0  0  0  0
 24 70  1  0  0  0  0
 25 30  2  0  0  0  0
 25 77  1  0  0  0  0
 26 85  1  0  0  0  0
 27 86  1  0  0  0  0
 28 31  2  0  0  0  0
 28 85  1  0  0  0  0
 29 87  1  0  0  0  0
 30 88  1  0  0  0  0
 31 89  1  0  0  0  0
 32 68  2  0  0  0  0
 33 69  1  0  0  0  0
 33 73  1  0  0  0  0
 34 53  1  0  0  0  0
 34 70  1  0  0  0  0
 34 79  2  0  0  0  0
 35 74  1  0  0  0  0
 35 80  2  0  0  0  0
 36 54  1  0  0  0  0
 36 75  1  0  0  0  0
 36 81  2  0  0  0  0
 37 65  1  0  0  0  0
 37 71  1  0  0  0  0
 37 82  2  0  0  0  0
 38 66  1  0  0  0  0
 38 76  1  0  0  0  0
 38 83  2  0  0  0  0
 39 72  1  0  0  0  0
 39 77  1  0  0  0  0
 39 84  2  0  0  0  0
 40 43  1  0  0  0  0
 41 54  1  0  0  0  0
 42 71  1  0  0  0  0
 43 46  1  0  0  0  0
 44 47  1  0  0  0  0
 44 49  1  0  0  0  0
 45 48  1  0  0  0  0
 45 50  1  0  0  0  0
 46 52  1  0  0  0  0
 47 53  1  0  0  0  0
 48 55  1  0  0  0  0
 49 70  1  0  0  0  0
 50 72  1  0  0  0  0
 51 55  1  0  0  0  0
 51 72  1  0  0  0  0
 52 75  1  0  0  0  0
 53 62  1  0  0  0  0
 54 71  1  0  0  0  0
 55 69  1  0  0  0  0
 56 63  1  0  0  0  0
 57 66  1  0  0  0  0
 58 67  1  0  0  0  0
 59 67  1  0  0  0  0
 60 67  1  0  0  0  0
 61 78  1  0  0  0  0
 62 64  1  0  0  0  0
 63 77  1  0  0  0  0
 64 86  1  0  0  0  0
 65 67  1  0  0  0  0
 65 76  1  0  0  0  0
 66 78  1  0  0  0  0
 68 69  1  0  0  0  0
M  CHG  1  78   1
M  ISO  4  39 100  64 101  77 100  86 101
M  END
> <Batch ID>
0019

> <Smiles>
CC[100N:0](c1ccc(N2CCCC(C[101CH2:1][101O:1]c3ccc4c(c3)CN(C(=O)C(NC(=O)C(C)NC)C(C)(C)C)C(C(=O)NC3CCCc5ccccc53)C4)C2=O)cc1F)[100C:0](=O)N1CCCC(n2nc(-c3ccc(Oc4ccc(F)cc4F)cc3)c(C(N)=O)c2N)C1

> <Shape>
0.256

> <Color>
0.082

> <Negative vol penalty>
0.000

$$$$

  -OEChem-04042321053D

 84 92  0     1  0  0  0  0  0999 V2000
  -35.4350  -30.4230   19.4111 C   0  0  0  0  0  0  0  0  0  0  0  0
  -34.3001  -29.6425   19.6066 C   0  0  0  0  0  0  0  0  0  0  0  0
  -24.5731   -9.9706   21.9757 C   0  0  0  0  0  0  0  0  0  0  0  0
  -24.7005  -11.3113   23.9816 C   0  0  0  0  0  0  0  0  0  0  0  0
  -35.7102  -31.4802   20.2774 C   0  0  0  0  0  0  0  0  0  0  0  0
  -33.4403  -29.9181   20.6692 C   0  0  0  0  0  0  0  0  0  0  0  0
  -28.5652  -29.8031   19.3036 C   0  0  0  0  0  0  0  0  0  0  0  0
  -24.2229   -8.8585   22.7413 C   0  0  0  0  0  0  0  0  0  0  0  0
  -24.3503  -10.1992   24.7472 C   0  0  0  0  0  0  0  0  0  0  0  0
  -27.9737  -28.5488   19.1598 C   0  0  0  0  0  0  0  0  0  0  0  0
  -22.9431   -5.7531   24.1319 C   0  0  0  0  0  0  0  0  0  0  0  0
  -21.8913   -4.9579   23.6771 C   0  0  0  0  0  0  0  0  0  0  0  0
  -26.9739  -28.7766   21.3433 C   0  0  0  0  0  0  0  0  0  0  0  0
  -29.8442  -20.1989   21.2127 C   0  0  0  0  0  0  0  0  0  0  0  0
  -28.6646  -22.2398   21.7422 C   0  0  0  0  0  0  0  0  0  0  0  0
  -20.4012   -6.8554   23.8057 C   0  0  0  0  0  0  0  0  0  0  0  0
  -24.8120  -11.1971   22.5959 C   0  0  0  0  0  0  0  0  0  0  0  0
  -24.3036  -13.2907   21.2299 C   0  0  0  0  0  0  0  0  0  0  0  0
  -34.8482  -31.7750   21.3454 C   0  0  0  0  0  0  0  0  0  0  0  0
  -28.3741  -30.5501   20.4749 C   0  0  0  0  0  0  0  0  0  0  0  0
  -33.7050  -30.9794   21.5514 C   0  0  0  0  0  0  0  0  0  0  0  0
  -27.5620  -30.0411   21.4985 C   0  0  0  0  0  0  0  0  0  0  0  0
  -28.6270  -19.5443   21.0244 C   0  0  0  0  0  0  0  0  0  0  0  0
  -27.4474  -21.5852   21.5538 C   0  0  0  0  0  0  0  0  0  0  0  0
  -24.1115   -8.9728   24.1270 C   0  0  0  0  0  0  0  0  0  0  0  0
  -27.1803  -28.0341   20.1809 C   0  0  0  0  0  0  0  0  0  0  0  0
  -22.7241   -7.0995   24.4237 C   0  0  0  0  0  0  0  0  0  0  0  0
  -20.6204   -5.5090   23.5140 C   0  0  0  0  0  0  0  0  0  0  0  0
  -29.8630  -21.5467   21.5716 C   0  0  0  0  0  0  0  0  0  0  0  0
  -21.4531   -7.6506   24.2605 C   0  0  0  0  0  0  0  0  0  0  0  0
  -27.4286  -20.2374   21.1949 C   0  0  0  0  0  0  0  0  0  0  0  0
  -25.1743  -12.3461   21.8057 C   0  0  0  0  0  0  0  0  0  0  0  0
  -25.1340  -14.1757   20.5866 C   0  0  0  0  0  0  0  0  0  0  0  0
  -22.8723  -13.3618   21.2727 C   0  0  0  0  0  0  0  0  0  0  0  0
  -30.2814  -31.6673   22.7592 C   0  0  0  0  0  0  0  0  0  0  0  0
  -27.5616  -33.1065   23.7859 C   0  0  0  0  0  0  0  0  0  0  0  0
  -24.1498  -33.1385   23.8567 C   0  0  0  0  0  0  0  0  0  0  0  0
  -29.7112  -17.3433   20.4528 C   0  0  0  0  0  0  0  0  0  0  0  0
  -35.2124  -32.8984   22.2835 C   0  0  0  0  0  0  0  0  0  0  0  0
  -28.9973  -31.9129   20.6035 C   0  0  0  0  0  0  0  0  0  0  0  0
  -27.3090  -30.8121   22.7674 C   0  0  0  0  0  0  0  0  0  0  0  0
  -34.0524  -33.3579   23.1629 C   0  0  0  0  0  0  0  0  0  0  0  0
  -30.0885  -13.9110   19.5846 C   0  0  0  0  0  0  0  0  0  0  0  0
  -33.3343  -32.1568   23.7700 C   0  0  0  0  0  0  0  0  0  0  0  0
  -28.7721  -13.2756   20.0377 C   0  0  0  0  0  0  0  0  0  0  0  0
  -30.5498  -15.0059   20.5448 C   0  0  0  0  0  0  0  0  0  0  0  0
  -28.2339  -15.4082   21.2825 C   0  0  0  0  0  0  0  0  0  0  0  0
  -32.7350  -31.2625   22.6780 C   0  0  1  0  0  0  0  0  0  0  0  0
  -29.1534  -32.3643   22.0524 C   0  0  1  0  0  0  0  0  0  0  0  0
  -27.6957  -14.3441   20.3121 C   0  0  2  0  0  0  0  0  0  0  0  0
  -22.2111  -34.4160   24.8089 C   0  0  0  0  0  0  0  0  0  0  0  0
  -28.0693  -31.8383   26.5143 C   0  0  0  0  0  0  0  0  0  0  0  0
  -25.6908  -32.3412   27.1129 C   0  0  0  0  0  0  0  0  0  0  0  0
  -27.2662  -34.2053   26.5972 C   0  0  0  0  0  0  0  0  0  0  0  0
  -24.9656  -21.5990   21.5284 C   0  0  0  0  0  0  0  0  0  0  0  0
  -23.1191  -33.8082   21.1645 C   0  0  0  0  0  0  0  0  0  0  0  0
  -26.4350  -24.5724   20.8947 C   0  0  0  0  0  0  0  0  0  0  0  0
  -26.2300  -23.6755   22.1096 C   0  0  0  0  0  0  0  0  0  0  0  0
  -26.3839  -26.0570   21.2358 C   0  0  0  0  0  0  0  0  0  1  0  0
  -26.4386  -32.7270   24.7206 C   0  0  1  0  0  0  0  0  0  0  0  0
  -23.1478  -34.2545   23.6218 C   0  0  2  0  0  0  0  0  0  0  0  0
  -26.8724  -32.7623   26.2133 C   0  0  0  0  0  0  0  0  0  0  0  0
  -26.4593  -12.6066   21.5505 N   0  0  0  0  0  0  0  0  0  0  0  0
  -26.4021  -13.7248   20.8073 N   0  0  0  0  0  0  0  0  0  0  0  0
  -27.9455  -32.1372   22.8484 N   0  0  0  0  0  0  0  0  0  0  0  0
  -29.4803  -15.9843   20.7538 N   0  0  0  0  0  0  0  0  0  0  0  0
  -24.8958  -15.2878   19.8593 N   0  0  0  0  0  0  0  0  0  0  0  0
  -22.1749  -12.3715   21.9780 N   0  0  0  0  0  0  0  0  0  0  0  0
  -28.6113  -18.1749   20.6605 N   0  0  0  0  0  0  0  0  0  0  0  0
  -31.5146  -31.8443   22.1616 N   0  0  0  0  0  0  0  0  0  0  0  0
  -25.3245  -33.6129   24.4010 N   0  0  0  0  0  0  0  0  0  0  0  0
  -26.2442  -22.2846   21.7257 N   0  0  3  0  0  0  0  0  0  0  0  0
  -22.3273  -33.9676   22.4113 N   0  3  0  0  0  0  0  0  0  0  0  0
  -22.2298  -14.2672   20.6887 O   0  0  0  0  0  0  0  0  0  0  0  0
  -30.0501  -31.0182   23.7726 O   0  0  0  0  0  0  0  0  0  0  0  0
  -28.0745  -34.2245   23.8793 O   0  0  0  0  0  0  0  0  0  0  0  0
  -23.9126  -31.9629   23.5878 O   0  0  0  0  0  0  0  0  0  0  0  0
  -30.7959  -17.7358   20.0152 O   0  0  0  0  0  0  0  0  0  0  0  0
  -23.7695   -7.8878   24.8743 O   0  0  0  0  0  0  0  0  0  0  0  0
  -26.6023  -26.8098   20.0433 O   0  0  0  0  0  0  0  0  0  1  0  0
  -19.6107   -4.7456   23.0758 F   0  0  0  0  0  0  0  0  0  0  0  0
  -31.0320  -22.1756   21.7512 F   0  0  0  0  0  0  0  0  0  0  0  0
  -21.2368   -8.9436   24.5380 F   0  0  0  0  0  0  0  0  0  0  0  0
  -26.2572  -19.6080   21.0145 F   0  0  0  0  0  0  0  0  0  0  0  0
  1  2  1  0  0  0  0
  1  5  2  0  0  0  0
  2  6  2  0  0  0  0
  3  8  2  0  0  0  0
  3 17  1  0  0  0  0
  4  9  1  0  0  0  0
  4 17  2  0  0  0  0
  5 19  1  0  0  0  0
  6 21  1  0  0  0  0
  7 10  2  0  0  0  0
  7 20  1  0  0  0  0
  8 25  1  0  0  0  0
  9 25  2  0  0  0  0
 10 26  1  0  0  0  0
 11 12  2  0  0  0  0
 11 27  1  0  0  0  0
 12 28  1  0  0  0  0
 13 22  1  0  0  0  0
 13 26  2  0  0  0  0
 14 23  2  0  0  0  0
 14 29  1  0  0  0  0
 15 24  1  0  0  0  0
 15 29  2  0  0  0  0
 16 28  2  0  0  0  0
 16 30  1  0  0  0  0
 17 32  1  0  0  0  0
 18 32  1  0  0  0  0
 18 33  2  0  0  0  0
 18 34  1  0  0  0  0
 19 21  2  0  0  0  0
 19 39  1  0  0  0  0
 20 22  2  0  0  0  0
 20 40  1  0  0  0  0
 21 48  1  0  0  0  0
 22 41  1  0  0  0  0
 23 31  1  0  0  0  0
 23 69  1  0  0  0  0
 24 31  2  0  0  0  0
 24 72  1  0  0  0  0
 25 79  1  0  0  0  0
 26 80  1  0  0  0  0
 27 30  2  0  0  0  0
 27 79  1  0  0  0  0
 28 81  1  0  0  0  0
 29 82  1  0  0  0  0
 30 83  1  0  0  0  0
 31 84  1  0  0  0  0
 32 63  2  0  0  0  0
 33 64  1  0  0  0  0
 33 67  1  0  0  0  0
 34 68  1  0  0  0  0
 34 74  2  0  0  0  0
 35 49  1  0  0  0  0
 35 70  1  0  0  0  0
 35 75  2  0  0  0  0
 36 60  1  0  0  0  0
 36 65  1  0  0  0  0
 36 76  2  0  0  0  0
 37 61  1  0  0  0  0
 37 71  1  0  0  0  0
 37 77  2  0  0  0  0
 38 66  1  0  0  0  0
 38 69  1  0  0  0  0
 38 78  2  0  0  0  0
 39 42  1  0  0  0  0
 40 49  1  0  0  0  0
 41 65  1  0  0  0  0
 42 44  1  0  0  0  0
 43 45  1  0  0  0  0
 43 46  1  0  0  0  0
 44 48  1  0  0  0  0
 45 50  1  0  0  0  0
 46 66  1  0  0  0  0
 47 50  1  0  0  0  0
 47 66  1  0  0  0  0
 48 70  1  0  0  0  0
 49 65  1  0  0  0  0
 50 64  1  0  0  0  0
 51 61  1  0  0  0  0
 52 62  1  0  0  0  0
 53 62  1  0  0  0  0
 54 62  1  0  0  0  0
 55 72  1  0  0  0  0
 56 73  1  0  0  0  0
 57 58  1  0  0  0  0
 57 59  1  0  0  0  0
 58 72  1  0  0  0  0
 59 80  1  0  0  0  0
 60 62  1  0  0  0  0
 60 71  1  0  0  0  0
 61 73  1  0  0  0  0
 63 64  1  0  0  0  0
M  CHG  1  73   1
M  ISO  4  38 100  59 101  69 100  80 101
M  END
> <Batch ID>
0019

> <Smiles>
CNC(C)C(=O)NC(C(=O)N1Cc2cc([101O:1][101CH2:1]CCN(C)c3cc(F)cc([100NH:0][100C:0](=O)N4CCCC(n5nc(-c6ccc(Oc7ccc(F)cc7F)cc6)c(C(N)=O)c5N)C4)c3F)ccc2CC1C(=O)NC1CCCc2ccccc21)C(C)(C)C

> <Shape>
0.238

> <Color>
0.132

> <Negative vol penalty>
0.000

$$$$

  -OEChem-04042321053D

 86 94  0     1  0  0  0  0  0999 V2000
  -26.7476  -10.7223   17.0485 C   0  0  0  0  0  0  0  0  0  0  0  0
  -25.8460  -11.7548   17.2860 C   0  0  0  0  0  0  0  0  0  0  0  0
  -18.6815  -28.3668   22.6944 C   0  0  0  0  0  0  0  0  0  0  0  0
  -31.3440  -27.2687   20.5379 C   0  0  0  0  0  0  0  0  0  0  0  0
  -30.6293  -27.9608   18.3363 C   0  0  0  0  0  0  0  0  0  0  0  0
  -18.4897  -27.0859   23.2121 C   0  0  0  0  0  0  0  0  0  0  0  0
  -27.9364  -10.6557   17.7740 C   0  0  0  0  0  0  0  0  0  0  0  0
  -26.1322  -12.7208   18.2501 C   0  0  0  0  0  0  0  0  0  0  0  0
  -24.6575  -18.6618   18.0598 C   0  0  0  0  0  0  0  0  0  0  0  0
  -19.8198  -28.6510   21.9400 C   0  0  0  0  0  0  0  0  0  0  0  0
  -32.6439  -27.0972   20.0621 C   0  0  0  0  0  0  0  0  0  0  0  0
  -31.9292  -27.7893   17.8604 C   0  0  0  0  0  0  0  0  0  0  0  0
  -23.6157  -19.3885   18.6346 C   0  0  0  0  0  0  0  0  0  0  0  0
  -36.2267  -26.8235   19.5111 C   0  0  0  0  0  0  0  0  0  0  0  0
  -37.2727  -27.3219   20.2877 C   0  0  0  0  0  0  0  0  0  0  0  0
  -20.5747  -26.3733   22.2211 C   0  0  0  0  0  0  0  0  0  0  0  0
  -25.0582  -19.9921   20.4714 C   0  0  0  0  0  0  0  0  0  0  0  0
  -36.3514  -29.5475   20.1001 C   0  0  0  0  0  0  0  0  0  0  0  0
  -30.3367  -27.7005   19.6750 C   0  0  0  0  0  0  0  0  0  0  0  0
  -19.4363  -26.0891   22.9755 C   0  0  0  0  0  0  0  0  0  0  0  0
  -28.4362  -29.0478   20.7145 C   0  0  0  0  0  0  0  0  0  0  0  0
  -28.2417  -11.6268   18.7407 C   0  0  0  0  0  0  0  0  0  0  0  0
  -25.9063  -18.5857   18.6931 C   0  0  0  0  0  0  0  0  0  0  0  0
  -27.3255  -12.6664   18.9902 C   0  0  0  0  0  0  0  0  0  0  0  0
  -26.1150  -19.2659   19.9014 C   0  0  0  0  0  0  0  0  0  0  0  0
  -20.7665  -27.6542   21.7034 C   0  0  0  0  0  0  0  0  0  0  0  0
  -32.9365  -27.3575   18.7233 C   0  0  0  0  0  0  0  0  0  0  0  0
  -23.8151  -20.0514   19.8420 C   0  0  0  0  0  0  0  0  0  0  0  0
  -35.2431  -27.6870   19.0289 C   0  0  0  0  0  0  0  0  0  0  0  0
  -37.3350  -28.6839   20.5822 C   0  0  0  0  0  0  0  0  0  0  0  0
  -35.3054  -29.0490   19.3234 C   0  0  0  0  0  0  0  0  0  0  0  0
  -28.9936  -27.8773   20.1659 C   0  0  0  0  0  0  0  0  0  0  0  0
  -27.1439  -28.7004   21.0239 C   0  0  0  0  0  0  0  0  0  0  0  0
  -19.2315  -24.7248   23.5266 C   0  0  0  0  0  0  0  0  0  0  0  0
  -29.0332  -30.3342   20.9256 C   0  0  0  0  0  0  0  0  0  0  0  0
  -27.6715  -16.2318   19.8962 C   0  0  0  0  0  0  0  0  0  0  0  0
  -29.8612  -18.5942   20.2796 C   0  0  0  0  0  0  0  0  0  0  0  0
  -30.4934  -21.9293   20.6323 C   0  0  0  0  0  0  0  0  0  0  0  0
  -22.4102  -26.1505   19.1782 C   0  0  0  0  0  0  0  0  0  0  0  0
  -29.5173  -11.4865   19.5330 C   0  0  0  0  0  0  0  0  0  0  0  0
  -27.0279  -17.8196   18.0468 C   0  0  0  0  0  0  0  0  0  0  0  0
  -27.4429  -19.2323   20.6113 C   0  0  0  0  0  0  0  0  0  0  0  0
  -29.9177  -12.7599   20.2735 C   0  0  0  0  0  0  0  0  0  0  0  0
  -24.8650  -24.1962   21.1418 C   0  0  0  0  0  0  0  0  0  0  0  0
  -28.7157  -13.3554   20.9998 C   0  0  0  0  0  0  0  0  0  0  0  0
  -26.1277  -25.0503   21.0412 C   0  0  0  0  0  0  0  0  0  0  0  0
  -23.9575  -24.3805   19.9293 C   0  0  0  0  0  0  0  0  0  0  0  0
  -24.8592  -26.6525   19.5565 C   0  0  0  0  0  0  0  0  0  0  0  0
  -27.6117  -13.7470   20.0102 C   0  0  1  0  0  0  0  0  0  0  0  0
  -28.1041  -17.3863   19.0373 C   0  0  1  0  0  0  0  0  0  0  0  0
  -25.7732  -26.5254   20.7845 C   0  0  2  0  0  0  0  0  0  0  0  0
  -32.3779  -23.5527   20.9644 C   0  0  0  0  0  0  0  0  0  0  0  0
  -30.0465  -17.7753   23.2130 C   0  0  0  0  0  0  0  0  0  0  0  0
  -31.1688  -19.9638   23.6809 C   0  0  0  0  0  0  0  0  0  0  0  0
  -32.2396  -18.3190   22.1412 C   0  0  0  0  0  0  0  0  0  0  0  0
  -21.0109  -28.1066   18.6347 C   0  0  0  0  0  0  0  0  0  0  0  0
  -29.9032  -23.3143   18.0843 C   0  0  0  0  0  0  0  0  0  0  0  0
  -21.9838  -27.9580   20.8968 C   0  0  0  0  0  0  0  0  0  0  0  0
  -21.5300  -21.8025   23.8033 C   0  0  0  0  0  0  0  0  0  0  0  0
  -21.5734  -21.6601   22.2816 C   0  0  0  0  0  0  0  0  0  0  0  0
  -20.3469  -22.6399   24.2784 C   0  0  0  0  0  0  0  0  0  0  0  0
  -22.7849  -20.8546   21.8293 C   0  0  0  0  0  0  0  0  0  1  0  0
  -30.1881  -19.5816   21.3737 C   0  0  1  0  0  0  0  0  0  0  0  0
  -31.4958  -22.8422   19.9496 C   0  0  2  0  0  0  0  0  0  0  0  0
  -30.8850  -18.9091   22.5901 C   0  0  0  0  0  0  0  0  0  0  0  0
  -28.1264  -26.8621   20.1277 N   0  0  0  0  0  0  0  0  0  0  0  0
  -27.0111  -27.3937   20.6564 N   0  0  0  0  0  0  0  0  0  0  0  0
  -28.5064  -18.4647   19.9425 N   0  0  0  0  0  0  0  0  0  0  0  0
  -23.6718  -25.7942   19.6824 N   0  0  0  0  0  0  0  0  0  0  0  0
  -26.1196  -29.3882   21.5718 N   0  0  0  0  0  0  0  0  0  0  0  0
  -30.3709  -30.5196   20.5505 N   0  0  0  0  0  0  0  0  0  0  0  0
  -20.3821  -23.9835   23.7694 N   0  0  0  0  0  0  0  0  0  0  0  0
  -27.9427  -14.9917   19.3503 N   0  0  0  0  0  0  0  0  0  0  0  0
  -30.9712  -20.6410   20.7469 N   0  0  0  0  0  0  0  0  0  0  0  0
  -21.9064  -27.4075   19.5454 N   0  0  0  0  0  0  0  0  0  0  0  0
  -30.7888  -23.8730   19.1381 N   0  3  0  0  0  0  0  0  0  0  0  0
  -18.0875  -24.3200   23.7167 O   0  0  0  0  0  0  0  0  0  0  0  0
  -28.4042  -31.2861   21.4469 O   0  0  0  0  0  0  0  0  0  0  0  0
  -27.1329  -16.4500   20.9751 O   0  0  0  0  0  0  0  0  0  0  0  0
  -30.7750  -17.9662   19.7389 O   0  0  0  0  0  0  0  0  0  0  0  0
  -29.3976  -22.3208   21.0279 O   0  0  0  0  0  0  0  0  0  0  0  0
  -21.7664  -25.3846   18.4495 O   0  0  0  0  0  0  0  0  0  0  0  0
  -34.2049  -27.1905   18.2587 O   0  0  0  0  0  0  0  0  0  0  0  0
  -22.7998  -20.7610   20.4055 O   0  0  0  0  0  0  0  0  0  1  0  0
  -38.3386  -29.1622   21.3293 F   0  0  0  0  0  0  0  0  0  0  0  0
  -34.3628  -29.8833   18.8640 F   0  0  0  0  0  0  0  0  0  0  0  0
  1  2  1  0  0  0  0
  1  7  2  0  0  0  0
  2  8  2  0  0  0  0
  3  6  2  0  0  0  0
  3 10  1  0  0  0  0
  4 11  2  0  0  0  0
  4 19  1  0  0  0  0
  5 12  1  0  0  0  0
  5 19  2  0  0  0  0
  6 20  1  0  0  0  0
  7 22  1  0  0  0  0
  8 24  1  0  0  0  0
  9 13  2  0  0  0  0
  9 23  1  0  0  0  0
 10 26  2  0  0  0  0
 11 27  1  0  0  0  0
 12 27  2  0  0  0  0
 13 28  1  0  0  0  0
 14 15  2  0  0  0  0
 14 29  1  0  0  0  0
 15 30  1  0  0  0  0
 16 20  2  0  0  0  0
 16 26  1  0  0  0  0
 17 25  1  0  0  0  0
 17 28  2  0  0  0  0
 18 30  2  0  0  0  0
 18 31  1  0  0  0  0
 19 32  1  0  0  0  0
 20 34  1  0  0  0  0
 21 32  1  0  0  0  0
 21 33  2  0  0  0  0
 21 35  1  0  0  0  0
 22 24  2  0  0  0  0
 22 40  1  0  0  0  0
 23 25  2  0  0  0  0
 23 41  1  0  0  0  0
 24 49  1  0  0  0  0
 25 42  1  0  0  0  0
 26 58  1  0  0  0  0
 27 83  1  0  0  0  0
 28 84  1  0  0  0  0
 29 31  2  0  0  0  0
 29 83  1  0  0  0  0
 30 85  1  0  0  0  0
 31 86  1  0  0  0  0
 32 66  2  0  0  0  0
 33 67  1  0  0  0  0
 33 70  1  0  0  0  0
 34 72  1  0  0  0  0
 34 77  2  0  0  0  0
 35 71  1  0  0  0  0
 35 78  2  0  0  0  0
 36 50  1  0  0  0  0
 36 73  1  0  0  0  0
 36 79  2  0  0  0  0
 37 63  1  0  0  0  0
 37 68  1  0  0  0  0
 37 80  2  0  0  0  0
 38 64  1  0  0  0  0
 38 74  1  0  0  0  0
 38 81  2  0  0  0  0
 39 69  1  0  0  0  0
 39 75  1  0  0  0  0
 39 82  2  0  0  0  0
 40 43  1  0  0  0  0
 41 50  1  0  0  0  0
 42 68  1  0  0  0  0
 43 45  1  0  0  0  0
 44 46  1  0  0  0  0
 44 47  1  0  0  0  0
 45 49  1  0  0  0  0
 46 51  1  0  0  0  0
 47 69  1  0  0  0  0
 48 51  1  0  0  0  0
 48 69  1  0  0  0  0
 49 73  1  0  0  0  0
 50 68  1  0  0  0  0
 51 67  1  0  0  0  0
 52 64  1  0  0  0  0
 53 65  1  0  0  0  0
 54 65  1  0  0  0  0
 55 65  1  0  0  0  0
 56 75  1  0  0  0  0
 57 76  1  0  0  0  0
 58 75  1  0  0  0  0
 59 60  1  0  0  0  0
 59 61  1  0  0  0  0
 60 62  1  0  0  0  0
 61 72  1  0  0  0  0
 62 84  1  0  0  0  0
 63 65  1  0  0  0  0
 63 74  1  0  0  0  0
 64 76  1  0  0  0  0
 66 67  1  0  0  0  0
M  CHG  1  76   1
M  ISO  4  39 100  62 101  75 100  84 101
M  END
> <Batch ID>
0019

> <Smiles>
CNC(C)C(=O)NC(C(=O)N1Cc2cc([101O:1][101CH2:1]CCCNC(=O)c3cccc(C[100N:0](C)[100C:0](=O)N4CCCC(n5nc(-c6ccc(Oc7ccc(F)cc7F)cc6)c(C(N)=O)c5N)C4)c3)ccc2CC1C(=O)NC1CCCc2ccccc21)C(C)(C)C

> <Shape>
0.208

> <Color>
0.063

> <Negative vol penalty>
0.000

$$$$

  -OEChem-04042321053D

 86 94  0     1  0  0  0  0  0999 V2000
  -19.9551  -26.6918   19.0476 C   0  0  0  0  0  0  0  0  0  0  0  0
  -21.1535  -26.3744   19.6788 C   0  0  0  0  0  0  0  0  0  0  0  0
  -23.0299   -9.8812   19.9341 C   0  0  0  0  0  0  0  0  0  0  0  0
  -23.8546   -9.7872   22.2031 C   0  0  0  0  0  0  0  0  0  0  0  0
  -18.9489  -27.3489   19.7545 C   0  0  0  0  0  0  0  0  0  0  0  0
  -21.3469  -26.7149   21.0171 C   0  0  0  0  0  0  0  0  0  0  0  0
  -23.4029  -22.9462   23.7031 C   0  0  0  0  0  0  0  0  0  0  0  0
  -29.7679  -19.1389   22.5746 C   0  0  0  0  0  0  0  0  0  0  0  0
  -31.3469  -19.0170   20.7501 C   0  0  0  0  0  0  0  0  0  0  0  0
  -29.5906  -17.7568   22.5136 C   0  0  0  0  0  0  0  0  0  0  0  0
  -31.1697  -17.6348   20.6891 C   0  0  0  0  0  0  0  0  0  0  0  0
  -22.2861   -8.7223   20.1564 C   0  0  0  0  0  0  0  0  0  0  0  0
  -23.1107   -8.6283   22.4254 C   0  0  0  0  0  0  0  0  0  0  0  0
  -24.7749  -22.7405   23.5647 C   0  0  0  0  0  0  0  0  0  0  0  0
  -23.3647   -5.3314   21.7204 C   0  0  0  0  0  0  0  0  0  0  0  0
  -23.9938   -4.2735   22.3766 C   0  0  0  0  0  0  0  0  0  0  0  0
  -25.1549  -23.9255   25.6312 C   0  0  0  0  0  0  0  0  0  0  0  0
  -22.3427   -4.3835   24.1369 C   0  0  0  0  0  0  0  0  0  0  0  0
  -23.8142  -10.4136   20.9574 C   0  0  0  0  0  0  0  0  0  0  0  0
  -24.1684  -12.9398   20.9342 C   0  0  0  0  0  0  0  0  0  0  0  0
  -19.1263  -27.6890   21.1049 C   0  0  0  0  0  0  0  0  0  0  0  0
  -22.8966  -23.6538   24.8028 C   0  0  0  0  0  0  0  0  0  0  0  0
  -20.3426  -27.3783   21.7424 C   0  0  0  0  0  0  0  0  0  0  0  0
  -23.7759  -24.1367   25.7825 C   0  0  0  0  0  0  0  0  0  0  0  0
  -30.6460  -19.7691   21.6928 C   0  0  0  0  0  0  0  0  0  0  0  0
  -30.2916  -17.0047   21.5709 C   0  0  0  0  0  0  0  0  0  0  0  0
  -22.3265   -8.0959   21.4020 C   0  0  0  0  0  0  0  0  0  0  0  0
  -25.6513  -23.2327   24.5273 C   0  0  0  0  0  0  0  0  0  0  0  0
  -22.2246   -5.9155   22.2725 C   0  0  0  0  0  0  0  0  0  0  0  0
  -23.4828   -3.7995   23.5848 C   0  0  0  0  0  0  0  0  0  0  0  0
  -21.7136   -5.4415   23.4807 C   0  0  0  0  0  0  0  0  0  0  0  0
  -24.5831  -11.6104   20.7282 C   0  0  0  0  0  0  0  0  0  0  0  0
  -25.2545  -13.6984   20.5718 C   0  0  0  0  0  0  0  0  0  0  0  0
  -22.9136  -13.4439   21.4107 C   0  0  0  0  0  0  0  0  0  0  0  0
  -21.2551  -26.3505   25.1723 C   0  0  0  0  0  0  0  0  0  0  0  0
  -21.1782  -25.4205   28.2789 C   0  0  0  0  0  0  0  0  0  0  0  0
  -22.5927  -23.5972   30.7932 C   0  0  0  0  0  0  0  0  0  0  0  0
  -30.7300  -14.7076   20.6340 C   0  0  0  0  0  0  0  0  0  0  0  0
  -18.0282  -28.4409   21.8144 C   0  0  0  0  0  0  0  0  0  0  0  0
  -21.4120  -23.8440   24.9513 C   0  0  0  0  0  0  0  0  0  0  0  0
  -23.2814  -24.8851   26.9924 C   0  0  0  0  0  0  0  0  0  0  0  0
  -18.1681  -28.4326   23.3345 C   0  0  0  0  0  0  0  0  0  0  0  0
  -29.5336  -12.4019   18.1989 C   0  0  0  0  0  0  0  0  0  0  0  0
  -19.6019  -28.7586   23.7404 C   0  0  0  0  0  0  0  0  0  0  0  0
  -28.1049  -12.0998   18.6568 C   0  0  0  0  0  0  0  0  0  0  0  0
  -30.4839  -12.5750   19.3825 C   0  0  0  0  0  0  0  0  0  0  0  0
  -28.6215  -13.2501   20.8470 C   0  0  0  0  0  0  0  0  0  0  0  0
  -20.5805  -27.7090   23.1999 C   0  0  1  0  0  0  0  0  0  0  0  0
  -21.0474  -25.0240   25.8468 C   0  0  1  0  0  0  0  0  0  0  0  0
  -27.6146  -13.1318   19.6913 C   0  0  2  0  0  0  0  0  0  0  0  0
  -22.3271  -23.0662   33.2314 C   0  0  0  0  0  0  0  0  0  0  0  0
  -28.3127  -22.2741   17.5437 C   0  0  0  0  0  0  0  0  0  0  0  0
  -27.1755  -21.4961   19.6437 C   0  0  0  0  0  0  0  0  0  0  0  0
  -22.3156  -28.1592   28.9968 C   0  0  0  0  0  0  0  0  0  0  0  0
  -22.9088  -27.2448   31.2507 C   0  0  0  0  0  0  0  0  0  0  0  0
  -20.5214  -27.3393   30.5339 C   0  0  0  0  0  0  0  0  0  0  0  0
  -22.2193  -20.7133   30.2434 C   0  0  0  0  0  0  0  0  0  0  0  0
  -30.8365  -21.2558   21.7584 C   0  0  0  0  0  0  0  0  0  0  0  0
  -28.9433  -23.4450   23.0630 C   0  0  0  0  0  0  0  0  0  0  0  0
  -29.5989  -23.4155   21.6905 C   0  0  0  0  0  0  0  0  0  0  0  0
  -29.6784  -21.9623   19.6700 C   0  0  0  0  0  0  0  0  0  0  0  0
  -27.5052  -22.9413   23.0664 C   0  0  0  0  0  0  0  0  0  1  0  0
  -22.0649  -25.6357   29.4816 C   0  0  1  0  0  0  0  0  0  0  0  0
  -21.9889  -22.6452   31.8098 C   0  0  2  0  0  0  0  0  0  0  0  0
  -28.3178  -22.3374   19.0719 C   0  0  0  0  0  0  0  0  0  0  0  0
  -21.9625  -27.0824   30.0421 C   0  0  0  0  0  0  0  0  0  0  0  0
  -25.8350  -11.5258   20.2703 N   0  0  0  0  0  0  0  0  0  0  0  0
  -26.2162  -12.8117   20.1854 N   0  0  0  0  0  0  0  0  0  0  0  0
  -21.8217  -25.0510   27.0893 N   0  0  0  0  0  0  0  0  0  0  0  0
  -29.9565  -13.5706   20.3182 N   0  0  0  0  0  0  0  0  0  0  0  0
  -25.4712  -15.0306   20.5490 N   0  0  0  0  0  0  0  0  0  0  0  0
  -21.9059  -12.5265   21.7382 N   0  0  0  0  0  0  0  0  0  0  0  0
  -30.1120  -15.6005   21.5089 N   0  0  0  0  0  0  0  0  0  0  0  0
  -20.5303  -26.5084   24.0064 N   0  0  0  0  0  0  0  0  0  0  0  0
  -21.7098  -24.5963   30.4418 N   0  0  0  0  0  0  0  0  0  0  0  0
  -22.5028  -21.2630   31.5941 N   0  3  0  0  0  0  0  0  0  0  0  0
  -29.6754  -22.0272   21.1784 N   0  3  1  0  0  0  0  0  0  0  0  0
  -22.6869  -14.6722   21.5266 O   0  0  0  0  0  0  0  0  0  0  0  0
  -22.0154  -27.1706   25.6732 O   0  0  0  0  0  0  0  0  0  0  0  0
  -19.9587  -25.5676   28.3926 O   0  0  0  0  0  0  0  0  0  0  0  0
  -23.7348  -23.4697   30.3575 O   0  0  0  0  0  0  0  0  0  0  0  0
  -31.8464  -14.8902   20.1418 O   0  0  0  0  0  0  0  0  0  0  0  0
  -21.6007   -6.9652   21.6194 O   0  0  0  0  0  0  0  0  0  0  0  0
  -26.9910  -23.0339   24.3944 O   0  0  0  0  0  0  0  0  0  1  0  0
  -24.0862   -2.7826   24.2141 F   0  0  0  0  0  0  0  0  0  0  0  0
  -20.6179   -5.9977   24.0154 F   0  0  0  0  0  0  0  0  0  0  0  0
  1  2  1  0  0  0  0
  1  5  2  0  0  0  0
  2  6  2  0  0  0  0
  3 12  2  0  0  0  0
  3 19  1  0  0  0  0
  4 13  1  0  0  0  0
  4 19  2  0  0  0  0
  5 21  1  0  0  0  0
  6 23  1  0  0  0  0
  7 14  2  0  0  0  0
  7 22  1  0  0  0  0
  8 10  2  0  0  0  0
  8 25  1  0  0  0  0
  9 11  1  0  0  0  0
  9 25  2  0  0  0  0
 10 26  1  0  0  0  0
 11 26  2  0  0  0  0
 12 27  1  0  0  0  0
 13 27  2  0  0  0  0
 14 28  1  0  0  0  0
 15 16  2  0  0  0  0
 15 29  1  0  0  0  0
 16 30  1  0  0  0  0
 17 24  1  0  0  0  0
 17 28  2  0  0  0  0
 18 30  2  0  0  0  0
 18 31  1  0  0  0  0
 19 32  1  0  0  0  0
 20 32  1  0  0  0  0
 20 33  2  0  0  0  0
 20 34  1  0  0  0  0
 21 23  2  0  0  0  0
 21 39  1  0  0  0  0
 22 24  2  0  0  0  0
 22 40  1  0  0  0  0
 23 48  1  0  0  0  0
 24 41  1  0  0  0  0
 25 58  1  0  0  0  0
 26 73  1  0  0  0  0
 27 83  1  0  0  0  0
 28 84  1  0  0  0  0
 29 31  2  0  0  0  0
 29 83  1  0  0  0  0
 30 85  1  0  0  0  0
 31 86  1  0  0  0  0
 32 67  2  0  0  0  0
 33 68  1  0  0  0  0
 33 71  1  0  0  0  0
 34 72  1  0  0  0  0
 34 78  2  0  0  0  0
 35 49  1  0  0  0  0
 35 74  1  0  0  0  0
 35 79  2  0  0  0  0
 36 63  1  0  0  0  0
 36 69  1  0  0  0  0
 36 80  2  0  0  0  0
 37 64  1  0  0  0  0
 37 75  1  0  0  0  0
 37 81  2  0  0  0  0
 38 70  1  0  0  0  0
 38 73  1  0  0  0  0
 38 82  2  0  0  0  0
 39 42  1  0  0  0  0
 40 49  1  0  0  0  0
 41 69  1  0  0  0  0
 42 44  1  0  0  0  0
 43 45  1  0  0  0  0
 43 46  1  0  0  0  0
 44 48  1  0  0  0  0
 45 50  1  0  0  0  0
 46 70  1  0  0  0  0
 47 50  1  0  0  0  0
 47 70  1  0  0  0  0
 48 74  1  0  0  0  0
 49 69  1  0  0  0  0
 50 68  1  0  0  0  0
 51 64  1  0  0  0  0
 52 65  1  0  0  0  0
 53 65  1  0  0  0  0
 54 66  1  0  0  0  0
 55 66  1  0  0  0  0
 56 66  1  0  0  0  0
 57 76  1  0  0  0  0
 58 77  1  0  0  0  0
 59 60  1  0  0  0  0
 59 62  1  0  0  0  0
 60 77  1  0  0  0  0
 61 65  1  0  0  0  0
 61 77  1  0  0  0  0
 62 84  1  0  0  0  0
 63 66  1  0  0  0  0
 63 75  1  0  0  0  0
 64 76  1  0  0  0  0
 67 68  1  0  0  0  0
M  CHG  2  76   1  77   1
M  ISO  4  38 100  62 101  73 100  84 101
M  END
> <Batch ID>
0019

> <Smiles>
CNC(C)C(=O)NC(C(=O)N1Cc2cc([101O:1][101CH2:1]CCN(Cc3ccc([100NH:0][100C:0](=O)N4CCCC(n5nc(-c6ccc(Oc7ccc(F)cc7F)cc6)c(C(N)=O)c5N)C4)cc3)CC(C)C)ccc2CC1C(=O)NC1CCCc2ccccc21)C(C)(C)C

> <Shape>
0.262

> <Color>
0.209

> <Negative vol penalty>
0.000

$$$$

  -OEChem-04042321053D

 81 90  0     1  0  0  0  0  0999 V2000
  -16.5948  -29.4078   23.9508 C   0  0  0  0  0  0  0  0  0  0  0  0
  -17.3945  -28.2697   23.9245 C   0  0  0  0  0  0  0  0  0  0  0  0
  -23.1610   -9.7131   19.9265 C   0  0  0  0  0  0  0  0  0  0  0  0
  -24.4262   -9.4152   21.9631 C   0  0  0  0  0  0  0  0  0  0  0  0
  -17.0562  -30.5958   23.3856 C   0  0  0  0  0  0  0  0  0  0  0  0
  -18.6558  -28.3188   23.3320 C   0  0  0  0  0  0  0  0  0  0  0  0
  -26.6628  -19.1931   21.3585 C   0  0  0  0  0  0  0  0  0  0  0  0
  -23.6740  -25.2858   25.0995 C   0  0  0  0  0  0  0  0  0  0  0  0
  -25.9397  -20.2560   21.8988 C   0  0  0  0  0  0  0  0  0  0  0  0
  -22.5803   -8.4573   20.1035 C   0  0  0  0  0  0  0  0  0  0  0  0
  -23.8455   -8.1594   22.1401 C   0  0  0  0  0  0  0  0  0  0  0  0
  -24.2664  -24.1079   24.6463 C   0  0  0  0  0  0  0  0  0  0  0  0
  -20.9095   -6.9090   23.2523 C   0  0  0  0  0  0  0  0  0  0  0  0
  -20.4475   -6.5842   24.5277 C   0  0  0  0  0  0  0  0  0  0  0  0
  -27.1076  -19.9816   23.9916 C   0  0  0  0  0  0  0  0  0  0  0  0
  -25.7572  -25.3993   23.2573 C   0  0  0  0  0  0  0  0  0  0  0  0
  -21.9623   -4.7034   24.5975 C   0  0  0  0  0  0  0  0  0  0  0  0
  -24.0840  -10.1920   20.8562 C   0  0  0  0  0  0  0  0  0  0  0  0
  -24.0231  -12.7295   20.6008 C   0  0  0  0  0  0  0  0  0  0  0  0
  -18.3278  -30.6621   22.7945 C   0  0  0  0  0  0  0  0  0  0  0  0
  -27.6117  -18.5071   22.1319 C   0  0  0  0  0  0  0  0  0  0  0  0
  -24.1122  -26.5308   24.6260 C   0  0  0  0  0  0  0  0  0  0  0  0
  -19.1342  -29.5085   22.7572 C   0  0  0  0  0  0  0  0  0  0  0  0
  -27.8495  -18.9175   23.4567 C   0  0  0  0  0  0  0  0  0  0  0  0
  -25.1704  -26.5916   23.7081 C   0  0  0  0  0  0  0  0  0  0  0  0
  -26.1602  -20.6485   23.2156 C   0  0  0  0  0  0  0  0  0  0  0  0
  -22.9225   -7.6804   21.2103 C   0  0  0  0  0  0  0  0  0  0  0  0
  -25.3063  -24.1644   23.7229 C   0  0  0  0  0  0  0  0  0  0  0  0
  -21.8978   -6.1309   22.6494 C   0  0  0  0  0  0  0  0  0  0  0  0
  -20.9739   -5.4815   25.2003 C   0  0  0  0  0  0  0  0  0  0  0  0
  -22.4242   -5.0281   23.3220 C   0  0  0  0  0  0  0  0  0  0  0  0
  -24.6846  -11.4890   20.6737 C   0  0  0  0  0  0  0  0  0  0  0  0
  -25.0307  -13.6460   20.4239 C   0  0  0  0  0  0  0  0  0  0  0  0
  -22.6230  -13.0268   20.6854 C   0  0  0  0  0  0  0  0  0  0  0  0
  -30.0861  -15.5848   21.8285 C   0  0  0  0  0  0  0  0  0  0  0  0
  -22.7724  -28.9097   22.9983 C   0  0  0  0  0  0  0  0  0  0  0  0
  -25.5953  -30.3910   23.5978 C   0  0  0  0  0  0  0  0  0  0  0  0
  -28.9168  -30.1096   24.3290 C   0  0  0  0  0  0  0  0  0  0  0  0
  -18.7642  -31.9561   22.1545 C   0  0  0  0  0  0  0  0  0  0  0  0
  -28.3953  -17.3827   21.5002 C   0  0  0  0  0  0  0  0  0  0  0  0
  -23.4806  -27.7934   25.1450 C   0  0  0  0  0  0  0  0  0  0  0  0
  -28.8416  -18.2011   24.3386 C   0  0  0  0  0  0  0  0  0  0  0  0
  -25.6913  -27.9040   23.1841 C   0  0  0  0  0  0  0  0  0  0  0  0
  -20.2641  -32.0237   21.8787 C   0  0  0  0  0  0  0  0  0  0  0  0
  -29.8352  -17.3455   23.5550 C   0  0  0  0  0  0  0  0  0  0  0  0
  -29.9231  -13.0064   19.3455 C   0  0  0  0  0  0  0  0  0  0  0  0
  -20.7452  -30.7328   21.2237 C   0  0  0  0  0  0  0  0  0  0  0  0
  -28.5014  -12.4635   19.4845 C   0  0  0  0  0  0  0  0  0  0  0  0
  -30.4955  -13.4250   20.6962 C   0  0  0  0  0  0  0  0  0  0  0  0
  -28.2260  -13.8678   21.5767 C   0  0  0  0  0  0  0  0  0  0  0  0
  -20.5183  -29.5286   22.1457 C   0  0  1  0  0  0  0  0  0  0  0  0
  -29.1020  -16.4912   22.5241 C   0  0  2  0  0  0  0  0  0  0  0  0
  -23.6628  -28.9822   24.2064 C   0  0  1  0  0  0  0  0  0  0  0  0
  -27.5991  -13.4619   20.2311 C   0  0  2  0  0  0  0  0  0  0  0  0
  -30.9718  -31.4954   24.7212 C   0  0  0  0  0  0  0  0  0  0  0  0
  -25.8232  -30.8979   20.5976 C   0  0  0  0  0  0  0  0  0  0  0  0
  -28.2517  -31.4025   20.9379 C   0  0  0  0  0  0  0  0  0  0  0  0
  -26.5189  -32.8215   22.0363 C   0  0  0  0  0  0  0  0  0  0  0  0
  -29.2305  -29.0741   27.0837 C   0  0  0  0  0  0  0  0  0  0  0  0
  -25.3788  -21.7885   23.8000 C   0  0  0  0  0  0  0  0  0  1  0  0
  -26.9276  -30.4783   22.8933 C   0  0  1  0  0  0  0  0  0  0  0  0
  -29.7820  -30.8021   25.3665 C   0  0  2  0  0  0  0  0  0  0  0  0
  -26.8694  -31.3751   21.6245 C   0  0  0  0  0  0  0  0  0  0  0  0
  -26.0099  -11.6034   20.5528 N   0  0  0  0  0  0  0  0  0  0  0  0
  -26.1892  -12.9267   20.4021 N   0  0  0  0  0  0  0  0  0  0  0  0
  -29.5986  -14.3558   21.3836 N   0  0  0  0  0  0  0  0  0  0  0  0
  -25.0369  -29.1104   23.7169 N   0  0  0  0  0  0  0  0  0  0  0  0
  -25.0297  -14.9890   20.2863 N   0  0  0  0  0  0  0  0  0  0  0  0
  -22.0711  -13.2907   21.9464 N   0  0  0  0  0  0  0  0  0  0  0  0
  -21.5297  -29.4863   23.1799 N   0  0  0  0  0  0  0  0  0  0  0  0
  -27.8908  -30.9221   23.8951 N   0  0  0  0  0  0  0  0  0  0  0  0
  -30.2946  -29.8134   26.3569 N   0  3  0  0  0  0  0  0  0  0  0  0
  -21.8801  -13.0413   19.6749 O   0  0  0  0  0  0  0  0  0  0  0  0
  -31.2522  -15.9608   21.6832 O   0  0  0  0  0  0  0  0  0  0  0  0
  -23.1828  -28.3719   21.9766 O   0  0  0  0  0  0  0  0  0  0  0  0
  -25.0727  -31.4202   24.0328 O   0  0  0  0  0  0  0  0  0  0  0  0
  -29.1321  -28.9640   23.9395 O   0  0  0  0  0  0  0  0  0  0  0  0
  -22.3559   -6.4551   21.3834 O   0  0  0  0  0  0  0  0  0  0  0  0
  -25.8859  -23.0162   23.2783 O   0  0  0  0  0  0  0  0  0  1  0  0
  -20.5314   -5.1706   26.4258 F   0  0  0  0  0  0  0  0  0  0  0  0
  -23.3747   -4.2775   22.7484 F   0  0  0  0  0  0  0  0  0  0  0  0
  1  2  1  0  0  0  0
  1  5  2  0  0  0  0
  2  6  2  0  0  0  0
  3 10  2  0  0  0  0
  3 18  1  0  0  0  0
  4 11  1  0  0  0  0
  4 18  2  0  0  0  0
  5 20  1  0  0  0  0
  6 23  1  0  0  0  0
  7  9  2  0  0  0  0
  7 21  1  0  0  0  0
  8 12  2  0  0  0  0
  8 22  1  0  0  0  0
  9 26  1  0  0  0  0
 10 27  1  0  0  0  0
 11 27  2  0  0  0  0
 12 28  1  0  0  0  0
 13 14  2  0  0  0  0
 13 29  1  0  0  0  0
 14 30  1  0  0  0  0
 15 24  1  0  0  0  0
 15 26  2  0  0  0  0
 16 25  1  0  0  0  0
 16 28  2  0  0  0  0
 17 30  2  0  0  0  0
 17 31  1  0  0  0  0
 18 32  1  0  0  0  0
 19 32  1  0  0  0  0
 19 33  2  0  0  0  0
 19 34  1  0  0  0  0
 20 23  2  0  0  0  0
 20 39  1  0  0  0  0
 21 24  2  0  0  0  0
 21 40  1  0  0  0  0
 22 25  2  0  0  0  0
 22 41  1  0  0  0  0
 23 51  1  0  0  0  0
 24 42  1  0  0  0  0
 25 43  1  0  0  0  0
 26 60  1  0  0  0  0
 27 78  1  0  0  0  0
 28 79  1  0  0  0  0
 29 31  2  0  0  0  0
 29 78  1  0  0  0  0
 30 80  1  0  0  0  0
 31 81  1  0  0  0  0
 32 64  2  0  0  0  0
 33 65  1  0  0  0  0
 33 68  1  0  0  0  0
 34 69  1  0  0  0  0
 34 73  2  0  0  0  0
 35 52  1  0  0  0  0
 35 66  1  0  0  0  0
 35 74  2  0  0  0  0
 36 53  1  0  0  0  0
 36 70  1  0  0  0  0
 36 75  2  0  0  0  0
 37 61  1  0  0  0  0
 37 67  1  0  0  0  0
 37 76  2  0  0  0  0
 38 62  1  0  0  0  0
 38 71  1  0  0  0  0
 38 77  2  0  0  0  0
 39 44  1  0  0  0  0
 40 52  1  0  0  0  0
 41 53  1  0  0  0  0
 42 45  1  0  0  0  0
 43 67  1  0  0  0  0
 44 47  1  0  0  0  0
 45 52  1  0  0  0  0
 46 48  1  0  0  0  0
 46 49  1  0  0  0  0
 47 51  1  0  0  0  0
 48 54  1  0  0  0  0
 49 66  1  0  0  0  0
 50 54  1  0  0  0  0
 50 66  1  0  0  0  0
 51 70  1  0  0  0  0
 53 67  1  0  0  0  0
 54 65  1  0  0  0  0
 55 62  1  0  0  0  0
 56 63  1  0  0  0  0
 57 63  1  0  0  0  0
 58 63  1  0  0  0  0
 59 72  1  0  0  0  0
 60 79  1  0  0  0  0
 61 63  1  0  0  0  0
 61 71  1  0  0  0  0
 62 72  1  0  0  0  0
 64 65  1  0  0  0  0
M  CHG  1  72   1
M  ISO  4  35 100  52 100  60 101  79 101
M  END
> <Batch ID>
0019

> <Smiles>
CNC(C)C(=O)NC(C(=O)N1Cc2cc([101O:1][101CH2:1]c3ccc4c(c3)CC[100CH:0]([100C:0](=O)N3CCCC(n5nc(-c6ccc(Oc7ccc(F)cc7F)cc6)c(C(N)=O)c5N)C3)C4)ccc2CC1C(=O)NC1CCCc2ccccc21)C(C)(C)C

> <Shape>
0.287

> <Color>
0.182

> <Negative vol penalty>
0.000

$$$$

  -OEChem-04042321053D

 84 93  0     1  0  0  0  0  0999 V2000
  -33.2713  -33.7031   22.8797 C   0  0  0  0  0  0  0  0  0  0  0  0
  -33.1762  -32.3985   22.4059 C   0  0  0  0  0  0  0  0  0  0  0  0
  -23.0672   -9.8366   19.9454 C   0  0  0  0  0  0  0  0  0  0  0  0
  -23.8222   -9.8505   22.2404 C   0  0  0  0  0  0  0  0  0  0  0  0
  -32.1635  -34.3127   23.4670 C   0  0  0  0  0  0  0  0  0  0  0  0
  -31.9734  -31.7023   22.5202 C   0  0  0  0  0  0  0  0  0  0  0  0
  -29.6942  -27.6172   18.5677 C   0  0  0  0  0  0  0  0  0  0  0  0
  -22.3188   -8.6871   20.1986 C   0  0  0  0  0  0  0  0  0  0  0  0
  -23.0738   -8.7009   22.4935 C   0  0  0  0  0  0  0  0  0  0  0  0
  -29.7029  -26.2232   18.5501 C   0  0  0  0  0  0  0  0  0  0  0  0
  -19.8417   -7.9167   23.0925 C   0  0  0  0  0  0  0  0  0  0  0  0
  -19.0822   -7.8842   24.2619 C   0  0  0  0  0  0  0  0  0  0  0  0
  -27.5100  -26.2028   19.5551 C   0  0  0  0  0  0  0  0  0  0  0  0
  -30.2610  -19.1728   22.6239 C   0  0  0  0  0  0  0  0  0  0  0  0
  -30.7946  -19.0786   20.2695 C   0  0  0  0  0  0  0  0  0  0  0  0
  -20.3153   -5.9455   25.0090 C   0  0  0  0  0  0  0  0  0  0  0  0
  -23.8190  -10.4183   20.9663 C   0  0  0  0  0  0  0  0  0  0  0  0
  -24.1697  -12.9417   20.8366 C   0  0  0  0  0  0  0  0  0  0  0  0
  -30.9437  -33.6270   23.5798 C   0  0  0  0  0  0  0  0  0  0  0  0
  -28.5960  -28.3156   19.0900 C   0  0  0  0  0  0  0  0  0  0  0  0
  -30.8486  -32.3029   23.1108 C   0  0  0  0  0  0  0  0  0  0  0  0
  -27.4887  -27.6057   19.5758 C   0  0  0  0  0  0  0  0  0  0  0  0
  -30.6157  -19.8175   21.4390 C   0  0  0  0  0  0  0  0  0  0  0  0
  -30.0852  -17.7891   22.6395 C   0  0  0  0  0  0  0  0  0  0  0  0
  -30.2640  -17.0502   21.4700 C   0  0  0  0  0  0  0  0  0  0  0  0
  -22.3221   -8.1192   21.4726 C   0  0  0  0  0  0  0  0  0  0  0  0
  -28.6119  -25.5157   19.0465 C   0  0  0  0  0  0  0  0  0  0  0  0
  -20.8380   -6.9635   22.8812 C   0  0  0  0  0  0  0  0  0  0  0  0
  -19.3190   -6.8986   25.2202 C   0  0  0  0  0  0  0  0  0  0  0  0
  -30.6187  -17.6950   20.2850 C   0  0  0  0  0  0  0  0  0  0  0  0
  -21.0749   -5.9780   23.8395 C   0  0  0  0  0  0  0  0  0  0  0  0
  -24.5927  -11.6055   20.7053 C   0  0  0  0  0  0  0  0  0  0  0  0
  -25.2652  -13.6860   20.4726 C   0  0  0  0  0  0  0  0  0  0  0  0
  -22.9001  -13.4636   21.2507 C   0  0  0  0  0  0  0  0  0  0  0  0
  -28.1647  -30.3326   21.5085 C   0  0  0  0  0  0  0  0  0  0  0  0
  -25.1797  -30.5764   20.2625 C   0  0  0  0  0  0  0  0  0  0  0  0
  -22.7016  -29.1730   18.3819 C   0  0  0  0  0  0  0  0  0  0  0  0
  -30.7346  -14.7135   20.6546 C   0  0  0  0  0  0  0  0  0  0  0  0
  -29.7872  -34.3110   24.2649 C   0  0  0  0  0  0  0  0  0  0  0  0
  -28.5908  -29.8197   19.0772 C   0  0  0  0  0  0  0  0  0  0  0  0
  -26.2766  -28.3084   20.1286 C   0  0  0  0  0  0  0  0  0  0  0  0
  -28.4422  -33.6358   24.0092 C   0  0  0  0  0  0  0  0  0  0  0  0
  -29.6169  -12.2938   18.2939 C   0  0  0  0  0  0  0  0  0  0  0  0
  -28.5591  -32.1261   24.1936 C   0  0  0  0  0  0  0  0  0  0  0  0
  -28.1753  -12.0089   18.7217 C   0  0  0  0  0  0  0  0  0  0  0  0
  -30.5302  -12.5244   19.4966 C   0  0  0  0  0  0  0  0  0  0  0  0
  -28.6229  -13.2611   20.8708 C   0  0  0  0  0  0  0  0  0  0  0  0
  -29.7295  -23.4918   21.2043 C   0  0  0  0  0  0  0  0  0  0  0  0
  -28.7755  -21.9249   20.2057 C   0  0  0  0  0  0  0  0  0  0  0  0
  -29.5540  -31.5237   23.1943 C   0  0  1  0  0  0  0  0  0  0  0  0
  -27.6375  -30.4226   20.1044 C   0  0  1  0  0  0  0  0  0  0  0  0
  -27.6519  -13.0863   19.6916 C   0  0  2  0  0  0  0  0  0  0  0  0
  -28.5066  -23.4385   20.2714 C   0  0  0  0  0  0  0  0  0  1  0  0
  -29.7060  -17.1248   23.9232 C   0  0  0  0  0  0  0  0  0  0  0  0
  -20.3631  -29.5937   17.5746 C   0  0  0  0  0  0  0  0  0  0  0  0
  -24.1023  -29.8908   23.0336 C   0  0  0  0  0  0  0  0  0  0  0  0
  -21.8888  -29.3952   21.9740 C   0  0  0  0  0  0  0  0  0  0  0  0
  -22.8454  -31.6953   21.8428 C   0  0  0  0  0  0  0  0  0  0  0  0
  -23.5438  -29.1014   15.5456 C   0  0  0  0  0  0  0  0  0  0  0  0
  -30.8067  -21.3056   21.4220 C   0  0  0  0  0  0  0  0  0  0  0  0
  -23.8747  -29.8442   20.4622 C   0  0  1  0  0  0  0  0  0  0  0  0
  -21.8447  -29.7365   17.2627 C   0  0  2  0  0  0  0  0  0  0  0  0
  -23.2013  -30.1928   21.8196 C   0  0  0  0  0  0  0  0  0  0  0  0
  -25.8581  -11.5036   20.2901 N   0  0  0  0  0  0  0  0  0  0  0  0
  -26.2397  -12.7853   20.1573 N   0  0  0  0  0  0  0  0  0  0  0  0
  -26.3218  -29.7797   20.1002 N   0  0  0  0  0  0  0  0  0  0  0  0
  -29.9729  -13.5608   20.3685 N   0  0  0  0  0  0  0  0  0  0  0  0
  -25.4803  -15.0164   20.3945 N   0  0  0  0  0  0  0  0  0  0  0  0
  -21.8844  -12.5593   21.5896 N   0  0  0  0  0  0  0  0  0  0  0  0
  -30.0887  -15.6442   21.4678 N   0  0  0  0  0  0  0  0  0  0  0  0
  -28.9477  -31.4070   21.8854 N   0  0  0  0  0  0  0  0  0  0  0  0
  -23.0547  -30.1452   19.2937 N   0  0  0  0  0  0  0  0  0  0  0  0
  -29.5315  -22.0541   21.4653 N   0  3  0  0  0  0  0  0  0  0  0  0
  -22.1268  -29.0232   15.9850 N   0  3  0  0  0  0  0  0  0  0  0  0
  -22.6680  -14.6953   21.3025 O   0  0  0  0  0  0  0  0  0  0  0  0
  -27.8808  -29.3611   22.1994 O   0  0  0  0  0  0  0  0  0  0  0  0
  -25.1843  -31.8098   20.2438 O   0  0  0  0  0  0  0  0  0  0  0  0
  -23.0224  -27.9882   18.4433 O   0  0  0  0  0  0  0  0  0  0  0  0
  -31.8652  -14.8764   20.1887 O   0  0  0  0  0  0  0  0  0  0  0  0
  -21.5918   -6.9976   21.7200 O   0  0  0  0  0  0  0  0  0  0  0  0
  -28.6181  -24.1550   19.0312 O   0  0  0  0  0  0  0  0  0  1  0  0
  -18.5905   -6.8685   26.3439 F   0  0  0  0  0  0  0  0  0  0  0  0
  -30.7945  -16.9956   19.1546 F   0  0  0  0  0  0  0  0  0  0  0  0
  -22.0315   -5.0604   23.6427 F   0  0  0  0  0  0  0  0  0  0  0  0
  1  2  1  0  0  0  0
  1  5  2  0  0  0  0
  2  6  2  0  0  0  0
  3  8  2  0  0  0  0
  3 17  1  0  0  0  0
  4  9  1  0  0  0  0
  4 17  2  0  0  0  0
  5 19  1  0  0  0  0
  6 21  1  0  0  0  0
  7 10  2  0  0  0  0
  7 20  1  0  0  0  0
  8 26  1  0  0  0  0
  9 26  2  0  0  0  0
 10 27  1  0  0  0  0
 11 12  2  0  0  0  0
 11 28  1  0  0  0  0
 12 29  1  0  0  0  0
 13 22  1  0  0  0  0
 13 27  2  0  0  0  0
 14 23  1  0  0  0  0
 14 24  2  0  0  0  0
 15 23  2  0  0  0  0
 15 30  1  0  0  0  0
 16 29  2  0  0  0  0
 16 31  1  0  0  0  0
 17 32  1  0  0  0  0
 18 32  1  0  0  0  0
 18 33  2  0  0  0  0
 18 34  1  0  0  0  0
 19 21  2  0  0  0  0
 19 39  1  0  0  0  0
 20 22  2  0  0  0  0
 20 40  1  0  0  0  0
 21 50  1  0  0  0  0
 22 41  1  0  0  0  0
 23 60  1  0  0  0  0
 24 25  1  0  0  0  0
 24 54  1  0  0  0  0
 25 30  2  0  0  0  0
 25 70  1  0  0  0  0
 26 80  1  0  0  0  0
 27 81  1  0  0  0  0
 28 31  2  0  0  0  0
 28 80  1  0  0  0  0
 29 82  1  0  0  0  0
 30 83  1  0  0  0  0
 31 84  1  0  0  0  0
 32 64  2  0  0  0  0
 33 65  1  0  0  0  0
 33 68  1  0  0  0  0
 34 69  1  0  0  0  0
 34 75  2  0  0  0  0
 35 51  1  0  0  0  0
 35 71  1  0  0  0  0
 35 76  2  0  0  0  0
 36 61  1  0  0  0  0
 36 66  1  0  0  0  0
 36 77  2  0  0  0  0
 37 62  1  0  0  0  0
 37 72  1  0  0  0  0
 37 78  2  0  0  0  0
 38 67  1  0  0  0  0
 38 70  1  0  0  0  0
 38 79  2  0  0  0  0
 39 42  1  0  0  0  0
 40 51  1  0  0  0  0
 41 66  1  0  0  0  0
 42 44  1  0  0  0  0
 43 45  1  0  0  0  0
 43 46  1  0  0  0  0
 44 50  1  0  0  0  0
 45 52  1  0  0  0  0
 46 67  1  0  0  0  0
 47 52  1  0  0  0  0
 47 67  1  0  0  0  0
 48 53  1  0  0  0  0
 48 73  1  0  0  0  0
 49 53  1  0  0  0  0
 49 73  1  0  0  0  0
 50 71  1  0  0  0  0
 51 66  1  0  0  0  0
 52 65  1  0  0  0  0
 53 81  1  0  0  0  0
 55 62  1  0  0  0  0
 56 63  1  0  0  0  0
 57 63  1  0  0  0  0
 58 63  1  0  0  0  0
 59 74  1  0  0  0  0
 60 73  1  0  0  0  0
 61 63  1  0  0  0  0
 61 72  1  0  0  0  0
 62 74  1  0  0  0  0
 64 65  1  0  0  0  0
M  CHG  2  73   1  74   1
M  ISO  4  38 100  53 101  70 100  81 101
M  END
> <Batch ID>
0019

> <Smiles>
CNC(C)C(=O)NC(C(=O)N1Cc2cc([101O:1][101CH:1]3CN(Cc4cc(C)c([100NH:0][100C:0](=O)N5CCCC(n6nc(-c7ccc(Oc8ccc(F)cc8F)cc7)c(C(N)=O)c6N)C5)c(F)c4)C3)ccc2CC1C(=O)NC1CCCc2ccccc21)C(C)(C)C

> <Shape>
0.334

> <Color>
0.194

> <Negative vol penalty>
0.000

$$$$

  -OEChem-04042321053D

 86 94  0     1  0  0  0  0  0999 V2000
  -28.5876  -18.9909   20.1675 C   0  0  0  0  0  0  0  0  0  0  0  0
  -28.1258  -20.1893   20.7024 C   0  0  0  0  0  0  0  0  0  0  0  0
  -25.7227  -15.3903   20.1753 C   0  0  0  0  0  0  0  0  0  0  0  0
  -26.5753  -16.1813   22.2930 C   0  0  0  0  0  0  0  0  0  0  0  0
  -29.7773  -18.9657   19.4411 C   0  0  0  0  0  0  0  0  0  0  0  0
  -28.8541  -21.3631   20.5119 C   0  0  0  0  0  0  0  0  0  0  0  0
  -25.9201  -25.2810   19.2133 C   0  0  0  0  0  0  0  0  0  0  0  0
  -19.9246  -27.7320   24.0934 C   0  0  0  0  0  0  0  0  0  0  0  0
  -19.8327  -26.5229   24.7828 C   0  0  0  0  0  0  0  0  0  0  0  0
  -26.9359  -14.7487   19.9265 C   0  0  0  0  0  0  0  0  0  0  0  0
  -27.7885  -15.5396   22.0442 C   0  0  0  0  0  0  0  0  0  0  0  0
  -25.1994  -25.9021   20.2324 C   0  0  0  0  0  0  0  0  0  0  0  0
  -28.4875  -11.8989   20.8773 C   0  0  0  0  0  0  0  0  0  0  0  0
  -28.4420  -10.5933   20.3887 C   0  0  0  0  0  0  0  0  0  0  0  0
  -26.8571  -27.6520   20.3299 C   0  0  0  0  0  0  0  0  0  0  0  0
  -19.9401  -26.5345   21.9951 C   0  0  0  0  0  0  0  0  0  0  0  0
  -29.6370  -11.2926   18.4088 C   0  0  0  0  0  0  0  0  0  0  0  0
  -25.5423  -16.1067   21.3586 C   0  0  0  0  0  0  0  0  0  0  0  0
  -23.0167  -16.1763   21.7104 C   0  0  0  0  0  0  0  0  0  0  0  0
  -30.5156  -20.1414   19.2334 C   0  0  0  0  0  0  0  0  0  0  0  0
  -27.1223  -25.8359   18.7515 C   0  0  0  0  0  0  0  0  0  0  0  0
  -30.0555  -21.3533   19.7831 C   0  0  0  0  0  0  0  0  0  0  0  0
  -27.5898  -27.0373   19.3030 C   0  0  0  0  0  0  0  0  0  0  0  0
  -19.9782  -27.7378   22.6996 C   0  0  0  0  0  0  0  0  0  0  0  0
  -19.7946  -25.3196   24.0784 C   0  0  0  0  0  0  0  0  0  0  0  0
  -27.9688  -14.8233   20.8609 C   0  0  0  0  0  0  0  0  0  0  0  0
  -25.6694  -27.0862   20.7929 C   0  0  0  0  0  0  0  0  0  0  0  0
  -29.1077  -12.9015   20.1317 C   0  0  0  0  0  0  0  0  0  0  0  0
  -29.0168  -10.2901   19.1545 C   0  0  0  0  0  0  0  0  0  0  0  0
  -19.8483  -25.3254   22.6845 C   0  0  0  0  0  0  0  0  0  0  0  0
  -29.6825  -12.5983   18.8975 C   0  0  0  0  0  0  0  0  0  0  0  0
  -24.2895  -16.7702   21.6159 C   0  0  0  0  0  0  0  0  0  0  0  0
  -22.1665  -17.2248   21.9640 C   0  0  0  0  0  0  0  0  0  0  0  0
  -22.6368  -14.7999   21.5806 C   0  0  0  0  0  0  0  0  0  0  0  0
  -30.1517  -24.8766   18.6739 C   0  0  0  0  0  0  0  0  0  0  0  0
  -30.5641  -27.6034   16.9661 C   0  0  0  0  0  0  0  0  0  0  0  0
  -29.4545  -30.7388   16.2015 C   0  0  0  0  0  0  0  0  0  0  0  0
  -21.0237  -22.0056   24.3425 C   0  0  0  0  0  0  0  0  0  0  0  0
  -31.8203  -20.0561   18.4815 C   0  0  0  0  0  0  0  0  0  0  0  0
  -27.8741  -25.1678   17.6331 C   0  0  0  0  0  0  0  0  0  0  0  0
  -28.8643  -27.6846   18.8288 C   0  0  0  0  0  0  0  0  0  0  0  0
  -32.3392  -21.4109   18.0065 C   0  0  0  0  0  0  0  0  0  0  0  0
  -24.2361  -21.6448   22.4321 C   0  0  0  0  0  0  0  0  0  0  0  0
  -32.2562  -22.4384   19.1308 C   0  0  0  0  0  0  0  0  0  0  0  0
  -23.3582  -20.8139   21.4961 C   0  0  0  0  0  0  0  0  0  0  0  0
  -23.4131  -22.3236   23.5329 C   0  0  0  0  0  0  0  0  0  0  0  0
  -22.4374  -20.0628   23.7622 C   0  0  0  0  0  0  0  0  0  0  0  0
  -30.8047  -22.6519   19.5770 C   0  0  1  0  0  0  0  0  0  0  0  0
  -29.3509  -25.5485   17.5947 C   0  0  1  0  0  0  0  0  0  0  0  0
  -22.5039  -19.7696   22.2531 C   0  0  2  0  0  0  0  0  0  0  0  0
  -30.0215  -32.7419   14.8002 C   0  0  0  0  0  0  0  0  0  0  0  0
  -32.7633  -28.3596   18.9413 C   0  0  0  0  0  0  0  0  0  0  0  0
  -32.6250  -30.7094   18.0885 C   0  0  0  0  0  0  0  0  0  0  0  0
  -33.2913  -28.8630   16.5492 C   0  0  0  0  0  0  0  0  0  0  0  0
  -22.0257  -23.9459   25.6267 C   0  0  0  0  0  0  0  0  0  0  0  0
  -26.9207  -30.5400   14.6850 C   0  0  0  0  0  0  0  0  0  0  0  0
  -21.1010  -31.3053   22.0734 C   0  0  0  0  0  0  0  0  0  0  0  0
  -19.6976  -24.0282   24.8182 C   0  0  0  0  0  0  0  0  0  0  0  0
  -20.0773  -29.0383   21.9581 C   0  0  0  0  0  0  0  0  0  0  0  0
  -23.7711  -29.6581   22.4688 C   0  0  0  0  0  0  0  0  0  0  0  0
  -22.5337  -29.3119   21.6543 C   0  0  0  0  0  0  0  0  0  0  0  0
  -25.0661  -29.1151   21.8772 C   0  0  0  0  0  0  0  0  0  1  0  0
  -30.8852  -29.0390   17.3052 C   0  0  1  0  0  0  0  0  0  0  0  0
  -29.2449  -31.4362   14.8695 C   0  0  2  0  0  0  0  0  0  0  0  0
  -32.3681  -29.2298   17.7315 C   0  0  0  0  0  0  0  0  0  0  0  0
  -24.2556  -18.0935   21.7948 N   0  0  0  0  0  0  0  0  0  0  0  0
  -22.9512  -18.3397   22.0041 N   0  0  0  0  0  0  0  0  0  0  0  0
  -29.5669  -26.9898   17.7373 N   0  0  0  0  0  0  0  0  0  0  0  0
  -22.2866  -21.4984   23.9930 N   0  0  0  0  0  0  0  0  0  0  0  0
  -20.8317  -17.2927   22.1542 N   0  0  0  0  0  0  0  0  0  0  0  0
  -22.6241  -13.9990   22.7307 N   0  0  0  0  0  0  0  0  0  0  0  0
  -30.1047  -23.4961   18.6327 N   0  0  0  0  0  0  0  0  0  0  0  0
  -30.4904  -29.8305   16.1450 N   0  0  0  0  0  0  0  0  0  0  0  0
  -20.9653  -23.3116   24.8498 N   0  0  0  0  0  0  0  0  0  0  0  0
  -27.7998  -31.7374   14.6642 N   0  3  0  0  0  0  0  0  0  0  0  0
  -21.3126  -29.8300   22.3146 N   0  3  1  0  0  0  0  0  0  0  0  0
  -22.3340  -14.2910   20.4747 O   0  0  0  0  0  0  0  0  0  0  0  0
  -30.7680  -25.5599   19.4833 O   0  0  0  0  0  0  0  0  0  0  0  0
  -31.1706  -27.0491   16.0460 O   0  0  0  0  0  0  0  0  0  0  0  0
  -28.7703  -30.9787   17.1939 O   0  0  0  0  0  0  0  0  0  0  0  0
  -19.9963  -21.3306   24.1935 O   0  0  0  0  0  0  0  0  0  0  0  0
  -29.1527  -14.1971   20.6186 O   0  0  0  0  0  0  0  0  0  0  0  0
  -24.9682  -27.6942   21.7882 O   0  0  0  0  0  0  0  0  0  1  0  0
  -28.9744   -9.0359   18.6860 F   0  0  0  0  0  0  0  0  0  0  0  0
  -19.8133  -24.1740   21.9991 F   0  0  0  0  0  0  0  0  0  0  0  0
  -30.2808  -13.5569   18.1772 F   0  0  0  0  0  0  0  0  0  0  0  0
  1  2  1  0  0  0  0
  1  5  2  0  0  0  0
  2  6  2  0  0  0  0
  3 10  2  0  0  0  0
  3 18  1  0  0  0  0
  4 11  1  0  0  0  0
  4 18  2  0  0  0  0
  5 20  1  0  0  0  0
  6 22  1  0  0  0  0
  7 12  2  0  0  0  0
  7 21  1  0  0  0  0
  8  9  2  0  0  0  0
  8 24  1  0  0  0  0
  9 25  1  0  0  0  0
 10 26  1  0  0  0  0
 11 26  2  0  0  0  0
 12 27  1  0  0  0  0
 13 14  2  0  0  0  0
 13 28  1  0  0  0  0
 14 29  1  0  0  0  0
 15 23  1  0  0  0  0
 15 27  2  0  0  0  0
 16 24  2  0  0  0  0
 16 30  1  0  0  0  0
 17 29  2  0  0  0  0
 17 31  1  0  0  0  0
 18 32  1  0  0  0  0
 19 32  1  0  0  0  0
 19 33  2  0  0  0  0
 19 34  1  0  0  0  0
 20 22  2  0  0  0  0
 20 39  1  0  0  0  0
 21 23  2  0  0  0  0
 21 40  1  0  0  0  0
 22 48  1  0  0  0  0
 23 41  1  0  0  0  0
 24 59  1  0  0  0  0
 25 30  2  0  0  0  0
 25 58  1  0  0  0  0
 26 82  1  0  0  0  0
 27 83  1  0  0  0  0
 28 31  2  0  0  0  0
 28 82  1  0  0  0  0
 29 84  1  0  0  0  0
 30 85  1  0  0  0  0
 31 86  1  0  0  0  0
 32 66  2  0  0  0  0
 33 67  1  0  0  0  0
 33 70  1  0  0  0  0
 34 71  1  0  0  0  0
 34 77  2  0  0  0  0
 35 49  1  0  0  0  0
 35 72  1  0  0  0  0
 35 78  2  0  0  0  0
 36 63  1  0  0  0  0
 36 68  1  0  0  0  0
 36 79  2  0  0  0  0
 37 64  1  0  0  0  0
 37 73  1  0  0  0  0
 37 80  2  0  0  0  0
 38 69  1  0  0  0  0
 38 74  1  0  0  0  0
 38 81  2  0  0  0  0
 39 42  1  0  0  0  0
 40 49  1  0  0  0  0
 41 68  1  0  0  0  0
 42 44  1  0  0  0  0
 43 45  1  0  0  0  0
 43 46  1  0  0  0  0
 44 48  1  0  0  0  0
 45 50  1  0  0  0  0
 46 69  1  0  0  0  0
 47 50  1  0  0  0  0
 47 69  1  0  0  0  0
 48 72  1  0  0  0  0
 49 68  1  0  0  0  0
 50 67  1  0  0  0  0
 51 64  1  0  0  0  0
 52 65  1  0  0  0  0
 53 65  1  0  0  0  0
 54 65  1  0  0  0  0
 55 74  1  0  0  0  0
 56 75  1  0  0  0  0
 57 76  1  0  0  0  0
 58 74  1  0  0  0  0
 59 76  1  0  0  0  0
 60 61  1  0  0  0  0
 60 62  1  0  0  0  0
 61 76  1  0  0  0  0
 62 83  1  0  0  0  0
 63 65  1  0  0  0  0
 63 73  1  0  0  0  0
 64 75  1  0  0  0  0
 66 67  1  0  0  0  0
M  CHG  2  75   1  76   1
M  ISO  4  38 100  62 101  74 100  83 101
M  END
> <Batch ID>
0019

> <Smiles>
CNC(C)C(=O)NC(C(=O)N1Cc2cc([101O:1][101CH2:1]CCN(C)Cc3ccc(C[100N:0](C)[100C:0](=O)N4CCCC(n5nc(-c6ccc(Oc7ccc(F)cc7F)cc6)c(C(N)=O)c5N)C4)c(F)c3)ccc2CC1C(=O)NC1CCCc2ccccc21)C(C)(C)C

> <Shape>
0.210

> <Color>
0.060

> <Negative vol penalty>
0.000

$$$$

  -OEChem-04042321053D

 78 86  0     1  0  0  0  0  0999 V2000
  -28.0667  -37.0392   21.1568 C   0  0  0  0  0  0  0  0  0  0  0  0
  -28.4786  -35.7212   20.9880 C   0  0  0  0  0  0  0  0  0  0  0  0
  -26.8779  -12.7381   21.8118 C   0  0  0  0  0  0  0  0  0  0  0  0
  -26.2289  -14.3697   20.1524 C   0  0  0  0  0  0  0  0  0  0  0  0
  -26.9484  -37.3241   21.9392 C   0  0  0  0  0  0  0  0  0  0  0  0
  -27.7731  -34.6872   21.6025 C   0  0  0  0  0  0  0  0  0  0  0  0
  -26.8406  -29.0494   19.4001 C   0  0  0  0  0  0  0  0  0  0  0  0
  -29.9140  -23.9385   21.6652 C   0  0  0  0  0  0  0  0  0  0  0  0
  -29.0925  -23.0456   19.5759 C   0  0  0  0  0  0  0  0  0  0  0  0
  -30.3903  -22.6757   22.0176 C   0  0  0  0  0  0  0  0  0  0  0  0
  -29.5689  -21.7828   19.9283 C   0  0  0  0  0  0  0  0  0  0  0  0
  -25.5581  -12.2939   21.8913 C   0  0  0  0  0  0  0  0  0  0  0  0
  -24.9090  -13.9255   20.2318 C   0  0  0  0  0  0  0  0  0  0  0  0
  -27.4760  -27.8317   19.6398 C   0  0  0  0  0  0  0  0  0  0  0  0
  -22.4256  -10.4880   22.2670 C   0  0  0  0  0  0  0  0  0  0  0  0
  -22.2040   -9.1109   22.2726 C   0  0  0  0  0  0  0  0  0  0  0  0
  -25.7862  -27.2777   21.2698 C   0  0  0  0  0  0  0  0  0  0  0  0
  -23.2629   -8.9317   20.1084 C   0  0  0  0  0  0  0  0  0  0  0  0
  -27.2133  -13.7760   20.9424 C   0  0  0  0  0  0  0  0  0  0  0  0
  -29.5834  -13.7604   19.9988 C   0  0  0  0  0  0  0  0  0  0  0  0
  -26.2231  -36.2924   22.5558 C   0  0  0  0  0  0  0  0  0  0  0  0
  -25.6774  -29.3956   20.1025 C   0  0  0  0  0  0  0  0  0  0  0  0
  -26.6449  -34.9587   22.3951 C   0  0  0  0  0  0  0  0  0  0  0  0
  -25.1365  -28.4992   21.0353 C   0  0  0  0  0  0  0  0  0  0  0  0
  -29.2650  -24.1234   20.4444 C   0  0  0  0  0  0  0  0  0  0  0  0
  -30.2178  -21.5979   21.1491 C   0  0  0  0  0  0  0  0  0  0  0  0
  -24.5736  -12.8876   21.1013 C   0  0  0  0  0  0  0  0  0  0  0  0
  -26.9505  -26.9469   20.5769 C   0  0  0  0  0  0  0  0  0  0  0  0
  -23.0657  -11.0870   21.1821 C   0  0  0  0  0  0  0  0  0  0  0  0
  -22.6227   -8.3327   21.1933 C   0  0  0  0  0  0  0  0  0  0  0  0
  -23.4844  -10.3089   20.1028 C   0  0  0  0  0  0  0  0  0  0  0  0
  -28.5764  -14.2357   20.8602 C   0  0  0  0  0  0  0  0  0  0  0  0
  -30.6867  -14.5170   20.3100 C   0  0  0  0  0  0  0  0  0  0  0  0
  -29.5265  -12.7275   19.0061 C   0  0  0  0  0  0  0  0  0  0  0  0
  -24.8815  -31.7237   22.1150 C   0  0  0  0  0  0  0  0  0  0  0  0
  -21.9265  -30.4122   21.8504 C   0  0  0  0  0  0  0  0  0  0  0  0
  -20.0285  -27.6660   21.1412 C   0  0  0  0  0  0  0  0  0  0  0  0
  -31.3678  -19.9601   22.6793 C   0  0  0  0  0  0  0  0  0  0  0  0
  -25.0489  -36.6530   23.4308 C   0  0  0  0  0  0  0  0  0  0  0  0
  -24.9890  -30.7013   19.8131 C   0  0  0  0  0  0  0  0  0  0  0  0
  -23.8787  -28.8147   21.8013 C   0  0  0  0  0  0  0  0  0  0  0  0
  -24.1351  -35.4704   23.7419 C   0  0  0  0  0  0  0  0  0  0  0  0
  -32.6846  -16.9053   23.9485 C   0  0  0  0  0  0  0  0  0  0  0  0
  -24.9579  -34.2549   24.1570 C   0  0  0  0  0  0  0  0  0  0  0  0
  -31.8764  -15.8307   23.2177 C   0  0  0  0  0  0  0  0  0  0  0  0
  -31.8295  -18.1244   24.2893 C   0  0  0  0  0  0  0  0  0  0  0  0
  -30.2959  -17.6360   22.4242 C   0  0  0  0  0  0  0  0  0  0  0  0
  -25.8910  -33.8077   23.0253 C   0  0  1  0  0  0  0  0  0  0  0  0
  -24.0974  -31.1732   20.9575 C   0  0  1  0  0  0  0  0  0  0  0  0
  -31.1304  -16.4157   22.0024 C   0  0  2  0  0  0  0  0  0  0  0  0
  -17.6438  -26.8901   21.0485 C   0  0  0  0  0  0  0  0  0  0  0  0
  -21.8657  -30.2428   24.8963 C   0  0  0  0  0  0  0  0  0  0  0  0
  -19.9531  -28.6392   24.6994 C   0  0  0  0  0  0  0  0  0  0  0  0
  -19.7150  -30.9722   23.8490 C   0  0  0  0  0  0  0  0  0  0  0  0
  -20.2148  -27.0650   18.2493 C   0  0  0  0  0  0  0  0  0  0  0  0
  -28.7526  -25.4818   20.0654 C   0  0  0  0  0  0  0  0  0  1  0  0
  -21.1660  -29.3336   22.5834 C   0  0  1  0  0  0  0  0  0  0  0  0
  -18.8017  -27.4884   20.2649 C   0  0  2  0  0  0  0  0  0  0  0  0
  -20.6998  -29.7915   23.9942 C   0  0  0  0  0  0  0  0  0  0  0  0
  -29.0023  -15.2180   21.6588 N   0  0  0  0  0  0  0  0  0  0  0  0
  -30.2891  -15.3661   21.3005 N   0  0  0  0  0  0  0  0  0  0  0  0
  -23.2458  -30.1064   21.4875 N   0  0  0  0  0  0  0  0  0  0  0  0
  -31.1567  -18.6266   23.0893 N   0  0  0  0  0  0  0  0  0  0  0  0
  -31.9484  -14.5321   19.8303 N   0  0  0  0  0  0  0  0  0  0  0  0
  -28.3144  -12.0502   18.8153 N   0  0  0  0  0  0  0  0  0  0  0  0
  -30.7018  -20.3151   21.5067 N   0  0  0  0  0  0  0  0  0  0  0  0
  -25.1513  -33.0756   22.0197 N   0  0  0  0  0  0  0  0  0  0  0  0
  -20.0802  -28.9263   21.6982 N   0  0  0  0  0  0  0  0  0  0  0  0
  -19.1097  -26.5865   19.1192 N   0  3  0  0  0  0  0  0  0  0  0  0
  -30.5255  -12.4032   18.3203 O   0  0  0  0  0  0  0  0  0  0  0  0
  -25.2157  -30.9775   23.0278 O   0  0  0  0  0  0  0  0  0  0  0  0
  -21.3681  -31.4838   21.6025 O   0  0  0  0  0  0  0  0  0  0  0  0
  -20.8560  -26.7746   21.3172 O   0  0  0  0  0  0  0  0  0  0  0  0
  -32.1080  -20.7224   23.3063 O   0  0  0  0  0  0  0  0  0  0  0  0
  -23.2857  -12.4542   21.1784 O   0  0  0  0  0  0  0  0  0  0  0  0
  -27.5690  -25.7581   20.8132 O   0  0  0  0  0  0  0  0  0  1  0  0
  -22.4112   -7.0101   21.1995 F   0  0  0  0  0  0  0  0  0  0  0  0
  -24.1010  -10.8786   19.0582 F   0  0  0  0  0  0  0  0  0  0  0  0
  1  2  1  0  0  0  0
  1  5  2  0  0  0  0
  2  6  2  0  0  0  0
  3 12  2  0  0  0  0
  3 19  1  0  0  0  0
  4 13  1  0  0  0  0
  4 19  2  0  0  0  0
  5 21  1  0  0  0  0
  6 23  1  0  0  0  0
  7 14  2  0  0  0  0
  7 22  1  0  0  0  0
  8 10  2  0  0  0  0
  8 25  1  0  0  0  0
  9 11  1  0  0  0  0
  9 25  2  0  0  0  0
 10 26  1  0  0  0  0
 11 26  2  0  0  0  0
 12 27  1  0  0  0  0
 13 27  2  0  0  0  0
 14 28  1  0  0  0  0
 15 16  2  0  0  0  0
 15 29  1  0  0  0  0
 16 30  1  0  0  0  0
 17 24  1  0  0  0  0
 17 28  2  0  0  0  0
 18 30  2  0  0  0  0
 18 31  1  0  0  0  0
 19 32  1  0  0  0  0
 20 32  1  0  0  0  0
 20 33  2  0  0  0  0
 20 34  1  0  0  0  0
 21 23  2  0  0  0  0
 21 39  1  0  0  0  0
 22 24  2  0  0  0  0
 22 40  1  0  0  0  0
 23 48  1  0  0  0  0
 24 41  1  0  0  0  0
 25 56  1  0  0  0  0
 26 66  1  0  0  0  0
 27 75  1  0  0  0  0
 28 76  1  0  0  0  0
 29 31  2  0  0  0  0
 29 75  1  0  0  0  0
 30 77  1  0  0  0  0
 31 78  1  0  0  0  0
 32 60  2  0  0  0  0
 33 61  1  0  0  0  0
 33 64  1  0  0  0  0
 34 65  1  0  0  0  0
 34 70  2  0  0  0  0
 35 49  1  0  0  0  0
 35 67  1  0  0  0  0
 35 71  2  0  0  0  0
 36 57  1  0  0  0  0
 36 62  1  0  0  0  0
 36 72  2  0  0  0  0
 37 58  1  0  0  0  0
 37 68  1  0  0  0  0
 37 73  2  0  0  0  0
 38 63  1  0  0  0  0
 38 66  1  0  0  0  0
 38 74  2  0  0  0  0
 39 42  1  0  0  0  0
 40 49  1  0  0  0  0
 41 62  1  0  0  0  0
 42 44  1  0  0  0  0
 43 45  1  0  0  0  0
 43 46  1  0  0  0  0
 44 48  1  0  0  0  0
 45 50  1  0  0  0  0
 46 63  1  0  0  0  0
 47 50  1  0  0  0  0
 47 63  1  0  0  0  0
 48 67  1  0  0  0  0
 49 62  1  0  0  0  0
 50 61  1  0  0  0  0
 51 58  1  0  0  0  0
 52 59  1  0  0  0  0
 53 59  1  0  0  0  0
 54 59  1  0  0  0  0
 55 69  1  0  0  0  0
 56 76  1  0  0  0  0
 57 59  1  0  0  0  0
 57 68  1  0  0  0  0
 58 69  1  0  0  0  0
 60 61  1  0  0  0  0
M  CHG  1  69   1
M  ISO  4  38 100  56 101  66 100  76 101
M  END
> <Batch ID>
0019

> <Smiles>
CNC(C)C(=O)NC(C(=O)N1Cc2cc([101O:1][101CH2:1]c3ccc([100NH:0][100C:0](=O)N4CCCC(n5nc(-c6ccc(Oc7ccc(F)cc7F)cc6)c(C(N)=O)c5N)C4)cc3)ccc2CC1C(=O)NC1CCCc2ccccc21)C(C)(C)C

> <Shape>
0.340

> <Color>
0.078

> <Negative vol penalty>
0.000

$$$$

  -OEChem-04042321053D

 83 91  0     1  0  0  0  0  0999 V2000
  -20.9199  -22.9756   22.2735 C   0  0  0  0  0  0  0  0  0  0  0  0
  -22.2753  -23.2874   22.3047 C   0  0  0  0  0  0  0  0  0  0  0  0
  -26.7689  -13.5745   21.7407 C   0  0  0  0  0  0  0  0  0  0  0  0
  -25.8823  -14.1744   19.5748 C   0  0  0  0  0  0  0  0  0  0  0  0
  -19.9903  -23.9483   21.9080 C   0  0  0  0  0  0  0  0  0  0  0  0
  -22.7021  -24.5718   21.9693 C   0  0  0  0  0  0  0  0  0  0  0  0
  -26.1646  -26.3731   25.1959 C   0  0  0  0  0  0  0  0  0  0  0  0
  -31.4692  -23.5333   17.6452 C   0  0  0  0  0  0  0  0  0  0  0  0
  -30.3419  -22.7782   17.9687 C   0  0  0  0  0  0  0  0  0  0  0  0
  -26.0285  -12.3926   21.7165 C   0  0  0  0  0  0  0  0  0  0  0  0
  -25.1420  -12.9925   19.5505 C   0  0  0  0  0  0  0  0  0  0  0  0
  -27.4714  -25.9091   25.0519 C   0  0  0  0  0  0  0  0  0  0  0  0
  -24.0934   -9.3872   22.3846 C   0  0  0  0  0  0  0  0  0  0  0  0
  -23.4028   -9.0288   23.5423 C   0  0  0  0  0  0  0  0  0  0  0  0
  -28.0539  -27.9329   23.8753 C   0  0  0  0  0  0  0  0  0  0  0  0
  -29.9109  -24.2286   19.8523 C   0  0  0  0  0  0  0  0  0  0  0  0
  -22.1388  -11.0845   23.4246 C   0  0  0  0  0  0  0  0  0  0  0  0
  -26.6957  -14.4654   20.6699 C   0  0  0  0  0  0  0  0  0  0  0  0
  -28.7682  -15.8809   20.2127 C   0  0  0  0  0  0  0  0  0  0  0  0
  -20.4050  -25.2480   21.5773 C   0  0  0  0  0  0  0  0  0  0  0  0
  -25.7893  -27.6178   24.6703 C   0  0  0  0  0  0  0  0  0  0  0  0
  -21.7773  -25.5624   21.5977 C   0  0  0  0  0  0  0  0  0  0  0  0
  -26.7423  -28.4115   24.0163 C   0  0  0  0  0  0  0  0  0  0  0  0
  -31.8173  -24.6361   18.4253 C   0  0  0  0  0  0  0  0  0  0  0  0
  -29.5627  -23.1259   19.0722 C   0  0  0  0  0  0  0  0  0  0  0  0
  -31.0382  -24.9837   19.5288 C   0  0  0  0  0  0  0  0  0  0  0  0
  -25.2151  -12.1016   20.6214 C   0  0  0  0  0  0  0  0  0  0  0  0
  -28.4156  -26.6878   24.3890 C   0  0  0  0  0  0  0  0  0  0  0  0
  -23.8068  -10.5942   21.7469 C   0  0  0  0  0  0  0  0  0  0  0  0
  -22.4255   -9.8774   24.0623 C   0  0  0  0  0  0  0  0  0  0  0  0
  -22.8295  -11.4428   22.2669 C   0  0  0  0  0  0  0  0  0  0  0  0
  -27.4598  -15.6868   20.6947 C   0  0  0  0  0  0  0  0  0  0  0  0
  -29.0357  -17.2036   20.4686 C   0  0  0  0  0  0  0  0  0  0  0  0
  -29.6618  -14.9490   19.5893 C   0  0  0  0  0  0  0  0  0  0  0  0
  -23.7054  -28.5897   22.4757 C   0  0  0  0  0  0  0  0  0  0  0  0
  -24.6006  -31.5368   23.4932 C   0  0  0  0  0  0  0  0  0  0  0  0
  -26.9651  -33.4911   24.9887 C   0  0  0  0  0  0  0  0  0  0  0  0
  -27.5370  -22.5661   20.4612 C   0  0  0  0  0  0  0  0  0  0  0  0
  -19.3674  -26.2525   21.1427 C   0  0  0  0  0  0  0  0  0  0  0  0
  -24.3823  -28.1157   24.8575 C   0  0  0  0  0  0  0  0  0  0  0  0
  -26.3952  -29.7640   23.4516 C   0  0  0  0  0  0  0  0  0  0  0  0
  -19.8688  -27.6942   21.1640 C   0  0  0  0  0  0  0  0  0  0  0  0
  -26.5071  -20.5984   23.2441 C   0  0  0  0  0  0  0  0  0  0  0  0
  -21.2419  -27.7916   20.5068 C   0  0  0  0  0  0  0  0  0  0  0  0
  -26.7708  -19.1611   22.7893 C   0  0  0  0  0  0  0  0  0  0  0  0
  -26.0145  -21.4757   22.0946 C   0  0  0  0  0  0  0  0  0  0  0  0
  -27.1275  -20.0269   20.4419 C   0  0  0  0  0  0  0  0  0  0  0  0
  -22.2770  -26.9514   21.2646 C   0  0  1  0  0  0  0  0  0  0  0  0
  -23.9812  -29.1724   23.8329 C   0  0  1  0  0  0  0  0  0  0  0  0
  -27.6875  -19.1211   21.5509 C   0  0  2  0  0  0  0  0  0  0  0  0
  -33.0296  -25.4273   18.0558 C   0  0  0  0  0  0  0  0  0  0  0  0
  -27.4281  -35.8685   25.6453 C   0  0  0  0  0  0  0  0  0  0  0  0
  -25.2092  -32.2197   20.5823 C   0  0  0  0  0  0  0  0  0  0  0  0
  -26.5258  -34.1892   21.3924 C   0  0  0  0  0  0  0  0  0  0  0  0
  -24.0813  -34.0444   21.8680 C   0  0  0  0  0  0  0  0  0  0  0  0
  -30.8374  -27.4119   20.0016 C   0  0  0  0  0  0  0  0  0  0  0  0
  -27.1507  -32.7849   27.8567 C   0  0  0  0  0  0  0  0  0  0  0  0
  -31.4253  -25.5974   22.7152 C   0  0  0  0  0  0  0  0  0  0  0  0
  -32.2351  -25.9541   21.4746 C   0  0  0  0  0  0  0  0  0  0  0  0
  -30.4074  -26.6682   23.0896 C   0  0  0  0  0  0  0  0  0  1  0  0
  -25.6768  -32.5212   23.1035 C   0  0  1  0  0  0  0  0  0  0  0  0
  -26.8634  -34.5289   26.0919 C   0  0  2  0  0  0  0  0  0  0  0  0
  -25.3797  -33.2173   21.7454 C   0  0  0  0  0  0  0  0  0  0  0  0
  -26.9328  -16.7972   21.2174 N   0  0  0  0  0  0  0  0  0  0  0  0
  -27.9150  -17.7018   21.0654 N   0  0  0  0  0  0  0  0  0  0  0  0
  -25.0050  -30.2041   23.6546 N   0  0  0  0  0  0  0  0  0  0  0  0
  -26.9346  -21.3910   20.9583 N   0  0  0  0  0  0  0  0  0  0  0  0
  -30.1178  -17.9774   20.2392 N   0  0  0  0  0  0  0  0  0  0  0  0
  -29.2275  -13.6296   19.4025 N   0  0  0  0  0  0  0  0  0  0  0  0
  -28.4180  -22.3580   19.4005 N   0  0  0  0  0  0  0  0  0  0  0  0
  -22.7039  -27.6377   22.4651 N   0  0  0  0  0  0  0  0  0  0  0  0
  -25.8161  -33.4400   24.2281 N   0  0  0  0  0  0  0  0  0  0  0  0
  -31.3743  -26.0886   20.3242 N   0  0  3  0  0  0  0  0  0  0  0  0
  -27.6167  -34.0796   27.2967 N   0  3  0  0  0  0  0  0  0  0  0  0
  -30.8175  -15.2724   19.2241 O   0  0  0  0  0  0  0  0  0  0  0  0
  -24.3522  -28.9763   21.5093 O   0  0  0  0  0  0  0  0  0  0  0  0
  -23.4451  -31.9370   23.6556 O   0  0  0  0  0  0  0  0  0  0  0  0
  -27.9653  -32.7980   24.8163 O   0  0  0  0  0  0  0  0  0  0  0  0
  -27.3103  -23.6720   20.9588 O   0  0  0  0  0  0  0  0  0  0  0  0
  -24.4927  -10.9482   20.5972 O   0  0  0  0  0  0  0  0  0  0  0  0
  -29.6916  -26.2370   24.2464 O   0  0  0  0  0  0  0  0  0  1  0  0
  -21.7614   -9.5324   25.1732 F   0  0  0  0  0  0  0  0  0  0  0  0
  -22.5489  -12.6032   21.6581 F   0  0  0  0  0  0  0  0  0  0  0  0
  1  2  1  0  0  0  0
  1  5  2  0  0  0  0
  2  6  2  0  0  0  0
  3 10  2  0  0  0  0
  3 18  1  0  0  0  0
  4 11  1  0  0  0  0
  4 18  2  0  0  0  0
  5 20  1  0  0  0  0
  6 22  1  0  0  0  0
  7 12  2  0  0  0  0
  7 21  1  0  0  0  0
  8  9  2  0  0  0  0
  8 24  1  0  0  0  0
  9 25  1  0  0  0  0
 10 27  1  0  0  0  0
 11 27  2  0  0  0  0
 12 28  1  0  0  0  0
 13 14  2  0  0  0  0
 13 29  1  0  0  0  0
 14 30  1  0  0  0  0
 15 23  1  0  0  0  0
 15 28  2  0  0  0  0
 16 25  2  0  0  0  0
 16 26  1  0  0  0  0
 17 30  2  0  0  0  0
 17 31  1  0  0  0  0
 18 32  1  0  0  0  0
 19 32  1  0  0  0  0
 19 33  2  0  0  0  0
 19 34  1  0  0  0  0
 20 22  2  0  0  0  0
 20 39  1  0  0  0  0
 21 23  2  0  0  0  0
 21 40  1  0  0  0  0
 22 48  1  0  0  0  0
 23 41  1  0  0  0  0
 24 26  2  0  0  0  0
 24 51  1  0  0  0  0
 25 70  1  0  0  0  0
 26 73  1  0  0  0  0
 27 80  1  0  0  0  0
 28 81  1  0  0  0  0
 29 31  2  0  0  0  0
 29 80  1  0  0  0  0
 30 82  1  0  0  0  0
 31 83  1  0  0  0  0
 32 64  2  0  0  0  0
 33 65  1  0  0  0  0
 33 68  1  0  0  0  0
 34 69  1  0  0  0  0
 34 75  2  0  0  0  0
 35 49  1  0  0  0  0
 35 71  1  0  0  0  0
 35 76  2  0  0  0  0
 36 61  1  0  0  0  0
 36 66  1  0  0  0  0
 36 77  2  0  0  0  0
 37 62  1  0  0  0  0
 37 72  1  0  0  0  0
 37 78  2  0  0  0  0
 38 67  1  0  0  0  0
 38 70  1  0  0  0  0
 38 79  2  0  0  0  0
 39 42  1  0  0  0  0
 40 49  1  0  0  0  0
 41 66  1  0  0  0  0
 42 44  1  0  0  0  0
 43 45  1  0  0  0  0
 43 46  1  0  0  0  0
 44 48  1  0  0  0  0
 45 50  1  0  0  0  0
 46 67  1  0  0  0  0
 47 50  1  0  0  0  0
 47 67  1  0  0  0  0
 48 71  1  0  0  0  0
 49 66  1  0  0  0  0
 50 65  1  0  0  0  0
 52 62  1  0  0  0  0
 53 63  1  0  0  0  0
 54 63  1  0  0  0  0
 55 63  1  0  0  0  0
 56 73  1  0  0  0  0
 57 74  1  0  0  0  0
 58 59  1  0  0  0  0
 58 60  1  0  0  0  0
 59 73  1  0  0  0  0
 60 81  1  0  0  0  0
 61 63  1  0  0  0  0
 61 72  1  0  0  0  0
 62 74  1  0  0  0  0
 64 65  1  0  0  0  0
M  CHG  1  74   1
M  ISO  4  38 100  60 101  70 100  81 101
M  END
> <Batch ID>
0019

> <Smiles>
CNC(C)C(=O)NC(C(=O)N1Cc2cc([101O:1][101CH2:1]CCN(C)c3cc([100NH:0][100C:0](=O)N4CCCC(n5nc(-c6ccc(Oc7ccc(F)cc7F)cc6)c(C(N)=O)c5N)C4)ccc3C)ccc2CC1C(=O)NC1CCCc2ccccc21)C(C)(C)C

> <Shape>
0.253

> <Color>
0.063

> <Negative vol penalty>
0.000

$$$$

  -OEChem-04042321053D

 89 97  0     1  0  0  0  0  0999 V2000
  -27.5773  -24.2844   16.6285 C   0  0  0  0  0  0  0  0  0  0  0  0
  -26.3892  -24.6117   17.2741 C   0  0  0  0  0  0  0  0  0  0  0  0
  -23.0605  -13.1104   20.5022 C   0  0  0  0  0  0  0  0  0  0  0  0
  -24.5077  -14.7282   21.5629 C   0  0  0  0  0  0  0  0  0  0  0  0
  -28.7997  -24.6306   17.2029 C   0  0  0  0  0  0  0  0  0  0  0  0
  -26.4228  -25.2844   18.4951 C   0  0  0  0  0  0  0  0  0  0  0  0
  -23.0798  -29.0819   18.7136 C   0  0  0  0  0  0  0  0  0  0  0  0
  -24.1496  -12.2596   20.3138 C   0  0  0  0  0  0  0  0  0  0  0  0
  -25.5969  -13.8774   21.3746 C   0  0  0  0  0  0  0  0  0  0  0  0
  -21.7469  -28.7443   18.9445 C   0  0  0  0  0  0  0  0  0  0  0  0
  -27.6719  -13.0082   18.8508 C   0  0  0  0  0  0  0  0  0  0  0  0
  -28.8555  -13.5675   18.3693 C   0  0  0  0  0  0  0  0  0  0  0  0
  -22.0074  -29.3312   21.2698 C   0  0  0  0  0  0  0  0  0  0  0  0
  -18.8023  -23.9062   21.9474 C   0  0  0  0  0  0  0  0  0  0  0  0
  -20.9225  -24.2849   23.0422 C   0  0  0  0  0  0  0  0  0  0  0  0
  -30.0084  -12.8474   20.3666 C   0  0  0  0  0  0  0  0  0  0  0  0
  -23.2395  -14.3448   21.1267 C   0  0  0  0  0  0  0  0  0  0  0  0
  -21.2520  -15.2679   22.4325 C   0  0  0  0  0  0  0  0  0  0  0  0
  -28.8481  -25.3165   18.4268 C   0  0  0  0  0  0  0  0  0  0  0  0
  -23.8908  -29.5370   19.7631 C   0  0  0  0  0  0  0  0  0  0  0  0
  -27.6470  -25.6389   19.0870 C   0  0  0  0  0  0  0  0  0  0  0  0
  -23.3495  -29.6763   21.0490 C   0  0  0  0  0  0  0  0  0  0  0  0
  -20.6880  -22.4781   21.4555 C   0  0  0  0  0  0  0  0  0  0  0  0
  -19.5872  -24.6347   22.8412 C   0  0  0  0  0  0  0  0  0  0  0  0
  -25.4178  -12.6431   20.7500 C   0  0  0  0  0  0  0  0  0  0  0  0
  -21.2113  -28.8662   20.2233 C   0  0  0  0  0  0  0  0  0  0  0  0
  -27.6565  -12.3685   20.0903 C   0  0  0  0  0  0  0  0  0  0  0  0
  -30.0237  -13.4871   19.1272 C   0  0  0  0  0  0  0  0  0  0  0  0
  -19.3527  -22.8279   21.2546 C   0  0  0  0  0  0  0  0  0  0  0  0
  -21.4729  -23.2066   22.3493 C   0  0  0  0  0  0  0  0  0  0  0  0
  -28.8247  -12.2881   20.8482 C   0  0  0  0  0  0  0  0  0  0  0  0
  -22.1150  -15.2243   21.3211 C   0  0  0  0  0  0  0  0  0  0  0  0
  -20.3570  -16.2659   22.1333 C   0  0  0  0  0  0  0  0  0  0  0  0
  -21.2588  -14.4771   23.6284 C   0  0  0  0  0  0  0  0  0  0  0  0
  -26.5437  -28.4880   21.1650 C   0  0  0  0  0  0  0  0  0  0  0  0
  -26.3602  -31.3141   22.7468 C   0  0  0  0  0  0  0  0  0  0  0  0
  -24.4206  -33.8968   23.8487 C   0  0  0  0  0  0  0  0  0  0  0  0
  -21.0290  -20.9372   18.2262 C   0  0  0  0  0  0  0  0  0  0  0  0
  -30.1941  -25.6277   19.0317 C   0  0  0  0  0  0  0  0  0  0  0  0
  -25.3193  -29.9225   19.4920 C   0  0  0  0  0  0  0  0  0  0  0  0
  -24.1726  -30.1795   22.2057 C   0  0  0  0  0  0  0  0  0  0  0  0
  -30.1352  -26.6710   20.1446 C   0  0  0  0  0  0  0  0  0  0  0  0
  -18.2817  -18.4652   18.4331 C   0  0  0  0  0  0  0  0  0  0  0  0
  -28.9995  -26.3553   21.1127 C   0  0  0  0  0  0  0  0  0  0  0  0
  -18.9156  -17.3290   19.2339 C   0  0  0  0  0  0  0  0  0  0  0  0
  -19.3230  -19.2517   17.6428 C   0  0  0  0  0  0  0  0  0  0  0  0
  -21.0762  -18.6368   19.2744 C   0  0  0  0  0  0  0  0  0  0  0  0
  -27.6418  -26.3902   20.4006 C   0  0  1  0  0  0  0  0  0  0  0  0
  -26.1951  -29.8866   20.7407 C   0  0  1  0  0  0  0  0  0  0  0  0
  -20.0599  -17.8534   20.1187 C   0  0  2  0  0  0  0  0  0  0  0  0
  -24.5469  -36.0411   25.1462 C   0  0  0  0  0  0  0  0  0  0  0  0
  -19.9040  -25.2197   27.2468 C   0  0  0  0  0  0  0  0  0  0  0  0
  -17.9583  -24.3504   25.9116 C   0  0  0  0  0  0  0  0  0  0  0  0
  -26.5389  -29.7274   25.3468 C   0  0  0  0  0  0  0  0  0  0  0  0
  -25.7173  -31.7572   26.5606 C   0  0  0  0  0  0  0  0  0  0  0  0
  -27.8793  -31.8385   25.3188 C   0  0  0  0  0  0  0  0  0  0  0  0
  -22.1849  -22.9386   19.0853 C   0  0  0  0  0  0  0  0  0  0  0  0
  -23.4979  -35.4890   21.5308 C   0  0  0  0  0  0  0  0  0  0  0  0
  -21.2756  -21.3247   20.7145 C   0  0  0  0  0  0  0  0  0  0  0  0
  -18.3903  -27.1064   21.6352 C   0  0  0  0  0  0  0  0  0  0  0  0
  -17.9689  -26.5118   22.9736 C   0  0  0  0  0  0  0  0  0  0  0  0
  -19.5275  -26.0571   24.8743 C   0  0  0  0  0  0  0  0  0  0  0  0
  -19.5833  -28.0478   21.7516 C   0  0  0  0  0  0  0  0  0  1  0  0
  -25.7080  -31.7835   24.0248 C   0  0  1  0  0  0  0  0  0  0  0  0
  -24.6057  -35.4013   23.7678 C   0  0  2  0  0  0  0  0  0  0  0  0
  -19.3919  -24.8791   25.8466 C   0  0  0  0  0  0  0  0  0  0  0  0
  -26.4456  -31.2653   25.2916 C   0  0  0  0  0  0  0  0  0  0  0  0
  -21.7967  -16.1230   20.3856 N   0  0  0  0  0  0  0  0  0  0  0  0
  -20.7238  -16.7406   20.9084 N   0  0  0  0  0  0  0  0  0  0  0  0
  -25.5657  -30.5376   21.8914 N   0  0  0  0  0  0  0  0  0  0  0  0
  -20.4207  -19.7011   18.4998 N   0  0  0  0  0  0  0  0  0  0  0  0
  -19.2999  -16.7748   22.8010 N   0  0  0  0  0  0  0  0  0  0  0  0
  -22.2482  -13.4952   23.7744 N   0  0  0  0  0  0  0  0  0  0  0  0
  -27.2111  -27.7573   20.2006 N   0  0  0  0  0  0  0  0  0  0  0  0
  -25.6286  -33.2374   23.9324 N   0  0  0  0  0  0  0  0  0  0  0  0
  -19.0339  -25.7185   23.5380 N   0  0  3  0  0  0  0  0  0  0  0  0
  -21.5547  -21.6466   19.3167 N   0  0  0  0  0  0  0  0  0  0  0  0
  -23.5403  -36.0095   22.9216 N   0  3  0  0  0  0  0  0  0  0  0  0
  -20.4027  -14.6253   24.5332 O   0  0  0  0  0  0  0  0  0  0  0  0
  -26.2317  -28.1010   22.2851 O   0  0  0  0  0  0  0  0  0  0  0  0
  -27.5291  -31.6308   22.5126 O   0  0  0  0  0  0  0  0  0  0  0  0
  -23.3148  -33.3604   23.8424 O   0  0  0  0  0  0  0  0  0  0  0  0
  -21.0898  -21.3859   17.0743 O   0  0  0  0  0  0  0  0  0  0  0  0
  -26.4808  -11.8130   20.5666 O   0  0  0  0  0  0  0  0  0  0  0  0
  -19.9109  -28.5368   20.4516 O   0  0  0  0  0  0  0  0  0  1  0  0
  -31.1606  -14.0229   18.6640 F   0  0  0  0  0  0  0  0  0  0  0  0
  -18.5898  -22.1333   20.3988 F   0  0  0  0  0  0  0  0  0  0  0  0
  -22.7565  -22.8770   22.5497 F   0  0  0  0  0  0  0  0  0  0  0  0
  -28.8164  -11.6738   22.0391 F   0  0  0  0  0  0  0  0  0  0  0  0
  1  2  1  0  0  0  0
  1  5  2  0  0  0  0
  2  6  2  0  0  0  0
  3  8  2  0  0  0  0
  3 17  1  0  0  0  0
  4  9  1  0  0  0  0
  4 17  2  0  0  0  0
  5 19  1  0  0  0  0
  6 21  1  0  0  0  0
  7 10  2  0  0  0  0
  7 20  1  0  0  0  0
  8 25  1  0  0  0  0
  9 25  2  0  0  0  0
 10 26  1  0  0  0  0
 11 12  2  0  0  0  0
 11 27  1  0  0  0  0
 12 28  1  0  0  0  0
 13 22  1  0  0  0  0
 13 26  2  0  0  0  0
 14 24  1  0  0  0  0
 14 29  2  0  0  0  0
 15 24  2  0  0  0  0
 15 30  1  0  0  0  0
 16 28  2  0  0  0  0
 16 31  1  0  0  0  0
 17 32  1  0  0  0  0
 18 32  1  0  0  0  0
 18 33  2  0  0  0  0
 18 34  1  0  0  0  0
 19 21  2  0  0  0  0
 19 39  1  0  0  0  0
 20 22  2  0  0  0  0
 20 40  1  0  0  0  0
 21 48  1  0  0  0  0
 22 41  1  0  0  0  0
 23 29  1  0  0  0  0
 23 30  2  0  0  0  0
 23 59  1  0  0  0  0
 24 76  1  0  0  0  0
 25 84  1  0  0  0  0
 26 85  1  0  0  0  0
 27 31  2  0  0  0  0
 27 84  1  0  0  0  0
 28 86  1  0  0  0  0
 29 87  1  0  0  0  0
 30 88  1  0  0  0  0
 31 89  1  0  0  0  0
 32 68  2  0  0  0  0
 33 69  1  0  0  0  0
 33 72  1  0  0  0  0
 34 73  1  0  0  0  0
 34 79  2  0  0  0  0
 35 49  1  0  0  0  0
 35 74  1  0  0  0  0
 35 80  2  0  0  0  0
 36 64  1  0  0  0  0
 36 70  1  0  0  0  0
 36 81  2  0  0  0  0
 37 65  1  0  0  0  0
 37 75  1  0  0  0  0
 37 82  2  0  0  0  0
 38 71  1  0  0  0  0
 38 77  1  0  0  0  0
 38 83  2  0  0  0  0
 39 42  1  0  0  0  0
 40 49  1  0  0  0  0
 41 70  1  0  0  0  0
 42 44  1  0  0  0  0
 43 45  1  0  0  0  0
 43 46  1  0  0  0  0
 44 48  1  0  0  0  0
 45 50  1  0  0  0  0
 46 71  1  0  0  0  0
 47 50  1  0  0  0  0
 47 71  1  0  0  0  0
 48 74  1  0  0  0  0
 49 70  1  0  0  0  0
 50 69  1  0  0  0  0
 51 65  1  0  0  0  0
 52 66  1  0  0  0  0
 53 66  1  0  0  0  0
 54 67  1  0  0  0  0
 55 67  1  0  0  0  0
 56 67  1  0  0  0  0
 57 77  1  0  0  0  0
 58 78  1  0  0  0  0
 59 77  1  0  0  0  0
 60 61  1  0  0  0  0
 60 63  1  0  0  0  0
 61 76  1  0  0  0  0
 62 66  1  0  0  0  0
 62 76  1  0  0  0  0
 63 85  1  0  0  0  0
 64 67  1  0  0  0  0
 64 75  1  0  0  0  0
 65 78  1  0  0  0  0
 68 69  1  0  0  0  0
M  CHG  1  78   1
M  ISO  4  38 100  63 101  77 100  85 101
M  END
> <Batch ID>
0019

> <Smiles>
CNC(C)C(=O)NC(C(=O)N1Cc2cc([101O:1][101CH2:1]CCN(CC(C)C)c3cc(F)c(C[100N:0](C)[100C:0](=O)N4CCCC(n5nc(-c6ccc(Oc7ccc(F)cc7F)cc6)c(C(N)=O)c5N)C4)c(F)c3)ccc2CC1C(=O)NC1CCCc2ccccc21)C(C)(C)C

> <Shape>
0.278

> <Color>
0.092

> <Negative vol penalty>
0.000

$$$$

  -OEChem-04042321053D

 85 93  0     1  0  0  0  0  0999 V2000
  -22.4655  -22.8040   17.5005 C   0  0  0  0  0  0  0  0  0  0  0  0
  -23.5516  -21.9724   17.2473 C   0  0  0  0  0  0  0  0  0  0  0  0
  -26.5562  -28.5203   18.8961 C   0  0  0  0  0  0  0  0  0  0  0  0
  -26.2805  -27.5403   21.0871 C   0  0  0  0  0  0  0  0  0  0  0  0
  -21.7255  -22.6453   18.6715 C   0  0  0  0  0  0  0  0  0  0  0  0
  -23.8991  -20.9822   18.1655 C   0  0  0  0  0  0  0  0  0  0  0  0
  -26.1984  -15.4454   16.9154 C   0  0  0  0  0  0  0  0  0  0  0  0
  -30.0708  -19.5123   22.5633 C   0  0  0  0  0  0  0  0  0  0  0  0
  -25.4675  -29.3592   19.1343 C   0  0  0  0  0  0  0  0  0  0  0  0
  -25.1918  -28.3791   21.3253 C   0  0  0  0  0  0  0  0  0  0  0  0
  -27.4999  -14.9457   16.9273 C   0  0  0  0  0  0  0  0  0  0  0  0
  -24.6779  -31.6000   22.2099 C   0  0  0  0  0  0  0  0  0  0  0  0
  -31.3369  -19.2140   23.0670 C   0  0  0  0  0  0  0  0  0  0  0  0
  -24.6112  -32.2366   23.4492 C   0  0  0  0  0  0  0  0  0  0  0  0
  -27.1465  -14.0952   19.1569 C   0  0  0  0  0  0  0  0  0  0  0  0
  -30.2726  -17.6975   20.9812 C   0  0  0  0  0  0  0  0  0  0  0  0
  -22.4989  -31.1510   23.8931 C   0  0  0  0  0  0  0  0  0  0  0  0
  -26.9627  -27.6108   19.8725 C   0  0  0  0  0  0  0  0  0  0  0  0
  -29.4402  -27.0043   19.9138 C   0  0  0  0  0  0  0  0  0  0  0  0
  -22.0582  -21.6464   19.6000 C   0  0  0  0  0  0  0  0  0  0  0  0
  -25.3634  -15.2830   18.0302 C   0  0  0  0  0  0  0  0  0  0  0  0
  -23.1637  -20.8109   19.3507 C   0  0  0  0  0  0  0  0  0  0  0  0
  -25.8340  -14.5915   19.1556 C   0  0  0  0  0  0  0  0  0  0  0  0
  -29.5386  -18.7540   21.5205 C   0  0  0  0  0  0  0  0  0  0  0  0
  -31.5387  -17.3992   21.4849 C   0  0  0  0  0  0  0  0  0  0  0  0
  -24.7854  -29.2886   20.3489 C   0  0  0  0  0  0  0  0  0  0  0  0
  -27.9751  -14.2730   18.0492 C   0  0  0  0  0  0  0  0  0  0  0  0
  -23.6551  -30.7390   21.8121 C   0  0  0  0  0  0  0  0  0  0  0  0
  -23.5217  -32.0121   24.2908 C   0  0  0  0  0  0  0  0  0  0  0  0
  -32.0708  -18.1575   22.5277 C   0  0  0  0  0  0  0  0  0  0  0  0
  -22.5656  -30.5145   22.6537 C   0  0  0  0  0  0  0  0  0  0  0  0
  -28.0869  -26.7437   19.6268 C   0  0  0  0  0  0  0  0  0  0  0  0
  -30.1034  -25.8772   19.4941 C   0  0  0  0  0  0  0  0  0  0  0  0
  -30.0438  -28.1616   20.5070 C   0  0  0  0  0  0  0  0  0  0  0  0
  -23.9079  -17.2597   20.0496 C   0  0  0  0  0  0  0  0  0  0  0  0
  -22.5808  -14.5182   21.1655 C   0  0  0  0  0  0  0  0  0  0  0  0
  -22.7884  -11.1291   21.5080 C   0  0  0  0  0  0  0  0  0  0  0  0
  -28.4087  -20.1799   18.7725 C   0  0  0  0  0  0  0  0  0  0  0  0
  -21.2576  -21.5439   20.8740 C   0  0  0  0  0  0  0  0  0  0  0  0
  -23.9531  -15.8045   17.9914 C   0  0  0  0  0  0  0  0  0  0  0  0
  -24.9707  -14.3729   20.3703 C   0  0  0  0  0  0  0  0  0  0  0  0
  -21.4628  -20.2268   21.6179 C   0  0  0  0  0  0  0  0  0  0  0  0
  -29.8043  -22.3279   16.2996 C   0  0  0  0  0  0  0  0  0  0  0  0
  -22.9477  -19.8893   21.7065 C   0  0  0  0  0  0  0  0  0  0  0  0
  -29.6445  -23.7267   16.8978 C   0  0  0  0  0  0  0  0  0  0  0  0
  -28.6190  -21.4284   16.6433 C   0  0  0  0  0  0  0  0  0  0  0  0
  -28.1496  -22.7335   18.6804 C   0  0  0  0  0  0  0  0  0  0  0  0
  -23.5567  -19.7091   20.3108 C   0  0  1  0  0  0  0  0  0  0  0  0
  -23.3614  -16.0311   19.3791 C   0  0  1  0  0  0  0  0  0  0  0  0
  -29.3469  -23.6601   18.4079 C   0  0  2  0  0  0  0  0  0  0  0  0
  -21.5723   -9.1713   22.5009 C   0  0  0  0  0  0  0  0  0  0  0  0
  -23.5548  -15.3246   23.9424 C   0  0  0  0  0  0  0  0  0  0  0  0
  -23.1721  -12.9646   24.6857 C   0  0  0  0  0  0  0  0  0  0  0  0
  -21.2542  -14.3455   23.8874 C   0  0  0  0  0  0  0  0  0  0  0  0
  -22.4431   -9.8526   18.8603 C   0  0  0  0  0  0  0  0  0  0  0  0
  -32.2006  -14.6125   22.7625 C   0  0  0  0  0  0  0  0  0  0  0  0
  -28.1848  -19.0729   20.9823 C   0  0  0  0  0  0  0  0  0  0  0  0
  -32.3265  -16.2631   20.9022 C   0  0  0  0  0  0  0  0  0  0  0  0
  -31.3971  -13.9021   19.1168 C   0  0  0  0  0  0  0  0  0  0  0  0
  -32.2119  -13.8269   20.3993 C   0  0  0  0  0  0  0  0  0  0  0  0
  -29.9000  -13.7153   19.3298 C   0  0  0  0  0  0  0  0  0  1  0  0
  -22.9533  -13.5008   22.2167 C   0  0  1  0  0  0  0  0  0  0  0  0
  -21.7736  -10.0276   21.2603 C   0  0  2  0  0  0  0  0  0  0  0  0
  -22.7508  -14.0395   23.6611 C   0  0  0  0  0  0  0  0  0  0  0  0
  -27.8999  -25.5452   19.0677 N   0  0  0  0  0  0  0  0  0  0  0  0
  -29.1444  -25.0426   19.0000 N   0  0  0  0  0  0  0  0  0  0  0  0
  -23.6014  -14.9071   20.2864 N   0  0  0  0  0  0  0  0  0  0  0  0
  -28.3911  -21.4076   18.0902 N   0  0  0  0  0  0  0  0  0  0  0  0
  -31.4075  -25.5285   19.5030 N   0  0  0  0  0  0  0  0  0  0  0  0
  -29.2165  -29.2297   20.8799 N   0  0  0  0  0  0  0  0  0  0  0  0
  -23.2033  -18.4147   19.7684 N   0  0  0  0  0  0  0  0  0  0  0  0
  -22.1828  -12.2996   21.9134 N   0  0  0  0  0  0  0  0  0  0  0  0
  -28.1901  -20.2502   20.1429 N   0  0  0  0  0  0  0  0  0  0  0  0
  -22.2281   -9.1450   20.1488 N   0  3  0  0  0  0  0  0  0  0  0  0
  -31.8173  -14.9083   21.3324 N   0  3  1  0  0  0  0  0  0  0  0  0
  -31.2821  -28.2528   20.6856 O   0  0  0  0  0  0  0  0  0  0  0  0
  -24.8949  -17.1665   20.7699 O   0  0  0  0  0  0  0  0  0  0  0  0
  -21.4249  -14.9467   21.1215 O   0  0  0  0  0  0  0  0  0  0  0  0
  -23.9976  -10.9662   21.3606 O   0  0  0  0  0  0  0  0  0  0  0  0
  -28.6099  -19.1017   18.2034 O   0  0  0  0  0  0  0  0  0  0  0  0
  -23.7231  -30.1071   20.5818 O   0  0  0  0  0  0  0  0  0  0  0  0
  -29.2453  -13.7848   18.0637 O   0  0  0  0  0  0  0  0  0  1  0  0
  -23.4585  -32.6223   25.4816 F   0  0  0  0  0  0  0  0  0  0  0  0
  -33.2872  -17.8794   23.0173 F   0  0  0  0  0  0  0  0  0  0  0  0
  -21.5805  -29.6875   22.2775 F   0  0  0  0  0  0  0  0  0  0  0  0
  1  2  1  0  0  0  0
  1  5  2  0  0  0  0
  2  6  2  0  0  0  0
  3  9  2  0  0  0  0
  3 18  1  0  0  0  0
  4 10  1  0  0  0  0
  4 18  2  0  0  0  0
  5 20  1  0  0  0  0
  6 22  1  0  0  0  0
  7 11  2  0  0  0  0
  7 21  1  0  0  0  0
  8 13  2  0  0  0  0
  8 24  1  0  0  0  0
  9 26  1  0  0  0  0
 10 26  2  0  0  0  0
 11 27  1  0  0  0  0
 12 14  2  0  0  0  0
 12 28  1  0  0  0  0
 13 30  1  0  0  0  0
 14 29  1  0  0  0  0
 15 23  1  0  0  0  0
 15 27  2  0  0  0  0
 16 24  2  0  0  0  0
 16 25  1  0  0  0  0
 17 29  2  0  0  0  0
 17 31  1  0  0  0  0
 18 32  1  0  0  0  0
 19 32  1  0  0  0  0
 19 33  2  0  0  0  0
 19 34  1  0  0  0  0
 20 22  2  0  0  0  0
 20 39  1  0  0  0  0
 21 23  2  0  0  0  0
 21 40  1  0  0  0  0
 22 48  1  0  0  0  0
 23 41  1  0  0  0  0
 24 57  1  0  0  0  0
 25 30  2  0  0  0  0
 25 58  1  0  0  0  0
 26 81  1  0  0  0  0
 27 82  1  0  0  0  0
 28 31  2  0  0  0  0
 28 81  1  0  0  0  0
 29 83  1  0  0  0  0
 30 84  1  0  0  0  0
 31 85  1  0  0  0  0
 32 65  2  0  0  0  0
 33 66  1  0  0  0  0
 33 69  1  0  0  0  0
 34 70  1  0  0  0  0
 34 76  2  0  0  0  0
 35 49  1  0  0  0  0
 35 71  1  0  0  0  0
 35 77  2  0  0  0  0
 36 62  1  0  0  0  0
 36 67  1  0  0  0  0
 36 78  2  0  0  0  0
 37 63  1  0  0  0  0
 37 72  1  0  0  0  0
 37 79  2  0  0  0  0
 38 68  1  0  0  0  0
 38 73  1  0  0  0  0
 38 80  2  0  0  0  0
 39 42  1  0  0  0  0
 40 49  1  0  0  0  0
 41 67  1  0  0  0  0
 42 44  1  0  0  0  0
 43 45  1  0  0  0  0
 43 46  1  0  0  0  0
 44 48  1  0  0  0  0
 45 50  1  0  0  0  0
 46 68  1  0  0  0  0
 47 50  1  0  0  0  0
 47 68  1  0  0  0  0
 48 71  1  0  0  0  0
 49 67  1  0  0  0  0
 50 66  1  0  0  0  0
 51 63  1  0  0  0  0
 52 64  1  0  0  0  0
 53 64  1  0  0  0  0
 54 64  1  0  0  0  0
 55 74  1  0  0  0  0
 56 75  1  0  0  0  0
 57 73  1  0  0  0  0
 58 75  1  0  0  0  0
 59 60  1  0  0  0  0
 59 61  1  0  0  0  0
 60 75  1  0  0  0  0
 61 82  1  0  0  0  0
 62 64  1  0  0  0  0
 62 72  1  0  0  0  0
 63 74  1  0  0  0  0
 65 66  1  0  0  0  0
M  CHG  2  74   1  75   1
M  ISO  4  38 100  61 101  73 100  82 101
M  END
> <Batch ID>
0019

> <Smiles>
CNC(C)C(=O)NC(C(=O)N1Cc2cc([101O:1][101CH2:1]CCN(C)Cc3cc(C[100NH:0][100C:0](=O)N4CCCC(n5nc(-c6ccc(Oc7ccc(F)cc7F)cc6)c(C(N)=O)c5N)C4)ccc3F)ccc2CC1C(=O)NC1CCCc2ccccc21)C(C)(C)C

> <Shape>
0.262

> <Color>
0.051

> <Negative vol penalty>
0.000

$$$$

  -OEChem-04042321053D

 83 91  0     1  0  0  0  0  0999 V2000
  -17.7997  -25.8462   22.9731 C   0  0  0  0  0  0  0  0  0  0  0  0
  -19.0111  -25.5904   22.3387 C   0  0  0  0  0  0  0  0  0  0  0  0
  -25.6546  -14.4813   20.4772 C   0  0  0  0  0  0  0  0  0  0  0  0
  -25.1025  -15.8105   18.5367 C   0  0  0  0  0  0  0  0  0  0  0  0
  -17.3548  -27.1593   23.1203 C   0  0  0  0  0  0  0  0  0  0  0  0
  -19.7779  -26.6476   21.8501 C   0  0  0  0  0  0  0  0  0  0  0  0
  -25.8900  -26.9954   21.6876 C   0  0  0  0  0  0  0  0  0  0  0  0
  -24.5700  -13.6450   20.2130 C   0  0  0  0  0  0  0  0  0  0  0  0
  -24.0179  -14.9742   18.2724 C   0  0  0  0  0  0  0  0  0  0  0  0
  -26.8162  -26.7606   20.6723 C   0  0  0  0  0  0  0  0  0  0  0  0
  -21.2186  -13.7003   20.6482 C   0  0  0  0  0  0  0  0  0  0  0  0
  -20.4025  -13.3402   21.7205 C   0  0  0  0  0  0  0  0  0  0  0  0
  -26.8501  -29.1189   20.1660 C   0  0  0  0  0  0  0  0  0  0  0  0
  -32.1803  -24.0570   17.3915 C   0  0  0  0  0  0  0  0  0  0  0  0
  -30.6070  -24.8456   19.5562 C   0  0  0  0  0  0  0  0  0  0  0  0
  -20.9151  -11.0119   21.3287 C   0  0  0  0  0  0  0  0  0  0  0  0
  -25.9208  -15.5641   19.6392 C   0  0  0  0  0  0  0  0  0  0  0  0
  -28.3592  -16.2867   19.4394 C   0  0  0  0  0  0  0  0  0  0  0  0
  -18.1211  -28.2338   22.6418 C   0  0  0  0  0  0  0  0  0  0  0  0
  -25.4279  -28.2945   21.9429 C   0  0  0  0  0  0  0  0  0  0  0  0
  -19.3422  -27.9763   21.9899 C   0  0  0  0  0  0  0  0  0  0  0  0
  -25.9199  -29.3679   21.1868 C   0  0  0  0  0  0  0  0  0  0  0  0
  -31.5821  -23.0954   18.2058 C   0  0  0  0  0  0  0  0  0  0  0  0
  -31.9920  -25.4129   17.6596 C   0  0  0  0  0  0  0  0  0  0  0  0
  -30.7954  -23.4897   19.2881 C   0  0  0  0  0  0  0  0  0  0  0  0
  -31.2053  -25.8071   18.7419 C   0  0  0  0  0  0  0  0  0  0  0  0
  -23.7516  -13.8914   19.1106 C   0  0  0  0  0  0  0  0  0  0  0  0
  -27.2942  -27.8220   19.9094 C   0  0  0  0  0  0  0  0  0  0  0  0
  -21.8829  -12.7162   19.9161 C   0  0  0  0  0  0  0  0  0  0  0  0
  -20.2507  -11.9960   22.0608 C   0  0  0  0  0  0  0  0  0  0  0  0
  -21.7312  -11.3721   20.2564 C   0  0  0  0  0  0  0  0  0  0  0  0
  -27.0407  -16.4287   19.9119 C   0  0  0  0  0  0  0  0  0  0  0  0
  -29.0339  -17.3549   19.9781 C   0  0  0  0  0  0  0  0  0  0  0  0
  -28.9235  -15.2794   18.5894 C   0  0  0  0  0  0  0  0  0  0  0  0
  -22.5924  -29.7274   21.8399 C   0  0  0  0  0  0  0  0  0  0  0  0
  -24.2403  -32.2181   23.1061 C   0  0  0  0  0  0  0  0  0  0  0  0
  -27.2411  -33.7838   23.5431 C   0  0  0  0  0  0  0  0  0  0  0  0
  -29.3736  -22.7678   21.2384 C   0  0  0  0  0  0  0  0  0  0  0  0
  -17.5764  -29.6331   22.7821 C   0  0  0  0  0  0  0  0  0  0  0  0
  -24.4489  -28.5347   23.0593 C   0  0  0  0  0  0  0  0  0  0  0  0
  -25.4708  -30.7840   21.4343 C   0  0  0  0  0  0  0  0  0  0  0  0
  -18.6270  -30.7199   22.5693 C   0  0  0  0  0  0  0  0  0  0  0  0
  -27.6436  -20.6725   23.5393 C   0  0  0  0  0  0  0  0  0  0  0  0
  -19.4569  -30.4237   21.3242 C   0  0  0  0  0  0  0  0  0  0  0  0
  -27.4410  -19.3700   22.7619 C   0  0  0  0  0  0  0  0  0  0  0  0
  -27.5126  -21.8980   22.6367 C   0  0  0  0  0  0  0  0  0  0  0  0
  -28.1572  -20.5766   20.6599 C   0  0  0  0  0  0  0  0  0  0  0  0
  -20.2140  -29.0980   21.4685 C   0  0  1  0  0  0  0  0  0  0  0  0
  -23.6591  -29.8293   22.8932 C   0  0  1  0  0  0  0  0  0  0  0  0
  -28.3441  -19.3121   21.5142 C   0  0  2  0  0  0  0  0  0  0  0  0
  -31.8012  -21.6504   17.8947 C   0  0  0  0  0  0  0  0  0  0  0  0
  -32.6447  -26.4223   16.7721 C   0  0  0  0  0  0  0  0  0  0  0  0
  -28.2659  -35.8208   24.5907 C   0  0  0  0  0  0  0  0  0  0  0  0
  -23.1502  -33.9337   20.8305 C   0  0  0  0  0  0  0  0  0  0  0  0
  -24.9095  -35.6338   21.3625 C   0  0  0  0  0  0  0  0  0  0  0  0
  -23.1783  -35.0586   23.0640 C   0  0  0  0  0  0  0  0  0  0  0  0
  -31.4270  -27.7130   20.3162 C   0  0  0  0  0  0  0  0  0  0  0  0
  -28.9493  -32.1506   25.3246 C   0  0  0  0  0  0  0  0  0  0  0  0
  -30.4000  -28.0545   18.0630 C   0  0  0  0  0  0  0  0  0  0  0  0
  -29.1180  -28.6462   18.6247 C   0  0  0  0  0  0  0  0  0  1  0  0
  -25.0054  -33.3909   22.5421 C   0  0  1  0  0  0  0  0  0  0  0  0
  -27.9082  -34.3551   24.7813 C   0  0  2  0  0  0  0  0  0  0  0  0
  -24.0681  -34.4774   21.9436 C   0  0  0  0  0  0  0  0  0  0  0  0
  -26.8850  -17.5024   20.6911 N   0  0  0  0  0  0  0  0  0  0  0  0
  -28.1145  -18.0447   20.7123 N   0  0  0  0  0  0  0  0  0  0  0  0
  -24.5078  -30.9668   22.5328 N   0  0  0  0  0  0  0  0  0  0  0  0
  -28.4001  -21.7750   21.4782 N   0  0  0  0  0  0  0  0  0  0  0  0
  -30.3181  -17.7620   19.8907 N   0  0  0  0  0  0  0  0  0  0  0  0
  -28.0895  -14.2533   18.1247 N   0  0  0  0  0  0  0  0  0  0  0  0
  -30.1807  -22.5273   20.1270 N   0  0  0  0  0  0  0  0  0  0  0  0
  -21.3772  -29.2695   22.3123 N   0  0  0  0  0  0  0  0  0  0  0  0
  -25.8670  -33.8712   23.6170 N   0  0  0  0  0  0  0  0  0  0  0  0
  -31.0062  -27.1646   19.0266 N   0  0  3  0  0  0  0  0  0  0  0  0
  -29.1570  -33.6029   25.0905 N   0  3  0  0  0  0  0  0  0  0  0  0
  -30.1353  -15.2798   18.2653 O   0  0  0  0  0  0  0  0  0  0  0  0
  -22.8522  -30.0423   20.6845 O   0  0  0  0  0  0  0  0  0  0  0  0
  -23.4402  -32.4042   24.0263 O   0  0  0  0  0  0  0  0  0  0  0  0
  -27.8755  -33.3109   22.6027 O   0  0  0  0  0  0  0  0  0  0  0  0
  -29.5010  -23.7446   21.9811 O   0  0  0  0  0  0  0  0  0  0  0  0
  -22.6934  -13.0754   18.8522 O   0  0  0  0  0  0  0  0  0  0  0  0
  -28.1978  -27.5955   18.9174 O   0  0  0  0  0  0  0  0  0  1  0  0
  -19.4682  -11.6504   23.0916 F   0  0  0  0  0  0  0  0  0  0  0  0
  -22.3678  -10.4223   19.5574 F   0  0  0  0  0  0  0  0  0  0  0  0
  1  2  1  0  0  0  0
  1  5  2  0  0  0  0
  2  6  2  0  0  0  0
  3  8  2  0  0  0  0
  3 17  1  0  0  0  0
  4  9  1  0  0  0  0
  4 17  2  0  0  0  0
  5 19  1  0  0  0  0
  6 21  1  0  0  0  0
  7 10  2  0  0  0  0
  7 20  1  0  0  0  0
  8 27  1  0  0  0  0
  9 27  2  0  0  0  0
 10 28  1  0  0  0  0
 11 12  2  0  0  0  0
 11 29  1  0  0  0  0
 12 30  1  0  0  0  0
 13 22  1  0  0  0  0
 13 28  2  0  0  0  0
 14 23  2  0  0  0  0
 14 24  1  0  0  0  0
 15 25  2  0  0  0  0
 15 26  1  0  0  0  0
 16 30  2  0  0  0  0
 16 31  1  0  0  0  0
 17 32  1  0  0  0  0
 18 32  1  0  0  0  0
 18 33  2  0  0  0  0
 18 34  1  0  0  0  0
 19 21  2  0  0  0  0
 19 39  1  0  0  0  0
 20 22  2  0  0  0  0
 20 40  1  0  0  0  0
 21 48  1  0  0  0  0
 22 41  1  0  0  0  0
 23 25  1  0  0  0  0
 23 51  1  0  0  0  0
 24 26  2  0  0  0  0
 24 52  1  0  0  0  0
 25 70  1  0  0  0  0
 26 73  1  0  0  0  0
 27 80  1  0  0  0  0
 28 81  1  0  0  0  0
 29 31  2  0  0  0  0
 29 80  1  0  0  0  0
 30 82  1  0  0  0  0
 31 83  1  0  0  0  0
 32 64  2  0  0  0  0
 33 65  1  0  0  0  0
 33 68  1  0  0  0  0
 34 69  1  0  0  0  0
 34 75  2  0  0  0  0
 35 49  1  0  0  0  0
 35 71  1  0  0  0  0
 35 76  2  0  0  0  0
 36 61  1  0  0  0  0
 36 66  1  0  0  0  0
 36 77  2  0  0  0  0
 37 62  1  0  0  0  0
 37 72  1  0  0  0  0
 37 78  2  0  0  0  0
 38 67  1  0  0  0  0
 38 70  1  0  0  0  0
 38 79  2  0  0  0  0
 39 42  1  0  0  0  0
 40 49  1  0  0  0  0
 41 66  1  0  0  0  0
 42 44  1  0  0  0  0
 43 45  1  0  0  0  0
 43 46  1  0  0  0  0
 44 48  1  0  0  0  0
 45 50  1  0  0  0  0
 46 67  1  0  0  0  0
 47 50  1  0  0  0  0
 47 67  1  0  0  0  0
 48 71  1  0  0  0  0
 49 66  1  0  0  0  0
 50 65  1  0  0  0  0
 53 62  1  0  0  0  0
 54 63  1  0  0  0  0
 55 63  1  0  0  0  0
 56 63  1  0  0  0  0
 57 73  1  0  0  0  0
 58 74  1  0  0  0  0
 59 60  1  0  0  0  0
 59 73  1  0  0  0  0
 60 81  1  0  0  0  0
 61 63  1  0  0  0  0
 61 72  1  0  0  0  0
 62 74  1  0  0  0  0
 64 65  1  0  0  0  0
M  CHG  1  74   1
M  ISO  4  38 100  60 101  70 100  81 101
M  END
> <Batch ID>
0019

> <Smiles>
CNC(C)C(=O)NC(C(=O)N1Cc2cc([101O:1][101CH2:1]CN(C)c3cc([100NH:0][100C:0](=O)N4CCCC(n5nc(-c6ccc(Oc7ccc(F)cc7F)cc6)c(C(N)=O)c5N)C4)c(C)cc3C)ccc2CC1C(=O)NC1CCCc2ccccc21)C(C)(C)C

> <Shape>
0.296

> <Color>
0.095

> <Negative vol penalty>
0.000

$$$$

  -OEChem-04042321053D

 86 95  0     1  0  0  0  0  0999 V2000
  -30.4286  -16.1327   20.7428 C   0  0  0  0  0  0  0  0  0  0  0  0
  -29.1211  -16.5637   20.5421 C   0  0  0  0  0  0  0  0  0  0  0  0
  -22.8366  -17.9571   21.6322 C   0  0  0  0  0  0  0  0  0  0  0  0
  -24.2677  -17.0391   23.3487 C   0  0  0  0  0  0  0  0  0  0  0  0
  -31.3286  -16.9401   21.4370 C   0  0  0  0  0  0  0  0  0  0  0  0
  -28.7127  -17.8019   21.0366 C   0  0  0  0  0  0  0  0  0  0  0  0
  -24.2993  -23.2376   19.5229 C   0  0  0  0  0  0  0  0  0  0  0  0
  -19.2573  -27.1463   23.9305 C   0  0  0  0  0  0  0  0  0  0  0  0
  -23.4281  -17.1163   20.6894 C   0  0  0  0  0  0  0  0  0  0  0  0
  -24.8591  -16.1983   22.4060 C   0  0  0  0  0  0  0  0  0  0  0  0
  -23.2875  -23.9983   20.1072 C   0  0  0  0  0  0  0  0  0  0  0  0
  -24.1148  -13.2942   20.8462 C   0  0  0  0  0  0  0  0  0  0  0  0
  -18.6148  -28.1493   23.2049 C   0  0  0  0  0  0  0  0  0  0  0  0
  -24.3070  -11.9590   21.2010 C   0  0  0  0  0  0  0  0  0  0  0  0
  -24.9510  -25.3429   21.2226 C   0  0  0  0  0  0  0  0  0  0  0  0
  -26.6877  -12.2164   20.8795 C   0  0  0  0  0  0  0  0  0  0  0  0
  -23.2565  -17.9185   22.9619 C   0  0  0  0  0  0  0  0  0  0  0  0
  -21.5172  -18.5128   24.7309 C   0  0  0  0  0  0  0  0  0  0  0  0
  -30.9337  -18.1930   21.9318 C   0  0  0  0  0  0  0  0  0  0  0  0
  -25.6465  -23.5174   19.7930 C   0  0  0  0  0  0  0  0  0  0  0  0
  -29.6079  -18.6262   21.7392 C   0  0  0  0  0  0  0  0  0  0  0  0
  -25.9780  -24.5859   20.6384 C   0  0  0  0  0  0  0  0  0  0  0  0
  -20.3507  -26.3878   21.9140 C   0  0  0  0  0  0  0  0  0  0  0  0
  -19.7081  -27.3909   21.1883 C   0  0  0  0  0  0  0  0  0  0  0  0
  -20.1253  -26.2655   23.2851 C   0  0  0  0  0  0  0  0  0  0  0  0
  -24.4393  -16.2369   21.0763 C   0  0  0  0  0  0  0  0  0  0  0  0
  -23.6132  -25.0493   20.9595 C   0  0  0  0  0  0  0  0  0  0  0  0
  -25.2090  -14.0905   20.5079 C   0  0  0  0  0  0  0  0  0  0  0  0
  -25.5935  -11.4201   21.2177 C   0  0  0  0  0  0  0  0  0  0  0  0
  -18.8401  -28.2716   21.8338 C   0  0  0  0  0  0  0  0  0  0  0  0
  -26.4954  -13.5516   20.5246 C   0  0  0  0  0  0  0  0  0  0  0  0
  -22.6463  -18.7872   23.9361 C   0  0  0  0  0  0  0  0  0  0  0  0
  -21.3434  -19.6481   25.4841 C   0  0  0  0  0  0  0  0  0  0  0  0
  -20.6988  -17.3367   24.7837 C   0  0  0  0  0  0  0  0  0  0  0  0
  -28.0443  -21.9189   21.1344 C   0  0  0  0  0  0  0  0  0  0  0  0
  -29.7752  -24.4945   20.1896 C   0  0  0  0  0  0  0  0  0  0  0  0
  -29.8229  -27.7990   19.3381 C   0  0  0  0  0  0  0  0  0  0  0  0
  -22.0328  -25.4592   24.6658 C   0  0  0  0  0  0  0  0  0  0  0  0
  -31.9290  -19.0100   22.7171 C   0  0  0  0  0  0  0  0  0  0  0  0
  -26.7267  -22.7044   19.1337 C   0  0  0  0  0  0  0  0  0  0  0  0
  -27.4095  -24.9401   20.9448 C   0  0  0  0  0  0  0  0  0  0  0  0
  -31.5210  -20.4716   22.8835 C   0  0  0  0  0  0  0  0  0  0  0  0
  -24.2174  -23.4262   26.8349 C   0  0  0  0  0  0  0  0  0  0  0  0
  -22.4072  -30.1915   19.0160 C   0  0  0  0  0  0  0  0  0  0  0  0
  -21.8626  -29.7339   17.6778 C   0  0  0  0  0  0  0  0  0  0  0  0
  -30.0586  -20.5729   23.3053 C   0  0  0  0  0  0  0  0  0  0  0  0
  -23.9717  -22.0055   26.3298 C   0  0  0  0  0  0  0  0  0  0  0  0
  -24.0356  -24.4606   25.7281 C   0  0  0  0  0  0  0  0  0  0  0  0
  -22.4674  -22.9595   24.5376 C   0  0  0  0  0  0  0  0  0  0  0  0
  -21.4804  -29.5100   19.9996 C   0  0  0  0  0  0  0  0  0  0  0  0
  -21.5330  -28.2676   17.8958 C   0  0  0  0  0  0  0  0  0  0  0  0
  -29.1340  -19.9737   22.2388 C   0  0  1  0  0  0  0  0  0  0  0  0
  -28.0537  -22.7530   19.8846 C   0  0  1  0  0  0  0  0  0  0  0  0
  -22.6008  -21.8979   25.6399 C   0  0  1  0  0  0  0  0  0  0  0  0
  -31.3909  -29.6337   18.6506 C   0  0  0  0  0  0  0  0  0  0  0  0
  -30.7418  -24.7456   23.0728 C   0  0  0  0  0  0  0  0  0  0  0  0
  -31.5018  -27.0713   22.5421 C   0  0  0  0  0  0  0  0  0  0  0  0
  -32.5074  -25.1284   21.3435 C   0  0  0  0  0  0  0  0  0  0  0  0
  -20.0174  -24.0312   24.4043 C   0  0  0  0  0  0  0  0  0  0  0  0
  -28.4441  -28.1637   16.7449 C   0  0  0  0  0  0  0  0  0  0  0  0
  -19.9340  -27.5410   19.7193 C   0  0  0  0  0  0  0  0  0  0  0  0
  -21.2815  -25.4410   21.2150 C   0  0  0  0  0  0  0  0  0  1  0  0
  -30.1369  -25.8241   20.8064 C   0  0  1  0  0  0  0  0  0  0  0  0
  -30.4620  -28.5293   18.1708 C   0  0  2  0  0  0  0  0  0  0  0  0
  -31.1949  -25.6847   21.9372 C   0  0  0  0  0  0  0  0  0  0  0  0
  -23.1538  -20.0017   24.1631 N   0  0  0  0  0  0  0  0  0  0  0  0
  -22.3399  -20.5005   25.1091 N   0  0  0  0  0  0  0  0  0  0  0  0
  -28.4295  -24.1117   20.2809 N   0  0  0  0  0  0  0  0  0  0  0  0
  -22.7435  -24.3072   25.0584 N   0  0  0  0  0  0  0  0  0  0  0  0
  -20.4369  -19.9905   26.4240 N   0  0  0  0  0  0  0  0  0  0  0  0
  -21.0178  -16.2624   23.9421 N   0  0  0  0  0  0  0  0  0  0  0  0
  -28.9724  -20.8952   21.1346 N   0  0  0  0  0  0  0  0  0  0  0  0
  -30.5502  -26.6863   19.7044 N   0  0  0  0  0  0  0  0  0  0  0  0
  -20.7795  -25.2348   24.0561 N   0  0  0  0  0  0  0  0  0  0  0  0
  -21.2593  -28.1459   19.3837 N   0  3  0  0  0  0  0  0  0  0  0  0
  -29.4137  -29.1399   17.3052 N   0  3  0  0  0  0  0  0  0  0  0  0
  -19.7039  -17.2477   25.5425 O   0  0  0  0  0  0  0  0  0  0  0  0
  -27.2546  -22.1854   22.0327 O   0  0  0  0  0  0  0  0  0  0  0  0
  -30.6529  -23.8238   19.6407 O   0  0  0  0  0  0  0  0  0  0  0  0
  -28.7844  -28.1798   19.8740 O   0  0  0  0  0  0  0  0  0  0  0  0
  -22.4706  -26.5975   24.8713 O   0  0  0  0  0  0  0  0  0  0  0  0
  -25.0165  -15.4161   20.1566 O   0  0  0  0  0  0  0  0  0  0  0  0
  -22.6276  -25.7929   21.5318 O   0  0  0  0  0  0  0  0  0  1  0  0
  -25.7781  -10.1383   21.5600 F   0  0  0  0  0  0  0  0  0  0  0  0
  -18.2180  -29.2395   21.1460 F   0  0  0  0  0  0  0  0  0  0  0  0
  -27.5506  -14.3120   20.2018 F   0  0  0  0  0  0  0  0  0  0  0  0
  1  2  1  0  0  0  0
  1  5  2  0  0  0  0
  2  6  2  0  0  0  0
  3  9  2  0  0  0  0
  3 17  1  0  0  0  0
  4 10  1  0  0  0  0
  4 17  2  0  0  0  0
  5 19  1  0  0  0  0
  6 21  1  0  0  0  0
  7 11  2  0  0  0  0
  7 20  1  0  0  0  0
  8 13  1  0  0  0  0
  8 25  2  0  0  0  0
  9 26  1  0  0  0  0
 10 26  2  0  0  0  0
 11 27  1  0  0  0  0
 12 14  2  0  0  0  0
 12 28  1  0  0  0  0
 13 30  2  0  0  0  0
 14 29  1  0  0  0  0
 15 22  1  0  0  0  0
 15 27  2  0  0  0  0
 16 29  2  0  0  0  0
 16 31  1  0  0  0  0
 17 32  1  0  0  0  0
 18 32  1  0  0  0  0
 18 33  2  0  0  0  0
 18 34  1  0  0  0  0
 19 21  2  0  0  0  0
 19 39  1  0  0  0  0
 20 22  2  0  0  0  0
 20 40  1  0  0  0  0
 21 52  1  0  0  0  0
 22 41  1  0  0  0  0
 23 24  2  0  0  0  0
 23 25  1  0  0  0  0
 23 62  1  0  0  0  0
 24 30  1  0  0  0  0
 24 61  1  0  0  0  0
 25 74  1  0  0  0  0
 26 82  1  0  0  0  0
 27 83  1  0  0  0  0
 28 31  2  0  0  0  0
 28 82  1  0  0  0  0
 29 84  1  0  0  0  0
 30 85  1  0  0  0  0
 31 86  1  0  0  0  0
 32 66  2  0  0  0  0
 33 67  1  0  0  0  0
 33 70  1  0  0  0  0
 34 71  1  0  0  0  0
 34 77  2  0  0  0  0
 35 53  1  0  0  0  0
 35 72  1  0  0  0  0
 35 78  2  0  0  0  0
 36 63  1  0  0  0  0
 36 68  1  0  0  0  0
 36 79  2  0  0  0  0
 37 64  1  0  0  0  0
 37 73  1  0  0  0  0
 37 80  2  0  0  0  0
 38 69  1  0  0  0  0
 38 74  1  0  0  0  0
 38 81  2  0  0  0  0
 39 42  1  0  0  0  0
 40 53  1  0  0  0  0
 41 68  1  0  0  0  0
 42 46  1  0  0  0  0
 43 47  1  0  0  0  0
 43 48  1  0  0  0  0
 44 45  1  0  0  0  0
 44 50  1  0  0  0  0
 45 51  1  0  0  0  0
 46 52  1  0  0  0  0
 47 54  1  0  0  0  0
 48 69  1  0  0  0  0
 49 54  1  0  0  0  0
 49 69  1  0  0  0  0
 50 75  1  0  0  0  0
 51 75  1  0  0  0  0
 52 72  1  0  0  0  0
 53 68  1  0  0  0  0
 54 67  1  0  0  0  0
 55 64  1  0  0  0  0
 56 65  1  0  0  0  0
 57 65  1  0  0  0  0
 58 65  1  0  0  0  0
 59 74  1  0  0  0  0
 60 76  1  0  0  0  0
 61 75  1  0  0  0  0
 62 83  1  0  0  0  0
 63 65  1  0  0  0  0
 63 73  1  0  0  0  0
 64 76  1  0  0  0  0
 66 67  1  0  0  0  0
M  CHG  2  75   1  76   1
M  ISO  4  38 100  62 101  74 100  83 101
M  END
> <Batch ID>
0019

> <Smiles>
CNC(C)C(=O)NC(C(=O)N1Cc2cc([101O:1][101CH2:1]c3c([100N:0](C)[100C:0](=O)N4CCCC(n5nc(-c6ccc(Oc7ccc(F)cc7F)cc6)c(C(N)=O)c5N)C4)ccc(F)c3CN3CCCC3)ccc2CC1C(=O)NC1CCCc2ccccc21)C(C)(C)C

> <Shape>
0.178

> <Color>
0.052

> <Negative vol penalty>
0.000

$$$$

  -OEChem-04042321053D

 89 97  0     1  0  0  0  0  0999 V2000
  -23.6756  -33.3456   19.1005 C   0  0  0  0  0  0  0  0  0  0  0  0
  -24.0008  -32.5336   18.0186 C   0  0  0  0  0  0  0  0  0  0  0  0
  -23.1573   -9.8093   19.9159 C   0  0  0  0  0  0  0  0  0  0  0  0
  -24.1689   -9.7334   22.1086 C   0  0  0  0  0  0  0  0  0  0  0  0
  -23.9214  -32.9047   20.4002 C   0  0  0  0  0  0  0  0  0  0  0  0
  -24.5730  -31.2807   18.2358 C   0  0  0  0  0  0  0  0  0  0  0  0
  -24.7631  -24.6749   15.4712 C   0  0  0  0  0  0  0  0  0  0  0  0
  -30.5568  -17.7018   18.3134 C   0  0  0  0  0  0  0  0  0  0  0  0
  -31.2108  -18.6843   17.5701 C   0  0  0  0  0  0  0  0  0  0  0  0
  -22.5384   -8.5831   20.1589 C   0  0  0  0  0  0  0  0  0  0  0  0
  -23.5500   -8.5072   22.3517 C   0  0  0  0  0  0  0  0  0  0  0  0
  -25.6766  -23.7076   15.0543 C   0  0  0  0  0  0  0  0  0  0  0  0
  -20.4826   -7.3993   23.2373 C   0  0  0  0  0  0  0  0  0  0  0  0
  -19.8684   -7.2195   24.4767 C   0  0  0  0  0  0  0  0  0  0  0  0
  -25.9827  -23.0180   17.3456 C   0  0  0  0  0  0  0  0  0  0  0  0
  -29.8866  -19.3694   19.9280 C   0  0  0  0  0  0  0  0  0  0  0  0
  -21.3320   -5.3518   24.9310 C   0  0  0  0  0  0  0  0  0  0  0  0
  -23.9726  -10.3844   20.8908 C   0  0  0  0  0  0  0  0  0  0  0  0
  -24.1012  -12.9320   20.9206 C   0  0  0  0  0  0  0  0  0  0  0  0
  -24.4880  -31.6418   20.6337 C   0  0  0  0  0  0  0  0  0  0  0  0
  -24.4603  -24.8285   16.8317 C   0  0  0  0  0  0  0  0  0  0  0  0
  -24.8279  -30.8231   19.5398 C   0  0  0  0  0  0  0  0  0  0  0  0
  -25.0631  -23.9862   17.7769 C   0  0  0  0  0  0  0  0  0  0  0  0
  -29.8946  -18.0444   19.4923 C   0  0  0  0  0  0  0  0  0  0  0  0
  -31.2028  -20.0094   18.0057 C   0  0  0  0  0  0  0  0  0  0  0  0
  -30.5407  -20.3520   19.1847 C   0  0  0  0  0  0  0  0  0  0  0  0
  -22.7347   -7.9321   21.3768 C   0  0  0  0  0  0  0  0  0  0  0  0
  -26.2887  -22.8809   15.9919 C   0  0  0  0  0  0  0  0  0  0  0  0
  -21.5215   -6.5553   22.8448 C   0  0  0  0  0  0  0  0  0  0  0  0
  -20.2931   -6.1958   25.3235 C   0  0  0  0  0  0  0  0  0  0  0  0
  -21.9462   -5.5316   23.6917 C   0  0  0  0  0  0  0  0  0  0  0  0
  -24.6126  -11.6508   20.6401 C   0  0  0  0  0  0  0  0  0  0  0  0
  -25.0836  -13.7939   20.4982 C   0  0  0  0  0  0  0  0  0  0  0  0
  -22.8500  -13.3093   21.5104 C   0  0  0  0  0  0  0  0  0  0  0  0
  -24.7838  -27.1757   18.9506 C   0  0  0  0  0  0  0  0  0  0  0  0
  -23.1330  -25.1460   20.8685 C   0  0  0  0  0  0  0  0  0  0  0  0
  -22.2166  -21.9375   21.5845 C   0  0  0  0  0  0  0  0  0  0  0  0
  -30.6510  -14.9417   20.5609 C   0  0  0  0  0  0  0  0  0  0  0  0
  -24.7787  -31.2281   22.0547 C   0  0  0  0  0  0  0  0  0  0  0  0
  -23.4526  -25.8588   17.2625 C   0  0  0  0  0  0  0  0  0  0  0  0
  -24.7570  -24.0971   19.2474 C   0  0  0  0  0  0  0  0  0  0  0  0
  -25.0424  -29.7328   22.2119 C   0  0  0  0  0  0  0  0  0  0  0  0
  -29.2434  -12.9821   17.7538 C   0  0  0  0  0  0  0  0  0  0  0  0
  -26.0113  -29.2459   21.1391 C   0  0  0  0  0  0  0  0  0  0  0  0
  -27.9026  -12.5119   18.3151 C   0  0  0  0  0  0  0  0  0  0  0  0
  -30.2759  -13.1967   18.8563 C   0  0  0  0  0  0  0  0  0  0  0  0
  -28.4814  -13.6449   20.4973 C   0  0  0  0  0  0  0  0  0  0  0  0
  -25.4271  -29.4474   19.7356 C   0  0  1  0  0  0  0  0  0  0  0  0
  -23.6062  -26.2705   18.7234 C   0  0  1  0  0  0  0  0  0  0  0  0
  -27.4048  -13.4639   19.4166 C   0  0  2  0  0  0  0  0  0  0  0  0
  -20.8931  -20.5888   23.2357 C   0  0  0  0  0  0  0  0  0  0  0  0
  -25.3758  -25.4543   22.9142 C   0  0  0  0  0  0  0  0  0  0  0  0
  -24.5023  -23.4155   24.0755 C   0  0  0  0  0  0  0  0  0  0  0  0
  -23.0712  -25.4498   23.8854 C   0  0  0  0  0  0  0  0  0  0  0  0
  -30.7284  -16.7751   22.2078 C   0  0  0  0  0  0  0  0  0  0  0  0
  -20.3826  -20.9489   19.4826 C   0  0  0  0  0  0  0  0  0  0  0  0
  -32.4228  -21.7116   14.8444 C   0  0  0  0  0  0  0  0  0  0  0  0
  -29.1959  -16.9936   20.2871 C   0  0  0  0  0  0  0  0  0  0  0  0
  -31.9142  -21.0484   17.1901 C   0  0  0  0  0  0  0  0  0  0  0  0
  -29.2842  -21.5126   14.5149 C   0  0  0  0  0  0  0  0  0  0  0  0
  -30.1041  -21.9318   15.7259 C   0  0  0  0  0  0  0  0  0  0  0  0
  -27.9381  -22.2191   14.4115 C   0  0  0  0  0  0  0  0  0  1  0  0
  -23.5052  -24.0432   21.8299 C   0  0  1  0  0  0  0  0  0  0  0  0
  -20.8657  -21.3234   21.9044 C   0  0  2  0  0  0  0  0  0  0  0  0
  -30.5190  -21.7640   19.6709 C   0  0  0  0  0  0  0  0  0  0  0  0
  -24.1210  -24.5897   23.1488 C   0  0  0  0  0  0  0  0  0  0  0  0
  -25.8256  -11.6905   20.0824 N   0  0  0  0  0  0  0  0  0  0  0  0
  -26.0846  -13.0072   20.0090 N   0  0  0  0  0  0  0  0  0  0  0  0
  -23.7698  -25.1240   19.6195 N   0  0  0  0  0  0  0  0  0  0  0  0
  -29.7613  -14.0704   19.9112 N   0  0  0  0  0  0  0  0  0  0  0  0
  -25.1802  -15.1404   20.5010 N   0  0  0  0  0  0  0  0  0  0  0  0
  -21.9565  -12.2972   21.8867 N   0  0  0  0  0  0  0  0  0  0  0  0
  -24.4483  -28.4222   19.4437 N   0  0  0  0  0  0  0  0  0  0  0  0
  -22.3000  -23.2433   22.0197 N   0  0  0  0  0  0  0  0  0  0  0  0
  -30.1268  -16.1531   21.0369 N   0  0  0  0  0  0  0  0  0  0  0  0
  -20.4720  -20.3557   20.8417 N   0  3  0  0  0  0  0  0  0  0  0  0
  -31.3737  -21.1701   15.7855 N   0  3  1  0  0  0  0  0  0  0  0  0
  -22.5267  -14.5090   21.6831 O   0  0  0  0  0  0  0  0  0  0  0  0
  -25.9132  -26.7725   18.6988 O   0  0  0  0  0  0  0  0  0  0  0  0
  -22.3025  -25.9916   21.2103 O   0  0  0  0  0  0  0  0  0  0  0  0
  -23.1100  -21.3195   21.0096 O   0  0  0  0  0  0  0  0  0  0  0  0
  -31.8477  -14.6575   20.6987 O   0  0  0  0  0  0  0  0  0  0  0  0
  -22.1308   -6.7357   21.6144 O   0  0  0  0  0  0  0  0  0  0  0  0
  -27.1812  -21.9364   15.5878 O   0  0  0  0  0  0  0  0  0  1  0  0
  -19.7042   -6.0242   26.5143 F   0  0  0  0  0  0  0  0  0  0  0  0
  -22.9446   -4.7184   23.3205 F   0  0  0  0  0  0  0  0  0  0  0  0
  -29.8296  -21.9285   20.8376 F   0  0  0  0  0  0  0  0  0  0  0  0
  -31.7610  -22.2755   19.9139 F   0  0  0  0  0  0  0  0  0  0  0  0
  -29.9386  -22.6158   18.7774 F   0  0  0  0  0  0  0  0  0  0  0  0
  1  2  1  0  0  0  0
  1  5  2  0  0  0  0
  2  6  2  0  0  0  0
  3 10  2  0  0  0  0
  3 18  1  0  0  0  0
  4 11  1  0  0  0  0
  4 18  2  0  0  0  0
  5 20  1  0  0  0  0
  6 22  1  0  0  0  0
  7 12  2  0  0  0  0
  7 21  1  0  0  0  0
  8  9  2  0  0  0  0
  8 24  1  0  0  0  0
  9 25  1  0  0  0  0
 10 27  1  0  0  0  0
 11 27  2  0  0  0  0
 12 28  1  0  0  0  0
 13 14  2  0  0  0  0
 13 29  1  0  0  0  0
 14 30  1  0  0  0  0
 15 23  1  0  0  0  0
 15 28  2  0  0  0  0
 16 24  2  0  0  0  0
 16 26  1  0  0  0  0
 17 30  2  0  0  0  0
 17 31  1  0  0  0  0
 18 32  1  0  0  0  0
 19 32  1  0  0  0  0
 19 33  2  0  0  0  0
 19 34  1  0  0  0  0
 20 22  2  0  0  0  0
 20 39  1  0  0  0  0
 21 23  2  0  0  0  0
 21 40  1  0  0  0  0
 22 48  1  0  0  0  0
 23 41  1  0  0  0  0
 24 58  1  0  0  0  0
 25 26  2  0  0  0  0
 25 59  1  0  0  0  0
 26 65  1  0  0  0  0
 27 83  1  0  0  0  0
 28 84  1  0  0  0  0
 29 31  2  0  0  0  0
 29 83  1  0  0  0  0
 30 85  1  0  0  0  0
 31 86  1  0  0  0  0
 32 67  2  0  0  0  0
 33 68  1  0  0  0  0
 33 71  1  0  0  0  0
 34 72  1  0  0  0  0
 34 78  2  0  0  0  0
 35 49  1  0  0  0  0
 35 73  1  0  0  0  0
 35 79  2  0  0  0  0
 36 63  1  0  0  0  0
 36 69  1  0  0  0  0
 36 80  2  0  0  0  0
 37 64  1  0  0  0  0
 37 74  1  0  0  0  0
 37 81  2  0  0  0  0
 38 70  1  0  0  0  0
 38 75  1  0  0  0  0
 38 82  2  0  0  0  0
 39 42  1  0  0  0  0
 40 49  1  0  0  0  0
 41 69  1  0  0  0  0
 42 44  1  0  0  0  0
 43 45  1  0  0  0  0
 43 46  1  0  0  0  0
 44 48  1  0  0  0  0
 45 50  1  0  0  0  0
 46 70  1  0  0  0  0
 47 50  1  0  0  0  0
 47 70  1  0  0  0  0
 48 73  1  0  0  0  0
 49 69  1  0  0  0  0
 50 68  1  0  0  0  0
 51 64  1  0  0  0  0
 52 66  1  0  0  0  0
 53 66  1  0  0  0  0
 54 66  1  0  0  0  0
 55 75  1  0  0  0  0
 56 76  1  0  0  0  0
 57 77  1  0  0  0  0
 58 75  1  0  0  0  0
 59 77  1  0  0  0  0
 60 61  1  0  0  0  0
 60 62  1  0  0  0  0
 61 77  1  0  0  0  0
 62 84  1  0  0  0  0
 63 66  1  0  0  0  0
 63 74  1  0  0  0  0
 64 76  1  0  0  0  0
 65 87  1  0  0  0  0
 65 88  1  0  0  0  0
 65 89  1  0  0  0  0
 67 68  1  0  0  0  0
M  CHG  2  76   1  77   1
M  ISO  4  38 100  62 101  75 100  84 101
M  END
> <Batch ID>
0019

> <Smiles>
CNC(C)C(=O)NC(C(=O)N1Cc2cc([101O:1][101CH2:1]CCN(C)Cc3ccc(C[100N:0](C)[100C:0](=O)N4CCCC(n5nc(-c6ccc(Oc7ccc(F)cc7F)cc6)c(C(N)=O)c5N)C4)cc3C(F)(F)F)ccc2CC1C(=O)NC1CCCc2ccccc21)C(C)(C)C

> <Shape>
0.264

> <Color>
0.185

> <Negative vol penalty>
0.000

$$$$

  -OEChem-04042321053D

 86 94  0     1  0  0  0  0  0999 V2000
  -21.4134  -33.2015   21.2922 C   0  0  0  0  0  0  0  0  0  0  0  0
  -21.8121  -31.9881   20.7408 C   0  0  0  0  0  0  0  0  0  0  0  0
  -23.1136   -9.8780   19.9468 C   0  0  0  0  0  0  0  0  0  0  0  0
  -23.8902   -9.9048   22.2344 C   0  0  0  0  0  0  0  0  0  0  0  0
  -22.3467  -34.0142   21.9343 C   0  0  0  0  0  0  0  0  0  0  0  0
  -23.1446  -31.5872   20.8302 C   0  0  0  0  0  0  0  0  0  0  0  0
  -25.2328  -25.8663   21.4755 C   0  0  0  0  0  0  0  0  0  0  0  0
  -22.3881   -8.7154   20.2066 C   0  0  0  0  0  0  0  0  0  0  0  0
  -23.1646   -8.7421   22.4943 C   0  0  0  0  0  0  0  0  0  0  0  0
  -25.7351  -24.9423   20.5603 C   0  0  0  0  0  0  0  0  0  0  0  0
  -19.9527   -7.9009   23.1238 C   0  0  0  0  0  0  0  0  0  0  0  0
  -19.2050   -7.8548   24.3004 C   0  0  0  0  0  0  0  0  0  0  0  0
  -27.9815  -25.6301   21.1080 C   0  0  0  0  0  0  0  0  0  0  0  0
  -30.1794  -18.9851   18.2404 C   0  0  0  0  0  0  0  0  0  0  0  0
  -29.2311  -20.1272   20.1465 C   0  0  0  0  0  0  0  0  0  0  0  0
  -20.4793   -5.9381   25.0350 C   0  0  0  0  0  0  0  0  0  0  0  0
  -23.8647  -10.4727   20.9607 C   0  0  0  0  0  0  0  0  0  0  0  0
  -24.1697  -13.0019   20.8284 C   0  0  0  0  0  0  0  0  0  0  0  0
  -23.6894  -33.6187   22.0401 C   0  0  0  0  0  0  0  0  0  0  0  0
  -26.1021  -26.6881   22.2072 C   0  0  0  0  0  0  0  0  0  0  0  0
  -24.0970  -32.3961   21.4731 C   0  0  0  0  0  0  0  0  0  0  0  0
  -27.4877  -26.5619   22.0338 C   0  0  0  0  0  0  0  0  0  0  0  0
  -29.8144  -20.1696   18.8801 C   0  0  0  0  0  0  0  0  0  0  0  0
  -29.9611  -17.7581   18.8671 C   0  0  0  0  0  0  0  0  0  0  0  0
  -29.3778  -17.7157   20.1334 C   0  0  0  0  0  0  0  0  0  0  0  0
  -22.4136   -8.1475   21.4804 C   0  0  0  0  0  0  0  0  0  0  0  0
  -27.1095  -24.8261   20.3743 C   0  0  0  0  0  0  0  0  0  0  0  0
  -20.9636   -6.9655   22.9027 C   0  0  0  0  0  0  0  0  0  0  0  0
  -19.4683   -6.8735   25.2560 C   0  0  0  0  0  0  0  0  0  0  0  0
  -29.0128  -18.9003   20.7731 C   0  0  0  0  0  0  0  0  0  0  0  0
  -21.2269   -5.9842   23.8584 C   0  0  0  0  0  0  0  0  0  0  0  0
  -24.6149  -11.6733   20.6927 C   0  0  0  0  0  0  0  0  0  0  0  0
  -25.2483  -13.7654   20.4542 C   0  0  0  0  0  0  0  0  0  0  0  0
  -22.8951  -13.5013   21.2548 C   0  0  0  0  0  0  0  0  0  0  0  0
  -26.5740  -29.8241   22.4230 C   0  0  0  0  0  0  0  0  0  0  0  0
  -28.6153  -28.9603   24.7914 C   0  0  0  0  0  0  0  0  0  0  0  0
  -30.6078  -26.5537   26.1645 C   0  0  0  0  0  0  0  0  0  0  0  0
  -30.8480  -14.5603   21.0280 C   0  0  0  0  0  0  0  0  0  0  0  0
  -24.6713  -34.5527   22.7020 C   0  0  0  0  0  0  0  0  0  0  0  0
  -25.5454  -27.6611   23.2100 C   0  0  0  0  0  0  0  0  0  0  0  0
  -28.4642  -27.4065   22.8094 C   0  0  0  0  0  0  0  0  0  0  0  0
  -25.9888  -33.8818   23.0820 C   0  0  0  0  0  0  0  0  0  0  0  0
  -29.5966  -12.4863   18.2290 C   0  0  0  0  0  0  0  0  0  0  0  0
  -26.5117  -33.0380   21.9238 C   0  0  0  0  0  0  0  0  0  0  0  0
  -28.1759  -12.1458   18.6760 C   0  0  0  0  0  0  0  0  0  0  0  0
  -30.5248  -12.7182   19.4174 C   0  0  0  0  0  0  0  0  0  0  0  0
  -28.6096  -13.4022   20.8240 C   0  0  0  0  0  0  0  0  0  0  0  0
  -25.5285  -31.9152   21.5714 C   0  0  1  0  0  0  0  0  0  0  0  0
  -26.5023  -28.8064   23.5262 C   0  0  1  0  0  0  0  0  0  0  0  0
  -27.6379  -13.2082   19.6503 C   0  0  2  0  0  0  0  0  0  0  0  0
  -30.3592  -16.5031   18.1618 C   0  0  0  0  0  0  0  0  0  0  0  0
  -32.1812  -26.1549   28.0783 C   0  0  0  0  0  0  0  0  0  0  0  0
  -30.7670  -30.5795   23.3568 C   0  0  0  0  0  0  0  0  0  0  0  0
  -32.4836  -29.3945   24.7414 C   0  0  0  0  0  0  0  0  0  0  0  0
  -30.7633  -30.8240   25.8457 C   0  0  0  0  0  0  0  0  0  0  0  0
  -31.2429  -16.7668   22.0552 C   0  0  0  0  0  0  0  0  0  0  0  0
  -28.9159  -24.3840   27.2548 C   0  0  0  0  0  0  0  0  0  0  0  0
  -28.3335  -21.4099   16.4049 C   0  0  0  0  0  0  0  0  0  0  0  0
  -29.1363  -16.4123   20.8213 C   0  0  0  0  0  0  0  0  0  0  0  0
  -30.0500  -21.4896   18.2071 C   0  0  0  0  0  0  0  0  0  0  0  0
  -28.9022  -23.5791   17.4878 C   0  0  0  0  0  0  0  0  0  0  0  0
  -28.8379  -24.2509   18.8452 C   0  0  0  0  0  0  0  0  0  1  0  0
  -30.0791  -28.5978   24.8619 C   0  0  1  0  0  0  0  0  0  0  0  0
  -30.7444  -26.0522   27.5908 C   0  0  2  0  0  0  0  0  0  0  0  0
  -31.0050  -29.8342   24.6852 C   0  0  0  0  0  0  0  0  0  0  0  0
  -25.8779  -11.5939   20.2654 N   0  0  0  0  0  0  0  0  0  0  0  0
  -26.2355  -12.8821   20.1294 N   0  0  0  0  0  0  0  0  0  0  0  0
  -27.8707  -28.3477   23.7736 N   0  0  0  0  0  0  0  0  0  0  0  0
  -29.9692  -13.7002   20.3492 N   0  0  0  0  0  0  0  0  0  0  0  0
  -25.4392  -15.0995   20.3746 N   0  0  0  0  0  0  0  0  0  0  0  0
  -21.8987  -12.5791   21.6030 N   0  0  0  0  0  0  0  0  0  0  0  0
  -25.6348  -30.8324   22.5258 N   0  0  0  0  0  0  0  0  0  0  0  0
  -30.2637  -27.8883   26.1232 N   0  0  0  0  0  0  0  0  0  0  0  0
  -30.3654  -15.8350   21.3611 N   0  0  0  0  0  0  0  0  0  0  0  0
  -30.3179  -24.6271   27.6818 N   0  3  0  0  0  0  0  0  0  0  0  0
  -28.7868  -22.1093   17.6624 N   0  3  1  0  0  0  0  0  0  0  0  0
  -22.6417  -14.7286   21.3092 O   0  0  0  0  0  0  0  0  0  0  0  0
  -27.4200  -29.7042   21.5445 O   0  0  0  0  0  0  0  0  0  0  0  0
  -28.1482  -29.7522   25.6138 O   0  0  0  0  0  0  0  0  0  0  0  0
  -30.7919  -25.8346   25.1850 O   0  0  0  0  0  0  0  0  0  0  0  0
  -32.0015  -14.2122   21.3112 O   0  0  0  0  0  0  0  0  0  0  0  0
  -21.7056   -7.0131   21.7344 O   0  0  0  0  0  0  0  0  0  0  0  0
  -27.6025  -23.9255   19.4811 O   0  0  0  0  0  0  0  0  0  1  0  0
  -18.7513   -6.8303   26.3866 F   0  0  0  0  0  0  0  0  0  0  0  0
  -28.4512  -18.8706   21.9899 F   0  0  0  0  0  0  0  0  0  0  0  0
  -22.1977   -5.0836   23.6521 F   0  0  0  0  0  0  0  0  0  0  0  0
  1  2  1  0  0  0  0
  1  5  2  0  0  0  0
  2  6  2  0  0  0  0
  3  8  2  0  0  0  0
  3 17  1  0  0  0  0
  4  9  1  0  0  0  0
  4 17  2  0  0  0  0
  5 19  1  0  0  0  0
  6 21  1  0  0  0  0
  7 10  2  0  0  0  0
  7 20  1  0  0  0  0
  8 26  1  0  0  0  0
  9 26  2  0  0  0  0
 10 27  1  0  0  0  0
 11 12  2  0  0  0  0
 11 28  1  0  0  0  0
 12 29  1  0  0  0  0
 13 22  1  0  0  0  0
 13 27  2  0  0  0  0
 14 23  1  0  0  0  0
 14 24  2  0  0  0  0
 15 23  2  0  0  0  0
 15 30  1  0  0  0  0
 16 29  2  0  0  0  0
 16 31  1  0  0  0  0
 17 32  1  0  0  0  0
 18 32  1  0  0  0  0
 18 33  2  0  0  0  0
 18 34  1  0  0  0  0
 19 21  2  0  0  0  0
 19 39  1  0  0  0  0
 20 22  2  0  0  0  0
 20 40  1  0  0  0  0
 21 48  1  0  0  0  0
 22 41  1  0  0  0  0
 23 60  1  0  0  0  0
 24 25  1  0  0  0  0
 24 51  1  0  0  0  0
 25 30  2  0  0  0  0
 25 59  1  0  0  0  0
 26 82  1  0  0  0  0
 27 83  1  0  0  0  0
 28 31  2  0  0  0  0
 28 82  1  0  0  0  0
 29 84  1  0  0  0  0
 30 85  1  0  0  0  0
 31 86  1  0  0  0  0
 32 66  2  0  0  0  0
 33 67  1  0  0  0  0
 33 70  1  0  0  0  0
 34 71  1  0  0  0  0
 34 77  2  0  0  0  0
 35 49  1  0  0  0  0
 35 72  1  0  0  0  0
 35 78  2  0  0  0  0
 36 63  1  0  0  0  0
 36 68  1  0  0  0  0
 36 79  2  0  0  0  0
 37 64  1  0  0  0  0
 37 73  1  0  0  0  0
 37 80  2  0  0  0  0
 38 69  1  0  0  0  0
 38 74  1  0  0  0  0
 38 81  2  0  0  0  0
 39 42  1  0  0  0  0
 40 49  1  0  0  0  0
 41 68  1  0  0  0  0
 42 44  1  0  0  0  0
 43 45  1  0  0  0  0
 43 46  1  0  0  0  0
 44 48  1  0  0  0  0
 45 50  1  0  0  0  0
 46 69  1  0  0  0  0
 47 50  1  0  0  0  0
 47 69  1  0  0  0  0
 48 72  1  0  0  0  0
 49 68  1  0  0  0  0
 50 67  1  0  0  0  0
 52 64  1  0  0  0  0
 53 65  1  0  0  0  0
 54 65  1  0  0  0  0
 55 65  1  0  0  0  0
 56 74  1  0  0  0  0
 57 75  1  0  0  0  0
 58 76  1  0  0  0  0
 59 74  1  0  0  0  0
 60 76  1  0  0  0  0
 61 62  1  0  0  0  0
 61 76  1  0  0  0  0
 62 83  1  0  0  0  0
 63 65  1  0  0  0  0
 63 73  1  0  0  0  0
 64 75  1  0  0  0  0
 66 67  1  0  0  0  0
M  CHG  2  75   1  76   1
M  ISO  4  38 100  62 101  74 100  83 101
M  END
> <Batch ID>
0019

> <Smiles>
CNC(C)C(=O)NC(C(=O)N1Cc2cc([101O:1][101CH2:1]CN(C)Cc3cc(C)c(C[100N:0](C)[100C:0](=O)N4CCCC(n5nc(-c6ccc(Oc7ccc(F)cc7F)cc6)c(C(N)=O)c5N)C4)c(F)c3)ccc2CC1C(=O)NC1CCCc2ccccc21)C(C)(C)C

> <Shape>
0.292

> <Color>
0.178

> <Negative vol penalty>
0.000

$$$$

  -OEChem-04042321053D

 90 98  0     1  0  0  0  0  0999 V2000
  -35.9674  -28.3777   11.7649 C   0  0  0  0  0  0  0  0  0  0  0  0
  -34.8655  -27.5300   11.8187 C   0  0  0  0  0  0  0  0  0  0  0  0
  -23.0767   -9.8649   19.9434 C   0  0  0  0  0  0  0  0  0  0  0  0
  -23.8348   -9.8772   22.2373 C   0  0  0  0  0  0  0  0  0  0  0  0
  -37.1109  -28.0805   12.5051 C   0  0  0  0  0  0  0  0  0  0  0  0
  -34.9070  -26.3840   12.6120 C   0  0  0  0  0  0  0  0  0  0  0  0
  -30.1248  -24.0975   18.3504 C   0  0  0  0  0  0  0  0  0  0  0  0
  -22.3330   -8.7121   20.1953 C   0  0  0  0  0  0  0  0  0  0  0  0
  -23.0911   -8.7243   22.4893 C   0  0  0  0  0  0  0  0  0  0  0  0
  -29.4412  -23.6643   19.4867 C   0  0  0  0  0  0  0  0  0  0  0  0
  -19.8627   -7.9268   23.0911 C   0  0  0  0  0  0  0  0  0  0  0  0
  -19.1049   -7.8893   24.2615 C   0  0  0  0  0  0  0  0  0  0  0  0
  -31.4196  -22.4991   20.2458 C   0  0  0  0  0  0  0  0  0  0  0  0
  -30.4970  -18.3510   24.0360 C   0  0  0  0  0  0  0  0  0  0  0  0
  -32.0615  -16.5999   22.5298 C   0  0  0  0  0  0  0  0  0  0  0  0
  -20.3464   -5.9538   25.0032 C   0  0  0  0  0  0  0  0  0  0  0  0
  -23.8277  -10.4474   20.9644 C   0  0  0  0  0  0  0  0  0  0  0  0
  -24.1688  -12.9724   20.8390 C   0  0  0  0  0  0  0  0  0  0  0  0
  -37.1629  -26.9353   13.3154 C   0  0  0  0  0  0  0  0  0  0  0  0
  -31.4646  -23.7454   18.1648 C   0  0  0  0  0  0  0  0  0  0  0  0
  -36.0528  -26.0705   13.3627 C   0  0  0  0  0  0  0  0  0  0  0  0
  -32.1131  -22.9404   19.1157 C   0  0  0  0  0  0  0  0  0  0  0  0
  -29.8919  -17.4718   23.1381 C   0  0  0  0  0  0  0  0  0  0  0  0
  -31.8843  -18.3548   24.1809 C   0  0  0  0  0  0  0  0  0  0  0  0
  -30.6741  -16.5962   22.3850 C   0  0  0  0  0  0  0  0  0  0  0  0
  -22.3401   -8.1418   21.4682 C   0  0  0  0  0  0  0  0  0  0  0  0
  -30.0870  -22.8669   20.4319 C   0  0  0  0  0  0  0  0  0  0  0  0
  -20.8623   -6.9779   22.8767 C   0  0  0  0  0  0  0  0  0  0  0  0
  -19.3467   -6.9028   25.2176 C   0  0  0  0  0  0  0  0  0  0  0  0
  -32.6666  -17.4793   23.4278 C   0  0  0  0  0  0  0  0  0  0  0  0
  -21.1042   -5.9914   23.8327 C   0  0  0  0  0  0  0  0  0  0  0  0
  -24.5966  -11.6380   20.7046 C   0  0  0  0  0  0  0  0  0  0  0  0
  -25.2610  -13.7214   20.4750 C   0  0  0  0  0  0  0  0  0  0  0  0
  -22.8979  -13.4888   21.2559 C   0  0  0  0  0  0  0  0  0  0  0  0
  -34.5262  -23.9943   16.0106 C   0  0  0  0  0  0  0  0  0  0  0  0
  -35.4645  -24.2223   18.9224 C   0  0  0  0  0  0  0  0  0  0  0  0
  -36.0348  -24.8536   22.2259 C   0  0  0  0  0  0  0  0  0  0  0  0
  -30.7268  -14.7691   20.6514 C   0  0  0  0  0  0  0  0  0  0  0  0
  -38.4383  -26.6307   14.0606 C   0  0  0  0  0  0  0  0  0  0  0  0
  -32.2221  -24.1382   16.9256 C   0  0  0  0  0  0  0  0  0  0  0  0
  -33.5448  -22.5576   18.8573 C   0  0  0  0  0  0  0  0  0  0  0  0
  -38.2639  -25.5948   15.1683 C   0  0  0  0  0  0  0  0  0  0  0  0
  -29.6149  -12.3497   18.2877 C   0  0  0  0  0  0  0  0  0  0  0  0
  -37.4582  -24.4025   14.6621 C   0  0  0  0  0  0  0  0  0  0  0  0
  -28.1750  -12.0586   18.7168 C   0  0  0  0  0  0  0  0  0  0  0  0
  -30.5290  -12.5814   19.4895 C   0  0  0  0  0  0  0  0  0  0  0  0
  -28.6208  -13.3084   20.8677 C   0  0  0  0  0  0  0  0  0  0  0  0
  -36.0504  -24.8310   14.2309 C   0  0  1  0  0  0  0  0  0  0  0  0
  -33.7103  -24.4256   17.1937 C   0  0  1  0  0  0  0  0  0  0  0  0
  -27.6489  -13.1322   19.6896 C   0  0  2  0  0  0  0  0  0  0  0  0
  -27.6945  -16.5512   23.9849 C   0  0  0  0  0  0  0  0  0  0  0  0
  -37.8852  -25.3591   23.8439 C   0  0  0  0  0  0  0  0  0  0  0  0
  -36.3192  -21.2951   18.8537 C   0  0  0  0  0  0  0  0  0  0  0  0
  -37.4356  -21.6427   21.0675 C   0  0  0  0  0  0  0  0  0  0  0  0
  -38.2017  -22.9271   19.0709 C   0  0  0  0  0  0  0  0  0  0  0  0
  -32.1202  -19.1435   26.5365 C   0  0  0  0  0  0  0  0  0  0  0  0
  -34.8485  -27.4679   22.9451 C   0  0  0  0  0  0  0  0  0  0  0  0
  -31.4442  -21.7444   24.8536 C   0  0  0  0  0  0  0  0  0  0  0  0
  -27.5665  -21.1799   22.3896 C   0  0  0  0  0  0  0  0  0  0  0  0
  -28.2507  -19.8400   22.1639 C   0  0  0  0  0  0  0  0  0  0  0  0
  -28.0060  -22.2647   21.4140 C   0  0  0  0  0  0  0  0  0  1  0  0
  -28.3870  -17.4905   23.0005 C   0  0  1  0  0  0  0  0  0  0  0  0
  -35.9866  -23.5072   20.1428 C   0  0  1  0  0  0  0  0  0  0  0  0
  -36.8284  -25.9453   22.9207 C   0  0  2  0  0  0  0  0  0  0  0  0
  -36.9580  -22.3486   19.7804 C   0  0  0  0  0  0  0  0  0  0  0  0
  -25.8618  -11.5416   20.2875 N   0  0  0  0  0  0  0  0  0  0  0  0
  -26.2384  -12.8250   20.1566 N   0  0  0  0  0  0  0  0  0  0  0  0
  -34.2911  -23.7187   18.3478 N   0  0  0  0  0  0  0  0  0  0  0  0
  -29.9691  -13.6140   20.3642 N   0  0  0  0  0  0  0  0  0  0  0  0
  -25.4711  -15.0528   20.3992 N   0  0  0  0  0  0  0  0  0  0  0  0
  -21.8860  -12.5800   21.5944 N   0  0  0  0  0  0  0  0  0  0  0  0
  -30.0785  -15.6957   21.4673 N   0  0  0  0  0  0  0  0  0  0  0  0
  -35.2044  -25.0253   15.3889 N   0  0  0  0  0  0  0  0  0  0  0  0
  -36.5733  -24.5337   20.9975 N   0  0  0  0  0  0  0  0  0  0  0  0
  -32.5017  -19.2570   25.0995 N   0  0  2  0  0  0  0  0  0  0  0  0
  -35.9229  -26.8082   23.7309 N   0  3  0  0  0  0  0  0  0  0  0  0
  -27.8107  -18.8522   23.1769 N   0  3  0  0  0  0  0  0  0  0  0  0
  -22.6612  -14.7194   21.3103 O   0  0  0  0  0  0  0  0  0  0  0  0
  -34.5414  -22.8128   15.6856 O   0  0  0  0  0  0  0  0  0  0  0  0
  -36.0813  -25.1977   18.4848 O   0  0  0  0  0  0  0  0  0  0  0  0
  -35.0391  -24.3337   22.7248 O   0  0  0  0  0  0  0  0  0  0  0  0
  -31.8561  -14.9371   20.1843 O   0  0  0  0  0  0  0  0  0  0  0  0
  -33.0674  -20.7740   23.0659 O   0  0  0  0  0  0  0  0  0  0  0  0
  -33.9882  -21.3870   25.3246 O   0  0  0  0  0  0  0  0  0  0  0  0
  -21.6144   -7.0170   21.7145 O   0  0  0  0  0  0  0  0  0  0  0  0
  -29.4150  -22.4512   21.5412 O   0  0  0  0  0  0  0  0  0  1  0  0
  -18.6200   -6.8677   26.3422 F   0  0  0  0  0  0  0  0  0  0  0  0
  -34.0006  -17.4754   23.5594 F   0  0  0  0  0  0  0  0  0  0  0  0
  -22.0639   -5.0778   23.6328 F   0  0  0  0  0  0  0  0  0  0  0  0
  -32.9285  -20.8227   24.5099 S   0  0  0  0  0  0  0  0  0  0  0  0
  1  2  1  0  0  0  0
  1  5  2  0  0  0  0
  2  6  2  0  0  0  0
  3  8  2  0  0  0  0
  3 17  1  0  0  0  0
  4  9  1  0  0  0  0
  4 17  2  0  0  0  0
  5 19  1  0  0  0  0
  6 21  1  0  0  0  0
  7 10  2  0  0  0  0
  7 20  1  0  0  0  0
  8 26  1  0  0  0  0
  9 26  2  0  0  0  0
 10 27  1  0  0  0  0
 11 12  2  0  0  0  0
 11 28  1  0  0  0  0
 12 29  1  0  0  0  0
 13 22  1  0  0  0  0
 13 27  2  0  0  0  0
 14 23  1  0  0  0  0
 14 24  2  0  0  0  0
 15 25  1  0  0  0  0
 15 30  2  0  0  0  0
 16 29  2  0  0  0  0
 16 31  1  0  0  0  0
 17 32  1  0  0  0  0
 18 32  1  0  0  0  0
 18 33  2  0  0  0  0
 18 34  1  0  0  0  0
 19 21  2  0  0  0  0
 19 39  1  0  0  0  0
 20 22  2  0  0  0  0
 20 40  1  0  0  0  0
 21 48  1  0  0  0  0
 22 41  1  0  0  0  0
 23 25  2  0  0  0  0
 23 62  1  0  0  0  0
 24 30  1  0  0  0  0
 24 75  1  0  0  0  0
 25 72  1  0  0  0  0
 26 85  1  0  0  0  0
 27 86  1  0  0  0  0
 28 31  2  0  0  0  0
 28 85  1  0  0  0  0
 29 87  1  0  0  0  0
 30 88  1  0  0  0  0
 31 89  1  0  0  0  0
 32 66  2  0  0  0  0
 33 67  1  0  0  0  0
 33 70  1  0  0  0  0
 34 71  1  0  0  0  0
 34 78  2  0  0  0  0
 35 49  1  0  0  0  0
 35 73  1  0  0  0  0
 35 79  2  0  0  0  0
 36 63  1  0  0  0  0
 36 68  1  0  0  0  0
 36 80  2  0  0  0  0
 37 64  1  0  0  0  0
 37 74  1  0  0  0  0
 37 81  2  0  0  0  0
 38 69  1  0  0  0  0
 38 72  1  0  0  0  0
 38 82  2  0  0  0  0
 39 42  1  0  0  0  0
 40 49  1  0  0  0  0
 41 68  1  0  0  0  0
 42 44  1  0  0  0  0
 43 45  1  0  0  0  0
 43 46  1  0  0  0  0
 44 48  1  0  0  0  0
 45 50  1  0  0  0  0
 46 69  1  0  0  0  0
 47 50  1  0  0  0  0
 47 69  1  0  0  0  0
 48 73  1  0  0  0  0
 49 68  1  0  0  0  0
 50 67  1  0  0  0  0
 51 62  1  0  0  0  0
 52 64  1  0  0  0  0
 53 65  1  0  0  0  0
 54 65  1  0  0  0  0
 55 65  1  0  0  0  0
 56 75  1  0  0  0  0
 57 76  1  0  0  0  0
 58 90  1  0  0  0  0
 59 60  1  0  0  0  0
 59 61  1  0  0  0  0
 60 77  1  0  0  0  0
 61 86  1  0  0  0  0
 62 77  1  0  0  0  0
 63 65  1  0  0  0  0
 63 74  1  0  0  0  0
 64 76  1  0  0  0  0
 66 67  1  0  0  0  0
 75 90  1  0  0  0  0
 83 90  2  0  0  0  0
 84 90  2  0  0  0  0
M  CHG  2  76   1  77   1
M  ISO  4  38 100  61 101  72 100  86 101
M  END
> <Batch ID>
0019

> <Smiles>
CNC(C)C(=O)NC(C(=O)N1Cc2cc([101O:1][101CH2:1]CCNC(C)c3cc(N(C)S(C)(=O)=O)c(F)cc3[100NH:0][100C:0](=O)N3CCCC(n4nc(-c5ccc(Oc6ccc(F)cc6F)cc5)c(C(N)=O)c4N)C3)ccc2CC1C(=O)NC1CCCc2ccccc21)C(C)(C)C

> <Shape>
0.209

> <Color>
0.180

> <Negative vol penalty>
0.000

$$$$

  -OEChem-04042321053D

 81 89  0     1  0  0  0  0  0999 V2000
  -29.1298  -11.8079   19.9222 C   0  0  0  0  0  0  0  0  0  0  0  0
  -29.0053  -12.9532   19.1424 C   0  0  0  0  0  0  0  0  0  0  0  0
  -36.2227  -22.8930   15.1800 C   0  0  0  0  0  0  0  0  0  0  0  0
  -35.5339  -22.2366   14.1601 C   0  0  0  0  0  0  0  0  0  0  0  0
  -25.8731  -27.4376   21.0364 C   0  0  0  0  0  0  0  0  0  0  0  0
  -26.5321  -28.3274   18.8892 C   0  0  0  0  0  0  0  0  0  0  0  0
  -28.0355  -11.3366   20.6463 C   0  0  0  0  0  0  0  0  0  0  0  0
  -27.7860  -13.6274   19.0854 C   0  0  0  0  0  0  0  0  0  0  0  0
  -28.3197  -18.6459   19.5035 C   0  0  0  0  0  0  0  0  0  0  0  0
  -35.5426  -23.3123   16.3234 C   0  0  0  0  0  0  0  0  0  0  0  0
  -34.1649  -21.9995   14.2836 C   0  0  0  0  0  0  0  0  0  0  0  0
  -24.9764  -28.4936   21.1989 C   0  0  0  0  0  0  0  0  0  0  0  0
  -25.6354  -29.3835   19.0516 C   0  0  0  0  0  0  0  0  0  0  0  0
  -28.7467  -19.3374   18.3707 C   0  0  0  0  0  0  0  0  0  0  0  0
  -25.1016  -31.7528   22.0856 C   0  0  0  0  0  0  0  0  0  0  0  0
  -25.0732  -32.3932   23.3244 C   0  0  0  0  0  0  0  0  0  0  0  0
  -26.4689  -19.9892   17.9172 C   0  0  0  0  0  0  0  0  0  0  0  0
  -22.7468  -31.7938   23.5809 C   0  0  0  0  0  0  0  0  0  0  0  0
  -26.6510  -27.3545   19.8816 C   0  0  0  0  0  0  0  0  0  0  0  0
  -27.3217  -25.0150   19.1169 C   0  0  0  0  0  0  0  0  0  0  0  0
  -26.8049  -12.0109   20.6058 C   0  0  0  0  0  0  0  0  0  0  0  0
  -26.9603  -18.6118   19.8462 C   0  0  0  0  0  0  0  0  0  0  0  0
  -26.6739  -13.1640   19.8086 C   0  0  0  0  0  0  0  0  0  0  0  0
  -26.0275  -19.2987   19.0563 C   0  0  0  0  0  0  0  0  0  0  0  0
  -34.1736  -23.0752   16.4468 C   0  0  0  0  0  0  0  0  0  0  0  0
  -33.4847  -22.4188   15.4269 C   0  0  0  0  0  0  0  0  0  0  0  0
  -24.8576  -29.4665   20.2065 C   0  0  0  0  0  0  0  0  0  0  0  0
  -27.8210  -20.0067   17.5757 C   0  0  0  0  0  0  0  0  0  0  0  0
  -23.9525  -31.1330   21.5943 C   0  0  0  0  0  0  0  0  0  0  0  0
  -23.8958  -32.4136   24.0721 C   0  0  0  0  0  0  0  0  0  0  0  0
  -22.7752  -31.1534   22.3420 C   0  0  0  0  0  0  0  0  0  0  0  0
  -27.5778  -26.2642   19.7134 C   0  0  0  0  0  0  0  0  0  0  0  0
  -28.5158  -24.3419   19.2035 C   0  0  0  0  0  0  0  0  0  0  0  0
  -26.1125  -24.5085   18.5364 C   0  0  0  0  0  0  0  0  0  0  0  0
  -24.7799  -16.3186   20.1474 C   0  0  0  0  0  0  0  0  0  0  0  0
  -22.9368  -18.7530   21.2423 C   0  0  0  0  0  0  0  0  0  0  0  0
  -22.3132  -22.1074   21.3176 C   0  0  0  0  0  0  0  0  0  0  0  0
  -34.0595  -24.1739   18.7109 C   0  0  0  0  0  0  0  0  0  0  0  0
  -25.6371  -11.4367   21.3683 C   0  0  0  0  0  0  0  0  0  0  0  0
  -26.5192  -17.8837   21.0862 C   0  0  0  0  0  0  0  0  0  0  0  0
  -24.5593  -19.3098   19.3921 C   0  0  0  0  0  0  0  0  0  0  0  0
  -24.4847  -12.4213   21.5495 C   0  0  0  0  0  0  0  0  0  0  0  0
  -32.7405  -25.4445   21.7643 C   0  0  0  0  0  0  0  0  0  0  0  0
  -24.1710  -13.1242   20.2326 C   0  0  0  0  0  0  0  0  0  0  0  0
  -31.2587  -25.6683   21.4539 C   0  0  0  0  0  0  0  0  0  0  0  0
  -33.6272  -25.7720   20.5641 C   0  0  0  0  0  0  0  0  0  0  0  0
  -31.7747  -25.3181   19.0048 C   0  0  0  0  0  0  0  0  0  0  0  0
  -25.3746  -13.9370   19.7407 C   0  0  1  0  0  0  0  0  0  0  0  0
  -25.0465  -17.4868   21.0540 C   0  0  1  0  0  0  0  0  0  0  0  0
  -30.8371  -24.9395   20.1629 C   0  0  2  0  0  0  0  0  0  0  0  0
  -20.7151  -23.7932   22.2672 C   0  0  0  0  0  0  0  0  0  0  0  0
  -20.8516  -17.9411   19.1680 C   0  0  0  0  0  0  0  0  0  0  0  0
  -19.7536  -20.1660   19.5030 C   0  0  0  0  0  0  0  0  0  0  0  0
  -19.9145  -18.5579   21.4032 C   0  0  0  0  0  0  0  0  0  0  0  0
  -24.4653  -23.4717   22.8230 C   0  0  0  0  0  0  0  0  0  0  0  0
  -29.8802  -21.4466   14.8982 C   0  0  0  0  0  0  0  0  0  0  0  0
  -31.3527  -21.5026   14.5099 C   0  0  0  0  0  0  0  0  0  0  0  0
  -29.6327  -20.6628   16.1817 C   0  0  0  0  0  0  0  0  0  1  0  0
  -21.9974  -19.7509   20.6094 C   0  0  1  0  0  0  0  0  0  0  0  0
  -22.0283  -23.0534   22.4702 C   0  0  2  0  0  0  0  0  0  0  0  0
  -20.6566  -19.1023   20.1632 C   0  0  0  0  0  0  0  0  0  0  0  0
  -28.8358  -26.3803   20.1471 N   0  0  0  0  0  0  0  0  0  0  0  0
  -29.3808  -25.1954   19.8228 N   0  0  0  0  0  0  0  0  0  0  0  0
  -24.1765  -18.5782   20.6111 N   0  0  0  0  0  0  0  0  0  0  0  0
  -33.1707  -25.0425   19.3791 N   0  0  0  0  0  0  0  0  0  0  0  0
  -28.8997  -23.1091   18.8096 N   0  0  0  0  0  0  0  0  0  0  0  0
  -24.9783  -25.3318   18.5303 N   0  0  0  0  0  0  0  0  0  0  0  0
  -33.5041  -23.5102   17.6174 N   0  0  0  0  0  0  0  0  0  0  0  0
  -32.1240  -22.1741   15.5279 N   0  0  0  0  0  0  0  0  0  0  0  0
  -25.4835  -15.1766   20.4797 N   0  0  0  0  0  0  0  0  0  0  0  0
  -21.8449  -20.8359   21.5727 N   0  0  0  0  0  0  0  0  0  0  0  0
  -23.1201  -24.0598   22.5963 N   0  3  0  0  0  0  0  0  0  0  0  0
  -26.0355  -23.3537   18.0525 O   0  0  0  0  0  0  0  0  0  0  0  0
  -23.9931  -16.4435   19.2164 O   0  0  0  0  0  0  0  0  0  0  0  0
  -22.5865  -18.1560   22.2633 O   0  0  0  0  0  0  0  0  0  0  0  0
  -22.8900  -22.4620   20.2919 O   0  0  0  0  0  0  0  0  0  0  0  0
  -35.2192  -24.0089   19.0978 O   0  0  0  0  0  0  0  0  0  0  0  0
  -23.9825  -30.4970   20.3646 O   0  0  0  0  0  0  0  0  0  0  0  0
  -28.2350  -20.6819   16.4691 O   0  0  0  0  0  0  0  0  0  1  0  0
  -23.8691  -33.0273   25.2624 F   0  0  0  0  0  0  0  0  0  0  0  0
  -21.6685  -30.5587   21.8759 F   0  0  0  0  0  0  0  0  0  0  0  0
  1  2  1  0  0  0  0
  1  7  2  0  0  0  0
  2  8  2  0  0  0  0
  3  4  1  0  0  0  0
  3 10  2  0  0  0  0
  4 11  2  0  0  0  0
  5 12  2  0  0  0  0
  5 19  1  0  0  0  0
  6 13  1  0  0  0  0
  6 19  2  0  0  0  0
  7 21  1  0  0  0  0
  8 23  1  0  0  0  0
  9 14  2  0  0  0  0
  9 22  1  0  0  0  0
 10 25  1  0  0  0  0
 11 26  1  0  0  0  0
 12 27  1  0  0  0  0
 13 27  2  0  0  0  0
 14 28  1  0  0  0  0
 15 16  2  0  0  0  0
 15 29  1  0  0  0  0
 16 30  1  0  0  0  0
 17 24  1  0  0  0  0
 17 28  2  0  0  0  0
 18 30  2  0  0  0  0
 18 31  1  0  0  0  0
 19 32  1  0  0  0  0
 20 32  1  0  0  0  0
 20 33  2  0  0  0  0
 20 34  1  0  0  0  0
 21 23  2  0  0  0  0
 21 39  1  0  0  0  0
 22 24  2  0  0  0  0
 22 40  1  0  0  0  0
 23 48  1  0  0  0  0
 24 41  1  0  0  0  0
 25 26  2  0  0  0  0
 25 68  1  0  0  0  0
 26 69  1  0  0  0  0
 27 78  1  0  0  0  0
 28 79  1  0  0  0  0
 29 31  2  0  0  0  0
 29 78  1  0  0  0  0
 30 80  1  0  0  0  0
 31 81  1  0  0  0  0
 32 62  2  0  0  0  0
 33 63  1  0  0  0  0
 33 66  1  0  0  0  0
 34 67  1  0  0  0  0
 34 73  2  0  0  0  0
 35 49  1  0  0  0  0
 35 70  1  0  0  0  0
 35 74  2  0  0  0  0
 36 59  1  0  0  0  0
 36 64  1  0  0  0  0
 36 75  2  0  0  0  0
 37 60  1  0  0  0  0
 37 71  1  0  0  0  0
 37 76  2  0  0  0  0
 38 65  1  0  0  0  0
 38 68  1  0  0  0  0
 38 77  2  0  0  0  0
 39 42  1  0  0  0  0
 40 49  1  0  0  0  0
 41 64  1  0  0  0  0
 42 44  1  0  0  0  0
 43 45  1  0  0  0  0
 43 46  1  0  0  0  0
 44 48  1  0  0  0  0
 45 50  1  0  0  0  0
 46 65  1  0  0  0  0
 47 50  1  0  0  0  0
 47 65  1  0  0  0  0
 48 70  1  0  0  0  0
 49 64  1  0  0  0  0
 50 63  1  0  0  0  0
 51 60  1  0  0  0  0
 52 61  1  0  0  0  0
 53 61  1  0  0  0  0
 54 61  1  0  0  0  0
 55 72  1  0  0  0  0
 56 57  1  0  0  0  0
 56 58  1  0  0  0  0
 57 69  1  0  0  0  0
 58 79  1  0  0  0  0
 59 61  1  0  0  0  0
 59 71  1  0  0  0  0
 60 72  1  0  0  0  0
 62 63  1  0  0  0  0
M  CHG  1  72   1
M  ISO  4  38 100  58 101  68 100  79 101
M  END
> <Batch ID>
0019

> <Smiles>
CNC(C)C(=O)NC(C(=O)N1Cc2cc([101O:1][101CH2:1]CCNc3ccccc3[100NH:0][100C:0](=O)N3CCCC(n4nc(-c5ccc(Oc6ccc(F)cc6F)cc5)c(C(N)=O)c4N)C3)ccc2CC1C(=O)NC1CCCc2ccccc21)C(C)(C)C

> <Shape>
0.185

> <Color>
0.094

> <Negative vol penalty>
0.000

$$$$

  -OEChem-04042321053D

 87 95  0     1  0  0  0  0  0999 V2000
  -39.6892  -28.7784   19.3140 C   0  0  0  0  0  0  0  0  0  0  0  0
  -38.5944  -28.4638   18.5155 C   0  0  0  0  0  0  0  0  0  0  0  0
  -22.6959  -10.1881   20.1595 C   0  0  0  0  0  0  0  0  0  0  0  0
  -24.3937   -9.4289   21.7017 C   0  0  0  0  0  0  0  0  0  0  0  0
  -39.8014  -28.2274   20.5898 C   0  0  0  0  0  0  0  0  0  0  0  0
  -37.6115  -27.5970   18.9919 C   0  0  0  0  0  0  0  0  0  0  0  0
  -31.6022  -27.8550   17.8394 C   0  0  0  0  0  0  0  0  0  0  0  0
  -29.8351  -17.8977   19.1301 C   0  0  0  0  0  0  0  0  0  0  0  0
  -30.0238  -19.1680   18.5858 C   0  0  0  0  0  0  0  0  0  0  0  0
  -21.9925   -8.9986   20.3482 C   0  0  0  0  0  0  0  0  0  0  0  0
  -23.6902   -8.2393   21.8905 C   0  0  0  0  0  0  0  0  0  0  0  0
  -30.7906  -27.1726   16.9342 C   0  0  0  0  0  0  0  0  0  0  0  0
  -20.9965   -7.1915   23.6417 C   0  0  0  0  0  0  0  0  0  0  0  0
  -20.8451   -6.7304   24.9494 C   0  0  0  0  0  0  0  0  0  0  0  0
  -30.2073  -25.5904   18.6593 C   0  0  0  0  0  0  0  0  0  0  0  0
  -28.9545  -18.8929   21.1478 C   0  0  0  0  0  0  0  0  0  0  0  0
  -22.0071   -4.6941   24.3659 C   0  0  0  0  0  0  0  0  0  0  0  0
  -23.8966  -10.4033   20.8362 C   0  0  0  0  0  0  0  0  0  0  0  0
  -24.1715  -12.9385   20.9041 C   0  0  0  0  0  0  0  0  0  0  0  0
  -38.8145  -27.3610   21.0859 C   0  0  0  0  0  0  0  0  0  0  0  0
  -31.7312  -27.4032   19.1607 C   0  0  0  0  0  0  0  0  0  0  0  0
  -37.7112  -27.0327   20.2751 C   0  0  0  0  0  0  0  0  0  0  0  0
  -31.0191  -26.2704   19.5800 C   0  0  0  0  0  0  0  0  0  0  0  0
  -29.3003  -17.7601   20.4110 C   0  0  0  0  0  0  0  0  0  0  0  0
  -29.1433  -20.1633   20.6036 C   0  0  0  0  0  0  0  0  0  0  0  0
  -29.6780  -20.3008   19.3226 C   0  0  0  0  0  0  0  0  0  0  0  0
  -22.4895   -8.0242   21.2138 C   0  0  0  0  0  0  0  0  0  0  0  0
  -30.0952  -26.0385   17.3433 C   0  0  0  0  0  0  0  0  0  0  0  0
  -21.6531   -6.4039   22.6960 C   0  0  0  0  0  0  0  0  0  0  0  0
  -21.3504   -5.4818   25.3115 C   0  0  0  0  0  0  0  0  0  0  0  0
  -22.1584   -5.1552   23.0582 C   0  0  0  0  0  0  0  0  0  0  0  0
  -24.6240  -11.6317   20.6412 C   0  0  0  0  0  0  0  0  0  0  0  0
  -25.2274  -13.7444   20.5544 C   0  0  0  0  0  0  0  0  0  0  0  0
  -22.9096  -13.3842   21.4185 C   0  0  0  0  0  0  0  0  0  0  0  0
  -34.1418  -26.3542   20.9474 C   0  0  0  0  0  0  0  0  0  0  0  0
  -31.9069  -26.3985   23.2980 C   0  0  0  0  0  0  0  0  0  0  0  0
  -30.3900  -21.8783   17.4977 C   0  0  0  0  0  0  0  0  0  0  0  0
  -28.6064  -26.2971   24.1599 C   0  0  0  0  0  0  0  0  0  0  0  0
  -30.8371  -14.5612   20.9803 C   0  0  0  0  0  0  0  0  0  0  0  0
  -39.0031  -26.7527   22.4530 C   0  0  0  0  0  0  0  0  0  0  0  0
  -32.5897  -28.1659   20.1320 C   0  0  0  0  0  0  0  0  0  0  0  0
  -31.1076  -25.7561   20.9928 C   0  0  0  0  0  0  0  0  0  0  0  0
  -37.7293  -26.1377   23.0270 C   0  0  0  0  0  0  0  0  0  0  0  0
  -29.4983  -12.7107   18.0673 C   0  0  0  0  0  0  0  0  0  0  0  0
  -37.0328  -25.2764   21.9783 C   0  0  0  0  0  0  0  0  0  0  0  0
  -28.0994  -12.3160   18.5377 C   0  0  0  0  0  0  0  0  0  0  0  0
  -30.4696  -12.8552   19.2350 C   0  0  0  0  0  0  0  0  0  0  0  0
  -28.6039  -13.3952   20.7651 C   0  0  0  0  0  0  0  0  0  0  0  0
  -36.6119  -26.1159   20.7660 C   0  0  1  0  0  0  0  0  0  0  0  0
  -33.0505  -27.3195   21.3147 C   0  0  1  0  0  0  0  0  0  0  0  0
  -27.5893  -13.2867   19.6169 C   0  0  2  0  0  0  0  0  0  0  0  0
  -28.7666  -21.3593   21.4166 C   0  0  0  0  0  0  0  0  0  0  0  0
  -26.5821  -26.3975   25.6396 C   0  0  0  0  0  0  0  0  0  0  0  0
  -32.6219  -23.4861   23.8607 C   0  0  0  0  0  0  0  0  0  0  0  0
  -30.4908  -23.2866   25.1595 C   0  0  0  0  0  0  0  0  0  0  0  0
  -32.2571  -24.8839   25.9021 C   0  0  0  0  0  0  0  0  0  0  0  0
  -27.9497  -23.7498   17.5773 C   0  0  0  0  0  0  0  0  0  0  0  0
  -28.8768  -23.3331   15.2899 C   0  0  0  0  0  0  0  0  0  0  0  0
  -31.2500  -16.6797   22.1723 C   0  0  0  0  0  0  0  0  0  0  0  0
  -28.3724  -29.2297   23.8368 C   0  0  0  0  0  0  0  0  0  0  0  0
  -29.1007  -16.4017   20.9938 C   0  0  0  0  0  0  0  0  0  0  0  0
  -30.4507  -23.3795   17.2460 C   0  0  0  0  0  0  0  0  0  0  0  0
  -30.9002  -25.4099   23.8348 C   0  0  1  0  0  0  0  0  0  0  0  0
  -27.7844  -27.1579   25.1022 C   0  0  2  0  0  0  0  0  0  0  0  0
  -31.5671  -24.2750   24.6621 C   0  0  0  0  0  0  0  0  0  0  0  0
  -29.1536  -23.9647   16.6587 C   0  0  0  0  0  0  0  0  0  1  0  0
  -25.8702  -11.6043   20.1613 N   0  0  0  0  0  0  0  0  0  0  0  0
  -26.2097  -12.9039   20.1198 N   0  0  0  0  0  0  0  0  0  0  0  0
  -31.9650  -26.5327   21.9036 N   0  0  0  0  0  0  0  0  0  0  0  0
  -29.9410  -13.7492   20.2657 N   0  0  0  0  0  0  0  0  0  0  0  0
  -25.4020  -15.0828   20.5792 N   0  0  0  0  0  0  0  0  0  0  0  0
  -22.7618  -13.5134   22.8062 N   0  0  0  0  0  0  0  0  0  0  0  0
  -29.8772  -21.5805   18.7531 N   0  0  0  0  0  0  0  0  0  0  0  0
  -35.4165  -26.8742   21.0669 N   0  0  0  0  0  0  0  0  0  0  0  0
  -29.9165  -26.1912   24.5766 N   0  0  0  0  0  0  0  0  0  0  0  0
  -30.3554  -15.7974   21.4366 N   0  0  0  0  0  0  0  0  0  0  0  0
  -27.2935  -28.3752   24.3964 N   0  3  0  0  0  0  0  0  0  0  0  0
  -21.9366  -13.6441   20.6707 O   0  0  0  0  0  0  0  0  0  0  0  0
  -33.8492  -25.2211   20.5840 O   0  0  0  0  0  0  0  0  0  0  0  0
  -32.6107  -27.0337   24.0872 O   0  0  0  0  0  0  0  0  0  0  0  0
  -30.7660  -21.0896   16.6348 O   0  0  0  0  0  0  0  0  0  0  0  0
  -28.1326  -25.7683   23.1567 O   0  0  0  0  0  0  0  0  0  0  0  0
  -32.0040  -14.2058   21.1896 O   0  0  0  0  0  0  0  0  0  0  0  0
  -21.8032   -6.8634   21.3984 O   0  0  0  0  0  0  0  0  0  0  0  0
  -29.3029  -25.3701   16.4616 O   0  0  0  0  0  0  0  0  0  1  0  0
  -21.2064   -5.0398   26.5677 F   0  0  0  0  0  0  0  0  0  0  0  0
  -22.7911   -4.3946   22.1544 F   0  0  0  0  0  0  0  0  0  0  0  0
  1  2  1  0  0  0  0
  1  5  2  0  0  0  0
  2  6  2  0  0  0  0
  3 10  2  0  0  0  0
  3 18  1  0  0  0  0
  4 11  1  0  0  0  0
  4 18  2  0  0  0  0
  5 20  1  0  0  0  0
  6 22  1  0  0  0  0
  7 12  2  0  0  0  0
  7 21  1  0  0  0  0
  8  9  2  0  0  0  0
  8 24  1  0  0  0  0
  9 26  1  0  0  0  0
 10 27  1  0  0  0  0
 11 27  2  0  0  0  0
 12 28  1  0  0  0  0
 13 14  2  0  0  0  0
 13 29  1  0  0  0  0
 14 30  1  0  0  0  0
 15 23  1  0  0  0  0
 15 28  2  0  0  0  0
 16 24  2  0  0  0  0
 16 25  1  0  0  0  0
 17 30  2  0  0  0  0
 17 31  1  0  0  0  0
 18 32  1  0  0  0  0
 19 32  1  0  0  0  0
 19 33  2  0  0  0  0
 19 34  1  0  0  0  0
 20 22  2  0  0  0  0
 20 40  1  0  0  0  0
 21 23  2  0  0  0  0
 21 41  1  0  0  0  0
 22 49  1  0  0  0  0
 23 42  1  0  0  0  0
 24 61  1  0  0  0  0
 25 26  2  0  0  0  0
 25 52  1  0  0  0  0
 26 73  1  0  0  0  0
 27 84  1  0  0  0  0
 28 85  1  0  0  0  0
 29 31  2  0  0  0  0
 29 84  1  0  0  0  0
 30 86  1  0  0  0  0
 31 87  1  0  0  0  0
 32 67  2  0  0  0  0
 33 68  1  0  0  0  0
 33 71  1  0  0  0  0
 34 72  1  0  0  0  0
 34 78  2  0  0  0  0
 35 50  1  0  0  0  0
 35 74  1  0  0  0  0
 35 79  2  0  0  0  0
 36 63  1  0  0  0  0
 36 69  1  0  0  0  0
 36 80  2  0  0  0  0
 37 62  1  0  0  0  0
 37 73  1  0  0  0  0
 37 81  2  0  0  0  0
 38 64  1  0  0  0  0
 38 75  1  0  0  0  0
 38 82  2  0  0  0  0
 39 70  1  0  0  0  0
 39 76  1  0  0  0  0
 39 83  2  0  0  0  0
 40 43  1  0  0  0  0
 41 50  1  0  0  0  0
 42 69  1  0  0  0  0
 43 45  1  0  0  0  0
 44 46  1  0  0  0  0
 44 47  1  0  0  0  0
 45 49  1  0  0  0  0
 46 51  1  0  0  0  0
 47 70  1  0  0  0  0
 48 51  1  0  0  0  0
 48 70  1  0  0  0  0
 49 74  1  0  0  0  0
 50 69  1  0  0  0  0
 51 68  1  0  0  0  0
 53 64  1  0  0  0  0
 54 65  1  0  0  0  0
 55 65  1  0  0  0  0
 56 65  1  0  0  0  0
 57 66  1  0  0  0  0
 58 66  1  0  0  0  0
 59 76  1  0  0  0  0
 60 77  1  0  0  0  0
 61 76  1  0  0  0  0
 62 66  1  0  0  0  0
 63 65  1  0  0  0  0
 63 75  1  0  0  0  0
 64 77  1  0  0  0  0
 66 85  1  0  0  0  0
 67 68  1  0  0  0  0
M  CHG  1  77   1
M  ISO  4  39 100  66 101  76 100  85 101
M  END
> <Batch ID>
0019

> <Smiles>
CNC(C)C(=O)NC(C(=O)N1Cc2cc([101O:1][101C:1](C)(C)CC(=O)Nc3ccc(C[100N:0](C)[100C:0](=O)N4CCCC(n5nc(-c6ccc(Oc7ccc(F)cc7F)cc6)c(C(N)=O)c5N)C4)cc3C)ccc2CC1C(=O)NC1CCCc2ccccc21)C(C)(C)C

> <Shape>
0.284

> <Color>
0.162

> <Negative vol penalty>
0.000

$$$$

  -OEChem-04042321053D

 84 92  0     1  0  0  0  0  0999 V2000
  -30.8275  -28.3669   18.4800 C   0  0  0  0  0  0  0  0  0  0  0  0
  -31.0018  -27.4922   19.5477 C   0  0  0  0  0  0  0  0  0  0  0  0
  -32.6519  -17.4883   23.4594 C   0  0  0  0  0  0  0  0  0  0  0  0
  -23.0751   -9.8682   19.9394 C   0  0  0  0  0  0  0  0  0  0  0  0
  -23.8348   -9.8732   22.2329 C   0  0  0  0  0  0  0  0  0  0  0  0
  -31.8539  -18.3545   24.2066 C   0  0  0  0  0  0  0  0  0  0  0  0
  -31.9301  -28.7868   17.7372 C   0  0  0  0  0  0  0  0  0  0  0  0
  -32.2789  -27.0360   19.8725 C   0  0  0  0  0  0  0  0  0  0  0  0
  -33.1825  -27.1731   24.8534 C   0  0  0  0  0  0  0  0  0  0  0  0
  -32.0642  -16.6047   22.5540 C   0  0  0  0  0  0  0  0  0  0  0  0
  -22.3308   -8.7151   20.1884 C   0  0  0  0  0  0  0  0  0  0  0  0
  -23.0904   -8.7201   22.4819 C   0  0  0  0  0  0  0  0  0  0  0  0
  -32.6295  -26.1552   25.6291 C   0  0  0  0  0  0  0  0  0  0  0  0
  -19.8620   -7.9229   23.0835 C   0  0  0  0  0  0  0  0  0  0  0  0
  -19.1049   -7.8823   24.2543 C   0  0  0  0  0  0  0  0  0  0  0  0
  -29.8804  -17.4537   23.1433 C   0  0  0  0  0  0  0  0  0  0  0  0
  -34.7587  -25.0215   25.6486 C   0  0  0  0  0  0  0  0  0  0  0  0
  -20.3456   -5.9439   24.9894 C   0  0  0  0  0  0  0  0  0  0  0  0
  -23.8271  -10.4473   20.9616 C   0  0  0  0  0  0  0  0  0  0  0  0
  -30.4682  -18.3372   24.0486 C   0  0  0  0  0  0  0  0  0  0  0  0
  -24.1698  -12.9724   20.8436 C   0  0  0  0  0  0  0  0  0  0  0  0
  -33.2225  -28.3431   18.0590 C   0  0  0  0  0  0  0  0  0  0  0  0
  -34.5273  -27.1173   24.4596 C   0  0  0  0  0  0  0  0  0  0  0  0
  -33.3997  -27.4492   19.1324 C   0  0  0  0  0  0  0  0  0  0  0  0
  -35.3271  -26.0412   24.8701 C   0  0  0  0  0  0  0  0  0  0  0  0
  -30.6784  -16.5874   22.3960 C   0  0  0  0  0  0  0  0  0  0  0  0
  -22.3385   -8.1411   21.4596 C   0  0  0  0  0  0  0  0  0  0  0  0
  -33.4168  -25.0777   26.0244 C   0  0  0  0  0  0  0  0  0  0  0  0
  -20.8608   -6.9739   22.8656 C   0  0  0  0  0  0  0  0  0  0  0  0
  -19.3467   -6.8928   25.2072 C   0  0  0  0  0  0  0  0  0  0  0  0
  -21.1026   -5.9845   23.8185 C   0  0  0  0  0  0  0  0  0  0  0  0
  -24.5966  -11.6381   20.7049 C   0  0  0  0  0  0  0  0  0  0  0  0
  -25.2622  -13.7218   20.4810 C   0  0  0  0  0  0  0  0  0  0  0  0
  -29.6195  -19.2605   24.8451 C   0  0  0  0  0  0  0  0  0  0  0  0
  -22.8994  -13.4883   21.2628 C   0  0  0  0  0  0  0  0  0  0  0  0
  -36.0436  -26.9751   21.6696 C   0  0  0  0  0  0  0  0  0  0  0  0
  -38.6818  -27.2969   23.5294 C   0  0  0  0  0  0  0  0  0  0  0  0
  -40.1284  -26.9153   26.5967 C   0  0  0  0  0  0  0  0  0  0  0  0
  -30.7287  -14.7654   20.6570 C   0  0  0  0  0  0  0  0  0  0  0  0
  -34.3780  -28.7872   17.1975 C   0  0  0  0  0  0  0  0  0  0  0  0
  -35.1157  -28.2367   23.6453 C   0  0  0  0  0  0  0  0  0  0  0  0
  -36.7815  -25.9443   24.4909 C   0  0  0  0  0  0  0  0  0  0  0  0
  -35.7425  -28.5520   17.8402 C   0  0  0  0  0  0  0  0  0  0  0  0
  -29.6138  -12.3538   18.2868 C   0  0  0  0  0  0  0  0  0  0  0  0
  -35.8203  -27.1469   18.4288 C   0  0  0  0  0  0  0  0  0  0  0  0
  -28.1740  -12.0624   18.7160 C   0  0  0  0  0  0  0  0  0  0  0  0
  -30.5288  -12.5814   19.4887 C   0  0  0  0  0  0  0  0  0  0  0  0
  -28.6220  -13.3054   20.8703 C   0  0  0  0  0  0  0  0  0  0  0  0
  -34.7721  -26.9517   19.5310 C   0  0  1  0  0  0  0  0  0  0  0  0
  -36.3621  -27.8205   22.8702 C   0  0  1  0  0  0  0  0  0  0  0  0
  -27.6492  -13.1334   19.6923 C   0  0  2  0  0  0  0  0  0  0  0  0
  -42.3083  -27.2297   27.7995 C   0  0  0  0  0  0  0  0  0  0  0  0
  -39.7835  -24.7903   22.1829 C   0  0  0  0  0  0  0  0  0  0  0  0
  -41.4577  -24.6151   24.0362 C   0  0  0  0  0  0  0  0  0  0  0  0
  -41.4637  -26.6086   22.5367 C   0  0  0  0  0  0  0  0  0  0  0  0
  -38.9369  -28.8520   28.4910 C   0  0  0  0  0  0  0  0  0  0  0  0
  -29.7269  -22.0089   26.7107 C   0  0  0  0  0  0  0  0  0  0  0  0
  -31.2055  -22.3461   26.9054 C   0  0  0  0  0  0  0  0  0  0  0  0
  -29.4252  -20.5353   26.9648 C   0  0  0  0  0  0  0  0  0  0  0  0
  -31.4889  -23.8129   26.6069 C   0  0  0  0  0  0  0  0  0  1  0  0
  -39.6128  -26.3433   24.2384 C   0  0  1  0  0  0  0  0  0  0  0  0
  -40.9713  -27.8574   27.4371 C   0  0  2  0  0  0  0  0  0  0  0  0
  -40.5515  -25.5899   23.2542 C   0  0  0  0  0  0  0  0  0  0  0  0
  -25.8615  -11.5421   20.2866 N   0  0  0  0  0  0  0  0  0  0  0  0
  -26.2388  -12.8257   20.1593 N   0  0  0  0  0  0  0  0  0  0  0  0
  -37.3090  -27.0604   23.6886 N   0  0  0  0  0  0  0  0  0  0  0  0
  -29.9701  -13.6117   20.3668 N   0  0  0  0  0  0  0  0  0  0  0  0
  -25.4731  -15.0532   20.4090 N   0  0  0  0  0  0  0  0  0  0  0  0
  -21.8872  -12.5792   21.5993 N   0  0  0  0  0  0  0  0  0  0  0  0
  -30.0816  -15.6901   21.4761 N   0  0  0  0  0  0  0  0  0  0  0  0
  -30.1371  -19.6642   26.0705 N   0  0  0  0  0  0  0  0  0  0  0  0
  -35.2044  -27.5864   20.7577 N   0  0  0  0  0  0  0  0  0  0  0  0
  -40.3130  -27.1308   25.2473 N   0  0  0  0  0  0  0  0  0  0  0  0
  -40.2580  -28.2050   28.6986 N   0  3  0  0  0  0  0  0  0  0  0  0
  -28.5232  -19.5974   24.4056 O   0  0  0  0  0  0  0  0  0  0  0  0
  -22.6636  -14.7189   21.3210 O   0  0  0  0  0  0  0  0  0  0  0  0
  -36.5248  -25.8519   21.5767 O   0  0  0  0  0  0  0  0  0  0  0  0
  -39.1550  -28.2221   22.8647 O   0  0  0  0  0  0  0  0  0  0  0  0
  -39.3837  -26.0699   27.0880 O   0  0  0  0  0  0  0  0  0  0  0  0
  -31.8579  -14.9341   20.1896 O   0  0  0  0  0  0  0  0  0  0  0  0
  -21.6121   -7.0160   21.7030 O   0  0  0  0  0  0  0  0  0  0  0  0
  -32.8793  -24.0825   26.7810 O   0  0  0  0  0  0  0  0  0  1  0  0
  -18.6206   -6.8549   26.3322 F   0  0  0  0  0  0  0  0  0  0  0  0
  -22.0617   -5.0708   23.6153 F   0  0  0  0  0  0  0  0  0  0  0  0
  1  2  1  0  0  0  0
  1  7  2  0  0  0  0
  2  8  2  0  0  0  0
  3  6  2  0  0  0  0
  3 10  1  0  0  0  0
  4 11  2  0  0  0  0
  4 19  1  0  0  0  0
  5 12  1  0  0  0  0
  5 19  2  0  0  0  0
  6 20  1  0  0  0  0
  7 22  1  0  0  0  0
  8 24  1  0  0  0  0
  9 13  2  0  0  0  0
  9 23  1  0  0  0  0
 10 26  2  0  0  0  0
 11 27  1  0  0  0  0
 12 27  2  0  0  0  0
 13 28  1  0  0  0  0
 14 15  2  0  0  0  0
 14 29  1  0  0  0  0
 15 30  1  0  0  0  0
 16 20  2  0  0  0  0
 16 26  1  0  0  0  0
 17 25  1  0  0  0  0
 17 28  2  0  0  0  0
 18 30  2  0  0  0  0
 18 31  1  0  0  0  0
 19 32  1  0  0  0  0
 20 34  1  0  0  0  0
 21 32  1  0  0  0  0
 21 33  2  0  0  0  0
 21 35  1  0  0  0  0
 22 24  2  0  0  0  0
 22 40  1  0  0  0  0
 23 25  2  0  0  0  0
 23 41  1  0  0  0  0
 24 49  1  0  0  0  0
 25 42  1  0  0  0  0
 26 70  1  0  0  0  0
 27 81  1  0  0  0  0
 28 82  1  0  0  0  0
 29 31  2  0  0  0  0
 29 81  1  0  0  0  0
 30 83  1  0  0  0  0
 31 84  1  0  0  0  0
 32 64  2  0  0  0  0
 33 65  1  0  0  0  0
 33 68  1  0  0  0  0
 34 71  1  0  0  0  0
 34 75  2  0  0  0  0
 35 69  1  0  0  0  0
 35 76  2  0  0  0  0
 36 50  1  0  0  0  0
 36 72  1  0  0  0  0
 36 77  2  0  0  0  0
 37 61  1  0  0  0  0
 37 66  1  0  0  0  0
 37 78  2  0  0  0  0
 38 62  1  0  0  0  0
 38 73  1  0  0  0  0
 38 79  2  0  0  0  0
 39 67  1  0  0  0  0
 39 70  1  0  0  0  0
 39 80  2  0  0  0  0
 40 43  1  0  0  0  0
 41 50  1  0  0  0  0
 42 66  1  0  0  0  0
 43 45  1  0  0  0  0
 44 46  1  0  0  0  0
 44 47  1  0  0  0  0
 45 49  1  0  0  0  0
 46 51  1  0  0  0  0
 47 67  1  0  0  0  0
 48 51  1  0  0  0  0
 48 67  1  0  0  0  0
 49 72  1  0  0  0  0
 50 66  1  0  0  0  0
 51 65  1  0  0  0  0
 52 62  1  0  0  0  0
 53 63  1  0  0  0  0
 54 63  1  0  0  0  0
 55 63  1  0  0  0  0
 56 74  1  0  0  0  0
 57 58  1  0  0  0  0
 57 59  1  0  0  0  0
 58 60  1  0  0  0  0
 59 71  1  0  0  0  0
 60 82  1  0  0  0  0
 61 63  1  0  0  0  0
 61 73  1  0  0  0  0
 62 74  1  0  0  0  0
 64 65  1  0  0  0  0
M  CHG  1  74   1
M  ISO  4  39 100  60 101  70 100  82 101
M  END
> <Batch ID>
0019

> <Smiles>
CNC(C)C(=O)NC(C(=O)N1Cc2cc([101O:1][101CH2:1]CCCNC(=O)c3cccc([100NH:0][100C:0](=O)N4CCCC(n5nc(-c6ccc(Oc7ccc(F)cc7F)cc6)c(C(N)=O)c5N)C4)c3)ccc2CC1C(=O)NC1CCCc2ccccc21)C(C)(C)C

> <Shape>
0.179

> <Color>
0.192

> <Negative vol penalty>
0.000

$$$$

  -OEChem-04042321053D

 80 88  0     1  0  0  0  0  0999 V2000
  -20.2272  -20.9570   21.3375 C   0  0  0  0  0  0  0  0  0  0  0  0
  -21.5938  -21.0166   21.0838 C   0  0  0  0  0  0  0  0  0  0  0  0
  -26.2357  -14.5590   21.6893 C   0  0  0  0  0  0  0  0  0  0  0  0
  -25.9663  -15.4387   19.4553 C   0  0  0  0  0  0  0  0  0  0  0  0
  -19.4420  -22.1000   21.1924 C   0  0  0  0  0  0  0  0  0  0  0  0
  -22.1758  -22.2190   20.6839 C   0  0  0  0  0  0  0  0  0  0  0  0
  -27.7786  -24.2471   22.0986 C   0  0  0  0  0  0  0  0  0  0  0  0
  -30.6279  -21.4927   16.6669 C   0  0  0  0  0  0  0  0  0  0  0  0
  -24.8543  -14.3946   21.7911 C   0  0  0  0  0  0  0  0  0  0  0  0
  -24.5849  -15.2744   19.5572 C   0  0  0  0  0  0  0  0  0  0  0  0
  -28.9866  -24.2277   21.4028 C   0  0  0  0  0  0  0  0  0  0  0  0
  -22.5221  -12.1928   20.7207 C   0  0  0  0  0  0  0  0  0  0  0  0
  -30.4069  -22.5541   15.7893 C   0  0  0  0  0  0  0  0  0  0  0  0
  -22.0494  -10.9908   21.2472 C   0  0  0  0  0  0  0  0  0  0  0  0
  -28.5681  -26.4727   20.6256 C   0  0  0  0  0  0  0  0  0  0  0  0
  -31.5168  -23.0312   18.3040 C   0  0  0  0  0  0  0  0  0  0  0  0
  -20.9554  -12.2014   23.0290 C   0  0  0  0  0  0  0  0  0  0  0  0
  -26.7917  -15.0811   20.5214 C   0  0  0  0  0  0  0  0  0  0  0  0
  -29.1532  -14.3156   19.9342 C   0  0  0  0  0  0  0  0  0  0  0  0
  -20.0163  -23.3193   20.7998 C   0  0  0  0  0  0  0  0  0  0  0  0
  -26.9497  -25.3774   22.0542 C   0  0  0  0  0  0  0  0  0  0  0  0
  -21.3973  -23.3790   20.5321 C   0  0  0  0  0  0  0  0  0  0  0  0
  -27.3513  -26.5049   21.3238 C   0  0  0  0  0  0  0  0  0  0  0  0
  -31.2958  -24.0927   17.4263 C   0  0  0  0  0  0  0  0  0  0  0  0
  -31.1828  -21.7313   17.9243 C   0  0  0  0  0  0  0  0  0  0  0  0
  -24.0289  -14.7523   20.7251 C   0  0  0  0  0  0  0  0  0  0  0  0
  -29.3802  -25.3395   20.6638 C   0  0  0  0  0  0  0  0  0  0  0  0
  -22.2115  -13.3992   21.3484 C   0  0  0  0  0  0  0  0  0  0  0  0
  -21.2660  -10.9950   22.4013 C   0  0  0  0  0  0  0  0  0  0  0  0
  -30.7409  -23.8541   16.1690 C   0  0  0  0  0  0  0  0  0  0  0  0
  -21.4281  -13.4035   22.5025 C   0  0  0  0  0  0  0  0  0  0  0  0
  -28.2185  -15.2516   20.4158 C   0  0  0  0  0  0  0  0  0  0  0  0
  -30.3644  -14.9547   20.0390 C   0  0  0  0  0  0  0  0  0  0  0  0
  -28.9452  -12.9871   19.4366 C   0  0  0  0  0  0  0  0  0  0  0  0
  -23.9992  -25.9562   21.0231 C   0  0  0  0  0  0  0  0  0  0  0  0
  -24.5253  -28.8692   22.3497 C   0  0  0  0  0  0  0  0  0  0  0  0
  -26.7740  -31.2293   23.3597 C   0  0  0  0  0  0  0  0  0  0  0  0
  -31.9480  -20.7161   20.0992 C   0  0  0  0  0  0  0  0  0  0  0  0
  -19.1191  -24.5167   20.6107 C   0  0  0  0  0  0  0  0  0  0  0  0
  -25.6624  -25.3924   22.8320 C   0  0  0  0  0  0  0  0  0  0  0  0
  -26.5072  -27.7507   21.2604 C   0  0  0  0  0  0  0  0  0  0  0  0
  -19.8760  -25.8408   20.5457 C   0  0  0  0  0  0  0  0  0  0  0  0
  -32.6249  -18.2952   22.6208 C   0  0  0  0  0  0  0  0  0  0  0  0
  -21.0771  -25.7237   19.6126 C   0  0  0  0  0  0  0  0  0  0  0  0
  -31.6610  -17.1522   22.2941 C   0  0  0  0  0  0  0  0  0  0  0  0
  -31.9976  -19.6613   22.3486 C   0  0  0  0  0  0  0  0  0  0  0  0
  -30.4750  -18.6876   20.6745 C   0  0  0  0  0  0  0  0  0  0  0  0
  -22.0696  -24.6707   20.1203 C   0  0  1  0  0  0  0  0  0  0  0  0
  -24.6539  -26.4054   22.2987 C   0  0  1  0  0  0  0  0  0  0  0  0
  -31.0850  -17.2902   20.8711 C   0  0  2  0  0  0  0  0  0  0  0  0
  -26.9027  -33.5224   24.3708 C   0  0  0  0  0  0  0  0  0  0  0  0
  -23.7429  -30.0936   19.6667 C   0  0  0  0  0  0  0  0  0  0  0  0
  -24.7839  -32.2415   20.4222 C   0  0  0  0  0  0  0  0  0  0  0  0
  -22.8390  -31.2952   21.6650 C   0  0  0  0  0  0  0  0  0  0  0  0
  -28.2492  -30.2308   25.7231 C   0  0  0  0  0  0  0  0  0  0  0  0
  -31.6569  -25.4988   17.8397 C   0  0  0  0  0  0  0  0  0  0  0  0
  -30.6313  -26.1046   18.7916 C   0  0  0  0  0  0  0  0  0  1  0  0
  -25.0984  -30.1781   21.8625 C   0  0  1  0  0  0  0  0  0  0  0  0
  -26.8878  -32.0269   24.6463 C   0  0  2  0  0  0  0  0  0  0  0  0
  -24.1313  -30.9281   20.9035 C   0  0  0  0  0  0  0  0  0  0  0  0
  -28.7871  -16.3981   20.7982 N   0  0  0  0  0  0  0  0  0  0  0  0
  -30.0922  -16.1867   20.5571 N   0  0  0  0  0  0  0  0  0  0  0  0
  -25.2543  -27.7142   22.0326 N   0  0  0  0  0  0  0  0  0  0  0  0
  -31.4775  -19.7200   20.9808 N   0  0  0  0  0  0  0  0  0  0  0  0
  -31.6251  -14.5775   19.7376 N   0  0  0  0  0  0  0  0  0  0  0  0
  -27.6371  -12.4854   19.3976 N   0  0  0  0  0  0  0  0  0  0  0  0
  -31.4062  -20.6528   18.8158 N   0  0  0  0  0  0  0  0  0  0  0  0
  -22.8564  -25.2028   21.2123 N   0  0  0  0  0  0  0  0  0  0  0  0
  -25.4618  -30.9341   23.0561 N   0  0  0  0  0  0  0  0  0  0  0  0
  -28.1416  -31.6694   25.3682 N   0  3  0  0  0  0  0  0  0  0  0  0
  -29.8932  -12.2602   19.0537 O   0  0  0  0  0  0  0  0  0  0  0  0
  -24.4934  -26.2711   19.9469 O   0  0  0  0  0  0  0  0  0  0  0  0
  -23.4736  -28.8721   22.9942 O   0  0  0  0  0  0  0  0  0  0  0  0
  -27.7512  -30.9042   22.6889 O   0  0  0  0  0  0  0  0  0  0  0  0
  -32.7913  -21.5461   20.4484 O   0  0  0  0  0  0  0  0  0  0  0  0
  -22.6809  -14.5918   20.8241 O   0  0  0  0  0  0  0  0  0  0  0  0
  -30.5585  -25.3229   19.9832 O   0  0  0  0  0  0  0  0  0  1  0  0
  -20.8108   -9.8407   22.9059 F   0  0  0  0  0  0  0  0  0  0  0  0
  -30.5260  -24.8672   15.3183 F   0  0  0  0  0  0  0  0  0  0  0  0
  -21.1255  -14.5593   23.1092 F   0  0  0  0  0  0  0  0  0  0  0  0
  1  2  1  0  0  0  0
  1  5  2  0  0  0  0
  2  6  2  0  0  0  0
  3  9  2  0  0  0  0
  3 18  1  0  0  0  0
  4 10  1  0  0  0  0
  4 18  2  0  0  0  0
  5 20  1  0  0  0  0
  6 22  1  0  0  0  0
  7 11  2  0  0  0  0
  7 21  1  0  0  0  0
  8 13  2  0  0  0  0
  8 25  1  0  0  0  0
  9 26  1  0  0  0  0
 10 26  2  0  0  0  0
 11 27  1  0  0  0  0
 12 14  2  0  0  0  0
 12 28  1  0  0  0  0
 13 30  1  0  0  0  0
 14 29  1  0  0  0  0
 15 23  1  0  0  0  0
 15 27  2  0  0  0  0
 16 24  1  0  0  0  0
 16 25  2  0  0  0  0
 17 29  2  0  0  0  0
 17 31  1  0  0  0  0
 18 32  1  0  0  0  0
 19 32  1  0  0  0  0
 19 33  2  0  0  0  0
 19 34  1  0  0  0  0
 20 22  2  0  0  0  0
 20 39  1  0  0  0  0
 21 23  2  0  0  0  0
 21 40  1  0  0  0  0
 22 48  1  0  0  0  0
 23 41  1  0  0  0  0
 24 30  2  0  0  0  0
 24 56  1  0  0  0  0
 25 67  1  0  0  0  0
 26 76  1  0  0  0  0
 27 77  1  0  0  0  0
 28 31  2  0  0  0  0
 28 76  1  0  0  0  0
 29 78  1  0  0  0  0
 30 79  1  0  0  0  0
 31 80  1  0  0  0  0
 32 61  2  0  0  0  0
 33 62  1  0  0  0  0
 33 65  1  0  0  0  0
 34 66  1  0  0  0  0
 34 71  2  0  0  0  0
 35 49  1  0  0  0  0
 35 68  1  0  0  0  0
 35 72  2  0  0  0  0
 36 58  1  0  0  0  0
 36 63  1  0  0  0  0
 36 73  2  0  0  0  0
 37 59  1  0  0  0  0
 37 69  1  0  0  0  0
 37 74  2  0  0  0  0
 38 64  1  0  0  0  0
 38 67  1  0  0  0  0
 38 75  2  0  0  0  0
 39 42  1  0  0  0  0
 40 49  1  0  0  0  0
 41 63  1  0  0  0  0
 42 44  1  0  0  0  0
 43 45  1  0  0  0  0
 43 46  1  0  0  0  0
 44 48  1  0  0  0  0
 45 50  1  0  0  0  0
 46 64  1  0  0  0  0
 47 50  1  0  0  0  0
 47 64  1  0  0  0  0
 48 68  1  0  0  0  0
 49 63  1  0  0  0  0
 50 62  1  0  0  0  0
 51 59  1  0  0  0  0
 52 60  1  0  0  0  0
 53 60  1  0  0  0  0
 54 60  1  0  0  0  0
 55 70  1  0  0  0  0
 56 57  1  0  0  0  0
 57 77  1  0  0  0  0
 58 60  1  0  0  0  0
 58 69  1  0  0  0  0
 59 70  1  0  0  0  0
 61 62  1  0  0  0  0
M  CHG  1  70   1
M  ISO  4  38 100  57 101  67 100  77 101
M  END
> <Batch ID>
0019

> <Smiles>
CNC(C)C(=O)NC(C(=O)N1Cc2cc([101O:1][101CH2:1]Cc3cc([100NH:0][100C:0](=O)N4CCCC(n5nc(-c6ccc(Oc7ccc(F)cc7F)cc6)c(C(N)=O)c5N)C4)ccc3F)ccc2CC1C(=O)NC1CCCc2ccccc21)C(C)(C)C

> <Shape>
0.244

> <Color>
0.067

> <Negative vol penalty>
0.000

$$$$

  -OEChem-04042321053D

 80 88  0     1  0  0  0  0  0999 V2000
  -24.4197   -8.4610   35.5882 C   0  0  0  0  0  0  0  0  0  0  0  0
  -25.3259   -8.8436   34.6044 C   0  0  0  0  0  0  0  0  0  0  0  0
  -23.2883   -9.8003   19.9133 C   0  0  0  0  0  0  0  0  0  0  0  0
  -23.7421   -9.9401   22.2822 C   0  0  0  0  0  0  0  0  0  0  0  0
  -23.1430   -9.0208   35.6141 C   0  0  0  0  0  0  0  0  0  0  0  0
  -24.9555   -9.7855   33.6452 C   0  0  0  0  0  0  0  0  0  0  0  0
  -28.5498  -14.0174   31.0610 C   0  0  0  0  0  0  0  0  0  0  0  0
  -32.2041  -14.6062   23.5585 C   0  0  0  0  0  0  0  0  0  0  0  0
  -22.5628   -8.6273   20.1215 C   0  0  0  0  0  0  0  0  0  0  0  0
  -23.0165   -8.7671   22.4904 C   0  0  0  0  0  0  0  0  0  0  0  0
  -29.2239  -14.0574   29.8413 C   0  0  0  0  0  0  0  0  0  0  0  0
  -19.7702   -7.8544   22.7115 C   0  0  0  0  0  0  0  0  0  0  0  0
  -32.6975  -15.3661   24.6191 C   0  0  0  0  0  0  0  0  0  0  0  0
  -18.8692   -7.8318   23.7760 C   0  0  0  0  0  0  0  0  0  0  0  0
  -27.3883  -15.2880   28.8741 C   0  0  0  0  0  0  0  0  0  0  0  0
  -20.0771   -5.9847   24.7591 C   0  0  0  0  0  0  0  0  0  0  0  0
  -23.8780  -10.4566   20.9937 C   0  0  0  0  0  0  0  0  0  0  0  0
  -24.1359  -12.9868   20.7959 C   0  0  0  0  0  0  0  0  0  0  0  0
  -22.7601   -9.9772   34.6606 C   0  0  0  0  0  0  0  0  0  0  0  0
  -27.2830  -14.6039   31.1937 C   0  0  0  0  0  0  0  0  0  0  0  0
  -23.6721  -10.3577   33.6576 C   0  0  0  0  0  0  0  0  0  0  0  0
  -26.7013  -15.2563   30.0972 C   0  0  0  0  0  0  0  0  0  0  0  0
  -31.1468  -14.2790   26.1193 C   0  0  0  0  0  0  0  0  0  0  0  0
  -31.1820  -13.6828   23.7783 C   0  0  0  0  0  0  0  0  0  0  0  0
  -22.4268   -8.1107   21.4100 C   0  0  0  0  0  0  0  0  0  0  0  0
  -28.6419  -14.6903   28.7468 C   0  0  0  0  0  0  0  0  0  0  0  0
  -20.8246   -6.9421   22.6707 C   0  0  0  0  0  0  0  0  0  0  0  0
  -19.0226   -6.8970   24.7999 C   0  0  0  0  0  0  0  0  0  0  0  0
  -32.1689  -15.2024   25.8995 C   0  0  0  0  0  0  0  0  0  0  0  0
  -20.9781   -6.0073   23.6945 C   0  0  0  0  0  0  0  0  0  0  0  0
  -30.6534  -13.5191   25.0587 C   0  0  0  0  0  0  0  0  0  0  0  0
  -24.6281  -11.6680   20.7792 C   0  0  0  0  0  0  0  0  0  0  0  0
  -25.2367  -13.7674   20.5398 C   0  0  0  0  0  0  0  0  0  0  0  0
  -22.8029  -13.4637   21.0226 C   0  0  0  0  0  0  0  0  0  0  0  0
  -24.3753  -13.5279   31.8946 C   0  0  0  0  0  0  0  0  0  0  0  0
  -23.6249  -16.6836   31.8656 C   0  0  0  0  0  0  0  0  0  0  0  0
  -24.3663  -19.8278   30.7652 C   0  0  0  0  0  0  0  0  0  0  0  0
  -31.0985  -12.9556   21.3678 C   0  0  0  0  0  0  0  0  0  0  0  0
  -21.3533  -10.5194   34.7007 C   0  0  0  0  0  0  0  0  0  0  0  0
  -26.5806  -14.5753   32.5234 C   0  0  0  0  0  0  0  0  0  0  0  0
  -25.3522  -15.9189   30.1931 C   0  0  0  0  0  0  0  0  0  0  0  0
  -21.1657  -11.7882   33.8729 C   0  0  0  0  0  0  0  0  0  0  0  0
  -29.4608  -13.6605   18.2859 C   0  0  0  0  0  0  0  0  0  0  0  0
  -21.8048  -11.6275   32.4972 C   0  0  0  0  0  0  0  0  0  0  0  0
  -27.9900  -13.3554   18.5789 C   0  0  0  0  0  0  0  0  0  0  0  0
  -30.3953  -12.6855   18.9998 C   0  0  0  0  0  0  0  0  0  0  0  0
  -28.7045  -12.2558   20.7393 C   0  0  0  0  0  0  0  0  0  0  0  0
  -23.3159  -11.3948   32.6147 C   0  0  1  0  0  0  0  0  0  0  0  0
  -25.0705  -14.7579   32.4056 C   0  0  1  0  0  0  0  0  0  0  0  0
  -27.7269  -13.2516   20.0940 C   0  0  2  0  0  0  0  0  0  0  0  0
  -23.5490  -22.1978   30.8771 C   0  0  0  0  0  0  0  0  0  0  0  0
  -21.4069  -16.0098   29.8815 C   0  0  0  0  0  0  0  0  0  0  0  0
  -21.2666  -18.4452   29.3181 C   0  0  0  0  0  0  0  0  0  0  0  0
  -20.7669  -17.6724   31.6367 C   0  0  0  0  0  0  0  0  0  0  0  0
  -26.8675  -20.7521   32.0491 C   0  0  0  0  0  0  0  0  0  0  0  0
  -30.5781  -14.1035   27.4967 C   0  0  0  0  0  0  0  0  0  1  0  0
  -23.1579  -17.6618   30.8149 C   0  0  1  0  0  0  0  0  0  0  0  0
  -24.4649  -21.1541   31.4972 C   0  0  2  0  0  0  0  0  0  0  0  0
  -21.6742  -17.4332   30.4101 C   0  0  0  0  0  0  0  0  0  0  0  0
  -25.9394  -11.6101   20.5320 N   0  0  0  0  0  0  0  0  0  0  0  0
  -26.2805  -12.9023   20.3909 N   0  0  0  0  0  0  0  0  0  0  0  0
  -24.7023  -15.8586   31.5127 N   0  0  0  0  0  0  0  0  0  0  0  0
  -30.0903  -12.6428   20.4316 N   0  0  0  0  0  0  0  0  0  0  0  0
  -25.4038  -15.1024   20.4298 N   0  0  0  0  0  0  0  0  0  0  0  0
  -21.7911  -12.5262   21.2709 N   0  0  0  0  0  0  0  0  0  0  0  0
  -30.6829  -12.9132   22.6983 N   0  0  0  0  0  0  0  0  0  0  0  0
  -23.9996  -12.6412   32.8856 N   0  0  0  0  0  0  0  0  0  0  0  0
  -23.4345  -18.9927   31.3445 N   0  0  0  0  0  0  0  0  0  0  0  0
  -25.8628  -21.6685   31.4510 N   0  3  0  0  0  0  0  0  0  0  0  0
  -22.5144  -14.6840   20.9892 O   0  0  0  0  0  0  0  0  0  0  0  0
  -24.1918  -13.3938   30.6904 O   0  0  0  0  0  0  0  0  0  0  0  0
  -23.0595  -16.6575   32.9615 O   0  0  0  0  0  0  0  0  0  0  0  0
  -25.0450  -19.5609   29.7759 O   0  0  0  0  0  0  0  0  0  0  0  0
  -32.2387  -13.2666   21.0141 O   0  0  0  0  0  0  0  0  0  0  0  0
  -21.7187   -6.9663   21.6135 O   0  0  0  0  0  0  0  0  0  0  0  0
  -29.2975  -14.7303   27.5549 O   0  0  0  0  0  0  0  0  0  1  0  0
  -18.1582   -6.8764   25.8229 F   0  0  0  0  0  0  0  0  0  0  0  0
  -32.6509  -15.9357   26.9126 F   0  0  0  0  0  0  0  0  0  0  0  0
  -21.9898   -5.1291   23.6615 F   0  0  0  0  0  0  0  0  0  0  0  0
  -29.6697  -12.6318   25.2715 F   0  0  0  0  0  0  0  0  0  0  0  0
  1  2  1  0  0  0  0
  1  5  2  0  0  0  0
  2  6  2  0  0  0  0
  3  9  2  0  0  0  0
  3 17  1  0  0  0  0
  4 10  1  0  0  0  0
  4 17  2  0  0  0  0
  5 19  1  0  0  0  0
  6 21  1  0  0  0  0
  7 11  2  0  0  0  0
  7 20  1  0  0  0  0
  8 13  1  0  0  0  0
  8 24  2  0  0  0  0
  9 25  1  0  0  0  0
 10 25  2  0  0  0  0
 11 26  1  0  0  0  0
 12 14  2  0  0  0  0
 12 27  1  0  0  0  0
 13 29  2  0  0  0  0
 14 28  1  0  0  0  0
 15 22  1  0  0  0  0
 15 26  2  0  0  0  0
 16 28  2  0  0  0  0
 16 30  1  0  0  0  0
 17 32  1  0  0  0  0
 18 32  1  0  0  0  0
 18 33  2  0  0  0  0
 18 34  1  0  0  0  0
 19 21  2  0  0  0  0
 19 39  1  0  0  0  0
 20 22  2  0  0  0  0
 20 40  1  0  0  0  0
 21 48  1  0  0  0  0
 22 41  1  0  0  0  0
 23 29  1  0  0  0  0
 23 31  2  0  0  0  0
 23 56  1  0  0  0  0
 24 31  1  0  0  0  0
 24 66  1  0  0  0  0
 25 75  1  0  0  0  0
 26 76  1  0  0  0  0
 27 30  2  0  0  0  0
 27 75  1  0  0  0  0
 28 77  1  0  0  0  0
 29 78  1  0  0  0  0
 30 79  1  0  0  0  0
 31 80  1  0  0  0  0
 32 60  2  0  0  0  0
 33 61  1  0  0  0  0
 33 64  1  0  0  0  0
 34 65  1  0  0  0  0
 34 70  2  0  0  0  0
 35 49  1  0  0  0  0
 35 67  1  0  0  0  0
 35 71  2  0  0  0  0
 36 57  1  0  0  0  0
 36 62  1  0  0  0  0
 36 72  2  0  0  0  0
 37 58  1  0  0  0  0
 37 68  1  0  0  0  0
 37 73  2  0  0  0  0
 38 63  1  0  0  0  0
 38 66  1  0  0  0  0
 38 74  2  0  0  0  0
 39 42  1  0  0  0  0
 40 49  1  0  0  0  0
 41 62  1  0  0  0  0
 42 44  1  0  0  0  0
 43 45  1  0  0  0  0
 43 46  1  0  0  0  0
 44 48  1  0  0  0  0
 45 50  1  0  0  0  0
 46 63  1  0  0  0  0
 47 50  1  0  0  0  0
 47 63  1  0  0  0  0
 48 67  1  0  0  0  0
 49 62  1  0  0  0  0
 50 61  1  0  0  0  0
 51 58  1  0  0  0  0
 52 59  1  0  0  0  0
 53 59  1  0  0  0  0
 54 59  1  0  0  0  0
 55 69  1  0  0  0  0
 56 76  1  0  0  0  0
 57 59  1  0  0  0  0
 57 68  1  0  0  0  0
 58 69  1  0  0  0  0
 60 61  1  0  0  0  0
M  CHG  1  69   1
M  ISO  4  38 100  56 101  66 100  76 101
M  END
> <Batch ID>
0019

> <Smiles>
CNC(C)C(=O)NC(C(=O)N1Cc2cc([101O:1][101CH2:1]c3c(F)ccc([100NH:0][100C:0](=O)N4CCCC(n5nc(-c6ccc(Oc7ccc(F)cc7F)cc6)c(C(N)=O)c5N)C4)c3F)ccc2CC1C(=O)NC1CCCc2ccccc21)C(C)(C)C

> <Shape>
0.136

> <Color>
0.182

> <Negative vol penalty>
0.000

$$$$

  -OEChem-04042321053D

 85 93  0     1  0  0  0  0  0999 V2000
  -24.0451  -29.6425   13.8496 C   0  0  0  0  0  0  0  0  0  0  0  0
  -25.1469  -29.1186   14.5182 C   0  0  0  0  0  0  0  0  0  0  0  0
  -23.5272  -10.6671   21.8799 C   0  0  0  0  0  0  0  0  0  0  0  0
  -24.8745   -8.7027   21.4758 C   0  0  0  0  0  0  0  0  0  0  0  0
  -23.2174  -30.5650   14.4883 C   0  0  0  0  0  0  0  0  0  0  0  0
  -25.4222  -29.5176   15.8257 C   0  0  0  0  0  0  0  0  0  0  0  0
  -26.6023  -25.6219   18.8382 C   0  0  0  0  0  0  0  0  0  0  0  0
  -31.2151  -19.9445   20.8631 C   0  0  0  0  0  0  0  0  0  0  0  0
  -31.0497  -18.6158   20.4721 C   0  0  0  0  0  0  0  0  0  0  0  0
  -22.3805   -9.8737   21.9135 C   0  0  0  0  0  0  0  0  0  0  0  0
  -23.7277   -7.9093   21.5095 C   0  0  0  0  0  0  0  0  0  0  0  0
  -27.8921  -25.1033   18.7326 C   0  0  0  0  0  0  0  0  0  0  0  0
  -21.6901   -6.5777   23.8538 C   0  0  0  0  0  0  0  0  0  0  0  0
  -21.7459   -5.3915   24.5853 C   0  0  0  0  0  0  0  0  0  0  0  0
  -28.5444  -26.3414   20.6975 C   0  0  0  0  0  0  0  0  0  0  0  0
  -28.8164  -20.2285   20.9127 C   0  0  0  0  0  0  0  0  0  0  0  0
  -21.2542   -4.1331   22.5824 C   0  0  0  0  0  0  0  0  0  0  0  0
  -24.7743  -10.0816   21.6609 C   0  0  0  0  0  0  0  0  0  0  0  0
  -26.7872  -11.2452   22.7105 C   0  0  0  0  0  0  0  0  0  0  0  0
  -23.4772  -30.9682   15.8076 C   0  0  0  0  0  0  0  0  0  0  0  0
  -26.2762  -26.5142   19.8697 C   0  0  0  0  0  0  0  0  0  0  0  0
  -24.5979  -30.4473   16.4822 C   0  0  0  0  0  0  0  0  0  0  0  0
  -27.2490  -26.8679   20.8155 C   0  0  0  0  0  0  0  0  0  0  0  0
  -28.6510  -18.8998   20.5216 C   0  0  0  0  0  0  0  0  0  0  0  0
  -30.0984  -20.7508   21.0834 C   0  0  0  0  0  0  0  0  0  0  0  0
  -29.7677  -18.0935   20.3013 C   0  0  0  0  0  0  0  0  0  0  0  0
  -22.4807   -8.4948   21.7284 C   0  0  0  0  0  0  0  0  0  0  0  0
  -28.8642  -25.4652   19.6606 C   0  0  0  0  0  0  0  0  0  0  0  0
  -21.4163   -6.5417   22.4865 C   0  0  0  0  0  0  0  0  0  0  0  0
  -21.5280   -4.1691   23.9497 C   0  0  0  0  0  0  0  0  0  0  0  0
  -21.1984   -5.3194   21.8508 C   0  0  0  0  0  0  0  0  0  0  0  0
  -25.9591  -10.9007   21.6254 C   0  0  0  0  0  0  0  0  0  0  0  0
  -27.7686  -12.0310   22.1575 C   0  0  0  0  0  0  0  0  0  0  0  0
  -26.6790  -10.8868   24.0946 C   0  0  0  0  0  0  0  0  0  0  0  0
  -25.2838  -29.5313   19.9955 C   0  0  0  0  0  0  0  0  0  0  0  0
  -25.0250  -28.9049   23.1677 C   0  0  0  0  0  0  0  0  0  0  0  0
  -26.0147  -27.0275   25.8403 C   0  0  0  0  0  0  0  0  0  0  0  0
  -28.9564  -16.3698   18.6994 C   0  0  0  0  0  0  0  0  0  0  0  0
  -22.5812  -32.0036   16.4400 C   0  0  0  0  0  0  0  0  0  0  0  0
  -24.8732  -27.0439   19.9854 C   0  0  0  0  0  0  0  0  0  0  0  0
  -26.9445  -27.8064   21.9534 C   0  0  0  0  0  0  0  0  0  0  0  0
  -22.7277  -32.0911   17.9570 C   0  0  0  0  0  0  0  0  0  0  0  0
  -28.9531  -12.9424   17.3346 C   0  0  0  0  0  0  0  0  0  0  0  0
  -24.2012  -32.1203   18.3502 C   0  0  0  0  0  0  0  0  0  0  0  0
  -28.1828  -12.1551   18.3933 C   0  0  0  0  0  0  0  0  0  0  0  0
  -28.5011  -14.3983   17.2704 C   0  0  0  0  0  0  0  0  0  0  0  0
  -27.7930  -14.3173   19.6415 C   0  0  0  0  0  0  0  0  0  0  0  0
  -24.9154  -30.8368   17.9096 C   0  0  1  0  0  0  0  0  0  0  0  0
  -24.7895  -28.3461   20.7756 C   0  0  1  0  0  0  0  0  0  0  0  0
  -28.2556  -12.8573   19.7602 C   0  0  1  0  0  0  0  0  0  0  0  0
  -27.2659  -18.3663   20.3478 C   0  0  0  0  0  0  0  0  0  0  0  0
  -29.0957  -22.0238   23.6150 C   0  0  0  0  0  0  0  0  0  0  0  0
  -25.6560  -26.7750   28.3111 C   0  0  0  0  0  0  0  0  0  0  0  0
  -26.7530  -31.3693   23.6679 C   0  0  0  0  0  0  0  0  0  0  0  0
  -27.1439  -30.5367   25.9964 C   0  0  0  0  0  0  0  0  0  0  0  0
  -24.8328  -31.1034   25.2480 C   0  0  0  0  0  0  0  0  0  0  0  0
  -30.3728  -15.6878   20.6226 C   0  0  0  0  0  0  0  0  0  0  0  0
  -25.0000  -24.2649   25.5281 C   0  0  0  0  0  0  0  0  0  0  0  0
  -31.4946  -22.9911   19.5718 C   0  0  0  0  0  0  0  0  0  0  0  0
  -29.2522  -22.7336   22.3134 C   0  0  0  0  0  0  0  0  0  0  0  0
  -31.4277  -22.8469   21.0874 C   0  0  0  0  0  0  0  0  0  0  0  0
  -30.2597  -23.6627   18.9828 C   0  0  0  0  0  0  0  0  0  1  0  0
  -25.9468  -29.0156   24.3580 C   0  0  1  0  0  0  0  0  0  0  0  0
  -25.2208  -26.3232   26.9258 C   0  0  2  0  0  0  0  0  0  0  0  0
  -26.1757  -30.4901   24.7951 C   0  0  0  0  0  0  0  0  0  0  0  0
  -26.3779  -11.4248   20.4705 N   0  0  0  0  0  0  0  0  0  0  0  0
  -27.4798  -12.1067   20.8267 N   0  0  0  0  0  0  0  0  0  0  0  0
  -25.5599  -28.3026   22.0201 N   0  0  0  0  0  0  0  0  0  0  0  0
  -28.5365  -15.0289   18.5904 N   0  0  0  0  0  0  0  0  0  0  0  0
  -28.8418  -12.6577   22.6846 N   0  0  0  0  0  0  0  0  0  0  0  0
  -25.6098  -10.0726   24.4923 N   0  0  0  0  0  0  0  0  0  0  0  0
  -24.6037  -29.7496   18.8126 N   0  0  0  0  0  0  0  0  0  0  0  0
  -25.3754  -28.1661   25.3973 N   0  0  0  0  0  0  0  0  0  0  0  0
  -29.6178  -16.7152   19.8979 N   0  0  0  0  0  0  0  0  0  0  0  0
  -30.2649  -22.0864   21.4771 N   0  0  3  0  0  0  0  0  0  0  0  0
  -25.4102  -24.8480   26.8315 N   0  3  0  0  0  0  0  0  0  0  0  0
  -27.4968  -11.2905   24.9559 O   0  0  0  0  0  0  0  0  0  0  0  0
  -26.2126  -30.1992   20.4349 O   0  0  0  0  0  0  0  0  0  0  0  0
  -23.8704  -29.3303   23.2553 O   0  0  0  0  0  0  0  0  0  0  0  0
  -27.0956  -26.6114   25.4293 O   0  0  0  0  0  0  0  0  0  0  0  0
  -28.7806  -17.1849   17.7860 O   0  0  0  0  0  0  0  0  0  0  0  0
  -21.3620   -7.7203   21.7614 O   0  0  0  0  0  0  0  0  0  0  0  0
  -30.1241  -24.9610   19.5594 O   0  0  0  0  0  0  0  0  0  1  0  0
  -21.5832   -3.0299   24.6520 F   0  0  0  0  0  0  0  0  0  0  0  0
  -20.9360   -5.2784   20.5373 F   0  0  0  0  0  0  0  0  0  0  0  0
  1  2  1  0  0  0  0
  1  5  2  0  0  0  0
  2  6  2  0  0  0  0
  3 10  2  0  0  0  0
  3 18  1  0  0  0  0
  4 11  1  0  0  0  0
  4 18  2  0  0  0  0
  5 20  1  0  0  0  0
  6 22  1  0  0  0  0
  7 12  2  0  0  0  0
  7 21  1  0  0  0  0
  8  9  2  0  0  0  0
  8 25  1  0  0  0  0
  9 26  1  0  0  0  0
 10 27  1  0  0  0  0
 11 27  2  0  0  0  0
 12 28  1  0  0  0  0
 13 14  2  0  0  0  0
 13 29  1  0  0  0  0
 14 30  1  0  0  0  0
 15 23  1  0  0  0  0
 15 28  2  0  0  0  0
 16 24  1  0  0  0  0
 16 25  2  0  0  0  0
 17 30  2  0  0  0  0
 17 31  1  0  0  0  0
 18 32  1  0  0  0  0
 19 32  1  0  0  0  0
 19 33  2  0  0  0  0
 19 34  1  0  0  0  0
 20 22  2  0  0  0  0
 20 39  1  0  0  0  0
 21 23  2  0  0  0  0
 21 40  1  0  0  0  0
 22 48  1  0  0  0  0
 23 41  1  0  0  0  0
 24 26  2  0  0  0  0
 24 51  1  0  0  0  0
 25 75  1  0  0  0  0
 26 74  1  0  0  0  0
 27 82  1  0  0  0  0
 28 83  1  0  0  0  0
 29 31  2  0  0  0  0
 29 82  1  0  0  0  0
 30 84  1  0  0  0  0
 31 85  1  0  0  0  0
 32 66  2  0  0  0  0
 33 67  1  0  0  0  0
 33 70  1  0  0  0  0
 34 71  1  0  0  0  0
 34 77  2  0  0  0  0
 35 49  1  0  0  0  0
 35 72  1  0  0  0  0
 35 78  2  0  0  0  0
 36 63  1  0  0  0  0
 36 68  1  0  0  0  0
 36 79  2  0  0  0  0
 37 64  1  0  0  0  0
 37 73  1  0  0  0  0
 37 80  2  0  0  0  0
 38 69  1  0  0  0  0
 38 74  1  0  0  0  0
 38 81  2  0  0  0  0
 39 42  1  0  0  0  0
 40 49  1  0  0  0  0
 41 68  1  0  0  0  0
 42 44  1  0  0  0  0
 43 45  1  0  0  0  0
 43 46  1  0  0  0  0
 44 48  1  0  0  0  0
 45 50  1  0  0  0  0
 46 69  1  0  0  0  0
 47 50  1  0  0  0  0
 47 69  1  0  0  0  0
 48 72  1  0  0  0  0
 49 68  1  0  0  0  0
 50 67  1  0  0  0  0
 52 60  1  0  0  0  0
 53 64  1  0  0  0  0
 54 65  1  0  0  0  0
 55 65  1  0  0  0  0
 56 65  1  0  0  0  0
 57 74  1  0  0  0  0
 58 76  1  0  0  0  0
 59 61  1  0  0  0  0
 59 62  1  0  0  0  0
 60 75  1  0  0  0  0
 61 75  1  0  0  0  0
 62 83  1  0  0  0  0
 63 65  1  0  0  0  0
 63 73  1  0  0  0  0
 64 76  1  0  0  0  0
 66 67  1  0  0  0  0
M  CHG  1  76   1
M  ISO  4  38 100  62 101  74 100  83 101
M  END
> <Batch ID>
0019

> <Smiles>
CCN(CC[101CH2:1][101O:1]c1ccc2c(c1)CN(C(=O)C(NC(=O)C(C)NC)C(C)(C)C)C(C(=O)NC1CCCc3ccccc31)C2)c1ccc([100N:0](C)[100C:0](=O)N2CCCC(n3nc(-c4ccc(Oc5ccc(F)cc5F)cc4)c(C(N)=O)c3N)C2)c(C)c1

> <Shape>
0.272

> <Color>
0.098

> <Negative vol penalty>
0.000

$$$$

  -OEChem-04042321053D

 83 91  0     1  0  0  0  0  0999 V2000
  -34.1375  -27.5140   22.1265 C   0  0  0  0  0  0  0  0  0  0  0  0
  -34.9316  -26.4913   22.6352 C   0  0  0  0  0  0  0  0  0  0  0  0
  -23.1922   -9.8177   19.9317 C   0  0  0  0  0  0  0  0  0  0  0  0
  -23.5697   -9.9990   22.3111 C   0  0  0  0  0  0  0  0  0  0  0  0
  -32.8264  -27.2475   21.7340 C   0  0  0  0  0  0  0  0  0  0  0  0
  -34.4146  -25.2015   22.7528 C   0  0  0  0  0  0  0  0  0  0  0  0
  -36.4089  -18.3317   22.3728 C   0  0  0  0  0  0  0  0  0  0  0  0
  -32.7677  -11.8546   26.3656 C   0  0  0  0  0  0  0  0  0  0  0  0
  -22.4271   -8.6702   20.1405 C   0  0  0  0  0  0  0  0  0  0  0  0
  -22.8046   -8.8515   22.5199 C   0  0  0  0  0  0  0  0  0  0  0  0
  -36.3455  -17.1495   23.1090 C   0  0  0  0  0  0  0  0  0  0  0  0
  -23.2094   -5.5052   22.2566 C   0  0  0  0  0  0  0  0  0  0  0  0
  -31.4236  -12.2133   26.4670 C   0  0  0  0  0  0  0  0  0  0  0  0
  -23.7087   -4.5446   23.1362 C   0  0  0  0  0  0  0  0  0  0  0  0
  -34.0926  -16.7893   22.3254 C   0  0  0  0  0  0  0  0  0  0  0  0
  -32.6561  -12.1149   23.9662 C   0  0  0  0  0  0  0  0  0  0  0  0
  -21.7515   -4.8027   24.5290 C   0  0  0  0  0  0  0  0  0  0  0  0
  -23.7635  -10.4820   21.0170 C   0  0  0  0  0  0  0  0  0  0  0  0
  -24.0995  -12.9990   20.7728 C   0  0  0  0  0  0  0  0  0  0  0  0
  -32.2963  -25.9518   21.8378 C   0  0  0  0  0  0  0  0  0  0  0  0
  -35.3088  -18.7579   21.6147 C   0  0  0  0  0  0  0  0  0  0  0  0
  -33.0948  -24.9177   22.3626 C   0  0  0  0  0  0  0  0  0  0  0  0
  -34.1455  -17.9760   21.5784 C   0  0  0  0  0  0  0  0  0  0  0  0
  -33.3840  -11.8054   25.1152 C   0  0  0  0  0  0  0  0  0  0  0  0
  -31.3119  -12.4736   24.0677 C   0  0  0  0  0  0  0  0  0  0  0  0
  -22.2333   -8.1871   21.4346 C   0  0  0  0  0  0  0  0  0  0  0  0
  -35.1862  -16.3795   23.0878 C   0  0  0  0  0  0  0  0  0  0  0  0
  -21.9813   -6.1147   22.5133 C   0  0  0  0  0  0  0  0  0  0  0  0
  -22.9797   -4.1933   24.2723 C   0  0  0  0  0  0  0  0  0  0  0  0
  -30.6957  -12.5228   25.3181 C   0  0  0  0  0  0  0  0  0  0  0  0
  -21.2523   -5.7634   23.6494 C   0  0  0  0  0  0  0  0  0  0  0  0
  -24.5544  -11.6671   20.8019 C   0  0  0  0  0  0  0  0  0  0  0  0
  -25.2299  -13.7429   20.5376 C   0  0  0  0  0  0  0  0  0  0  0  0
  -22.7737  -13.5175   20.9432 C   0  0  0  0  0  0  0  0  0  0  0  0
  -33.4065  -21.3041   21.6575 C   0  0  0  0  0  0  0  0  0  0  0  0
  -32.2132  -19.9733   18.9505 C   0  0  0  0  0  0  0  0  0  0  0  0
  -31.7294  -17.1651   17.0725 C   0  0  0  0  0  0  0  0  0  0  0  0
  -31.0352  -12.7889   21.5837 C   0  0  0  0  0  0  0  0  0  0  0  0
  -30.8584  -25.7222   21.4449 C   0  0  0  0  0  0  0  0  0  0  0  0
  -35.4027  -20.0219   20.8048 C   0  0  0  0  0  0  0  0  0  0  0  0
  -32.9441  -18.3792   20.7644 C   0  0  0  0  0  0  0  0  0  0  0  0
  -30.5075  -24.2491   21.2521 C   0  0  0  0  0  0  0  0  0  0  0  0
  -29.5227  -13.4682   18.4327 C   0  0  0  0  0  0  0  0  0  0  0  0
  -31.0487  -23.4154   22.4092 C   0  0  0  0  0  0  0  0  0  0  0  0
  -28.0349  -13.2105   18.6817 C   0  0  0  0  0  0  0  0  0  0  0  0
  -30.4048  -12.4843   19.1994 C   0  0  0  0  0  0  0  0  0  0  0  0
  -28.6449  -12.1412   20.8889 C   0  0  0  0  0  0  0  0  0  0  0  0
  -32.5780  -23.5004   22.4824 C   0  0  1  0  0  0  0  0  0  0  0  0
  -34.0398  -20.6240   20.4768 C   0  0  1  0  0  0  0  0  0  0  0  0
  -27.7181  -13.1486   20.1888 C   0  0  2  0  0  0  0  0  0  0  0  0
  -30.6881  -16.3857   14.9265 C   0  0  0  0  0  0  0  0  0  0  0  0
  -29.4484  -20.1576   20.2280 C   0  0  0  0  0  0  0  0  0  0  0  0
  -28.6201  -18.5437   18.5025 C   0  0  0  0  0  0  0  0  0  0  0  0
  -29.5193  -20.7628   17.8025 C   0  0  0  0  0  0  0  0  0  0  0  0
  -34.3311  -16.2332   16.0133 C   0  0  0  0  0  0  0  0  0  0  0  0
  -36.9185  -11.9115   23.7440 C   0  0  0  0  0  0  0  0  0  0  0  0
  -34.8296  -11.4189   25.0067 C   0  0  0  0  0  0  0  0  0  0  0  0
  -36.0002  -13.5918   25.3362 C   0  0  0  0  0  0  0  0  0  0  0  0
  -36.2782  -14.8635   24.5591 C   0  0  0  0  0  0  0  0  0  1  0  0
  -31.1132  -18.9874   18.6390 C   0  0  1  0  0  0  0  0  0  0  0  0
  -31.9570  -16.8883   15.5974 C   0  0  2  0  0  0  0  0  0  0  0  0
  -29.6970  -19.6060   18.8100 C   0  0  0  0  0  0  0  0  0  0  0  0
  -25.8711  -11.5674   20.6011 N   0  0  0  0  0  0  0  0  0  0  0  0
  -26.2533  -12.8462   20.4435 N   0  0  0  0  0  0  0  0  0  0  0  0
  -33.0825  -19.6264   19.9945 N   0  0  0  0  0  0  0  0  0  0  0  0
  -30.0507  -12.4827   20.6204 N   0  0  0  0  0  0  0  0  0  0  0  0
  -25.4384  -15.0699   20.4042 N   0  0  0  0  0  0  0  0  0  0  0  0
  -21.7279  -12.6141   21.1772 N   0  0  0  0  0  0  0  0  0  0  0  0
  -30.5741  -12.7884   22.8997 N   0  0  0  0  0  0  0  0  0  0  0  0
  -33.1801  -22.6548   21.4739 N   0  0  0  0  0  0  0  0  0  0  0  0
  -31.3863  -18.4814   17.2982 N   0  0  0  0  0  0  0  0  0  0  0  0
  -33.0207  -15.8595   15.4214 N   0  3  0  0  0  0  0  0  0  0  0  0
  -35.6845  -12.4958   24.3857 N   0  3  1  0  0  0  0  0  0  0  0  0
  -22.5211  -14.7442   20.8732 O   0  0  0  0  0  0  0  0  0  0  0  0
  -33.1414  -20.6513   22.6602 O   0  0  0  0  0  0  0  0  0  0  0  0
  -32.3023  -21.0095   18.2873 O   0  0  0  0  0  0  0  0  0  0  0  0
  -31.8411  -16.2993   17.9377 O   0  0  0  0  0  0  0  0  0  0  0  0
  -32.1950  -13.0602   21.2625 O   0  0  0  0  0  0  0  0  0  0  0  0
  -21.4866   -7.0676   21.6387 O   0  0  0  0  0  0  0  0  0  0  0  0
  -35.1215  -15.2255   23.8060 O   0  0  0  0  0  0  0  0  0  1  0  0
  -23.4585   -3.2697   25.1160 F   0  0  0  0  0  0  0  0  0  0  0  0
  -29.4042  -12.8656   25.4277 F   0  0  0  0  0  0  0  0  0  0  0  0
  -20.0712   -6.3446   23.9007 F   0  0  0  0  0  0  0  0  0  0  0  0
  1  2  1  0  0  0  0
  1  5  2  0  0  0  0
  2  6  2  0  0  0  0
  3  9  2  0  0  0  0
  3 18  1  0  0  0  0
  4 10  1  0  0  0  0
  4 18  2  0  0  0  0
  5 20  1  0  0  0  0
  6 22  1  0  0  0  0
  7 11  2  0  0  0  0
  7 21  1  0  0  0  0
  8 13  2  0  0  0  0
  8 24  1  0  0  0  0
  9 26  1  0  0  0  0
 10 26  2  0  0  0  0
 11 27  1  0  0  0  0
 12 14  2  0  0  0  0
 12 28  1  0  0  0  0
 13 30  1  0  0  0  0
 14 29  1  0  0  0  0
 15 23  1  0  0  0  0
 15 27  2  0  0  0  0
 16 24  2  0  0  0  0
 16 25  1  0  0  0  0
 17 29  2  0  0  0  0
 17 31  1  0  0  0  0
 18 32  1  0  0  0  0
 19 32  1  0  0  0  0
 19 33  2  0  0  0  0
 19 34  1  0  0  0  0
 20 22  2  0  0  0  0
 20 39  1  0  0  0  0
 21 23  2  0  0  0  0
 21 40  1  0  0  0  0
 22 48  1  0  0  0  0
 23 41  1  0  0  0  0
 24 57  1  0  0  0  0
 25 30  2  0  0  0  0
 25 69  1  0  0  0  0
 26 79  1  0  0  0  0
 27 80  1  0  0  0  0
 28 31  2  0  0  0  0
 28 79  1  0  0  0  0
 29 81  1  0  0  0  0
 30 82  1  0  0  0  0
 31 83  1  0  0  0  0
 32 63  2  0  0  0  0
 33 64  1  0  0  0  0
 33 67  1  0  0  0  0
 34 68  1  0  0  0  0
 34 74  2  0  0  0  0
 35 49  1  0  0  0  0
 35 70  1  0  0  0  0
 35 75  2  0  0  0  0
 36 60  1  0  0  0  0
 36 65  1  0  0  0  0
 36 76  2  0  0  0  0
 37 61  1  0  0  0  0
 37 71  1  0  0  0  0
 37 77  2  0  0  0  0
 38 66  1  0  0  0  0
 38 69  1  0  0  0  0
 38 78  2  0  0  0  0
 39 42  1  0  0  0  0
 40 49  1  0  0  0  0
 41 65  1  0  0  0  0
 42 44  1  0  0  0  0
 43 45  1  0  0  0  0
 43 46  1  0  0  0  0
 44 48  1  0  0  0  0
 45 50  1  0  0  0  0
 46 66  1  0  0  0  0
 47 50  1  0  0  0  0
 47 66  1  0  0  0  0
 48 70  1  0  0  0  0
 49 65  1  0  0  0  0
 50 64  1  0  0  0  0
 51 61  1  0  0  0  0
 52 62  1  0  0  0  0
 53 62  1  0  0  0  0
 54 62  1  0  0  0  0
 55 72  1  0  0  0  0
 56 73  1  0  0  0  0
 57 73  1  0  0  0  0
 58 59  1  0  0  0  0
 58 73  1  0  0  0  0
 59 80  1  0  0  0  0
 60 62  1  0  0  0  0
 60 71  1  0  0  0  0
 61 72  1  0  0  0  0
 63 64  1  0  0  0  0
M  CHG  2  72   1  73   1
M  ISO  4  38 100  59 101  69 100  80 101
M  END
> <Batch ID>
0019

> <Smiles>
CNC(C)C(=O)NC(C(=O)N1Cc2cc([101O:1][101CH2:1]CN(C)Cc3ccc(F)c([100NH:0][100C:0](=O)N4CCCC(n5nc(-c6ccc(Oc7ccc(F)cc7F)cc6)c(C(N)=O)c5N)C4)c3)ccc2CC1C(=O)NC1CCCc2ccccc21)C(C)(C)C

> <Shape>
0.171

> <Color>
0.182

> <Negative vol penalty>
0.000

$$$$

  -OEChem-04042321053D

 90 99  0     1  0  0  0  0  0999 V2000
  -16.0611  -31.1072   26.3334 C   0  0  0  0  0  0  0  0  0  0  0  0
  -16.4898  -29.9324   26.9429 C   0  0  0  0  0  0  0  0  0  0  0  0
  -24.4553  -13.0926   19.7956 C   0  0  0  0  0  0  0  0  0  0  0  0
  -26.1360  -13.3141   21.5170 C   0  0  0  0  0  0  0  0  0  0  0  0
  -16.4262  -31.3811   25.0160 C   0  0  0  0  0  0  0  0  0  0  0  0
  -17.2831  -29.0303   26.2349 C   0  0  0  0  0  0  0  0  0  0  0  0
  -24.3122  -26.1060   27.9862 C   0  0  0  0  0  0  0  0  0  0  0  0
  -30.7451  -21.2024   23.4276 C   0  0  0  0  0  0  0  0  0  0  0  0
  -31.1142  -21.4059   24.7572 C   0  0  0  0  0  0  0  0  0  0  0  0
  -24.4886  -11.7058   19.9414 C   0  0  0  0  0  0  0  0  0  0  0  0
  -26.1692  -11.9272   21.6629 C   0  0  0  0  0  0  0  0  0  0  0  0
  -25.6222  -25.6426   28.1101 C   0  0  0  0  0  0  0  0  0  0  0  0
  -23.2498   -9.3953   22.0769 C   0  0  0  0  0  0  0  0  0  0  0  0
  -22.0307   -8.7198   22.1305 C   0  0  0  0  0  0  0  0  0  0  0  0
  -25.7878  -25.4359   25.7064 C   0  0  0  0  0  0  0  0  0  0  0  0
  -31.9543  -23.1935   22.7870 C   0  0  0  0  0  0  0  0  0  0  0  0
  -22.6475   -7.4511   20.1691 C   0  0  0  0  0  0  0  0  0  0  0  0
  -25.2791  -13.8968   20.5833 C   0  0  0  0  0  0  0  0  0  0  0  0
  -24.1377  -16.1779   20.6180 C   0  0  0  0  0  0  0  0  0  0  0  0
  -17.2324  -30.4864   24.2947 C   0  0  0  0  0  0  0  0  0  0  0  0
  -23.7396  -26.2509   26.7195 C   0  0  0  0  0  0  0  0  0  0  0  0
  -17.6582  -29.2918   24.9062 C   0  0  0  0  0  0  0  0  0  0  0  0
  -24.4803  -25.9115   25.5754 C   0  0  0  0  0  0  0  0  0  0  0  0
  -31.1651  -22.0961   22.4425 C   0  0  0  0  0  0  0  0  0  0  0  0
  -31.9033  -22.5033   25.1018 C   0  0  0  0  0  0  0  0  0  0  0  0
  -25.3455  -11.1231   20.8751 C   0  0  0  0  0  0  0  0  0  0  0  0
  -26.3580  -25.3082   26.9730 C   0  0  0  0  0  0  0  0  0  0  0  0
  -24.1678   -9.0989   21.0693 C   0  0  0  0  0  0  0  0  0  0  0  0
  -21.7296   -7.7476   21.1766 C   0  0  0  0  0  0  0  0  0  0  0  0
  -32.3234  -23.3971   24.1167 C   0  0  0  0  0  0  0  0  0  0  0  0
  -23.8667   -8.1267   20.1154 C   0  0  0  0  0  0  0  0  0  0  0  0
  -25.2456  -15.3293   20.4327 C   0  0  0  0  0  0  0  0  0  0  0  0
  -24.6217  -17.4364   20.3563 C   0  0  0  0  0  0  0  0  0  0  0  0
  -22.7916  -15.8573   20.9933 C   0  0  0  0  0  0  0  0  0  0  0  0
  -20.7389  -27.2614   24.7069 C   0  0  0  0  0  0  0  0  0  0  0  0
  -23.2071  -28.2950   23.2069 C   0  0  0  0  0  0  0  0  0  0  0  0
  -26.1426  -29.6249   22.0882 C   0  0  0  0  0  0  0  0  0  0  0  0
  -28.3070  -21.3288   20.8345 C   0  0  0  0  0  0  0  0  0  0  0  0
  -17.5620  -30.8032   22.8574 C   0  0  0  0  0  0  0  0  0  0  0  0
  -22.3109  -26.6880   26.5417 C   0  0  0  0  0  0  0  0  0  0  0  0
  -23.8117  -26.0505   24.2350 C   0  0  0  0  0  0  0  0  0  0  0  0
  -18.7155  -29.9732   22.2999 C   0  0  0  0  0  0  0  0  0  0  0  0
  -28.9931  -18.9396   18.3259 C   0  0  0  0  0  0  0  0  0  0  0  0
  -32.1931  -25.8686   28.6983 C   0  0  0  0  0  0  0  0  0  0  0  0
  -18.5365  -28.5015   22.6590 C   0  0  0  0  0  0  0  0  0  0  0  0
  -30.7029  -25.8979   29.0216 C   0  0  0  0  0  0  0  0  0  0  0  0
  -27.9879  -17.8416   18.6708 C   0  0  0  0  0  0  0  0  0  0  0  0
  -29.6201  -19.5581   19.5768 C   0  0  0  0  0  0  0  0  0  0  0  0
  -27.6247  -18.9494   20.9074 C   0  0  0  0  0  0  0  0  0  0  0  0
  -32.6483  -24.4859   28.2572 C   0  0  0  0  0  0  0  0  0  0  0  0
  -30.3375  -23.9856   27.4143 C   0  0  0  0  0  0  0  0  0  0  0  0
  -18.5404  -28.3002   24.1792 C   0  0  1  0  0  0  0  0  0  0  0  0
  -22.0948  -27.5468   25.2828 C   0  0  1  0  0  0  0  0  0  0  0  0
  -29.8666  -25.3747   27.8485 C   0  0  1  0  0  0  0  0  0  0  0  0
  -26.9360  -18.3529   19.6703 C   0  0  2  0  0  0  0  0  0  0  0  0
  -28.7031  -25.7652   22.1007 C   0  0  0  0  0  0  0  0  0  0  0  0
  -27.0880  -31.0386   20.2429 C   0  0  0  0  0  0  0  0  0  0  0  0
  -23.0119  -25.9252   21.2964 C   0  0  0  0  0  0  0  0  0  0  0  0
  -24.7566  -27.0200   19.8730 C   0  0  0  0  0  0  0  0  0  0  0  0
  -22.5649  -28.1511   20.2473 C   0  0  0  0  0  0  0  0  0  0  0  0
  -27.0723  -31.6922   23.9910 C   0  0  0  0  0  0  0  0  0  0  0  0
  -30.7703  -21.8787   21.0210 C   0  0  0  0  0  0  0  0  0  0  0  0
  -32.2978  -22.7204   26.5329 C   0  0  0  0  0  0  0  0  0  0  0  0
  -28.3846  -25.3419   28.2177 C   0  0  0  0  0  0  0  0  0  1  0  0
  -29.0248  -24.2775   22.1278 C   0  0  0  0  0  0  0  0  0  0  0  0
  -29.0918  -23.6638   20.7344 C   0  0  0  0  0  0  0  0  0  0  0  0
  -24.2388  -28.0351   22.1385 C   0  0  1  0  0  0  0  0  0  0  0  0
  -26.5091  -31.0311   21.6491 C   0  0  2  0  0  0  0  0  0  0  0  0
  -23.6482  -27.2771   20.9162 C   0  0  0  0  0  0  0  0  0  0  0  0
  -26.3500  -15.9927   20.0803 N   0  0  0  0  0  0  0  0  0  0  0  0
  -25.9385  -17.2715   20.0420 N   0  0  0  0  0  0  0  0  0  0  0  0
  -23.0450  -27.3052   24.1838 N   0  0  0  0  0  0  0  0  0  0  0  0
  -28.5829  -19.9891   20.5240 N   0  0  0  0  0  0  0  0  0  0  0  0
  -24.0449  -18.6569   20.3666 N   0  0  0  0  0  0  0  0  0  0  0  0
  -22.4645  -14.5143   21.2249 N   0  0  0  0  0  0  0  0  0  0  0  0
  -19.8925  -28.3535   24.6926 N   0  0  0  0  0  0  0  0  0  0  0  0
  -24.8240  -29.3310   21.8122 N   0  0  0  0  0  0  0  0  0  0  0  0
  -29.3753  -22.2360   20.7708 N   0  0  0  0  0  0  0  0  0  0  0  0
  -31.8116  -24.0321   27.0858 N   0  3  2  0  0  0  0  0  0  0  0  0
  -27.5185  -31.6166   22.5760 N   0  3  0  0  0  0  0  0  0  0  0  0
  -21.9011  -16.7339   21.1035 O   0  0  0  0  0  0  0  0  0  0  0  0
  -20.4790  -26.1339   24.3033 O   0  0  0  0  0  0  0  0  0  0  0  0
  -22.5572  -29.3437   23.1752 O   0  0  0  0  0  0  0  0  0  0  0  0
  -26.9467  -28.8620   22.6192 O   0  0  0  0  0  0  0  0  0  0  0  0
  -27.1699  -21.6946   21.1591 O   0  0  0  0  0  0  0  0  0  0  0  0
  -25.3781   -9.7699   21.0179 O   0  0  0  0  0  0  0  0  0  0  0  0
  -27.6379  -24.8607   27.1009 O   0  0  0  0  0  0  0  0  0  1  0  0
  -20.5594   -7.0978   21.2291 F   0  0  0  0  0  0  0  0  0  0  0  0
  -33.0810  -24.4549   24.4385 F   0  0  0  0  0  0  0  0  0  0  0  0
  -24.7451   -7.8367   19.1458 F   0  0  0  0  0  0  0  0  0  0  0  0
  1  2  1  0  0  0  0
  1  5  2  0  0  0  0
  2  6  2  0  0  0  0
  3 10  2  0  0  0  0
  3 18  1  0  0  0  0
  4 11  1  0  0  0  0
  4 18  2  0  0  0  0
  5 20  1  0  0  0  0
  6 22  1  0  0  0  0
  7 12  2  0  0  0  0
  7 21  1  0  0  0  0
  8  9  2  0  0  0  0
  8 24  1  0  0  0  0
  9 25  1  0  0  0  0
 10 26  1  0  0  0  0
 11 26  2  0  0  0  0
 12 27  1  0  0  0  0
 13 14  2  0  0  0  0
 13 28  1  0  0  0  0
 14 29  1  0  0  0  0
 15 23  1  0  0  0  0
 15 27  2  0  0  0  0
 16 24  2  0  0  0  0
 16 30  1  0  0  0  0
 17 29  2  0  0  0  0
 17 31  1  0  0  0  0
 18 32  1  0  0  0  0
 19 32  1  0  0  0  0
 19 33  2  0  0  0  0
 19 34  1  0  0  0  0
 20 22  2  0  0  0  0
 20 39  1  0  0  0  0
 21 23  2  0  0  0  0
 21 40  1  0  0  0  0
 22 52  1  0  0  0  0
 23 41  1  0  0  0  0
 24 62  1  0  0  0  0
 25 30  2  0  0  0  0
 25 63  1  0  0  0  0
 26 86  1  0  0  0  0
 27 87  1  0  0  0  0
 28 31  2  0  0  0  0
 28 86  1  0  0  0  0
 29 88  1  0  0  0  0
 30 89  1  0  0  0  0
 31 90  1  0  0  0  0
 32 70  2  0  0  0  0
 33 71  1  0  0  0  0
 33 74  1  0  0  0  0
 34 75  1  0  0  0  0
 34 81  2  0  0  0  0
 35 53  1  0  0  0  0
 35 76  1  0  0  0  0
 35 82  2  0  0  0  0
 36 67  1  0  0  0  0
 36 72  1  0  0  0  0
 36 83  2  0  0  0  0
 37 68  1  0  0  0  0
 37 77  1  0  0  0  0
 37 84  2  0  0  0  0
 38 73  1  0  0  0  0
 38 78  1  0  0  0  0
 38 85  2  0  0  0  0
 39 42  1  0  0  0  0
 40 53  1  0  0  0  0
 41 72  1  0  0  0  0
 42 45  1  0  0  0  0
 43 47  1  0  0  0  0
 43 48  1  0  0  0  0
 44 46  1  0  0  0  0
 44 50  1  0  0  0  0
 45 52  1  0  0  0  0
 46 54  1  0  0  0  0
 47 55  1  0  0  0  0
 48 73  1  0  0  0  0
 49 55  1  0  0  0  0
 49 73  1  0  0  0  0
 50 79  1  0  0  0  0
 51 54  1  0  0  0  0
 51 79  1  0  0  0  0
 52 76  1  0  0  0  0
 53 72  1  0  0  0  0
 54 64  1  0  0  0  0
 55 71  1  0  0  0  0
 56 65  1  0  0  0  0
 57 68  1  0  0  0  0
 58 69  1  0  0  0  0
 59 69  1  0  0  0  0
 60 69  1  0  0  0  0
 61 80  1  0  0  0  0
 62 78  1  0  0  0  0
 63 79  1  0  0  0  0
 64 87  1  0  0  0  0
 65 66  1  0  0  0  0
 66 78  1  0  0  0  0
 67 69  1  0  0  0  0
 67 77  1  0  0  0  0
 68 80  1  0  0  0  0
 70 71  1  0  0  0  0
M  CHG  2  79   1  80   1
M  ISO  4  38 100  64 101  78 100  87 101
M  END
> <Batch ID>
0019

> <Smiles>
CCC[100N:0](Cc1ccc(CN2CCCC([101CH2:1][101O:1]c3ccc4c(c3)CN(C(=O)C(NC(=O)C(C)NC)C(C)(C)C)C(C(=O)NC3CCCc5ccccc53)C4)C2)c(F)c1)[100C:0](=O)N1CCCC(n2nc(-c3ccc(Oc4ccc(F)cc4F)cc3)c(C(N)=O)c2N)C1

> <Shape>
0.210

> <Color>
0.055

> <Negative vol penalty>
0.000

$$$$

  -OEChem-04042321053D

 79 87  0     1  0  0  0  0  0999 V2000
  -28.0836  -37.0373   21.1610 C   0  0  0  0  0  0  0  0  0  0  0  0
  -28.4933  -35.7188   20.9901 C   0  0  0  0  0  0  0  0  0  0  0  0
  -26.8786  -12.7373   21.8102 C   0  0  0  0  0  0  0  0  0  0  0  0
  -26.2304  -14.3669   20.1484 C   0  0  0  0  0  0  0  0  0  0  0  0
  -26.9671  -37.3230   21.9456 C   0  0  0  0  0  0  0  0  0  0  0  0
  -27.7873  -34.6853   21.6048 C   0  0  0  0  0  0  0  0  0  0  0  0
  -26.8428  -29.0511   19.3981 C   0  0  0  0  0  0  0  0  0  0  0  0
  -29.9120  -23.9372   21.6534 C   0  0  0  0  0  0  0  0  0  0  0  0
  -30.3901  -22.6753   22.0063 C   0  0  0  0  0  0  0  0  0  0  0  0
  -25.5587  -12.2931   21.8894 C   0  0  0  0  0  0  0  0  0  0  0  0
  -24.9105  -13.9227   20.2276 C   0  0  0  0  0  0  0  0  0  0  0  0
  -27.4768  -27.8323   19.6354 C   0  0  0  0  0  0  0  0  0  0  0  0
  -22.4262  -10.4874   22.2655 C   0  0  0  0  0  0  0  0  0  0  0  0
  -22.2047   -9.1103   22.2726 C   0  0  0  0  0  0  0  0  0  0  0  0
  -25.7890  -27.2790   21.2677 C   0  0  0  0  0  0  0  0  0  0  0  0
  -29.5679  -21.7799   19.9185 C   0  0  0  0  0  0  0  0  0  0  0  0
  -23.2649   -8.9286   20.1092 C   0  0  0  0  0  0  0  0  0  0  0  0
  -27.2144  -13.7743   20.9397 C   0  0  0  0  0  0  0  0  0  0  0  0
  -29.5850  -13.7578   19.9976 C   0  0  0  0  0  0  0  0  0  0  0  0
  -26.2413  -36.2916   22.5624 C   0  0  0  0  0  0  0  0  0  0  0  0
  -25.6813  -29.3983   20.1028 C   0  0  0  0  0  0  0  0  0  0  0  0
  -26.6608  -34.9575   22.3995 C   0  0  0  0  0  0  0  0  0  0  0  0
  -25.1407  -28.5017   21.0356 C   0  0  0  0  0  0  0  0  0  0  0  0
  -29.2617  -24.1205   20.4330 C   0  0  0  0  0  0  0  0  0  0  0  0
  -30.2181  -21.5966   21.1389 C   0  0  0  0  0  0  0  0  0  0  0  0
  -24.5747  -12.8858   21.0981 C   0  0  0  0  0  0  0  0  0  0  0  0
  -26.9516  -26.9473   20.5724 C   0  0  0  0  0  0  0  0  0  0  0  0
  -23.0669  -11.0852   21.1802 C   0  0  0  0  0  0  0  0  0  0  0  0
  -22.6241   -8.3309   21.1945 C   0  0  0  0  0  0  0  0  0  0  0  0
  -29.0897  -23.0418   19.5656 C   0  0  0  0  0  0  0  0  0  0  0  0
  -23.4863  -10.3058   20.1021 C   0  0  0  0  0  0  0  0  0  0  0  0
  -28.5775  -14.2339   20.8578 C   0  0  0  0  0  0  0  0  0  0  0  0
  -30.6881  -14.5148   20.3085 C   0  0  0  0  0  0  0  0  0  0  0  0
  -29.5288  -12.7236   19.0061 C   0  0  0  0  0  0  0  0  0  0  0  0
  -24.8922  -31.7254   22.1191 C   0  0  0  0  0  0  0  0  0  0  0  0
  -21.9349  -30.4185   21.8581 C   0  0  0  0  0  0  0  0  0  0  0  0
  -20.0316  -27.6759   21.1493 C   0  0  0  0  0  0  0  0  0  0  0  0
  -31.3673  -19.9608   22.6717 C   0  0  0  0  0  0  0  0  0  0  0  0
  -25.0691  -36.6531   23.4398 C   0  0  0  0  0  0  0  0  0  0  0  0
  -24.9943  -30.7053   19.8159 C   0  0  0  0  0  0  0  0  0  0  0  0
  -23.8846  -28.8183   21.8040 C   0  0  0  0  0  0  0  0  0  0  0  0
  -24.1541  -35.4715   23.7512 C   0  0  0  0  0  0  0  0  0  0  0  0
  -32.6837  -16.9076   23.9453 C   0  0  0  0  0  0  0  0  0  0  0  0
  -24.9758  -34.2543   24.1636 C   0  0  0  0  0  0  0  0  0  0  0  0
  -31.8759  -15.8320   23.2153 C   0  0  0  0  0  0  0  0  0  0  0  0
  -31.8282  -18.1270   24.2841 C   0  0  0  0  0  0  0  0  0  0  0  0
  -30.2957  -17.6363   22.4187 C   0  0  0  0  0  0  0  0  0  0  0  0
  -25.9064  -33.8070   23.0298 C   0  0  1  0  0  0  0  0  0  0  0  0
  -24.1054  -31.1773   20.9624 C   0  0  1  0  0  0  0  0  0  0  0  0
  -31.1307  -16.4155   21.9989 C   0  0  2  0  0  0  0  0  0  0  0  0
  -17.6456  -26.9035   21.0599 C   0  0  0  0  0  0  0  0  0  0  0  0
  -21.8790  -30.2460   24.9040 C   0  0  0  0  0  0  0  0  0  0  0  0
  -19.9638  -28.6454   24.7087 C   0  0  0  0  0  0  0  0  0  0  0  0
  -19.7276  -30.9796   23.8611 C   0  0  0  0  0  0  0  0  0  0  0  0
  -20.2122  -27.0776   18.2565 C   0  0  0  0  0  0  0  0  0  0  0  0
  -28.7507  -25.4800   20.0564 C   0  0  0  0  0  0  0  0  0  1  0  0
  -21.1740  -29.3402   22.5913 C   0  0  1  0  0  0  0  0  0  0  0  0
  -18.8031  -27.5010   20.2749 C   0  0  2  0  0  0  0  0  0  0  0  0
  -20.7109  -29.7974   24.0033 C   0  0  0  0  0  0  0  0  0  0  0  0
  -29.0029  -15.2172   21.6555 N   0  0  0  0  0  0  0  0  0  0  0  0
  -30.2898  -15.3650   21.2978 N   0  0  0  0  0  0  0  0  0  0  0  0
  -23.2531  -30.1112   21.4926 N   0  0  0  0  0  0  0  0  0  0  0  0
  -31.1562  -18.6278   23.0831 N   0  0  0  0  0  0  0  0  0  0  0  0
  -31.9501  -14.5294   19.8295 N   0  0  0  0  0  0  0  0  0  0  0  0
  -28.3169  -12.0460   18.8154 N   0  0  0  0  0  0  0  0  0  0  0  0
  -30.7020  -20.3143   21.4983 N   0  0  0  0  0  0  0  0  0  0  0  0
  -25.1638  -33.0770   22.0248 N   0  0  0  0  0  0  0  0  0  0  0  0
  -20.0861  -28.9355   21.7075 N   0  0  0  0  0  0  0  0  0  0  0  0
  -19.1078  -26.5998   19.1278 N   0  3  0  0  0  0  0  0  0  0  0  0
  -30.5283  -12.3986   18.3212 O   0  0  0  0  0  0  0  0  0  0  0  0
  -25.2269  -30.9778   23.0306 O   0  0  0  0  0  0  0  0  0  0  0  0
  -21.3776  -31.4912   21.6123 O   0  0  0  0  0  0  0  0  0  0  0  0
  -20.8582  -26.7830   21.3230 O   0  0  0  0  0  0  0  0  0  0  0  0
  -32.1071  -20.7238   23.2982 O   0  0  0  0  0  0  0  0  0  0  0  0
  -23.2868  -12.4524   21.1750 O   0  0  0  0  0  0  0  0  0  0  0  0
  -27.5688  -25.7573   20.8065 O   0  0  0  0  0  0  0  0  0  1  0  0
  -22.4127   -7.0082   21.2021 F   0  0  0  0  0  0  0  0  0  0  0  0
  -28.4663  -23.2080   18.3908 F   0  0  0  0  0  0  0  0  0  0  0  0
  -24.1034  -10.8743   19.0572 F   0  0  0  0  0  0  0  0  0  0  0  0
  1  2  1  0  0  0  0
  1  5  2  0  0  0  0
  2  6  2  0  0  0  0
  3 10  2  0  0  0  0
  3 18  1  0  0  0  0
  4 11  1  0  0  0  0
  4 18  2  0  0  0  0
  5 20  1  0  0  0  0
  6 22  1  0  0  0  0
  7 12  2  0  0  0  0
  7 21  1  0  0  0  0
  8  9  2  0  0  0  0
  8 24  1  0  0  0  0
  9 25  1  0  0  0  0
 10 26  1  0  0  0  0
 11 26  2  0  0  0  0
 12 27  1  0  0  0  0
 13 14  2  0  0  0  0
 13 28  1  0  0  0  0
 14 29  1  0  0  0  0
 15 23  1  0  0  0  0
 15 27  2  0  0  0  0
 16 25  2  0  0  0  0
 16 30  1  0  0  0  0
 17 29  2  0  0  0  0
 17 31  1  0  0  0  0
 18 32  1  0  0  0  0
 19 32  1  0  0  0  0
 19 33  2  0  0  0  0
 19 34  1  0  0  0  0
 20 22  2  0  0  0  0
 20 39  1  0  0  0  0
 21 23  2  0  0  0  0
 21 40  1  0  0  0  0
 22 48  1  0  0  0  0
 23 41  1  0  0  0  0
 24 30  2  0  0  0  0
 24 56  1  0  0  0  0
 25 66  1  0  0  0  0
 26 75  1  0  0  0  0
 27 76  1  0  0  0  0
 28 31  2  0  0  0  0
 28 75  1  0  0  0  0
 29 77  1  0  0  0  0
 30 78  1  0  0  0  0
 31 79  1  0  0  0  0
 32 60  2  0  0  0  0
 33 61  1  0  0  0  0
 33 64  1  0  0  0  0
 34 65  1  0  0  0  0
 34 70  2  0  0  0  0
 35 49  1  0  0  0  0
 35 67  1  0  0  0  0
 35 71  2  0  0  0  0
 36 57  1  0  0  0  0
 36 62  1  0  0  0  0
 36 72  2  0  0  0  0
 37 58  1  0  0  0  0
 37 68  1  0  0  0  0
 37 73  2  0  0  0  0
 38 63  1  0  0  0  0
 38 66  1  0  0  0  0
 38 74  2  0  0  0  0
 39 42  1  0  0  0  0
 40 49  1  0  0  0  0
 41 62  1  0  0  0  0
 42 44  1  0  0  0  0
 43 45  1  0  0  0  0
 43 46  1  0  0  0  0
 44 48  1  0  0  0  0
 45 50  1  0  0  0  0
 46 63  1  0  0  0  0
 47 50  1  0  0  0  0
 47 63  1  0  0  0  0
 48 67  1  0  0  0  0
 49 62  1  0  0  0  0
 50 61  1  0  0  0  0
 51 58  1  0  0  0  0
 52 59  1  0  0  0  0
 53 59  1  0  0  0  0
 54 59  1  0  0  0  0
 55 69  1  0  0  0  0
 56 76  1  0  0  0  0
 57 59  1  0  0  0  0
 57 68  1  0  0  0  0
 58 69  1  0  0  0  0
 60 61  1  0  0  0  0
M  CHG  1  69   1
M  ISO  4  38 100  56 101  66 100  76 101
M  END
> <Batch ID>
0019

> <Smiles>
CNC(C)C(=O)NC(C(=O)N1Cc2cc([101O:1][101CH2:1]c3ccc([100NH:0][100C:0](=O)N4CCCC(n5nc(-c6ccc(Oc7ccc(F)cc7F)cc6)c(C(N)=O)c5N)C4)cc3F)ccc2CC1C(=O)NC1CCCc2ccccc21)C(C)(C)C

> <Shape>
0.344

> <Color>
0.078

> <Negative vol penalty>
0.000

$$$$

  -OEChem-04042321053D

 81 89  0     1  0  0  0  0  0999 V2000
  -20.1941  -16.9182   32.7263 C   0  0  0  0  0  0  0  0  0  0  0  0
  -21.4593  -16.7694   32.1673 C   0  0  0  0  0  0  0  0  0  0  0  0
  -23.2862   -9.8003   19.9137 C   0  0  0  0  0  0  0  0  0  0  0  0
  -23.7344   -9.9423   22.2834 C   0  0  0  0  0  0  0  0  0  0  0  0
  -19.0764  -17.0263   31.8999 C   0  0  0  0  0  0  0  0  0  0  0  0
  -21.6074  -16.7276   30.7813 C   0  0  0  0  0  0  0  0  0  0  0  0
  -26.2862  -18.9446   27.5103 C   0  0  0  0  0  0  0  0  0  0  0  0
  -31.8324  -17.3014   24.7436 C   0  0  0  0  0  0  0  0  0  0  0  0
  -22.5587   -8.6284   20.1214 C   0  0  0  0  0  0  0  0  0  0  0  0
  -23.0069   -8.7704   22.4913 C   0  0  0  0  0  0  0  0  0  0  0  0
  -27.4144  -18.3397   26.9579 C   0  0  0  0  0  0  0  0  0  0  0  0
  -23.2093   -5.3540   20.6499 C   0  0  0  0  0  0  0  0  0  0  0  0
  -32.8666  -16.7127   24.0160 C   0  0  0  0  0  0  0  0  0  0  0  0
  -23.4380   -4.2874   19.7806 C   0  0  0  0  0  0  0  0  0  0  0  0
  -26.2672  -18.1436   24.8449 C   0  0  0  0  0  0  0  0  0  0  0  0
  -21.1167   -4.3344   19.1124 C   0  0  0  0  0  0  0  0  0  0  0  0
  -23.8741  -10.4572   20.9947 C   0  0  0  0  0  0  0  0  0  0  0  0
  -24.1355  -12.9869   20.7945 C   0  0  0  0  0  0  0  0  0  0  0  0
  -19.2119  -16.9955   30.5030 C   0  0  0  0  0  0  0  0  0  0  0  0
  -25.1343  -19.1439   26.7359 C   0  0  0  0  0  0  0  0  0  0  0  0
  -20.4903  -16.8341   29.9355 C   0  0  0  0  0  0  0  0  0  0  0  0
  -25.1266  -18.7535   25.3892 C   0  0  0  0  0  0  0  0  0  0  0  0
  -30.7439  -16.5326   25.1556 C   0  0  0  0  0  0  0  0  0  0  0  0
  -31.7237  -14.5862   24.1123 C   0  0  0  0  0  0  0  0  0  0  0  0
  -22.4191   -8.1135   21.4102 C   0  0  0  0  0  0  0  0  0  0  0  0
  -27.4040  -17.9365   25.6258 C   0  0  0  0  0  0  0  0  0  0  0  0
  -21.9343   -5.9108   20.7505 C   0  0  0  0  0  0  0  0  0  0  0  0
  -22.3917   -3.7776   19.0118 C   0  0  0  0  0  0  0  0  0  0  0  0
  -32.8122  -15.3551   23.7003 C   0  0  0  0  0  0  0  0  0  0  0  0
  -20.8880   -5.4010   19.9817 C   0  0  0  0  0  0  0  0  0  0  0  0
  -30.6895  -15.1750   24.8399 C   0  0  0  0  0  0  0  0  0  0  0  0
  -24.6261  -11.6674   20.7806 C   0  0  0  0  0  0  0  0  0  0  0  0
  -25.2378  -13.7658   20.5402 C   0  0  0  0  0  0  0  0  0  0  0  0
  -22.8025  -13.4656   21.0175 C   0  0  0  0  0  0  0  0  0  0  0  0
  -22.1272  -18.1246   26.8846 C   0  0  0  0  0  0  0  0  0  0  0  0
  -21.7169  -20.1852   24.4132 C   0  0  0  0  0  0  0  0  0  0  0  0
  -23.1054  -21.8996   21.8094 C   0  0  0  0  0  0  0  0  0  0  0  0
  -31.1073  -12.9192   21.3669 C   0  0  0  0  0  0  0  0  0  0  0  0
  -17.9694  -17.0686   29.6513 C   0  0  0  0  0  0  0  0  0  0  0  0
  -23.9349  -19.8221   27.3392 C   0  0  0  0  0  0  0  0  0  0  0  0
  -23.9222  -18.9634   24.5095 C   0  0  0  0  0  0  0  0  0  0  0  0
  -18.2530  -17.3914   28.1865 C   0  0  0  0  0  0  0  0  0  0  0  0
  -29.4623  -13.6576   18.2968 C   0  0  0  0  0  0  0  0  0  0  0  0
  -19.3995  -16.5322   27.6629 C   0  0  0  0  0  0  0  0  0  0  0  0
  -27.9920  -13.3503   18.5865 C   0  0  0  0  0  0  0  0  0  0  0  0
  -30.3941  -12.6780   19.0069 C   0  0  0  0  0  0  0  0  0  0  0  0
  -28.7052  -12.2511   20.7502 C   0  0  0  0  0  0  0  0  0  0  0  0
  -20.6944  -16.8092   28.4362 C   0  0  1  0  0  0  0  0  0  0  0  0
  -22.6372  -19.5092   26.6008 C   0  0  1  0  0  0  0  0  0  0  0  0
  -27.7287  -13.2465   20.1008 C   0  0  2  0  0  0  0  0  0  0  0  0
  -22.5116  -23.4730   19.9468 C   0  0  0  0  0  0  0  0  0  0  0  0
  -20.5019  -17.8667   22.8453 C   0  0  0  0  0  0  0  0  0  0  0  0
  -20.8103  -19.2099   20.7551 C   0  0  0  0  0  0  0  0  0  0  0  0
  -19.3150  -20.0502   22.5664 C   0  0  0  0  0  0  0  0  0  0  0  0
  -24.8927  -24.0089   22.8656 C   0  0  0  0  0  0  0  0  0  0  0  0
  -31.6666  -13.1343   23.7752 C   0  0  0  0  0  0  0  0  0  0  0  0
  -29.6332  -17.1690   25.9383 C   0  0  0  0  0  0  0  0  0  1  0  0
  -21.8194  -20.0861   22.9103 C   0  0  1  0  0  0  0  0  0  0  0  0
  -22.9912  -23.3526   21.3849 C   0  0  2  0  0  0  0  0  0  0  0  0
  -20.6338  -19.2974   22.2861 C   0  0  0  0  0  0  0  0  0  0  0  0
  -25.9379  -11.6077   20.5365 N   0  0  0  0  0  0  0  0  0  0  0  0
  -26.2810  -12.8993   20.3947 N   0  0  0  0  0  0  0  0  0  0  0  0
  -22.7719  -19.6250   25.1473 N   0  0  0  0  0  0  0  0  0  0  0  0
  -30.0932  -12.6278   20.4396 N   0  0  0  0  0  0  0  0  0  0  0  0
  -25.4068  -15.1005   20.4289 N   0  0  0  0  0  0  0  0  0  0  0  0
  -21.7890  -12.5296   21.2645 N   0  0  0  0  0  0  0  0  0  0  0  0
  -21.2970  -18.0457   27.9864 N   0  0  0  0  0  0  0  0  0  0  0  0
  -21.9520  -21.4535   22.4192 N   0  0  0  0  0  0  0  0  0  0  0  0
  -30.7361  -12.8549   22.7043 N   0  0  0  0  0  0  0  0  0  0  0  0
  -24.3134  -24.0307   21.4977 N   0  3  0  0  0  0  0  0  0  0  0  0
  -22.5156  -14.6862   20.9820 O   0  0  0  0  0  0  0  0  0  0  0  0
  -22.4610  -17.1969   26.1569 O   0  0  0  0  0  0  0  0  0  0  0  0
  -20.7403  -20.7456   24.9171 O   0  0  0  0  0  0  0  0  0  0  0  0
  -24.1154  -21.2266   21.6158 O   0  0  0  0  0  0  0  0  0  0  0  0
  -32.2569  -13.2199   21.0278 O   0  0  0  0  0  0  0  0  0  0  0  0
  -21.7091   -6.9702   21.6134 O   0  0  0  0  0  0  0  0  0  0  0  0
  -28.5035  -17.3452   25.0843 O   0  0  0  0  0  0  0  0  0  1  0  0
  -22.6118   -2.7544   18.1760 F   0  0  0  0  0  0  0  0  0  0  0  0
  -33.8113  -14.7977   23.0021 F   0  0  0  0  0  0  0  0  0  0  0  0
  -19.6613   -5.9325   20.0732 F   0  0  0  0  0  0  0  0  0  0  0  0
  -29.6428  -14.4363   25.2369 F   0  0  0  0  0  0  0  0  0  0  0  0
  1  2  1  0  0  0  0
  1  5  2  0  0  0  0
  2  6  2  0  0  0  0
  3  9  2  0  0  0  0
  3 17  1  0  0  0  0
  4 10  1  0  0  0  0
  4 17  2  0  0  0  0
  5 19  1  0  0  0  0
  6 21  1  0  0  0  0
  7 11  2  0  0  0  0
  7 20  1  0  0  0  0
  8 13  2  0  0  0  0
  8 23  1  0  0  0  0
  9 25  1  0  0  0  0
 10 25  2  0  0  0  0
 11 26  1  0  0  0  0
 12 14  2  0  0  0  0
 12 27  1  0  0  0  0
 13 29  1  0  0  0  0
 14 28  1  0  0  0  0
 15 22  1  0  0  0  0
 15 26  2  0  0  0  0
 16 28  2  0  0  0  0
 16 30  1  0  0  0  0
 17 32  1  0  0  0  0
 18 32  1  0  0  0  0
 18 33  2  0  0  0  0
 18 34  1  0  0  0  0
 19 21  2  0  0  0  0
 19 39  1  0  0  0  0
 20 22  2  0  0  0  0
 20 40  1  0  0  0  0
 21 48  1  0  0  0  0
 22 41  1  0  0  0  0
 23 31  2  0  0  0  0
 23 57  1  0  0  0  0
 24 29  2  0  0  0  0
 24 31  1  0  0  0  0
 24 56  1  0  0  0  0
 25 76  1  0  0  0  0
 26 77  1  0  0  0  0
 27 30  2  0  0  0  0
 27 76  1  0  0  0  0
 28 78  1  0  0  0  0
 29 79  1  0  0  0  0
 30 80  1  0  0  0  0
 31 81  1  0  0  0  0
 32 61  2  0  0  0  0
 33 62  1  0  0  0  0
 33 65  1  0  0  0  0
 34 66  1  0  0  0  0
 34 71  2  0  0  0  0
 35 49  1  0  0  0  0
 35 67  1  0  0  0  0
 35 72  2  0  0  0  0
 36 58  1  0  0  0  0
 36 63  1  0  0  0  0
 36 73  2  0  0  0  0
 37 59  1  0  0  0  0
 37 68  1  0  0  0  0
 37 74  2  0  0  0  0
 38 64  1  0  0  0  0
 38 69  1  0  0  0  0
 38 75  2  0  0  0  0
 39 42  1  0  0  0  0
 40 49  1  0  0  0  0
 41 63  1  0  0  0  0
 42 44  1  0  0  0  0
 43 45  1  0  0  0  0
 43 46  1  0  0  0  0
 44 48  1  0  0  0  0
 45 50  1  0  0  0  0
 46 64  1  0  0  0  0
 47 50  1  0  0  0  0
 47 64  1  0  0  0  0
 48 67  1  0  0  0  0
 49 63  1  0  0  0  0
 50 62  1  0  0  0  0
 51 59  1  0  0  0  0
 52 60  1  0  0  0  0
 53 60  1  0  0  0  0
 54 60  1  0  0  0  0
 55 70  1  0  0  0  0
 56 69  1  0  0  0  0
 57 77  1  0  0  0  0
 58 60  1  0  0  0  0
 58 68  1  0  0  0  0
 59 70  1  0  0  0  0
 61 62  1  0  0  0  0
M  CHG  1  70   1
M  ISO  4  38 100  57 101  69 100  77 101
M  END
> <Batch ID>
0019

> <Smiles>
CNC(C)C(=O)NC(C(=O)N1Cc2cc([101O:1][101CH2:1]c3ccc(F)c(C[100NH:0][100C:0](=O)N4CCCC(n5nc(-c6ccc(Oc7ccc(F)cc7F)cc6)c(C(N)=O)c5N)C4)c3F)ccc2CC1C(=O)NC1CCCc2ccccc21)C(C)(C)C

> <Shape>
0.123

> <Color>
0.182

> <Negative vol penalty>
0.000

$$$$

  -OEChem-04042321053D

 85 93  0     1  0  0  0  0  0999 V2000
  -17.8849  -24.8494   20.4595 C   0  0  0  0  0  0  0  0  0  0  0  0
  -19.1781  -24.8738   19.9471 C   0  0  0  0  0  0  0  0  0  0  0  0
  -23.8230   -9.6601   19.9908 C   0  0  0  0  0  0  0  0  0  0  0  0
  -23.0893  -10.2276   22.2217 C   0  0  0  0  0  0  0  0  0  0  0  0
  -17.5517  -25.6565   21.5465 C   0  0  0  0  0  0  0  0  0  0  0  0
  -20.1385  -25.7064   20.5207 C   0  0  0  0  0  0  0  0  0  0  0  0
  -24.5855  -23.3754   21.1805 C   0  0  0  0  0  0  0  0  0  0  0  0
  -28.2950  -20.6691   21.1232 C   0  0  0  0  0  0  0  0  0  0  0  0
  -27.7890  -19.5532   21.7897 C   0  0  0  0  0  0  0  0  0  0  0  0
  -23.1221   -8.4566   20.0665 C   0  0  0  0  0  0  0  0  0  0  0  0
  -22.3884   -9.0240   22.2974 C   0  0  0  0  0  0  0  0  0  0  0  0
  -25.3979  -23.2240   20.0576 C   0  0  0  0  0  0  0  0  0  0  0  0
  -23.0867   -5.7662   22.8714 C   0  0  0  0  0  0  0  0  0  0  0  0
  -23.2042   -5.0204   24.0443 C   0  0  0  0  0  0  0  0  0  0  0  0
  -26.7093  -25.1238   20.7576 C   0  0  0  0  0  0  0  0  0  0  0  0
  -30.2278  -19.3879   20.4453 C   0  0  0  0  0  0  0  0  0  0  0  0
  -20.8194   -5.1914   24.3919 C   0  0  0  0  0  0  0  0  0  0  0  0
  -23.8066  -10.5457   21.0685 C   0  0  0  0  0  0  0  0  0  0  0  0
  -24.0502  -13.0248   20.5189 C   0  0  0  0  0  0  0  0  0  0  0  0
  -18.5110  -26.4922   22.1397 C   0  0  0  0  0  0  0  0  0  0  0  0
  -24.8228  -24.4106   22.0963 C   0  0  0  0  0  0  0  0  0  0  0  0
  -19.8174  -26.5264   21.6157 C   0  0  0  0  0  0  0  0  0  0  0  0
  -25.9001  -25.2846   21.8927 C   0  0  0  0  0  0  0  0  0  0  0  0
  -29.5144  -20.5865   20.4509 C   0  0  0  0  0  0  0  0  0  0  0  0
  -28.5024  -18.3546   21.7841 C   0  0  0  0  0  0  0  0  0  0  0  0
  -29.7218  -18.2719   21.1118 C   0  0  0  0  0  0  0  0  0  0  0  0
  -22.4048   -8.1385   21.2197 C   0  0  0  0  0  0  0  0  0  0  0  0
  -26.4582  -24.1000   19.8445 C   0  0  0  0  0  0  0  0  0  0  0  0
  -21.8356   -6.2246   22.4588 C   0  0  0  0  0  0  0  0  0  0  0  0
  -22.0706   -4.7330   24.8045 C   0  0  0  0  0  0  0  0  0  0  0  0
  -20.7020   -5.9372   23.2190 C   0  0  0  0  0  0  0  0  0  0  0  0
  -24.5309  -11.7889   20.9912 C   0  0  0  0  0  0  0  0  0  0  0  0
  -25.1156  -13.8813   20.6524 C   0  0  0  0  0  0  0  0  0  0  0  0
  -22.7562  -13.3681   20.0056 C   0  0  0  0  0  0  0  0  0  0  0  0
  -23.1731  -26.9322   23.1081 C   0  0  0  0  0  0  0  0  0  0  0  0
  -25.6579  -27.2408   25.1704 C   0  0  0  0  0  0  0  0  0  0  0  0
  -28.9350  -26.5996   25.8750 C   0  0  0  0  0  0  0  0  0  0  0  0
  -29.2539  -15.7071   24.0959 C   0  0  0  0  0  0  0  0  0  0  0  0
  -18.0913  -27.3818   23.2830 C   0  0  0  0  0  0  0  0  0  0  0  0
  -23.9537  -24.5441   23.3166 C   0  0  0  0  0  0  0  0  0  0  0  0
  -26.2095  -26.3999   22.8565 C   0  0  0  0  0  0  0  0  0  0  0  0
  -19.2660  -27.9572   24.0700 C   0  0  0  0  0  0  0  0  0  0  0  0
  -29.9739  -12.9836   21.6948 C   0  0  0  0  0  0  0  0  0  0  0  0
  -20.3264  -28.5065   23.1210 C   0  0  0  0  0  0  0  0  0  0  0  0
  -28.5768  -12.4919   21.3201 C   0  0  0  0  0  0  0  0  0  0  0  0
  -30.0080  -13.5789   23.0991 C   0  0  0  0  0  0  0  0  0  0  0  0
  -27.6113  -14.1675   22.9452 C   0  0  0  0  0  0  0  0  0  0  0  0
  -20.8936  -27.3977   22.2263 C   0  0  1  0  0  0  0  0  0  0  0  0
  -23.9733  -25.9479   23.9135 C   0  0  1  0  0  0  0  0  0  0  0  0
  -27.5323  -13.6041   21.5183 C   0  0  2  0  0  0  0  0  0  0  0  0
  -30.5034  -16.9993   21.0924 C   0  0  0  0  0  0  0  0  0  0  0  0
  -30.6923  -27.0119   27.6184 C   0  0  0  0  0  0  0  0  0  0  0  0
  -25.9488  -30.1168   24.1935 C   0  0  0  0  0  0  0  0  0  0  0  0
  -28.2304  -30.1622   25.2233 C   0  0  0  0  0  0  0  0  0  0  0  0
  -26.2212  -29.8209   26.6618 C   0  0  0  0  0  0  0  0  0  0  0  0
  -28.8921  -18.0963   24.5865 C   0  0  0  0  0  0  0  0  0  0  0  0
  -29.2819  -23.7036   26.3767 C   0  0  0  0  0  0  0  0  0  0  0  0
  -29.7494  -21.0972   17.3619 C   0  0  0  0  0  0  0  0  0  0  0  0
  -27.9412  -17.1736   22.5057 C   0  0  0  0  0  0  0  0  0  0  0  0
  -30.0586  -21.7871   19.7344 C   0  0  0  0  0  0  0  0  0  0  0  0
  -29.4916  -23.4887   18.0071 C   0  0  0  0  0  0  0  0  0  0  0  0
  -28.6122  -24.3690   18.8729 C   0  0  0  0  0  0  0  0  0  1  0  0
  -26.9891  -27.9523   25.1416 C   0  0  1  0  0  0  0  0  0  0  0  0
  -29.6105  -26.0640   27.1245 C   0  0  2  0  0  0  0  0  0  0  0  0
  -26.8406  -29.4933   25.2857 C   0  0  0  0  0  0  0  0  0  0  0  0
  -25.8028  -11.8503   21.3944 N   0  0  0  0  0  0  0  0  0  0  0  0
  -26.1304  -13.1352   21.1757 N   0  0  0  0  0  0  0  0  0  0  0  0
  -25.3272  -26.4931   24.0313 N   0  0  0  0  0  0  0  0  0  0  0  0
  -28.9771  -14.6027   23.2735 N   0  0  0  0  0  0  0  0  0  0  0  0
  -25.2742  -15.1922   20.3718 N   0  0  0  0  0  0  0  0  0  0  0  0
  -21.7775  -12.3673   19.9375 N   0  0  0  0  0  0  0  0  0  0  0  0
  -21.8423  -26.5900   22.9624 N   0  0  0  0  0  0  0  0  0  0  0  0
  -27.8063  -27.3313   26.1783 N   0  0  0  0  0  0  0  0  0  0  0  0
  -28.6277  -16.9198   23.7705 N   0  0  0  0  0  0  0  0  0  0  0  0
  -30.2362  -24.7400   26.8480 N   0  3  0  0  0  0  0  0  0  0  0  0
  -29.3446  -22.0752   18.4370 N   0  3  1  0  0  0  0  0  0  0  0  0
  -22.4813  -14.5241   19.6035 O   0  0  0  0  0  0  0  0  0  0  0  0
  -23.7222  -27.9292   22.6539 O   0  0  0  0  0  0  0  0  0  0  0  0
  -24.9413  -27.3389   26.1696 O   0  0  0  0  0  0  0  0  0  0  0  0
  -29.3675  -26.3929   24.7433 O   0  0  0  0  0  0  0  0  0  0  0  0
  -30.0247  -15.6169   25.0601 O   0  0  0  0  0  0  0  0  0  0  0  0
  -21.7205   -6.9643   21.2938 O   0  0  0  0  0  0  0  0  0  0  0  0
  -27.2522  -23.9549   18.7489 O   0  0  0  0  0  0  0  0  0  1  0  0
  -22.1833   -4.0155   25.9300 F   0  0  0  0  0  0  0  0  0  0  0  0
  -19.4972   -6.3739   22.8271 F   0  0  0  0  0  0  0  0  0  0  0  0
  1  2  1  0  0  0  0
  1  5  2  0  0  0  0
  2  6  2  0  0  0  0
  3 10  2  0  0  0  0
  3 18  1  0  0  0  0
  4 11  1  0  0  0  0
  4 18  2  0  0  0  0
  5 20  1  0  0  0  0
  6 22  1  0  0  0  0
  7 12  2  0  0  0  0
  7 21  1  0  0  0  0
  8  9  2  0  0  0  0
  8 24  1  0  0  0  0
  9 25  1  0  0  0  0
 10 27  1  0  0  0  0
 11 27  2  0  0  0  0
 12 28  1  0  0  0  0
 13 14  2  0  0  0  0
 13 29  1  0  0  0  0
 14 30  1  0  0  0  0
 15 23  1  0  0  0  0
 15 28  2  0  0  0  0
 16 24  2  0  0  0  0
 16 26  1  0  0  0  0
 17 30  2  0  0  0  0
 17 31  1  0  0  0  0
 18 32  1  0  0  0  0
 19 32  1  0  0  0  0
 19 33  2  0  0  0  0
 19 34  1  0  0  0  0
 20 22  2  0  0  0  0
 20 39  1  0  0  0  0
 21 23  2  0  0  0  0
 21 40  1  0  0  0  0
 22 48  1  0  0  0  0
 23 41  1  0  0  0  0
 24 60  1  0  0  0  0
 25 26  2  0  0  0  0
 25 59  1  0  0  0  0
 26 51  1  0  0  0  0
 27 82  1  0  0  0  0
 28 83  1  0  0  0  0
 29 31  2  0  0  0  0
 29 82  1  0  0  0  0
 30 84  1  0  0  0  0
 31 85  1  0  0  0  0
 32 66  2  0  0  0  0
 33 67  1  0  0  0  0
 33 70  1  0  0  0  0
 34 71  1  0  0  0  0
 34 77  2  0  0  0  0
 35 49  1  0  0  0  0
 35 72  1  0  0  0  0
 35 78  2  0  0  0  0
 36 63  1  0  0  0  0
 36 68  1  0  0  0  0
 36 79  2  0  0  0  0
 37 64  1  0  0  0  0
 37 73  1  0  0  0  0
 37 80  2  0  0  0  0
 38 69  1  0  0  0  0
 38 74  1  0  0  0  0
 38 81  2  0  0  0  0
 39 42  1  0  0  0  0
 40 49  1  0  0  0  0
 41 68  1  0  0  0  0
 42 44  1  0  0  0  0
 43 45  1  0  0  0  0
 43 46  1  0  0  0  0
 44 48  1  0  0  0  0
 45 50  1  0  0  0  0
 46 69  1  0  0  0  0
 47 50  1  0  0  0  0
 47 69  1  0  0  0  0
 48 72  1  0  0  0  0
 49 68  1  0  0  0  0
 50 67  1  0  0  0  0
 52 64  1  0  0  0  0
 53 65  1  0  0  0  0
 54 65  1  0  0  0  0
 55 65  1  0  0  0  0
 56 74  1  0  0  0  0
 57 75  1  0  0  0  0
 58 76  1  0  0  0  0
 59 74  1  0  0  0  0
 60 76  1  0  0  0  0
 61 62  1  0  0  0  0
 61 76  1  0  0  0  0
 62 83  1  0  0  0  0
 63 65  1  0  0  0  0
 63 73  1  0  0  0  0
 64 75  1  0  0  0  0
 66 67  1  0  0  0  0
M  CHG  2  75   1  76   1
M  ISO  4  38 100  62 101  74 100  83 101
M  END
> <Batch ID>
0019

> <Smiles>
CNC(C)C(=O)NC(C(=O)N1Cc2cc([101O:1][101CH2:1]CN(C)Cc3ccc(C[100N:0](C)[100C:0](=O)N4CCCC(n5nc(-c6ccc(Oc7ccc(F)cc7F)cc6)c(C(N)=O)c5N)C4)c(C)c3)ccc2CC1C(=O)NC1CCCc2ccccc21)C(C)(C)C

> <Shape>
0.251

> <Color>
0.164

> <Negative vol penalty>
0.000

$$$$

  -OEChem-04042321053D

 80 88  0     1  0  0  0  0  0999 V2000
  -20.6919  -35.3109   22.2515 C   0  0  0  0  0  0  0  0  0  0  0  0
  -21.8885  -34.7293   21.8450 C   0  0  0  0  0  0  0  0  0  0  0  0
  -32.9711  -27.7347   19.9061 C   0  0  0  0  0  0  0  0  0  0  0  0
  -28.6871  -16.9910   21.1034 C   0  0  0  0  0  0  0  0  0  0  0  0
  -31.0393  -17.4133   21.4578 C   0  0  0  0  0  0  0  0  0  0  0  0
  -19.8506  -34.6302   23.1306 C   0  0  0  0  0  0  0  0  0  0  0  0
  -22.2450  -33.4670   22.3183 C   0  0  0  0  0  0  0  0  0  0  0  0
  -25.2956  -29.1188   19.2700 C   0  0  0  0  0  0  0  0  0  0  0  0
  -33.2015  -26.3995   19.5749 C   0  0  0  0  0  0  0  0  0  0  0  0
  -31.6877  -28.2696   19.7945 C   0  0  0  0  0  0  0  0  0  0  0  0
  -28.9322  -15.6179   21.1130 C   0  0  0  0  0  0  0  0  0  0  0  0
  -31.2844  -16.0402   21.4675 C   0  0  0  0  0  0  0  0  0  0  0  0
  -26.6370  -28.7387   19.2700 C   0  0  0  0  0  0  0  0  0  0  0  0
  -30.1310  -13.2871   18.9789 C   0  0  0  0  0  0  0  0  0  0  0  0
  -29.5222  -12.5139   17.9904 C   0  0  0  0  0  0  0  0  0  0  0  0
  -26.1407  -27.0091   20.8767 C   0  0  0  0  0  0  0  0  0  0  0  0
  -30.8651  -26.1339   19.0204 C   0  0  0  0  0  0  0  0  0  0  0  0
  -28.3826  -11.2339   19.6934 C   0  0  0  0  0  0  0  0  0  0  0  0
  -29.7407  -17.8887   21.2757 C   0  0  0  0  0  0  0  0  0  0  0  0
  -29.1756  -20.1232   22.3690 C   0  0  0  0  0  0  0  0  0  0  0  0
  -20.1924  -33.3549   23.6073 C   0  0  0  0  0  0  0  0  0  0  0  0
  -24.3672  -28.4527   20.0828 C   0  0  0  0  0  0  0  0  0  0  0  0
  -21.4081  -32.7692   23.2056 C   0  0  0  0  0  0  0  0  0  0  0  0
  -24.7877  -27.3809   20.8832 C   0  0  0  0  0  0  0  0  0  0  0  0
  -32.1485  -25.5991   19.1321 C   0  0  0  0  0  0  0  0  0  0  0  0
  -30.6347  -27.4692   19.3516 C   0  0  0  0  0  0  0  0  0  0  0  0
  -30.2308  -15.1425   21.2951 C   0  0  0  0  0  0  0  0  0  0  0  0
  -27.0603  -27.6857   20.0756 C   0  0  0  0  0  0  0  0  0  0  0  0
  -29.8657  -13.0336   20.3247 C   0  0  0  0  0  0  0  0  0  0  0  0
  -28.6480  -11.4873   18.3476 C   0  0  0  0  0  0  0  0  0  0  0  0
  -28.9915  -12.0071   20.6819 C   0  0  0  0  0  0  0  0  0  0  0  0
  -29.4882  -19.3073   21.2653 C   0  0  0  0  0  0  0  0  0  0  0  0
  -29.0309  -21.3809   21.8362 C   0  0  0  0  0  0  0  0  0  0  0  0
  -29.0291  -19.7754   23.7522 C   0  0  0  0  0  0  0  0  0  0  0  0
  -22.4779  -29.3051   22.4928 C   0  0  0  0  0  0  0  0  0  0  0  0
  -21.3630  -26.2751   22.1783 C   0  0  0  0  0  0  0  0  0  0  0  0
  -21.9237  -23.0758   21.1310 C   0  0  0  0  0  0  0  0  0  0  0  0
  -31.2937  -23.5732   16.5815 C   0  0  0  0  0  0  0  0  0  0  0  0
  -19.2733  -32.6780   24.5931 C   0  0  0  0  0  0  0  0  0  0  0  0
  -22.9188  -28.8575   20.0513 C   0  0  0  0  0  0  0  0  0  0  0  0
  -23.8268  -26.6203   21.7587 C   0  0  0  0  0  0  0  0  0  0  0  0
  -19.5466  -31.1849   24.7545 C   0  0  0  0  0  0  0  0  0  0  0  0
  -27.8010  -23.6342   17.8058 C   0  0  0  0  0  0  0  0  0  0  0  0
  -21.0417  -30.9303   24.9173 C   0  0  0  0  0  0  0  0  0  0  0  0
  -27.8046  -22.5455   18.8775 C   0  0  0  0  0  0  0  0  0  0  0  0
  -28.8383  -23.3647   16.7200 C   0  0  0  0  0  0  0  0  0  0  0  0
  -30.2213  -22.0749   18.3131 C   0  0  0  0  0  0  0  0  0  0  0  0
  -21.8180  -31.3911   23.6777 C   0  0  1  0  0  0  0  0  0  0  0  0
  -22.1551  -28.4430   21.3052 C   0  0  1  0  0  0  0  0  0  0  0  0
  -29.2193  -22.3406   19.4466 C   0  0  2  0  0  0  0  0  0  0  0  0
  -20.8410  -20.8137   21.0428 C   0  0  0  0  0  0  0  0  0  0  0  0
  -21.9241  -25.8934   25.1531 C   0  0  0  0  0  0  0  0  0  0  0  0
  -21.7383  -23.4217   24.7997 C   0  0  0  0  0  0  0  0  0  0  0  0
  -19.7729  -24.8939   24.3605 C   0  0  0  0  0  0  0  0  0  0  0  0
  -33.6058  -24.4273   16.6453 C   0  0  0  0  0  0  0  0  0  0  0  0
  -22.0236  -23.0150   18.1738 C   0  0  0  0  0  0  0  0  0  0  0  0
  -32.3954  -24.1711   18.7796 C   0  0  0  0  0  0  0  0  0  0  0  0
  -29.2543  -28.0447   19.2309 C   0  0  0  0  0  0  0  0  0  1  0  0
  -21.7328  -24.9337   22.7638 C   0  0  1  0  0  0  0  0  0  0  0  0
  -21.0773  -22.1230   20.3062 C   0  0  2  0  0  0  0  0  0  0  0  0
  -21.3107  -24.8011   24.2544 C   0  0  0  0  0  0  0  0  0  0  0  0
  -29.5392  -19.9892   20.1179 N   0  0  0  0  0  0  0  0  0  0  0  0
  -29.2565  -21.2469   20.4978 N   0  0  0  0  0  0  0  0  0  0  0  0
  -22.4224  -27.0579   21.6978 N   0  0  0  0  0  0  0  0  0  0  0  0
  -30.1651  -23.1308   17.2911 N   0  0  0  0  0  0  0  0  0  0  0  0
  -28.7339  -22.5772   22.3867 N   0  0  0  0  0  0  0  0  0  0  0  0
  -29.2120  -18.4376   24.1278 N   0  0  0  0  0  0  0  0  0  0  0  0
  -21.6793  -30.4270   22.6073 N   0  0  0  0  0  0  0  0  0  0  0  0
  -21.1452  -23.9286   21.8847 N   0  0  0  0  0  0  0  0  0  0  0  0
  -32.4154  -23.9509   17.3351 N   0  0  0  0  0  0  0  0  0  0  0  0
  -21.7511  -21.8193   19.0122 N   0  3  0  0  0  0  0  0  0  0  0  0
  -28.7284  -20.6230   24.6268 O   0  0  0  0  0  0  0  0  0  0  0  0
  -23.3834  -28.9759   23.2501 O   0  0  0  0  0  0  0  0  0  0  0  0
  -20.1772  -26.6129   22.1419 O   0  0  0  0  0  0  0  0  0  0  0  0
  -23.1525  -23.0623   21.1116 O   0  0  0  0  0  0  0  0  0  0  0  0
  -31.2951  -23.6365   15.3455 O   0  0  0  0  0  0  0  0  0  0  0  0
  -30.4703  -13.8026   21.3048 O   0  0  0  0  0  0  0  0  0  0  0  0
  -28.3692  -27.3131   20.0780 O   0  0  0  0  0  0  0  0  0  1  0  0
  -28.0622  -10.7459   17.3982 F   0  0  0  0  0  0  0  0  0  0  0  0
  -28.7318  -11.7597   21.9731 F   0  0  0  0  0  0  0  0  0  0  0  0
  1  2  1  0  0  0  0
  1  6  2  0  0  0  0
  2  7  2  0  0  0  0
  3  9  1  0  0  0  0
  3 10  2  0  0  0  0
  4 11  2  0  0  0  0
  4 19  1  0  0  0  0
  5 12  1  0  0  0  0
  5 19  2  0  0  0  0
  6 21  1  0  0  0  0
  7 23  1  0  0  0  0
  8 13  2  0  0  0  0
  8 22  1  0  0  0  0
  9 25  2  0  0  0  0
 10 26  1  0  0  0  0
 11 27  1  0  0  0  0
 12 27  2  0  0  0  0
 13 28  1  0  0  0  0
 14 15  2  0  0  0  0
 14 29  1  0  0  0  0
 15 30  1  0  0  0  0
 16 24  1  0  0  0  0
 16 28  2  0  0  0  0
 17 25  1  0  0  0  0
 17 26  2  0  0  0  0
 18 30  2  0  0  0  0
 18 31  1  0  0  0  0
 19 32  1  0  0  0  0
 20 32  1  0  0  0  0
 20 33  2  0  0  0  0
 20 34  1  0  0  0  0
 21 23  2  0  0  0  0
 21 39  1  0  0  0  0
 22 24  2  0  0  0  0
 22 40  1  0  0  0  0
 23 48  1  0  0  0  0
 24 41  1  0  0  0  0
 25 57  1  0  0  0  0
 26 58  1  0  0  0  0
 27 77  1  0  0  0  0
 28 78  1  0  0  0  0
 29 31  2  0  0  0  0
 29 77  1  0  0  0  0
 30 79  1  0  0  0  0
 31 80  1  0  0  0  0
 32 62  2  0  0  0  0
 33 63  1  0  0  0  0
 33 66  1  0  0  0  0
 34 67  1  0  0  0  0
 34 72  2  0  0  0  0
 35 49  1  0  0  0  0
 35 68  1  0  0  0  0
 35 73  2  0  0  0  0
 36 59  1  0  0  0  0
 36 64  1  0  0  0  0
 36 74  2  0  0  0  0
 37 60  1  0  0  0  0
 37 69  1  0  0  0  0
 37 75  2  0  0  0  0
 38 65  1  0  0  0  0
 38 70  1  0  0  0  0
 38 76  2  0  0  0  0
 39 42  1  0  0  0  0
 40 49  1  0  0  0  0
 41 64  1  0  0  0  0
 42 44  1  0  0  0  0
 43 45  1  0  0  0  0
 43 46  1  0  0  0  0
 44 48  1  0  0  0  0
 45 50  1  0  0  0  0
 46 65  1  0  0  0  0
 47 50  1  0  0  0  0
 47 65  1  0  0  0  0
 48 68  1  0  0  0  0
 49 64  1  0  0  0  0
 50 63  1  0  0  0  0
 51 60  1  0  0  0  0
 52 61  1  0  0  0  0
 53 61  1  0  0  0  0
 54 61  1  0  0  0  0
 55 70  1  0  0  0  0
 56 71  1  0  0  0  0
 57 70  1  0  0  0  0
 58 78  1  0  0  0  0
 59 61  1  0  0  0  0
 59 69  1  0  0  0  0
 60 71  1  0  0  0  0
 62 63  1  0  0  0  0
M  CHG  1  71   1
M  ISO  4  38 100  58 101  70 100  78 101
M  END
> <Batch ID>
0019

> <Smiles>
CNC(C)C(=O)NC(C(=O)N1Cc2cc([101O:1][101CH2:1]c3cccc(C[100N:0](C)[100C:0](=O)N4CCCC(n5nc(-c6ccc(Oc7ccc(F)cc7F)cc6)c(C(N)=O)c5N)C4)c3)ccc2CC1C(=O)NC1CCCc2ccccc21)C(C)(C)C

> <Shape>
0.235

> <Color>
0.089

> <Negative vol penalty>
0.000

$$$$

  -OEChem-04042321053D

 85 93  0     1  0  0  0  0  0999 V2000
  -30.7982  -23.1101   17.5739 C   0  0  0  0  0  0  0  0  0  0  0  0
  -29.4839  -23.4924   17.3252 C   0  0  0  0  0  0  0  0  0  0  0  0
  -26.5727  -13.1531   20.5963 C   0  0  0  0  0  0  0  0  0  0  0  0
  -24.1788  -13.4792   20.5850 C   0  0  0  0  0  0  0  0  0  0  0  0
  -31.3166  -23.1999   18.8651 C   0  0  0  0  0  0  0  0  0  0  0  0
  -28.6869  -23.9638   18.3678 C   0  0  0  0  0  0  0  0  0  0  0  0
  -24.3641  -28.2889   18.0318 C   0  0  0  0  0  0  0  0  0  0  0  0
  -26.3953  -11.8682   21.1094 C   0  0  0  0  0  0  0  0  0  0  0  0
  -24.0014  -12.1943   21.0981 C   0  0  0  0  0  0  0  0  0  0  0  0
  -22.9760  -28.2211   17.9202 C   0  0  0  0  0  0  0  0  0  0  0  0
  -24.0247   -9.0228   19.9311 C   0  0  0  0  0  0  0  0  0  0  0  0
  -23.0376   -8.2258   19.3515 C   0  0  0  0  0  0  0  0  0  0  0  0
  -22.7778  -28.4653   20.3119 C   0  0  0  0  0  0  0  0  0  0  0  0
  -19.7955  -22.0376   21.6923 C   0  0  0  0  0  0  0  0  0  0  0  0
  -21.3403  -23.5763   20.6518 C   0  0  0  0  0  0  0  0  0  0  0  0
  -21.9122   -8.0693   21.4837 C   0  0  0  0  0  0  0  0  0  0  0  0
  -25.4645  -13.9586   20.3342 C   0  0  0  0  0  0  0  0  0  0  0  0
  -25.7043  -15.6601   18.4487 C   0  0  0  0  0  0  0  0  0  0  0  0
  -30.5286  -23.6817   19.9222 C   0  0  0  0  0  0  0  0  0  0  0  0
  -24.9709  -28.4347   19.2875 C   0  0  0  0  0  0  0  0  0  0  0  0
  -29.1948  -24.0588   19.6746 C   0  0  0  0  0  0  0  0  0  0  0  0
  -24.1737  -28.5373   20.4365 C   0  0  0  0  0  0  0  0  0  0  0  0
  -20.0333  -23.2055   20.9678 C   0  0  0  0  0  0  0  0  0  0  0  0
  -20.8647  -21.2405   22.1011 C   0  0  0  0  0  0  0  0  0  0  0  0
  -22.1717  -21.6112   21.7851 C   0  0  0  0  0  0  0  0  0  0  0  0
  -25.1096  -11.3888   21.3603 C   0  0  0  0  0  0  0  0  0  0  0  0
  -22.1828  -28.3063   19.0606 C   0  0  0  0  0  0  0  0  0  0  0  0
  -23.9557   -9.3430   21.2870 C   0  0  0  0  0  0  0  0  0  0  0  0
  -21.9813   -7.7491   20.1278 C   0  0  0  0  0  0  0  0  0  0  0  0
  -22.4096  -22.7791   21.0605 C   0  0  0  0  0  0  0  0  0  0  0  0
  -22.8994   -8.8663   22.0632 C   0  0  0  0  0  0  0  0  0  0  0  0
  -25.6471  -15.2861   19.8047 C   0  0  0  0  0  0  0  0  0  0  0  0
  -25.8887  -17.0209   18.4753 C   0  0  0  0  0  0  0  0  0  0  0  0
  -25.6000  -14.8499   17.2704 C   0  0  0  0  0  0  0  0  0  0  0  0
  -26.9756  -26.6855   21.0268 C   0  0  0  0  0  0  0  0  0  0  0  0
  -26.9403  -29.2826   22.9700 C   0  0  0  0  0  0  0  0  0  0  0  0
  -25.2998  -32.0764   24.0426 C   0  0  0  0  0  0  0  0  0  0  0  0
  -24.5618  -21.2424   22.4907 C   0  0  0  0  0  0  0  0  0  0  0  0
  -31.1181  -23.7162   21.3099 C   0  0  0  0  0  0  0  0  0  0  0  0
  -26.4684  -28.5331   19.3882 C   0  0  0  0  0  0  0  0  0  0  0  0
  -24.7752  -28.7147   21.8058 C   0  0  0  0  0  0  0  0  0  0  0  0
  -30.3245  -24.5791   22.2876 C   0  0  0  0  0  0  0  0  0  0  0  0
  -27.7846  -20.4909   21.1771 C   0  0  0  0  0  0  0  0  0  0  0  0
  -28.8335  -24.2762   22.1782 C   0  0  0  0  0  0  0  0  0  0  0  0
  -27.6059  -19.1075   20.5473 C   0  0  0  0  0  0  0  0  0  0  0  0
  -26.9720  -20.6382   22.4622 C   0  0  0  0  0  0  0  0  0  0  0  0
  -25.3670  -18.9291   21.7060 C   0  0  0  0  0  0  0  0  0  0  0  0
  -28.3066  -24.5985   20.7746 C   0  0  1  0  0  0  0  0  0  0  0  0
  -26.9998  -28.1658   20.7703 C   0  0  1  0  0  0  0  0  0  0  0  0
  -26.1153  -18.7554   20.3743 C   0  0  2  0  0  0  0  0  0  0  0  0
  -20.5804  -19.9953   22.8767 C   0  0  0  0  0  0  0  0  0  0  0  0
  -25.5033  -33.9787   25.6666 C   0  0  0  0  0  0  0  0  0  0  0  0
  -26.2012  -27.4047   25.2585 C   0  0  0  0  0  0  0  0  0  0  0  0
  -25.4995  -29.4093   26.5842 C   0  0  0  0  0  0  0  0  0  0  0  0
  -27.8724  -29.1674   25.8537 C   0  0  0  0  0  0  0  0  0  0  0  0
  -25.2631  -34.0868   21.8709 C   0  0  0  0  0  0  0  0  0  0  0  0
  -18.1693  -25.0280   22.7114 C   0  0  0  0  0  0  0  0  0  0  0  0
  -18.8839  -24.0644   20.5293 C   0  0  0  0  0  0  0  0  0  0  0  0
  -18.8566  -27.0046   19.5394 C   0  0  0  0  0  0  0  0  0  0  0  0
  -17.9967  -26.3888   20.6329 C   0  0  0  0  0  0  0  0  0  0  0  0
  -20.1161  -27.6856   20.0604 C   0  0  0  0  0  0  0  0  0  1  0  0
  -26.0996  -29.7301   24.1413 C   0  0  1  0  0  0  0  0  0  0  0  0
  -25.7707  -33.5051   24.2464 C   0  0  2  0  0  0  0  0  0  0  0  0
  -26.4066  -28.9226   25.4340 C   0  0  0  0  0  0  0  0  0  0  0  0
  -25.7843  -16.3254   20.6324 N   0  0  0  0  0  0  0  0  0  0  0  0
  -25.9295  -17.3658   19.7943 N   0  0  0  0  0  0  0  0  0  0  0  0
  -26.2443  -28.7991   21.8530 N   0  0  0  0  0  0  0  0  0  0  0  0
  -25.5695  -20.2924   22.2210 N   0  0  0  0  0  0  0  0  0  0  0  0
  -26.0184  -17.9441   17.4990 N   0  0  0  0  0  0  0  0  0  0  0  0
  -25.4120  -13.4694   17.4233 N   0  0  0  0  0  0  0  0  0  0  0  0
  -23.2693  -20.8126   22.1917 N   0  0  0  0  0  0  0  0  0  0  0  0
  -28.1194  -26.0252   20.6203 N   0  0  0  0  0  0  0  0  0  0  0  0
  -26.3116  -31.1678   24.2703 N   0  0  0  0  0  0  0  0  0  0  0  0
  -25.0673  -34.4216   23.3050 N   0  3  0  0  0  0  0  0  0  0  0  0
  -18.7425  -25.3259   21.3468 N   0  3  1  0  0  0  0  0  0  0  0  0
  -25.6878  -15.3334   16.1163 O   0  0  0  0  0  0  0  0  0  0  0  0
  -25.9925  -26.1799   21.5558 O   0  0  0  0  0  0  0  0  0  0  0  0
  -28.1690  -29.3659   23.0406 O   0  0  0  0  0  0  0  0  0  0  0  0
  -24.1485  -31.7945   23.7177 O   0  0  0  0  0  0  0  0  0  0  0  0
  -24.8284  -22.3650   22.9273 O   0  0  0  0  0  0  0  0  0  0  0  0
  -24.9361  -10.1350   21.8607 O   0  0  0  0  0  0  0  0  0  0  0  0
  -20.8277  -28.2398   18.9546 O   0  0  0  0  0  0  0  0  0  1  0  0
  -21.0326   -6.9850   19.5707 F   0  0  0  0  0  0  0  0  0  0  0  0
  -23.6614  -23.1467   20.7516 F   0  0  0  0  0  0  0  0  0  0  0  0
  -22.8271   -9.1715   23.3661 F   0  0  0  0  0  0  0  0  0  0  0  0
  1  2  1  0  0  0  0
  1  5  2  0  0  0  0
  2  6  2  0  0  0  0
  3  8  2  0  0  0  0
  3 17  1  0  0  0  0
  4  9  1  0  0  0  0
  4 17  2  0  0  0  0
  5 19  1  0  0  0  0
  6 21  1  0  0  0  0
  7 10  2  0  0  0  0
  7 20  1  0  0  0  0
  8 26  1  0  0  0  0
  9 26  2  0  0  0  0
 10 27  1  0  0  0  0
 11 12  2  0  0  0  0
 11 28  1  0  0  0  0
 12 29  1  0  0  0  0
 13 22  1  0  0  0  0
 13 27  2  0  0  0  0
 14 23  1  0  0  0  0
 14 24  2  0  0  0  0
 15 23  2  0  0  0  0
 15 30  1  0  0  0  0
 16 29  2  0  0  0  0
 16 31  1  0  0  0  0
 17 32  1  0  0  0  0
 18 32  1  0  0  0  0
 18 33  2  0  0  0  0
 18 34  1  0  0  0  0
 19 21  2  0  0  0  0
 19 39  1  0  0  0  0
 20 22  2  0  0  0  0
 20 40  1  0  0  0  0
 21 48  1  0  0  0  0
 22 41  1  0  0  0  0
 23 58  1  0  0  0  0
 24 25  1  0  0  0  0
 24 51  1  0  0  0  0
 25 30  2  0  0  0  0
 25 71  1  0  0  0  0
 26 81  1  0  0  0  0
 27 82  1  0  0  0  0
 28 31  2  0  0  0  0
 28 81  1  0  0  0  0
 29 83  1  0  0  0  0
 30 84  1  0  0  0  0
 31 85  1  0  0  0  0
 32 65  2  0  0  0  0
 33 66  1  0  0  0  0
 33 69  1  0  0  0  0
 34 70  1  0  0  0  0
 34 76  2  0  0  0  0
 35 49  1  0  0  0  0
 35 72  1  0  0  0  0
 35 77  2  0  0  0  0
 36 62  1  0  0  0  0
 36 67  1  0  0  0  0
 36 78  2  0  0  0  0
 37 63  1  0  0  0  0
 37 73  1  0  0  0  0
 37 79  2  0  0  0  0
 38 68  1  0  0  0  0
 38 71  1  0  0  0  0
 38 80  2  0  0  0  0
 39 42  1  0  0  0  0
 40 49  1  0  0  0  0
 41 67  1  0  0  0  0
 42 44  1  0  0  0  0
 43 45  1  0  0  0  0
 43 46  1  0  0  0  0
 44 48  1  0  0  0  0
 45 50  1  0  0  0  0
 46 68  1  0  0  0  0
 47 50  1  0  0  0  0
 47 68  1  0  0  0  0
 48 72  1  0  0  0  0
 49 67  1  0  0  0  0
 50 66  1  0  0  0  0
 52 63  1  0  0  0  0
 53 64  1  0  0  0  0
 54 64  1  0  0  0  0
 55 64  1  0  0  0  0
 56 74  1  0  0  0  0
 57 75  1  0  0  0  0
 58 75  1  0  0  0  0
 59 60  1  0  0  0  0
 59 61  1  0  0  0  0
 60 75  1  0  0  0  0
 61 82  1  0  0  0  0
 62 64  1  0  0  0  0
 62 73  1  0  0  0  0
 63 74  1  0  0  0  0
 65 66  1  0  0  0  0
M  CHG  2  74   1  75   1
M  ISO  4  38 100  61 101  71 100  82 101
M  END
> <Batch ID>
0019

> <Smiles>
CNC(C)C(=O)NC(C(=O)N1Cc2cc([101O:1][101CH2:1]CCN(C)Cc3cc(C)c([100NH:0][100C:0](=O)N4CCCC(n5nc(-c6ccc(Oc7ccc(F)cc7F)cc6)c(C(N)=O)c5N)C4)c(F)c3)ccc2CC1C(=O)NC1CCCc2ccccc21)C(C)(C)C

> <Shape>
0.232

> <Color>
0.060

> <Negative vol penalty>
0.000

$$$$

  -OEChem-04042321053D

 88 96  0     1  0  0  0  0  0999 V2000
  -28.3412  -32.6776   20.3939 C   0  0  0  0  0  0  0  0  0  0  0  0
  -28.1903  -31.2958   20.4515 C   0  0  0  0  0  0  0  0  0  0  0  0
  -24.3091  -11.5463   23.9776 C   0  0  0  0  0  0  0  0  0  0  0  0
  -24.2171  -13.9602   24.0181 C   0  0  0  0  0  0  0  0  0  0  0  0
  -27.4821  -33.5023   21.1189 C   0  0  0  0  0  0  0  0  0  0  0  0
  -27.1806  -30.7379   21.2350 C   0  0  0  0  0  0  0  0  0  0  0  0
  -23.9598  -25.6707   20.0286 C   0  0  0  0  0  0  0  0  0  0  0  0
  -26.7312  -19.1945   20.0141 C   0  0  0  0  0  0  0  0  0  0  0  0
  -26.7438  -17.4684   21.7045 C   0  0  0  0  0  0  0  0  0  0  0  0
  -27.5702  -18.4181   19.2149 C   0  0  0  0  0  0  0  0  0  0  0  0
  -27.5828  -16.6919   20.9052 C   0  0  0  0  0  0  0  0  0  0  0  0
  -23.8935  -11.5081   25.3085 C   0  0  0  0  0  0  0  0  0  0  0  0
  -23.8014  -13.9221   25.3490 C   0  0  0  0  0  0  0  0  0  0  0  0
  -24.0818  -24.3542   20.4710 C   0  0  0  0  0  0  0  0  0  0  0  0
  -22.5090  -10.7636   28.5863 C   0  0  0  0  0  0  0  0  0  0  0  0
  -21.5173   -9.8450   28.9299 C   0  0  0  0  0  0  0  0  0  0  0  0
  -22.4287  -24.7803   22.1754 C   0  0  0  0  0  0  0  0  0  0  0  0
  -20.0030  -10.8955   27.3676 C   0  0  0  0  0  0  0  0  0  0  0  0
  -24.4710  -12.7724   23.3323 C   0  0  0  0  0  0  0  0  0  0  0  0
  -24.0844  -12.8008   20.8110 C   0  0  0  0  0  0  0  0  0  0  0  0
  -26.4553  -32.9546   21.9040 C   0  0  0  0  0  0  0  0  0  0  0  0
  -23.0779  -26.5564   20.6643 C   0  0  0  0  0  0  0  0  0  0  0  0
  -26.3078  -31.5561   21.9722 C   0  0  0  0  0  0  0  0  0  0  0  0
  -22.2955  -26.1068   21.7375 C   0  0  0  0  0  0  0  0  0  0  0  0
  -26.3180  -18.7197   21.2590 C   0  0  0  0  0  0  0  0  0  0  0  0
  -27.9960  -17.1668   19.6604 C   0  0  0  0  0  0  0  0  0  0  0  0
  -23.6396  -12.6960   25.9942 C   0  0  0  0  0  0  0  0  0  0  0  0
  -23.3183  -23.9096   21.5464 C   0  0  0  0  0  0  0  0  0  0  0  0
  -22.2478  -11.7483   27.6334 C   0  0  0  0  0  0  0  0  0  0  0  0
  -20.2643   -9.9109   28.3205 C   0  0  0  0  0  0  0  0  0  0  0  0
  -20.9948  -11.8142   27.0241 C   0  0  0  0  0  0  0  0  0  0  0  0
  -24.9009  -12.8125   21.9577 C   0  0  0  0  0  0  0  0  0  0  0  0
  -24.9674  -12.8530   19.7602 C   0  0  0  0  0  0  0  0  0  0  0  0
  -22.6555  -12.7477   20.7051 C   0  0  0  0  0  0  0  0  0  0  0  0
  -23.4019  -29.2910   22.2520 C   0  0  0  0  0  0  0  0  0  0  0  0
  -25.4975  -21.4077   23.5898 C   0  0  0  0  0  0  0  0  0  0  0  0
  -20.1586  -29.2417   22.2215 C   0  0  0  0  0  0  0  0  0  0  0  0
  -17.2910  -27.4053   21.9954 C   0  0  0  0  0  0  0  0  0  0  0  0
  -30.7455  -14.8904   19.7400 C   0  0  0  0  0  0  0  0  0  0  0  0
  -25.5810  -33.8847   22.7073 C   0  0  0  0  0  0  0  0  0  0  0  0
  -22.9384  -27.9659   20.1579 C   0  0  0  0  0  0  0  0  0  0  0  0
  -21.3191  -27.0123   22.4412 C   0  0  0  0  0  0  0  0  0  0  0  0
  -24.3008  -33.2281   23.2176 C   0  0  0  0  0  0  0  0  0  0  0  0
  -29.4269  -11.6473   18.5379 C   0  0  0  0  0  0  0  0  0  0  0  0
  -24.6077  -31.8661   23.8321 C   0  0  0  0  0  0  0  0  0  0  0  0
  -28.0758  -11.5544   19.2449 C   0  0  0  0  0  0  0  0  0  0  0  0
  -30.4288  -12.4763   19.3358 C   0  0  0  0  0  0  0  0  0  0  0  0
  -28.5888  -13.7444   20.3944 C   0  0  0  0  0  0  0  0  0  0  0  0
  -25.2090  -30.9141   22.7911 C   0  0  1  0  0  0  0  0  0  0  0  0
  -22.3858  -28.9258   21.2070 C   0  0  1  0  0  0  0  0  0  0  0  0
  -27.5421  -12.9545   19.5944 C   0  0  2  0  0  0  0  0  0  0  0  0
  -26.1278  -22.5616   24.3376 C   0  0  0  0  0  0  0  0  0  0  0  0
  -26.9689  -15.1053   17.6331 C   0  0  0  0  0  0  0  0  0  0  0  0
  -23.7266  -20.8247   25.2764 C   0  0  0  0  0  0  0  0  0  0  0  0
  -14.7929  -27.6396   22.0417 C   0  0  0  0  0  0  0  0  0  0  0  0
  -20.2496  -29.5866   25.2518 C   0  0  0  0  0  0  0  0  0  0  0  0
  -17.8526  -28.8685   25.3356 C   0  0  0  0  0  0  0  0  0  0  0  0
  -18.4898  -30.9399   24.1003 C   0  0  0  0  0  0  0  0  0  0  0  0
  -31.0596  -17.3191   19.4528 C   0  0  0  0  0  0  0  0  0  0  0  0
  -17.0238  -26.3379   19.2480 C   0  0  0  0  0  0  0  0  0  0  0  0
  -25.4139  -19.5557   22.1209 C   0  0  0  0  0  0  0  0  0  0  0  0
  -28.2590  -14.9742   18.4333 C   0  0  0  0  0  0  0  0  0  0  0  0
  -23.2000  -22.3844   23.3673 C   0  0  0  0  0  0  0  0  0  1  0  0
  -28.8917  -16.3364   18.8045 C   0  0  2  0  0  0  0  0  0  0  0  0
  -24.0020  -21.1618   23.8130 C   0  0  1  0  0  0  0  0  0  0  0  0
  -19.0893  -28.6837   23.1294 C   0  0  1  0  0  0  0  0  0  0  0  0
  -16.0348  -27.5972   21.1650 C   0  0  2  0  0  0  0  0  0  0  0  0
  -18.9401  -29.5029   24.4425 C   0  0  0  0  0  0  0  0  0  0  0  0
  -26.2026  -12.8676   21.6633 N   0  0  0  0  0  0  0  0  0  0  0  0
  -26.1368  -20.6321   22.7792 N   0  0  0  0  0  0  0  0  0  0  0  0
  -26.2107  -12.8908   20.3196 N   0  0  0  0  0  0  0  0  0  0  0  0
  -21.2234  -28.3832   21.9131 N   0  0  0  0  0  0  0  0  0  0  0  0
  -29.8800  -13.7853   19.6916 N   0  0  0  0  0  0  0  0  0  0  0  0
  -24.7938  -12.8695   18.4215 N   0  0  0  0  0  0  0  0  0  0  0  0
  -21.8995  -12.6984   21.8842 N   0  0  0  0  0  0  0  0  0  0  0  0
  -24.1729  -30.3907   21.9268 N   0  0  0  0  0  0  0  0  0  0  0  0
  -17.8717  -28.6105   22.3291 N   0  0  0  0  0  0  0  0  0  0  0  0
  -30.1994  -16.1446   19.4278 N   0  0  0  0  0  0  0  0  0  0  0  0
  -15.8833  -26.4810   20.1892 N   0  3  0  0  0  0  0  0  0  0  0  0
  -22.0672  -12.7276   19.5973 O   0  0  0  0  0  0  0  0  0  0  0  0
  -23.4796  -28.6253   23.2779 O   0  0  0  0  0  0  0  0  0  0  0  0
  -20.0494  -30.3943   21.7957 O   0  0  0  0  0  0  0  0  0  0  0  0
  -17.7127  -26.2972   22.3190 O   0  0  0  0  0  0  0  0  0  0  0  0
  -31.9405  -14.7620   20.0355 O   0  0  0  0  0  0  0  0  0  0  0  0
  -23.2338  -12.6591   27.2929 O   0  0  0  0  0  0  0  0  0  0  0  0
  -23.4358  -22.6253   21.9807 O   0  0  0  0  0  0  0  0  0  1  0  0
  -19.3125   -9.0277   28.6494 F   0  0  0  0  0  0  0  0  0  0  0  0
  -20.7384  -12.7571   26.1071 F   0  0  0  0  0  0  0  0  0  0  0  0
  1  2  1  0  0  0  0
  1  5  2  0  0  0  0
  2  6  2  0  0  0  0
  3 12  2  0  0  0  0
  3 19  1  0  0  0  0
  4 13  1  0  0  0  0
  4 19  2  0  0  0  0
  5 21  1  0  0  0  0
  6 23  1  0  0  0  0
  7 14  2  0  0  0  0
  7 22  1  0  0  0  0
  8 10  2  0  0  0  0
  8 25  1  0  0  0  0
  9 11  1  0  0  0  0
  9 25  2  0  0  0  0
 10 26  1  0  0  0  0
 11 26  2  0  0  0  0
 12 27  1  0  0  0  0
 13 27  2  0  0  0  0
 14 28  1  0  0  0  0
 15 16  2  0  0  0  0
 15 29  1  0  0  0  0
 16 30  1  0  0  0  0
 17 24  1  0  0  0  0
 17 28  2  0  0  0  0
 18 30  2  0  0  0  0
 18 31  1  0  0  0  0
 19 32  1  0  0  0  0
 20 32  1  0  0  0  0
 20 33  2  0  0  0  0
 20 34  1  0  0  0  0
 21 23  2  0  0  0  0
 21 40  1  0  0  0  0
 22 24  2  0  0  0  0
 22 41  1  0  0  0  0
 23 49  1  0  0  0  0
 24 42  1  0  0  0  0
 25 61  1  0  0  0  0
 26 64  1  0  0  0  0
 27 85  1  0  0  0  0
 28 86  1  0  0  0  0
 29 31  2  0  0  0  0
 29 85  1  0  0  0  0
 30 87  1  0  0  0  0
 31 88  1  0  0  0  0
 32 69  2  0  0  0  0
 33 71  1  0  0  0  0
 33 74  1  0  0  0  0
 34 75  1  0  0  0  0
 34 80  2  0  0  0  0
 35 50  1  0  0  0  0
 35 76  1  0  0  0  0
 35 81  2  0  0  0  0
 36 52  1  0  0  0  0
 36 65  1  0  0  0  0
 36 70  2  0  0  0  0
 37 66  1  0  0  0  0
 37 72  1  0  0  0  0
 37 82  2  0  0  0  0
 38 67  1  0  0  0  0
 38 77  1  0  0  0  0
 38 83  2  0  0  0  0
 39 73  1  0  0  0  0
 39 78  1  0  0  0  0
 39 84  2  0  0  0  0
 40 43  1  0  0  0  0
 41 50  1  0  0  0  0
 42 72  1  0  0  0  0
 43 45  1  0  0  0  0
 44 46  1  0  0  0  0
 44 47  1  0  0  0  0
 45 49  1  0  0  0  0
 46 51  1  0  0  0  0
 47 73  1  0  0  0  0
 48 51  1  0  0  0  0
 48 73  1  0  0  0  0
 49 76  1  0  0  0  0
 50 72  1  0  0  0  0
 51 71  1  0  0  0  0
 53 62  1  0  0  0  0
 54 65  1  0  0  0  0
 55 67  1  0  0  0  0
 56 68  1  0  0  0  0
 57 68  1  0  0  0  0
 58 68  1  0  0  0  0
 59 78  1  0  0  0  0
 60 79  1  0  0  0  0
 61 70  1  0  0  0  0
 62 64  1  0  0  0  0
 63 65  1  0  0  0  0
 63 86  1  0  0  0  0
 64 78  1  0  0  0  0
 66 68  1  0  0  0  0
 66 77  1  0  0  0  0
 67 79  1  0  0  0  0
 69 71  1  0  0  0  0
M  CHG  1  79   1
M  ISO  4  39 100  63 101  78 100  86 101
M  END
> <Batch ID>
0019

> <Smiles>
CCC(c1ccc(CNC(C)=C(C)[101CH2:1][101O:1]c2ccc3c(c2)CN(C(=O)C(NC(=O)C(C)NC)C(C)(C)C)C(C(=O)NC2CCCc4ccccc42)C3)cc1)[100N:0](C)[100C:0](=O)N1CCCC(n2nc(-c3ccc(Oc4ccc(F)cc4F)cc3)c(C(N)=O)c2N)C1

> <Shape>
0.224

> <Color>
0.095

> <Negative vol penalty>
0.000

$$$$

  -OEChem-04042321053D

 85 94  0     1  0  0  0  0  0999 V2000
  -17.2705  -24.6220   25.0420 C   0  0  0  0  0  0  0  0  0  0  0  0
  -18.4944  -24.2351   25.5784 C   0  0  0  0  0  0  0  0  0  0  0  0
  -23.0495   -9.8911   19.9195 C   0  0  0  0  0  0  0  0  0  0  0  0
  -23.8245   -9.8700   22.2078 C   0  0  0  0  0  0  0  0  0  0  0  0
  -17.2114  -25.1512   23.7534 C   0  0  0  0  0  0  0  0  0  0  0  0
  -19.6599  -24.3761   24.8260 C   0  0  0  0  0  0  0  0  0  0  0  0
  -26.6495  -25.7597   25.5663 C   0  0  0  0  0  0  0  0  0  0  0  0
  -31.3726  -19.0301   20.6129 C   0  0  0  0  0  0  0  0  0  0  0  0
  -31.1919  -17.6471   20.5961 C   0  0  0  0  0  0  0  0  0  0  0  0
  -22.2981   -8.7416   20.1634 C   0  0  0  0  0  0  0  0  0  0  0  0
  -23.0730   -8.7205   22.4517 C   0  0  0  0  0  0  0  0  0  0  0  0
  -27.8937  -25.2405   25.2113 C   0  0  0  0  0  0  0  0  0  0  0  0
  -19.8425   -7.9427   23.0680 C   0  0  0  0  0  0  0  0  0  0  0  0
  -19.0930   -7.8976   24.2434 C   0  0  0  0  0  0  0  0  0  0  0  0
  -27.6810  -26.2405   23.0264 C   0  0  0  0  0  0  0  0  0  0  0  0
  -29.7551  -19.2198   22.3975 C   0  0  0  0  0  0  0  0  0  0  0  0
  -20.3236   -5.9433   24.9531 C   0  0  0  0  0  0  0  0  0  0  0  0
  -23.8128  -10.4553   20.9417 C   0  0  0  0  0  0  0  0  0  0  0  0
  -24.1741  -12.9787   20.8435 C   0  0  0  0  0  0  0  0  0  0  0  0
  -18.3780  -25.3077   22.9885 C   0  0  0  0  0  0  0  0  0  0  0  0
  -25.9055  -26.5154   24.6487 C   0  0  0  0  0  0  0  0  0  0  0  0
  -19.6163  -24.9066   23.5255 C   0  0  0  0  0  0  0  0  0  0  0  0
  -26.4287  -26.7704   23.3730 C   0  0  0  0  0  0  0  0  0  0  0  0
  -30.6543  -19.8165   21.5137 C   0  0  0  0  0  0  0  0  0  0  0  0
  -30.2927  -17.0505   21.4799 C   0  0  0  0  0  0  0  0  0  0  0  0
  -22.3098   -8.1563   21.4295 C   0  0  0  0  0  0  0  0  0  0  0  0
  -28.4084  -25.4784   23.9402 C   0  0  0  0  0  0  0  0  0  0  0  0
  -20.8326   -6.9881   22.8350 C   0  0  0  0  0  0  0  0  0  0  0  0
  -19.3335   -6.8979   25.1860 C   0  0  0  0  0  0  0  0  0  0  0  0
  -29.5743  -17.8368   22.3806 C   0  0  0  0  0  0  0  0  0  0  0  0
  -21.0731   -5.9884   23.7776 C   0  0  0  0  0  0  0  0  0  0  0  0
  -24.5897  -11.6424   20.6902 C   0  0  0  0  0  0  0  0  0  0  0  0
  -25.2699  -13.7229   20.4801 C   0  0  0  0  0  0  0  0  0  0  0  0
  -30.1904  -22.1551   22.3765 C   0  0  0  0  0  0  0  0  0  0  0  0
  -22.9106  -13.5006   21.2757 C   0  0  0  0  0  0  0  0  0  0  0  0
  -23.0714  -26.1863   23.2475 C   0  0  0  0  0  0  0  0  0  0  0  0
  -23.7161  -29.1608   22.1256 C   0  0  0  0  0  0  0  0  0  0  0  0
  -26.0570  -31.5169   21.3409 C   0  0  0  0  0  0  0  0  0  0  0  0
  -30.7453  -14.7231   20.6285 C   0  0  0  0  0  0  0  0  0  0  0  0
  -18.2583  -25.8405   21.5826 C   0  0  0  0  0  0  0  0  0  0  0  0
  -24.5769  -27.0909   25.0561 C   0  0  0  0  0  0  0  0  0  0  0  0
  -25.6787  -27.5925   22.3581 C   0  0  0  0  0  0  0  0  0  0  0  0
  -19.5871  -26.3051   20.9921 C   0  0  0  0  0  0  0  0  0  0  0  0
  -29.5960  -12.3411   18.2448 C   0  0  0  0  0  0  0  0  0  0  0  0
  -20.6763  -25.2680   21.2470 C   0  0  0  0  0  0  0  0  0  0  0  0
  -28.1569  -12.0569   18.6811 C   0  0  0  0  0  0  0  0  0  0  0  0
  -31.3951  -23.3535   20.7100 C   0  0  0  0  0  0  0  0  0  0  0  0
  -30.5208  -12.5510   19.4425 C   0  0  0  0  0  0  0  0  0  0  0  0
  -31.8016  -21.8939   20.6707 C   0  0  0  0  0  0  0  0  0  0  0  0
  -28.6288  -13.2774   20.8432 C   0  0  0  0  0  0  0  0  0  0  0  0
  -20.9057  -25.0670   22.7498 C   0  0  1  0  0  0  0  0  0  0  0  0
  -30.8157  -23.5145   22.1080 C   0  0  1  0  0  0  0  0  0  0  0  0
  -23.6760  -27.4139   23.8681 C   0  0  1  0  0  0  0  0  0  0  0  0
  -27.6469  -13.1232   19.6703 C   0  0  2  0  0  0  0  0  0  0  0  0
  -26.2823  -33.8358   20.4083 C   0  0  0  0  0  0  0  0  0  0  0  0
  -23.1873  -28.0818   19.3210 C   0  0  0  0  0  0  0  0  0  0  0  0
  -24.3266  -30.1122   18.4005 C   0  0  0  0  0  0  0  0  0  0  0  0
  -22.2478  -30.3581   19.7573 C   0  0  0  0  0  0  0  0  0  0  0  0
  -27.3110  -32.5200   23.8269 C   0  0  0  0  0  0  0  0  0  0  0  0
  -29.8225  -24.6564   22.2138 C   0  0  0  0  0  0  0  0  0  1  0  0
  -24.4077  -29.7160   20.9040 C   0  0  1  0  0  0  0  0  0  0  0  0
  -26.1466  -32.9964   21.6692 C   0  0  2  0  0  0  0  0  0  0  0  0
  -23.5558  -29.5499   19.6139 C   0  0  0  0  0  0  0  0  0  0  0  0
  -25.8510  -11.5405   20.2627 N   0  0  0  0  0  0  0  0  0  0  0  0
  -26.2374  -12.8222   20.1441 N   0  0  0  0  0  0  0  0  0  0  0  0
  -30.8387  -21.2316   21.5307 N   0  0  0  0  0  0  0  0  0  0  0  0
  -24.3811  -28.1282   22.8018 N   0  0  0  0  0  0  0  0  0  0  0  0
  -29.9759  -13.5778   20.3333 N   0  0  0  0  0  0  0  0  0  0  0  0
  -25.4905  -15.0532   20.4184 N   0  0  0  0  0  0  0  0  0  0  0  0
  -21.8936  -12.5963   21.6110 N   0  0  0  0  0  0  0  0  0  0  0  0
  -30.1108  -15.6454   21.4600 N   0  0  0  0  0  0  0  0  0  0  0  0
  -21.6906  -26.1556   23.2913 N   0  0  0  0  0  0  0  0  0  0  0  0
  -24.7486  -31.0987   21.2209 N   0  0  0  0  0  0  0  0  0  0  0  0
  -27.3257  -33.2631   22.5406 N   0  3  0  0  0  0  0  0  0  0  0  0
  -29.3346  -21.9686   23.2293 O   0  0  0  0  0  0  0  0  0  0  0  0
  -22.6846  -14.7324   21.3464 O   0  0  0  0  0  0  0  0  0  0  0  0
  -23.8034  -25.3310   22.7634 O   0  0  0  0  0  0  0  0  0  0  0  0
  -22.6294  -29.6311   22.4715 O   0  0  0  0  0  0  0  0  0  0  0  0
  -27.0486  -30.8045   21.2009 O   0  0  0  0  0  0  0  0  0  0  0  0
  -31.8726  -14.8873   20.1551 O   0  0  0  0  0  0  0  0  0  0  0  0
  -21.5764   -7.0347   21.6679 O   0  0  0  0  0  0  0  0  0  0  0  0
  -29.6223  -24.9722   23.5909 O   0  0  0  0  0  0  0  0  0  1  0  0
  -18.6147   -6.8556   26.3155 F   0  0  0  0  0  0  0  0  0  0  0  0
  -28.7062  -17.2744   23.2337 F   0  0  0  0  0  0  0  0  0  0  0  0
  -22.0237   -5.0693   23.5599 F   0  0  0  0  0  0  0  0  0  0  0  0
  1  2  1  0  0  0  0
  1  5  2  0  0  0  0
  2  6  2  0  0  0  0
  3 10  2  0  0  0  0
  3 18  1  0  0  0  0
  4 11  1  0  0  0  0
  4 18  2  0  0  0  0
  5 20  1  0  0  0  0
  6 22  1  0  0  0  0
  7 12  2  0  0  0  0
  7 21  1  0  0  0  0
  8  9  2  0  0  0  0
  8 24  1  0  0  0  0
  9 25  1  0  0  0  0
 10 26  1  0  0  0  0
 11 26  2  0  0  0  0
 12 27  1  0  0  0  0
 13 14  2  0  0  0  0
 13 28  1  0  0  0  0
 14 29  1  0  0  0  0
 15 23  1  0  0  0  0
 15 27  2  0  0  0  0
 16 24  2  0  0  0  0
 16 30  1  0  0  0  0
 17 29  2  0  0  0  0
 17 31  1  0  0  0  0
 18 32  1  0  0  0  0
 19 32  1  0  0  0  0
 19 33  2  0  0  0  0
 19 35  1  0  0  0  0
 20 22  2  0  0  0  0
 20 40  1  0  0  0  0
 21 23  2  0  0  0  0
 21 41  1  0  0  0  0
 22 51  1  0  0  0  0
 23 42  1  0  0  0  0
 24 66  1  0  0  0  0
 25 30  2  0  0  0  0
 25 71  1  0  0  0  0
 26 81  1  0  0  0  0
 27 82  1  0  0  0  0
 28 31  2  0  0  0  0
 28 81  1  0  0  0  0
 29 83  1  0  0  0  0
 30 84  1  0  0  0  0
 31 85  1  0  0  0  0
 32 64  2  0  0  0  0
 33 65  1  0  0  0  0
 33 69  1  0  0  0  0
 34 52  1  0  0  0  0
 34 66  1  0  0  0  0
 34 75  2  0  0  0  0
 35 70  1  0  0  0  0
 35 76  2  0  0  0  0
 36 53  1  0  0  0  0
 36 72  1  0  0  0  0
 36 77  2  0  0  0  0
 37 61  1  0  0  0  0
 37 67  1  0  0  0  0
 37 78  2  0  0  0  0
 38 62  1  0  0  0  0
 38 73  1  0  0  0  0
 38 79  2  0  0  0  0
 39 68  1  0  0  0  0
 39 71  1  0  0  0  0
 39 80  2  0  0  0  0
 40 43  1  0  0  0  0
 41 53  1  0  0  0  0
 42 67  1  0  0  0  0
 43 45  1  0  0  0  0
 44 46  1  0  0  0  0
 44 48  1  0  0  0  0
 45 51  1  0  0  0  0
 46 54  1  0  0  0  0
 47 49  1  0  0  0  0
 47 52  1  0  0  0  0
 48 68  1  0  0  0  0
 49 66  1  0  0  0  0
 50 54  1  0  0  0  0
 50 68  1  0  0  0  0
 51 72  1  0  0  0  0
 52 60  1  0  0  0  0
 53 67  1  0  0  0  0
 54 65  1  0  0  0  0
 55 62  1  0  0  0  0
 56 63  1  0  0  0  0
 57 63  1  0  0  0  0
 58 63  1  0  0  0  0
 59 74  1  0  0  0  0
 60 82  1  0  0  0  0
 61 63  1  0  0  0  0
 61 73  1  0  0  0  0
 62 74  1  0  0  0  0
 64 65  1  0  0  0  0
M  CHG  1  74   1
M  ISO  4  39 100  60 101  71 100  82 101
M  END
> <Batch ID>
0019

> <Smiles>
CNC(C)C(=O)NC(C(=O)N1Cc2cc([101O:1][101CH2:1]C3CCN(c4ccc([100NH:0][100C:0](=O)N5CCCC(n6nc(-c7ccc(Oc8ccc(F)cc8F)cc7)c(C(N)=O)c6N)C5)c(F)c4)C3=O)ccc2CC1C(=O)NC1CCCc2ccccc21)C(C)(C)C

> <Shape>
0.296

> <Color>
0.195

> <Negative vol penalty>
0.000

$$$$

  -OEChem-04042321053D

 87 95  0     1  0  0  0  0  0999 V2000
  -18.1483  -23.9126   23.9160 C   0  0  0  0  0  0  0  0  0  0  0  0
  -19.3917  -23.7768   23.3070 C   0  0  0  0  0  0  0  0  0  0  0  0
  -23.0640  -10.1109   21.5045 C   0  0  0  0  0  0  0  0  0  0  0  0
  -24.0838  -10.8916   23.5508 C   0  0  0  0  0  0  0  0  0  0  0  0
  -17.5282  -25.1605   23.9613 C   0  0  0  0  0  0  0  0  0  0  0  0
  -20.0153  -24.8887   22.7420 C   0  0  0  0  0  0  0  0  0  0  0  0
  -24.9316  -25.1685   23.9235 C   0  0  0  0  0  0  0  0  0  0  0  0
  -22.3741   -9.1333   22.2212 C   0  0  0  0  0  0  0  0  0  0  0  0
  -23.3938   -9.9140   24.2676 C   0  0  0  0  0  0  0  0  0  0  0  0
  -25.8029  -24.3340   23.2248 C   0  0  0  0  0  0  0  0  0  0  0  0
  -23.0336   -6.1070   23.5744 C   0  0  0  0  0  0  0  0  0  0  0  0
  -23.0092   -4.8152   23.0487 C   0  0  0  0  0  0  0  0  0  0  0  0
  -26.4197  -26.1805   21.8003 C   0  0  0  0  0  0  0  0  0  0  0  0
  -28.9934  -18.6652   18.5540 C   0  0  0  0  0  0  0  0  0  0  0  0
  -29.5868  -19.1523   16.2633 C   0  0  0  0  0  0  0  0  0  0  0  0
  -29.7316  -16.8880   17.0932 C   0  0  0  0  0  0  0  0  0  0  0  0
  -20.5975   -4.9062   22.9368 C   0  0  0  0  0  0  0  0  0  0  0  0
  -23.9189  -10.9901   22.1693 C   0  0  0  0  0  0  0  0  0  0  0  0
  -24.2008  -13.3094   21.1450 C   0  0  0  0  0  0  0  0  0  0  0  0
  -18.1488  -26.2902   23.4051 C   0  0  0  0  0  0  0  0  0  0  0  0
  -24.7895  -26.5150   23.5583 C   0  0  0  0  0  0  0  0  0  0  0  0
  -19.4022  -26.1527   22.7787 C   0  0  0  0  0  0  0  0  0  0  0  0
  -25.5478  -27.0307   22.4976 C   0  0  0  0  0  0  0  0  0  0  0  0
  -29.1430  -19.5823   17.5138 C   0  0  0  0  0  0  0  0  0  0  0  0
  -29.2878  -17.3180   18.3437 C   0  0  0  0  0  0  0  0  0  0  0  0
  -22.5390   -9.0348   23.6028 C   0  0  0  0  0  0  0  0  0  0  0  0
  -26.5449  -24.8391   22.1612 C   0  0  0  0  0  0  0  0  0  0  0  0
  -21.8399   -6.7984   23.7814 C   0  0  0  0  0  0  0  0  0  0  0  0
  -21.7912   -4.2148   22.7299 C   0  0  0  0  0  0  0  0  0  0  0  0
  -29.8812  -17.8052   16.0530 C   0  0  0  0  0  0  0  0  0  0  0  0
  -20.6219   -6.1980   23.4625 C   0  0  0  0  0  0  0  0  0  0  0  0
  -24.6323  -11.9999   21.4293 C   0  0  0  0  0  0  0  0  0  0  0  0
  -25.2304  -13.8609   20.4224 C   0  0  0  0  0  0  0  0  0  0  0  0
  -22.9785  -13.9683   21.5021 C   0  0  0  0  0  0  0  0  0  0  0  0
  -22.3879  -28.3125   22.5070 C   0  0  0  0  0  0  0  0  0  0  0  0
  -24.5507  -30.7076   22.8355 C   0  0  0  0  0  0  0  0  0  0  0  0
  -29.0976  -22.1314   19.9773 C   0  0  0  0  0  0  0  0  0  0  0  0
  -27.8266  -31.6544   22.9731 C   0  0  0  0  0  0  0  0  0  0  0  0
  -30.8571  -14.6092   20.1097 C   0  0  0  0  0  0  0  0  0  0  0  0
  -17.4181  -27.6092   23.4367 C   0  0  0  0  0  0  0  0  0  0  0  0
  -23.8653  -27.4087   24.3390 C   0  0  0  0  0  0  0  0  0  0  0  0
  -25.4468  -28.4738   22.0787 C   0  0  0  0  0  0  0  0  0  0  0  0
  -18.3152  -28.8095   23.1454 C   0  0  0  0  0  0  0  0  0  0  0  0
  -29.3155  -11.7477   18.3387 C   0  0  0  0  0  0  0  0  0  0  0  0
  -19.1944  -28.5361   21.9292 C   0  0  0  0  0  0  0  0  0  0  0  0
  -27.9525  -11.6302   19.0188 C   0  0  0  0  0  0  0  0  0  0  0  0
  -30.3663  -12.3398   19.2729 C   0  0  0  0  0  0  0  0  0  0  0  0
  -28.6130  -13.5296   20.5473 C   0  0  0  0  0  0  0  0  0  0  0  0
  -20.1216  -27.3400   22.1765 C   0  0  1  0  0  0  0  0  0  0  0  0
  -23.4166  -28.6368   23.5531 C   0  0  1  0  0  0  0  0  0  0  0  0
  -27.5203  -12.9797   19.6182 C   0  0  2  0  0  0  0  0  0  0  0  0
  -29.2820  -33.6849   23.2107 C   0  0  0  0  0  0  0  0  0  0  0  0
  -23.9736  -31.4577   19.9348 C   0  0  0  0  0  0  0  0  0  0  0  0
  -26.0749  -32.8188   19.9417 C   0  0  0  0  0  0  0  0  0  0  0  0
  -24.2074  -33.4033   21.4887 C   0  0  0  0  0  0  0  0  0  0  0  0
  -31.0832  -21.6108   18.5429 C   0  0  0  0  0  0  0  0  0  0  0  0
  -31.3550  -17.0188   20.2693 C   0  0  0  0  0  0  0  0  0  0  0  0
  -29.0377  -30.6365   25.4743 C   0  0  0  0  0  0  0  0  0  0  0  0
  -28.8267  -21.0325   17.7402 C   0  0  0  0  0  0  0  0  0  0  0  0
  -29.1281  -16.3371   19.4558 C   0  0  0  0  0  0  0  0  0  0  0  0
  -27.5787  -22.0604   20.0964 C   0  0  0  0  0  0  0  0  0  0  0  0
  -27.0528  -22.6434   21.4020 C   0  0  0  0  0  0  0  0  0  1  0  0
  -25.5924  -31.3374   21.9425 C   0  0  1  0  0  0  0  0  0  0  0  0
  -28.5756  -32.5530   23.9405 C   0  0  2  0  0  0  0  0  0  0  0  0
  -24.9628  -32.2266   20.8333 C   0  0  0  0  0  0  0  0  0  0  0  0
  -25.8417  -11.7353   20.9281 N   0  0  0  0  0  0  0  0  0  0  0  0
  -26.1790  -12.8861   20.3215 N   0  0  0  0  0  0  0  0  0  0  0  0
  -24.5248  -29.3062   22.8691 N   0  0  0  0  0  0  0  0  0  0  0  0
  -29.9123  -13.5999   19.8620 N   0  0  0  0  0  0  0  0  0  0  0  0
  -25.4079  -15.0797   19.8698 N   0  0  0  0  0  0  0  0  0  0  0  0
  -22.0283  -13.2561   22.2465 N   0  0  0  0  0  0  0  0  0  0  0  0
  -21.2394  -27.7306   23.0087 N   0  0  0  0  0  0  0  0  0  0  0  0
  -26.5127  -32.0457   22.8255 N   0  0  0  0  0  0  0  0  0  0  0  0
  -29.6483  -21.6123   18.8002 N   0  0  0  0  0  0  0  0  0  0  0  0
  -30.4100  -15.9369   20.0320 N   0  0  0  0  0  0  0  0  0  0  0  0
  -29.5964  -31.7687   24.6914 N   0  3  0  0  0  0  0  0  0  0  0  0
  -22.7292  -15.1483   21.1569 O   0  0  0  0  0  0  0  0  0  0  0  0
  -22.6185  -28.5723   21.3319 O   0  0  0  0  0  0  0  0  0  0  0  0
  -23.7928  -31.4325   23.4849 O   0  0  0  0  0  0  0  0  0  0  0  0
  -29.7754  -22.6245   20.8827 O   0  0  0  0  0  0  0  0  0  0  0  0
  -28.3553  -30.7030   22.4023 O   0  0  0  0  0  0  0  0  0  0  0  0
  -32.0355  -14.3393   20.3753 O   0  0  0  0  0  0  0  0  0  0  0  0
  -21.8657   -8.0810   24.3026 O   0  0  0  0  0  0  0  0  0  0  0  0
  -27.3956  -24.0266   21.4771 O   0  0  0  0  0  0  0  0  0  1  0  0
  -21.7681   -2.9749   22.2237 F   0  0  0  0  0  0  0  0  0  0  0  0
  -30.3083  -17.3927   14.8525 F   0  0  0  0  0  0  0  0  0  0  0  0
  -19.4719   -6.8576   23.6580 F   0  0  0  0  0  0  0  0  0  0  0  0
  1  2  1  0  0  0  0
  1  5  2  0  0  0  0
  2  6  2  0  0  0  0
  3  8  2  0  0  0  0
  3 18  1  0  0  0  0
  4  9  1  0  0  0  0
  4 18  2  0  0  0  0
  5 20  1  0  0  0  0
  6 22  1  0  0  0  0
  7 10  2  0  0  0  0
  7 21  1  0  0  0  0
  8 26  1  0  0  0  0
  9 26  2  0  0  0  0
 10 27  1  0  0  0  0
 11 12  2  0  0  0  0
 11 28  1  0  0  0  0
 12 29  1  0  0  0  0
 13 23  1  0  0  0  0
 13 27  2  0  0  0  0
 14 24  2  0  0  0  0
 14 25  1  0  0  0  0
 15 24  1  0  0  0  0
 15 30  2  0  0  0  0
 16 25  2  0  0  0  0
 16 30  1  0  0  0  0
 17 29  2  0  0  0  0
 17 31  1  0  0  0  0
 18 32  1  0  0  0  0
 19 32  1  0  0  0  0
 19 33  2  0  0  0  0
 19 34  1  0  0  0  0
 20 22  2  0  0  0  0
 20 40  1  0  0  0  0
 21 23  2  0  0  0  0
 21 41  1  0  0  0  0
 22 49  1  0  0  0  0
 23 42  1  0  0  0  0
 24 59  1  0  0  0  0
 25 60  1  0  0  0  0
 26 83  1  0  0  0  0
 27 84  1  0  0  0  0
 28 31  2  0  0  0  0
 28 83  1  0  0  0  0
 29 85  1  0  0  0  0
 30 86  1  0  0  0  0
 31 87  1  0  0  0  0
 32 66  2  0  0  0  0
 33 67  1  0  0  0  0
 33 70  1  0  0  0  0
 34 71  1  0  0  0  0
 34 77  2  0  0  0  0
 35 50  1  0  0  0  0
 35 72  1  0  0  0  0
 35 78  2  0  0  0  0
 36 63  1  0  0  0  0
 36 68  1  0  0  0  0
 36 79  2  0  0  0  0
 37 61  1  0  0  0  0
 37 74  1  0  0  0  0
 37 80  2  0  0  0  0
 38 64  1  0  0  0  0
 38 73  1  0  0  0  0
 38 81  2  0  0  0  0
 39 69  1  0  0  0  0
 39 75  1  0  0  0  0
 39 82  2  0  0  0  0
 40 43  1  0  0  0  0
 41 50  1  0  0  0  0
 42 68  1  0  0  0  0
 43 45  1  0  0  0  0
 44 46  1  0  0  0  0
 44 47  1  0  0  0  0
 45 49  1  0  0  0  0
 46 51  1  0  0  0  0
 47 69  1  0  0  0  0
 48 51  1  0  0  0  0
 48 69  1  0  0  0  0
 49 72  1  0  0  0  0
 50 68  1  0  0  0  0
 51 67  1  0  0  0  0
 52 64  1  0  0  0  0
 53 65  1  0  0  0  0
 54 65  1  0  0  0  0
 55 65  1  0  0  0  0
 56 74  1  0  0  0  0
 57 75  1  0  0  0  0
 58 76  1  0  0  0  0
 59 74  1  0  0  0  0
 60 75  1  0  0  0  0
 61 62  1  0  0  0  0
 62 84  1  0  0  0  0
 63 65  1  0  0  0  0
 63 73  1  0  0  0  0
 64 76  1  0  0  0  0
 66 67  1  0  0  0  0
M  CHG  1  76   1
M  ISO  4  39 100  62 101  75 100  84 101
M  END
> <Batch ID>
0019

> <Smiles>
CNC(C)C(=O)NC(C(=O)N1Cc2cc([101O:1][101CH2:1]CC(=O)N(C)Cc3cc(F)cc(C[100N:0](C)[100C:0](=O)N4CCCC(n5nc(-c6ccc(Oc7ccc(F)cc7F)cc6)c(C(N)=O)c5N)C4)c3)ccc2CC1C(=O)NC1CCCc2ccccc21)C(C)(C)C

> <Shape>
0.310

> <Color>
0.182

> <Negative vol penalty>
0.000

$$$$

  -OEChem-04042321053D

 86 94  0     1  0  0  0  0  0999 V2000
  -15.9249  -27.0769   23.0757 C   0  0  0  0  0  0  0  0  0  0  0  0
  -16.2534  -25.7269   23.1466 C   0  0  0  0  0  0  0  0  0  0  0  0
  -29.7418  -23.6061   20.8515 C   0  0  0  0  0  0  0  0  0  0  0  0
  -29.5555  -23.3318   18.4584 C   0  0  0  0  0  0  0  0  0  0  0  0
  -16.9211  -28.0243   22.8436 C   0  0  0  0  0  0  0  0  0  0  0  0
  -17.5783  -25.3235   22.9845 C   0  0  0  0  0  0  0  0  0  0  0  0
  -20.3760  -20.6568   25.7953 C   0  0  0  0  0  0  0  0  0  0  0  0
  -23.8899  -12.5247   21.3412 C   0  0  0  0  0  0  0  0  0  0  0  0
  -30.4810  -24.7734   20.6602 C   0  0  0  0  0  0  0  0  0  0  0  0
  -30.2947  -24.4992   18.2670 C   0  0  0  0  0  0  0  0  0  0  0  0
  -20.6522  -19.3502   25.3948 C   0  0  0  0  0  0  0  0  0  0  0  0
  -32.1091  -28.0205   20.8036 C   0  0  0  0  0  0  0  0  0  0  0  0
  -31.7837  -29.1295   21.5845 C   0  0  0  0  0  0  0  0  0  0  0  0
  -24.7822  -11.4538   21.2925 C   0  0  0  0  0  0  0  0  0  0  0  0
  -22.8651  -20.0318   24.7184 C   0  0  0  0  0  0  0  0  0  0  0  0
  -26.3478  -12.8145   20.0537 C   0  0  0  0  0  0  0  0  0  0  0  0
  -29.5481  -29.1185   20.6684 C   0  0  0  0  0  0  0  0  0  0  0  0
  -29.2791  -22.8853   19.7506 C   0  0  0  0  0  0  0  0  0  0  0  0
  -27.1179  -21.5679   20.0690 C   0  0  0  0  0  0  0  0  0  0  0  0
  -18.2603  -27.6332   22.6881 C   0  0  0  0  0  0  0  0  0  0  0  0
  -21.3401  -21.6646   25.6500 C   0  0  0  0  0  0  0  0  0  0  0  0
  -18.5932  -26.2665   22.7488 C   0  0  0  0  0  0  0  0  0  0  0  0
  -22.5996  -21.3498   25.1201 C   0  0  0  0  0  0  0  0  0  0  0  0
  -25.4554  -13.8855   20.1023 C   0  0  0  0  0  0  0  0  0  0  0  0
  -24.2264  -13.7406   20.7460 C   0  0  0  0  0  0  0  0  0  0  0  0
  -30.7574  -25.2200   19.3680 C   0  0  0  0  0  0  0  0  0  0  0  0
  -21.8959  -19.0381   24.8536 C   0  0  0  0  0  0  0  0  0  0  0  0
  -31.1541  -27.4606   19.9550 C   0  0  0  0  0  0  0  0  0  0  0  0
  -30.5032  -29.6785   21.5170 C   0  0  0  0  0  0  0  0  0  0  0  0
  -29.8736  -28.0096   19.8875 C   0  0  0  0  0  0  0  0  0  0  0  0
  -26.0112  -11.5987   20.6487 C   0  0  0  0  0  0  0  0  0  0  0  0
  -28.5160  -21.6790   19.9476 C   0  0  0  0  0  0  0  0  0  0  0  0
  -26.8938  -20.2236   20.2396 C   0  0  0  0  0  0  0  0  0  0  0  0
  -26.1117  -22.5886   20.0308 C   0  0  0  0  0  0  0  0  0  0  0  0
  -21.5102  -24.3878   24.0193 C   0  0  0  0  0  0  0  0  0  0  0  0
  -24.2912  -24.7386   25.6520 C   0  0  0  0  0  0  0  0  0  0  0  0
  -26.8722  -23.2642   27.3287 C   0  0  0  0  0  0  0  0  0  0  0  0
  -28.1188  -14.9971   18.3689 C   0  0  0  0  0  0  0  0  0  0  0  0
  -19.2953  -28.6894   22.3920 C   0  0  0  0  0  0  0  0  0  0  0  0
  -21.0360  -23.0635   26.1115 C   0  0  0  0  0  0  0  0  0  0  0  0
  -23.6762  -22.3911   24.9618 C   0  0  0  0  0  0  0  0  0  0  0  0
  -20.7299  -28.2128   22.6042 C   0  0  0  0  0  0  0  0  0  0  0  0
  -30.0916  -16.4251   21.1565 C   0  0  0  0  0  0  0  0  0  0  0  0
  -20.9378  -26.8437   21.9644 C   0  0  0  0  0  0  0  0  0  0  0  0
  -29.7910  -17.9189   21.0462 C   0  0  0  0  0  0  0  0  0  0  0  0
  -29.9896  -15.7248   19.8049 C   0  0  0  0  0  0  0  0  0  0  0  0
  -28.3881  -17.4297   19.0034 C   0  0  0  0  0  0  0  0  0  0  0  0
  -20.0227  -25.7918   22.6027 C   0  0  1  0  0  0  0  0  0  0  0  0
  -21.9122  -24.1175   25.4417 C   0  0  1  0  0  0  0  0  0  0  0  0
  -28.4367  -18.1565   20.3558 C   0  0  2  0  0  0  0  0  0  0  0  0
  -22.0667  -14.3686   18.7587 C   0  0  0  0  0  0  0  0  0  0  0  0
  -29.0151  -23.8066   28.5165 C   0  0  0  0  0  0  0  0  0  0  0  0
  -25.6699  -25.1668   22.9640 C   0  0  0  0  0  0  0  0  0  0  0  0
  -27.8618  -24.7534   24.1012 C   0  0  0  0  0  0  0  0  0  0  0  0
  -26.4472  -26.6894   24.7894 C   0  0  0  0  0  0  0  0  0  0  0  0
  -26.0693  -14.4638   17.1060 C   0  0  0  0  0  0  0  0  0  0  0  0
  -25.8740  -22.1503   29.8824 C   0  0  0  0  0  0  0  0  0  0  0  0
  -25.8413  -15.1766   19.4567 C   0  0  0  0  0  0  0  0  0  0  0  0
  -22.7418  -16.3144   22.6367 C   0  0  0  0  0  0  0  0  0  0  0  0
  -21.9833  -14.6624   20.2179 C   0  0  0  0  0  0  0  0  0  0  0  0
  -23.6579  -16.0526   21.4474 C   0  0  0  0  0  0  0  0  0  0  0  0
  -23.0865  -17.5985   23.3819 C   0  0  0  0  0  0  0  0  0  1  0  0
  -25.7290  -24.3464   25.4114 C   0  0  1  0  0  0  0  0  0  0  0  0
  -27.5182  -23.5830   28.6649 C   0  0  2  0  0  0  0  0  0  0  0  0
  -26.4062  -25.2195   24.3175 C   0  0  0  0  0  0  0  0  0  0  0  0
  -29.1365  -20.4994   20.0340 N   0  0  0  0  0  0  0  0  0  0  0  0
  -28.1235  -19.6343   20.2115 N   0  0  0  0  0  0  0  0  0  0  0  0
  -23.3284  -23.7457   25.4218 N   0  0  0  0  0  0  0  0  0  0  0  0
  -28.7102  -16.0025   19.1513 N   0  0  0  0  0  0  0  0  0  0  0  0
  -25.7669  -19.5000   20.4096 N   0  0  0  0  0  0  0  0  0  0  0  0
  -26.5153  -23.9182   19.8477 N   0  0  0  0  0  0  0  0  0  0  0  0
  -20.5507  -25.3728   23.8834 N   0  0  0  0  0  0  0  0  0  0  0  0
  -26.3893  -24.3985   26.7112 N   0  0  0  0  0  0  0  0  0  0  0  0
  -23.3170  -14.8064   20.8048 N   0  0  3  0  0  0  0  0  0  0  0  0
  -26.7173  -14.9784   18.3040 N   0  0  0  0  0  0  0  0  0  0  0  0
  -27.3031  -22.4633   29.6245 N   0  3  0  0  0  0  0  0  0  0  0  0
  -24.8921  -22.3311   20.1717 O   0  0  0  0  0  0  0  0  0  0  0  0
  -22.0331  -23.7510   23.1123 O   0  0  0  0  0  0  0  0  0  0  0  0
  -24.0324  -25.8815   26.0372 O   0  0  0  0  0  0  0  0  0  0  0  0
  -26.8061  -22.1234   26.8761 O   0  0  0  0  0  0  0  0  0  0  0  0
  -28.8041  -14.1578   17.7706 O   0  0  0  0  0  0  0  0  0  0  0  0
  -31.4785  -26.3591   19.1809 O   0  0  0  0  0  0  0  0  0  0  0  0
  -22.1678  -17.7638   24.4613 O   0  0  0  0  0  0  0  0  0  1  0  0
  -30.1903  -30.7425   22.2681 F   0  0  0  0  0  0  0  0  0  0  0  0
  -28.9515  -27.4753   19.0750 F   0  0  0  0  0  0  0  0  0  0  0  0
  -27.1117  -10.2769   20.5890 Cl  0  0  0  0  0  0  0  0  0  0  0  0
  1  2  1  0  0  0  0
  1  5  2  0  0  0  0
  2  6  2  0  0  0  0
  3  9  2  0  0  0  0
  3 18  1  0  0  0  0
  4 10  1  0  0  0  0
  4 18  2  0  0  0  0
  5 20  1  0  0  0  0
  6 22  1  0  0  0  0
  7 11  2  0  0  0  0
  7 21  1  0  0  0  0
  8 14  2  0  0  0  0
  8 25  1  0  0  0  0
  9 26  1  0  0  0  0
 10 26  2  0  0  0  0
 11 27  1  0  0  0  0
 12 13  2  0  0  0  0
 12 28  1  0  0  0  0
 13 29  1  0  0  0  0
 14 31  1  0  0  0  0
 15 23  1  0  0  0  0
 15 27  2  0  0  0  0
 16 24  1  0  0  0  0
 16 31  2  0  0  0  0
 17 29  2  0  0  0  0
 17 30  1  0  0  0  0
 18 32  1  0  0  0  0
 19 32  1  0  0  0  0
 19 33  2  0  0  0  0
 19 34  1  0  0  0  0
 20 22  2  0  0  0  0
 20 39  1  0  0  0  0
 21 23  2  0  0  0  0
 21 40  1  0  0  0  0
 22 48  1  0  0  0  0
 23 41  1  0  0  0  0
 24 25  2  0  0  0  0
 24 58  1  0  0  0  0
 25 74  1  0  0  0  0
 26 82  1  0  0  0  0
 27 83  1  0  0  0  0
 28 30  2  0  0  0  0
 28 82  1  0  0  0  0
 29 84  1  0  0  0  0
 30 85  1  0  0  0  0
 31 86  1  0  0  0  0
 32 66  2  0  0  0  0
 33 67  1  0  0  0  0
 33 70  1  0  0  0  0
 34 71  1  0  0  0  0
 34 77  2  0  0  0  0
 35 49  1  0  0  0  0
 35 72  1  0  0  0  0
 35 78  2  0  0  0  0
 36 63  1  0  0  0  0
 36 68  1  0  0  0  0
 36 79  2  0  0  0  0
 37 64  1  0  0  0  0
 37 73  1  0  0  0  0
 37 80  2  0  0  0  0
 38 69  1  0  0  0  0
 38 75  1  0  0  0  0
 38 81  2  0  0  0  0
 39 42  1  0  0  0  0
 40 49  1  0  0  0  0
 41 68  1  0  0  0  0
 42 44  1  0  0  0  0
 43 45  1  0  0  0  0
 43 46  1  0  0  0  0
 44 48  1  0  0  0  0
 45 50  1  0  0  0  0
 46 69  1  0  0  0  0
 47 50  1  0  0  0  0
 47 69  1  0  0  0  0
 48 72  1  0  0  0  0
 49 68  1  0  0  0  0
 50 67  1  0  0  0  0
 51 60  1  0  0  0  0
 52 64  1  0  0  0  0
 53 65  1  0  0  0  0
 54 65  1  0  0  0  0
 55 65  1  0  0  0  0
 56 75  1  0  0  0  0
 57 76  1  0  0  0  0
 58 75  1  0  0  0  0
 59 61  1  0  0  0  0
 59 62  1  0  0  0  0
 60 74  1  0  0  0  0
 61 74  1  0  0  0  0
 62 83  1  0  0  0  0
 63 65  1  0  0  0  0
 63 73  1  0  0  0  0
 64 76  1  0  0  0  0
 66 67  1  0  0  0  0
M  CHG  1  76   1
M  ISO  4  38 100  62 101  75 100  83 101
M  END
> <Batch ID>
0019

> <Smiles>
CCN(CC[101CH2:1][101O:1]c1ccc2c(c1)CN(C(=O)C(NC(=O)C(C)NC)C(C)(C)C)C(C(=O)NC1CCCc3ccccc31)C2)c1ccc(Cl)cc1C[100N:0](C)[100C:0](=O)N1CCCC(n2nc(-c3ccc(Oc4ccc(F)cc4F)cc3)c(C(N)=O)c2N)C1

> <Shape>
0.210

> <Color>
0.058

> <Negative vol penalty>
0.000

$$$$

  -OEChem-04042321053D

 85 93  0     1  0  0  0  0  0999 V2000
  -17.2958  -12.7928   21.0469 C   0  0  0  0  0  0  0  0  0  0  0  0
  -17.9616  -13.9836   21.3193 C   0  0  0  0  0  0  0  0  0  0  0  0
  -28.3817  -25.6417   19.3161 C   0  0  0  0  0  0  0  0  0  0  0  0
  -26.6178  -24.4421   20.4504 C   0  0  0  0  0  0  0  0  0  0  0  0
  -17.9024  -11.5729   21.3428 C   0  0  0  0  0  0  0  0  0  0  0  0
  -19.2341  -13.9551   21.8889 C   0  0  0  0  0  0  0  0  0  0  0  0
  -23.8323  -17.8576   20.8248 C   0  0  0  0  0  0  0  0  0  0  0  0
  -22.8005  -26.5056   26.5012 C   0  0  0  0  0  0  0  0  0  0  0  0
  -29.1183  -24.4617   19.2136 C   0  0  0  0  0  0  0  0  0  0  0  0
  -27.3544  -23.2620   20.3479 C   0  0  0  0  0  0  0  0  0  0  0  0
  -24.2978  -18.9714   21.5224 C   0  0  0  0  0  0  0  0  0  0  0  0
  -23.0792  -25.1464   26.3586 C   0  0  0  0  0  0  0  0  0  0  0  0
  -28.0220  -20.9420   17.9830 C   0  0  0  0  0  0  0  0  0  0  0  0
  -27.3465  -19.7915   17.5759 C   0  0  0  0  0  0  0  0  0  0  0  0
  -25.9580  -17.5938   22.6018 C   0  0  0  0  0  0  0  0  0  0  0  0
  -25.1584  -26.9614   26.7651 C   0  0  0  0  0  0  0  0  0  0  0  0
  -27.9341  -18.7108   19.6554 C   0  0  0  0  0  0  0  0  0  0  0  0
  -27.1314  -25.6319   19.9346 C   0  0  0  0  0  0  0  0  0  0  0  0
  -25.4345  -27.3522   19.1169 C   0  0  0  0  0  0  0  0  0  0  0  0
  -19.1869  -11.5292   21.9074 C   0  0  0  0  0  0  0  0  0  0  0  0
  -24.4200  -16.5994   21.0189 C   0  0  0  0  0  0  0  0  0  0  0  0
  -19.8579  -12.7334   22.1939 C   0  0  0  0  0  0  0  0  0  0  0  0
  -25.4998  -16.4662   21.9035 C   0  0  0  0  0  0  0  0  0  0  0  0
  -23.8402  -27.4132   26.7044 C   0  0  0  0  0  0  0  0  0  0  0  0
  -28.6047  -23.2718   19.7294 C   0  0  0  0  0  0  0  0  0  0  0  0
  -25.3589  -18.8390   22.4132 C   0  0  0  0  0  0  0  0  0  0  0  0
  -28.6536  -20.9769   19.2263 C   0  0  0  0  0  0  0  0  0  0  0  0
  -24.3975  -24.6946   26.4193 C   0  0  0  0  0  0  0  0  0  0  0  0
  -27.3025  -18.6759   18.4121 C   0  0  0  0  0  0  0  0  0  0  0  0
  -25.4371  -25.6021   26.6225 C   0  0  0  0  0  0  0  0  0  0  0  0
  -28.6096  -19.8613   20.0624 C   0  0  0  0  0  0  0  0  0  0  0  0
  -26.3703  -26.8507   20.0414 C   0  0  0  0  0  0  0  0  0  0  0  0
  -24.9945  -28.5268   19.6767 C   0  0  0  0  0  0  0  0  0  0  0  0
  -25.0016  -26.8053   17.8643 C   0  0  0  0  0  0  0  0  0  0  0  0
  -23.3978  -13.7877   22.0927 C   0  0  0  0  0  0  0  0  0  0  0  0
  -26.3556  -12.8071   21.1915 C   0  0  0  0  0  0  0  0  0  0  0  0
  -29.6055  -13.6220   20.5427 C   0  0  0  0  0  0  0  0  0  0  0  0
  -25.1354  -30.2274   25.5611 C   0  0  0  0  0  0  0  0  0  0  0  0
  -19.7825  -10.1875   22.2536 C   0  0  0  0  0  0  0  0  0  0  0  0
  -23.9237  -15.4131   20.2387 C   0  0  0  0  0  0  0  0  0  0  0  0
  -26.1786  -15.1413   22.1324 C   0  0  0  0  0  0  0  0  0  0  0  0
  -21.2865  -10.2367   22.5103 C   0  0  0  0  0  0  0  0  0  0  0  0
  -26.3825  -32.0504   22.5909 C   0  0  0  0  0  0  0  0  0  0  0  0
  -21.6334  -11.4038   23.4291 C   0  0  0  0  0  0  0  0  0  0  0  0
  -26.5058  -30.9417   21.5470 C   0  0  0  0  0  0  0  0  0  0  0  0
  -26.5573  -31.5161   24.0092 C   0  0  0  0  0  0  0  0  0  0  0  0
  -25.7662  -29.2826   23.3023 C   0  0  0  0  0  0  0  0  0  0  0  0
  -21.2494  -12.7432   22.7886 C   0  0  1  0  0  0  0  0  0  0  0  0
  -24.2619  -14.0799   20.8987 C   0  0  1  0  0  0  0  0  0  0  0  0
  -25.5488  -29.7798   21.8653 C   0  0  2  0  0  0  0  0  0  0  0  0
  -21.9031  -31.0752   25.3347 C   0  0  0  0  0  0  0  0  0  0  0  0
  -31.7946  -12.6004   19.8633 C   0  0  0  0  0  0  0  0  0  0  0  0
  -26.7106  -11.6981   24.0118 C   0  0  0  0  0  0  0  0  0  0  0  0
  -29.1720  -11.5633   23.5738 C   0  0  0  0  0  0  0  0  0  0  0  0
  -27.5859  -10.2220   22.1926 C   0  0  0  0  0  0  0  0  0  0  0  0
  -29.7342  -15.2537   18.0770 C   0  0  0  0  0  0  0  0  0  0  0  0
  -23.5410  -28.8658   26.8588 C   0  0  0  0  0  0  0  0  0  0  0  0
  -25.2436  -21.6326   24.7013 C   0  0  0  0  0  0  0  0  0  0  0  0
  -22.7438  -29.9401   24.7861 C   0  0  0  0  0  0  0  0  0  0  0  0
  -24.8667  -20.9474   23.3971 C   0  0  0  0  0  0  0  0  0  1  0  0
  -24.2737  -22.7478   25.0590 C   0  0  0  0  0  0  0  0  0  0  0  0
  -27.7055  -12.7257   21.8623 C   0  0  1  0  0  0  0  0  0  0  0  0
  -30.5188  -13.2734   19.3814 C   0  0  2  0  0  0  0  0  0  0  0  0
  -27.7797  -11.5770   22.9075 C   0  0  0  0  0  0  0  0  0  0  0  0
  -26.5170  -27.6419   21.1074 N   0  0  0  0  0  0  0  0  0  0  0  0
  -25.6675  -28.6526   20.8563 N   0  0  0  0  0  0  0  0  0  0  0  0
  -25.6529  -14.0098   21.3508 N   0  0  0  0  0  0  0  0  0  0  0  0
  -25.6666  -30.3850   24.2705 N   0  0  0  0  0  0  0  0  0  0  0  0
  -24.1015  -29.4539   19.2701 N   0  0  0  0  0  0  0  0  0  0  0  0
  -25.5553  -25.5901   17.4388 N   0  0  0  0  0  0  0  0  0  0  0  0
  -22.2247  -13.1235   21.7893 N   0  0  0  0  0  0  0  0  0  0  0  0
  -28.6888  -12.6219   20.7896 N   0  0  0  0  0  0  0  0  0  0  0  0
  -23.8703  -29.6291   25.6634 N   0  0  0  0  0  0  0  0  0  0  0  0
  -30.8922  -14.5041   18.6285 N   0  3  0  0  0  0  0  0  0  0  0  0
  -24.1610  -27.3854   17.1360 O   0  0  0  0  0  0  0  0  0  0  0  0
  -23.7687  -14.1376   23.2071 O   0  0  0  0  0  0  0  0  0  0  0  0
  -25.9430  -11.8417   20.5438 O   0  0  0  0  0  0  0  0  0  0  0  0
  -29.6985  -14.6744   21.1707 O   0  0  0  0  0  0  0  0  0  0  0  0
  -25.7523  -30.6088   26.5641 O   0  0  0  0  0  0  0  0  0  0  0  0
  -29.3231  -22.1201   19.6293 O   0  0  0  0  0  0  0  0  0  0  0  0
  -25.8148  -19.9243   23.0960 O   0  0  0  0  0  0  0  0  0  1  0  0
  -24.6698  -23.3586   26.2796 O   0  0  0  0  0  0  0  0  0  0  0  0
  -26.6526  -17.5717   18.0217 F   0  0  0  0  0  0  0  0  0  0  0  0
  -26.7056  -25.1741   26.6820 F   0  0  0  0  0  0  0  0  0  0  0  0
  -29.2134  -19.8893   21.2584 F   0  0  0  0  0  0  0  0  0  0  0  0
  1  2  1  0  0  0  0
  1  5  2  0  0  0  0
  2  6  2  0  0  0  0
  3  9  2  0  0  0  0
  3 18  1  0  0  0  0
  4 10  1  0  0  0  0
  4 18  2  0  0  0  0
  5 20  1  0  0  0  0
  6 22  1  0  0  0  0
  7 11  2  0  0  0  0
  7 21  1  0  0  0  0
  8 12  2  0  0  0  0
  8 24  1  0  0  0  0
  9 25  1  0  0  0  0
 10 25  2  0  0  0  0
 11 26  1  0  0  0  0
 12 28  1  0  0  0  0
 13 14  2  0  0  0  0
 13 27  1  0  0  0  0
 14 29  1  0  0  0  0
 15 23  1  0  0  0  0
 15 26  2  0  0  0  0
 16 24  2  0  0  0  0
 16 30  1  0  0  0  0
 17 29  2  0  0  0  0
 17 31  1  0  0  0  0
 18 32  1  0  0  0  0
 19 32  1  0  0  0  0
 19 33  2  0  0  0  0
 19 34  1  0  0  0  0
 20 22  2  0  0  0  0
 20 39  1  0  0  0  0
 21 23  2  0  0  0  0
 21 40  1  0  0  0  0
 22 48  1  0  0  0  0
 23 41  1  0  0  0  0
 24 57  1  0  0  0  0
 25 80  1  0  0  0  0
 26 81  1  0  0  0  0
 27 31  2  0  0  0  0
 27 80  1  0  0  0  0
 28 30  2  0  0  0  0
 28 82  1  0  0  0  0
 29 83  1  0  0  0  0
 30 84  1  0  0  0  0
 31 85  1  0  0  0  0
 32 65  2  0  0  0  0
 33 66  1  0  0  0  0
 33 69  1  0  0  0  0
 34 70  1  0  0  0  0
 34 75  2  0  0  0  0
 35 49  1  0  0  0  0
 35 71  1  0  0  0  0
 35 76  2  0  0  0  0
 36 62  1  0  0  0  0
 36 67  1  0  0  0  0
 36 77  2  0  0  0  0
 37 63  1  0  0  0  0
 37 72  1  0  0  0  0
 37 78  2  0  0  0  0
 38 68  1  0  0  0  0
 38 73  1  0  0  0  0
 38 79  2  0  0  0  0
 39 42  1  0  0  0  0
 40 49  1  0  0  0  0
 41 67  1  0  0  0  0
 42 44  1  0  0  0  0
 43 45  1  0  0  0  0
 43 46  1  0  0  0  0
 44 48  1  0  0  0  0
 45 50  1  0  0  0  0
 46 68  1  0  0  0  0
 47 50  1  0  0  0  0
 47 68  1  0  0  0  0
 48 71  1  0  0  0  0
 49 67  1  0  0  0  0
 50 66  1  0  0  0  0
 51 59  1  0  0  0  0
 52 63  1  0  0  0  0
 53 64  1  0  0  0  0
 54 64  1  0  0  0  0
 55 64  1  0  0  0  0
 56 74  1  0  0  0  0
 57 73  1  0  0  0  0
 58 60  1  0  0  0  0
 58 61  1  0  0  0  0
 59 73  1  0  0  0  0
 60 81  1  0  0  0  0
 61 82  1  0  0  0  0
 62 64  1  0  0  0  0
 62 72  1  0  0  0  0
 63 74  1  0  0  0  0
 65 66  1  0  0  0  0
M  CHG  1  74   1
M  ISO  4  38 100  60 101  73 100  81 101
M  END
> <Batch ID>
0019

> <Smiles>
CC[100N:0](Cc1ccc(OCC[101CH2:1][101O:1]c2ccc3c(c2)CN(C(=O)C(NC(=O)C(C)NC)C(C)(C)C)C(C(=O)NC2CCCc4ccccc42)C3)c(F)c1)[100C:0](=O)N1CCCC(n2nc(-c3ccc(Oc4ccc(F)cc4F)cc3)c(C(N)=O)c2N)C1

> <Shape>
0.215

> <Color>
0.056

> <Negative vol penalty>
0.000

$$$$

  -OEChem-04042321053D

 90 99  0     1  0  0  0  0  0999 V2000
  -18.5430  -29.7770   29.0418 C   0  0  0  0  0  0  0  0  0  0  0  0
  -19.6281  -29.0117   29.4570 C   0  0  0  0  0  0  0  0  0  0  0  0
  -23.1813   -9.7523   19.9884 C   0  0  0  0  0  0  0  0  0  0  0  0
  -23.7618   -9.9783   22.3228 C   0  0  0  0  0  0  0  0  0  0  0  0
  -17.7324  -29.3277   28.0002 C   0  0  0  0  0  0  0  0  0  0  0  0
  -19.9025  -27.7960   28.8315 C   0  0  0  0  0  0  0  0  0  0  0  0
  -25.3934  -23.5819   26.9855 C   0  0  0  0  0  0  0  0  0  0  0  0
  -28.0717  -19.7128   23.1401 C   0  0  0  0  0  0  0  0  0  0  0  0
  -27.6062  -20.2325   21.9282 C   0  0  0  0  0  0  0  0  0  0  0  0
  -22.4450   -8.6048   20.2826 C   0  0  0  0  0  0  0  0  0  0  0  0
  -23.0254   -8.8309   22.6170 C   0  0  0  0  0  0  0  0  0  0  0  0
  -25.8287  -22.2633   27.1106 C   0  0  0  0  0  0  0  0  0  0  0  0
  -21.0015   -6.1653   24.0372 C   0  0  0  0  0  0  0  0  0  0  0  0
  -20.1583   -6.2020   25.1476 C   0  0  0  0  0  0  0  0  0  0  0  0
  -29.0707  -18.7520   20.7372 C   0  0  0  0  0  0  0  0  0  0  0  0
  -24.4067  -21.6254   25.2694 C   0  0  0  0  0  0  0  0  0  0  0  0
  -18.9332   -8.0335   24.1568 C   0  0  0  0  0  0  0  0  0  0  0  0
  -23.8398  -10.4391   21.0085 C   0  0  0  0  0  0  0  0  0  0  0  0
  -24.1365  -12.9529   20.6922 C   0  0  0  0  0  0  0  0  0  0  0  0
  -18.0028  -28.1105   27.3551 C   0  0  0  0  0  0  0  0  0  0  0  0
  -24.4517  -23.9307   26.0067 C   0  0  0  0  0  0  0  0  0  0  0  0
  -19.0940  -27.3294   27.7811 C   0  0  0  0  0  0  0  0  0  0  0  0
  -29.5488  -18.2266   21.9528 C   0  0  0  0  0  0  0  0  0  0  0  0
  -23.9630  -22.9496   25.1322 C   0  0  0  0  0  0  0  0  0  0  0  0
  -29.0460  -18.6952   23.1916 C   0  0  0  0  0  0  0  0  0  0  0  0
  -28.1045  -19.7511   20.7262 C   0  0  0  0  0  0  0  0  0  0  0  0
  -22.3669   -8.1441   21.5969 C   0  0  0  0  0  0  0  0  0  0  0  0
  -25.3331  -21.2843   26.2545 C   0  0  0  0  0  0  0  0  0  0  0  0
  -20.8107   -7.0628   22.9865 C   0  0  0  0  0  0  0  0  0  0  0  0
  -19.1241   -7.1360   25.2075 C   0  0  0  0  0  0  0  0  0  0  0  0
  -19.7765   -7.9969   23.0464 C   0  0  0  0  0  0  0  0  0  0  0  0
  -24.6012  -11.6242   20.7051 C   0  0  0  0  0  0  0  0  0  0  0  0
  -25.2373  -13.6983   20.3472 C   0  0  0  0  0  0  0  0  0  0  0  0
  -22.8269  -13.4675   20.9676 C   0  0  0  0  0  0  0  0  0  0  0  0
  -21.5088  -25.1310   26.0522 C   0  0  0  0  0  0  0  0  0  0  0  0
  -21.9149  -25.2206   22.8352 C   0  0  0  0  0  0  0  0  0  0  0  0
  -23.5168  -23.9956   20.0820 C   0  0  0  0  0  0  0  0  0  0  0  0
  -30.6675  -14.8818   20.8556 C   0  0  0  0  0  0  0  0  0  0  0  0
  -17.0704  -27.6436   26.2655 C   0  0  0  0  0  0  0  0  0  0  0  0
  -24.0124  -25.3624   25.8673 C   0  0  0  0  0  0  0  0  0  0  0  0
  -22.9659  -23.2761   24.0516 C   0  0  0  0  0  0  0  0  0  0  0  0
  -17.6507  -26.5236   25.4057 C   0  0  0  0  0  0  0  0  0  0  0  0
  -29.7679  -12.2695   18.6098 C   0  0  0  0  0  0  0  0  0  0  0  0
  -18.2795  -25.4471   26.2847 C   0  0  0  0  0  0  0  0  0  0  0  0
  -28.3079  -11.9744   18.9580 C   0  0  0  0  0  0  0  0  0  0  0  0
  -31.3541  -17.0450   23.2190 C   0  0  0  0  0  0  0  0  0  0  0  0
  -30.5849  -12.6185   19.8519 C   0  0  0  0  0  0  0  0  0  0  0  0
  -30.3941  -17.0108   24.3999 C   0  0  0  0  0  0  0  0  0  0  0  0
  -28.5668  -13.4134   21.0221 C   0  0  0  0  0  0  0  0  0  0  0  0
  -19.4388  -26.0171   27.1109 C   0  0  1  0  0  0  0  0  0  0  0  0
  -30.5923  -17.1321   21.8994 C   0  0  1  0  0  0  0  0  0  0  0  0
  -22.6641  -25.5084   25.1687 C   0  0  1  0  0  0  0  0  0  0  0  0
  -27.6903  -13.1108   19.7948 C   0  0  2  0  0  0  0  0  0  0  0  0
  -29.1659  -21.9807   18.7157 C   0  0  0  0  0  0  0  0  0  0  0  0
  -25.5821  -19.1387   18.8817 C   0  0  0  0  0  0  0  0  0  0  0  0
  -24.2014  -23.8148   17.6745 C   0  0  0  0  0  0  0  0  0  0  0  0
  -19.3074  -23.6555   22.5881 C   0  0  0  0  0  0  0  0  0  0  0  0
  -19.9366  -23.1155   20.2257 C   0  0  0  0  0  0  0  0  0  0  0  0
  -19.5868  -25.4887   20.9101 C   0  0  0  0  0  0  0  0  0  0  0  0
  -25.7388  -25.9158   20.4490 C   0  0  0  0  0  0  0  0  0  0  0  0
  -27.6713  -17.8062   25.9764 C   0  0  0  0  0  0  0  0  0  0  0  0
  -27.0584  -18.1782   27.3273 C   0  0  0  0  0  0  0  0  0  0  0  0
  -28.9428  -18.5941   25.6721 C   0  0  0  0  0  0  0  0  0  0  0  0
  -27.7874  -21.6806   19.1976 C   0  0  0  0  0  0  0  0  0  0  0  0
  -27.0062  -19.4025   18.5279 C   0  0  0  0  0  0  0  0  0  0  0  0
  -26.7214  -19.6622   27.3992 C   0  0  0  0  0  0  0  0  0  1  0  0
  -21.6533  -24.2634   21.6975 C   0  0  1  0  0  0  0  0  0  0  0  0
  -24.1917  -24.6940   18.9153 C   0  0  2  0  0  0  0  0  0  0  0  0
  -20.1383  -24.1239   21.3768 C   0  0  0  0  0  0  0  0  0  0  0  0
  -25.8963  -11.5277   20.3929 N   0  0  0  0  0  0  0  0  0  0  0  0
  -26.2548  -12.8054   20.1805 N   0  0  0  0  0  0  0  0  0  0  0  0
  -29.5197  -18.1822   24.3996 N   0  0  3  0  0  0  0  0  0  0  0  0
  -22.5623  -24.6889   23.9594 N   0  0  0  0  0  0  0  0  0  0  0  0
  -29.9460  -13.7040   20.6000 N   0  0  0  0  0  0  0  0  0  0  0  0
  -25.4246  -15.0238   20.1730 N   0  0  0  0  0  0  0  0  0  0  0  0
  -21.8114  -12.5631   21.3069 N   0  0  0  0  0  0  0  0  0  0  0  0
  -20.6211  -26.1632   26.2892 N   0  0  0  0  0  0  0  0  0  0  0  0
  -22.4608  -24.7316   20.5762 N   0  0  0  0  0  0  0  0  0  0  0  0
  -29.9857  -15.8628   21.5651 N   0  0  0  0  0  0  0  0  0  0  0  0
  -27.6353  -20.2714   19.5036 N   0  0  0  0  0  0  0  0  0  0  0  0
  -25.6007  -25.0353   19.2605 N   0  3  0  0  0  0  0  0  0  0  0  0
  -22.5610  -14.6914   20.8983 O   0  0  0  0  0  0  0  0  0  0  0  0
  -21.4279  -23.9876   26.4855 O   0  0  0  0  0  0  0  0  0  0  0  0
  -21.5644  -26.3984   22.7273 O   0  0  0  0  0  0  0  0  0  0  0  0
  -23.8870  -22.9044   20.5095 O   0  0  0  0  0  0  0  0  0  0  0  0
  -31.8311  -15.0489   20.4747 O   0  0  0  0  0  0  0  0  0  0  0  0
  -21.6482   -7.0246   21.8844 O   0  0  0  0  0  0  0  0  0  0  0  0
  -25.7558  -19.9964   26.3749 O   0  0  0  0  0  0  0  0  0  1  0  0
  -18.3135   -7.1701   26.2732 F   0  0  0  0  0  0  0  0  0  0  0  0
  -19.5875   -8.8608   22.0396 F   0  0  0  0  0  0  0  0  0  0  0  0
  1  2  1  0  0  0  0
  1  5  2  0  0  0  0
  2  6  2  0  0  0  0
  3 10  2  0  0  0  0
  3 18  1  0  0  0  0
  4 11  1  0  0  0  0
  4 18  2  0  0  0  0
  5 20  1  0  0  0  0
  6 22  1  0  0  0  0
  7 12  2  0  0  0  0
  7 21  1  0  0  0  0
  8  9  2  0  0  0  0
  8 25  1  0  0  0  0
  9 26  1  0  0  0  0
 10 27  1  0  0  0  0
 11 27  2  0  0  0  0
 12 28  1  0  0  0  0
 13 14  2  0  0  0  0
 13 29  1  0  0  0  0
 14 30  1  0  0  0  0
 15 23  1  0  0  0  0
 15 26  2  0  0  0  0
 16 24  1  0  0  0  0
 16 28  2  0  0  0  0
 17 30  2  0  0  0  0
 17 31  1  0  0  0  0
 18 32  1  0  0  0  0
 19 32  1  0  0  0  0
 19 33  2  0  0  0  0
 19 34  1  0  0  0  0
 20 22  2  0  0  0  0
 20 39  1  0  0  0  0
 21 24  2  0  0  0  0
 21 40  1  0  0  0  0
 22 50  1  0  0  0  0
 23 25  2  0  0  0  0
 23 51  1  0  0  0  0
 24 41  1  0  0  0  0
 25 72  1  0  0  0  0
 26 80  1  0  0  0  0
 27 87  1  0  0  0  0
 28 88  1  0  0  0  0
 29 31  2  0  0  0  0
 29 87  1  0  0  0  0
 30 89  1  0  0  0  0
 31 90  1  0  0  0  0
 32 70  2  0  0  0  0
 33 71  1  0  0  0  0
 33 75  1  0  0  0  0
 34 76  1  0  0  0  0
 34 82  2  0  0  0  0
 35 52  1  0  0  0  0
 35 77  1  0  0  0  0
 35 83  2  0  0  0  0
 36 67  1  0  0  0  0
 36 73  1  0  0  0  0
 36 84  2  0  0  0  0
 37 68  1  0  0  0  0
 37 78  1  0  0  0  0
 37 85  2  0  0  0  0
 38 74  1  0  0  0  0
 38 79  1  0  0  0  0
 38 86  2  0  0  0  0
 39 42  1  0  0  0  0
 40 52  1  0  0  0  0
 41 73  1  0  0  0  0
 42 44  1  0  0  0  0
 43 45  1  0  0  0  0
 43 47  1  0  0  0  0
 44 50  1  0  0  0  0
 45 53  1  0  0  0  0
 46 48  1  0  0  0  0
 46 51  1  0  0  0  0
 47 74  1  0  0  0  0
 48 72  1  0  0  0  0
 49 53  1  0  0  0  0
 49 74  1  0  0  0  0
 50 77  1  0  0  0  0
 51 79  1  0  0  0  0
 52 73  1  0  0  0  0
 53 71  1  0  0  0  0
 54 64  1  0  0  0  0
 55 65  1  0  0  0  0
 56 68  1  0  0  0  0
 57 69  1  0  0  0  0
 58 69  1  0  0  0  0
 59 69  1  0  0  0  0
 60 81  1  0  0  0  0
 61 62  1  0  0  0  0
 61 63  1  0  0  0  0
 62 66  1  0  0  0  0
 63 72  1  0  0  0  0
 64 80  1  0  0  0  0
 65 80  1  0  0  0  0
 66 88  1  0  0  0  0
 67 69  1  0  0  0  0
 67 78  1  0  0  0  0
 68 81  1  0  0  0  0
 70 71  1  0  0  0  0
M  CHG  1  81   1
M  ISO  4  38 100  66 101  79 100  88 101
M  END
> <Batch ID>
0019

> <Smiles>
CCN(CC)c1ccc2c(c1)C([100NH:0][100C:0](=O)N1CCCC(n3nc(-c4ccc(Oc5ccc(F)cc5F)cc4)c(C(N)=O)c3N)C1)CCN2CCC[101CH2:1][101O:1]c1ccc2c(c1)CN(C(=O)C(NC(=O)C(C)NC)C(C)(C)C)C(C(=O)NC1CCCc3ccccc31)C2

> <Shape>
0.207

> <Color>
0.186

> <Negative vol penalty>
0.000

$$$$

  -OEChem-04042321053D

 80 88  0     1  0  0  0  0  0999 V2000
  -27.9887  -33.8493   22.8630 C   0  0  0  0  0  0  0  0  0  0  0  0
  -28.7962  -32.7380   23.0832 C   0  0  0  0  0  0  0  0  0  0  0  0
  -22.9922   -9.8110   20.0411 C   0  0  0  0  0  0  0  0  0  0  0  0
  -23.6562  -10.0076   22.3557 C   0  0  0  0  0  0  0  0  0  0  0  0
  -26.7640  -33.7018   22.2132 C   0  0  0  0  0  0  0  0  0  0  0  0
  -28.3789  -31.4784   22.6547 C   0  0  0  0  0  0  0  0  0  0  0  0
  -30.9751  -25.2930   20.1412 C   0  0  0  0  0  0  0  0  0  0  0  0
  -31.3848  -18.9104   20.2497 C   0  0  0  0  0  0  0  0  0  0  0  0
  -31.1876  -17.5339   20.3584 C   0  0  0  0  0  0  0  0  0  0  0  0
  -22.2158   -8.6965   20.3584 C   0  0  0  0  0  0  0  0  0  0  0  0
  -22.8798   -8.8931   22.6731 C   0  0  0  0  0  0  0  0  0  0  0  0
  -30.9198  -23.9220   20.3884 C   0  0  0  0  0  0  0  0  0  0  0  0
  -23.1275   -5.5307   22.4208 C   0  0  0  0  0  0  0  0  0  0  0  0
  -23.6921   -4.5628   23.2514 C   0  0  0  0  0  0  0  0  0  0  0  0
  -28.8207  -23.7996   19.2061 C   0  0  0  0  0  0  0  0  0  0  0  0
  -21.9251   -4.9134   24.8613 C   0  0  0  0  0  0  0  0  0  0  0  0
  -23.7124  -10.4665   21.0397 C   0  0  0  0  0  0  0  0  0  0  0  0
  -24.1091  -12.9655   20.7146 C   0  0  0  0  0  0  0  0  0  0  0  0
  -26.3358  -32.4412   21.7679 C   0  0  0  0  0  0  0  0  0  0  0  0
  -29.9464  -25.9306   19.4329 C   0  0  0  0  0  0  0  0  0  0  0  0
  -27.1466  -31.3137   21.9995 C   0  0  0  0  0  0  0  0  0  0  0  0
  -28.8665  -25.1783   18.9491 C   0  0  0  0  0  0  0  0  0  0  0  0
  -30.6343  -19.7866   21.0337 C   0  0  0  0  0  0  0  0  0  0  0  0
  -29.6864  -19.2862   21.9264 C   0  0  0  0  0  0  0  0  0  0  0  0
  -30.2397  -17.0335   21.2510 C   0  0  0  0  0  0  0  0  0  0  0  0
  -22.1596   -8.2376   21.6744 C   0  0  0  0  0  0  0  0  0  0  0  0
  -29.8411  -23.1756   19.9233 C   0  0  0  0  0  0  0  0  0  0  0  0
  -21.9617   -6.1901   22.8105 C   0  0  0  0  0  0  0  0  0  0  0  0
  -23.0910   -4.2541   24.4716 C   0  0  0  0  0  0  0  0  0  0  0  0
  -21.3605   -5.8814   24.0308 C   0  0  0  0  0  0  0  0  0  0  0  0
  -29.4891  -17.9097   22.0350 C   0  0  0  0  0  0  0  0  0  0  0  0
  -24.5151  -11.6175   20.7124 C   0  0  0  0  0  0  0  0  0  0  0  0
  -25.2301  -13.6623   20.3347 C   0  0  0  0  0  0  0  0  0  0  0  0
  -22.8328  -13.5366   21.0318 C   0  0  0  0  0  0  0  0  0  0  0  0
  -27.8464  -28.2206   20.1032 C   0  0  0  0  0  0  0  0  0  0  0  0
  -27.1164  -27.9336   16.9556 C   0  0  0  0  0  0  0  0  0  0  0  0
  -27.1086  -25.9926   14.1486 C   0  0  0  0  0  0  0  0  0  0  0  0
  -30.7040  -14.6308   20.6530 C   0  0  0  0  0  0  0  0  0  0  0  0
  -24.9826  -32.3240   21.1123 C   0  0  0  0  0  0  0  0  0  0  0  0
  -30.0340  -27.4055   19.1515 C   0  0  0  0  0  0  0  0  0  0  0  0
  -27.7465  -25.8115   18.1660 C   0  0  0  0  0  0  0  0  0  0  0  0
  -24.7835  -31.0129   20.3563 C   0  0  0  0  0  0  0  0  0  0  0  0
  -29.6411  -12.0361   18.4586 C   0  0  0  0  0  0  0  0  0  0  0  0
  -25.2442  -29.8321   21.2050 C   0  0  0  0  0  0  0  0  0  0  0  0
  -28.1794  -11.8068   18.8495 C   0  0  0  0  0  0  0  0  0  0  0  0
  -30.5099  -12.3550   19.6740 C   0  0  0  0  0  0  0  0  0  0  0  0
  -28.5620  -13.2290   20.9033 C   0  0  0  0  0  0  0  0  0  0  0  0
  -26.7399  -29.9347   21.5275 C   0  0  1  0  0  0  0  0  0  0  0  0
  -28.6771  -28.0407   18.8641 C   0  0  1  0  0  0  0  0  0  0  0  0
  -27.6357  -12.9685   19.7042 C   0  0  2  0  0  0  0  0  0  0  0  0
  -28.8734  -20.2085   22.7746 C   0  0  0  0  0  0  0  0  0  0  0  0
  -26.4124  -26.0183   11.7378 C   0  0  0  0  0  0  0  0  0  0  0  0
  -24.2082  -27.5470   17.7938 C   0  0  0  0  0  0  0  0  0  0  0  0
  -23.7403  -26.6497   15.5038 C   0  0  0  0  0  0  0  0  0  0  0  0
  -24.5302  -28.9993   15.7834 C   0  0  0  0  0  0  0  0  0  0  0  0
  -29.8911  -25.5987   13.2206 C   0  0  0  0  0  0  0  0  0  0  0  0
  -30.8644  -21.2632   20.8988 C   0  0  0  0  0  0  0  0  0  1  0  0
  -26.1507  -27.0944   16.1543 C   0  0  1  0  0  0  0  0  0  0  0  0
  -27.5409  -26.2821   12.7226 C   0  0  2  0  0  0  0  0  0  0  0  0
  -24.6773  -27.5607   16.3252 C   0  0  0  0  0  0  0  0  0  0  0  0
  -25.7941  -11.4648   20.3590 N   0  0  0  0  0  0  0  0  0  0  0  0
  -26.2014  -12.7258   20.1355 N   0  0  0  0  0  0  0  0  0  0  0  0
  -27.8747  -27.2578   17.9221 N   0  0  0  0  0  0  0  0  0  0  0  0
  -29.9356  -13.4680   20.4331 N   0  0  0  0  0  0  0  0  0  0  0  0
  -25.4697  -14.9786   20.1549 N   0  0  0  0  0  0  0  0  0  0  0  0
  -21.7899  -12.6771   21.4032 N   0  0  0  0  0  0  0  0  0  0  0  0
  -30.0417  -15.6346   21.3589 N   0  0  0  0  0  0  0  0  0  0  0  0
  -27.5320  -29.5367   20.3835 N   0  0  0  0  0  0  0  0  0  0  0  0
  -26.6305  -27.1231   14.7769 N   0  0  0  0  0  0  0  0  0  0  0  0
  -28.7010  -25.4245   12.3487 N   0  3  0  0  0  0  0  0  0  0  0  0
  -22.6189  -14.7712   20.9712 O   0  0  0  0  0  0  0  0  0  0  0  0
  -27.5140  -27.2381   20.7557 O   0  0  0  0  0  0  0  0  0  0  0  0
  -27.2002  -29.1429   16.7274 O   0  0  0  0  0  0  0  0  0  0  0  0
  -27.1837  -24.8745   14.6535 O   0  0  0  0  0  0  0  0  0  0  0  0
  -31.8547  -14.7394   20.2215 O   0  0  0  0  0  0  0  0  0  0  0  0
  -21.4019   -7.1502   21.9845 O   0  0  0  0  0  0  0  0  0  0  0  0
  -29.7844  -21.8373   20.1637 O   0  0  0  0  0  0  0  0  0  1  0  0
  -23.6324   -3.3234   25.2684 F   0  0  0  0  0  0  0  0  0  0  0  0
  -20.2398   -6.5106   24.4100 F   0  0  0  0  0  0  0  0  0  0  0  0
  -28.5770  -17.4294   22.8938 F   0  0  0  0  0  0  0  0  0  0  0  0
  1  2  1  0  0  0  0
  1  5  2  0  0  0  0
  2  6  2  0  0  0  0
  3 10  2  0  0  0  0
  3 17  1  0  0  0  0
  4 11  1  0  0  0  0
  4 17  2  0  0  0  0
  5 19  1  0  0  0  0
  6 21  1  0  0  0  0
  7 12  2  0  0  0  0
  7 20  1  0  0  0  0
  8  9  2  0  0  0  0
  8 23  1  0  0  0  0
  9 25  1  0  0  0  0
 10 26  1  0  0  0  0
 11 26  2  0  0  0  0
 12 27  1  0  0  0  0
 13 14  2  0  0  0  0
 13 28  1  0  0  0  0
 14 29  1  0  0  0  0
 15 22  1  0  0  0  0
 15 27  2  0  0  0  0
 16 29  2  0  0  0  0
 16 30  1  0  0  0  0
 17 32  1  0  0  0  0
 18 32  1  0  0  0  0
 18 33  2  0  0  0  0
 18 34  1  0  0  0  0
 19 21  2  0  0  0  0
 19 39  1  0  0  0  0
 20 22  2  0  0  0  0
 20 40  1  0  0  0  0
 21 48  1  0  0  0  0
 22 41  1  0  0  0  0
 23 24  2  0  0  0  0
 23 57  1  0  0  0  0
 24 31  1  0  0  0  0
 24 51  1  0  0  0  0
 25 31  2  0  0  0  0
 25 67  1  0  0  0  0
 26 76  1  0  0  0  0
 27 77  1  0  0  0  0
 28 30  2  0  0  0  0
 28 76  1  0  0  0  0
 29 78  1  0  0  0  0
 30 79  1  0  0  0  0
 31 80  1  0  0  0  0
 32 61  2  0  0  0  0
 33 62  1  0  0  0  0
 33 65  1  0  0  0  0
 34 66  1  0  0  0  0
 34 71  2  0  0  0  0
 35 49  1  0  0  0  0
 35 68  1  0  0  0  0
 35 72  2  0  0  0  0
 36 58  1  0  0  0  0
 36 63  1  0  0  0  0
 36 73  2  0  0  0  0
 37 59  1  0  0  0  0
 37 69  1  0  0  0  0
 37 74  2  0  0  0  0
 38 64  1  0  0  0  0
 38 67  1  0  0  0  0
 38 75  2  0  0  0  0
 39 42  1  0  0  0  0
 40 49  1  0  0  0  0
 41 63  1  0  0  0  0
 42 44  1  0  0  0  0
 43 45  1  0  0  0  0
 43 46  1  0  0  0  0
 44 48  1  0  0  0  0
 45 50  1  0  0  0  0
 46 64  1  0  0  0  0
 47 50  1  0  0  0  0
 47 64  1  0  0  0  0
 48 68  1  0  0  0  0
 49 63  1  0  0  0  0
 50 62  1  0  0  0  0
 52 59  1  0  0  0  0
 53 60  1  0  0  0  0
 54 60  1  0  0  0  0
 55 60  1  0  0  0  0
 56 70  1  0  0  0  0
 57 77  1  0  0  0  0
 58 60  1  0  0  0  0
 58 69  1  0  0  0  0
 59 70  1  0  0  0  0
 61 62  1  0  0  0  0
M  CHG  1  70   1
M  ISO  4  38 100  57 101  67 100  77 101
M  END
> <Batch ID>
0019

> <Smiles>
CNC(C)C(=O)NC(C(=O)N1Cc2cc([101O:1][101CH2:1]c3ccc([100NH:0][100C:0](=O)N4CCCC(n5nc(-c6ccc(Oc7ccc(F)cc7F)cc6)c(C(N)=O)c5N)C4)c(F)c3C)ccc2CC1C(=O)NC1CCCc2ccccc21)C(C)(C)C

> <Shape>
0.313

> <Color>
0.212

> <Negative vol penalty>
0.000

$$$$

  -OEChem-04042321053D

 86 95  0     1  0  0  0  0  0999 V2000
  -16.4774  -29.3080   23.7076 C   0  0  0  0  0  0  0  0  0  0  0  0
  -17.3700  -28.3457   23.2462 C   0  0  0  0  0  0  0  0  0  0  0  0
  -23.0866   -9.0920   19.6051 C   0  0  0  0  0  0  0  0  0  0  0  0
  -24.0249   -9.3847   21.8121 C   0  0  0  0  0  0  0  0  0  0  0  0
  -16.9397  -30.5769   24.0540 C   0  0  0  0  0  0  0  0  0  0  0  0
  -18.7253  -28.6522   23.1300 C   0  0  0  0  0  0  0  0  0  0  0  0
  -29.9845  -19.3827   19.1838 C   0  0  0  0  0  0  0  0  0  0  0  0
  -23.4492  -24.8711   24.0754 C   0  0  0  0  0  0  0  0  0  0  0  0
  -29.9927  -18.0693   19.6421 C   0  0  0  0  0  0  0  0  0  0  0  0
  -22.4314   -7.9387   20.0365 C   0  0  0  0  0  0  0  0  0  0  0  0
  -23.3697   -8.2313   22.2436 C   0  0  0  0  0  0  0  0  0  0  0  0
  -24.2483  -24.1324   23.2039 C   0  0  0  0  0  0  0  0  0  0  0  0
  -20.2501   -7.3503   23.1988 C   0  0  0  0  0  0  0  0  0  0  0  0
  -19.5922   -7.4018   24.4276 C   0  0  0  0  0  0  0  0  0  0  0  0
  -25.8921  -25.8978   23.2244 C   0  0  0  0  0  0  0  0  0  0  0  0
  -27.8262  -18.4329   20.6230 C   0  0  0  0  0  0  0  0  0  0  0  0
  -20.9960   -5.6175   25.2540 C   0  0  0  0  0  0  0  0  0  0  0  0
  -23.8833   -9.8150   20.4929 C   0  0  0  0  0  0  0  0  0  0  0  0
  -23.9725  -12.1752   19.5289 C   0  0  0  0  0  0  0  0  0  0  0  0
  -18.3029  -30.8961   23.9510 C   0  0  0  0  0  0  0  0  0  0  0  0
  -23.8612  -26.1356   24.5200 C   0  0  0  0  0  0  0  0  0  0  0  0
  -19.2061  -29.9271   23.4740 C   0  0  0  0  0  0  0  0  0  0  0  0
  -28.8905  -20.2429   19.4251 C   0  0  0  0  0  0  0  0  0  0  0  0
  -25.0976  -26.6494   24.1034 C   0  0  0  0  0  0  0  0  0  0  0  0
  -27.7806  -19.7747   20.1748 C   0  0  0  0  0  0  0  0  0  0  0  0
  -28.9101  -17.5925   20.3617 C   0  0  0  0  0  0  0  0  0  0  0  0
  -22.5730   -7.5083   21.3558 C   0  0  0  0  0  0  0  0  0  0  0  0
  -25.4687  -24.6469   22.7760 C   0  0  0  0  0  0  0  0  0  0  0  0
  -21.2809   -6.4324   22.9975 C   0  0  0  0  0  0  0  0  0  0  0  0
  -19.9651   -6.5354   25.4552 C   0  0  0  0  0  0  0  0  0  0  0  0
  -21.6539   -5.5660   24.0251 C   0  0  0  0  0  0  0  0  0  0  0  0
  -24.5608  -11.0062   20.0477 C   0  0  0  0  0  0  0  0  0  0  0  0
  -25.0345  -13.0031   19.2582 C   0  0  0  0  0  0  0  0  0  0  0  0
  -26.7001  -22.5698   19.1480 C   0  0  0  0  0  0  0  0  0  0  0  0
  -22.5896  -12.4850   19.3112 C   0  0  0  0  0  0  0  0  0  0  0  0
  -22.7206  -29.0901   24.2491 C   0  0  0  0  0  0  0  0  0  0  0  0
  -25.1532  -29.7974   26.2751 C   0  0  0  0  0  0  0  0  0  0  0  0
  -28.2123  -28.9581   27.5337 C   0  0  0  0  0  0  0  0  0  0  0  0
  -29.9050  -15.2994   20.6753 C   0  0  0  0  0  0  0  0  0  0  0  0
  -18.7484  -32.2960   24.2923 C   0  0  0  0  0  0  0  0  0  0  0  0
  -23.0000  -26.9084   25.4810 C   0  0  0  0  0  0  0  0  0  0  0  0
  -29.0189  -21.6516   18.8795 C   0  0  0  0  0  0  0  0  0  0  0  0
  -25.5949  -27.9932   24.5676 C   0  0  0  0  0  0  0  0  0  0  0  0
  -20.2560  -32.4228   24.4955 C   0  0  0  0  0  0  0  0  0  0  0  0
  -30.0082  -12.0653   19.1898 C   0  0  0  0  0  0  0  0  0  0  0  0
  -21.0075  -31.7133   23.3736 C   0  0  0  0  0  0  0  0  0  0  0  0
  -28.5518  -11.5976   19.2379 C   0  0  0  0  0  0  0  0  0  0  0  0
  -30.3854  -12.8737   20.4298 C   0  0  0  0  0  0  0  0  0  0  0  0
  -28.0377  -13.5336   20.7788 C   0  0  0  0  0  0  0  0  0  0  0  0
  -20.6875  -30.2137   23.3576 C   0  0  1  0  0  0  0  0  0  0  0  0
  -26.7991  -22.0258   20.5677 C   0  0  1  0  0  0  0  0  0  0  0  0
  -23.2824  -28.4075   25.4639 C   0  0  1  0  0  0  0  0  0  0  0  0
  -27.5924  -12.7702   19.5208 C   0  0  2  0  0  0  0  0  0  0  0  0
  -29.9630  -29.7498   29.1479 C   0  0  0  0  0  0  0  0  0  0  0  0
  -26.0440  -31.9147   24.2667 C   0  0  0  0  0  0  0  0  0  0  0  0
  -28.2562  -31.9935   25.4366 C   0  0  0  0  0  0  0  0  0  0  0  0
  -26.1767  -32.6262   26.6606 C   0  0  0  0  0  0  0  0  0  0  0  0
  -25.3529  -19.9337   20.5417 C   0  0  0  0  0  0  0  0  0  0  0  0
  -27.7723  -22.5527   16.9184 C   0  0  0  0  0  0  0  0  0  0  0  0
  -27.9564  -26.5174   29.1879 C   0  0  0  0  0  0  0  0  0  0  0  0
  -25.7699  -22.6588   21.5062 C   0  0  0  0  0  0  0  0  0  1  0  0
  -26.6002  -30.1951   26.1106 C   0  0  1  0  0  0  0  0  0  0  0  0
  -28.7286  -28.8818   28.9592 C   0  0  2  0  0  0  0  0  0  0  0  0
  -26.7593  -31.6579   25.6082 C   0  0  0  0  0  0  0  0  0  0  0  0
  -25.8932  -11.0808   20.1040 N   0  0  0  0  0  0  0  0  0  0  0  0
  -26.1509  -12.3066   19.6171 N   0  0  0  0  0  0  0  0  0  0  0  0
  -26.6668  -20.5676   20.4751 N   0  0  3  0  0  0  0  0  0  0  0  0
  -27.7841  -22.2224   18.3361 N   0  0  0  0  0  0  0  0  0  0  0  0
  -24.7140  -28.7133   25.5019 N   0  0  0  0  0  0  0  0  0  0  0  0
  -29.4352  -13.9697   20.6323 N   0  0  0  0  0  0  0  0  0  0  0  0
  -25.1129  -14.2515   18.7506 N   0  0  0  0  0  0  0  0  0  0  0  0
  -21.8708  -13.0968   20.3472 N   0  0  0  0  0  0  0  0  0  0  0  0
  -28.9062  -16.2587   20.8397 N   0  0  0  0  0  0  0  0  0  0  0  0
  -21.4194  -29.5295   24.4019 N   0  0  0  0  0  0  0  0  0  0  0  0
  -27.2446  -29.9301   27.3923 N   0  0  0  0  0  0  0  0  0  0  0  0
  -29.0844  -27.4769   29.3067 N   0  3  0  0  0  0  0  0  0  0  0  0
  -25.7211  -23.2109   18.7664 O   0  0  0  0  0  0  0  0  0  0  0  0
  -22.0043  -12.2121   18.2358 O   0  0  0  0  0  0  0  0  0  0  0  0
  -23.4166  -29.2108   23.2477 O   0  0  0  0  0  0  0  0  0  0  0  0
  -24.4408  -30.4209   27.0659 O   0  0  0  0  0  0  0  0  0  0  0  0
  -28.6287  -28.2309   26.6346 O   0  0  0  0  0  0  0  0  0  0  0  0
  -31.1018  -15.5694   20.5463 O   0  0  0  0  0  0  0  0  0  0  0  0
  -21.9337   -6.3830   21.7772 O   0  0  0  0  0  0  0  0  0  0  0  0
  -26.2577  -23.9214   21.9168 O   0  0  0  0  0  0  0  0  0  1  0  0
  -19.3343   -6.5860   26.6358 F   0  0  0  0  0  0  0  0  0  0  0  0
  -22.6442   -4.6828   23.8380 F   0  0  0  0  0  0  0  0  0  0  0  0
  1  2  1  0  0  0  0
  1  5  2  0  0  0  0
  2  6  2  0  0  0  0
  3 10  2  0  0  0  0
  3 18  1  0  0  0  0
  4 11  1  0  0  0  0
  4 18  2  0  0  0  0
  5 20  1  0  0  0  0
  6 22  1  0  0  0  0
  7  9  2  0  0  0  0
  7 23  1  0  0  0  0
  8 12  2  0  0  0  0
  8 21  1  0  0  0  0
  9 26  1  0  0  0  0
 10 27  1  0  0  0  0
 11 27  2  0  0  0  0
 12 28  1  0  0  0  0
 13 14  2  0  0  0  0
 13 29  1  0  0  0  0
 14 30  1  0  0  0  0
 15 24  1  0  0  0  0
 15 28  2  0  0  0  0
 16 25  1  0  0  0  0
 16 26  2  0  0  0  0
 17 30  2  0  0  0  0
 17 31  1  0  0  0  0
 18 32  1  0  0  0  0
 19 32  1  0  0  0  0
 19 33  2  0  0  0  0
 19 35  1  0  0  0  0
 20 22  2  0  0  0  0
 20 40  1  0  0  0  0
 21 24  2  0  0  0  0
 21 41  1  0  0  0  0
 22 50  1  0  0  0  0
 23 25  2  0  0  0  0
 23 42  1  0  0  0  0
 24 43  1  0  0  0  0
 25 67  1  0  0  0  0
 26 73  1  0  0  0  0
 27 83  1  0  0  0  0
 28 84  1  0  0  0  0
 29 31  2  0  0  0  0
 29 83  1  0  0  0  0
 30 85  1  0  0  0  0
 31 86  1  0  0  0  0
 32 65  2  0  0  0  0
 33 66  1  0  0  0  0
 33 71  1  0  0  0  0
 34 51  1  0  0  0  0
 34 68  1  0  0  0  0
 34 77  2  0  0  0  0
 35 72  1  0  0  0  0
 35 78  2  0  0  0  0
 36 52  1  0  0  0  0
 36 74  1  0  0  0  0
 36 79  2  0  0  0  0
 37 62  1  0  0  0  0
 37 69  1  0  0  0  0
 37 80  2  0  0  0  0
 38 63  1  0  0  0  0
 38 75  1  0  0  0  0
 38 81  2  0  0  0  0
 39 70  1  0  0  0  0
 39 73  1  0  0  0  0
 39 82  2  0  0  0  0
 40 44  1  0  0  0  0
 41 52  1  0  0  0  0
 42 68  1  0  0  0  0
 43 69  1  0  0  0  0
 44 46  1  0  0  0  0
 45 47  1  0  0  0  0
 45 48  1  0  0  0  0
 46 50  1  0  0  0  0
 47 53  1  0  0  0  0
 48 70  1  0  0  0  0
 49 53  1  0  0  0  0
 49 70  1  0  0  0  0
 50 74  1  0  0  0  0
 51 61  1  0  0  0  0
 51 67  1  0  0  0  0
 52 69  1  0  0  0  0
 53 66  1  0  0  0  0
 54 63  1  0  0  0  0
 55 64  1  0  0  0  0
 56 64  1  0  0  0  0
 57 64  1  0  0  0  0
 58 67  1  0  0  0  0
 59 68  1  0  0  0  0
 60 76  1  0  0  0  0
 61 84  1  0  0  0  0
 62 64  1  0  0  0  0
 62 75  1  0  0  0  0
 63 76  1  0  0  0  0
 65 66  1  0  0  0  0
M  CHG  1  76   1
M  ISO  4  39 100  61 101  73 100  84 101
M  END
> <Batch ID>
0019

> <Smiles>
CNC(C)C(=O)NC(C(=O)N1Cc2cc([101O:1][101CH2:1]C3C(=O)N(C)Cc4ccc([100NH:0][100C:0](=O)N5CCCC(n6nc(-c7ccc(Oc8ccc(F)cc8F)cc7)c(C(N)=O)c6N)C5)cc4N3C)ccc2CC1C(=O)NC1CCCc2ccccc21)C(C)(C)C

> <Shape>
0.280

> <Color>
0.116

> <Negative vol penalty>
0.000

$$$$

  -OEChem-04042321053D

 78 86  0     1  0  0  0  0  0999 V2000
  -19.8111  -30.5728   25.1426 C   0  0  0  0  0  0  0  0  0  0  0  0
  -20.6365  -29.5511   25.6012 C   0  0  0  0  0  0  0  0  0  0  0  0
  -24.1435  -15.0093   25.3053 C   0  0  0  0  0  0  0  0  0  0  0  0
  -24.5124  -14.2463   24.1975 C   0  0  0  0  0  0  0  0  0  0  0  0
  -30.1948  -23.5483   19.4191 C   0  0  0  0  0  0  0  0  0  0  0  0
  -28.7893  -23.6793   21.3798 C   0  0  0  0  0  0  0  0  0  0  0  0
  -18.8942  -30.3218   24.1226 C   0  0  0  0  0  0  0  0  0  0  0  0
  -20.5447  -28.2776   25.0408 C   0  0  0  0  0  0  0  0  0  0  0  0
  -24.5796  -22.5796   23.4376 C   0  0  0  0  0  0  0  0  0  0  0  0
  -24.2205  -16.4010   25.2507 C   0  0  0  0  0  0  0  0  0  0  0  0
  -24.9584  -14.8750   23.0350 C   0  0  0  0  0  0  0  0  0  0  0  0
  -29.9468  -24.8945   19.1513 C   0  0  0  0  0  0  0  0  0  0  0  0
  -28.5412  -25.0256   21.1120 C   0  0  0  0  0  0  0  0  0  0  0  0
  -24.6209  -21.1998   23.6329 C   0  0  0  0  0  0  0  0  0  0  0  0
  -26.5793  -26.8320   19.0339 C   0  0  0  0  0  0  0  0  0  0  0  0
  -25.2625  -27.2809   19.1345 C   0  0  0  0  0  0  0  0  0  0  0  0
  -23.0552  -20.9027   21.8219 C   0  0  0  0  0  0  0  0  0  0  0  0
  -25.9289  -28.8521   20.8446 C   0  0  0  0  0  0  0  0  0  0  0  0
  -29.6160  -22.9407   20.5334 C   0  0  0  0  0  0  0  0  0  0  0  0
  -30.9129  -21.0162   21.5928 C   0  0  0  0  0  0  0  0  0  0  0  0
  -18.7979  -29.0470   23.5428 C   0  0  0  0  0  0  0  0  0  0  0  0
  -23.7661  -23.1331   22.4384 C   0  0  0  0  0  0  0  0  0  0  0  0
  -19.6248  -28.0090   24.0131 C   0  0  0  0  0  0  0  0  0  0  0  0
  -23.0073  -22.2897   21.6143 C   0  0  0  0  0  0  0  0  0  0  0  0
  -24.6665  -17.0297   24.0882 C   0  0  0  0  0  0  0  0  0  0  0  0
  -25.0355  -16.2667   22.9803 C   0  0  0  0  0  0  0  0  0  0  0  0
  -29.1200  -25.6332   19.9978 C   0  0  0  0  0  0  0  0  0  0  0  0
  -23.8564  -20.3613   22.8269 C   0  0  0  0  0  0  0  0  0  0  0  0
  -27.5709  -27.3931   19.8386 C   0  0  0  0  0  0  0  0  0  0  0  0
  -24.9373  -28.2909   20.0399 C   0  0  0  0  0  0  0  0  0  0  0  0
  -27.2457  -28.4032   20.7439 C   0  0  0  0  0  0  0  0  0  0  0  0
  -29.8714  -21.5499   20.8102 C   0  0  0  0  0  0  0  0  0  0  0  0
  -30.7172  -19.6576   21.5443 C   0  0  0  0  0  0  0  0  0  0  0  0
  -31.9632  -21.6885   22.3003 C   0  0  0  0  0  0  0  0  0  0  0  0
  -21.2902  -25.1263   22.4101 C   0  0  0  0  0  0  0  0  0  0  0  0
  -21.6688  -24.9318   19.1944 C   0  0  0  0  0  0  0  0  0  0  0  0
  -22.8224  -23.1609   16.5148 C   0  0  0  0  0  0  0  0  0  0  0  0
  -25.8918  -16.2591   20.6111 C   0  0  0  0  0  0  0  0  0  0  0  0
  -17.7587  -28.8117   22.4754 C   0  0  0  0  0  0  0  0  0  0  0  0
  -23.7532  -24.6216   22.2230 C   0  0  0  0  0  0  0  0  0  0  0  0
  -22.1332  -22.8324   20.5144 C   0  0  0  0  0  0  0  0  0  0  0  0
  -17.9847  -27.5301   21.6773 C   0  0  0  0  0  0  0  0  0  0  0  0
  -28.9121  -16.2324   18.7258 C   0  0  0  0  0  0  0  0  0  0  0  0
  -18.2891  -26.3649   22.6135 C   0  0  0  0  0  0  0  0  0  0  0  0
  -29.5985  -17.5415   19.1222 C   0  0  0  0  0  0  0  0  0  0  0  0
  -27.3953  -16.3915   18.6371 C   0  0  0  0  0  0  0  0  0  0  0  0
  -27.4465  -18.2720   20.2278 C   0  0  0  0  0  0  0  0  0  0  0  0
  -19.5722  -26.6206   23.4134 C   0  0  1  0  0  0  0  0  0  0  0  0
  -22.4952  -25.1117   21.5126 C   0  0  1  0  0  0  0  0  0  0  0  0
  -28.9697  -18.1451   20.3934 C   0  0  2  0  0  0  0  0  0  0  0  0
  -22.9529  -23.2397   14.0100 C   0  0  0  0  0  0  0  0  0  0  0  0
  -18.7199  -24.1681   19.0191 C   0  0  0  0  0  0  0  0  0  0  0  0
  -19.1418  -23.3510   16.6904 C   0  0  0  0  0  0  0  0  0  0  0  0
  -19.4931  -25.7566   17.2490 C   0  0  0  0  0  0  0  0  0  0  0  0
  -25.7816  -23.1410   16.5526 C   0  0  0  0  0  0  0  0  0  0  0  0
  -24.7392  -18.5281   24.0581 C   0  0  0  0  0  0  0  0  0  1  0  0
  -21.1316  -24.0329   18.1071 C   0  0  1  0  0  0  0  0  0  0  0  0
  -23.6556  -23.5765   15.3159 C   0  0  2  0  0  0  0  0  0  0  0  0
  -19.6365  -24.3167   17.7883 C   0  0  0  0  0  0  0  0  0  0  0  0
  -29.0734  -20.6073   20.3018 N   0  0  0  0  0  0  0  0  0  0  0  0
  -29.6136  -19.4675   20.7657 N   0  0  0  0  0  0  0  0  0  0  0  0
  -22.1497  -24.2951   20.3473 N   0  0  0  0  0  0  0  0  0  0  0  0
  -26.8695  -16.9645   19.8781 N   0  0  0  0  0  0  0  0  0  0  0  0
  -31.3832  -18.6190   22.0921 N   0  0  0  0  0  0  0  0  0  0  0  0
  -32.0172  -23.0879   22.2445 N   0  0  0  0  0  0  0  0  0  0  0  0
  -25.4913  -16.8864   21.7904 N   0  0  0  0  0  0  0  0  0  0  0  0
  -20.7376  -26.3800   22.5897 N   0  0  0  0  0  0  0  0  0  0  0  0
  -22.0265  -24.1925   16.9661 N   0  0  0  0  0  0  0  0  0  0  0  0
  -24.9729  -22.8798   15.3341 N   0  3  0  0  0  0  0  0  0  0  0  0
  -32.8379  -21.0657   22.9488 O   0  0  0  0  0  0  0  0  0  0  0  0
  -20.8905  -24.0775   22.9020 O   0  0  0  0  0  0  0  0  0  0  0  0
  -21.6686  -26.1535   19.0240 O   0  0  0  0  0  0  0  0  0  0  0  0
  -22.8697  -22.0327   17.0000 O   0  0  0  0  0  0  0  0  0  0  0  0
  -25.4628  -15.1651   20.2354 O   0  0  0  0  0  0  0  0  0  0  0  0
  -28.8779  -26.9469   19.7369 O   0  0  0  0  0  0  0  0  0  0  0  0
  -23.8943  -19.0142   23.0159 O   0  0  0  0  0  0  0  0  0  1  0  0
  -23.6730  -28.7230   20.1354 F   0  0  0  0  0  0  0  0  0  0  0  0
  -28.1943  -28.9469   21.5188 F   0  0  0  0  0  0  0  0  0  0  0  0
  1  2  1  0  0  0  0
  1  7  2  0  0  0  0
  2  8  2  0  0  0  0
  3  4  1  0  0  0  0
  3 10  2  0  0  0  0
  4 11  2  0  0  0  0
  5 12  2  0  0  0  0
  5 19  1  0  0  0  0
  6 13  1  0  0  0  0
  6 19  2  0  0  0  0
  7 21  1  0  0  0  0
  8 23  1  0  0  0  0
  9 14  2  0  0  0  0
  9 22  1  0  0  0  0
 10 25  1  0  0  0  0
 11 26  1  0  0  0  0
 12 27  1  0  0  0  0
 13 27  2  0  0  0  0
 14 28  1  0  0  0  0
 15 16  2  0  0  0  0
 15 29  1  0  0  0  0
 16 30  1  0  0  0  0
 17 24  1  0  0  0  0
 17 28  2  0  0  0  0
 18 30  2  0  0  0  0
 18 31  1  0  0  0  0
 19 32  1  0  0  0  0
 20 32  1  0  0  0  0
 20 33  2  0  0  0  0
 20 34  1  0  0  0  0
 21 23  2  0  0  0  0
 21 39  1  0  0  0  0
 22 24  2  0  0  0  0
 22 40  1  0  0  0  0
 23 48  1  0  0  0  0
 24 41  1  0  0  0  0
 25 26  2  0  0  0  0
 25 56  1  0  0  0  0
 26 66  1  0  0  0  0
 27 75  1  0  0  0  0
 28 76  1  0  0  0  0
 29 31  2  0  0  0  0
 29 75  1  0  0  0  0
 30 77  1  0  0  0  0
 31 78  1  0  0  0  0
 32 60  2  0  0  0  0
 33 61  1  0  0  0  0
 33 64  1  0  0  0  0
 34 65  1  0  0  0  0
 34 70  2  0  0  0  0
 35 49  1  0  0  0  0
 35 67  1  0  0  0  0
 35 71  2  0  0  0  0
 36 57  1  0  0  0  0
 36 62  1  0  0  0  0
 36 72  2  0  0  0  0
 37 58  1  0  0  0  0
 37 68  1  0  0  0  0
 37 73  2  0  0  0  0
 38 63  1  0  0  0  0
 38 66  1  0  0  0  0
 38 74  2  0  0  0  0
 39 42  1  0  0  0  0
 40 49  1  0  0  0  0
 41 62  1  0  0  0  0
 42 44  1  0  0  0  0
 43 45  1  0  0  0  0
 43 46  1  0  0  0  0
 44 48  1  0  0  0  0
 45 50  1  0  0  0  0
 46 63  1  0  0  0  0
 47 50  1  0  0  0  0
 47 63  1  0  0  0  0
 48 67  1  0  0  0  0
 49 62  1  0  0  0  0
 50 61  1  0  0  0  0
 51 58  1  0  0  0  0
 52 59  1  0  0  0  0
 53 59  1  0  0  0  0
 54 59  1  0  0  0  0
 55 69  1  0  0  0  0
 56 76  1  0  0  0  0
 57 59  1  0  0  0  0
 57 68  1  0  0  0  0
 58 69  1  0  0  0  0
 60 61  1  0  0  0  0
M  CHG  1  69   1
M  ISO  4  38 100  56 101  66 100  76 101
M  END
> <Batch ID>
0019

> <Smiles>
CNC(C)C(=O)NC(C(=O)N1Cc2cc([101O:1][101CH2:1]c3ccccc3[100NH:0][100C:0](=O)N3CCCC(n4nc(-c5ccc(Oc6ccc(F)cc6F)cc5)c(C(N)=O)c4N)C3)ccc2CC1C(=O)NC1CCCc2ccccc21)C(C)(C)C

> <Shape>
0.178

> <Color>
0.076

> <Negative vol penalty>
0.000

$$$$

  -OEChem-04042321053D

 86 94  0     1  0  0  0  0  0999 V2000
  -22.1904  -19.7367   19.5582 C   0  0  0  0  0  0  0  0  0  0  0  0
  -23.3561  -19.9986   20.2709 C   0  0  0  0  0  0  0  0  0  0  0  0
  -23.0769   -9.8685   19.9375 C   0  0  0  0  0  0  0  0  0  0  0  0
  -23.8360   -9.8739   22.2312 C   0  0  0  0  0  0  0  0  0  0  0  0
  -21.8362  -20.5479   18.4810 C   0  0  0  0  0  0  0  0  0  0  0  0
  -24.1690  -21.0712   19.9060 C   0  0  0  0  0  0  0  0  0  0  0  0
  -25.7161  -23.7813   23.8943 C   0  0  0  0  0  0  0  0  0  0  0  0
  -32.6516  -17.4907   23.4571 C   0  0  0  0  0  0  0  0  0  0  0  0
  -32.0621  -16.6077   22.5525 C   0  0  0  0  0  0  0  0  0  0  0  0
  -22.3332   -8.7151   20.1864 C   0  0  0  0  0  0  0  0  0  0  0  0
  -23.0922   -8.7205   22.4801 C   0  0  0  0  0  0  0  0  0  0  0  0
  -26.7612  -23.2569   24.6536 C   0  0  0  0  0  0  0  0  0  0  0  0
  -19.8640   -7.9216   23.0808 C   0  0  0  0  0  0  0  0  0  0  0  0
  -19.1066   -7.8807   24.2514 C   0  0  0  0  0  0  0  0  0  0  0  0
  -28.3089  -24.7231   23.5248 C   0  0  0  0  0  0  0  0  0  0  0  0
  -30.4692  -18.3416   24.0489 C   0  0  0  0  0  0  0  0  0  0  0  0
  -20.3481   -5.9429   24.9869 C   0  0  0  0  0  0  0  0  0  0  0  0
  -23.8284  -10.4480   20.9599 C   0  0  0  0  0  0  0  0  0  0  0  0
  -24.1698  -12.9733   20.8419 C   0  0  0  0  0  0  0  0  0  0  0  0
  -22.6402  -21.6368   18.1087 C   0  0  0  0  0  0  0  0  0  0  0  0
  -25.9617  -24.7744   22.9352 C   0  0  0  0  0  0  0  0  0  0  0  0
  -23.8260  -21.8969   18.8218 C   0  0  0  0  0  0  0  0  0  0  0  0
  -27.2648  -25.2602   22.7564 C   0  0  0  0  0  0  0  0  0  0  0  0
  -31.8552  -18.3576   24.2054 C   0  0  0  0  0  0  0  0  0  0  0  0
  -30.6762  -16.5917   22.3960 C   0  0  0  0  0  0  0  0  0  0  0  0
  -22.3408   -8.1410   21.4576 C   0  0  0  0  0  0  0  0  0  0  0  0
  -28.0583  -23.7257   24.4669 C   0  0  0  0  0  0  0  0  0  0  0  0
  -20.8634   -6.9732   22.8632 C   0  0  0  0  0  0  0  0  0  0  0  0
  -19.3487   -6.8914   25.2045 C   0  0  0  0  0  0  0  0  0  0  0  0
  -29.8797  -17.4586   23.1442 C   0  0  0  0  0  0  0  0  0  0  0  0
  -21.1054   -5.9838   23.8162 C   0  0  0  0  0  0  0  0  0  0  0  0
  -24.5973  -11.6392   20.7034 C   0  0  0  0  0  0  0  0  0  0  0  0
  -25.2620  -13.7232   20.4796 C   0  0  0  0  0  0  0  0  0  0  0  0
  -22.8991  -13.4885   21.2608 C   0  0  0  0  0  0  0  0  0  0  0  0
  -25.6216  -24.9803   19.7816 C   0  0  0  0  0  0  0  0  0  0  0  0
  -26.4782  -28.0687   20.2821 C   0  0  0  0  0  0  0  0  0  0  0  0
  -28.0683  -30.3500   22.2605 C   0  0  0  0  0  0  0  0  0  0  0  0
  -30.7279  -14.7697   20.6570 C   0  0  0  0  0  0  0  0  0  0  0  0
  -22.2407  -22.4569   16.9076 C   0  0  0  0  0  0  0  0  0  0  0  0
  -24.8193  -25.3486   22.1430 C   0  0  0  0  0  0  0  0  0  0  0  0
  -27.5781  -26.3397   21.7540 C   0  0  0  0  0  0  0  0  0  0  0  0
  -22.9624  -23.7991   16.8193 C   0  0  0  0  0  0  0  0  0  0  0  0
  -29.6148  -12.3574   18.2866 C   0  0  0  0  0  0  0  0  0  0  0  0
  -24.4568  -23.6190   17.0663 C   0  0  0  0  0  0  0  0  0  0  0  0
  -28.1750  -12.0653   18.7154 C   0  0  0  0  0  0  0  0  0  0  0  0
  -30.5294  -12.5855   19.4887 C   0  0  0  0  0  0  0  0  0  0  0  0
  -28.6218  -13.3086   20.8698 C   0  0  0  0  0  0  0  0  0  0  0  0
  -24.7209  -23.0660   18.4720 C   0  0  1  0  0  0  0  0  0  0  0  0
  -25.2642  -25.9921   20.8333 C   0  0  1  0  0  0  0  0  0  0  0  0
  -27.6494  -13.1360   19.6915 C   0  0  2  0  0  0  0  0  0  0  0  0
  -35.7464  -20.5898   22.6381 C   0  0  0  0  0  0  0  0  0  0  0  0
  -28.6328  -32.7918   22.3891 C   0  0  0  0  0  0  0  0  0  0  0  0
  -28.6605  -27.6721   18.1869 C   0  0  0  0  0  0  0  0  0  0  0  0
  -29.7542  -29.7596   19.0320 C   0  0  0  0  0  0  0  0  0  0  0  0
  -27.4651  -29.8643   18.0461 C   0  0  0  0  0  0  0  0  0  0  0  0
  -26.5551  -30.6858   24.7817 C   0  0  0  0  0  0  0  0  0  0  0  0
  -32.4891  -19.3083   25.1777 C   0  0  0  0  0  0  0  0  0  0  0  0
  -34.8042  -20.4262   23.8197 C   0  0  0  0  0  0  0  0  0  0  0  0
  -30.3541  -21.2602   25.7619 C   0  0  0  0  0  0  0  0  0  0  0  0
  -33.3948  -20.8728   23.4652 C   0  0  0  0  0  0  0  0  0  0  0  0
  -31.1533  -21.2866   24.4678 C   0  0  0  0  0  0  0  0  0  0  0  0
  -28.9588  -21.8590   25.6332 C   0  0  0  0  0  0  0  0  0  1  0  0
  -27.7858  -28.8216   20.3269 C   0  0  1  0  0  0  0  0  0  0  0  0
  -27.6360  -31.7106   22.7766 C   0  0  2  0  0  0  0  0  0  0  0  0
  -28.4112  -29.0077   18.9156 C   0  0  0  0  0  0  0  0  0  0  0  0
  -25.8624  -11.5439   20.2855 N   0  0  0  0  0  0  0  0  0  0  0  0
  -26.2391  -12.8276   20.1582 N   0  0  0  0  0  0  0  0  0  0  0  0
  -26.4283  -26.8649   20.9992 N   0  0  0  0  0  0  0  0  0  0  0  0
  -29.9699  -13.6156   20.3667 N   0  0  0  0  0  0  0  0  0  0  0  0
  -25.4721  -15.0548   20.4077 N   0  0  0  0  0  0  0  0  0  0  0  0
  -21.8872  -12.5789   21.5970 N   0  0  0  0  0  0  0  0  0  0  0  0
  -30.0801  -15.6940   21.4759 N   0  0  0  0  0  0  0  0  0  0  0  0
  -24.5929  -24.1154   19.4603 N   0  0  0  0  0  0  0  0  0  0  0  0
  -27.5136  -30.0710   21.0293 N   0  0  0  0  0  0  0  0  0  0  0  0
  -27.5206  -31.6883   24.2623 N   0  3  0  0  0  0  0  0  0  0  0  0
  -32.5114  -20.7342   24.6818 N   0  3  1  0  0  0  0  0  0  0  0  0
  -22.6626  -14.7191   21.3190 O   0  0  0  0  0  0  0  0  0  0  0  0
  -26.7469  -24.9849   19.2963 O   0  0  0  0  0  0  0  0  0  0  0  0
  -25.5334  -28.5351   19.6406 O   0  0  0  0  0  0  0  0  0  0  0  0
  -28.8255  -29.6104   22.8851 O   0  0  0  0  0  0  0  0  0  0  0  0
  -31.8571  -14.9389   20.1899 O   0  0  0  0  0  0  0  0  0  0  0  0
  -21.6149   -7.0156   21.7009 O   0  0  0  0  0  0  0  0  0  0  0  0
  -29.0804  -23.2152   25.2063 O   0  0  0  0  0  0  0  0  0  1  0  0
  -18.6223   -6.8531   26.3292 F   0  0  0  0  0  0  0  0  0  0  0  0
  -28.5467  -17.4528   23.0008 F   0  0  0  0  0  0  0  0  0  0  0  0
  -22.0650   -5.0707   23.6132 F   0  0  0  0  0  0  0  0  0  0  0  0
  1  2  1  0  0  0  0
  1  5  2  0  0  0  0
  2  6  2  0  0  0  0
  3 10  2  0  0  0  0
  3 18  1  0  0  0  0
  4 11  1  0  0  0  0
  4 18  2  0  0  0  0
  5 20  1  0  0  0  0
  6 22  1  0  0  0  0
  7 12  2  0  0  0  0
  7 21  1  0  0  0  0
  8  9  2  0  0  0  0
  8 24  1  0  0  0  0
  9 25  1  0  0  0  0
 10 26  1  0  0  0  0
 11 26  2  0  0  0  0
 12 27  1  0  0  0  0
 13 14  2  0  0  0  0
 13 28  1  0  0  0  0
 14 29  1  0  0  0  0
 15 23  1  0  0  0  0
 15 27  2  0  0  0  0
 16 24  2  0  0  0  0
 16 30  1  0  0  0  0
 17 29  2  0  0  0  0
 17 31  1  0  0  0  0
 18 32  1  0  0  0  0
 19 32  1  0  0  0  0
 19 33  2  0  0  0  0
 19 34  1  0  0  0  0
 20 22  2  0  0  0  0
 20 39  1  0  0  0  0
 21 23  2  0  0  0  0
 21 40  1  0  0  0  0
 22 48  1  0  0  0  0
 23 41  1  0  0  0  0
 24 57  1  0  0  0  0
 25 30  2  0  0  0  0
 25 72  1  0  0  0  0
 26 82  1  0  0  0  0
 27 83  1  0  0  0  0
 28 31  2  0  0  0  0
 28 82  1  0  0  0  0
 29 84  1  0  0  0  0
 30 85  1  0  0  0  0
 31 86  1  0  0  0  0
 32 66  2  0  0  0  0
 33 67  1  0  0  0  0
 33 70  1  0  0  0  0
 34 71  1  0  0  0  0
 34 77  2  0  0  0  0
 35 49  1  0  0  0  0
 35 73  1  0  0  0  0
 35 78  2  0  0  0  0
 36 63  1  0  0  0  0
 36 68  1  0  0  0  0
 36 79  2  0  0  0  0
 37 64  1  0  0  0  0
 37 74  1  0  0  0  0
 37 80  2  0  0  0  0
 38 69  1  0  0  0  0
 38 72  1  0  0  0  0
 38 81  2  0  0  0  0
 39 42  1  0  0  0  0
 40 49  1  0  0  0  0
 41 68  1  0  0  0  0
 42 44  1  0  0  0  0
 43 45  1  0  0  0  0
 43 46  1  0  0  0  0
 44 48  1  0  0  0  0
 45 50  1  0  0  0  0
 46 69  1  0  0  0  0
 47 50  1  0  0  0  0
 47 69  1  0  0  0  0
 48 73  1  0  0  0  0
 49 68  1  0  0  0  0
 50 67  1  0  0  0  0
 51 58  1  0  0  0  0
 52 64  1  0  0  0  0
 53 65  1  0  0  0  0
 54 65  1  0  0  0  0
 55 65  1  0  0  0  0
 56 75  1  0  0  0  0
 57 76  1  0  0  0  0
 58 60  1  0  0  0  0
 59 61  1  0  0  0  0
 59 62  1  0  0  0  0
 60 76  1  0  0  0  0
 61 76  1  0  0  0  0
 62 83  1  0  0  0  0
 63 65  1  0  0  0  0
 63 74  1  0  0  0  0
 64 75  1  0  0  0  0
 66 67  1  0  0  0  0
M  CHG  2  75   1  76   1
M  ISO  4  38 100  62 101  72 100  83 101
M  END
> <Batch ID>
0019

> <Smiles>
CCCN(CC[101CH2:1][101O:1]c1ccc2c(c1)CN(C(=O)C(NC(=O)C(C)NC)C(C)(C)C)C(C(=O)NC1CCCc3ccccc31)C2)Cc1ccc([100NH:0][100C:0](=O)N2CCCC(n3nc(-c4ccc(Oc5ccc(F)cc5F)cc4)c(C(N)=O)c3N)C2)c(F)c1

> <Shape>
0.232

> <Color>
0.188

> <Negative vol penalty>
0.000

$$$$

  -OEChem-04042321053D

 84 93  0     1  0  0  0  0  0999 V2000
  -17.2056  -30.8773   24.3281 C   0  0  0  0  0  0  0  0  0  0  0  0
  -18.5084  -31.2411   24.6534 C   0  0  0  0  0  0  0  0  0  0  0  0
  -24.6459  -14.1347   19.9150 C   0  0  0  0  0  0  0  0  0  0  0  0
  -26.2514  -14.3130   21.7116 C   0  0  0  0  0  0  0  0  0  0  0  0
  -16.9664  -29.6899   23.6376 C   0  0  0  0  0  0  0  0  0  0  0  0
  -19.5727  -30.4170   24.2895 C   0  0  0  0  0  0  0  0  0  0  0  0
  -26.4451  -30.7284   22.2920 C   0  0  0  0  0  0  0  0  0  0  0  0
  -30.0735  -25.3576   22.5126 C   0  0  0  0  0  0  0  0  0  0  0  0
  -29.6215  -24.3999   21.6049 C   0  0  0  0  0  0  0  0  0  0  0  0
  -24.7154  -12.7437   19.9909 C   0  0  0  0  0  0  0  0  0  0  0  0
  -26.3208  -12.9219   21.7876 C   0  0  0  0  0  0  0  0  0  0  0  0
  -27.6886  -30.1927   22.6242 C   0  0  0  0  0  0  0  0  0  0  0  0
  -23.4653  -10.2907   21.9539 C   0  0  0  0  0  0  0  0  0  0  0  0
  -22.2660   -9.5792   21.9238 C   0  0  0  0  0  0  0  0  0  0  0  0
  -27.1620  -28.2043   21.3641 C   0  0  0  0  0  0  0  0  0  0  0  0
  -28.2718  -24.7829   24.0162 C   0  0  0  0  0  0  0  0  0  0  0  0
  -22.9962   -8.4327   19.9264 C   0  0  0  0  0  0  0  0  0  0  0  0
  -25.4140  -14.9194   20.7753 C   0  0  0  0  0  0  0  0  0  0  0  0
  -24.4645  -17.2037   21.3982 C   0  0  0  0  0  0  0  0  0  0  0  0
  -18.0291  -28.8556   23.2565 C   0  0  0  0  0  0  0  0  0  0  0  0
  -25.5448  -30.0002   21.5010 C   0  0  0  0  0  0  0  0  0  0  0  0
  -19.3474  -29.2166   23.5945 C   0  0  0  0  0  0  0  0  0  0  0  0
  -25.9087  -28.7340   21.0211 C   0  0  0  0  0  0  0  0  0  0  0  0
  -29.3987  -25.5491   23.7183 C   0  0  0  0  0  0  0  0  0  0  0  0
  -28.4946  -23.6337   21.9028 C   0  0  0  0  0  0  0  0  0  0  0  0
  -25.5528  -12.1373   20.9272 C   0  0  0  0  0  0  0  0  0  0  0  0
  -28.0461  -28.9293   22.1627 C   0  0  0  0  0  0  0  0  0  0  0  0
  -24.4301  -10.0733   20.9701 C   0  0  0  0  0  0  0  0  0  0  0  0
  -22.0314   -8.6502   20.9101 C   0  0  0  0  0  0  0  0  0  0  0  0
  -27.8197  -23.8252   23.1084 C   0  0  0  0  0  0  0  0  0  0  0  0
  -24.1955   -9.1443   19.9565 C   0  0  0  0  0  0  0  0  0  0  0  0
  -25.3431  -16.3564   20.6969 C   0  0  0  0  0  0  0  0  0  0  0  0
  -24.7970  -18.4679   20.9768 C   0  0  0  0  0  0  0  0  0  0  0  0
  -23.4394  -16.8772   22.3460 C   0  0  0  0  0  0  0  0  0  0  0  0
  -22.6240  -28.8228   21.9326 C   0  0  0  0  0  0  0  0  0  0  0  0
  -22.8749  -28.0934   18.7818 C   0  0  0  0  0  0  0  0  0  0  0  0
  -24.8972  -27.4558   16.1077 C   0  0  0  0  0  0  0  0  0  0  0  0
  -28.5933  -22.3483   19.7384 C   0  0  0  0  0  0  0  0  0  0  0  0
  -17.7174  -27.5585   22.5529 C   0  0  0  0  0  0  0  0  0  0  0  0
  -24.2179  -30.6033   21.1292 C   0  0  0  0  0  0  0  0  0  0  0  0
  -24.9864  -27.9201   20.1520 C   0  0  0  0  0  0  0  0  0  0  0  0
  -18.9304  -26.9265   21.8750 C   0  0  0  0  0  0  0  0  0  0  0  0
  -27.7863  -19.9974   17.1891 C   0  0  0  0  0  0  0  0  0  0  0  0
  -30.2829  -27.6359   26.6476 C   0  0  0  0  0  0  0  0  0  0  0  0
  -20.1304  -26.9301   22.8168 C   0  0  0  0  0  0  0  0  0  0  0  0
  -27.0064  -18.9103   17.9321 C   0  0  0  0  0  0  0  0  0  0  0  0
  -31.3304  -28.0281   25.6177 C   0  0  0  0  0  0  0  0  0  0  0  0
  -29.6681  -26.3671   26.0654 C   0  0  0  0  0  0  0  0  0  0  0  0
  -28.9212  -20.5637   18.0406 C   0  0  0  0  0  0  0  0  0  0  0  0
  -27.7417  -19.9507   20.1148 C   0  0  0  0  0  0  0  0  0  0  0  0
  -20.5303  -28.3613   23.1953 C   0  0  1  0  0  0  0  0  0  0  0  0
  -23.1741  -29.5595   20.7441 C   0  0  1  0  0  0  0  0  0  0  0  0
  -26.5477  -19.3955   19.3212 C   0  0  2  0  0  0  0  0  0  0  0  0
  -30.6824  -27.6558   24.2767 C   0  0  2  0  0  0  0  0  0  0  0  0
  -24.8123  -26.8546   13.6728 C   0  0  0  0  0  0  0  0  0  0  0  0
  -22.1621  -25.2196   19.5187 C   0  0  0  0  0  0  0  0  0  0  0  0
  -23.0101  -24.5072   17.2733 C   0  0  0  0  0  0  0  0  0  0  0  0
  -21.0679  -26.0642   17.4345 C   0  0  0  0  0  0  0  0  0  0  0  0
  -26.3026  -29.9403   15.3262 C   0  0  0  0  0  0  0  0  0  0  0  0
  -29.8264  -28.7995   23.7343 C   0  0  0  0  0  0  0  0  0  1  0  0
  -23.3837  -26.9092   17.9958 C   0  0  1  0  0  0  0  0  0  0  0  0
  -24.8841  -27.9868   14.6857 C   0  0  2  0  0  0  0  0  0  0  0  0
  -22.4228  -25.6893   18.0736 C   0  0  0  0  0  0  0  0  0  0  0  0
  -26.1715  -17.0259   19.8909 N   0  0  0  0  0  0  0  0  0  0  0  0
  -25.8148  -18.3072   20.0831 N   0  0  0  0  0  0  0  0  0  0  0  0
  -29.8471  -26.4978   24.6180 N   0  0  3  0  0  0  0  0  0  0  0  0
  -23.6976  -28.5504   19.8212 N   0  0  0  0  0  0  0  0  0  0  0  0
  -28.4112  -21.0071   19.3398 N   0  0  0  0  0  0  0  0  0  0  0  0
  -24.3152  -19.6902   21.2870 N   0  0  0  0  0  0  0  0  0  0  0  0
  -23.2301  -15.5288   22.6659 N   0  0  0  0  0  0  0  0  0  0  0  0
  -28.0376  -22.6619   20.9783 N   0  0  0  0  0  0  0  0  0  0  0  0
  -21.2636  -28.9839   22.1140 N   0  0  0  0  0  0  0  0  0  0  0  0
  -23.6272  -27.3926   16.6411 N   0  0  0  0  0  0  0  0  0  0  0  0
  -26.1170  -28.7798   14.4175 N   0  3  0  0  0  0  0  0  0  0  0  0
  -22.7190  -17.7540   22.8807 O   0  0  0  0  0  0  0  0  0  0  0  0
  -23.3776  -28.1564   22.6322 O   0  0  0  0  0  0  0  0  0  0  0  0
  -21.7910  -28.5990   18.4800 O   0  0  0  0  0  0  0  0  0  0  0  0
  -25.9303  -27.1262   16.6862 O   0  0  0  0  0  0  0  0  0  0  0  0
  -29.1740  -23.1657   19.0197 O   0  0  0  0  0  0  0  0  0  0  0  0
  -25.6206  -10.7799   21.0018 O   0  0  0  0  0  0  0  0  0  0  0  0
  -29.2590  -28.4038   22.4861 O   0  0  0  0  0  0  0  0  0  1  0  0
  -20.8803   -7.9659   20.8823 F   0  0  0  0  0  0  0  0  0  0  0  0
  -26.7353  -23.0947   23.4048 F   0  0  0  0  0  0  0  0  0  0  0  0
  -25.1191   -8.9303   19.0094 F   0  0  0  0  0  0  0  0  0  0  0  0
  1  2  1  0  0  0  0
  1  5  2  0  0  0  0
  2  6  2  0  0  0  0
  3 10  2  0  0  0  0
  3 18  1  0  0  0  0
  4 11  1  0  0  0  0
  4 18  2  0  0  0  0
  5 20  1  0  0  0  0
  6 22  1  0  0  0  0
  7 12  2  0  0  0  0
  7 21  1  0  0  0  0
  8  9  2  0  0  0  0
  8 24  1  0  0  0  0
  9 25  1  0  0  0  0
 10 26  1  0  0  0  0
 11 26  2  0  0  0  0
 12 27  1  0  0  0  0
 13 14  2  0  0  0  0
 13 28  1  0  0  0  0
 14 29  1  0  0  0  0
 15 23  1  0  0  0  0
 15 27  2  0  0  0  0
 16 24  2  0  0  0  0
 16 30  1  0  0  0  0
 17 29  2  0  0  0  0
 17 31  1  0  0  0  0
 18 32  1  0  0  0  0
 19 32  1  0  0  0  0
 19 33  2  0  0  0  0
 19 34  1  0  0  0  0
 20 22  2  0  0  0  0
 20 39  1  0  0  0  0
 21 23  2  0  0  0  0
 21 40  1  0  0  0  0
 22 51  1  0  0  0  0
 23 41  1  0  0  0  0
 24 66  1  0  0  0  0
 25 30  2  0  0  0  0
 25 71  1  0  0  0  0
 26 80  1  0  0  0  0
 27 81  1  0  0  0  0
 28 31  2  0  0  0  0
 28 80  1  0  0  0  0
 29 82  1  0  0  0  0
 30 83  1  0  0  0  0
 31 84  1  0  0  0  0
 32 64  2  0  0  0  0
 33 65  1  0  0  0  0
 33 69  1  0  0  0  0
 34 70  1  0  0  0  0
 34 75  2  0  0  0  0
 35 52  1  0  0  0  0
 35 72  1  0  0  0  0
 35 76  2  0  0  0  0
 36 61  1  0  0  0  0
 36 67  1  0  0  0  0
 36 77  2  0  0  0  0
 37 62  1  0  0  0  0
 37 73  1  0  0  0  0
 37 78  2  0  0  0  0
 38 68  1  0  0  0  0
 38 71  1  0  0  0  0
 38 79  2  0  0  0  0
 39 42  1  0  0  0  0
 40 52  1  0  0  0  0
 41 67  1  0  0  0  0
 42 45  1  0  0  0  0
 43 46  1  0  0  0  0
 43 49  1  0  0  0  0
 44 47  1  0  0  0  0
 44 48  1  0  0  0  0
 45 51  1  0  0  0  0
 46 53  1  0  0  0  0
 47 54  1  0  0  0  0
 48 66  1  0  0  0  0
 49 68  1  0  0  0  0
 50 53  1  0  0  0  0
 50 68  1  0  0  0  0
 51 72  1  0  0  0  0
 52 67  1  0  0  0  0
 53 65  1  0  0  0  0
 54 60  1  0  0  0  0
 54 66  1  0  0  0  0
 55 62  1  0  0  0  0
 56 63  1  0  0  0  0
 57 63  1  0  0  0  0
 58 63  1  0  0  0  0
 59 74  1  0  0  0  0
 60 81  1  0  0  0  0
 61 63  1  0  0  0  0
 61 73  1  0  0  0  0
 62 74  1  0  0  0  0
 64 65  1  0  0  0  0
M  CHG  1  74   1
M  ISO  4  38 100  60 101  71 100  81 101
M  END
> <Batch ID>
0019

> <Smiles>
CNC(C)C(=O)NC(C(=O)N1Cc2cc([101O:1][101CH2:1]C3CCCN3c3ccc([100NH:0][100C:0](=O)N4CCCC(n5nc(-c6ccc(Oc7ccc(F)cc7F)cc6)c(C(N)=O)c5N)C4)c(F)c3)ccc2CC1C(=O)NC1CCCc2ccccc21)C(C)(C)C

> <Shape>
0.238

> <Color>
0.111

> <Negative vol penalty>
0.000

$$$$

  -OEChem-04042321053D

 85 94  0     1  0  0  0  0  0999 V2000
  -26.9632  -37.9912   23.8294 C   0  0  0  0  0  0  0  0  0  0  0  0
  -27.6145  -37.1181   22.9641 C   0  0  0  0  0  0  0  0  0  0  0  0
  -24.8533   -9.0609   21.0009 C   0  0  0  0  0  0  0  0  0  0  0  0
  -26.0329   -9.9356   22.9193 C   0  0  0  0  0  0  0  0  0  0  0  0
  -26.1602  -37.4877   24.8519 C   0  0  0  0  0  0  0  0  0  0  0  0
  -27.4641  -35.7408   23.1215 C   0  0  0  0  0  0  0  0  0  0  0  0
  -27.1989  -29.6819   19.3089 C   0  0  0  0  0  0  0  0  0  0  0  0
  -25.0020   -7.7668   21.4995 C   0  0  0  0  0  0  0  0  0  0  0  0
  -26.1817   -8.6415   23.4179 C   0  0  0  0  0  0  0  0  0  0  0  0
  -27.7845  -28.4179   19.2532 C   0  0  0  0  0  0  0  0  0  0  0  0
  -23.5444   -5.8193   23.8480 C   0  0  0  0  0  0  0  0  0  0  0  0
  -22.4301   -4.9809   23.8176 C   0  0  0  0  0  0  0  0  0  0  0  0
  -26.6146  -19.5799   21.6693 C   0  0  0  0  0  0  0  0  0  0  0  0
  -26.3089  -27.6635   21.0061 C   0  0  0  0  0  0  0  0  0  0  0  0
  -28.6327  -19.9396   20.4202 C   0  0  0  0  0  0  0  0  0  0  0  0
  -23.6382   -3.4261   22.4175 C   0  0  0  0  0  0  0  0  0  0  0  0
  -25.3688  -10.1454   21.7108 C   0  0  0  0  0  0  0  0  0  0  0  0
  -24.1537  -12.3725   21.4436 C   0  0  0  0  0  0  0  0  0  0  0  0
  -25.9922  -36.1037   25.0160 C   0  0  0  0  0  0  0  0  0  0  0  0
  -26.1695  -29.9497   20.2228 C   0  0  0  0  0  0  0  0  0  0  0  0
  -26.6592  -35.2182   24.1480 C   0  0  0  0  0  0  0  0  0  0  0  0
  -26.7880  -20.8124   22.3228 C   0  0  0  0  0  0  0  0  0  0  0  0
  -25.7101  -28.9310   21.0697 C   0  0  0  0  0  0  0  0  0  0  0  0
  -27.9137  -21.6277   22.0496 C   0  0  0  0  0  0  0  0  0  0  0  0
  -27.5328  -19.1472   20.7193 C   0  0  0  0  0  0  0  0  0  0  0  0
  -25.6662   -7.5570   22.7080 C   0  0  0  0  0  0  0  0  0  0  0  0
  -27.3416  -27.4093   20.1038 C   0  0  0  0  0  0  0  0  0  0  0  0
  -24.7056   -5.4612   23.1631 C   0  0  0  0  0  0  0  0  0  0  0  0
  -22.4770   -3.7842   23.1024 C   0  0  0  0  0  0  0  0  0  0  0  0
  -28.8182  -21.1612   21.0755 C   0  0  0  0  0  0  0  0  0  0  0  0
  -24.7525   -4.2646   22.4479 C   0  0  0  0  0  0  0  0  0  0  0  0
  -25.2159  -11.4824   21.1960 C   0  0  0  0  0  0  0  0  0  0  0  0
  -24.4779  -13.5008   20.7308 C   0  0  0  0  0  0  0  0  0  0  0  0
  -22.9790  -12.1951   22.2462 C   0  0  0  0  0  0  0  0  0  0  0  0
  -25.8104  -31.9362   22.6781 C   0  0  0  0  0  0  0  0  0  0  0  0
  -22.7716  -30.8017   22.6489 C   0  0  0  0  0  0  0  0  0  0  0  0
  -20.6256  -28.2880   21.7988 C   0  0  0  0  0  0  0  0  0  0  0  0
  -28.1694  -17.3333   19.0912 C   0  0  0  0  0  0  0  0  0  0  0  0
  -25.1519  -35.6056   26.1651 C   0  0  0  0  0  0  0  0  0  0  0  0
  -25.5300  -31.3108   20.2520 C   0  0  0  0  0  0  0  0  0  0  0  0
  -25.7666  -21.2219   23.3563 C   0  0  0  0  0  0  0  0  0  0  0  0
  -24.5943  -29.1615   22.0547 C   0  0  0  0  0  0  0  0  0  0  0  0
  -24.7456  -34.1402   26.0323 C   0  0  0  0  0  0  0  0  0  0  0  0
  -25.8105  -22.7221   23.6091 C   0  0  0  0  0  0  0  0  0  0  0  0
  -28.0766  -14.2824   17.2580 C   0  0  0  0  0  0  0  0  0  0  0  0
  -25.9460  -33.2873   25.6342 C   0  0  0  0  0  0  0  0  0  0  0  0
  -27.2367  -13.3552   18.1394 C   0  0  0  0  0  0  0  0  0  0  0  0
  -27.2459  -23.1585   23.8613 C   0  0  0  0  0  0  0  0  0  0  0  0
  -28.9671  -15.2033   18.0904 C   0  0  0  0  0  0  0  0  0  0  0  0
  -27.4271  -15.0473   20.0070 C   0  0  0  0  0  0  0  0  0  0  0  0
  -26.5011  -33.7182   24.2712 C   0  0  1  0  0  0  0  0  0  0  0  0
  -24.8389  -31.6180   21.5769 C   0  0  1  0  0  0  0  0  0  0  0  0
  -26.4661  -14.1457   19.2150 C   0  0  2  0  0  0  0  0  0  0  0  0
  -18.2078  -27.6304   21.9384 C   0  0  0  0  0  0  0  0  0  0  0  0
  -23.1284  -30.1264   25.6030 C   0  0  0  0  0  0  0  0  0  0  0  0
  -21.1110  -28.6529   25.4382 C   0  0  0  0  0  0  0  0  0  0  0  0
  -20.9017  -31.1028   25.0177 C   0  0  0  0  0  0  0  0  0  0  0  0
  -20.3665  -28.1737   18.8528 C   0  0  0  0  0  0  0  0  0  0  0  0
  -29.1501  -24.4946   21.2364 C   0  0  0  0  0  0  0  0  0  0  0  0
  -29.2831  -23.6529   22.4997 C   0  0  0  0  0  0  0  0  0  0  0  0
  -27.9400  -25.4209   21.2632 C   0  0  0  0  0  0  0  0  0  1  0  0
  -22.0558  -29.6453   23.3043 C   0  0  1  0  0  0  0  0  0  0  0  0
  -19.2793  -28.3069   21.0976 C   0  0  2  0  0  0  0  0  0  0  0  0
  -21.8216  -29.8777   24.8237 C   0  0  0  0  0  0  0  0  0  0  0  0
  -26.1454  -12.0007   20.3888 N   0  0  0  0  0  0  0  0  0  0  0  0
  -25.6681  -13.2286   20.1229 N   0  0  0  0  0  0  0  0  0  0  0  0
  -28.0898  -22.8456   22.7089 N   0  0  3  0  0  0  0  0  0  0  0  0
  -24.0053  -30.5108   22.0496 N   0  0  0  0  0  0  0  0  0  0  0  0
  -28.1681  -15.9224   19.0850 N   0  0  0  0  0  0  0  0  0  0  0  0
  -23.8582  -14.6894   20.5708 N   0  0  0  0  0  0  0  0  0  0  0  0
  -22.8020  -10.9740   22.9109 N   0  0  0  0  0  0  0  0  0  0  0  0
  -27.3472  -17.9064   20.0608 N   0  0  0  0  0  0  0  0  0  0  0  0
  -25.6701  -33.2070   23.2024 N   0  0  0  0  0  0  0  0  0  0  0  0
  -20.8333  -29.4341   22.5367 N   0  0  0  0  0  0  0  0  0  0  0  0
  -19.3667  -27.5987   19.7892 N   0  3  0  0  0  0  0  0  0  0  0  0
  -22.1038  -13.0869   22.3572 O   0  0  0  0  0  0  0  0  0  0  0  0
  -26.6259  -31.0908   23.0274 O   0  0  0  0  0  0  0  0  0  0  0  0
  -22.2518  -31.9203   22.6619 O   0  0  0  0  0  0  0  0  0  0  0  0
  -21.4125  -27.3486   21.7047 O   0  0  0  0  0  0  0  0  0  0  0  0
  -28.8287  -17.9852   18.2774 O   0  0  0  0  0  0  0  0  0  0  0  0
  -25.8113   -6.2943   23.1949 O   0  0  0  0  0  0  0  0  0  0  0  0
  -27.9119  -26.1748   20.0519 O   0  0  0  0  0  0  0  0  0  1  0  0
  -21.4074   -2.9784   23.0745 F   0  0  0  0  0  0  0  0  0  0  0  0
  -29.9078  -21.8666   20.7378 F   0  0  0  0  0  0  0  0  0  0  0  0
  -25.8657   -3.9146   21.7890 F   0  0  0  0  0  0  0  0  0  0  0  0
  1  2  1  0  0  0  0
  1  5  2  0  0  0  0
  2  6  2  0  0  0  0
  3  8  2  0  0  0  0
  3 17  1  0  0  0  0
  4  9  1  0  0  0  0
  4 17  2  0  0  0  0
  5 19  1  0  0  0  0
  6 21  1  0  0  0  0
  7 10  2  0  0  0  0
  7 20  1  0  0  0  0
  8 26  1  0  0  0  0
  9 26  2  0  0  0  0
 10 27  1  0  0  0  0
 11 12  2  0  0  0  0
 11 28  1  0  0  0  0
 12 29  1  0  0  0  0
 13 22  1  0  0  0  0
 13 25  2  0  0  0  0
 14 23  1  0  0  0  0
 14 27  2  0  0  0  0
 15 25  1  0  0  0  0
 15 30  2  0  0  0  0
 16 29  2  0  0  0  0
 16 31  1  0  0  0  0
 17 32  1  0  0  0  0
 18 32  1  0  0  0  0
 18 33  2  0  0  0  0
 18 34  1  0  0  0  0
 19 21  2  0  0  0  0
 19 39  1  0  0  0  0
 20 23  2  0  0  0  0
 20 40  1  0  0  0  0
 21 51  1  0  0  0  0
 22 24  2  0  0  0  0
 22 41  1  0  0  0  0
 23 42  1  0  0  0  0
 24 30  1  0  0  0  0
 24 67  1  0  0  0  0
 25 72  1  0  0  0  0
 26 81  1  0  0  0  0
 27 82  1  0  0  0  0
 28 31  2  0  0  0  0
 28 81  1  0  0  0  0
 29 83  1  0  0  0  0
 30 84  1  0  0  0  0
 31 85  1  0  0  0  0
 32 65  2  0  0  0  0
 33 66  1  0  0  0  0
 33 70  1  0  0  0  0
 34 71  1  0  0  0  0
 34 76  2  0  0  0  0
 35 52  1  0  0  0  0
 35 73  1  0  0  0  0
 35 77  2  0  0  0  0
 36 62  1  0  0  0  0
 36 68  1  0  0  0  0
 36 78  2  0  0  0  0
 37 63  1  0  0  0  0
 37 74  1  0  0  0  0
 37 79  2  0  0  0  0
 38 69  1  0  0  0  0
 38 72  1  0  0  0  0
 38 80  2  0  0  0  0
 39 43  1  0  0  0  0
 40 52  1  0  0  0  0
 41 44  1  0  0  0  0
 42 68  1  0  0  0  0
 43 46  1  0  0  0  0
 44 48  1  0  0  0  0
 45 47  1  0  0  0  0
 45 49  1  0  0  0  0
 46 51  1  0  0  0  0
 47 53  1  0  0  0  0
 48 67  1  0  0  0  0
 49 69  1  0  0  0  0
 50 53  1  0  0  0  0
 50 69  1  0  0  0  0
 51 73  1  0  0  0  0
 52 68  1  0  0  0  0
 53 66  1  0  0  0  0
 54 63  1  0  0  0  0
 55 64  1  0  0  0  0
 56 64  1  0  0  0  0
 57 64  1  0  0  0  0
 58 75  1  0  0  0  0
 59 60  1  0  0  0  0
 59 61  1  0  0  0  0
 60 67  1  0  0  0  0
 61 82  1  0  0  0  0
 62 64  1  0  0  0  0
 62 74  1  0  0  0  0
 63 75  1  0  0  0  0
 65 66  1  0  0  0  0
M  CHG  1  75   1
M  ISO  4  38 100  61 101  72 100  82 101
M  END
> <Batch ID>
0019

> <Smiles>
CNC(C)C(=O)NC(C(=O)N1Cc2cc([101O:1][101CH2:1]CCN3CCCc4cc([100NH:0][100C:0](=O)N5CCCC(n6nc(-c7ccc(Oc8ccc(F)cc8F)cc7)c(C(N)=O)c6N)C5)cc(F)c43)ccc2CC1C(=O)NC1CCCc2ccccc21)C(C)(C)C

> <Shape>
0.307

> <Color>
0.098

> <Negative vol penalty>
0.000

$$$$

  -OEChem-04042321053D

 88 97  0     1  0  0  0  0  0999 V2000
  -24.3735  -18.7093   25.1348 C   0  0  0  0  0  0  0  0  0  0  0  0
  -24.9878  -19.5486   24.2110 C   0  0  0  0  0  0  0  0  0  0  0  0
  -23.9541   -9.2535   20.9818 C   0  0  0  0  0  0  0  0  0  0  0  0
  -25.5407   -9.7895   22.7232 C   0  0  0  0  0  0  0  0  0  0  0  0
  -23.0134  -18.8510   25.4072 C   0  0  0  0  0  0  0  0  0  0  0  0
  -24.2422  -20.5295   23.5581 C   0  0  0  0  0  0  0  0  0  0  0  0
  -26.6222  -24.9967   23.4022 C   0  0  0  0  0  0  0  0  0  0  0  0
  -23.7827   -7.9821   21.5292 C   0  0  0  0  0  0  0  0  0  0  0  0
  -25.3693   -8.5181   23.2707 C   0  0  0  0  0  0  0  0  0  0  0  0
  -27.6345  -25.1461   22.4553 C   0  0  0  0  0  0  0  0  0  0  0  0
  -22.1026   -6.5874   24.1109 C   0  0  0  0  0  0  0  0  0  0  0  0
  -20.7995   -6.1061   24.2368 C   0  0  0  0  0  0  0  0  0  0  0  0
  -28.7264  -17.7081   20.1244 C   0  0  0  0  0  0  0  0  0  0  0  0
  -26.1037  -26.3291   21.0143 C   0  0  0  0  0  0  0  0  0  0  0  0
  -28.8400  -19.8069   21.9548 C   0  0  0  0  0  0  0  0  0  0  0  0
  -21.3504   -4.2402   22.8044 C   0  0  0  0  0  0  0  0  0  0  0  0
  -24.8331  -10.1573   21.5787 C   0  0  0  0  0  0  0  0  0  0  0  0
  -24.0244  -12.4580   20.8302 C   0  0  0  0  0  0  0  0  0  0  0  0
  -22.2528  -19.8404   24.7644 C   0  0  0  0  0  0  0  0  0  0  0  0
  -25.3380  -25.5037   23.1572 C   0  0  0  0  0  0  0  0  0  0  0  0
  -22.8704  -20.6837   23.8211 C   0  0  0  0  0  0  0  0  0  0  0  0
  -28.5709  -19.0265   19.6735 C   0  0  0  0  0  0  0  0  0  0  0  0
  -25.0776  -26.1870   21.9609 C   0  0  0  0  0  0  0  0  0  0  0  0
  -28.6467  -20.0855   20.5949 C   0  0  0  0  0  0  0  0  0  0  0  0
  -28.9274  -17.4424   21.4787 C   0  0  0  0  0  0  0  0  0  0  0  0
  -24.4903   -7.6144   22.6737 C   0  0  0  0  0  0  0  0  0  0  0  0
  -27.3746  -25.8098   21.2599 C   0  0  0  0  0  0  0  0  0  0  0  0
  -23.0296   -5.8952   23.3317 C   0  0  0  0  0  0  0  0  0  0  0  0
  -20.4234   -4.9325   23.5836 C   0  0  0  0  0  0  0  0  0  0  0  0
  -28.9818  -18.4908   22.3935 C   0  0  0  0  0  0  0  0  0  0  0  0
  -22.6535   -4.7215   22.6784 C   0  0  0  0  0  0  0  0  0  0  0  0
  -25.0110  -11.4706   21.0134 C   0  0  0  0  0  0  0  0  0  0  0  0
  -24.6958  -13.5129   20.2621 C   0  0  0  0  0  0  0  0  0  0  0  0
  -22.6262  -12.4246   21.1455 C   0  0  0  0  0  0  0  0  0  0  0  0
  -22.4394  -24.2296   22.8758 C   0  0  0  0  0  0  0  0  0  0  0  0
  -21.5134  -27.3354   22.7392 C   0  0  0  0  0  0  0  0  0  0  0  0
  -22.3332  -30.5755   22.0488 C   0  0  0  0  0  0  0  0  0  0  0  0
  -30.6910  -14.7608   20.4597 C   0  0  0  0  0  0  0  0  0  0  0  0
  -20.7756  -19.9245   25.0565 C   0  0  0  0  0  0  0  0  0  0  0  0
  -24.2641  -25.3576   24.2003 C   0  0  0  0  0  0  0  0  0  0  0  0
  -28.3912  -19.2934   18.2006 C   0  0  0  0  0  0  0  0  0  0  0  0
  -23.7212  -26.7676   21.6583 C   0  0  0  0  0  0  0  0  0  0  0  0
  -28.4682  -21.5111   20.1491 C   0  0  0  0  0  0  0  0  0  0  0  0
  -20.1378  -21.2338   24.5989 C   0  0  0  0  0  0  0  0  0  0  0  0
  -28.4697  -14.5188   17.5087 C   0  0  0  0  0  0  0  0  0  0  0  0
  -20.5818  -21.5766   23.1804 C   0  0  0  0  0  0  0  0  0  0  0  0
  -27.2802  -13.7282   18.0510 C   0  0  0  0  0  0  0  0  0  0  0  0
  -29.7603  -14.1807   18.2486 C   0  0  0  0  0  0  0  0  0  0  0  0
  -28.4787  -13.5518   20.2676 C   0  0  0  0  0  0  0  0  0  0  0  0
  -27.7944  -20.6650   17.9050 C   0  0  0  0  0  0  0  0  0  0  0  0
  -22.1006  -21.7759   23.1107 C   0  0  1  0  0  0  0  0  0  0  0  0
  -22.8548  -25.4636   23.6259 C   0  0  1  0  0  0  0  0  0  0  0  0
  -27.1538  -13.9034   19.5744 C   0  0  2  0  0  0  0  0  0  0  0  0
  -21.3557  -32.8861   21.9943 C   0  0  0  0  0  0  0  0  0  0  0  0
  -20.0674  -26.6597   20.1387 C   0  0  0  0  0  0  0  0  0  0  0  0
  -19.9355  -29.1128   19.6561 C   0  0  0  0  0  0  0  0  0  0  0  0
  -18.8023  -28.1774   21.6718 C   0  0  0  0  0  0  0  0  0  0  0  0
  -31.5005  -15.9824   22.4426 C   0  0  0  0  0  0  0  0  0  0  0  0
  -24.2457  -31.5581   24.0826 C   0  0  0  0  0  0  0  0  0  0  0  0
  -29.0851  -16.0339   21.9439 C   0  0  0  0  0  0  0  0  0  0  0  0
  -29.4223  -24.0177   18.4661 C   0  0  0  0  0  0  0  0  0  0  0  0
  -29.0878  -25.4620   18.1010 C   0  0  0  0  0  0  0  0  0  0  0  0
  -28.2268  -23.1051   18.2364 C   0  0  0  0  0  0  0  0  0  0  0  0
  -27.9624  -26.0141   18.9645 C   0  0  0  0  0  0  0  0  0  1  0  0
  -21.3245  -28.3472   21.6348 C   0  0  1  0  0  0  0  0  0  0  0  0
  -22.1076  -31.8593   22.8269 C   0  0  2  0  0  0  0  0  0  0  0  0
  -20.0576  -28.0618   20.7799 C   0  0  0  0  0  0  0  0  0  0  0  0
  -26.2173  -11.8631   20.5953 N   0  0  0  0  0  0  0  0  0  0  0  0
  -25.9931  -13.1089   20.1438 N   0  0  0  0  0  0  0  0  0  0  0  0
  -22.7025  -26.5934   22.7069 N   0  0  0  0  0  0  0  0  0  0  0  0
  -29.5996  -14.3138   19.6970 N   0  0  0  0  0  0  0  0  0  0  0  0
  -24.2972  -14.7375   19.8571 N   0  0  0  0  0  0  0  0  0  0  0  0
  -22.2166  -12.8589   22.4136 N   0  0  0  0  0  0  0  0  0  0  0  0
  -22.4645  -23.0750   23.6345 N   0  0  0  0  0  0  0  0  0  0  0  0
  -21.3298  -29.6575   22.2763 N   0  0  0  0  0  0  0  0  0  0  0  0
  -30.4023  -15.4877   21.6246 N   0  0  0  0  0  0  0  0  0  0  0  0
  -28.5879  -21.7074   18.6515 N   0  3  1  0  0  0  0  0  0  0  0  0
  -23.4118  -32.4517   23.2381 N   0  3  0  0  0  0  0  0  0  0  0  0
  -21.7671  -12.0062   20.3328 O   0  0  0  0  0  0  0  0  0  0  0  0
  -22.1185  -24.3188   21.6965 O   0  0  0  0  0  0  0  0  0  0  0  0
  -20.6412  -27.2132   23.6030 O   0  0  0  0  0  0  0  0  0  0  0  0
  -23.3007  -30.4055   21.3102 O   0  0  0  0  0  0  0  0  0  0  0  0
  -31.8572  -14.5319   20.1138 O   0  0  0  0  0  0  0  0  0  0  0  0
  -24.3232   -6.3739   23.2083 O   0  0  0  0  0  0  0  0  0  0  0  0
  -28.3607  -25.9565   20.3336 O   0  0  0  0  0  0  0  0  0  1  0  0
  -19.1724   -4.4695   23.7058 F   0  0  0  0  0  0  0  0  0  0  0  0
  -29.1701  -18.2452   23.6976 F   0  0  0  0  0  0  0  0  0  0  0  0
  -23.5399   -4.0515   21.9294 F   0  0  0  0  0  0  0  0  0  0  0  0
  1  2  1  0  0  0  0
  1  5  2  0  0  0  0
  2  6  2  0  0  0  0
  3  8  2  0  0  0  0
  3 17  1  0  0  0  0
  4  9  1  0  0  0  0
  4 17  2  0  0  0  0
  5 19  1  0  0  0  0
  6 21  1  0  0  0  0
  7 10  2  0  0  0  0
  7 20  1  0  0  0  0
  8 26  1  0  0  0  0
  9 26  2  0  0  0  0
 10 27  1  0  0  0  0
 11 12  2  0  0  0  0
 11 28  1  0  0  0  0
 12 29  1  0  0  0  0
 13 22  1  0  0  0  0
 13 25  2  0  0  0  0
 14 23  1  0  0  0  0
 14 27  2  0  0  0  0
 15 24  1  0  0  0  0
 15 30  2  0  0  0  0
 16 29  2  0  0  0  0
 16 31  1  0  0  0  0
 17 32  1  0  0  0  0
 18 32  1  0  0  0  0
 18 33  2  0  0  0  0
 18 34  1  0  0  0  0
 19 21  2  0  0  0  0
 19 39  1  0  0  0  0
 20 23  2  0  0  0  0
 20 40  1  0  0  0  0
 21 51  1  0  0  0  0
 22 24  2  0  0  0  0
 22 41  1  0  0  0  0
 23 42  1  0  0  0  0
 24 43  1  0  0  0  0
 25 30  1  0  0  0  0
 25 60  1  0  0  0  0
 26 84  1  0  0  0  0
 27 85  1  0  0  0  0
 28 31  2  0  0  0  0
 28 84  1  0  0  0  0
 29 86  1  0  0  0  0
 30 87  1  0  0  0  0
 31 88  1  0  0  0  0
 32 68  2  0  0  0  0
 33 69  1  0  0  0  0
 33 72  1  0  0  0  0
 34 73  1  0  0  0  0
 34 79  2  0  0  0  0
 35 52  1  0  0  0  0
 35 74  1  0  0  0  0
 35 80  2  0  0  0  0
 36 65  1  0  0  0  0
 36 70  1  0  0  0  0
 36 81  2  0  0  0  0
 37 66  1  0  0  0  0
 37 75  1  0  0  0  0
 37 82  2  0  0  0  0
 38 71  1  0  0  0  0
 38 76  1  0  0  0  0
 38 83  2  0  0  0  0
 39 44  1  0  0  0  0
 40 52  1  0  0  0  0
 41 50  1  0  0  0  0
 42 70  1  0  0  0  0
 43 77  1  0  0  0  0
 44 46  1  0  0  0  0
 45 47  1  0  0  0  0
 45 48  1  0  0  0  0
 46 51  1  0  0  0  0
 47 53  1  0  0  0  0
 48 71  1  0  0  0  0
 49 53  1  0  0  0  0
 49 71  1  0  0  0  0
 50 77  1  0  0  0  0
 51 74  1  0  0  0  0
 52 70  1  0  0  0  0
 53 69  1  0  0  0  0
 54 66  1  0  0  0  0
 55 67  1  0  0  0  0
 56 67  1  0  0  0  0
 57 67  1  0  0  0  0
 58 76  1  0  0  0  0
 59 78  1  0  0  0  0
 60 76  1  0  0  0  0
 61 62  1  0  0  0  0
 61 63  1  0  0  0  0
 62 64  1  0  0  0  0
 63 77  1  0  0  0  0
 64 85  1  0  0  0  0
 65 67  1  0  0  0  0
 65 75  1  0  0  0  0
 66 78  1  0  0  0  0
 68 69  1  0  0  0  0
M  CHG  2  77   1  78   1
M  ISO  4  38 100  64 101  76 100  85 101
M  END
> <Batch ID>
0019

> <Smiles>
CNC(C)C(=O)NC(C(=O)N1Cc2cc([101O:1][101CH2:1]CCCN3CCc4cc(C[100N:0](C)[100C:0](=O)N5CCCC(n6nc(-c7ccc(Oc8ccc(F)cc8F)cc7)c(C(N)=O)c6N)C5)c(F)cc4C3)ccc2CC1C(=O)NC1CCCc2ccccc21)C(C)(C)C

> <Shape>
0.286

> <Color>
0.130

> <Negative vol penalty>
0.000

$$$$

  -OEChem-04042321053D

 91100  0     1  0  0  0  0  0999 V2000
  -25.2182  -20.4141   26.6657 C   0  0  0  0  0  0  0  0  0  0  0  0
  -26.1917  -21.1656   26.0154 C   0  0  0  0  0  0  0  0  0  0  0  0
  -23.2373   -9.3995   20.7503 C   0  0  0  0  0  0  0  0  0  0  0  0
  -23.3187  -10.8697   22.6658 C   0  0  0  0  0  0  0  0  0  0  0  0
  -23.8690  -20.6421   26.3985 C   0  0  0  0  0  0  0  0  0  0  0  0
  -25.8164  -22.1450   25.0964 C   0  0  0  0  0  0  0  0  0  0  0  0
  -28.3877  -26.4654   25.7029 C   0  0  0  0  0  0  0  0  0  0  0  0
  -31.2097  -22.1307   21.9898 C   0  0  0  0  0  0  0  0  0  0  0  0
  -31.9933  -23.2763   22.1287 C   0  0  0  0  0  0  0  0  0  0  0  0
  -22.4349   -8.5112   21.4661 C   0  0  0  0  0  0  0  0  0  0  0  0
  -22.5162   -9.9813   23.3817 C   0  0  0  0  0  0  0  0  0  0  0  0
  -29.6892  -26.5070   25.2048 C   0  0  0  0  0  0  0  0  0  0  0  0
  -22.8488   -6.1358   23.8349 C   0  0  0  0  0  0  0  0  0  0  0  0
  -23.1616   -4.7785   23.7623 C   0  0  0  0  0  0  0  0  0  0  0  0
  -28.8982  -27.6836   23.2531 C   0  0  0  0  0  0  0  0  0  0  0  0
  -30.6381  -24.4037   20.4766 C   0  0  0  0  0  0  0  0  0  0  0  0
  -20.9764   -4.3244   22.8372 C   0  0  0  0  0  0  0  0  0  0  0  0
  -23.6793  -10.5788   21.3501 C   0  0  0  0  0  0  0  0  0  0  0  0
  -24.0812  -12.5695   19.8063 C   0  0  0  0  0  0  0  0  0  0  0  0
  -23.4767  -21.6314   25.4830 C   0  0  0  0  0  0  0  0  0  0  0  0
  -27.3282  -27.0239   24.9735 C   0  0  0  0  0  0  0  0  0  0  0  0
  -24.4606  -22.3856   24.8157 C   0  0  0  0  0  0  0  0  0  0  0  0
  -27.5846  -27.6500   23.7453 C   0  0  0  0  0  0  0  0  0  0  0  0
  -30.1403  -22.1216   21.0943 C   0  0  0  0  0  0  0  0  0  0  0  0
  -31.7075  -24.4127   21.3722 C   0  0  0  0  0  0  0  0  0  0  0  0
  -22.0743   -8.8021   22.7818 C   0  0  0  0  0  0  0  0  0  0  0  0
  -29.9442  -27.1136   23.9784 C   0  0  0  0  0  0  0  0  0  0  0  0
  -21.5998   -6.5875   23.4086 C   0  0  0  0  0  0  0  0  0  0  0  0
  -22.2254   -3.8727   23.2635 C   0  0  0  0  0  0  0  0  0  0  0  0
  -29.8545  -23.2581   20.3377 C   0  0  0  0  0  0  0  0  0  0  0  0
  -20.6636   -5.6818   22.9098 C   0  0  0  0  0  0  0  0  0  0  0  0
  -24.5087  -11.4966   20.6113 C   0  0  0  0  0  0  0  0  0  0  0  0
  -25.2433  -13.1262   19.3308 C   0  0  0  0  0  0  0  0  0  0  0  0
  -22.7526  -13.0224   19.5146 C   0  0  0  0  0  0  0  0  0  0  0  0
  -24.6657  -25.8890   23.6594 C   0  0  0  0  0  0  0  0  0  0  0  0
  -24.0788  -29.0260   23.0787 C   0  0  0  0  0  0  0  0  0  0  0  0
  -25.3228  -32.1737   22.6416 C   0  0  0  0  0  0  0  0  0  0  0  0
  -30.4662  -14.9197   20.1371 C   0  0  0  0  0  0  0  0  0  0  0  0
  -22.0076  -21.8092   25.1916 C   0  0  0  0  0  0  0  0  0  0  0  0
  -25.9340  -26.9943   25.5371 C   0  0  0  0  0  0  0  0  0  0  0  0
  -26.4852  -28.2823   22.9329 C   0  0  0  0  0  0  0  0  0  0  0  0
  -21.6817  -23.1215   24.4831 C   0  0  0  0  0  0  0  0  0  0  0  0
  -30.0111  -11.4455   19.5052 C   0  0  0  0  0  0  0  0  0  0  0  0
  -30.7668  -19.0097   17.9615 C   0  0  0  0  0  0  0  0  0  0  0  0
  -22.6485  -23.3586   23.3273 C   0  0  0  0  0  0  0  0  0  0  0  0
  -28.5054  -11.2368   19.6764 C   0  0  0  0  0  0  0  0  0  0  0  0
  -30.2555  -17.6076   18.2782 C   0  0  0  0  0  0  0  0  0  0  0  0
  -30.5552  -12.4706   20.4978 C   0  0  0  0  0  0  0  0  0  0  0  0
  -28.3511  -13.5609   20.6630 C   0  0  0  0  0  0  0  0  0  0  0  0
  -29.9667  -20.0807   18.6873 C   0  0  0  0  0  0  0  0  0  0  0  0
  -29.4089  -18.4418   20.5061 C   0  0  0  0  0  0  0  0  0  0  0  0
  -24.0924  -23.4739   23.8307 C   0  0  1  0  0  0  0  0  0  0  0  0
  -24.8545  -27.1406   24.4690 C   0  0  1  0  0  0  0  0  0  0  0  0
  -27.7465  -12.5771   19.6467 C   0  0  2  0  0  0  0  0  0  0  0  0
  -30.2136  -17.3620   19.7873 C   0  0  1  0  0  0  0  0  0  0  0  0
  -34.6742  -25.1820   19.4921 C   0  0  0  0  0  0  0  0  0  0  0  0
  -24.6018  -34.5253   22.1439 C   0  0  0  0  0  0  0  0  0  0  0  0
  -23.6712  -28.2784   20.1487 C   0  0  0  0  0  0  0  0  0  0  0  0
  -23.9024  -30.7033   19.5701 C   0  0  0  0  0  0  0  0  0  0  0  0
  -22.0328  -29.9457   21.0375 C   0  0  0  0  0  0  0  0  0  0  0  0
  -26.3957  -33.1703   25.2134 C   0  0  0  0  0  0  0  0  0  0  0  0
  -29.3045  -20.8951   20.9481 C   0  0  0  0  0  0  0  0  0  0  0  0
  -33.3091  -25.7771   19.1771 C   0  0  0  0  0  0  0  0  0  0  0  0
  -32.6773  -26.4700   20.3785 C   0  0  0  0  0  0  0  0  0  0  0  0
  -33.1303  -25.8919   22.7679 C   0  0  0  0  0  0  0  0  0  0  0  0
  -32.0850  -26.0852   23.8537 C   0  0  0  0  0  0  0  0  0  1  0  0
  -24.3897  -29.9810   21.9517 C   0  0  1  0  0  0  0  0  0  0  0  0
  -24.9122  -33.5102   23.2330 C   0  0  2  0  0  0  0  0  0  0  0  0
  -23.5197  -29.7136   20.6911 C   0  0  0  0  0  0  0  0  0  0  0  0
  -25.8385  -11.3769   20.6474 N   0  0  0  0  0  0  0  0  0  0  0  0
  -26.2567  -12.3817   19.8590 N   0  0  0  0  0  0  0  0  0  0  0  0
  -25.1380  -28.2221   23.5234 N   0  0  0  0  0  0  0  0  0  0  0  0
  -29.7933  -13.7192   20.4180 N   0  0  0  0  0  0  0  0  0  0  0  0
  -25.4870  -14.1749   18.5164 N   0  0  0  0  0  0  0  0  0  0  0  0
  -21.6722  -12.3364   20.0861 N   0  0  0  0  0  0  0  0  0  0  0  0
  -24.3232  -24.7801   24.4094 N   0  0  0  0  0  0  0  0  0  0  0  0
  -24.2457  -31.3240   22.5032 N   0  0  0  0  0  0  0  0  0  0  0  0
  -29.6685  -16.0557   20.0730 N   0  0  0  0  0  0  0  0  0  0  0  0
  -32.4948  -25.5634   21.5124 N   0  0  3  0  0  0  0  0  0  0  0  0
  -29.9819  -19.8002   20.1704 N   0  3  2  0  0  0  0  0  0  0  0  0
  -26.0046  -34.0563   24.0869 N   0  3  0  0  0  0  0  0  0  0  0  0
  -22.5294  -13.9962   18.7561 O   0  0  0  0  0  0  0  0  0  0  0  0
  -24.8180  -25.9269   22.4441 O   0  0  0  0  0  0  0  0  0  0  0  0
  -22.9399  -28.9994   23.5519 O   0  0  0  0  0  0  0  0  0  0  0  0
  -26.4823  -31.9112   22.3299 O   0  0  0  0  0  0  0  0  0  0  0  0
  -31.6867  -14.9743   19.9515 O   0  0  0  0  0  0  0  0  0  0  0  0
  -21.2911   -7.9355   23.4806 O   0  0  0  0  0  0  0  0  0  0  0  0
  -31.2136  -27.1551   23.4897 O   0  0  0  0  0  0  0  0  0  1  0  0
  -22.5265   -2.5695   23.1924 F   0  0  0  0  0  0  0  0  0  0  0  0
  -28.8297  -23.2584   19.4738 F   0  0  0  0  0  0  0  0  0  0  0  0
  -19.4625   -6.1099   22.4977 F   0  0  0  0  0  0  0  0  0  0  0  0
  1  2  1  0  0  0  0
  1  5  2  0  0  0  0
  2  6  2  0  0  0  0
  3 10  2  0  0  0  0
  3 18  1  0  0  0  0
  4 11  1  0  0  0  0
  4 18  2  0  0  0  0
  5 20  1  0  0  0  0
  6 22  1  0  0  0  0
  7 12  2  0  0  0  0
  7 21  1  0  0  0  0
  8  9  2  0  0  0  0
  8 24  1  0  0  0  0
  9 25  1  0  0  0  0
 10 26  1  0  0  0  0
 11 26  2  0  0  0  0
 12 27  1  0  0  0  0
 13 14  2  0  0  0  0
 13 28  1  0  0  0  0
 14 29  1  0  0  0  0
 15 23  1  0  0  0  0
 15 27  2  0  0  0  0
 16 25  2  0  0  0  0
 16 30  1  0  0  0  0
 17 29  2  0  0  0  0
 17 31  1  0  0  0  0
 18 32  1  0  0  0  0
 19 32  1  0  0  0  0
 19 33  2  0  0  0  0
 19 34  1  0  0  0  0
 20 22  2  0  0  0  0
 20 39  1  0  0  0  0
 21 23  2  0  0  0  0
 21 40  1  0  0  0  0
 22 52  1  0  0  0  0
 23 41  1  0  0  0  0
 24 30  2  0  0  0  0
 24 62  1  0  0  0  0
 25 79  1  0  0  0  0
 26 87  1  0  0  0  0
 27 88  1  0  0  0  0
 28 31  2  0  0  0  0
 28 87  1  0  0  0  0
 29 89  1  0  0  0  0
 30 90  1  0  0  0  0
 31 91  1  0  0  0  0
 32 70  2  0  0  0  0
 33 71  1  0  0  0  0
 33 74  1  0  0  0  0
 34 75  1  0  0  0  0
 34 82  2  0  0  0  0
 35 53  1  0  0  0  0
 35 76  1  0  0  0  0
 35 83  2  0  0  0  0
 36 67  1  0  0  0  0
 36 72  1  0  0  0  0
 36 84  2  0  0  0  0
 37 68  1  0  0  0  0
 37 77  1  0  0  0  0
 37 85  2  0  0  0  0
 38 73  1  0  0  0  0
 38 78  1  0  0  0  0
 38 86  2  0  0  0  0
 39 42  1  0  0  0  0
 40 53  1  0  0  0  0
 41 72  1  0  0  0  0
 42 45  1  0  0  0  0
 43 46  1  0  0  0  0
 43 48  1  0  0  0  0
 44 47  1  0  0  0  0
 44 50  1  0  0  0  0
 45 52  1  0  0  0  0
 46 54  1  0  0  0  0
 47 55  1  0  0  0  0
 48 73  1  0  0  0  0
 49 54  1  0  0  0  0
 49 73  1  0  0  0  0
 50 80  1  0  0  0  0
 51 55  1  0  0  0  0
 51 80  1  0  0  0  0
 52 76  1  0  0  0  0
 53 72  1  0  0  0  0
 54 71  1  0  0  0  0
 55 78  1  0  0  0  0
 56 63  1  0  0  0  0
 57 68  1  0  0  0  0
 58 69  1  0  0  0  0
 59 69  1  0  0  0  0
 60 69  1  0  0  0  0
 61 81  1  0  0  0  0
 62 80  1  0  0  0  0
 63 64  1  0  0  0  0
 64 79  1  0  0  0  0
 65 66  1  0  0  0  0
 65 79  1  0  0  0  0
 66 88  1  0  0  0  0
 67 69  1  0  0  0  0
 67 77  1  0  0  0  0
 68 81  1  0  0  0  0
 70 71  1  0  0  0  0
M  CHG  2  80   1  81   1
M  ISO  4  38 100  66 101  78 100  88 101
M  END
> <Batch ID>
0019

> <Smiles>
CCCN(C[101CH2:1][101O:1]c1ccc2c(c1)CN(C(=O)C(NC(=O)C(C)NC)C(C)(C)C)C(C(=O)NC1CCCc3ccccc31)C2)c1ccc(CN2CCCC([100NH:0][100C:0](=O)N3CCCC(n4nc(-c5ccc(Oc6ccc(F)cc6F)cc5)c(C(N)=O)c4N)C3)C2)c(F)c1

> <Shape>
0.259

> <Color>
0.112

> <Negative vol penalty>
0.000

$$$$

  -OEChem-04042321053D

 85 93  0     1  0  0  0  0  0999 V2000
  -25.4692  -28.4521   30.3853 C   0  0  0  0  0  0  0  0  0  0  0  0
  -26.5377  -27.7755   29.8056 C   0  0  0  0  0  0  0  0  0  0  0  0
  -23.2007   -9.7857   20.3137 C   0  0  0  0  0  0  0  0  0  0  0  0
  -24.1170  -10.0843   22.5292 C   0  0  0  0  0  0  0  0  0  0  0  0
  -24.3969  -28.8659   29.5960 C   0  0  0  0  0  0  0  0  0  0  0  0
  -26.5339  -27.5113   28.4364 C   0  0  0  0  0  0  0  0  0  0  0  0
  -30.9863  -26.8804   22.8602 C   0  0  0  0  0  0  0  0  0  0  0  0
  -28.6585  -19.1128   19.8182 C   0  0  0  0  0  0  0  0  0  0  0  0
  -28.7770  -20.2677   19.0451 C   0  0  0  0  0  0  0  0  0  0  0  0
  -22.5550   -8.6242   20.7373 C   0  0  0  0  0  0  0  0  0  0  0  0
  -23.4712   -8.9228   22.9528 C   0  0  0  0  0  0  0  0  0  0  0  0
  -31.3026  -25.9970   21.8290 C   0  0  0  0  0  0  0  0  0  0  0  0
  -20.3537   -8.0049   23.8798 C   0  0  0  0  0  0  0  0  0  0  0  0
  -19.6849   -8.0465   25.1031 C   0  0  0  0  0  0  0  0  0  0  0  0
  -29.4334  -26.8291   20.5511 C   0  0  0  0  0  0  0  0  0  0  0  0
  -29.5436  -17.8002   17.9932 C   0  0  0  0  0  0  0  0  0  0  0  0
  -21.1016   -6.2763   25.9378 C   0  0  0  0  0  0  0  0  0  0  0  0
  -23.9818  -10.5157   21.2096 C   0  0  0  0  0  0  0  0  0  0  0  0
  -24.1447  -13.0291   20.8045 C   0  0  0  0  0  0  0  0  0  0  0  0
  -24.3845  -28.6151   28.2149 C   0  0  0  0  0  0  0  0  0  0  0  0
  -29.8829  -27.7386   22.7489 C   0  0  0  0  0  0  0  0  0  0  0  0
  -25.4598  -27.9209   27.6282 C   0  0  0  0  0  0  0  0  0  0  0  0
  -29.1068  -27.7243   21.5812 C   0  0  0  0  0  0  0  0  0  0  0  0
  -29.0419  -17.8790   19.2923 C   0  0  0  0  0  0  0  0  0  0  0  0
  -29.2787  -20.1889   17.7460 C   0  0  0  0  0  0  0  0  0  0  0  0
  -22.6902   -8.1927   22.0568 C   0  0  0  0  0  0  0  0  0  0  0  0
  -30.5244  -25.9692   20.6754 C   0  0  0  0  0  0  0  0  0  0  0  0
  -21.3964   -7.0990   23.6854 C   0  0  0  0  0  0  0  0  0  0  0  0
  -20.0588   -7.1822   26.1321 C   0  0  0  0  0  0  0  0  0  0  0  0
  -29.6620  -18.9552   17.2200 C   0  0  0  0  0  0  0  0  0  0  0  0
  -21.7704   -6.2347   24.7144 C   0  0  0  0  0  0  0  0  0  0  0  0
  -24.6496  -11.7154   20.7725 C   0  0  0  0  0  0  0  0  0  0  0  0
  -25.1562  -13.7984   20.2834 C   0  0  0  0  0  0  0  0  0  0  0  0
  -22.8750  -13.5109   21.2642 C   0  0  0  0  0  0  0  0  0  0  0  0
  -27.1691  -28.1234   24.3586 C   0  0  0  0  0  0  0  0  0  0  0  0
  -26.8214  -30.6813   22.3944 C   0  0  0  0  0  0  0  0  0  0  0  0
  -27.6048  -32.1890   19.4346 C   0  0  0  0  0  0  0  0  0  0  0  0
  -30.7314  -14.9038   20.3934 C   0  0  0  0  0  0  0  0  0  0  0  0
  -23.1814  -29.0400   27.4107 C   0  0  0  0  0  0  0  0  0  0  0  0
  -29.5710  -28.7044   23.8590 C   0  0  0  0  0  0  0  0  0  0  0  0
  -27.9238  -28.6395   21.4039 C   0  0  0  0  0  0  0  0  0  0  0  0
  -23.4286  -29.0511   25.9044 C   0  0  0  0  0  0  0  0  0  0  0  0
  -29.4171  -12.4966   17.9075 C   0  0  0  0  0  0  0  0  0  0  0  0
  -24.1322  -27.7695   25.4695 C   0  0  0  0  0  0  0  0  0  0  0  0
  -28.0472  -12.1394   18.4817 C   0  0  0  0  0  0  0  0  0  0  0  0
  -30.4047  -12.8923   19.0010 C   0  0  0  0  0  0  0  0  0  0  0  0
  -28.5485  -13.6296   20.4587 C   0  0  0  0  0  0  0  0  0  0  0  0
  -25.5038  -27.6376   26.1423 C   0  0  1  0  0  0  0  0  0  0  0  0
  -28.1189  -29.1724   23.8535 C   0  0  1  0  0  0  0  0  0  0  0  0
  -27.5165  -13.2710   19.3790 C   0  0  2  0  0  0  0  0  0  0  0  0
  -27.1377  -34.2580   18.0936 C   0  0  0  0  0  0  0  0  0  0  0  0
  -24.0830  -29.5691   21.6367 C   0  0  0  0  0  0  0  0  0  0  0  0
  -24.0862  -31.1008   19.6562 C   0  0  0  0  0  0  0  0  0  0  0  0
  -24.1483  -32.0477   21.9632 C   0  0  0  0  0  0  0  0  0  0  0  0
  -29.9232  -21.2702   15.6069 C   0  0  0  0  0  0  0  0  0  0  0  0
  -31.0738  -17.2204   21.1653 C   0  0  0  0  0  0  0  0  0  0  0  0
  -30.4528  -32.9931   19.4670 C   0  0  0  0  0  0  0  0  0  0  0  0
  -28.9154  -16.6443   20.1189 C   0  0  0  0  0  0  0  0  0  0  0  0
  -30.1002  -23.2479   18.3381 C   0  0  0  0  0  0  0  0  0  0  0  0
  -28.9963  -22.6405   17.4809 C   0  0  0  0  0  0  0  0  0  0  0  0
  -29.7483  -24.6331   18.8676 C   0  0  0  0  0  0  0  0  0  1  0  0
  -26.2061  -30.9094   21.0348 C   0  0  1  0  0  0  0  0  0  0  0  0
  -28.0565  -33.6021   19.1126 C   0  0  2  0  0  0  0  0  0  0  0  0
  -24.6520  -30.8880   21.0766 C   0  0  0  0  0  0  0  0  0  0  0  0
  -25.8856  -11.6501   20.2706 N   0  0  0  0  0  0  0  0  0  0  0  0
  -26.1659  -12.9324   19.9824 N   0  0  0  0  0  0  0  0  0  0  0  0
  -27.6555  -29.5614   22.5200 N   0  0  0  0  0  0  0  0  0  0  0  0
  -29.8580  -13.9389   19.8653 N   0  0  0  0  0  0  0  0  0  0  0  0
  -25.2714  -15.1244   20.0578 N   0  0  0  0  0  0  0  0  0  0  0  0
  -21.9522  -12.5851   21.7698 N   0  0  0  0  0  0  0  0  0  0  0  0
  -26.4707  -28.4954   25.4914 N   0  0  0  0  0  0  0  0  0  0  0  0
  -26.7733  -32.1568   20.5341 N   0  0  0  0  0  0  0  0  0  0  0  0
  -29.3967  -21.3514   16.9708 N   0  0  3  0  0  0  0  0  0  0  0  0
  -30.2045  -16.1827   20.6292 N   0  0  0  0  0  0  0  0  0  0  0  0
  -29.4400  -33.5900   18.5587 N   0  3  0  0  0  0  0  0  0  0  0  0
  -22.5615  -14.7245   21.2124 O   0  0  0  0  0  0  0  0  0  0  0  0
  -27.0757  -27.0561   23.7638 O   0  0  0  0  0  0  0  0  0  0  0  0
  -26.5768  -31.4718   23.3092 O   0  0  0  0  0  0  0  0  0  0  0  0
  -27.9516  -31.2121   18.7745 O   0  0  0  0  0  0  0  0  0  0  0  0
  -31.9171  -14.6401   20.6311 O   0  0  0  0  0  0  0  0  0  0  0  0
  -22.0600   -7.0595   22.4706 O   0  0  0  0  0  0  0  0  0  0  0  0
  -30.8305  -25.1075   19.6677 O   0  0  0  0  0  0  0  0  0  1  0  0
  -19.4175   -7.2233   27.3074 F   0  0  0  0  0  0  0  0  0  0  0  0
  -30.1456  -18.8679   15.9727 F   0  0  0  0  0  0  0  0  0  0  0  0
  -22.7721   -5.3631   24.5340 F   0  0  0  0  0  0  0  0  0  0  0  0
  1  2  1  0  0  0  0
  1  5  2  0  0  0  0
  2  6  2  0  0  0  0
  3 10  2  0  0  0  0
  3 18  1  0  0  0  0
  4 11  1  0  0  0  0
  4 18  2  0  0  0  0
  5 20  1  0  0  0  0
  6 22  1  0  0  0  0
  7 12  2  0  0  0  0
  7 21  1  0  0  0  0
  8  9  2  0  0  0  0
  8 24  1  0  0  0  0
  9 25  1  0  0  0  0
 10 26  1  0  0  0  0
 11 26  2  0  0  0  0
 12 27  1  0  0  0  0
 13 14  2  0  0  0  0
 13 28  1  0  0  0  0
 14 29  1  0  0  0  0
 15 23  1  0  0  0  0
 15 27  2  0  0  0  0
 16 24  2  0  0  0  0
 16 30  1  0  0  0  0
 17 29  2  0  0  0  0
 17 31  1  0  0  0  0
 18 32  1  0  0  0  0
 19 32  1  0  0  0  0
 19 33  2  0  0  0  0
 19 34  1  0  0  0  0
 20 22  2  0  0  0  0
 20 39  1  0  0  0  0
 21 23  2  0  0  0  0
 21 40  1  0  0  0  0
 22 48  1  0  0  0  0
 23 41  1  0  0  0  0
 24 58  1  0  0  0  0
 25 30  2  0  0  0  0
 25 73  1  0  0  0  0
 26 81  1  0  0  0  0
 27 82  1  0  0  0  0
 28 31  2  0  0  0  0
 28 81  1  0  0  0  0
 29 83  1  0  0  0  0
 30 84  1  0  0  0  0
 31 85  1  0  0  0  0
 32 65  2  0  0  0  0
 33 66  1  0  0  0  0
 33 69  1  0  0  0  0
 34 70  1  0  0  0  0
 34 76  2  0  0  0  0
 35 49  1  0  0  0  0
 35 71  1  0  0  0  0
 35 77  2  0  0  0  0
 36 62  1  0  0  0  0
 36 67  1  0  0  0  0
 36 78  2  0  0  0  0
 37 63  1  0  0  0  0
 37 72  1  0  0  0  0
 37 79  2  0  0  0  0
 38 68  1  0  0  0  0
 38 74  1  0  0  0  0
 38 80  2  0  0  0  0
 39 42  1  0  0  0  0
 40 49  1  0  0  0  0
 41 67  1  0  0  0  0
 42 44  1  0  0  0  0
 43 45  1  0  0  0  0
 43 46  1  0  0  0  0
 44 48  1  0  0  0  0
 45 50  1  0  0  0  0
 46 68  1  0  0  0  0
 47 50  1  0  0  0  0
 47 68  1  0  0  0  0
 48 71  1  0  0  0  0
 49 67  1  0  0  0  0
 50 66  1  0  0  0  0
 51 63  1  0  0  0  0
 52 64  1  0  0  0  0
 53 64  1  0  0  0  0
 54 64  1  0  0  0  0
 55 73  1  0  0  0  0
 56 74  1  0  0  0  0
 57 75  1  0  0  0  0
 58 74  1  0  0  0  0
 59 60  1  0  0  0  0
 59 61  1  0  0  0  0
 60 73  1  0  0  0  0
 61 82  1  0  0  0  0
 62 64  1  0  0  0  0
 62 72  1  0  0  0  0
 63 75  1  0  0  0  0
 65 66  1  0  0  0  0
M  CHG  1  75   1
M  ISO  4  38 100  61 101  74 100  82 101
M  END
> <Batch ID>
0019

> <Smiles>
CNC(C)C(=O)NC(C(=O)N1Cc2cc([101O:1][101CH2:1]CCN(C)c3ccc(C[100N:0](C)[100C:0](=O)N4CCCC(n5nc(-c6ccc(Oc7ccc(F)cc7F)cc6)c(C(N)=O)c5N)C4)cc3F)ccc2CC1C(=O)NC1CCCc2ccccc21)C(C)(C)C

> <Shape>
0.309

> <Color>
0.194

> <Negative vol penalty>
0.000

$$$$

  -OEChem-04042321053D

 84 92  0     1  0  0  0  0  0999 V2000
  -19.2909  -24.3266   23.1527 C   0  0  0  0  0  0  0  0  0  0  0  0
  -20.6256  -24.5034   22.8025 C   0  0  0  0  0  0  0  0  0  0  0  0
  -25.1742  -25.3061   20.7144 C   0  0  0  0  0  0  0  0  0  0  0  0
  -25.8970  -12.6357   21.7641 C   0  0  0  0  0  0  0  0  0  0  0  0
  -25.2539  -13.6389   19.6625 C   0  0  0  0  0  0  0  0  0  0  0  0
  -18.4126  -25.4088   23.1165 C   0  0  0  0  0  0  0  0  0  0  0  0
  -21.0826  -25.7625   22.4147 C   0  0  0  0  0  0  0  0  0  0  0  0
  -25.5007  -26.9749   24.5724 C   0  0  0  0  0  0  0  0  0  0  0  0
  -26.2989  -25.4304   19.8987 C   0  0  0  0  0  0  0  0  0  0  0  0
  -24.9520  -24.1238   21.4204 C   0  0  0  0  0  0  0  0  0  0  0  0
  -25.4946  -11.3868   21.2912 C   0  0  0  0  0  0  0  0  0  0  0  0
  -24.8515  -12.3899   19.1894 C   0  0  0  0  0  0  0  0  0  0  0  0
  -26.6511  -26.3996   24.0344 C   0  0  0  0  0  0  0  0  0  0  0  0
  -22.5959   -9.7024   20.8609 C   0  0  0  0  0  0  0  0  0  0  0  0
  -21.8373   -8.9009   21.7139 C   0  0  0  0  0  0  0  0  0  0  0  0
  -27.1014  -28.4408   22.8302 C   0  0  0  0  0  0  0  0  0  0  0  0
  -23.5410   -7.1902   21.6214 C   0  0  0  0  0  0  0  0  0  0  0  0
  -25.7766  -13.7618   20.9498 C   0  0  0  0  0  0  0  0  0  0  0  0
  -27.4686  -15.6338   21.3245 C   0  0  0  0  0  0  0  0  0  0  0  0
  -18.8612  -26.6839   22.7374 C   0  0  0  0  0  0  0  0  0  0  0  0
  -25.1355  -28.2859   24.2342 C   0  0  0  0  0  0  0  0  0  0  0  0
  -20.2092  -26.8625   22.3721 C   0  0  0  0  0  0  0  0  0  0  0  0
  -25.9472  -29.0312   23.3672 C   0  0  0  0  0  0  0  0  0  0  0  0
  -27.2012  -24.3724   19.7889 C   0  0  0  0  0  0  0  0  0  0  0  0
  -25.8543  -23.0658   21.3106 C   0  0  0  0  0  0  0  0  0  0  0  0
  -24.9719  -11.2638   20.0038 C   0  0  0  0  0  0  0  0  0  0  0  0
  -27.4501  -27.1315   23.1609 C   0  0  0  0  0  0  0  0  0  0  0  0
  -23.8270   -9.2479   20.3881 C   0  0  0  0  0  0  0  0  0  0  0  0
  -22.3099   -7.6448   22.0942 C   0  0  0  0  0  0  0  0  0  0  0  0
  -24.2995   -7.9918   20.7684 C   0  0  0  0  0  0  0  0  0  0  0  0
  -26.9789  -23.1900   20.4949 C   0  0  0  0  0  0  0  0  0  0  0  0
  -26.1916  -15.0524   21.4380 C   0  0  0  0  0  0  0  0  0  0  0  0
  -27.3466  -16.8539   21.9433 C   0  0  0  0  0  0  0  0  0  0  0  0
  -28.6588  -15.1171   20.7143 C   0  0  0  0  0  0  0  0  0  0  0  0
  -22.6385  -29.6158   22.7850 C   0  0  0  0  0  0  0  0  0  0  0  0
  -24.1150  -32.3784   23.6279 C   0  0  0  0  0  0  0  0  0  0  0  0
  -27.0133  -33.9784   24.4567 C   0  0  0  0  0  0  0  0  0  0  0  0
  -24.5600  -21.5821   22.8823 C   0  0  0  0  0  0  0  0  0  0  0  0
  -17.8641  -27.8133   22.6680 C   0  0  0  0  0  0  0  0  0  0  0  0
  -23.9059  -28.9012   24.8439 C   0  0  0  0  0  0  0  0  0  0  0  0
  -25.6101  -30.4494   22.9882 C   0  0  0  0  0  0  0  0  0  0  0  0
  -18.5115  -29.1944   22.6065 C   0  0  0  0  0  0  0  0  0  0  0  0
  -23.6217  -18.7373   24.8068 C   0  0  0  0  0  0  0  0  0  0  0  0
  -19.6431  -29.2085   21.5836 C   0  0  0  0  0  0  0  0  0  0  0  0
  -24.3117  -17.5728   24.0926 C   0  0  0  0  0  0  0  0  0  0  0  0
  -23.1177  -19.7891   23.8202 C   0  0  0  0  0  0  0  0  0  0  0  0
  -24.8163  -19.1258   22.1637 C   0  0  0  0  0  0  0  0  0  0  0  0
  -20.7483  -28.2181   21.9700 C   0  0  1  0  0  0  0  0  0  0  0  0
  -23.3531  -30.0656   24.0279 C   0  0  1  0  0  0  0  0  0  0  0  0
  -25.3983  -18.0724   23.1203 C   0  0  2  0  0  0  0  0  0  0  0  0
  -27.9109  -36.2441   25.0550 C   0  0  0  0  0  0  0  0  0  0  0  0
  -23.9449  -33.2165   20.6990 C   0  0  0  0  0  0  0  0  0  0  0  0
  -25.6525  -34.9838   21.1778 C   0  0  0  0  0  0  0  0  0  0  0  0
  -23.4440  -35.0393   22.3364 C   0  0  0  0  0  0  0  0  0  0  0  0
  -27.9246  -33.0440   27.1129 C   0  0  0  0  0  0  0  0  0  0  0  0
  -30.1262  -26.1472   18.1537 C   0  0  0  0  0  0  0  0  0  0  0  0
  -28.4099  -24.5097   18.9108 C   0  0  0  0  0  0  0  0  0  0  0  0
  -30.5396  -26.5669   21.2605 C   0  0  0  0  0  0  0  0  0  0  0  0
  -30.1545  -25.3079   20.4982 C   0  0  0  0  0  0  0  0  0  0  0  0
  -29.3453  -27.3792   21.7457 C   0  0  0  0  0  0  0  0  0  1  0  0
  -25.1408  -33.2812   22.9863 C   0  0  1  0  0  0  0  0  0  0  0  0
  -27.3480  -34.9353   25.5867 C   0  0  2  0  0  0  0  0  0  0  0  0
  -24.5512  -34.1028   21.8053 C   0  0  0  0  0  0  0  0  0  0  0  0
  -25.3223  -15.8384   22.0787 N   0  0  0  0  0  0  0  0  0  0  0  0
  -26.0544  -16.9262   22.3733 N   0  0  0  0  0  0  0  0  0  0  0  0
  -24.3943  -31.0046   23.6056 N   0  0  0  0  0  0  0  0  0  0  0  0
  -24.2022  -20.2183   22.9345 N   0  0  0  0  0  0  0  0  0  0  0  0
  -28.2198  -17.8612   22.1561 N   0  0  0  0  0  0  0  0  0  0  0  0
  -28.6096  -13.8470   20.1239 N   0  0  0  0  0  0  0  0  0  0  0  0
  -25.6262  -21.8663   22.0296 N   0  0  0  0  0  0  0  0  0  0  0  0
  -21.5738  -28.7680   23.0238 N   0  0  0  0  0  0  0  0  0  0  0  0
  -25.6975  -34.0953   24.0613 N   0  0  0  0  0  0  0  0  0  0  0  0
  -28.3564  -34.3263   26.4995 N   0  3  0  0  0  0  0  0  0  0  0  0
  -29.3156  -25.6448   19.3242 N   0  3  1  0  0  0  0  0  0  0  0  0
  -29.7383  -15.7559   20.7076 O   0  0  0  0  0  0  0  0  0  0  0  0
  -23.0237  -30.0100   21.6905 O   0  0  0  0  0  0  0  0  0  0  0  0
  -23.1067  -32.8744   24.1366 O   0  0  0  0  0  0  0  0  0  0  0  0
  -27.8377  -33.2072   23.9707 O   0  0  0  0  0  0  0  0  0  0  0  0
  -23.9823  -22.4313   23.5659 O   0  0  0  0  0  0  0  0  0  0  0  0
  -24.5793  -10.0452   19.5419 O   0  0  0  0  0  0  0  0  0  0  0  0
  -28.5731  -26.5722   22.6339 O   0  0  0  0  0  0  0  0  0  1  0  0
  -21.5820   -6.8758   22.9146 F   0  0  0  0  0  0  0  0  0  0  0  0
  -25.4820   -7.5502   20.3183 F   0  0  0  0  0  0  0  0  0  0  0  0
  -27.8480  -22.1735   20.3898 F   0  0  0  0  0  0  0  0  0  0  0  0
  1  2  1  0  0  0  0
  1  6  2  0  0  0  0
  2  7  2  0  0  0  0
  3  9  2  0  0  0  0
  3 10  1  0  0  0  0
  4 11  2  0  0  0  0
  4 18  1  0  0  0  0
  5 12  1  0  0  0  0
  5 18  2  0  0  0  0
  6 20  1  0  0  0  0
  7 22  1  0  0  0  0
  8 13  2  0  0  0  0
  8 21  1  0  0  0  0
  9 24  1  0  0  0  0
 10 25  2  0  0  0  0
 11 26  1  0  0  0  0
 12 26  2  0  0  0  0
 13 27  1  0  0  0  0
 14 15  2  0  0  0  0
 14 28  1  0  0  0  0
 15 29  1  0  0  0  0
 16 23  1  0  0  0  0
 16 27  2  0  0  0  0
 17 29  2  0  0  0  0
 17 30  1  0  0  0  0
 18 32  1  0  0  0  0
 19 32  1  0  0  0  0
 19 33  2  0  0  0  0
 19 34  1  0  0  0  0
 20 22  2  0  0  0  0
 20 39  1  0  0  0  0
 21 23  2  0  0  0  0
 21 40  1  0  0  0  0
 22 48  1  0  0  0  0
 23 41  1  0  0  0  0
 24 31  2  0  0  0  0
 24 57  1  0  0  0  0
 25 31  1  0  0  0  0
 25 70  1  0  0  0  0
 26 80  1  0  0  0  0
 27 81  1  0  0  0  0
 28 30  2  0  0  0  0
 28 80  1  0  0  0  0
 29 82  1  0  0  0  0
 30 83  1  0  0  0  0
 31 84  1  0  0  0  0
 32 64  2  0  0  0  0
 33 65  1  0  0  0  0
 33 68  1  0  0  0  0
 34 69  1  0  0  0  0
 34 75  2  0  0  0  0
 35 49  1  0  0  0  0
 35 71  1  0  0  0  0
 35 76  2  0  0  0  0
 36 61  1  0  0  0  0
 36 66  1  0  0  0  0
 36 77  2  0  0  0  0
 37 62  1  0  0  0  0
 37 72  1  0  0  0  0
 37 78  2  0  0  0  0
 38 67  1  0  0  0  0
 38 70  1  0  0  0  0
 38 79  2  0  0  0  0
 39 42  1  0  0  0  0
 40 49  1  0  0  0  0
 41 66  1  0  0  0  0
 42 44  1  0  0  0  0
 43 45  1  0  0  0  0
 43 46  1  0  0  0  0
 44 48  1  0  0  0  0
 45 50  1  0  0  0  0
 46 67  1  0  0  0  0
 47 50  1  0  0  0  0
 47 67  1  0  0  0  0
 48 71  1  0  0  0  0
 49 66  1  0  0  0  0
 50 65  1  0  0  0  0
 51 62  1  0  0  0  0
 52 63  1  0  0  0  0
 53 63  1  0  0  0  0
 54 63  1  0  0  0  0
 55 73  1  0  0  0  0
 56 74  1  0  0  0  0
 57 74  1  0  0  0  0
 58 59  1  0  0  0  0
 58 60  1  0  0  0  0
 59 74  1  0  0  0  0
 60 81  1  0  0  0  0
 61 63  1  0  0  0  0
 61 72  1  0  0  0  0
 62 73  1  0  0  0  0
 64 65  1  0  0  0  0
M  CHG  2  73   1  74   1
M  ISO  4  38 100  60 101  70 100  81 101
M  END
> <Batch ID>
0019

> <Smiles>
CNC(C)C(=O)NC(C(=O)N1Cc2cc([101O:1][101CH2:1]CCN(C)Cc3cccc([100NH:0][100C:0](=O)N4CCCC(n5nc(-c6ccc(Oc7ccc(F)cc7F)cc6)c(C(N)=O)c5N)C4)c3F)ccc2CC1C(=O)NC1CCCc2ccccc21)C(C)(C)C

> <Shape>
0.251

> <Color>
0.081

> <Negative vol penalty>
0.000

$$$$

  -OEChem-04042321053D

 86 94  0     1  0  0  0  0  0999 V2000
  -18.5713  -33.5544   23.4863 C   0  0  0  0  0  0  0  0  0  0  0  0
  -19.7673  -33.5452   22.7757 C   0  0  0  0  0  0  0  0  0  0  0  0
  -28.0876  -12.7663   21.4890 C   0  0  0  0  0  0  0  0  0  0  0  0
  -26.1287  -13.7166   20.4417 C   0  0  0  0  0  0  0  0  0  0  0  0
  -18.2663  -32.5026   24.3491 C   0  0  0  0  0  0  0  0  0  0  0  0
  -20.6596  -32.4846   22.9285 C   0  0  0  0  0  0  0  0  0  0  0  0
  -25.4827  -28.6727   19.2510 C   0  0  0  0  0  0  0  0  0  0  0  0
  -27.7427  -23.2950   17.2658 C   0  0  0  0  0  0  0  0  0  0  0  0
  -27.2847  -11.8319   22.1430 C   0  0  0  0  0  0  0  0  0  0  0  0
  -25.3258  -12.7821   21.0957 C   0  0  0  0  0  0  0  0  0  0  0  0
  -26.8087  -28.2496   19.3307 C   0  0  0  0  0  0  0  0  0  0  0  0
  -24.4919   -9.5276   20.7305 C   0  0  0  0  0  0  0  0  0  0  0  0
  -23.5044   -8.8872   19.9820 C   0  0  0  0  0  0  0  0  0  0  0  0
  -28.1860  -24.5030   16.7274 C   0  0  0  0  0  0  0  0  0  0  0  0
  -26.1402  -26.4482   20.7891 C   0  0  0  0  0  0  0  0  0  0  0  0
  -29.8448  -23.0422   18.4296 C   0  0  0  0  0  0  0  0  0  0  0  0
  -21.8099   -9.7759   21.4571 C   0  0  0  0  0  0  0  0  0  0  0  0
  -27.5096  -13.7087   20.6384 C   0  0  0  0  0  0  0  0  0  0  0  0
  -28.9468  -14.5382   18.7009 C   0  0  0  0  0  0  0  0  0  0  0  0
  -19.1509  -31.4238   24.5052 C   0  0  0  0  0  0  0  0  0  0  0  0
  -24.4753  -27.9920   19.9498 C   0  0  0  0  0  0  0  0  0  0  0  0
  -20.3668  -31.4180   23.7953 C   0  0  0  0  0  0  0  0  0  0  0  0
  -24.8018  -26.8631   20.7147 C   0  0  0  0  0  0  0  0  0  0  0  0
  -28.5721  -22.5646   18.1169 C   0  0  0  0  0  0  0  0  0  0  0  0
  -30.2881  -24.2502   17.8912 C   0  0  0  0  0  0  0  0  0  0  0  0
  -25.9037  -11.8397   21.9463 C   0  0  0  0  0  0  0  0  0  0  0  0
  -27.1381  -27.1390   20.1021 C   0  0  0  0  0  0  0  0  0  0  0  0
  -24.1384  -10.2921   21.8424 C   0  0  0  0  0  0  0  0  0  0  0  0
  -22.1634   -9.0114   20.3452 C   0  0  0  0  0  0  0  0  0  0  0  0
  -22.7975  -10.4163   22.2057 C   0  0  0  0  0  0  0  0  0  0  0  0
  -29.4587  -24.9806   17.0401 C   0  0  0  0  0  0  0  0  0  0  0  0
  -28.3385  -14.6746   19.9630 C   0  0  0  0  0  0  0  0  0  0  0  0
  -29.6194  -15.7211   18.5142 C   0  0  0  0  0  0  0  0  0  0  0  0
  -28.9074  -13.4403   17.7795 C   0  0  0  0  0  0  0  0  0  0  0  0
  -22.4287  -28.7666   22.2553 C   0  0  0  0  0  0  0  0  0  0  0  0
  -21.2568  -25.7976   21.6772 C   0  0  0  0  0  0  0  0  0  0  0  0
  -21.8070  -22.6467   20.4873 C   0  0  0  0  0  0  0  0  0  0  0  0
  -28.5916  -21.1455   21.1707 C   0  0  0  0  0  0  0  0  0  0  0  0
  -18.7993  -30.3327   25.4853 C   0  0  0  0  0  0  0  0  0  0  0  0
  -23.0458  -28.4450   19.8321 C   0  0  0  0  0  0  0  0  0  0  0  0
  -23.7545  -26.0855   21.4677 C   0  0  0  0  0  0  0  0  0  0  0  0
  -19.6280  -29.0632   25.3066 C   0  0  0  0  0  0  0  0  0  0  0  0
  -31.7596  -19.2465   20.9279 C   0  0  0  0  0  0  0  0  0  0  0  0
  -21.1066  -29.4074   25.1576 C   0  0  0  0  0  0  0  0  0  0  0  0
  -31.2765  -17.8312   20.6155 C   0  0  0  0  0  0  0  0  0  0  0  0
  -30.7254  -20.0359   21.7248 C   0  0  0  0  0  0  0  0  0  0  0  0
  -28.8982  -18.6671   20.7752 C   0  0  0  0  0  0  0  0  0  0  0  0
  -21.3491  -30.2731   23.9153 C   0  0  1  0  0  0  0  0  0  0  0  0
  -22.1753  -27.9848   20.9974 C   0  0  1  0  0  0  0  0  0  0  0  0
  -29.8978  -17.8603   19.9331 C   0  0  2  0  0  0  0  0  0  0  0  0
  -20.6712  -20.4299   20.1826 C   0  0  0  0  0  0  0  0  0  0  0  0
  -21.5733  -25.2284   24.6581 C   0  0  0  0  0  0  0  0  0  0  0  0
  -21.3461  -22.7884   24.1453 C   0  0  0  0  0  0  0  0  0  0  0  0
  -19.4632  -24.3467   23.6460 C   0  0  0  0  0  0  0  0  0  0  0  0
  -26.4625  -22.0822   20.3525 C   0  0  0  0  0  0  0  0  0  0  0  0
  -22.1353  -22.7516   17.5479 C   0  0  0  0  0  0  0  0  0  0  0  0
  -32.9704  -26.7906   18.7466 C   0  0  0  0  0  0  0  0  0  0  0  0
  -28.0978  -21.2728   18.6923 C   0  0  0  0  0  0  0  0  0  0  0  0
  -31.6630  -24.7297   18.2528 C   0  0  0  0  0  0  0  0  0  0  0  0
  -30.6652  -27.2845   20.8539 C   0  0  0  0  0  0  0  0  0  0  0  0
  -31.2710  -25.9743   20.3736 C   0  0  0  0  0  0  0  0  0  0  0  0
  -29.4430  -27.7234   20.0568 C   0  0  0  0  0  0  0  0  0  1  0  0
  -21.5419  -24.4136   22.2084 C   0  0  1  0  0  0  0  0  0  0  0  0
  -21.0010  -21.7707   19.5453 C   0  0  2  0  0  0  0  0  0  0  0  0
  -21.0014  -24.2099   23.6519 C   0  0  0  0  0  0  0  0  0  0  0  0
  -28.6014  -15.8513   20.5377 N   0  0  0  0  0  0  0  0  0  0  0  0
  -29.3826  -16.4650   19.6325 N   0  0  0  0  0  0  0  0  0  0  0  0
  -22.3720  -26.5715   21.3262 N   0  0  0  0  0  0  0  0  0  0  0  0
  -29.4142  -20.0110   21.0758 N   0  0  0  0  0  0  0  0  0  0  0  0
  -30.3845  -16.1869   17.5043 N   0  0  0  0  0  0  0  0  0  0  0  0
  -28.1692  -12.3013   18.1286 N   0  0  0  0  0  0  0  0  0  0  0  0
  -21.3263  -29.4585   22.7194 N   0  0  0  0  0  0  0  0  0  0  0  0
  -20.9966  -23.4800   21.2289 N   0  0  0  0  0  0  0  0  0  0  0  0
  -27.7214  -21.3961   20.0989 N   0  0  0  0  0  0  0  0  0  0  0  0
  -21.7648  -21.5195   18.2905 N   0  3  0  0  0  0  0  0  0  0  0  0
  -31.6585  -26.0706   18.9467 N   0  3  1  0  0  0  0  0  0  0  0  0
  -29.5225  -13.4621   16.6865 O   0  0  0  0  0  0  0  0  0  0  0  0
  -23.5416  -28.7426   22.7678 O   0  0  0  0  0  0  0  0  0  0  0  0
  -20.0874  -26.1755   21.5707 O   0  0  0  0  0  0  0  0  0  0  0  0
  -23.0327  -22.5942   20.5607 O   0  0  0  0  0  0  0  0  0  0  0  0
  -28.6394  -21.8972   22.1529 O   0  0  0  0  0  0  0  0  0  0  0  0
  -25.1200  -10.9279   22.5841 O   0  0  0  0  0  0  0  0  0  0  0  0
  -28.4318  -26.7244   20.1820 O   0  0  0  0  0  0  0  0  0  1  0  0
  -21.2150   -8.3976   19.6254 F   0  0  0  0  0  0  0  0  0  0  0  0
  -22.4517  -11.1503   23.2722 F   0  0  0  0  0  0  0  0  0  0  0  0
  -29.9735  -26.4791   16.3557 Cl  0  0  0  0  0  0  0  0  0  0  0  0
  1  2  1  0  0  0  0
  1  5  2  0  0  0  0
  2  6  2  0  0  0  0
  3  9  2  0  0  0  0
  3 18  1  0  0  0  0
  4 10  1  0  0  0  0
  4 18  2  0  0  0  0
  5 20  1  0  0  0  0
  6 22  1  0  0  0  0
  7 11  2  0  0  0  0
  7 21  1  0  0  0  0
  8 14  2  0  0  0  0
  8 24  1  0  0  0  0
  9 26  1  0  0  0  0
 10 26  2  0  0  0  0
 11 27  1  0  0  0  0
 12 13  2  0  0  0  0
 12 28  1  0  0  0  0
 13 29  1  0  0  0  0
 14 31  1  0  0  0  0
 15 23  1  0  0  0  0
 15 27  2  0  0  0  0
 16 24  2  0  0  0  0
 16 25  1  0  0  0  0
 17 29  2  0  0  0  0
 17 30  1  0  0  0  0
 18 32  1  0  0  0  0
 19 32  1  0  0  0  0
 19 33  2  0  0  0  0
 19 34  1  0  0  0  0
 20 22  2  0  0  0  0
 20 39  1  0  0  0  0
 21 23  2  0  0  0  0
 21 40  1  0  0  0  0
 22 48  1  0  0  0  0
 23 41  1  0  0  0  0
 24 58  1  0  0  0  0
 25 31  2  0  0  0  0
 25 59  1  0  0  0  0
 26 82  1  0  0  0  0
 27 83  1  0  0  0  0
 28 30  2  0  0  0  0
 28 82  1  0  0  0  0
 29 84  1  0  0  0  0
 30 85  1  0  0  0  0
 31 86  1  0  0  0  0
 32 66  2  0  0  0  0
 33 67  1  0  0  0  0
 33 70  1  0  0  0  0
 34 71  1  0  0  0  0
 34 77  2  0  0  0  0
 35 49  1  0  0  0  0
 35 72  1  0  0  0  0
 35 78  2  0  0  0  0
 36 63  1  0  0  0  0
 36 68  1  0  0  0  0
 36 79  2  0  0  0  0
 37 64  1  0  0  0  0
 37 73  1  0  0  0  0
 37 80  2  0  0  0  0
 38 69  1  0  0  0  0
 38 74  1  0  0  0  0
 38 81  2  0  0  0  0
 39 42  1  0  0  0  0
 40 49  1  0  0  0  0
 41 68  1  0  0  0  0
 42 44  1  0  0  0  0
 43 45  1  0  0  0  0
 43 46  1  0  0  0  0
 44 48  1  0  0  0  0
 45 50  1  0  0  0  0
 46 69  1  0  0  0  0
 47 50  1  0  0  0  0
 47 69  1  0  0  0  0
 48 72  1  0  0  0  0
 49 68  1  0  0  0  0
 50 67  1  0  0  0  0
 51 64  1  0  0  0  0
 52 65  1  0  0  0  0
 53 65  1  0  0  0  0
 54 65  1  0  0  0  0
 55 74  1  0  0  0  0
 56 75  1  0  0  0  0
 57 76  1  0  0  0  0
 58 74  1  0  0  0  0
 59 76  1  0  0  0  0
 60 61  1  0  0  0  0
 60 62  1  0  0  0  0
 61 76  1  0  0  0  0
 62 83  1  0  0  0  0
 63 65  1  0  0  0  0
 63 73  1  0  0  0  0
 64 75  1  0  0  0  0
 66 67  1  0  0  0  0
M  CHG  2  75   1  76   1
M  ISO  4  38 100  62 101  74 100  83 101
M  END
> <Batch ID>
0019

> <Smiles>
CNC(C)C(=O)NC(C(=O)N1Cc2cc([101O:1][101CH2:1]CCN(C)Cc3cc(C[100N:0](C)[100C:0](=O)N4CCCC(n5nc(-c6ccc(Oc7ccc(F)cc7F)cc6)c(C(N)=O)c5N)C4)ccc3Cl)ccc2CC1C(=O)NC1CCCc2ccccc21)C(C)(C)C

> <Shape>
0.271

> <Color>
0.080

> <Negative vol penalty>
0.000

$$$$

  -OEChem-04042321053D

 91100  0     1  0  0  0  0  0999 V2000
  -16.5848  -27.3659   22.7235 C   0  0  0  0  0  0  0  0  0  0  0  0
  -17.7110  -26.7216   22.2215 C   0  0  0  0  0  0  0  0  0  0  0  0
  -27.1143  -13.2201   21.3675 C   0  0  0  0  0  0  0  0  0  0  0  0
  -26.7162  -13.9861   19.1110 C   0  0  0  0  0  0  0  0  0  0  0  0
  -16.5750  -28.7545   22.8480 C   0  0  0  0  0  0  0  0  0  0  0  0
  -18.8277  -27.4658   21.8426 C   0  0  0  0  0  0  0  0  0  0  0  0
  -25.2554  -26.3180   24.8853 C   0  0  0  0  0  0  0  0  0  0  0  0
  -26.3408  -12.0863   21.1191 C   0  0  0  0  0  0  0  0  0  0  0  0
  -25.9428  -12.8522   18.8625 C   0  0  0  0  0  0  0  0  0  0  0  0
  -26.5619  -26.0147   25.2689 C   0  0  0  0  0  0  0  0  0  0  0  0
  -23.0581  -11.2984   20.9526 C   0  0  0  0  0  0  0  0  0  0  0  0
  -22.1298  -10.9226   21.9234 C   0  0  0  0  0  0  0  0  0  0  0  0
  -29.2548  -22.5654   20.5087 C   0  0  0  0  0  0  0  0  0  0  0  0
  -27.3919  -27.8528   23.9347 C   0  0  0  0  0  0  0  0  0  0  0  0
  -29.9597  -24.0572   18.2592 C   0  0  0  0  0  0  0  0  0  0  0  0
  -23.2434   -8.7921   22.1637 C   0  0  0  0  0  0  0  0  0  0  0  0
  -27.3019  -14.1701   20.3634 C   0  0  0  0  0  0  0  0  0  0  0  0
  -30.2696  -23.5184   20.5939 C   0  0  0  0  0  0  0  0  0  0  0  0
  -29.4869  -15.4852   20.4235 C   0  0  0  0  0  0  0  0  0  0  0  0
  -17.6957  -29.5153   22.4795 C   0  0  0  0  0  0  0  0  0  0  0  0
  -25.0105  -27.4007   24.0360 C   0  0  0  0  0  0  0  0  0  0  0  0
  -18.8324  -28.8660   21.9610 C   0  0  0  0  0  0  0  0  0  0  0  0
  -26.0842  -28.1691   23.5569 C   0  0  0  0  0  0  0  0  0  0  0  0
  -28.5924  -22.3581   19.2988 C   0  0  0  0  0  0  0  0  0  0  0  0
  -30.6221  -24.2644   19.4692 C   0  0  0  0  0  0  0  0  0  0  0  0
  -25.7551  -11.9022   19.8666 C   0  0  0  0  0  0  0  0  0  0  0  0
  -27.6275  -26.7801   24.7946 C   0  0  0  0  0  0  0  0  0  0  0  0
  -24.0791  -10.4210   20.5872 C   0  0  0  0  0  0  0  0  0  0  0  0
  -22.2224   -9.6695   22.5290 C   0  0  0  0  0  0  0  0  0  0  0  0
  -28.9448  -23.1041   18.1740 C   0  0  0  0  0  0  0  0  0  0  0  0
  -24.1718   -9.1679   21.1928 C   0  0  0  0  0  0  0  0  0  0  0  0
  -28.1003  -15.3418   20.6196 C   0  0  0  0  0  0  0  0  0  0  0  0
  -29.7572  -16.7745   20.8125 C   0  0  0  0  0  0  0  0  0  0  0  0
  -30.9574  -23.7127   21.8964 C   0  0  0  0  0  0  0  0  0  0  0  0
  -30.4450  -14.5378   19.9334 C   0  0  0  0  0  0  0  0  0  0  0  0
  -22.4696  -29.4682   22.2071 C   0  0  0  0  0  0  0  0  0  0  0  0
  -24.5556  -31.4136   23.3361 C   0  0  0  0  0  0  0  0  0  0  0  0
  -26.8284  -33.2461   25.1007 C   0  0  0  0  0  0  0  0  0  0  0  0
  -25.9118  -21.5315   21.1619 C   0  0  0  0  0  0  0  0  0  0  0  0
  -17.6207  -31.0177   22.5879 C   0  0  0  0  0  0  0  0  0  0  0  0
  -23.6251  -27.7263   23.5476 C   0  0  0  0  0  0  0  0  0  0  0  0
  -25.7764  -29.3032   22.6177 C   0  0  0  0  0  0  0  0  0  0  0  0
  -18.9831  -31.7024   22.5150 C   0  0  0  0  0  0  0  0  0  0  0  0
  -33.7710  -26.2614   19.3770 C   0  0  0  0  0  0  0  0  0  0  0  0
  -32.7758  -27.2798   19.8951 C   0  0  0  0  0  0  0  0  0  0  0  0
  -28.2114  -20.2150   23.7465 C   0  0  0  0  0  0  0  0  0  0  0  0
  -19.8056  -31.1334   21.3632 C   0  0  0  0  0  0  0  0  0  0  0  0
  -28.4988  -18.8000   23.2472 C   0  0  0  0  0  0  0  0  0  0  0  0
  -32.8735  -25.2121   18.7310 C   0  0  0  0  0  0  0  0  0  0  0  0
  -31.6391  -26.4059   20.4130 C   0  0  0  0  0  0  0  0  0  0  0  0
  -26.8399  -20.7080   23.2955 C   0  0  0  0  0  0  0  0  0  0  0  0
  -26.9129  -19.2154   21.3255 C   0  0  0  0  0  0  0  0  0  0  0  0
  -20.0723  -29.6366   21.5625 C   0  0  1  0  0  0  0  0  0  0  0  0
  -23.3866  -29.2367   23.3719 C   0  0  1  0  0  0  0  0  0  0  0  0
  -28.3064  -18.7064   21.7235 C   0  0  2  0  0  0  0  0  0  0  0  0
  -27.5128  -35.6149   25.5671 C   0  0  0  0  0  0  0  0  0  0  0  0
  -25.8640  -31.5733   20.5854 C   0  0  0  0  0  0  0  0  0  0  0  0
  -27.2748  -33.4550   21.4441 C   0  0  0  0  0  0  0  0  0  0  0  0
  -24.7936  -33.6978   21.3568 C   0  0  0  0  0  0  0  0  0  0  0  0
  -25.5190  -22.7900   19.0783 C   0  0  0  0  0  0  0  0  0  0  0  0
  -26.2897  -32.9541   27.9961 C   0  0  0  0  0  0  0  0  0  0  0  0
  -27.5087  -21.3374   19.2087 C   0  0  0  0  0  0  0  0  0  0  0  0
  -31.0907  -25.8053   24.4680 C   0  0  0  0  0  0  0  0  0  0  0  0
  -30.6748  -24.3530   24.2767 C   0  0  0  0  0  0  0  0  0  0  0  0
  -29.9431  -26.7841   24.2513 C   0  0  0  0  0  0  0  0  0  1  0  0
  -25.8303  -32.1818   23.0943 C   0  0  1  0  0  0  0  0  0  0  0  0
  -26.6617  -34.4401   26.0232 C   0  0  2  0  0  0  0  0  0  0  0  0
  -25.9408  -32.7017   21.6332 C   0  0  0  0  0  0  0  0  0  0  0  0
  -27.5295  -16.4513   21.0964 N   0  0  0  0  0  0  0  0  0  0  0  0
  -28.5626  -17.3041   21.2032 N   0  0  0  0  0  0  0  0  0  0  0  0
  -31.6442  -25.2305   19.5335 N   0  0  0  0  0  0  0  0  0  0  0  0
  -24.5902  -30.0362   23.0869 N   0  0  0  0  0  0  0  0  0  0  0  0
  -26.6677  -20.5675   21.8492 N   0  0  0  0  0  0  0  0  0  0  0  0
  -30.8978  -17.4953   20.8552 N   0  0  0  0  0  0  0  0  0  0  0  0
  -29.9976  -13.2579   19.5786 N   0  0  0  0  0  0  0  0  0  0  0  0
  -30.1533  -24.1023   22.9616 N   0  0  0  0  0  0  0  0  0  0  0  0
  -21.1271  -29.4359   22.5328 N   0  0  0  0  0  0  0  0  0  0  0  0
  -25.8727  -33.2313   24.1068 N   0  0  0  0  0  0  0  0  0  0  0  0
  -26.2657  -21.7906   19.8291 N   0  0  0  0  0  0  0  0  0  0  0  0
  -27.0625  -34.0808   27.4129 N   0  3  0  0  0  0  0  0  0  0  0  0
  -32.1722  -23.5448   21.9643 O   0  0  0  0  0  0  0  0  0  0  0  0
  -31.6644  -14.8128   19.8291 O   0  0  0  0  0  0  0  0  0  0  0  0
  -22.9440  -29.6635   21.0942 O   0  0  0  0  0  0  0  0  0  0  0  0
  -23.5533  -32.0168   23.7298 O   0  0  0  0  0  0  0  0  0  0  0  0
  -27.7196  -32.4122   25.2449 O   0  0  0  0  0  0  0  0  0  0  0  0
  -24.9803  -22.1334   21.7114 O   0  0  0  0  0  0  0  0  0  0  0  0
  -25.0005  -10.7958   19.6237 O   0  0  0  0  0  0  0  0  0  0  0  0
  -28.9000  -26.4813   25.1768 O   0  0  0  0  0  0  0  0  0  1  0  0
  -21.3318   -9.3094   23.4624 F   0  0  0  0  0  0  0  0  0  0  0  0
  -28.3152  -22.9110   17.0065 F   0  0  0  0  0  0  0  0  0  0  0  0
  -25.1511   -8.3211   20.8468 F   0  0  0  0  0  0  0  0  0  0  0  0
  1  2  1  0  0  0  0
  1  5  2  0  0  0  0
  2  6  2  0  0  0  0
  3  8  2  0  0  0  0
  3 17  1  0  0  0  0
  4  9  1  0  0  0  0
  4 17  2  0  0  0  0
  5 20  1  0  0  0  0
  6 22  1  0  0  0  0
  7 10  2  0  0  0  0
  7 21  1  0  0  0  0
  8 26  1  0  0  0  0
  9 26  2  0  0  0  0
 10 27  1  0  0  0  0
 11 12  2  0  0  0  0
 11 28  1  0  0  0  0
 12 29  1  0  0  0  0
 13 18  1  0  0  0  0
 13 24  2  0  0  0  0
 14 23  1  0  0  0  0
 14 27  2  0  0  0  0
 15 25  1  0  0  0  0
 15 30  2  0  0  0  0
 16 29  2  0  0  0  0
 16 31  1  0  0  0  0
 17 32  1  0  0  0  0
 18 25  2  0  0  0  0
 18 34  1  0  0  0  0
 19 32  1  0  0  0  0
 19 33  2  0  0  0  0
 19 35  1  0  0  0  0
 20 22  2  0  0  0  0
 20 40  1  0  0  0  0
 21 23  2  0  0  0  0
 21 41  1  0  0  0  0
 22 53  1  0  0  0  0
 23 42  1  0  0  0  0
 24 30  1  0  0  0  0
 24 62  1  0  0  0  0
 25 71  1  0  0  0  0
 26 87  1  0  0  0  0
 27 88  1  0  0  0  0
 28 31  2  0  0  0  0
 28 87  1  0  0  0  0
 29 89  1  0  0  0  0
 30 90  1  0  0  0  0
 31 91  1  0  0  0  0
 32 69  2  0  0  0  0
 33 70  1  0  0  0  0
 33 74  1  0  0  0  0
 34 76  1  0  0  0  0
 34 81  2  0  0  0  0
 35 75  1  0  0  0  0
 35 82  2  0  0  0  0
 36 54  1  0  0  0  0
 36 77  1  0  0  0  0
 36 83  2  0  0  0  0
 37 66  1  0  0  0  0
 37 72  1  0  0  0  0
 37 84  2  0  0  0  0
 38 67  1  0  0  0  0
 38 78  1  0  0  0  0
 38 85  2  0  0  0  0
 39 73  1  0  0  0  0
 39 79  1  0  0  0  0
 39 86  2  0  0  0  0
 40 43  1  0  0  0  0
 41 54  1  0  0  0  0
 42 72  1  0  0  0  0
 43 47  1  0  0  0  0
 44 45  1  0  0  0  0
 44 49  1  0  0  0  0
 45 50  1  0  0  0  0
 46 48  1  0  0  0  0
 46 51  1  0  0  0  0
 47 53  1  0  0  0  0
 48 55  1  0  0  0  0
 49 71  1  0  0  0  0
 50 71  1  0  0  0  0
 51 73  1  0  0  0  0
 52 55  1  0  0  0  0
 52 73  1  0  0  0  0
 53 77  1  0  0  0  0
 54 72  1  0  0  0  0
 55 70  1  0  0  0  0
 56 67  1  0  0  0  0
 57 68  1  0  0  0  0
 58 68  1  0  0  0  0
 59 68  1  0  0  0  0
 60 79  1  0  0  0  0
 61 80  1  0  0  0  0
 62 79  1  0  0  0  0
 63 64  1  0  0  0  0
 63 65  1  0  0  0  0
 64 76  1  0  0  0  0
 65 88  1  0  0  0  0
 66 68  1  0  0  0  0
 66 78  1  0  0  0  0
 67 80  1  0  0  0  0
 69 70  1  0  0  0  0
M  CHG  1  80   1
M  ISO  4  39 100  65 101  79 100  88 101
M  END
> <Batch ID>
0019

> <Smiles>
CNC(C)C(=O)NC(C(=O)N1Cc2cc([101O:1][101CH2:1]CCNC(=O)c3cc(C[100N:0](C)[100C:0](=O)N4CCCC(n5nc(-c6ccc(Oc7ccc(F)cc7F)cc6)c(C(N)=O)c5N)C4)c(F)cc3N3CCCC3)ccc2CC1C(=O)NC1CCCc2ccccc21)C(C)(C)C

> <Shape>
0.288

> <Color>
0.087

> <Negative vol penalty>
0.000

$$$$

  -OEChem-04042321053D

 86 94  0     1  0  0  0  0  0999 V2000
  -25.4706  -28.4674   30.3783 C   0  0  0  0  0  0  0  0  0  0  0  0
  -26.5389  -27.7894   29.7998 C   0  0  0  0  0  0  0  0  0  0  0  0
  -23.2002   -9.7857   20.3084 C   0  0  0  0  0  0  0  0  0  0  0  0
  -24.1162  -10.0816   22.5243 C   0  0  0  0  0  0  0  0  0  0  0  0
  -24.3990  -28.8812   29.5882 C   0  0  0  0  0  0  0  0  0  0  0  0
  -26.5355  -27.5239   28.4309 C   0  0  0  0  0  0  0  0  0  0  0  0
  -30.9900  -26.8841   22.8573 C   0  0  0  0  0  0  0  0  0  0  0  0
  -22.5546   -8.6236   20.7304 C   0  0  0  0  0  0  0  0  0  0  0  0
  -23.4705   -8.9195   22.9464 C   0  0  0  0  0  0  0  0  0  0  0  0
  -31.3061  -25.9995   21.8271 C   0  0  0  0  0  0  0  0  0  0  0  0
  -20.3530   -8.0002   23.8719 C   0  0  0  0  0  0  0  0  0  0  0  0
  -19.6840   -8.0401   25.0951 C   0  0  0  0  0  0  0  0  0  0  0  0
  -29.4381  -26.8317   20.5475 C   0  0  0  0  0  0  0  0  0  0  0  0
  -29.5432  -17.8003   17.9990 C   0  0  0  0  0  0  0  0  0  0  0  0
  -28.7775  -20.2694   19.0477 C   0  0  0  0  0  0  0  0  0  0  0  0
  -21.1007   -6.2690   25.9278 C   0  0  0  0  0  0  0  0  0  0  0  0
  -23.9812  -10.5147   21.2053 C   0  0  0  0  0  0  0  0  0  0  0  0
  -24.1439  -13.0286   20.8034 C   0  0  0  0  0  0  0  0  0  0  0  0
  -24.3871  -28.6291   28.2072 C   0  0  0  0  0  0  0  0  0  0  0  0
  -29.8873  -27.7430   22.7447 C   0  0  0  0  0  0  0  0  0  0  0  0
  -25.4621  -27.9335   27.6218 C   0  0  0  0  0  0  0  0  0  0  0  0
  -29.1117  -27.7281   21.5766 C   0  0  0  0  0  0  0  0  0  0  0  0
  -29.0410  -17.8809   19.2978 C   0  0  0  0  0  0  0  0  0  0  0  0
  -29.2797  -20.1889   17.7489 C   0  0  0  0  0  0  0  0  0  0  0  0
  -22.6896   -8.1905   22.0494 C   0  0  0  0  0  0  0  0  0  0  0  0
  -30.5284  -25.9711   20.6732 C   0  0  0  0  0  0  0  0  0  0  0  0
  -21.3958   -7.0946   23.6764 C   0  0  0  0  0  0  0  0  0  0  0  0
  -20.0579   -7.1746   26.1231 C   0  0  0  0  0  0  0  0  0  0  0  0
  -29.6626  -18.9543   17.2246 C   0  0  0  0  0  0  0  0  0  0  0  0
  -28.6581  -19.1154   19.8222 C   0  0  0  0  0  0  0  0  0  0  0  0
  -21.7697   -6.2291   24.7044 C   0  0  0  0  0  0  0  0  0  0  0  0
  -24.6489  -11.7149   20.7698 C   0  0  0  0  0  0  0  0  0  0  0  0
  -25.1554  -13.7987   20.2834 C   0  0  0  0  0  0  0  0  0  0  0  0
  -22.8741  -13.5097   21.2635 C   0  0  0  0  0  0  0  0  0  0  0  0
  -27.1731  -28.1314   24.3528 C   0  0  0  0  0  0  0  0  0  0  0  0
  -26.8282  -30.6877   22.3858 C   0  0  0  0  0  0  0  0  0  0  0  0
  -27.6140  -32.1919   19.4249 C   0  0  0  0  0  0  0  0  0  0  0  0
  -30.7305  -14.9044   20.3955 C   0  0  0  0  0  0  0  0  0  0  0  0
  -23.1846  -29.0542   27.4021 C   0  0  0  0  0  0  0  0  0  0  0  0
  -29.5756  -28.7102   23.8537 C   0  0  0  0  0  0  0  0  0  0  0  0
  -27.9295  -28.6440   21.3979 C   0  0  0  0  0  0  0  0  0  0  0  0
  -23.4325  -29.0635   25.8959 C   0  0  0  0  0  0  0  0  0  0  0  0
  -29.4167  -12.5002   17.9064 C   0  0  0  0  0  0  0  0  0  0  0  0
  -24.1354  -27.7809   25.4625 C   0  0  0  0  0  0  0  0  0  0  0  0
  -28.0467  -12.1422   18.4800 C   0  0  0  0  0  0  0  0  0  0  0  0
  -30.4042  -12.8947   19.0005 C   0  0  0  0  0  0  0  0  0  0  0  0
  -28.5477  -13.6299   20.4590 C   0  0  0  0  0  0  0  0  0  0  0  0
  -25.5066  -27.6486   26.1362 C   0  0  1  0  0  0  0  0  0  0  0  0
  -28.1239  -29.1792   23.8470 C   0  0  1  0  0  0  0  0  0  0  0  0
  -27.5158  -13.2726   19.3786 C   0  0  2  0  0  0  0  0  0  0  0  0
  -27.1492  -34.2599   18.0816 C   0  0  0  0  0  0  0  0  0  0  0  0
  -24.0893  -29.5768   21.6279 C   0  0  0  0  0  0  0  0  0  0  0  0
  -24.0945  -31.1066   19.6460 C   0  0  0  0  0  0  0  0  0  0  0  0
  -24.1563  -32.0557   21.9521 C   0  0  0  0  0  0  0  0  0  0  0  0
  -29.9260  -21.2676   15.6091 C   0  0  0  0  0  0  0  0  0  0  0  0
  -31.0726  -17.2200   21.1704 C   0  0  0  0  0  0  0  0  0  0  0  0
  -30.4627  -32.9939   19.4578 C   0  0  0  0  0  0  0  0  0  0  0  0
  -28.9143  -16.6451   20.1230 C   0  0  0  0  0  0  0  0  0  0  0  0
  -30.1032  -23.2478   18.3384 C   0  0  0  0  0  0  0  0  0  0  0  0
  -28.9993  -22.6404   17.4813 C   0  0  0  0  0  0  0  0  0  0  0  0
  -29.7521  -24.6338   18.8663 C   0  0  0  0  0  0  0  0  0  1  0  0
  -26.2136  -30.9149   21.0257 C   0  0  1  0  0  0  0  0  0  0  0  0
  -28.0670  -33.6043   19.1017 C   0  0  2  0  0  0  0  0  0  0  0  0
  -24.6595  -30.8948   21.0668 C   0  0  0  0  0  0  0  0  0  0  0  0
  -25.8850  -11.6504   20.2680 N   0  0  0  0  0  0  0  0  0  0  0  0
  -26.1653  -12.9331   19.9814 N   0  0  0  0  0  0  0  0  0  0  0  0
  -27.6614  -29.5672   22.5129 N   0  0  0  0  0  0  0  0  0  0  0  0
  -29.8572  -13.9401   19.8661 N   0  0  0  0  0  0  0  0  0  0  0  0
  -25.2705  -15.1249   20.0595 N   0  0  0  0  0  0  0  0  0  0  0  0
  -21.9513  -12.5832   21.7678 N   0  0  0  0  0  0  0  0  0  0  0  0
  -26.4744  -28.5051   25.4849 N   0  0  0  0  0  0  0  0  0  0  0  0
  -26.7820  -32.1614   20.5241 N   0  0  0  0  0  0  0  0  0  0  0  0
  -29.3990  -21.3505   16.9726 N   0  0  3  0  0  0  0  0  0  0  0  0
  -30.2034  -16.1829   20.6329 N   0  0  0  0  0  0  0  0  0  0  0  0
  -29.4507  -33.5906   18.5485 N   0  3  0  0  0  0  0  0  0  0  0  0
  -22.5605  -14.7233   21.2133 O   0  0  0  0  0  0  0  0  0  0  0  0
  -27.0792  -27.0636   23.7590 O   0  0  0  0  0  0  0  0  0  0  0  0
  -26.5838  -31.4793   23.2997 O   0  0  0  0  0  0  0  0  0  0  0  0
  -27.9605  -31.2140   18.7659 O   0  0  0  0  0  0  0  0  0  0  0  0
  -31.9162  -14.6405   20.6330 O   0  0  0  0  0  0  0  0  0  0  0  0
  -22.0595   -7.0567   22.4617 O   0  0  0  0  0  0  0  0  0  0  0  0
  -30.8343  -25.1082   19.6665 O   0  0  0  0  0  0  0  0  0  1  0  0
  -19.4164   -7.2141   27.2983 F   0  0  0  0  0  0  0  0  0  0  0  0
  -30.1466  -18.8655   15.9775 F   0  0  0  0  0  0  0  0  0  0  0  0
  -28.1744  -19.2027   21.0692 F   0  0  0  0  0  0  0  0  0  0  0  0
  -22.7715   -5.3577   24.5230 F   0  0  0  0  0  0  0  0  0  0  0  0
  1  2  1  0  0  0  0
  1  5  2  0  0  0  0
  2  6  2  0  0  0  0
  3  8  2  0  0  0  0
  3 17  1  0  0  0  0
  4  9  1  0  0  0  0
  4 17  2  0  0  0  0
  5 19  1  0  0  0  0
  6 21  1  0  0  0  0
  7 10  2  0  0  0  0
  7 20  1  0  0  0  0
  8 25  1  0  0  0  0
  9 25  2  0  0  0  0
 10 26  1  0  0  0  0
 11 12  2  0  0  0  0
 11 27  1  0  0  0  0
 12 28  1  0  0  0  0
 13 22  1  0  0  0  0
 13 26  2  0  0  0  0
 14 23  2  0  0  0  0
 14 29  1  0  0  0  0
 15 24  1  0  0  0  0
 15 30  2  0  0  0  0
 16 28  2  0  0  0  0
 16 31  1  0  0  0  0
 17 32  1  0  0  0  0
 18 32  1  0  0  0  0
 18 33  2  0  0  0  0
 18 34  1  0  0  0  0
 19 21  2  0  0  0  0
 19 39  1  0  0  0  0
 20 22  2  0  0  0  0
 20 40  1  0  0  0  0
 21 48  1  0  0  0  0
 22 41  1  0  0  0  0
 23 30  1  0  0  0  0
 23 58  1  0  0  0  0
 24 29  2  0  0  0  0
 24 73  1  0  0  0  0
 25 81  1  0  0  0  0
 26 82  1  0  0  0  0
 27 31  2  0  0  0  0
 27 81  1  0  0  0  0
 28 83  1  0  0  0  0
 29 84  1  0  0  0  0
 30 85  1  0  0  0  0
 31 86  1  0  0  0  0
 32 65  2  0  0  0  0
 33 66  1  0  0  0  0
 33 69  1  0  0  0  0
 34 70  1  0  0  0  0
 34 76  2  0  0  0  0
 35 49  1  0  0  0  0
 35 71  1  0  0  0  0
 35 77  2  0  0  0  0
 36 62  1  0  0  0  0
 36 67  1  0  0  0  0
 36 78  2  0  0  0  0
 37 63  1  0  0  0  0
 37 72  1  0  0  0  0
 37 79  2  0  0  0  0
 38 68  1  0  0  0  0
 38 74  1  0  0  0  0
 38 80  2  0  0  0  0
 39 42  1  0  0  0  0
 40 49  1  0  0  0  0
 41 67  1  0  0  0  0
 42 44  1  0  0  0  0
 43 45  1  0  0  0  0
 43 46  1  0  0  0  0
 44 48  1  0  0  0  0
 45 50  1  0  0  0  0
 46 68  1  0  0  0  0
 47 50  1  0  0  0  0
 47 68  1  0  0  0  0
 48 71  1  0  0  0  0
 49 67  1  0  0  0  0
 50 66  1  0  0  0  0
 51 63  1  0  0  0  0
 52 64  1  0  0  0  0
 53 64  1  0  0  0  0
 54 64  1  0  0  0  0
 55 73  1  0  0  0  0
 56 74  1  0  0  0  0
 57 75  1  0  0  0  0
 58 74  1  0  0  0  0
 59 60  1  0  0  0  0
 59 61  1  0  0  0  0
 60 73  1  0  0  0  0
 61 82  1  0  0  0  0
 62 64  1  0  0  0  0
 62 72  1  0  0  0  0
 63 75  1  0  0  0  0
 65 66  1  0  0  0  0
M  CHG  1  75   1
M  ISO  4  38 100  61 101  74 100  82 101
M  END
> <Batch ID>
0019

> <Smiles>
CNC(C)C(=O)NC(C(=O)N1Cc2cc([101O:1][101CH2:1]CCN(C)c3cc(F)c(C[100N:0](C)[100C:0](=O)N4CCCC(n5nc(-c6ccc(Oc7ccc(F)cc7F)cc6)c(C(N)=O)c5N)C4)cc3F)ccc2CC1C(=O)NC1CCCc2ccccc21)C(C)(C)C

> <Shape>
0.314

> <Color>
0.195

> <Negative vol penalty>
0.000

$$$$

  -OEChem-04042321053D

 84 92  0     1  0  0  0  0  0999 V2000
  -17.7514  -26.7329   22.4197 C   0  0  0  0  0  0  0  0  0  0  0  0
  -18.7096  -26.8072   21.4139 C   0  0  0  0  0  0  0  0  0  0  0  0
  -27.2212  -12.5768   21.4418 C   0  0  0  0  0  0  0  0  0  0  0  0
  -26.6515  -13.6102   19.3336 C   0  0  0  0  0  0  0  0  0  0  0  0
  -17.8838  -27.5151   23.5663 C   0  0  0  0  0  0  0  0  0  0  0  0
  -19.8005  -27.6645   21.5537 C   0  0  0  0  0  0  0  0  0  0  0  0
  -25.5082  -26.7175   19.5461 C   0  0  0  0  0  0  0  0  0  0  0  0
  -28.9976  -25.0776   19.7893 C   0  0  0  0  0  0  0  0  0  0  0  0
  -28.5899  -23.9956   20.5695 C   0  0  0  0  0  0  0  0  0  0  0  0
  -26.5442  -11.4194   21.0575 C   0  0  0  0  0  0  0  0  0  0  0  0
  -25.9745  -12.4528   18.9492 C   0  0  0  0  0  0  0  0  0  0  0  0
  -26.1878  -27.1555   18.4102 C   0  0  0  0  0  0  0  0  0  0  0  0
  -27.1173   -8.7402   19.0760 C   0  0  0  0  0  0  0  0  0  0  0  0
  -27.7448   -7.5158   19.3054 C   0  0  0  0  0  0  0  0  0  0  0  0
  -27.1317  -28.9740   19.6835 C   0  0  0  0  0  0  0  0  0  0  0  0
  -30.3160  -22.6283   19.5754 C   0  0  0  0  0  0  0  0  0  0  0  0
  -25.9026   -6.8354   20.7127 C   0  0  0  0  0  0  0  0  0  0  0  0
  -27.2748  -13.6722   20.5799 C   0  0  0  0  0  0  0  0  0  0  0  0
  -29.3307  -15.1719   20.7584 C   0  0  0  0  0  0  0  0  0  0  0  0
  -18.9818  -28.3753   23.7245 C   0  0  0  0  0  0  0  0  0  0  0  0
  -25.6269  -27.4120   20.7585 C   0  0  0  0  0  0  0  0  0  0  0  0
  -19.9470  -28.4599   22.7029 C   0  0  0  0  0  0  0  0  0  0  0  0
  -26.4546  -28.5413   20.8339 C   0  0  0  0  0  0  0  0  0  0  0  0
  -30.0644  -24.9349   18.9020 C   0  0  0  0  0  0  0  0  0  0  0  0
  -29.2491  -22.7710   20.4626 C   0  0  0  0  0  0  0  0  0  0  0  0
  -25.9209  -11.3574   19.8112 C   0  0  0  0  0  0  0  0  0  0  0  0
  -26.9974  -28.2855   18.4781 C   0  0  0  0  0  0  0  0  0  0  0  0
  -25.8825   -9.0123   19.6651 C   0  0  0  0  0  0  0  0  0  0  0  0
  -27.1374   -6.5633   20.1237 C   0  0  0  0  0  0  0  0  0  0  0  0
  -30.7236  -23.7103   18.7951 C   0  0  0  0  0  0  0  0  0  0  0  0
  -25.2751   -8.0598   20.4834 C   0  0  0  0  0  0  0  0  0  0  0  0
  -27.9735  -14.8683   20.9766 C   0  0  0  0  0  0  0  0  0  0  0  0
  -29.4994  -16.4137   21.3206 C   0  0  0  0  0  0  0  0  0  0  0  0
  -30.3480  -14.4004   20.1059 C   0  0  0  0  0  0  0  0  0  0  0  0
  -23.6077  -28.9603   22.6637 C   0  0  0  0  0  0  0  0  0  0  0  0
  -26.2030  -29.1666   24.5988 C   0  0  0  0  0  0  0  0  0  0  0  0
  -29.6026  -29.1578   24.8969 C   0  0  0  0  0  0  0  0  0  0  0  0
  -27.7928  -21.6434   22.1813 C   0  0  0  0  0  0  0  0  0  0  0  0
  -19.0574  -29.2362   24.9605 C   0  0  0  0  0  0  0  0  0  0  0  0
  -24.9084  -26.9112   21.9814 C   0  0  0  0  0  0  0  0  0  0  0  0
  -26.6317  -29.3105   22.1167 C   0  0  0  0  0  0  0  0  0  0  0  0
  -20.4386  -29.8413   25.1979 C   0  0  0  0  0  0  0  0  0  0  0  0
  -26.4342  -19.1248   24.2999 C   0  0  0  0  0  0  0  0  0  0  0  0
  -20.9894  -30.4375   23.9064 C   0  0  0  0  0  0  0  0  0  0  0  0
  -26.8252  -17.8179   23.6062 C   0  0  0  0  0  0  0  0  0  0  0  0
  -26.0863  -20.2194   23.2927 C   0  0  0  0  0  0  0  0  0  0  0  0
  -27.4995  -19.1612   21.5745 C   0  0  0  0  0  0  0  0  0  0  0  0
  -21.1574  -29.3595   22.8288 C   0  0  1  0  0  0  0  0  0  0  0  0
  -24.6965  -27.9938   23.0352 C   0  0  1  0  0  0  0  0  0  0  0  0
  -27.9213  -18.0479   22.5473 C   0  0  2  0  0  0  0  0  0  0  0  0
  -31.4313  -29.3851   26.6003 C   0  0  0  0  0  0  0  0  0  0  0  0
  -29.5524  -30.2068   17.2644 C   0  0  0  0  0  0  0  0  0  0  0  0
  -25.7379  -32.1807   24.6922 C   0  0  0  0  0  0  0  0  0  0  0  0
  -28.0651  -32.4420   25.5778 C   0  0  0  0  0  0  0  0  0  0  0  0
  -26.3732  -31.1547   26.8827 C   0  0  0  0  0  0  0  0  0  0  0  0
  -30.6304  -26.4417   24.3263 C   0  0  0  0  0  0  0  0  0  0  0  0
  -29.7248  -25.3789   15.8131 C   0  0  0  0  0  0  0  0  0  0  0  0
  -30.5010  -26.1017   18.0661 C   0  0  0  0  0  0  0  0  0  0  0  0
  -29.6713  -27.7899   16.4344 C   0  0  0  0  0  0  0  0  0  0  0  0
  -27.3335  -30.1523   24.7697 C   0  0  1  0  0  0  0  0  0  0  0  0
  -30.5286  -28.4204   25.8473 C   0  0  2  0  0  0  0  0  0  0  0  0
  -29.0853  -28.7686   17.4469 C   0  0  2  0  0  0  0  0  0  1  0  0
  -26.8728  -31.4693   25.4558 C   0  0  0  0  0  0  0  0  0  0  0  0
  -27.3261  -15.8389   21.6267 N   0  0  0  0  0  0  0  0  0  0  0  0
  -28.2806  -16.7646   21.8220 N   0  0  0  0  0  0  0  0  0  0  0  0
  -25.9035  -28.7850   23.2833 N   0  0  0  0  0  0  0  0  0  0  0  0
  -27.1720  -20.3843   22.3237 N   0  0  0  0  0  0  0  0  0  0  0  0
  -30.5700  -17.2287   21.4300 N   0  0  0  0  0  0  0  0  0  0  0  0
  -30.0039  -13.1457   19.5848 N   0  0  0  0  0  0  0  0  0  0  0  0
  -28.8337  -21.6714   21.2538 N   0  0  0  0  0  0  0  0  0  0  0  0
  -22.3475  -28.5752   23.0796 N   0  0  0  0  0  0  0  0  0  0  0  0
  -28.3887  -29.4432   25.4852 N   0  0  0  0  0  0  0  0  0  0  0  0
  -31.3877  -27.4630   25.0948 N   0  3  0  0  0  0  0  0  0  0  0  0
  -29.5633  -26.3917   16.9200 N   0  3  1  0  0  0  0  0  0  0  0  0
  -31.5311  -14.8045   20.0030 O   0  0  0  0  0  0  0  0  0  0  0  0
  -23.8903  -29.9807   22.0466 O   0  0  0  0  0  0  0  0  0  0  0  0
  -25.6122  -28.7450   25.5962 O   0  0  0  0  0  0  0  0  0  0  0  0
  -29.9254  -29.4545   23.7487 O   0  0  0  0  0  0  0  0  0  0  0  0
  -27.4459  -22.6177   22.8538 O   0  0  0  0  0  0  0  0  0  0  0  0
  -25.2604  -10.2281   19.4358 O   0  0  0  0  0  0  0  0  0  0  0  0
  -27.6613  -28.7155   17.3707 O   0  0  0  0  0  0  0  0  0  1  0  0
  -27.7394   -5.3870   20.3426 F   0  0  0  0  0  0  0  0  0  0  0  0
  -31.7498  -23.5635   17.9455 F   0  0  0  0  0  0  0  0  0  0  0  0
  -24.0884   -8.3150   21.0510 F   0  0  0  0  0  0  0  0  0  0  0  0
  1  2  1  0  0  0  0
  1  5  2  0  0  0  0
  2  6  2  0  0  0  0
  3 10  2  0  0  0  0
  3 18  1  0  0  0  0
  4 11  1  0  0  0  0
  4 18  2  0  0  0  0
  5 20  1  0  0  0  0
  6 22  1  0  0  0  0
  7 12  2  0  0  0  0
  7 21  1  0  0  0  0
  8  9  2  0  0  0  0
  8 24  1  0  0  0  0
  9 25  1  0  0  0  0
 10 26  1  0  0  0  0
 11 26  2  0  0  0  0
 12 27  1  0  0  0  0
 13 14  2  0  0  0  0
 13 28  1  0  0  0  0
 14 29  1  0  0  0  0
 15 23  1  0  0  0  0
 15 27  2  0  0  0  0
 16 25  2  0  0  0  0
 16 30  1  0  0  0  0
 17 29  2  0  0  0  0
 17 31  1  0  0  0  0
 18 32  1  0  0  0  0
 19 32  1  0  0  0  0
 19 33  2  0  0  0  0
 19 34  1  0  0  0  0
 20 22  2  0  0  0  0
 20 39  1  0  0  0  0
 21 23  2  0  0  0  0
 21 40  1  0  0  0  0
 22 48  1  0  0  0  0
 23 41  1  0  0  0  0
 24 30  2  0  0  0  0
 24 58  1  0  0  0  0
 25 70  1  0  0  0  0
 26 80  1  0  0  0  0
 27 81  1  0  0  0  0
 28 31  2  0  0  0  0
 28 80  1  0  0  0  0
 29 82  1  0  0  0  0
 30 83  1  0  0  0  0
 31 84  1  0  0  0  0
 32 64  2  0  0  0  0
 33 65  1  0  0  0  0
 33 68  1  0  0  0  0
 34 69  1  0  0  0  0
 34 75  2  0  0  0  0
 35 49  1  0  0  0  0
 35 71  1  0  0  0  0
 35 76  2  0  0  0  0
 36 60  1  0  0  0  0
 36 66  1  0  0  0  0
 36 77  2  0  0  0  0
 37 61  1  0  0  0  0
 37 72  1  0  0  0  0
 37 78  2  0  0  0  0
 38 67  1  0  0  0  0
 38 70  1  0  0  0  0
 38 79  2  0  0  0  0
 39 42  1  0  0  0  0
 40 49  1  0  0  0  0
 41 66  1  0  0  0  0
 42 44  1  0  0  0  0
 43 45  1  0  0  0  0
 43 46  1  0  0  0  0
 44 48  1  0  0  0  0
 45 50  1  0  0  0  0
 46 67  1  0  0  0  0
 47 50  1  0  0  0  0
 47 67  1  0  0  0  0
 48 71  1  0  0  0  0
 49 66  1  0  0  0  0
 50 65  1  0  0  0  0
 51 61  1  0  0  0  0
 52 62  1  0  0  0  0
 53 63  1  0  0  0  0
 54 63  1  0  0  0  0
 55 63  1  0  0  0  0
 56 73  1  0  0  0  0
 57 74  1  0  0  0  0
 58 74  1  0  0  0  0
 59 62  1  0  0  0  0
 59 74  1  0  0  0  0
 60 63  1  0  0  0  0
 60 72  1  0  0  0  0
 61 73  1  0  0  0  0
 62 81  1  0  0  0  0
 64 65  1  0  0  0  0
M  CHG  2  73   1  74   1
M  ISO  4  38 100  62 101  70 100  81 101
M  END
> <Batch ID>
0019

> <Smiles>
CNC(C)C(=O)NC(C(=O)N1Cc2cc([101O:1][101CH:1](C)CN(C)Cc3ccc([100NH:0][100C:0](=O)N4CCCC(n5nc(-c6ccc(Oc7ccc(F)cc7F)cc6)c(C(N)=O)c5N)C4)cc3F)ccc2CC1C(=O)NC1CCCc2ccccc21)C(C)(C)C

> <Shape>
0.275

> <Color>
0.068

> <Negative vol penalty>
0.000

$$$$

  -OEChem-04042321053D

 78 86  0     1  0  0  0  0  0999 V2000
  -28.0667  -37.0392   21.1568 C   0  0  0  0  0  0  0  0  0  0  0  0
  -28.4786  -35.7212   20.9880 C   0  0  0  0  0  0  0  0  0  0  0  0
  -26.8779  -12.7381   21.8118 C   0  0  0  0  0  0  0  0  0  0  0  0
  -26.2289  -14.3697   20.1524 C   0  0  0  0  0  0  0  0  0  0  0  0
  -26.9484  -37.3241   21.9392 C   0  0  0  0  0  0  0  0  0  0  0  0
  -27.7731  -34.6872   21.6025 C   0  0  0  0  0  0  0  0  0  0  0  0
  -26.8406  -29.0494   19.4001 C   0  0  0  0  0  0  0  0  0  0  0  0
  -29.9140  -23.9385   21.6652 C   0  0  0  0  0  0  0  0  0  0  0  0
  -29.0925  -23.0456   19.5759 C   0  0  0  0  0  0  0  0  0  0  0  0
  -30.3903  -22.6757   22.0176 C   0  0  0  0  0  0  0  0  0  0  0  0
  -29.5689  -21.7828   19.9283 C   0  0  0  0  0  0  0  0  0  0  0  0
  -25.5581  -12.2939   21.8913 C   0  0  0  0  0  0  0  0  0  0  0  0
  -24.9090  -13.9255   20.2318 C   0  0  0  0  0  0  0  0  0  0  0  0
  -27.4760  -27.8317   19.6398 C   0  0  0  0  0  0  0  0  0  0  0  0
  -22.4256  -10.4880   22.2670 C   0  0  0  0  0  0  0  0  0  0  0  0
  -22.2040   -9.1109   22.2726 C   0  0  0  0  0  0  0  0  0  0  0  0
  -25.7862  -27.2777   21.2698 C   0  0  0  0  0  0  0  0  0  0  0  0
  -23.2629   -8.9317   20.1084 C   0  0  0  0  0  0  0  0  0  0  0  0
  -27.2133  -13.7760   20.9424 C   0  0  0  0  0  0  0  0  0  0  0  0
  -29.5834  -13.7604   19.9988 C   0  0  0  0  0  0  0  0  0  0  0  0
  -26.2231  -36.2924   22.5558 C   0  0  0  0  0  0  0  0  0  0  0  0
  -25.6774  -29.3956   20.1025 C   0  0  0  0  0  0  0  0  0  0  0  0
  -26.6449  -34.9587   22.3951 C   0  0  0  0  0  0  0  0  0  0  0  0
  -25.1365  -28.4992   21.0353 C   0  0  0  0  0  0  0  0  0  0  0  0
  -29.2650  -24.1234   20.4444 C   0  0  0  0  0  0  0  0  0  0  0  0
  -30.2178  -21.5979   21.1491 C   0  0  0  0  0  0  0  0  0  0  0  0
  -24.5736  -12.8876   21.1013 C   0  0  0  0  0  0  0  0  0  0  0  0
  -26.9505  -26.9469   20.5769 C   0  0  0  0  0  0  0  0  0  0  0  0
  -23.0657  -11.0870   21.1821 C   0  0  0  0  0  0  0  0  0  0  0  0
  -22.6227   -8.3327   21.1933 C   0  0  0  0  0  0  0  0  0  0  0  0
  -23.4844  -10.3089   20.1028 C   0  0  0  0  0  0  0  0  0  0  0  0
  -28.5764  -14.2357   20.8602 C   0  0  0  0  0  0  0  0  0  0  0  0
  -30.6867  -14.5170   20.3100 C   0  0  0  0  0  0  0  0  0  0  0  0
  -29.5265  -12.7275   19.0061 C   0  0  0  0  0  0  0  0  0  0  0  0
  -24.8815  -31.7237   22.1150 C   0  0  0  0  0  0  0  0  0  0  0  0
  -21.9265  -30.4122   21.8504 C   0  0  0  0  0  0  0  0  0  0  0  0
  -20.0285  -27.6660   21.1412 C   0  0  0  0  0  0  0  0  0  0  0  0
  -31.3678  -19.9601   22.6793 C   0  0  0  0  0  0  0  0  0  0  0  0
  -25.0489  -36.6530   23.4308 C   0  0  0  0  0  0  0  0  0  0  0  0
  -24.9890  -30.7013   19.8131 C   0  0  0  0  0  0  0  0  0  0  0  0
  -23.8787  -28.8147   21.8013 C   0  0  0  0  0  0  0  0  0  0  0  0
  -24.1351  -35.4704   23.7419 C   0  0  0  0  0  0  0  0  0  0  0  0
  -32.6846  -16.9053   23.9485 C   0  0  0  0  0  0  0  0  0  0  0  0
  -24.9579  -34.2549   24.1570 C   0  0  0  0  0  0  0  0  0  0  0  0
  -31.8764  -15.8307   23.2177 C   0  0  0  0  0  0  0  0  0  0  0  0
  -31.8295  -18.1244   24.2893 C   0  0  0  0  0  0  0  0  0  0  0  0
  -30.2959  -17.6360   22.4242 C   0  0  0  0  0  0  0  0  0  0  0  0
  -25.8910  -33.8077   23.0253 C   0  0  1  0  0  0  0  0  0  0  0  0
  -24.0974  -31.1732   20.9575 C   0  0  1  0  0  0  0  0  0  0  0  0
  -31.1304  -16.4157   22.0024 C   0  0  2  0  0  0  0  0  0  0  0  0
  -17.6438  -26.8901   21.0485 C   0  0  0  0  0  0  0  0  0  0  0  0
  -21.8657  -30.2428   24.8963 C   0  0  0  0  0  0  0  0  0  0  0  0
  -19.9531  -28.6392   24.6994 C   0  0  0  0  0  0  0  0  0  0  0  0
  -19.7150  -30.9722   23.8490 C   0  0  0  0  0  0  0  0  0  0  0  0
  -20.2148  -27.0650   18.2493 C   0  0  0  0  0  0  0  0  0  0  0  0
  -28.7526  -25.4818   20.0654 C   0  0  0  0  0  0  0  0  0  1  0  0
  -21.1660  -29.3336   22.5834 C   0  0  1  0  0  0  0  0  0  0  0  0
  -18.8017  -27.4884   20.2649 C   0  0  2  0  0  0  0  0  0  0  0  0
  -20.6998  -29.7915   23.9942 C   0  0  0  0  0  0  0  0  0  0  0  0
  -29.0023  -15.2180   21.6588 N   0  0  0  0  0  0  0  0  0  0  0  0
  -30.2891  -15.3661   21.3005 N   0  0  0  0  0  0  0  0  0  0  0  0
  -23.2458  -30.1064   21.4875 N   0  0  0  0  0  0  0  0  0  0  0  0
  -31.1567  -18.6266   23.0893 N   0  0  0  0  0  0  0  0  0  0  0  0
  -31.9484  -14.5321   19.8303 N   0  0  0  0  0  0  0  0  0  0  0  0
  -28.3144  -12.0502   18.8153 N   0  0  0  0  0  0  0  0  0  0  0  0
  -30.7018  -20.3151   21.5067 N   0  0  0  0  0  0  0  0  0  0  0  0
  -25.1513  -33.0756   22.0197 N   0  0  0  0  0  0  0  0  0  0  0  0
  -20.0802  -28.9263   21.6982 N   0  0  0  0  0  0  0  0  0  0  0  0
  -19.1097  -26.5865   19.1192 N   0  3  0  0  0  0  0  0  0  0  0  0
  -30.5255  -12.4032   18.3203 O   0  0  0  0  0  0  0  0  0  0  0  0
  -25.2157  -30.9775   23.0278 O   0  0  0  0  0  0  0  0  0  0  0  0
  -21.3681  -31.4838   21.6025 O   0  0  0  0  0  0  0  0  0  0  0  0
  -20.8560  -26.7746   21.3172 O   0  0  0  0  0  0  0  0  0  0  0  0
  -32.1080  -20.7224   23.3063 O   0  0  0  0  0  0  0  0  0  0  0  0
  -23.2857  -12.4542   21.1784 O   0  0  0  0  0  0  0  0  0  0  0  0
  -27.5690  -25.7581   20.8132 O   0  0  0  0  0  0  0  0  0  1  0  0
  -22.4112   -7.0101   21.1995 F   0  0  0  0  0  0  0  0  0  0  0  0
  -24.1010  -10.8786   19.0582 F   0  0  0  0  0  0  0  0  0  0  0  0
  1  2  1  0  0  0  0
  1  5  2  0  0  0  0
  2  6  2  0  0  0  0
  3 12  2  0  0  0  0
  3 19  1  0  0  0  0
  4 13  1  0  0  0  0
  4 19  2  0  0  0  0
  5 21  1  0  0  0  0
  6 23  1  0  0  0  0
  7 14  2  0  0  0  0
  7 22  1  0  0  0  0
  8 10  2  0  0  0  0
  8 25  1  0  0  0  0
  9 11  1  0  0  0  0
  9 25  2  0  0  0  0
 10 26  1  0  0  0  0
 11 26  2  0  0  0  0
 12 27  1  0  0  0  0
 13 27  2  0  0  0  0
 14 28  1  0  0  0  0
 15 16  2  0  0  0  0
 15 29  1  0  0  0  0
 16 30  1  0  0  0  0
 17 24  1  0  0  0  0
 17 28  2  0  0  0  0
 18 30  2  0  0  0  0
 18 31  1  0  0  0  0
 19 32  1  0  0  0  0
 20 32  1  0  0  0  0
 20 33  2  0  0  0  0
 20 34  1  0  0  0  0
 21 23  2  0  0  0  0
 21 39  1  0  0  0  0
 22 24  2  0  0  0  0
 22 40  1  0  0  0  0
 23 48  1  0  0  0  0
 24 41  1  0  0  0  0
 25 56  1  0  0  0  0
 26 66  1  0  0  0  0
 27 75  1  0  0  0  0
 28 76  1  0  0  0  0
 29 31  2  0  0  0  0
 29 75  1  0  0  0  0
 30 77  1  0  0  0  0
 31 78  1  0  0  0  0
 32 60  2  0  0  0  0
 33 61  1  0  0  0  0
 33 64  1  0  0  0  0
 34 65  1  0  0  0  0
 34 70  2  0  0  0  0
 35 49  1  0  0  0  0
 35 67  1  0  0  0  0
 35 71  2  0  0  0  0
 36 57  1  0  0  0  0
 36 62  1  0  0  0  0
 36 72  2  0  0  0  0
 37 58  1  0  0  0  0
 37 68  1  0  0  0  0
 37 73  2  0  0  0  0
 38 63  1  0  0  0  0
 38 66  1  0  0  0  0
 38 74  2  0  0  0  0
 39 42  1  0  0  0  0
 40 49  1  0  0  0  0
 41 62  1  0  0  0  0
 42 44  1  0  0  0  0
 43 45  1  0  0  0  0
 43 46  1  0  0  0  0
 44 48  1  0  0  0  0
 45 50  1  0  0  0  0
 46 63  1  0  0  0  0
 47 50  1  0  0  0  0
 47 63  1  0  0  0  0
 48 67  1  0  0  0  0
 49 62  1  0  0  0  0
 50 61  1  0  0  0  0
 51 58  1  0  0  0  0
 52 59  1  0  0  0  0
 53 59  1  0  0  0  0
 54 59  1  0  0  0  0
 55 69  1  0  0  0  0
 56 76  1  0  0  0  0
 57 59  1  0  0  0  0
 57 68  1  0  0  0  0
 58 69  1  0  0  0  0
 60 61  1  0  0  0  0
M  CHG  1  69   1
M  ISO  4  38 100  56 101  66 100  76 101
M  END
> <Batch ID>
0019

> <Smiles>
CNC(C)C(=O)NC(C(=O)N1Cc2cc([101O:1][101CH2:1]c3ccc([100NH:0][100C:0](=O)N4CCCC(n5nc(-c6ccc(Oc7ccc(F)cc7F)cc6)c(C(N)=O)c5N)C4)cc3)ccc2CC1C(=O)NC1CCCc2ccccc21)C(C)(C)C

> <Shape>
0.340

> <Color>
0.078

> <Negative vol penalty>
0.000

$$$$

  -OEChem-04042321053D

 86 94  0     1  0  0  0  0  0999 V2000
  -29.8682  -16.0904   33.3034 C   0  0  0  0  0  0  0  0  0  0  0  0
  -29.5310  -16.3641   31.9818 C   0  0  0  0  0  0  0  0  0  0  0  0
  -23.2785   -9.8346   19.9478 C   0  0  0  0  0  0  0  0  0  0  0  0
  -23.8833   -9.9516   22.2840 C   0  0  0  0  0  0  0  0  0  0  0  0
  -29.4722  -14.8882   33.8881 C   0  0  0  0  0  0  0  0  0  0  0  0
  -28.7984  -15.4352   31.2436 C   0  0  0  0  0  0  0  0  0  0  0  0
  -25.0554  -17.5790   28.5905 C   0  0  0  0  0  0  0  0  0  0  0  0
  -22.5812   -8.6506   20.1876 C   0  0  0  0  0  0  0  0  0  0  0  0
  -23.1859   -8.7676   22.5238 C   0  0  0  0  0  0  0  0  0  0  0  0
  -25.4051  -18.2314   27.4090 C   0  0  0  0  0  0  0  0  0  0  0  0
  -21.2629   -5.9676   23.8201 C   0  0  0  0  0  0  0  0  0  0  0  0
  -20.4339   -5.9180   24.9408 C   0  0  0  0  0  0  0  0  0  0  0  0
  -24.6997  -16.3031   26.1427 C   0  0  0  0  0  0  0  0  0  0  0  0
  -30.3760  -15.3710   23.8703 C   0  0  0  0  0  0  0  0  0  0  0  0
  -29.7402  -13.2547   24.8469 C   0  0  0  0  0  0  0  0  0  0  0  0
  -28.4980  -15.2556   25.3858 C   0  0  0  0  0  0  0  0  0  0  0  0
  -19.1408   -7.7618   24.0660 C   0  0  0  0  0  0  0  0  0  0  0  0
  -23.9296  -10.4850   20.9960 C   0  0  0  0  0  0  0  0  0  0  0  0
  -24.1458  -13.0203   20.8140 C   0  0  0  0  0  0  0  0  0  0  0  0
  -28.7262  -13.9483   33.1597 C   0  0  0  0  0  0  0  0  0  0  0  0
  -24.5346  -16.2774   28.5577 C   0  0  0  0  0  0  0  0  0  0  0  0
  -28.3932  -14.2187   31.8186 C   0  0  0  0  0  0  0  0  0  0  0  0
  -24.3419  -15.6374   27.3251 C   0  0  0  0  0  0  0  0  0  0  0  0
  -30.5782  -13.9987   24.0163 C   0  0  0  0  0  0  0  0  0  0  0  0
  -29.3360  -15.9995   24.5552 C   0  0  0  0  0  0  0  0  0  0  0  0
  -22.5348   -8.1171   21.4756 C   0  0  0  0  0  0  0  0  0  0  0  0
  -25.2299  -17.5923   26.1851 C   0  0  0  0  0  0  0  0  0  0  0  0
  -21.0308   -6.9144   22.8224 C   0  0  0  0  0  0  0  0  0  0  0  0
  -19.3729   -6.8150   25.0638 C   0  0  0  0  0  0  0  0  0  0  0  0
  -28.7001  -13.8832   25.5317 C   0  0  0  0  0  0  0  0  0  0  0  0
  -19.9698   -7.8115   22.9453 C   0  0  0  0  0  0  0  0  0  0  0  0
  -24.6506  -11.7078   20.7489 C   0  0  0  0  0  0  0  0  0  0  0  0
  -25.2189  -13.8170   20.4972 C   0  0  0  0  0  0  0  0  0  0  0  0
  -22.8251  -13.4785   21.1325 C   0  0  0  0  0  0  0  0  0  0  0  0
  -25.4655  -13.4595   29.6962 C   0  0  0  0  0  0  0  0  0  0  0  0
  -22.5686  -12.4971   28.5988 C   0  0  0  0  0  0  0  0  0  0  0  0
  -19.9700  -13.0083   26.4465 C   0  0  0  0  0  0  0  0  0  0  0  0
  -31.0610  -13.2000   20.9044 C   0  0  0  0  0  0  0  0  0  0  0  0
  -28.3614  -12.6422   33.8197 C   0  0  0  0  0  0  0  0  0  0  0  0
  -24.1374  -15.5977   29.8393 C   0  0  0  0  0  0  0  0  0  0  0  0
  -23.7675  -14.2480   27.2342 C   0  0  0  0  0  0  0  0  0  0  0  0
  -27.2658  -11.8737   33.0853 C   0  0  0  0  0  0  0  0  0  0  0  0
  -29.2842  -13.8171   17.9909 C   0  0  0  0  0  0  0  0  0  0  0  0
  -27.5537  -11.8338   31.5879 C   0  0  0  0  0  0  0  0  0  0  0  0
  -27.8418  -13.4738   18.3604 C   0  0  0  0  0  0  0  0  0  0  0  0
  -30.2555  -12.8108   18.5965 C   0  0  0  0  0  0  0  0  0  0  0  0
  -28.7091  -12.3475   20.4714 C   0  0  0  0  0  0  0  0  0  0  0  0
  -27.5783  -13.2470   30.9930 C   0  0  1  0  0  0  0  0  0  0  0  0
  -24.0960  -14.0772   29.7212 C   0  0  1  0  0  0  0  0  0  0  0  0
  -27.6811  -13.3365   19.8846 C   0  0  2  0  0  0  0  0  0  0  0  0
  -32.6045  -10.5227   22.1969 C   0  0  0  0  0  0  0  0  0  0  0  0
  -17.7624  -12.0342   25.7570 C   0  0  0  0  0  0  0  0  0  0  0  0
  -24.0218  -10.3016   27.0567 C   0  0  0  0  0  0  0  0  0  0  0  0
  -21.9497   -9.9888   25.6868 C   0  0  0  0  0  0  0  0  0  0  0  0
  -21.8909   -9.5758   28.1462 C   0  0  0  0  0  0  0  0  0  0  0  0
  -18.5107  -15.4593   27.2351 C   0  0  0  0  0  0  0  0  0  0  0  0
  -28.2425  -17.5759   22.0697 C   0  0  0  0  0  0  0  0  0  0  0  0
  -31.6906  -13.3267   23.2846 C   0  0  0  0  0  0  0  0  0  0  0  0
  -29.1184  -17.4757   24.3986 C   0  0  0  0  0  0  0  0  0  0  0  0
  -31.2118  -11.1072   22.3195 C   0  0  0  0  0  0  0  0  0  0  0  0
  -27.3998  -19.1707   23.7868 C   0  0  0  0  0  0  0  0  0  0  0  0
  -26.6400  -19.1694   25.0986 C   0  0  0  0  0  0  0  0  0  1  0  0
  -22.0485  -11.9500   27.2915 C   0  0  1  0  0  0  0  0  0  0  0  0
  -18.4682  -13.0274   26.6671 C   0  0  2  0  0  0  0  0  0  0  0  0
  -22.4904  -10.4795   27.0468 C   0  0  0  0  0  0  0  0  0  0  0  0
  -25.9437  -11.6686   20.4166 N   0  0  0  0  0  0  0  0  0  0  0  0
  -26.2605  -12.9664   20.2701 N   0  0  0  0  0  0  0  0  0  0  0  0
  -23.4005  -13.6227   28.5155 N   0  0  0  0  0  0  0  0  0  0  0  0
  -30.0713  -12.7021   20.0440 N   0  0  0  0  0  0  0  0  0  0  0  0
  -25.3636  -15.1552   20.3935 N   0  0  0  0  0  0  0  0  0  0  0  0
  -21.8421  -12.5260   21.4339 N   0  0  0  0  0  0  0  0  0  0  0  0
  -26.2307  -13.7424   30.8115 N   0  0  0  0  0  0  0  0  0  0  0  0
  -20.6027  -12.1435   27.3143 N   0  0  0  0  0  0  0  0  0  0  0  0
  -31.2171  -12.5581   22.1422 N   0  0  0  0  0  0  0  0  0  0  0  0
  -17.9216  -14.3865   26.3930 N   0  3  0  0  0  0  0  0  0  0  0  0
  -27.9324  -17.8093   23.5276 N   0  3  1  0  0  0  0  0  0  0  0  0
  -22.5214  -14.6956   21.1333 O   0  0  0  0  0  0  0  0  0  0  0  0
  -25.8023  -12.7755   28.7369 O   0  0  0  0  0  0  0  0  0  0  0  0
  -22.2428  -11.9504   29.6555 O   0  0  0  0  0  0  0  0  0  0  0  0
  -20.5258  -13.6893   25.5875 O   0  0  0  0  0  0  0  0  0  0  0  0
  -31.7722  -14.1605   20.5824 O   0  0  0  0  0  0  0  0  0  0  0  0
  -21.8542   -6.9619   21.7100 O   0  0  0  0  0  0  0  0  0  0  0  0
  -25.5710  -18.2266   25.0304 O   0  0  0  0  0  0  0  0  0  1  0  0
  -18.5760   -6.7662   26.1393 F   0  0  0  0  0  0  0  0  0  0  0  0
  -27.8962  -13.1688   26.3301 F   0  0  0  0  0  0  0  0  0  0  0  0
  -19.7412   -8.7225   21.9895 F   0  0  0  0  0  0  0  0  0  0  0  0
  1  2  1  0  0  0  0
  1  5  2  0  0  0  0
  2  6  2  0  0  0  0
  3  8  2  0  0  0  0
  3 18  1  0  0  0  0
  4  9  1  0  0  0  0
  4 18  2  0  0  0  0
  5 20  1  0  0  0  0
  6 22  1  0  0  0  0
  7 10  2  0  0  0  0
  7 21  1  0  0  0  0
  8 26  1  0  0  0  0
  9 26  2  0  0  0  0
 10 27  1  0  0  0  0
 11 12  2  0  0  0  0
 11 28  1  0  0  0  0
 12 29  1  0  0  0  0
 13 23  1  0  0  0  0
 13 27  2  0  0  0  0
 14 24  2  0  0  0  0
 14 25  1  0  0  0  0
 15 24  1  0  0  0  0
 15 30  2  0  0  0  0
 16 25  2  0  0  0  0
 16 30  1  0  0  0  0
 17 29  2  0  0  0  0
 17 31  1  0  0  0  0
 18 32  1  0  0  0  0
 19 32  1  0  0  0  0
 19 33  2  0  0  0  0
 19 34  1  0  0  0  0
 20 22  2  0  0  0  0
 20 39  1  0  0  0  0
 21 23  2  0  0  0  0
 21 40  1  0  0  0  0
 22 48  1  0  0  0  0
 23 41  1  0  0  0  0
 24 58  1  0  0  0  0
 25 59  1  0  0  0  0
 26 82  1  0  0  0  0
 27 83  1  0  0  0  0
 28 31  2  0  0  0  0
 28 82  1  0  0  0  0
 29 84  1  0  0  0  0
 30 85  1  0  0  0  0
 31 86  1  0  0  0  0
 32 66  2  0  0  0  0
 33 67  1  0  0  0  0
 33 70  1  0  0  0  0
 34 71  1  0  0  0  0
 34 77  2  0  0  0  0
 35 49  1  0  0  0  0
 35 72  1  0  0  0  0
 35 78  2  0  0  0  0
 36 63  1  0  0  0  0
 36 68  1  0  0  0  0
 36 79  2  0  0  0  0
 37 64  1  0  0  0  0
 37 73  1  0  0  0  0
 37 80  2  0  0  0  0
 38 69  1  0  0  0  0
 38 74  1  0  0  0  0
 38 81  2  0  0  0  0
 39 42  1  0  0  0  0
 40 49  1  0  0  0  0
 41 68  1  0  0  0  0
 42 44  1  0  0  0  0
 43 45  1  0  0  0  0
 43 46  1  0  0  0  0
 44 48  1  0  0  0  0
 45 50  1  0  0  0  0
 46 69  1  0  0  0  0
 47 50  1  0  0  0  0
 47 69  1  0  0  0  0
 48 72  1  0  0  0  0
 49 68  1  0  0  0  0
 50 67  1  0  0  0  0
 51 60  1  0  0  0  0
 52 64  1  0  0  0  0
 53 65  1  0  0  0  0
 54 65  1  0  0  0  0
 55 65  1  0  0  0  0
 56 75  1  0  0  0  0
 57 76  1  0  0  0  0
 58 74  1  0  0  0  0
 59 76  1  0  0  0  0
 60 74  1  0  0  0  0
 61 62  1  0  0  0  0
 61 76  1  0  0  0  0
 62 83  1  0  0  0  0
 63 65  1  0  0  0  0
 63 73  1  0  0  0  0
 64 75  1  0  0  0  0
 66 67  1  0  0  0  0
M  CHG  2  75   1  76   1
M  ISO  4  38 100  62 101  74 100  83 101
M  END
> <Batch ID>
0019

> <Smiles>
CC[100N:0](Cc1cc(F)cc(CN(C)C[101CH2:1][101O:1]c2ccc3c(c2)CN(C(=O)C(NC(=O)C(C)NC)C(C)(C)C)C(C(=O)NC2CCCc4ccccc42)C3)c1)[100C:0](=O)N1CCCC(n2nc(-c3ccc(Oc4ccc(F)cc4F)cc3)c(C(N)=O)c2N)C1

> <Shape>
0.141

> <Color>
0.186

> <Negative vol penalty>
0.000

$$$$

  -OEChem-04042321053D

 86 94  0     1  0  0  0  0  0999 V2000
  -18.0339  -32.4714   21.9765 C   0  0  0  0  0  0  0  0  0  0  0  0
  -19.2844  -32.4652   21.3668 C   0  0  0  0  0  0  0  0  0  0  0  0
  -23.1363   -9.7988   20.0412 C   0  0  0  0  0  0  0  0  0  0  0  0
  -23.7078  -10.0911   22.3704 C   0  0  0  0  0  0  0  0  0  0  0  0
  -17.7988  -31.6665   23.0904 C   0  0  0  0  0  0  0  0  0  0  0  0
  -20.3008  -31.6548   21.8714 C   0  0  0  0  0  0  0  0  0  0  0  0
  -25.9726  -27.8341   19.7385 C   0  0  0  0  0  0  0  0  0  0  0  0
  -31.0209  -19.3373   20.2643 C   0  0  0  0  0  0  0  0  0  0  0  0
  -30.8833  -17.9575   20.4154 C   0  0  0  0  0  0  0  0  0  0  0  0
  -22.4119   -8.6511   20.3629 C   0  0  0  0  0  0  0  0  0  0  0  0
  -22.9833   -8.9433   22.6921 C   0  0  0  0  0  0  0  0  0  0  0  0
  -27.3310  -27.6790   20.0112 C   0  0  0  0  0  0  0  0  0  0  0  0
  -23.4243   -5.5947   22.5403 C   0  0  0  0  0  0  0  0  0  0  0  0
  -24.0122   -4.6813   23.4153 C   0  0  0  0  0  0  0  0  0  0  0  0
  -26.7863  -26.2706   21.8925 C   0  0  0  0  0  0  0  0  0  0  0  0
  -29.2500  -19.6898   21.8696 C   0  0  0  0  0  0  0  0  0  0  0  0
  -22.1737   -4.9734   24.9554 C   0  0  0  0  0  0  0  0  0  0  0  0
  -23.7843  -10.5188   21.0449 C   0  0  0  0  0  0  0  0  0  0  0  0
  -24.0539  -13.0269   20.6650 C   0  0  0  0  0  0  0  0  0  0  0  0
  -18.8099  -30.8386   23.6031 C   0  0  0  0  0  0  0  0  0  0  0  0
  -25.0089  -27.2164   20.5486 C   0  0  0  0  0  0  0  0  0  0  0  0
  -20.0794  -30.8391   22.9941 C   0  0  0  0  0  0  0  0  0  0  0  0
  -25.4164  -26.4174   21.6264 C   0  0  0  0  0  0  0  0  0  0  0  0
  -30.2043  -20.2034   20.9914 C   0  0  0  0  0  0  0  0  0  0  0  0
  -29.1124  -18.3099   22.0206 C   0  0  0  0  0  0  0  0  0  0  0  0
  -29.9290  -17.4438   21.2935 C   0  0  0  0  0  0  0  0  0  0  0  0
  -22.3354   -8.2234   21.6884 C   0  0  0  0  0  0  0  0  0  0  0  0
  -27.7380  -26.8995   21.0901 C   0  0  0  0  0  0  0  0  0  0  0  0
  -22.2111   -6.1976   22.8728 C   0  0  0  0  0  0  0  0  0  0  0  0
  -23.3869   -4.3707   24.6228 C   0  0  0  0  0  0  0  0  0  0  0  0
  -21.5859   -5.8869   24.0804 C   0  0  0  0  0  0  0  0  0  0  0  0
  -24.5333  -11.7042   20.7132 C   0  0  0  0  0  0  0  0  0  0  0  0
  -25.1473  -13.7755   20.3037 C   0  0  0  0  0  0  0  0  0  0  0  0
  -22.7379  -13.5337   20.9238 C   0  0  0  0  0  0  0  0  0  0  0  0
  -22.6489  -28.2487   22.4110 C   0  0  0  0  0  0  0  0  0  0  0  0
  -21.9842  -25.0835   22.6603 C   0  0  0  0  0  0  0  0  0  0  0  0
  -23.1027  -21.8647   22.4736 C   0  0  0  0  0  0  0  0  0  0  0  0
  -30.5453  -15.0564   20.7772 C   0  0  0  0  0  0  0  0  0  0  0  0
  -18.5227  -30.0216   24.8378 C   0  0  0  0  0  0  0  0  0  0  0  0
  -23.5482  -27.3719   20.2251 C   0  0  0  0  0  0  0  0  0  0  0  0
  -24.4221  -25.7166   22.5144 C   0  0  0  0  0  0  0  0  0  0  0  0
  -19.5404  -28.9106   25.0833 C   0  0  0  0  0  0  0  0  0  0  0  0
  -29.7036  -12.3514   18.6204 C   0  0  0  0  0  0  0  0  0  0  0  0
  -20.9609  -29.4427   24.9224 C   0  0  0  0  0  0  0  0  0  0  0  0
  -28.2440  -12.0507   18.9686 C   0  0  0  0  0  0  0  0  0  0  0  0
  -30.5108  -12.7492   19.8549 C   0  0  0  0  0  0  0  0  0  0  0  0
  -28.4763  -13.5438   20.9943 C   0  0  0  0  0  0  0  0  0  0  0  0
  -21.1999  -29.9551   23.4970 C   0  0  1  0  0  0  0  0  0  0  0  0
  -22.6402  -27.1159   21.4239 C   0  0  1  0  0  0  0  0  0  0  0  0
  -27.6079  -13.2015   19.7727 C   0  0  2  0  0  0  0  0  0  0  0  0
  -28.0797  -17.7876   22.9662 C   0  0  0  0  0  0  0  0  0  0  0  0
  -22.3368  -19.4930   22.7665 C   0  0  0  0  0  0  0  0  0  0  0  0
  -32.7209  -23.2478   19.6143 C   0  0  0  0  0  0  0  0  0  0  0  0
  -22.0763  -25.4305   25.6903 C   0  0  0  0  0  0  0  0  0  0  0  0
  -22.2582  -22.9423   25.8999 C   0  0  0  0  0  0  0  0  0  0  0  0
  -20.2297  -23.9601   24.8644 C   0  0  0  0  0  0  0  0  0  0  0  0
  -23.7083  -21.1986   19.6543 C   0  0  0  0  0  0  0  0  0  0  0  0
  -31.3823  -22.3134   23.0052 C   0  0  0  0  0  0  0  0  0  0  0  0
  -30.3508  -21.6875   20.8270 C   0  0  0  0  0  0  0  0  0  0  0  0
  -31.1808  -25.9297   20.5256 C   0  0  0  0  0  0  0  0  0  0  0  0
  -30.8017  -24.4570   20.7301 C   0  0  0  0  0  0  0  0  0  0  0  0
  -29.9613  -26.8031   20.2514 C   0  0  0  0  0  0  0  0  0  1  0  0
  -22.4115  -23.9711   23.5870 C   0  0  1  0  0  0  0  0  0  0  0  0
  -22.5317  -20.6382   21.7851 C   0  0  2  0  0  0  0  0  0  0  0  0
  -32.0128  -23.5389   20.9310 C   0  0  1  0  0  0  0  0  0  0  0  0
  -21.7629  -24.0906   24.9950 C   0  0  0  0  0  0  0  0  0  0  0  0
  -25.8302  -11.6143   20.4068 N   0  0  0  0  0  0  0  0  0  0  0  0
  -26.1750  -12.8900   20.1626 N   0  0  0  0  0  0  0  0  0  0  0  0
  -23.0052  -25.9044   22.1610 N   0  0  0  0  0  0  0  0  0  0  0  0
  -29.8501  -13.8472   20.5638 N   0  0  0  0  0  0  0  0  0  0  0  0
  -25.3203  -15.0981   20.0961 N   0  0  0  0  0  0  0  0  0  0  0  0
  -21.7315  -12.6270   21.2837 N   0  0  0  0  0  0  0  0  0  0  0  0
  -29.8047  -16.0392   21.4329 N   0  0  0  0  0  0  0  0  0  0  0  0
  -21.4166  -28.8473   22.5914 N   0  0  0  0  0  0  0  0  0  0  0  0
  -22.1092  -22.7235   22.8939 N   0  0  0  0  0  0  0  0  0  0  0  0
  -23.4469  -20.1788   20.7024 N   0  3  0  0  0  0  0  0  0  0  0  0
  -31.5739  -22.2396   21.5125 N   0  3  1  0  0  0  0  0  0  0  0  0
  -22.4585  -14.7524   20.8225 O   0  0  0  0  0  0  0  0  0  0  0  0
  -23.6958  -28.5559   22.9689 O   0  0  0  0  0  0  0  0  0  0  0  0
  -20.7892  -25.2147   22.3837 O   0  0  0  0  0  0  0  0  0  0  0  0
  -24.3093  -22.0413   22.6269 O   0  0  0  0  0  0  0  0  0  0  0  0
  -31.7025  -15.2182   20.3814 O   0  0  0  0  0  0  0  0  0  0  0  0
  -21.6284   -7.1036   22.0027 O   0  0  0  0  0  0  0  0  0  0  0  0
  -29.0633  -26.7470   21.3589 O   0  0  0  0  0  0  0  0  0  1  0  0
  -23.9508   -3.4923   25.4623 F   0  0  0  0  0  0  0  0  0  0  0  0
  -20.4197   -6.4619   24.4048 F   0  0  0  0  0  0  0  0  0  0  0  0
  1  2  1  0  0  0  0
  1  5  2  0  0  0  0
  2  6  2  0  0  0  0
  3 10  2  0  0  0  0
  3 18  1  0  0  0  0
  4 11  1  0  0  0  0
  4 18  2  0  0  0  0
  5 20  1  0  0  0  0
  6 22  1  0  0  0  0
  7 12  2  0  0  0  0
  7 21  1  0  0  0  0
  8  9  2  0  0  0  0
  8 24  1  0  0  0  0
  9 26  1  0  0  0  0
 10 27  1  0  0  0  0
 11 27  2  0  0  0  0
 12 28  1  0  0  0  0
 13 14  2  0  0  0  0
 13 29  1  0  0  0  0
 14 30  1  0  0  0  0
 15 23  1  0  0  0  0
 15 28  2  0  0  0  0
 16 24  2  0  0  0  0
 16 25  1  0  0  0  0
 17 30  2  0  0  0  0
 17 31  1  0  0  0  0
 18 32  1  0  0  0  0
 19 32  1  0  0  0  0
 19 33  2  0  0  0  0
 19 34  1  0  0  0  0
 20 22  2  0  0  0  0
 20 39  1  0  0  0  0
 21 23  2  0  0  0  0
 21 40  1  0  0  0  0
 22 48  1  0  0  0  0
 23 41  1  0  0  0  0
 24 59  1  0  0  0  0
 25 26  2  0  0  0  0
 25 51  1  0  0  0  0
 26 73  1  0  0  0  0
 27 83  1  0  0  0  0
 28 84  1  0  0  0  0
 29 31  2  0  0  0  0
 29 83  1  0  0  0  0
 30 85  1  0  0  0  0
 31 86  1  0  0  0  0
 32 67  2  0  0  0  0
 33 68  1  0  0  0  0
 33 71  1  0  0  0  0
 34 72  1  0  0  0  0
 34 78  2  0  0  0  0
 35 49  1  0  0  0  0
 35 74  1  0  0  0  0
 35 79  2  0  0  0  0
 36 63  1  0  0  0  0
 36 69  1  0  0  0  0
 36 80  2  0  0  0  0
 37 64  1  0  0  0  0
 37 75  1  0  0  0  0
 37 81  2  0  0  0  0
 38 70  1  0  0  0  0
 38 73  1  0  0  0  0
 38 82  2  0  0  0  0
 39 42  1  0  0  0  0
 40 49  1  0  0  0  0
 41 69  1  0  0  0  0
 42 44  1  0  0  0  0
 43 45  1  0  0  0  0
 43 46  1  0  0  0  0
 44 48  1  0  0  0  0
 45 50  1  0  0  0  0
 46 70  1  0  0  0  0
 47 50  1  0  0  0  0
 47 70  1  0  0  0  0
 48 74  1  0  0  0  0
 49 69  1  0  0  0  0
 50 68  1  0  0  0  0
 52 64  1  0  0  0  0
 53 65  1  0  0  0  0
 54 66  1  0  0  0  0
 55 66  1  0  0  0  0
 56 66  1  0  0  0  0
 57 76  1  0  0  0  0
 58 77  1  0  0  0  0
 59 77  1  0  0  0  0
 60 61  1  0  0  0  0
 60 62  1  0  0  0  0
 61 65  1  0  0  0  0
 62 84  1  0  0  0  0
 63 66  1  0  0  0  0
 63 75  1  0  0  0  0
 64 76  1  0  0  0  0
 65 77  1  0  0  0  0
 67 68  1  0  0  0  0
M  CHG  2  76   1  77   1
M  ISO  4  38 100  62 101  73 100  84 101
M  END
> <Batch ID>
0019

> <Smiles>
CNC(C)C(=O)NC(C(=O)N1Cc2cc([101O:1][101CH2:1]CCC(C)N(C)Cc3ccc([100NH:0][100C:0](=O)N4CCCC(n5nc(-c6ccc(Oc7ccc(F)cc7F)cc6)c(C(N)=O)c5N)C4)c(C)c3)ccc2CC1C(=O)NC1CCCc2ccccc21)C(C)(C)C

> <Shape>
0.291

> <Color>
0.228

> <Negative vol penalty>
0.000

$$$$

  -OEChem-04042321053D

 85 93  0     1  0  0  0  0  0999 V2000
  -29.0414  -36.2425   19.7401 C   0  0  0  0  0  0  0  0  0  0  0  0
  -29.4776  -35.0786   19.1152 C   0  0  0  0  0  0  0  0  0  0  0  0
  -23.1632   -9.9514   19.8761 C   0  0  0  0  0  0  0  0  0  0  0  0
  -24.2321   -9.6330   22.0192 C   0  0  0  0  0  0  0  0  0  0  0  0
  -28.3605  -36.1671   20.9544 C   0  0  0  0  0  0  0  0  0  0  0  0
  -29.2341  -33.8387   19.7049 C   0  0  0  0  0  0  0  0  0  0  0  0
  -27.8771  -27.0150   17.9984 C   0  0  0  0  0  0  0  0  0  0  0  0
  -30.2906  -17.6802   21.0884 C   0  0  0  0  0  0  0  0  0  0  0  0
  -30.5949  -19.0317   21.2514 C   0  0  0  0  0  0  0  0  0  0  0  0
  -22.5543   -8.7020   19.9941 C   0  0  0  0  0  0  0  0  0  0  0  0
  -23.6232   -8.3836   22.1373 C   0  0  0  0  0  0  0  0  0  0  0  0
  -28.3364  -25.7260   18.2659 C   0  0  0  0  0  0  0  0  0  0  0  0
  -20.5832   -7.1648   22.9700 C   0  0  0  0  0  0  0  0  0  0  0  0
  -20.0022   -6.8420   24.1963 C   0  0  0  0  0  0  0  0  0  0  0  0
  -27.0810  -25.7127   20.3258 C   0  0  0  0  0  0  0  0  0  0  0  0
  -30.0067  -17.4559   23.4772 C   0  0  0  0  0  0  0  0  0  0  0  0
  -21.4824   -4.9433   24.3979 C   0  0  0  0  0  0  0  0  0  0  0  0
  -24.0021  -10.4169   20.8886 C   0  0  0  0  0  0  0  0  0  0  0  0
  -24.1243  -12.9453   21.2042 C   0  0  0  0  0  0  0  0  0  0  0  0
  -28.1001  -34.9251   21.5545 C   0  0  0  0  0  0  0  0  0  0  0  0
  -27.0236  -27.6677   18.8995 C   0  0  0  0  0  0  0  0  0  0  0  0
  -28.5503  -33.7467   20.9291 C   0  0  0  0  0  0  0  0  0  0  0  0
  -26.6103  -27.0089   20.0662 C   0  0  0  0  0  0  0  0  0  0  0  0
  -29.9964  -16.8923   22.2013 C   0  0  0  0  0  0  0  0  0  0  0  0
  -30.3111  -18.8073   23.6402 C   0  0  0  0  0  0  0  0  0  0  0  0
  -30.6052  -19.5952   22.5274 C   0  0  0  0  0  0  0  0  0  0  0  0
  -22.7843   -7.9181   21.1247 C   0  0  0  0  0  0  0  0  0  0  0  0
  -27.9407  -25.0758   19.4311 C   0  0  0  0  0  0  0  0  0  0  0  0
  -21.6138   -6.3768   22.4576 C   0  0  0  0  0  0  0  0  0  0  0  0
  -20.4518   -5.7313   24.9103 C   0  0  0  0  0  0  0  0  0  0  0  0
  -22.0634   -5.2661   23.1715 C   0  0  0  0  0  0  0  0  0  0  0  0
  -24.6318  -11.7071   20.7670 C   0  0  0  0  0  0  0  0  0  0  0  0
  -25.0929  -13.8552   20.8572 C   0  0  0  0  0  0  0  0  0  0  0  0
  -22.8880  -13.2461   21.8650 C   0  0  0  0  0  0  0  0  0  0  0  0
  -27.2101  -30.3147   20.6494 C   0  0  0  0  0  0  0  0  0  0  0  0
  -24.1149  -29.6193   21.3261 C   0  0  0  0  0  0  0  0  0  0  0  0
  -21.6565  -27.2625   21.5471 C   0  0  0  0  0  0  0  0  0  0  0  0
  -31.0110  -13.8313   20.6139 C   0  0  0  0  0  0  0  0  0  0  0  0
  -27.4020  -34.8968   22.8912 C   0  0  0  0  0  0  0  0  0  0  0  0
  -26.5157  -29.0478   18.5834 C   0  0  0  0  0  0  0  0  0  0  0  0
  -25.6791  -27.6582   21.0560 C   0  0  0  0  0  0  0  0  0  0  0  0
  -26.8553  -33.5211   23.2638 C   0  0  0  0  0  0  0  0  0  0  0  0
  -28.8252  -13.9348   17.6285 C   0  0  0  0  0  0  0  0  0  0  0  0
  -27.9041  -32.4431   23.0096 C   0  0  0  0  0  0  0  0  0  0  0  0
  -27.4951  -13.4149   18.1713 C   0  0  0  0  0  0  0  0  0  0  0  0
  -30.0128  -13.3726   18.4038 C   0  0  0  0  0  0  0  0  0  0  0  0
  -28.6051  -13.0796   20.4154 C   0  0  0  0  0  0  0  0  0  0  0  0
  -28.2835  -32.3816   21.5251 C   0  0  1  0  0  0  0  0  0  0  0  0
  -26.0606  -29.8150   19.8209 C   0  0  1  0  0  0  0  0  0  0  0  0
  -27.3859  -13.6634   19.6858 C   0  0  2  0  0  0  0  0  0  0  0  0
  -30.3149  -19.3851   25.0182 C   0  0  0  0  0  0  0  0  0  0  0  0
  -19.2395  -26.9890   22.1639 C   0  0  0  0  0  0  0  0  0  0  0  0
  -24.8513  -29.7984   24.2817 C   0  0  0  0  0  0  0  0  0  0  0  0
  -22.7124  -28.6116   24.8149 C   0  0  0  0  0  0  0  0  0  0  0  0
  -22.6548  -30.8368   23.6891 C   0  0  0  0  0  0  0  0  0  0  0  0
  -32.3032  -21.3734   22.8666 C   0  0  0  0  0  0  0  0  0  0  0  0
  -32.0211  -14.9347   22.5740 C   0  0  0  0  0  0  0  0  0  0  0  0
  -20.9493  -26.3249   18.8306 C   0  0  0  0  0  0  0  0  0  0  0  0
  -29.6710  -15.4475   22.0264 C   0  0  0  0  0  0  0  0  0  0  0  0
  -29.6401  -22.4143   21.1853 C   0  0  0  0  0  0  0  0  0  0  0  0
  -29.8880  -21.9695   22.6216 C   0  0  0  0  0  0  0  0  0  0  0  0
  -28.5323  -23.4545   21.0673 C   0  0  0  0  0  0  0  0  0  1  0  0
  -23.4084  -28.8067   22.3842 C   0  0  1  0  0  0  0  0  0  0  0  0
  -20.2270  -27.2471   21.0366 C   0  0  2  0  0  0  0  0  0  0  0  0
  -23.4258  -29.5016   23.7750 C   0  0  0  0  0  0  0  0  0  0  0  0
  -25.8297  -11.8168   20.1864 N   0  0  0  0  0  0  0  0  0  0  0  0
  -26.0830  -13.1348   20.2563 N   0  0  0  0  0  0  0  0  0  0  0  0
  -25.2149  -29.0106   20.7053 N   0  0  0  0  0  0  0  0  0  0  0  0
  -29.8627  -13.5841   19.8439 N   0  0  0  0  0  0  0  0  0  0  0  0
  -25.1858  -15.1932   21.0105 N   0  0  0  0  0  0  0  0  0  0  0  0
  -22.0075  -12.1927   22.1468 N   0  0  0  0  0  0  0  0  0  0  0  0
  -27.2604  -31.6904   20.7702 N   0  0  0  0  0  0  0  0  0  0  0  0
  -22.0708  -28.5381   21.8672 N   0  0  0  0  0  0  0  0  0  0  0  0
  -30.9135  -20.9555   22.6724 N   0  0  3  0  0  0  0  0  0  0  0  0
  -30.8574  -14.6403   21.7500 N   0  0  0  0  0  0  0  0  0  0  0  0
  -20.0555  -26.1819   20.0086 N   0  3  0  0  0  0  0  0  0  0  0  0
  -22.5660  -14.4166   22.1811 O   0  0  0  0  0  0  0  0  0  0  0  0
  -27.9927  -29.5117   21.1438 O   0  0  0  0  0  0  0  0  0  0  0  0
  -23.7015  -30.7495   21.0552 O   0  0  0  0  0  0  0  0  0  0  0  0
  -22.3363  -26.2442   21.6550 O   0  0  0  0  0  0  0  0  0  0  0  0
  -32.1128  -13.3639   20.2983 O   0  0  0  0  0  0  0  0  0  0  0  0
  -22.1901   -6.6990   21.2404 O   0  0  0  0  0  0  0  0  0  0  0  0
  -28.3880  -23.8180   19.6950 O   0  0  0  0  0  0  0  0  0  1  0  0
  -19.8948   -5.4223   26.0886 F   0  0  0  0  0  0  0  0  0  0  0  0
  -23.0540   -4.5059   22.6849 F   0  0  0  0  0  0  0  0  0  0  0  0
  1  2  1  0  0  0  0
  1  5  2  0  0  0  0
  2  6  2  0  0  0  0
  3 10  2  0  0  0  0
  3 18  1  0  0  0  0
  4 11  1  0  0  0  0
  4 18  2  0  0  0  0
  5 20  1  0  0  0  0
  6 22  1  0  0  0  0
  7 12  2  0  0  0  0
  7 21  1  0  0  0  0
  8  9  2  0  0  0  0
  8 24  1  0  0  0  0
  9 26  1  0  0  0  0
 10 27  1  0  0  0  0
 11 27  2  0  0  0  0
 12 28  1  0  0  0  0
 13 14  2  0  0  0  0
 13 29  1  0  0  0  0
 14 30  1  0  0  0  0
 15 23  1  0  0  0  0
 15 28  2  0  0  0  0
 16 24  2  0  0  0  0
 16 25  1  0  0  0  0
 17 30  2  0  0  0  0
 17 31  1  0  0  0  0
 18 32  1  0  0  0  0
 19 32  1  0  0  0  0
 19 33  2  0  0  0  0
 19 34  1  0  0  0  0
 20 22  2  0  0  0  0
 20 39  1  0  0  0  0
 21 23  2  0  0  0  0
 21 40  1  0  0  0  0
 22 48  1  0  0  0  0
 23 41  1  0  0  0  0
 24 59  1  0  0  0  0
 25 26  2  0  0  0  0
 25 51  1  0  0  0  0
 26 74  1  0  0  0  0
 27 82  1  0  0  0  0
 28 83  1  0  0  0  0
 29 31  2  0  0  0  0
 29 82  1  0  0  0  0
 30 84  1  0  0  0  0
 31 85  1  0  0  0  0
 32 66  2  0  0  0  0
 33 67  1  0  0  0  0
 33 70  1  0  0  0  0
 34 71  1  0  0  0  0
 34 77  2  0  0  0  0
 35 49  1  0  0  0  0
 35 72  1  0  0  0  0
 35 78  2  0  0  0  0
 36 63  1  0  0  0  0
 36 68  1  0  0  0  0
 36 79  2  0  0  0  0
 37 64  1  0  0  0  0
 37 73  1  0  0  0  0
 37 80  2  0  0  0  0
 38 69  1  0  0  0  0
 38 75  1  0  0  0  0
 38 81  2  0  0  0  0
 39 42  1  0  0  0  0
 40 49  1  0  0  0  0
 41 68  1  0  0  0  0
 42 44  1  0  0  0  0
 43 45  1  0  0  0  0
 43 46  1  0  0  0  0
 44 48  1  0  0  0  0
 45 50  1  0  0  0  0
 46 69  1  0  0  0  0
 47 50  1  0  0  0  0
 47 69  1  0  0  0  0
 48 72  1  0  0  0  0
 49 68  1  0  0  0  0
 50 67  1  0  0  0  0
 52 64  1  0  0  0  0
 53 65  1  0  0  0  0
 54 65  1  0  0  0  0
 55 65  1  0  0  0  0
 56 74  1  0  0  0  0
 57 75  1  0  0  0  0
 58 76  1  0  0  0  0
 59 75  1  0  0  0  0
 60 61  1  0  0  0  0
 60 62  1  0  0  0  0
 61 74  1  0  0  0  0
 62 83  1  0  0  0  0
 63 65  1  0  0  0  0
 63 73  1  0  0  0  0
 64 76  1  0  0  0  0
 66 67  1  0  0  0  0
M  CHG  1  76   1
M  ISO  4  38 100  62 101  75 100  83 101
M  END
> <Batch ID>
0019

> <Smiles>
CNC(C)C(=O)NC(C(=O)N1Cc2cc([101O:1][101CH2:1]CCN(C)c3ccc(C[100N:0](C)[100C:0](=O)N4CCCC(n5nc(-c6ccc(Oc7ccc(F)cc7F)cc6)c(C(N)=O)c5N)C4)cc3C)ccc2CC1C(=O)NC1CCCc2ccccc21)C(C)(C)C

> <Shape>
0.338

> <Color>
0.170

> <Negative vol penalty>
0.000

$$$$

  -OEChem-04042321053D

 86 94  0     1  0  0  0  0  0999 V2000
  -32.4359  -16.8748   21.8332 C   0  0  0  0  0  0  0  0  0  0  0  0
  -31.2436  -17.5122   22.1612 C   0  0  0  0  0  0  0  0  0  0  0  0
  -21.5034  -23.2025   16.8756 C   0  0  0  0  0  0  0  0  0  0  0  0
  -25.9139  -27.2978   18.9659 C   0  0  0  0  0  0  0  0  0  0  0  0
  -26.3715  -27.1333   21.3325 C   0  0  0  0  0  0  0  0  0  0  0  0
  -32.4447  -15.8695   20.8672 C   0  0  0  0  0  0  0  0  0  0  0  0
  -30.0596  -17.1454   21.5226 C   0  0  0  0  0  0  0  0  0  0  0  0
  -24.4445  -17.0243   23.9644 C   0  0  0  0  0  0  0  0  0  0  0  0
  -20.6682  -22.8776   17.9444 C   0  0  0  0  0  0  0  0  0  0  0  0
  -22.5758  -22.3716   16.5509 C   0  0  0  0  0  0  0  0  0  0  0  0
  -25.3257  -28.5465   19.1664 C   0  0  0  0  0  0  0  0  0  0  0  0
  -25.7834  -28.3821   21.5330 C   0  0  0  0  0  0  0  0  0  0  0  0
  -23.3816  -17.9254   23.9174 C   0  0  0  0  0  0  0  0  0  0  0  0
  -22.6605  -29.6561   21.7689 C   0  0  0  0  0  0  0  0  0  0  0  0
  -21.7769  -29.7919   22.8396 C   0  0  0  0  0  0  0  0  0  0  0  0
  -22.4161  -16.6818   22.0898 C   0  0  0  0  0  0  0  0  0  0  0  0
  -21.9777  -20.8911   18.3640 C   0  0  0  0  0  0  0  0  0  0  0  0
  -23.1939  -31.5011   23.7923 C   0  0  0  0  0  0  0  0  0  0  0  0
  -26.4368  -26.5911   20.0490 C   0  0  0  0  0  0  0  0  0  0  0  0
  -28.3974  -25.0333   19.5625 C   0  0  0  0  0  0  0  0  0  0  0  0
  -31.2585  -15.4835   20.2233 C   0  0  0  0  0  0  0  0  0  0  0  0
  -24.5069  -15.9497   23.0657 C   0  0  0  0  0  0  0  0  0  0  0  0
  -30.0528  -16.1349   20.5461 C   0  0  0  0  0  0  0  0  0  0  0  0
  -23.4795  -15.7671   22.1291 C   0  0  0  0  0  0  0  0  0  0  0  0
  -20.9053  -21.7220   18.6886 C   0  0  0  0  0  0  0  0  0  0  0  0
  -22.8129  -21.2160   17.2951 C   0  0  0  0  0  0  0  0  0  0  0  0
  -25.2604  -29.0887   20.4499 C   0  0  0  0  0  0  0  0  0  0  0  0
  -22.3687  -17.7558   22.9781 C   0  0  0  0  0  0  0  0  0  0  0  0
  -23.8109  -30.4428   21.7099 C   0  0  0  0  0  0  0  0  0  0  0  0
  -22.0435  -30.7144   23.8513 C   0  0  0  0  0  0  0  0  0  0  0  0
  -24.0776  -31.3653   22.7216 C   0  0  0  0  0  0  0  0  0  0  0  0
  -27.0440  -25.3009   19.8426 C   0  0  0  0  0  0  0  0  0  0  0  0
  -28.4620  -23.6655   19.4558 C   0  0  0  0  0  0  0  0  0  0  0  0
  -29.4978  -25.9400   19.4122 C   0  0  0  0  0  0  0  0  0  0  0  0
  -26.5302  -15.0457   20.7870 C   0  0  0  0  0  0  0  0  0  0  0  0
  -24.6309  -12.4180   20.6846 C   0  0  0  0  0  0  0  0  0  0  0  0
  -21.5739  -11.0274   21.2909 C   0  0  0  0  0  0  0  0  0  0  0  0
  -24.5830  -19.5925   17.9452 C   0  0  0  0  0  0  0  0  0  0  0  0
  -31.3258  -14.4242   19.1518 C   0  0  0  0  0  0  0  0  0  0  0  0
  -25.6464  -14.9713   23.1469 C   0  0  0  0  0  0  0  0  0  0  0  0
  -23.4892  -14.6181   21.1553 C   0  0  0  0  0  0  0  0  0  0  0  0
  -29.9643  -13.8359   18.7907 C   0  0  0  0  0  0  0  0  0  0  0  0
  -26.3566  -19.6755   21.0259 C   0  0  0  0  0  0  0  0  0  0  0  0
  -28.9363  -14.9466   18.6000 C   0  0  0  0  0  0  0  0  0  0  0  0
  -26.8601  -21.1183   21.0473 C   0  0  0  0  0  0  0  0  0  0  0  0
  -24.9369  -19.5729   20.4673 C   0  0  0  0  0  0  0  0  0  0  0  0
  -25.2708  -21.6469   19.1590 C   0  0  0  0  0  0  0  0  0  0  0  0
  -28.7435  -15.7479   19.8932 C   0  0  1  0  0  0  0  0  0  0  0  0
  -25.8718  -14.2072   21.8458 C   0  0  1  0  0  0  0  0  0  0  0  0
  -26.7171  -21.7738   19.6624 C   0  0  1  0  0  0  0  0  0  0  0  0
  -22.3090  -22.3853   22.7043 C   0  0  0  0  0  0  0  0  0  0  0  0
  -20.3121   -8.8697   21.0684 C   0  0  0  0  0  0  0  0  0  0  0  0
  -24.3315  -12.9051   17.6874 C   0  0  0  0  0  0  0  0  0  0  0  0
  -22.3665  -11.3537   17.7022 C   0  0  0  0  0  0  0  0  0  0  0  0
  -24.6271  -10.5063   18.3301 C   0  0  0  0  0  0  0  0  0  0  0  0
  -24.2024  -20.0964   15.5417 C   0  0  0  0  0  0  0  0  0  0  0  0
  -21.1418  -10.8442   24.2130 C   0  0  0  0  0  0  0  0  0  0  0  0
  -20.0066  -21.3730   19.8381 C   0  0  0  0  0  0  0  0  0  0  0  0
  -21.4946  -22.5627   21.4415 C   0  0  0  0  0  0  0  0  0  0  0  0
  -19.8498  -20.8898   22.2761 C   0  0  0  0  0  0  0  0  0  0  0  0
  -20.3273  -18.4003   21.9421 C   0  0  0  0  0  0  0  0  0  1  0  0
  -23.3868  -12.0271   19.9241 C   0  0  1  0  0  0  0  0  0  0  0  0
  -21.1740   -9.7332   21.9762 C   0  0  2  0  0  0  0  0  0  0  0  0
  -19.2716  -19.4965   22.0446 C   0  0  1  0  0  0  0  0  0  0  0  0
  -23.6785  -11.7209   18.4279 C   0  0  0  0  0  0  0  0  0  0  0  0
  -26.3023  -24.1921   19.9095 N   0  0  0  0  0  0  0  0  0  0  0  0
  -27.1928  -23.2145   19.6698 N   0  0  0  0  0  0  0  0  0  0  0  0
  -24.6278  -13.6919   21.2702 N   0  0  0  0  0  0  0  0  0  0  0  0
  -24.8395  -20.2469   19.1648 N   0  0  0  0  0  0  0  0  0  0  0  0
  -29.4802  -22.8165   19.2006 N   0  0  0  0  0  0  0  0  0  0  0  0
  -29.2560  -27.3133   19.5537 N   0  0  0  0  0  0  0  0  0  0  0  0
  -27.9112  -15.0146   20.8227 N   0  0  0  0  0  0  0  0  0  0  0  0
  -22.7931  -10.9141   20.6570 N   0  0  0  0  0  0  0  0  0  0  0  0
  -23.9228  -20.3557   16.9582 N   0  0  0  0  0  0  0  0  0  0  0  0
  -20.4047  -10.0217   23.2195 N   0  3  0  0  0  0  0  0  0  0  0  0
  -20.7373  -21.2893   21.1557 N   0  3  1  0  0  0  0  0  0  0  0  0
  -30.6578  -25.5454   19.1438 O   0  0  0  0  0  0  0  0  0  0  0  0
  -25.8366  -15.6731   19.9952 O   0  0  0  0  0  0  0  0  0  0  0  0
  -25.5680  -11.6196   20.7624 O   0  0  0  0  0  0  0  0  0  0  0  0
  -20.8729  -12.0367   21.3125 O   0  0  0  0  0  0  0  0  0  0  0  0
  -24.9395  -18.4253   17.7438 O   0  0  0  0  0  0  0  0  0  0  0  0
  -18.3796  -19.1666   23.1104 O   0  0  0  0  0  0  0  0  0  0  0  0
  -24.6868  -30.3074   20.6459 O   0  0  0  0  0  0  0  0  0  0  0  0
  -21.3304  -18.6342   22.9297 O   0  0  0  0  0  0  0  0  0  1  0  0
  -21.1941  -30.8458   24.8786 F   0  0  0  0  0  0  0  0  0  0  0  0
  -25.1805  -32.1247   22.6698 F   0  0  0  0  0  0  0  0  0  0  0  0
  1  2  1  0  0  0  0
  1  6  2  0  0  0  0
  2  7  2  0  0  0  0
  3  9  2  0  0  0  0
  3 10  1  0  0  0  0
  4 11  2  0  0  0  0
  4 19  1  0  0  0  0
  5 12  1  0  0  0  0
  5 19  2  0  0  0  0
  6 21  1  0  0  0  0
  7 23  1  0  0  0  0
  8 13  2  0  0  0  0
  8 22  1  0  0  0  0
  9 25  1  0  0  0  0
 10 26  2  0  0  0  0
 11 27  1  0  0  0  0
 12 27  2  0  0  0  0
 13 28  1  0  0  0  0
 14 15  2  0  0  0  0
 14 29  1  0  0  0  0
 15 30  1  0  0  0  0
 16 24  1  0  0  0  0
 16 28  2  0  0  0  0
 17 25  2  0  0  0  0
 17 26  1  0  0  0  0
 18 30  2  0  0  0  0
 18 31  1  0  0  0  0
 19 32  1  0  0  0  0
 20 32  1  0  0  0  0
 20 33  2  0  0  0  0
 20 34  1  0  0  0  0
 21 23  2  0  0  0  0
 21 39  1  0  0  0  0
 22 24  2  0  0  0  0
 22 40  1  0  0  0  0
 23 48  1  0  0  0  0
 24 41  1  0  0  0  0
 25 58  1  0  0  0  0
 26 74  1  0  0  0  0
 27 83  1  0  0  0  0
 28 84  1  0  0  0  0
 29 31  2  0  0  0  0
 29 83  1  0  0  0  0
 30 85  1  0  0  0  0
 31 86  1  0  0  0  0
 32 66  2  0  0  0  0
 33 67  1  0  0  0  0
 33 70  1  0  0  0  0
 34 71  1  0  0  0  0
 34 77  2  0  0  0  0
 35 49  1  0  0  0  0
 35 72  1  0  0  0  0
 35 78  2  0  0  0  0
 36 62  1  0  0  0  0
 36 68  1  0  0  0  0
 36 79  2  0  0  0  0
 37 63  1  0  0  0  0
 37 73  1  0  0  0  0
 37 80  2  0  0  0  0
 38 69  1  0  0  0  0
 38 74  1  0  0  0  0
 38 81  2  0  0  0  0
 39 42  1  0  0  0  0
 40 49  1  0  0  0  0
 41 68  1  0  0  0  0
 42 44  1  0  0  0  0
 43 45  1  0  0  0  0
 43 46  1  0  0  0  0
 44 48  1  0  0  0  0
 45 50  1  0  0  0  0
 46 69  1  0  0  0  0
 47 50  1  0  0  0  0
 47 69  1  0  0  0  0
 48 72  1  0  0  0  0
 49 68  1  0  0  0  0
 50 67  1  0  0  0  0
 51 59  1  0  0  0  0
 52 63  1  0  0  0  0
 53 65  1  0  0  0  0
 54 65  1  0  0  0  0
 55 65  1  0  0  0  0
 56 74  1  0  0  0  0
 57 75  1  0  0  0  0
 58 76  1  0  0  0  0
 59 76  1  0  0  0  0
 60 64  1  0  0  0  0
 60 76  1  0  0  0  0
 61 64  1  0  0  0  0
 61 84  1  0  0  0  0
 62 65  1  0  0  0  0
 62 73  1  0  0  0  0
 63 75  1  0  0  0  0
 64 82  1  0  0  0  0
 66 67  1  0  0  0  0
M  CHG  2  75   1  76   1
M  ISO  4  38 100  61 101  74 100  84 101
M  END
> <Batch ID>
0019

> <Smiles>
CCN(Cc1cccc([100N:0](C)[100C:0](=O)N2CCCC(n3nc(-c4ccc(Oc5ccc(F)cc5F)cc4)c(C(N)=O)c3N)C2)c1)CC(O)[101CH2:1][101O:1]c1ccc2c(c1)CN(C(=O)C(NC(=O)C(C)NC)C(C)(C)C)C(C(=O)NC1CCCc3ccccc31)C2

> <Shape>
0.197

> <Color>
0.070

> <Negative vol penalty>
0.000

$$$$

  -OEChem-04042321053D

 87 96  0     1  0  0  0  0  0999 V2000
  -28.5846  -31.7537   26.6396 C   0  0  0  0  0  0  0  0  0  0  0  0
  -28.5603  -30.6746   25.7620 C   0  0  0  0  0  0  0  0  0  0  0  0
  -23.9267   -9.5646   20.9507 C   0  0  0  0  0  0  0  0  0  0  0  0
  -25.5711   -9.9409   22.6802 C   0  0  0  0  0  0  0  0  0  0  0  0
  -27.3894  -32.2852   27.1222 C   0  0  0  0  0  0  0  0  0  0  0  0
  -27.3408  -30.1255   25.3673 C   0  0  0  0  0  0  0  0  0  0  0  0
  -27.1400  -29.2152   20.3898 C   0  0  0  0  0  0  0  0  0  0  0  0
  -23.7149   -8.2730   21.4330 C   0  0  0  0  0  0  0  0  0  0  0  0
  -25.3593   -8.6494   23.1627 C   0  0  0  0  0  0  0  0  0  0  0  0
  -27.7953  -28.0763   19.9238 C   0  0  0  0  0  0  0  0  0  0  0  0
  -22.0346   -6.8079   23.9753 C   0  0  0  0  0  0  0  0  0  0  0  0
  -20.7158   -6.3729   24.1060 C   0  0  0  0  0  0  0  0  0  0  0  0
  -25.6891  -26.9026   19.8486 C   0  0  0  0  0  0  0  0  0  0  0  0
  -29.0238  -17.8563   20.4356 C   0  0  0  0  0  0  0  0  0  0  0  0
  -29.2554  -19.8468   22.3765 C   0  0  0  0  0  0  0  0  0  0  0  0
  -21.1584   -4.5674   22.5628 C   0  0  0  0  0  0  0  0  0  0  0  0
  -24.8549  -10.3985   21.5742 C   0  0  0  0  0  0  0  0  0  0  0  0
  -24.1258  -12.7671   20.9695 C   0  0  0  0  0  0  0  0  0  0  0  0
  -26.1543  -31.7486   26.7258 C   0  0  0  0  0  0  0  0  0  0  0  0
  -25.7535  -29.2030   20.5994 C   0  0  0  0  0  0  0  0  0  0  0  0
  -26.1280  -30.6494   25.8462 C   0  0  0  0  0  0  0  0  0  0  0  0
  -25.0182  -28.0434   20.3148 C   0  0  0  0  0  0  0  0  0  0  0  0
  -28.9206  -19.1992   20.0731 C   0  0  0  0  0  0  0  0  0  0  0  0
  -29.2427  -17.5086   21.7686 C   0  0  0  0  0  0  0  0  0  0  0  0
  -29.0365  -20.1945   21.0435 C   0  0  0  0  0  0  0  0  0  0  0  0
  -24.4312   -7.8154   22.5390 C   0  0  0  0  0  0  0  0  0  0  0  0
  -27.0703  -26.9188   19.6559 C   0  0  0  0  0  0  0  0  0  0  0  0
  -22.9154   -6.1227   23.1383 C   0  0  0  0  0  0  0  0  0  0  0  0
  -20.2777   -5.2526   23.3998 C   0  0  0  0  0  0  0  0  0  0  0  0
  -29.3585  -18.5038   22.7390 C   0  0  0  0  0  0  0  0  0  0  0  0
  -22.4773   -5.0024   22.4321 C   0  0  0  0  0  0  0  0  0  0  0  0
  -25.0745  -11.7325   21.0761 C   0  0  0  0  0  0  0  0  0  0  0  0
  -24.8278  -13.8238   20.4431 C   0  0  0  0  0  0  0  0  0  0  0  0
  -22.7345  -12.7725   21.3156 C   0  0  0  0  0  0  0  0  0  0  0  0
  -23.8632  -29.5914   23.1251 C   0  0  0  0  0  0  0  0  0  0  0  0
  -21.5100  -29.4511   20.8969 C   0  0  0  0  0  0  0  0  0  0  0  0
  -20.5046  -28.4092   17.8065 C   0  0  0  0  0  0  0  0  0  0  0  0
  -30.8721  -14.8184   20.5654 C   0  0  0  0  0  0  0  0  0  0  0  0
  -24.8902  -32.3266   27.3111 C   0  0  0  0  0  0  0  0  0  0  0  0
  -25.0577  -30.4481   21.0769 C   0  0  0  0  0  0  0  0  0  0  0  0
  -23.5252  -27.9849   20.5039 C   0  0  0  0  0  0  0  0  0  0  0  0
  -23.6284  -31.9262   26.5509 C   0  0  0  0  0  0  0  0  0  0  0  0
  -28.5798  -14.8267   17.6590 C   0  0  0  0  0  0  0  0  0  0  0  0
  -23.6329  -30.4288   26.2601 C   0  0  0  0  0  0  0  0  0  0  0  0
  -27.3707  -14.0559   18.1862 C   0  0  0  0  0  0  0  0  0  0  0  0
  -29.3177  -23.8505   20.6638 C   0  0  0  0  0  0  0  0  0  0  0  0
  -29.8711  -14.3974   18.3490 C   0  0  0  0  0  0  0  0  0  0  0  0
  -29.9982  -22.5074   20.9196 C   0  0  0  0  0  0  0  0  0  0  0  0
  -27.7560  -22.1304   20.0901 C   0  0  0  0  0  0  0  0  0  0  0  0
  -28.6083  -13.7110   20.3611 C   0  0  0  0  0  0  0  0  0  0  0  0
  -24.8243  -30.0421   25.3755 C   0  0  1  0  0  0  0  0  0  0  0  0
  -23.7154  -30.1640   21.7438 C   0  0  1  0  0  0  0  0  0  0  0  0
  -28.2473  -23.5081   19.6316 C   0  0  1  0  0  0  0  0  0  0  0  0
  -27.2844  -14.1526   19.7193 C   0  0  2  0  0  0  0  0  0  0  0  0
  -28.6862  -19.5434   18.6381 C   0  0  0  0  0  0  0  0  0  0  0  0
  -18.5137  -28.4089   16.2789 C   0  0  0  0  0  0  0  0  0  0  0  0
  -20.2304  -27.2426   22.5689 C   0  0  0  0  0  0  0  0  0  0  0  0
  -18.8307  -26.6446   20.5810 C   0  0  0  0  0  0  0  0  0  0  0  0
  -18.6166  -28.9016   21.6214 C   0  0  0  0  0  0  0  0  0  0  0  0
  -31.7736  -15.8967   22.5912 C   0  0  0  0  0  0  0  0  0  0  0  0
  -21.9492  -29.9505   15.7337 C   0  0  0  0  0  0  0  0  0  0  0  0
  -29.3522  -16.0717   22.1533 C   0  0  0  0  0  0  0  0  0  0  0  0
  -27.1397  -24.5439   19.5512 C   0  0  0  0  0  0  0  0  0  1  0  0
  -20.6864  -28.3465   20.2799 C   0  0  1  0  0  0  0  0  0  0  0  0
  -19.7874  -29.1352   16.6827 C   0  0  2  0  0  0  0  0  0  0  0  0
  -19.6194  -27.7840   21.2610 C   0  0  0  0  0  0  0  0  0  0  0  0
  -26.2867  -12.0988   20.6513 N   0  0  0  0  0  0  0  0  0  0  0  0
  -26.1045  -13.3753   20.2726 N   0  0  0  0  0  0  0  0  0  0  0  0
  -28.9374  -21.5268   20.7031 N   0  0  3  0  0  0  0  0  0  0  0  0
  -22.8914  -29.2260   20.9787 N   0  0  0  0  0  0  0  0  0  0  0  0
  -29.7471  -14.4576   19.8058 N   0  0  0  0  0  0  0  0  0  0  0  0
  -24.4713  -15.0836   20.1139 N   0  0  0  0  0  0  0  0  0  0  0  0
  -22.3705  -13.1530   22.6145 N   0  0  0  0  0  0  0  0  0  0  0  0
  -24.5673  -30.3999   23.9969 N   0  0  0  0  0  0  0  0  0  0  0  0
  -20.1340  -28.8909   19.0442 N   0  0  0  0  0  0  0  0  0  0  0  0
  -30.6387  -15.4916   21.7741 N   0  0  0  0  0  0  0  0  0  0  0  0
  -20.6697  -29.2375   15.4860 N   0  3  0  0  0  0  0  0  0  0  0  0
  -21.8416  -12.4338   20.5022 O   0  0  0  0  0  0  0  0  0  0  0  0
  -23.3733  -28.4978   23.3815 O   0  0  0  0  0  0  0  0  0  0  0  0
  -20.9491  -30.4788   21.2853 O   0  0  0  0  0  0  0  0  0  0  0  0
  -21.3102  -27.5027   17.6066 O   0  0  0  0  0  0  0  0  0  0  0  0
  -32.0202  -14.5622   20.1802 O   0  0  0  0  0  0  0  0  0  0  0  0
  -24.2246   -6.5553   23.0102 O   0  0  0  0  0  0  0  0  0  0  0  0
  -27.7076  -25.8055   19.2017 O   0  0  0  0  0  0  0  0  0  1  0  0
  -19.0117   -4.8341   23.5266 F   0  0  0  0  0  0  0  0  0  0  0  0
  -29.5688  -18.1793   24.0225 F   0  0  0  0  0  0  0  0  0  0  0  0
  -23.3191   -4.3393   21.6274 F   0  0  0  0  0  0  0  0  0  0  0  0
  1  2  1  0  0  0  0
  1  5  2  0  0  0  0
  2  6  2  0  0  0  0
  3  8  2  0  0  0  0
  3 17  1  0  0  0  0
  4  9  1  0  0  0  0
  4 17  2  0  0  0  0
  5 19  1  0  0  0  0
  6 21  1  0  0  0  0
  7 10  2  0  0  0  0
  7 20  1  0  0  0  0
  8 26  1  0  0  0  0
  9 26  2  0  0  0  0
 10 27  1  0  0  0  0
 11 12  2  0  0  0  0
 11 28  1  0  0  0  0
 12 29  1  0  0  0  0
 13 22  1  0  0  0  0
 13 27  2  0  0  0  0
 14 23  1  0  0  0  0
 14 24  2  0  0  0  0
 15 25  1  0  0  0  0
 15 30  2  0  0  0  0
 16 29  2  0  0  0  0
 16 31  1  0  0  0  0
 17 32  1  0  0  0  0
 18 32  1  0  0  0  0
 18 33  2  0  0  0  0
 18 34  1  0  0  0  0
 19 21  2  0  0  0  0
 19 39  1  0  0  0  0
 20 22  2  0  0  0  0
 20 40  1  0  0  0  0
 21 51  1  0  0  0  0
 22 41  1  0  0  0  0
 23 25  2  0  0  0  0
 23 55  1  0  0  0  0
 24 30  1  0  0  0  0
 24 62  1  0  0  0  0
 25 69  1  0  0  0  0
 26 83  1  0  0  0  0
 27 84  1  0  0  0  0
 28 31  2  0  0  0  0
 28 83  1  0  0  0  0
 29 85  1  0  0  0  0
 30 86  1  0  0  0  0
 31 87  1  0  0  0  0
 32 67  2  0  0  0  0
 33 68  1  0  0  0  0
 33 72  1  0  0  0  0
 34 73  1  0  0  0  0
 34 78  2  0  0  0  0
 35 52  1  0  0  0  0
 35 74  1  0  0  0  0
 35 79  2  0  0  0  0
 36 64  1  0  0  0  0
 36 70  1  0  0  0  0
 36 80  2  0  0  0  0
 37 65  1  0  0  0  0
 37 75  1  0  0  0  0
 37 81  2  0  0  0  0
 38 71  1  0  0  0  0
 38 76  1  0  0  0  0
 38 82  2  0  0  0  0
 39 42  1  0  0  0  0
 40 52  1  0  0  0  0
 41 70  1  0  0  0  0
 42 44  1  0  0  0  0
 43 45  1  0  0  0  0
 43 47  1  0  0  0  0
 44 51  1  0  0  0  0
 45 54  1  0  0  0  0
 46 48  1  0  0  0  0
 46 53  1  0  0  0  0
 47 71  1  0  0  0  0
 48 69  1  0  0  0  0
 49 53  1  0  0  0  0
 49 69  1  0  0  0  0
 50 54  1  0  0  0  0
 50 71  1  0  0  0  0
 51 74  1  0  0  0  0
 52 70  1  0  0  0  0
 53 63  1  0  0  0  0
 54 68  1  0  0  0  0
 56 65  1  0  0  0  0
 57 66  1  0  0  0  0
 58 66  1  0  0  0  0
 59 66  1  0  0  0  0
 60 76  1  0  0  0  0
 61 77  1  0  0  0  0
 62 76  1  0  0  0  0
 63 84  1  0  0  0  0
 64 66  1  0  0  0  0
 64 75  1  0  0  0  0
 65 77  1  0  0  0  0
 67 68  1  0  0  0  0
M  CHG  1  77   1
M  ISO  4  38 100  63 101  76 100  84 101
M  END
> <Batch ID>
0019

> <Smiles>
CNC(C)C(=O)NC(C(=O)N1Cc2cc([101O:1][101CH2:1]C3CCN(c4cc(F)c(C[100N:0](C)[100C:0](=O)N5CCCC(n6nc(-c7ccc(Oc8ccc(F)cc8F)cc7)c(C(N)=O)c6N)C5)cc4C)C3)ccc2CC1C(=O)NC1CCCc2ccccc21)C(C)(C)C

> <Shape>
0.382

> <Color>
0.149

> <Negative vol penalty>
0.000

$$$$

  -OEChem-04042321053D

 89 98  0     1  0  0  0  0  0999 V2000
  -33.0124  -28.5811   20.7061 C   0  0  0  0  0  0  0  0  0  0  0  0
  -32.0121  -27.8254   20.1032 C   0  0  0  0  0  0  0  0  0  0  0  0
  -26.8289  -12.2539   21.7062 C   0  0  0  0  0  0  0  0  0  0  0  0
  -26.3244  -13.7014   19.8388 C   0  0  0  0  0  0  0  0  0  0  0  0
  -32.8077  -29.1207   21.9753 C   0  0  0  0  0  0  0  0  0  0  0  0
  -30.8067  -27.6079   20.7696 C   0  0  0  0  0  0  0  0  0  0  0  0
  -26.7819  -28.2473   17.7635 C   0  0  0  0  0  0  0  0  0  0  0  0
  -30.3940  -22.1501   21.1644 C   0  0  0  0  0  0  0  0  0  0  0  0
  -25.5038  -11.8188   21.7270 C   0  0  0  0  0  0  0  0  0  0  0  0
  -24.9993  -13.2663   19.8596 C   0  0  0  0  0  0  0  0  0  0  0  0
  -26.4737  -27.2111   16.8830 C   0  0  0  0  0  0  0  0  0  0  0  0
  -23.5643   -9.6570   19.9956 C   0  0  0  0  0  0  0  0  0  0  0  0
  -29.9620  -23.3787   20.6650 C   0  0  0  0  0  0  0  0  0  0  0  0
  -23.3336   -8.2874   20.1242 C   0  0  0  0  0  0  0  0  0  0  0  0
  -24.7584  -26.4439   18.3957 C   0  0  0  0  0  0  0  0  0  0  0  0
  -22.1076   -8.6858   22.1676 C   0  0  0  0  0  0  0  0  0  0  0  0
  -27.2392  -13.1952   20.7621 C   0  0  0  0  0  0  0  0  0  0  0  0
  -29.6761  -13.0835   20.0161 C   0  0  0  0  0  0  0  0  0  0  0  0
  -31.5955  -28.9178   22.6536 C   0  0  0  0  0  0  0  0  0  0  0  0
  -26.0868  -28.3833   18.9737 C   0  0  0  0  0  0  0  0  0  0  0  0
  -30.5860  -28.1441   22.0497 C   0  0  0  0  0  0  0  0  0  0  0  0
  -25.0579  -27.4842   19.2886 C   0  0  0  0  0  0  0  0  0  0  0  0
  -29.7206  -21.0771   19.1071 C   0  0  0  0  0  0  0  0  0  0  0  0
  -29.2887  -22.3058   18.6077 C   0  0  0  0  0  0  0  0  0  0  0  0
  -30.2733  -20.9993   20.3854 C   0  0  0  0  0  0  0  0  0  0  0  0
  -24.5890  -12.3251   20.8037 C   0  0  0  0  0  0  0  0  0  0  0  0
  -25.4638  -26.3075   17.2004 C   0  0  0  0  0  0  0  0  0  0  0  0
  -23.0667  -10.5411   20.9530 C   0  0  0  0  0  0  0  0  0  0  0  0
  -22.6052   -7.8018   21.2101 C   0  0  0  0  0  0  0  0  0  0  0  0
  -29.4094  -23.4566   19.3867 C   0  0  0  0  0  0  0  0  0  0  0  0
  -22.3383  -10.0555   22.0390 C   0  0  0  0  0  0  0  0  0  0  0  0
  -28.6078  -13.6454   20.7405 C   0  0  0  0  0  0  0  0  0  0  0  0
  -30.7568  -13.8700   20.3327 C   0  0  0  0  0  0  0  0  0  0  0  0
  -29.6904  -11.9520   19.1357 C   0  0  0  0  0  0  0  0  0  0  0  0
  -26.8939  -28.2903   22.0468 C   0  0  0  0  0  0  0  0  0  0  0  0
  -23.8025  -29.1704   22.4838 C   0  0  0  0  0  0  0  0  0  0  0  0
  -20.6138  -29.2505   21.2704 C   0  0  0  0  0  0  0  0  0  0  0  0
  -31.2874  -19.5327   22.1651 C   0  0  0  0  0  0  0  0  0  0  0  0
  -31.4383  -29.4814   24.0437 C   0  0  0  0  0  0  0  0  0  0  0  0
  -26.4131  -29.5223   19.9004 C   0  0  0  0  0  0  0  0  0  0  0  0
  -24.2681  -27.5986   20.5659 C   0  0  0  0  0  0  0  0  0  0  0  0
  -29.9904  -29.5183   24.5258 C   0  0  0  0  0  0  0  0  0  0  0  0
  -32.4783  -16.6296   23.8477 C   0  0  0  0  0  0  0  0  0  0  0  0
  -26.5861  -17.9134   19.2187 C   0  0  0  0  0  0  0  0  0  0  0  0
  -27.3364  -17.0829   18.1970 C   0  0  0  0  0  0  0  0  0  0  0  0
  -29.2974  -28.1906   24.2367 C   0  0  0  0  0  0  0  0  0  0  0  0
  -31.7226  -15.4832   23.1718 C   0  0  0  0  0  0  0  0  0  0  0  0
  -31.6076  -17.8768   23.9900 C   0  0  0  0  0  0  0  0  0  0  0  0
  -30.2225  -17.1933   22.0707 C   0  0  0  0  0  0  0  0  0  0  0  0
  -27.5724  -19.0169   19.5353 C   0  0  0  0  0  0  0  0  0  0  0  0
  -28.0098  -18.1130   17.3072 C   0  0  0  0  0  0  0  0  0  0  0  0
  -29.2554  -27.9068   22.7303 C   0  0  1  0  0  0  0  0  0  0  0  0
  -25.9883  -29.2603   21.3420 C   0  0  1  0  0  0  0  0  0  0  0  0
  -31.0791  -15.9364   21.8466 C   0  0  2  0  0  0  0  0  0  0  0  0
  -18.2958  -30.0014   21.8710 C   0  0  0  0  0  0  0  0  0  0  0  0
  -23.5211  -26.7867   24.3677 C   0  0  0  0  0  0  0  0  0  0  0  0
  -21.0355  -27.0201   24.1792 C   0  0  0  0  0  0  0  0  0  0  0  0
  -22.3904  -28.8752   25.1516 C   0  0  0  0  0  0  0  0  0  0  0  0
  -20.4889  -31.0980   18.9617 C   0  0  0  0  0  0  0  0  0  0  0  0
  -29.5868  -19.8445   18.2687 C   0  0  0  0  0  0  0  0  0  0  0  0
  -28.6911  -22.4139   17.2357 C   0  0  0  0  0  0  0  0  0  0  0  0
  -25.0891  -22.9168   16.0384 C   0  0  0  0  0  0  0  0  0  0  0  0
  -26.5977  -22.7616   15.9185 C   0  0  0  0  0  0  0  0  0  0  0  0
  -24.6609  -24.0872   16.9152 C   0  0  0  0  0  0  0  0  0  1  0  0
  -22.4968  -28.4345   22.6643 C   0  0  1  0  0  0  0  0  0  0  0  0
  -19.5982  -30.3752   21.1805 C   0  0  2  0  0  0  0  0  0  0  0  0
  -22.3769  -27.7756   24.0674 C   0  0  0  0  0  0  0  0  0  0  0  0
  -28.9763  -14.7066   21.4630 N   0  0  0  0  0  0  0  0  0  0  0  0
  -30.2883  -14.8179   21.1942 N   0  0  0  0  0  0  0  0  0  0  0  0
  -24.6289  -28.7253   21.4423 N   0  0  0  0  0  0  0  0  0  0  0  0
  -31.0352  -18.2493   22.6945 N   0  0  0  0  0  0  0  0  0  0  0  0
  -32.0525  -13.8361   19.9555 N   0  0  0  0  0  0  0  0  0  0  0  0
  -28.4924  -11.2569   18.9215 N   0  0  0  0  0  0  0  0  0  0  0  0
  -30.7185  -19.7617   20.9126 N   0  0  0  0  0  0  0  0  0  0  0  0
  -28.2158  -28.6897   22.0972 N   0  0  0  0  0  0  0  0  0  0  0  0
  -21.4415  -29.3960   22.3636 N   0  0  0  0  0  0  0  0  0  0  0  0
  -28.1831  -19.3366   18.1884 N   0  3  0  0  0  0  0  0  0  0  0  0
  -19.3004  -30.6915   19.7549 N   0  3  0  0  0  0  0  0  0  0  0  0
  -27.2124  -22.5881   17.2554 N   0  3  0  0  0  0  0  0  0  0  0  0
  -30.7381  -11.5587   18.5690 O   0  0  0  0  0  0  0  0  0  0  0  0
  -26.4276  -27.2569   22.5118 O   0  0  0  0  0  0  0  0  0  0  0  0
  -24.0758  -30.1102   23.2346 O   0  0  0  0  0  0  0  0  0  0  0  0
  -20.6651  -28.3326   20.4548 O   0  0  0  0  0  0  0  0  0  0  0  0
  -31.9812  -20.3574   22.7653 O   0  0  0  0  0  0  0  0  0  0  0  0
  -23.2959  -11.9006   20.8235 O   0  0  0  0  0  0  0  0  0  0  0  0
  -25.1615  -25.2949   16.3431 O   0  0  0  0  0  0  0  0  0  1  0  0
  -22.3824   -6.4867   21.3327 F   0  0  0  0  0  0  0  0  0  0  0  0
  -28.9980  -24.6425   18.9161 F   0  0  0  0  0  0  0  0  0  0  0  0
  -21.8568  -10.9000   22.9613 F   0  0  0  0  0  0  0  0  0  0  0  0
  1  2  1  0  0  0  0
  1  5  2  0  0  0  0
  2  6  2  0  0  0  0
  3  9  2  0  0  0  0
  3 17  1  0  0  0  0
  4 10  1  0  0  0  0
  4 17  2  0  0  0  0
  5 19  1  0  0  0  0
  6 21  1  0  0  0  0
  7 11  2  0  0  0  0
  7 20  1  0  0  0  0
  8 13  1  0  0  0  0
  8 25  2  0  0  0  0
  9 26  1  0  0  0  0
 10 26  2  0  0  0  0
 11 27  1  0  0  0  0
 12 14  2  0  0  0  0
 12 28  1  0  0  0  0
 13 30  2  0  0  0  0
 14 29  1  0  0  0  0
 15 22  1  0  0  0  0
 15 27  2  0  0  0  0
 16 29  2  0  0  0  0
 16 31  1  0  0  0  0
 17 32  1  0  0  0  0
 18 32  1  0  0  0  0
 18 33  2  0  0  0  0
 18 34  1  0  0  0  0
 19 21  2  0  0  0  0
 19 39  1  0  0  0  0
 20 22  2  0  0  0  0
 20 40  1  0  0  0  0
 21 52  1  0  0  0  0
 22 41  1  0  0  0  0
 23 24  2  0  0  0  0
 23 25  1  0  0  0  0
 23 60  1  0  0  0  0
 24 30  1  0  0  0  0
 24 61  1  0  0  0  0
 25 74  1  0  0  0  0
 26 85  1  0  0  0  0
 27 86  1  0  0  0  0
 28 31  2  0  0  0  0
 28 85  1  0  0  0  0
 29 87  1  0  0  0  0
 30 88  1  0  0  0  0
 31 89  1  0  0  0  0
 32 68  2  0  0  0  0
 33 69  1  0  0  0  0
 33 72  1  0  0  0  0
 34 73  1  0  0  0  0
 34 80  2  0  0  0  0
 35 53  1  0  0  0  0
 35 75  1  0  0  0  0
 35 81  2  0  0  0  0
 36 65  1  0  0  0  0
 36 70  1  0  0  0  0
 36 82  2  0  0  0  0
 37 66  1  0  0  0  0
 37 76  1  0  0  0  0
 37 83  2  0  0  0  0
 38 71  1  0  0  0  0
 38 74  1  0  0  0  0
 38 84  2  0  0  0  0
 39 42  1  0  0  0  0
 40 53  1  0  0  0  0
 41 70  1  0  0  0  0
 42 46  1  0  0  0  0
 43 47  1  0  0  0  0
 43 48  1  0  0  0  0
 44 45  1  0  0  0  0
 44 50  1  0  0  0  0
 45 51  1  0  0  0  0
 46 52  1  0  0  0  0
 47 54  1  0  0  0  0
 48 71  1  0  0  0  0
 49 54  1  0  0  0  0
 49 71  1  0  0  0  0
 50 77  1  0  0  0  0
 51 77  1  0  0  0  0
 52 75  1  0  0  0  0
 53 70  1  0  0  0  0
 54 69  1  0  0  0  0
 55 66  1  0  0  0  0
 56 67  1  0  0  0  0
 57 67  1  0  0  0  0
 58 67  1  0  0  0  0
 59 78  1  0  0  0  0
 60 77  1  0  0  0  0
 61 79  1  0  0  0  0
 62 63  1  0  0  0  0
 62 64  1  0  0  0  0
 63 79  1  0  0  0  0
 64 86  1  0  0  0  0
 65 67  1  0  0  0  0
 65 76  1  0  0  0  0
 66 78  1  0  0  0  0
 68 69  1  0  0  0  0
M  CHG  3  77   1  78   1  79   1
M  ISO  4  38 100  64 101  74 100  86 101
M  END
> <Batch ID>
0019

> <Smiles>
CNC(C)C(=O)NC(C(=O)N1Cc2cc([101O:1][101CH2:1]CCNCc3c(F)ccc([100NH:0][100C:0](=O)N4CCCC(n5nc(-c6ccc(Oc7ccc(F)cc7F)cc6)c(C(N)=O)c5N)C4)c3CN3CCCC3)ccc2CC1C(=O)NC1CCCc2ccccc21)C(C)(C)C

> <Shape>
0.278

> <Color>
0.068

> <Negative vol penalty>
0.000

$$$$

  -OEChem-04042321053D

 85 94  0     1  0  0  0  0  0999 V2000
  -37.6532  -13.2249   26.5621 C   0  0  0  0  0  0  0  0  0  0  0  0
  -37.3473  -13.6545   25.2747 C   0  0  0  0  0  0  0  0  0  0  0  0
  -23.2357  -10.1535   22.1379 C   0  0  0  0  0  0  0  0  0  0  0  0
  -23.5809   -9.5487   19.8244 C   0  0  0  0  0  0  0  0  0  0  0  0
  -37.1349  -13.9039   27.6639 C   0  0  0  0  0  0  0  0  0  0  0  0
  -36.5219  -14.7628   25.0885 C   0  0  0  0  0  0  0  0  0  0  0  0
  -35.5034  -20.2795   20.6336 C   0  0  0  0  0  0  0  0  0  0  0  0
  -30.0236  -17.6949   19.2571 C   0  0  0  0  0  0  0  0  0  0  0  0
  -29.0346  -18.8008   21.1640 C   0  0  0  0  0  0  0  0  0  0  0  0
  -30.2799  -18.9345   18.6712 C   0  0  0  0  0  0  0  0  0  0  0  0
  -29.2910  -20.0404   20.5781 C   0  0  0  0  0  0  0  0  0  0  0  0
  -22.4878   -8.9919   22.3300 C   0  0  0  0  0  0  0  0  0  0  0  0
  -22.8330   -8.3870   20.0166 C   0  0  0  0  0  0  0  0  0  0  0  0
  -34.4968  -20.8874   19.8846 C   0  0  0  0  0  0  0  0  0  0  0  0
  -23.0817   -5.6982   22.8118 C   0  0  0  0  0  0  0  0  0  0  0  0
  -23.3374   -4.9447   23.9574 C   0  0  0  0  0  0  0  0  0  0  0  0
  -33.7231  -22.0303   21.8631 C   0  0  0  0  0  0  0  0  0  0  0  0
  -21.0488   -5.2498   24.6690 C   0  0  0  0  0  0  0  0  0  0  0  0
  -23.7822  -10.4319   20.8851 C   0  0  0  0  0  0  0  0  0  0  0  0
  -24.1211  -12.9602   20.8593 C   0  0  0  0  0  0  0  0  0  0  0  0
  -36.3105  -15.0270   27.4912 C   0  0  0  0  0  0  0  0  0  0  0  0
  -35.6208  -20.5344   22.0076 C   0  0  0  0  0  0  0  0  0  0  0  0
  -35.9910  -15.4568   26.1891 C   0  0  0  0  0  0  0  0  0  0  0  0
  -34.7336  -21.4263   22.6268 C   0  0  0  0  0  0  0  0  0  0  0  0
  -29.4009  -17.6280   20.5035 C   0  0  0  0  0  0  0  0  0  0  0  0
  -29.9136  -20.1072   19.3316 C   0  0  0  0  0  0  0  0  0  0  0  0
  -22.2865   -8.1086   21.2694 C   0  0  0  0  0  0  0  0  0  0  0  0
  -33.6047  -21.7607   20.4999 C   0  0  0  0  0  0  0  0  0  0  0  0
  -21.8095   -6.2276   22.5948 C   0  0  0  0  0  0  0  0  0  0  0  0
  -22.3210   -4.7205   24.8860 C   0  0  0  0  0  0  0  0  0  0  0  0
  -20.7931   -6.0034   23.5234 C   0  0  0  0  0  0  0  0  0  0  0  0
  -24.5543  -11.6320   20.6858 C   0  0  0  0  0  0  0  0  0  0  0  0
  -25.2196  -13.7232   20.5468 C   0  0  0  0  0  0  0  0  0  0  0  0
  -22.8403  -13.4596   21.2664 C   0  0  0  0  0  0  0  0  0  0  0  0
  -35.4317  -18.7651   24.6415 C   0  0  0  0  0  0  0  0  0  0  0  0
  -36.3589  -21.5166   26.0878 C   0  0  0  0  0  0  0  0  0  0  0  0
  -36.5320  -24.9236   25.9932 C   0  0  0  0  0  0  0  0  0  0  0  0
  -30.8085  -14.4224   21.3167 C   0  0  0  0  0  0  0  0  0  0  0  0
  -35.7355  -15.7001   28.7122 C   0  0  0  0  0  0  0  0  0  0  0  0
  -36.7286  -19.8914   22.7961 C   0  0  0  0  0  0  0  0  0  0  0  0
  -34.8295  -21.7492   24.0948 C   0  0  0  0  0  0  0  0  0  0  0  0
  -35.1726  -17.0913   28.4326 C   0  0  0  0  0  0  0  0  0  0  0  0
  -29.6174  -12.4729   18.4042 C   0  0  0  0  0  0  0  0  0  0  0  0
  -29.8595  -22.9887   17.1146 C   0  0  0  0  0  0  0  0  0  0  0  0
  -34.3024  -17.0731   27.1800 C   0  0  0  0  0  0  0  0  0  0  0  0
  -28.1799  -12.1343   18.7954 C   0  0  0  0  0  0  0  0  0  0  0  0
  -30.4787  -23.6443   18.3361 C   0  0  0  0  0  0  0  0  0  0  0  0
  -30.1985  -21.5150   17.3022 C   0  0  0  0  0  0  0  0  0  0  0  0
  -30.5121  -12.6473   19.6277 C   0  0  0  0  0  0  0  0  0  0  0  0
  -28.5636  -13.3022   21.0020 C   0  0  0  0  0  0  0  0  0  0  0  0
  -35.1193  -16.6698   25.9465 C   0  0  1  0  0  0  0  0  0  0  0  0
  -36.4369  -19.8258   24.2921 C   0  0  1  0  0  0  0  0  0  0  0  0
  -27.6255  -13.1658   19.7934 C   0  0  2  0  0  0  0  0  0  0  0  0
  -30.2515  -22.6196   19.4612 C   0  0  2  0  0  0  0  0  0  0  0  0
  -37.3111  -26.8946   27.3370 C   0  0  0  0  0  0  0  0  0  0  0  0
  -33.9325  -21.2270   27.9149 C   0  0  0  0  0  0  0  0  0  0  0  0
  -34.2182  -23.6293   28.5593 C   0  0  0  0  0  0  0  0  0  0  0  0
  -36.0208  -21.9811   29.0657 C   0  0  0  0  0  0  0  0  0  0  0  0
  -31.1985  -16.5828   22.4392 C   0  0  0  0  0  0  0  0  0  0  0  0
  -38.4415  -25.7508   23.8888 C   0  0  0  0  0  0  0  0  0  0  0  0
  -29.1260  -16.3032   21.1306 C   0  0  0  0  0  0  0  0  0  0  0  0
  -31.4084  -22.6717   20.4537 C   0  0  0  0  0  0  0  0  0  1  0  0
  -35.6438  -22.7097   26.6743 C   0  0  1  0  0  0  0  0  0  0  0  0
  -37.6779  -25.8819   26.2633 C   0  0  2  0  0  0  0  0  0  0  0  0
  -34.9505  -22.3794   28.0263 C   0  0  0  0  0  0  0  0  0  0  0  0
  -25.8286  -11.5523   20.2935 N   0  0  0  0  0  0  0  0  0  0  0  0
  -26.2055  -12.8401   20.2177 N   0  0  0  0  0  0  0  0  0  0  0  0
  -30.1688  -21.3344   18.7528 N   0  0  3  0  0  0  0  0  0  0  0  0
  -35.9257  -21.0905   24.8242 N   0  0  0  0  0  0  0  0  0  0  0  0
  -29.9403  -13.6003   20.5795 N   0  0  0  0  0  0  0  0  0  0  0  0
  -25.4287  -15.0567   20.5242 N   0  0  0  0  0  0  0  0  0  0  0  0
  -21.8832  -13.7286   20.2786 N   0  0  0  0  0  0  0  0  0  0  0  0
  -35.9189  -17.7837   25.4835 N   0  0  0  0  0  0  0  0  0  0  0  0
  -36.6328  -23.7791   26.7555 N   0  0  0  0  0  0  0  0  0  0  0  0
  -30.3313  -15.6897   21.6841 N   0  0  0  0  0  0  0  0  0  0  0  0
  -38.0372  -26.6230   25.0213 N   0  3  0  0  0  0  0  0  0  0  0  0
  -22.5587  -13.6768   22.4694 O   0  0  0  0  0  0  0  0  0  0  0  0
  -34.2975  -18.8329   24.1823 O   0  0  0  0  0  0  0  0  0  0  0  0
  -37.2733  -20.9867   26.7241 O   0  0  0  0  0  0  0  0  0  0  0  0
  -35.6350  -25.1677   25.1892 O   0  0  0  0  0  0  0  0  0  0  0  0
  -31.9487  -14.0487   21.6204 O   0  0  0  0  0  0  0  0  0  0  0  0
  -21.5570   -6.9749   21.4566 O   0  0  0  0  0  0  0  0  0  0  0  0
  -32.6209  -22.3549   19.7712 O   0  0  0  0  0  0  0  0  0  1  0  0
  -22.5663   -3.9956   25.9853 F   0  0  0  0  0  0  0  0  0  0  0  0
  -19.5686   -6.5084   23.3197 F   0  0  0  0  0  0  0  0  0  0  0  0
  1  2  1  0  0  0  0
  1  5  2  0  0  0  0
  2  6  2  0  0  0  0
  3 12  2  0  0  0  0
  3 19  1  0  0  0  0
  4 13  1  0  0  0  0
  4 19  2  0  0  0  0
  5 21  1  0  0  0  0
  6 23  1  0  0  0  0
  7 14  2  0  0  0  0
  7 22  1  0  0  0  0
  8 10  2  0  0  0  0
  8 25  1  0  0  0  0
  9 11  1  0  0  0  0
  9 25  2  0  0  0  0
 10 26  1  0  0  0  0
 11 26  2  0  0  0  0
 12 27  1  0  0  0  0
 13 27  2  0  0  0  0
 14 28  1  0  0  0  0
 15 16  2  0  0  0  0
 15 29  1  0  0  0  0
 16 30  1  0  0  0  0
 17 24  1  0  0  0  0
 17 28  2  0  0  0  0
 18 30  2  0  0  0  0
 18 31  1  0  0  0  0
 19 32  1  0  0  0  0
 20 32  1  0  0  0  0
 20 33  2  0  0  0  0
 20 34  1  0  0  0  0
 21 23  2  0  0  0  0
 21 39  1  0  0  0  0
 22 24  2  0  0  0  0
 22 40  1  0  0  0  0
 23 51  1  0  0  0  0
 24 41  1  0  0  0  0
 25 61  1  0  0  0  0
 26 68  1  0  0  0  0
 27 82  1  0  0  0  0
 28 83  1  0  0  0  0
 29 31  2  0  0  0  0
 29 82  1  0  0  0  0
 30 84  1  0  0  0  0
 31 85  1  0  0  0  0
 32 66  2  0  0  0  0
 33 67  1  0  0  0  0
 33 71  1  0  0  0  0
 34 72  1  0  0  0  0
 34 77  2  0  0  0  0
 35 52  1  0  0  0  0
 35 73  1  0  0  0  0
 35 78  2  0  0  0  0
 36 63  1  0  0  0  0
 36 69  1  0  0  0  0
 36 79  2  0  0  0  0
 37 64  1  0  0  0  0
 37 74  1  0  0  0  0
 37 80  2  0  0  0  0
 38 70  1  0  0  0  0
 38 75  1  0  0  0  0
 38 81  2  0  0  0  0
 39 42  1  0  0  0  0
 40 52  1  0  0  0  0
 41 69  1  0  0  0  0
 42 45  1  0  0  0  0
 43 46  1  0  0  0  0
 43 49  1  0  0  0  0
 44 47  1  0  0  0  0
 44 48  1  0  0  0  0
 45 51  1  0  0  0  0
 46 53  1  0  0  0  0
 47 54  1  0  0  0  0
 48 68  1  0  0  0  0
 49 70  1  0  0  0  0
 50 53  1  0  0  0  0
 50 70  1  0  0  0  0
 51 73  1  0  0  0  0
 52 69  1  0  0  0  0
 53 67  1  0  0  0  0
 54 62  1  0  0  0  0
 54 68  1  0  0  0  0
 55 64  1  0  0  0  0
 56 65  1  0  0  0  0
 57 65  1  0  0  0  0
 58 65  1  0  0  0  0
 59 75  1  0  0  0  0
 60 76  1  0  0  0  0
 61 75  1  0  0  0  0
 62 83  1  0  0  0  0
 63 65  1  0  0  0  0
 63 74  1  0  0  0  0
 64 76  1  0  0  0  0
 66 67  1  0  0  0  0
M  CHG  1  76   1
M  ISO  4  38 100  62 101  75 100  83 101
M  END
> <Batch ID>
0019

> <Smiles>
CNC(C)C(=O)NC(C(=O)N1Cc2cc([101O:1][101CH2:1]C3CCCN3c3ccc(C[100N:0](C)[100C:0](=O)N4CCCC(n5nc(-c6ccc(Oc7ccc(F)cc7F)cc6)c(C(N)=O)c5N)C4)cc3)ccc2CC1C(=O)NC1CCCc2ccccc21)C(C)(C)C

> <Shape>
0.220

> <Color>
0.163

> <Negative vol penalty>
0.000

$$$$

  -OEChem-04042321053D

 86 94  0     1  0  0  0  0  0999 V2000
  -22.1932  -19.7066   19.5366 C   0  0  0  0  0  0  0  0  0  0  0  0
  -23.3560  -19.9721   20.2527 C   0  0  0  0  0  0  0  0  0  0  0  0
  -23.0763   -9.8687   19.9383 C   0  0  0  0  0  0  0  0  0  0  0  0
  -23.8361   -9.8730   22.2318 C   0  0  0  0  0  0  0  0  0  0  0  0
  -21.8386  -20.5180   18.4597 C   0  0  0  0  0  0  0  0  0  0  0  0
  -24.1655  -21.0485   19.8916 C   0  0  0  0  0  0  0  0  0  0  0  0
  -25.6912  -23.7585   23.8882 C   0  0  0  0  0  0  0  0  0  0  0  0
  -30.4655  -18.3400   24.0501 C   0  0  0  0  0  0  0  0  0  0  0  0
  -29.8782  -17.4554   23.1456 C   0  0  0  0  0  0  0  0  0  0  0  0
  -22.3326   -8.7152   20.1868 C   0  0  0  0  0  0  0  0  0  0  0  0
  -23.0922   -8.7195   22.4803 C   0  0  0  0  0  0  0  0  0  0  0  0
  -26.7365  -23.2372   24.6495 C   0  0  0  0  0  0  0  0  0  0  0  0
  -19.8641   -7.9206   23.0816 C   0  0  0  0  0  0  0  0  0  0  0  0
  -19.1071   -7.8791   24.2524 C   0  0  0  0  0  0  0  0  0  0  0  0
  -28.2811  -24.7114   23.5270 C   0  0  0  0  0  0  0  0  0  0  0  0
  -32.0627  -16.6095   22.5544 C   0  0  0  0  0  0  0  0  0  0  0  0
  -20.3487   -5.9409   24.9866 C   0  0  0  0  0  0  0  0  0  0  0  0
  -23.8281  -10.4476   20.9608 C   0  0  0  0  0  0  0  0  0  0  0  0
  -24.1697  -12.9729   20.8438 C   0  0  0  0  0  0  0  0  0  0  0  0
  -22.6391  -21.6108   18.0912 C   0  0  0  0  0  0  0  0  0  0  0  0
  -25.9352  -24.7542   22.9314 C   0  0  0  0  0  0  0  0  0  0  0  0
  -23.8219  -21.8745   18.8079 C   0  0  0  0  0  0  0  0  0  0  0  0
  -27.2368  -25.2455   22.7567 C   0  0  0  0  0  0  0  0  0  0  0  0
  -31.8514  -18.3594   24.2068 C   0  0  0  0  0  0  0  0  0  0  0  0
  -30.6768  -16.5902   22.3977 C   0  0  0  0  0  0  0  0  0  0  0  0
  -22.3405   -8.1406   21.4578 C   0  0  0  0  0  0  0  0  0  0  0  0
  -28.0321  -23.7116   24.4669 C   0  0  0  0  0  0  0  0  0  0  0  0
  -20.8634   -6.9721   22.8632 C   0  0  0  0  0  0  0  0  0  0  0  0
  -19.3494   -6.8894   25.2049 C   0  0  0  0  0  0  0  0  0  0  0  0
  -32.6500  -17.4942   23.4590 C   0  0  0  0  0  0  0  0  0  0  0  0
  -21.1057   -5.9824   23.8157 C   0  0  0  0  0  0  0  0  0  0  0  0
  -24.5971  -11.6389   20.7045 C   0  0  0  0  0  0  0  0  0  0  0  0
  -25.2618  -13.7230   20.4816 C   0  0  0  0  0  0  0  0  0  0  0  0
  -22.8991  -13.4881   21.2633 C   0  0  0  0  0  0  0  0  0  0  0  0
  -25.6025  -24.9637   19.7772 C   0  0  0  0  0  0  0  0  0  0  0  0
  -26.4452  -28.0547   20.2849 C   0  0  0  0  0  0  0  0  0  0  0  0
  -28.0209  -30.3394   22.2709 C   0  0  0  0  0  0  0  0  0  0  0  0
  -30.7279  -14.7690   20.6579 C   0  0  0  0  0  0  0  0  0  0  0  0
  -22.2395  -22.4312   16.8904 C   0  0  0  0  0  0  0  0  0  0  0  0
  -24.7926  -25.3250   22.1371 C   0  0  0  0  0  0  0  0  0  0  0  0
  -27.5484  -26.3279   21.7568 C   0  0  0  0  0  0  0  0  0  0  0  0
  -22.9559  -23.7765   16.8060 C   0  0  0  0  0  0  0  0  0  0  0  0
  -29.6139  -12.3579   18.2867 C   0  0  0  0  0  0  0  0  0  0  0  0
  -24.4504  -23.6021   17.0568 C   0  0  0  0  0  0  0  0  0  0  0  0
  -28.1742  -12.0656   18.7158 C   0  0  0  0  0  0  0  0  0  0  0  0
  -30.5289  -12.5853   19.4886 C   0  0  0  0  0  0  0  0  0  0  0  0
  -28.6217  -13.3079   20.8706 C   0  0  0  0  0  0  0  0  0  0  0  0
  -24.7130  -23.0478   18.4622 C   0  0  1  0  0  0  0  0  0  0  0  0
  -25.2383  -25.9724   20.8296 C   0  0  1  0  0  0  0  0  0  0  0  0
  -27.6490  -13.1360   19.6925 C   0  0  2  0  0  0  0  0  0  0  0  0
  -35.7376  -20.6099   22.6532 C   0  0  0  0  0  0  0  0  0  0  0  0
  -28.5751  -32.7832   22.4050 C   0  0  0  0  0  0  0  0  0  0  0  0
  -28.6346  -27.6703   18.1947 C   0  0  0  0  0  0  0  0  0  0  0  0
  -29.7176  -29.7610   19.0460 C   0  0  0  0  0  0  0  0  0  0  0  0
  -27.4307  -29.8579   18.0542 C   0  0  0  0  0  0  0  0  0  0  0  0
  -26.4998  -30.6650   24.7887 C   0  0  0  0  0  0  0  0  0  0  0  0
  -32.4789  -19.3111   25.1822 C   0  0  0  0  0  0  0  0  0  0  0  0
  -34.7930  -20.4406   23.8320 C   0  0  0  0  0  0  0  0  0  0  0  0
  -30.3345  -21.2533   25.7640 C   0  0  0  0  0  0  0  0  0  0  0  0
  -33.3827  -20.8820   23.4746 C   0  0  0  0  0  0  0  0  0  0  0  0
  -31.1369  -21.2850   24.4720 C   0  0  0  0  0  0  0  0  0  0  0  0
  -28.9372  -21.8467   25.6326 C   0  0  0  0  0  0  0  0  0  1  0  0
  -27.7497  -28.8129   20.3342 C   0  0  1  0  0  0  0  0  0  0  0  0
  -27.5817  -31.6973   22.7881 C   0  0  2  0  0  0  0  0  0  0  0  0
  -28.3779  -29.0038   18.9249 C   0  0  0  0  0  0  0  0  0  0  0  0
  -25.8620  -11.5437   20.2862 N   0  0  0  0  0  0  0  0  0  0  0  0
  -26.2388  -12.8275   20.1595 N   0  0  0  0  0  0  0  0  0  0  0  0
  -26.3984  -26.8496   20.9999 N   0  0  0  0  0  0  0  0  0  0  0  0
  -29.9697  -13.6150   20.3672 N   0  0  0  0  0  0  0  0  0  0  0  0
  -25.4721  -15.0546   20.4102 N   0  0  0  0  0  0  0  0  0  0  0  0
  -21.8873  -12.5784   21.5994 N   0  0  0  0  0  0  0  0  0  0  0  0
  -30.0803  -15.6929   21.4774 N   0  0  0  0  0  0  0  0  0  0  0  0
  -24.5782  -24.0952   19.4519 N   0  0  0  0  0  0  0  0  0  0  0  0
  -27.4706  -30.0601   21.0379 N   0  0  0  0  0  0  0  0  0  0  0  0
  -27.4626  -31.6722   24.2734 N   0  3  0  0  0  0  0  0  0  0  0  0
  -32.4968  -20.7378   24.6887 N   0  3  1  0  0  0  0  0  0  0  0  0
  -22.6627  -14.7186   21.3221 O   0  0  0  0  0  0  0  0  0  0  0  0
  -26.7290  -24.9737   19.2949 O   0  0  0  0  0  0  0  0  0  0  0  0
  -25.5003  -28.5183   19.6416 O   0  0  0  0  0  0  0  0  0  0  0  0
  -28.7794  -29.6019   22.8964 O   0  0  0  0  0  0  0  0  0  0  0  0
  -31.8570  -14.9384   20.1906 O   0  0  0  0  0  0  0  0  0  0  0  0
  -21.6147   -7.0151   21.7007 O   0  0  0  0  0  0  0  0  0  0  0  0
  -29.0543  -23.2041   25.2081 O   0  0  0  0  0  0  0  0  0  1  0  0
  -18.6233   -6.8506   26.3299 F   0  0  0  0  0  0  0  0  0  0  0  0
  -33.9825  -17.5054   23.6026 F   0  0  0  0  0  0  0  0  0  0  0  0
  -22.0651   -5.0692   23.6121 F   0  0  0  0  0  0  0  0  0  0  0  0
  1  2  1  0  0  0  0
  1  5  2  0  0  0  0
  2  6  2  0  0  0  0
  3 10  2  0  0  0  0
  3 18  1  0  0  0  0
  4 11  1  0  0  0  0
  4 18  2  0  0  0  0
  5 20  1  0  0  0  0
  6 22  1  0  0  0  0
  7 12  2  0  0  0  0
  7 21  1  0  0  0  0
  8  9  2  0  0  0  0
  8 24  1  0  0  0  0
  9 25  1  0  0  0  0
 10 26  1  0  0  0  0
 11 26  2  0  0  0  0
 12 27  1  0  0  0  0
 13 14  2  0  0  0  0
 13 28  1  0  0  0  0
 14 29  1  0  0  0  0
 15 23  1  0  0  0  0
 15 27  2  0  0  0  0
 16 25  2  0  0  0  0
 16 30  1  0  0  0  0
 17 29  2  0  0  0  0
 17 31  1  0  0  0  0
 18 32  1  0  0  0  0
 19 32  1  0  0  0  0
 19 33  2  0  0  0  0
 19 34  1  0  0  0  0
 20 22  2  0  0  0  0
 20 39  1  0  0  0  0
 21 23  2  0  0  0  0
 21 40  1  0  0  0  0
 22 48  1  0  0  0  0
 23 41  1  0  0  0  0
 24 30  2  0  0  0  0
 24 57  1  0  0  0  0
 25 72  1  0  0  0  0
 26 82  1  0  0  0  0
 27 83  1  0  0  0  0
 28 31  2  0  0  0  0
 28 82  1  0  0  0  0
 29 84  1  0  0  0  0
 30 85  1  0  0  0  0
 31 86  1  0  0  0  0
 32 66  2  0  0  0  0
 33 67  1  0  0  0  0
 33 70  1  0  0  0  0
 34 71  1  0  0  0  0
 34 77  2  0  0  0  0
 35 49  1  0  0  0  0
 35 73  1  0  0  0  0
 35 78  2  0  0  0  0
 36 63  1  0  0  0  0
 36 68  1  0  0  0  0
 36 79  2  0  0  0  0
 37 64  1  0  0  0  0
 37 74  1  0  0  0  0
 37 80  2  0  0  0  0
 38 69  1  0  0  0  0
 38 72  1  0  0  0  0
 38 81  2  0  0  0  0
 39 42  1  0  0  0  0
 40 49  1  0  0  0  0
 41 68  1  0  0  0  0
 42 44  1  0  0  0  0
 43 45  1  0  0  0  0
 43 46  1  0  0  0  0
 44 48  1  0  0  0  0
 45 50  1  0  0  0  0
 46 69  1  0  0  0  0
 47 50  1  0  0  0  0
 47 69  1  0  0  0  0
 48 73  1  0  0  0  0
 49 68  1  0  0  0  0
 50 67  1  0  0  0  0
 51 58  1  0  0  0  0
 52 64  1  0  0  0  0
 53 65  1  0  0  0  0
 54 65  1  0  0  0  0
 55 65  1  0  0  0  0
 56 75  1  0  0  0  0
 57 76  1  0  0  0  0
 58 60  1  0  0  0  0
 59 61  1  0  0  0  0
 59 62  1  0  0  0  0
 60 76  1  0  0  0  0
 61 76  1  0  0  0  0
 62 83  1  0  0  0  0
 63 65  1  0  0  0  0
 63 74  1  0  0  0  0
 64 75  1  0  0  0  0
 66 67  1  0  0  0  0
M  CHG  2  75   1  76   1
M  ISO  4  38 100  62 101  72 100  83 101
M  END
> <Batch ID>
0019

> <Smiles>
CCCN(CC[101CH2:1][101O:1]c1ccc2c(c1)CN(C(=O)C(NC(=O)C(C)NC)C(C)(C)C)C(C(=O)NC1CCCc3ccccc31)C2)Cc1ccc([100NH:0][100C:0](=O)N2CCCC(n3nc(-c4ccc(Oc5ccc(F)cc5F)cc4)c(C(N)=O)c3N)C2)cc1F

> <Shape>
0.230

> <Color>
0.188

> <Negative vol penalty>
0.000

$$$$

  -OEChem-04042321053D

 79 87  0     1  0  0  0  0  0999 V2000
  -28.0740  -37.0382   21.1621 C   0  0  0  0  0  0  0  0  0  0  0  0
  -28.4847  -35.7199   20.9925 C   0  0  0  0  0  0  0  0  0  0  0  0
  -26.8784  -12.7329   21.8104 C   0  0  0  0  0  0  0  0  0  0  0  0
  -26.2289  -14.3628   20.1495 C   0  0  0  0  0  0  0  0  0  0  0  0
  -26.9560  -37.3237   21.9446 C   0  0  0  0  0  0  0  0  0  0  0  0
  -27.7781  -34.6862   21.6063 C   0  0  0  0  0  0  0  0  0  0  0  0
  -26.8401  -29.0507   19.4002 C   0  0  0  0  0  0  0  0  0  0  0  0
  -29.9082  -23.9349   21.6621 C   0  0  0  0  0  0  0  0  0  0  0  0
  -30.3841  -22.6716   22.0129 C   0  0  0  0  0  0  0  0  0  0  0  0
  -25.5589  -12.2877   21.8895 C   0  0  0  0  0  0  0  0  0  0  0  0
  -24.9094  -13.9176   20.2286 C   0  0  0  0  0  0  0  0  0  0  0  0
  -27.4743  -27.8323   19.6391 C   0  0  0  0  0  0  0  0  0  0  0  0
  -22.4277  -10.4795   22.2650 C   0  0  0  0  0  0  0  0  0  0  0  0
  -22.2072   -9.1022   22.2714 C   0  0  0  0  0  0  0  0  0  0  0  0
  -25.7838  -27.2789   21.2686 C   0  0  0  0  0  0  0  0  0  0  0  0
  -29.0868  -23.0450   19.5716 C   0  0  0  0  0  0  0  0  0  0  0  0
  -23.2674   -8.9224   20.1079 C   0  0  0  0  0  0  0  0  0  0  0  0
  -27.2134  -13.7705   20.9404 C   0  0  0  0  0  0  0  0  0  0  0  0
  -29.5840  -13.7562   19.9981 C   0  0  0  0  0  0  0  0  0  0  0  0
  -26.2296  -36.2923   22.5605 C   0  0  0  0  0  0  0  0  0  0  0  0
  -25.6772  -29.3977   20.1027 C   0  0  0  0  0  0  0  0  0  0  0  0
  -26.6501  -34.9583   22.3989 C   0  0  0  0  0  0  0  0  0  0  0  0
  -25.1354  -28.5012   21.0349 C   0  0  0  0  0  0  0  0  0  0  0  0
  -29.2595  -24.1217   20.4414 C   0  0  0  0  0  0  0  0  0  0  0  0
  -30.2114  -21.5950   21.1430 C   0  0  0  0  0  0  0  0  0  0  0  0
  -24.5744  -12.8800   21.0986 C   0  0  0  0  0  0  0  0  0  0  0  0
  -26.9478  -26.9474   20.5756 C   0  0  0  0  0  0  0  0  0  0  0  0
  -23.0679  -11.0783   21.1799 C   0  0  0  0  0  0  0  0  0  0  0  0
  -22.6271   -8.3236   21.1929 C   0  0  0  0  0  0  0  0  0  0  0  0
  -29.5627  -21.7817   19.9223 C   0  0  0  0  0  0  0  0  0  0  0  0
  -23.4878  -10.2997   20.1014 C   0  0  0  0  0  0  0  0  0  0  0  0
  -28.5762  -14.2312   20.8586 C   0  0  0  0  0  0  0  0  0  0  0  0
  -30.6865  -14.5138   20.3092 C   0  0  0  0  0  0  0  0  0  0  0  0
  -29.5284  -12.7225   19.0060 C   0  0  0  0  0  0  0  0  0  0  0  0
  -24.8835  -31.7253   22.1167 C   0  0  0  0  0  0  0  0  0  0  0  0
  -21.9271  -30.4169   21.8509 C   0  0  0  0  0  0  0  0  0  0  0  0
  -20.0264  -27.6731   21.1398 C   0  0  0  0  0  0  0  0  0  0  0  0
  -31.3620  -19.9592   22.6750 C   0  0  0  0  0  0  0  0  0  0  0  0
  -25.0557  -36.6536   23.4356 C   0  0  0  0  0  0  0  0  0  0  0  0
  -24.9901  -30.7042   19.8140 C   0  0  0  0  0  0  0  0  0  0  0  0
  -23.8777  -28.8175   21.8009 C   0  0  0  0  0  0  0  0  0  0  0  0
  -24.1407  -35.4717   23.7459 C   0  0  0  0  0  0  0  0  0  0  0  0
  -32.6806  -16.9063   23.9471 C   0  0  0  0  0  0  0  0  0  0  0  0
  -24.9622  -34.2550   24.1603 C   0  0  0  0  0  0  0  0  0  0  0  0
  -31.8736  -15.8306   23.2166 C   0  0  0  0  0  0  0  0  0  0  0  0
  -31.8243  -18.1250   24.2865 C   0  0  0  0  0  0  0  0  0  0  0  0
  -30.2921  -17.6341   22.4209 C   0  0  0  0  0  0  0  0  0  0  0  0
  -25.8950  -33.8077   23.0283 C   0  0  1  0  0  0  0  0  0  0  0  0
  -24.0989  -31.1763   20.9587 C   0  0  1  0  0  0  0  0  0  0  0  0
  -31.1278  -16.4141   22.0005 C   0  0  2  0  0  0  0  0  0  0  0  0
  -17.6410  -26.8996   21.0464 C   0  0  0  0  0  0  0  0  0  0  0  0
  -21.8660  -30.2455   24.8967 C   0  0  0  0  0  0  0  0  0  0  0  0
  -19.9518  -28.6440   24.6987 C   0  0  0  0  0  0  0  0  0  0  0  0
  -19.7161  -30.9778   23.8497 C   0  0  0  0  0  0  0  0  0  0  0  0
  -20.2124  -27.0737   18.2476 C   0  0  0  0  0  0  0  0  0  0  0  0
  -28.7485  -25.4808   20.0633 C   0  0  0  0  0  0  0  0  0  1  0  0
  -21.1655  -29.3386   22.5831 C   0  0  1  0  0  0  0  0  0  0  0  0
  -18.7996  -27.4973   20.2633 C   0  0  2  0  0  0  0  0  0  0  0  0
  -20.6996  -29.7961   23.9942 C   0  0  0  0  0  0  0  0  0  0  0  0
  -29.0009  -15.2144   21.6567 N   0  0  0  0  0  0  0  0  0  0  0  0
  -30.2877  -15.3633   21.2990 N   0  0  0  0  0  0  0  0  0  0  0  0
  -23.2462  -30.1100   21.4879 N   0  0  0  0  0  0  0  0  0  0  0  0
  -31.1518  -18.6259   23.0858 N   0  0  0  0  0  0  0  0  0  0  0  0
  -31.9485  -14.5296   19.8302 N   0  0  0  0  0  0  0  0  0  0  0  0
  -28.3169  -12.0441   18.8151 N   0  0  0  0  0  0  0  0  0  0  0  0
  -30.6963  -20.3128   21.5018 N   0  0  0  0  0  0  0  0  0  0  0  0
  -25.1546  -33.0770   22.0222 N   0  0  0  0  0  0  0  0  0  0  0  0
  -20.0794  -28.9330   21.6976 N   0  0  0  0  0  0  0  0  0  0  0  0
  -19.1067  -26.5958   19.1170 N   0  3  0  0  0  0  0  0  0  0  0  0
  -30.5280  -12.3985   18.3210 O   0  0  0  0  0  0  0  0  0  0  0  0
  -25.2168  -30.9781   23.0290 O   0  0  0  0  0  0  0  0  0  0  0  0
  -21.3698  -31.4892   21.6037 O   0  0  0  0  0  0  0  0  0  0  0  0
  -20.8531  -26.7807   21.3153 O   0  0  0  0  0  0  0  0  0  0  0  0
  -32.1012  -20.7225   23.3018 O   0  0  0  0  0  0  0  0  0  0  0  0
  -23.2867  -12.4457   21.1754 O   0  0  0  0  0  0  0  0  0  0  0  0
  -27.5651  -25.7578   20.8112 O   0  0  0  0  0  0  0  0  0  1  0  0
  -22.4167   -7.0008   21.1999 F   0  0  0  0  0  0  0  0  0  0  0  0
  -29.3925  -20.7544   19.0779 F   0  0  0  0  0  0  0  0  0  0  0  0
  -24.1044  -10.8691   19.0568 F   0  0  0  0  0  0  0  0  0  0  0  0
  1  2  1  0  0  0  0
  1  5  2  0  0  0  0
  2  6  2  0  0  0  0
  3 10  2  0  0  0  0
  3 18  1  0  0  0  0
  4 11  1  0  0  0  0
  4 18  2  0  0  0  0
  5 20  1  0  0  0  0
  6 22  1  0  0  0  0
  7 12  2  0  0  0  0
  7 21  1  0  0  0  0
  8  9  2  0  0  0  0
  8 24  1  0  0  0  0
  9 25  1  0  0  0  0
 10 26  1  0  0  0  0
 11 26  2  0  0  0  0
 12 27  1  0  0  0  0
 13 14  2  0  0  0  0
 13 28  1  0  0  0  0
 14 29  1  0  0  0  0
 15 23  1  0  0  0  0
 15 27  2  0  0  0  0
 16 24  2  0  0  0  0
 16 30  1  0  0  0  0
 17 29  2  0  0  0  0
 17 31  1  0  0  0  0
 18 32  1  0  0  0  0
 19 32  1  0  0  0  0
 19 33  2  0  0  0  0
 19 34  1  0  0  0  0
 20 22  2  0  0  0  0
 20 39  1  0  0  0  0
 21 23  2  0  0  0  0
 21 40  1  0  0  0  0
 22 48  1  0  0  0  0
 23 41  1  0  0  0  0
 24 56  1  0  0  0  0
 25 30  2  0  0  0  0
 25 66  1  0  0  0  0
 26 75  1  0  0  0  0
 27 76  1  0  0  0  0
 28 31  2  0  0  0  0
 28 75  1  0  0  0  0
 29 77  1  0  0  0  0
 30 78  1  0  0  0  0
 31 79  1  0  0  0  0
 32 60  2  0  0  0  0
 33 61  1  0  0  0  0
 33 64  1  0  0  0  0
 34 65  1  0  0  0  0
 34 70  2  0  0  0  0
 35 49  1  0  0  0  0
 35 67  1  0  0  0  0
 35 71  2  0  0  0  0
 36 57  1  0  0  0  0
 36 62  1  0  0  0  0
 36 72  2  0  0  0  0
 37 58  1  0  0  0  0
 37 68  1  0  0  0  0
 37 73  2  0  0  0  0
 38 63  1  0  0  0  0
 38 66  1  0  0  0  0
 38 74  2  0  0  0  0
 39 42  1  0  0  0  0
 40 49  1  0  0  0  0
 41 62  1  0  0  0  0
 42 44  1  0  0  0  0
 43 45  1  0  0  0  0
 43 46  1  0  0  0  0
 44 48  1  0  0  0  0
 45 50  1  0  0  0  0
 46 63  1  0  0  0  0
 47 50  1  0  0  0  0
 47 63  1  0  0  0  0
 48 67  1  0  0  0  0
 49 62  1  0  0  0  0
 50 61  1  0  0  0  0
 51 58  1  0  0  0  0
 52 59  1  0  0  0  0
 53 59  1  0  0  0  0
 54 59  1  0  0  0  0
 55 69  1  0  0  0  0
 56 76  1  0  0  0  0
 57 59  1  0  0  0  0
 57 68  1  0  0  0  0
 58 69  1  0  0  0  0
 60 61  1  0  0  0  0
M  CHG  1  69   1
M  ISO  4  38 100  56 101  66 100  76 101
M  END
> <Batch ID>
0019

> <Smiles>
CNC(C)C(=O)NC(C(=O)N1Cc2cc([101O:1][101CH2:1]c3ccc([100NH:0][100C:0](=O)N4CCCC(n5nc(-c6ccc(Oc7ccc(F)cc7F)cc6)c(C(N)=O)c5N)C4)c(F)c3)ccc2CC1C(=O)NC1CCCc2ccccc21)C(C)(C)C

> <Shape>
0.344

> <Color>
0.078

> <Negative vol penalty>
0.000

$$$$

  -OEChem-04042321053D

 85 93  0     1  0  0  0  0  0999 V2000
  -19.3425  -24.2417   21.8909 C   0  0  0  0  0  0  0  0  0  0  0  0
  -20.4548  -24.6679   21.1721 C   0  0  0  0  0  0  0  0  0  0  0  0
  -29.3945  -13.7870   21.0034 C   0  0  0  0  0  0  0  0  0  0  0  0
  -29.2694  -13.8943   18.5930 C   0  0  0  0  0  0  0  0  0  0  0  0
  -18.5244  -25.1754   22.5255 C   0  0  0  0  0  0  0  0  0  0  0  0
  -20.7490  -26.0282   21.0867 C   0  0  0  0  0  0  0  0  0  0  0  0
  -25.6641  -27.0026   21.8195 C   0  0  0  0  0  0  0  0  0  0  0  0
  -28.5487  -12.6778   20.9979 C   0  0  0  0  0  0  0  0  0  0  0  0
  -28.4237  -12.7850   18.5875 C   0  0  0  0  0  0  0  0  0  0  0  0
  -26.5279  -26.7561   20.7533 C   0  0  0  0  0  0  0  0  0  0  0  0
  -28.7944   -9.3610   20.3884 C   0  0  0  0  0  0  0  0  0  0  0  0
  -29.1407   -8.2778   21.1961 C   0  0  0  0  0  0  0  0  0  0  0  0
  -26.5220  -29.1072   20.2130 C   0  0  0  0  0  0  0  0  0  0  0  0
  -27.7130  -22.6034   13.4778 C   0  0  0  0  0  0  0  0  0  0  0  0
  -29.0971  -21.0040   14.6451 C   0  0  0  0  0  0  0  0  0  0  0  0
  -28.1683  -22.8917   15.8329 C   0  0  0  0  0  0  0  0  0  0  0  0
  -27.0600   -8.5116   22.4017 C   0  0  0  0  0  0  0  0  0  0  0  0
  -29.7548  -14.3953   19.8009 C   0  0  0  0  0  0  0  0  0  0  0  0
  -32.0338  -15.5394   19.7327 C   0  0  0  0  0  0  0  0  0  0  0  0
  -18.8142  -26.5472   22.4559 C   0  0  0  0  0  0  0  0  0  0  0  0
  -25.2134  -28.3038   22.0843 C   0  0  0  0  0  0  0  0  0  0  0  0
  -19.9332  -26.9813   21.7199 C   0  0  0  0  0  0  0  0  0  0  0  0
  -25.6546  -29.3678   21.2847 C   0  0  0  0  0  0  0  0  0  0  0  0
  -28.4840  -21.4411   13.4710 C   0  0  0  0  0  0  0  0  0  0  0  0
  -27.5552  -23.3288   14.6588 C   0  0  0  0  0  0  0  0  0  0  0  0
  -28.9393  -21.7293   15.8261 C   0  0  0  0  0  0  0  0  0  0  0  0
  -28.0634  -12.1768   19.7900 C   0  0  0  0  0  0  0  0  0  0  0  0
  -26.9547  -27.8081   19.9481 C   0  0  0  0  0  0  0  0  0  0  0  0
  -27.5810  -10.0196   20.5874 C   0  0  0  0  0  0  0  0  0  0  0  0
  -28.2735   -7.8530   22.2027 C   0  0  0  0  0  0  0  0  0  0  0  0
  -26.7138   -9.5948   21.5940 C   0  0  0  0  0  0  0  0  0  0  0  0
  -30.6280  -15.5414   19.8059 C   0  0  0  0  0  0  0  0  0  0  0  0
  -32.3816  -16.8675   19.7730 C   0  0  0  0  0  0  0  0  0  0  0  0
  -32.9440  -14.4357   19.6368 C   0  0  0  0  0  0  0  0  0  0  0  0
  -22.3714  -29.7267   22.1335 C   0  0  0  0  0  0  0  0  0  0  0  0
  -24.0835  -32.2399   23.2624 C   0  0  0  0  0  0  0  0  0  0  0  0
  -27.1899  -26.4893   16.2229 C   0  0  0  0  0  0  0  0  0  0  0  0
  -27.0992  -33.8205   23.4948 C   0  0  0  0  0  0  0  0  0  0  0  0
  -29.5068  -21.8873   18.2755 C   0  0  0  0  0  0  0  0  0  0  0  0
  -17.8739  -27.5224   23.1189 C   0  0  0  0  0  0  0  0  0  0  0  0
  -24.3029  -28.5568   23.2545 C   0  0  0  0  0  0  0  0  0  0  0  0
  -25.2159  -30.7860   21.5393 C   0  0  0  0  0  0  0  0  0  0  0  0
  -18.4669  -28.9183   23.2923 C   0  0  0  0  0  0  0  0  0  0  0  0
  -30.8700  -21.0848   21.4653 C   0  0  0  0  0  0  0  0  0  0  0  0
  -19.1400  -29.3764   22.0024 C   0  0  0  0  0  0  0  0  0  0  0  0
  -31.0962  -19.5729   21.3929 C   0  0  0  0  0  0  0  0  0  0  0  0
  -29.5988  -21.5039   20.7290 C   0  0  0  0  0  0  0  0  0  0  0  0
  -29.7294  -19.5248   19.2677 C   0  0  0  0  0  0  0  0  0  0  0  0
  -20.2994  -28.4465   21.6247 C   0  0  1  0  0  0  0  0  0  0  0  0
  -23.4996  -29.8466   23.1186 C   0  0  1  0  0  0  0  0  0  0  0  0
  -31.0325  -19.0625   19.9400 C   0  0  2  0  0  0  0  0  0  0  0  0
  -28.6528  -20.6657   12.2082 C   0  0  0  0  0  0  0  0  0  0  0  0
  -28.1780  -35.8752   24.4497 C   0  0  0  0  0  0  0  0  0  0  0  0
  -22.8509  -33.9199   21.0335 C   0  0  0  0  0  0  0  0  0  0  0  0
  -24.6327  -35.6325   21.4340 C   0  0  0  0  0  0  0  0  0  0  0  0
  -23.0101  -35.0764   23.2452 C   0  0  0  0  0  0  0  0  0  0  0  0
  -28.6210  -26.0855   14.2080 C   0  0  0  0  0  0  0  0  0  0  0  0
  -28.9186  -32.2178   25.1919 C   0  0  0  0  0  0  0  0  0  0  0  0
  -26.7252  -24.5799   14.6660 C   0  0  0  0  0  0  0  0  0  0  0  0
  -28.0953  -27.6807   16.5178 C   0  0  0  0  0  0  0  0  0  0  0  0
  -27.6964  -28.4381   17.7781 C   0  0  0  0  0  0  0  0  0  1  0  0
  -24.8086  -33.4069   22.6368 C   0  0  1  0  0  0  0  0  0  0  0  0
  -27.8380  -34.4113   24.6820 C   0  0  2  0  0  0  0  0  0  0  0  0
  -23.8325  -34.4821   22.0811 C   0  0  0  0  0  0  0  0  0  0  0  0
  -30.1176  -16.7731   19.8867 N   0  0  0  0  0  0  0  0  0  0  0  0
  -31.2086  -17.5574   19.8646 N   0  0  0  0  0  0  0  0  0  0  0  0
  -24.3205  -30.9815   22.6915 N   0  0  0  0  0  0  0  0  0  0  0  0
  -29.6104  -20.9885   19.3582 N   0  0  0  0  0  0  0  0  0  0  0  0
  -33.5733  -17.5009   19.7386 N   0  0  0  0  0  0  0  0  0  0  0  0
  -32.4182  -13.1368   19.6070 N   0  0  0  0  0  0  0  0  0  0  0  0
  -29.5621  -21.2852   17.0189 N   0  0  0  0  0  0  0  0  0  0  0  0
  -21.4618  -28.7321   22.4382 N   0  0  0  0  0  0  0  0  0  0  0  0
  -25.7318  -33.9049   23.6507 N   0  0  0  0  0  0  0  0  0  0  0  0
  -27.5005  -25.7481   15.0773 N   0  0  0  0  0  0  0  0  0  0  0  0
  -29.1061  -33.6672   24.9254 N   0  3  0  0  0  0  0  0  0  0  0  0
  -34.1874  -14.5958   19.5958 O   0  0  0  0  0  0  0  0  0  0  0  0
  -22.3285  -30.4816   21.1691 O   0  0  0  0  0  0  0  0  0  0  0  0
  -23.3400  -32.4366   24.2268 O   0  0  0  0  0  0  0  0  0  0  0  0
  -26.2460  -26.2188   16.9700 O   0  0  0  0  0  0  0  0  0  0  0  0
  -27.6773  -33.3363   22.5243 O   0  0  0  0  0  0  0  0  0  0  0  0
  -29.4060  -23.1045   18.4498 O   0  0  0  0  0  0  0  0  0  0  0  0
  -27.2383  -11.0943   19.7842 O   0  0  0  0  0  0  0  0  0  0  0  0
  -27.7974  -27.5702   18.9063 O   0  0  0  0  0  0  0  0  0  1  0  0
  -28.6055   -6.8118   22.9772 F   0  0  0  0  0  0  0  0  0  0  0  0
  -25.5461  -10.2228   21.7891 F   0  0  0  0  0  0  0  0  0  0  0  0
  1  2  1  0  0  0  0
  1  5  2  0  0  0  0
  2  6  2  0  0  0  0
  3  8  2  0  0  0  0
  3 18  1  0  0  0  0
  4  9  1  0  0  0  0
  4 18  2  0  0  0  0
  5 20  1  0  0  0  0
  6 22  1  0  0  0  0
  7 10  2  0  0  0  0
  7 21  1  0  0  0  0
  8 27  1  0  0  0  0
  9 27  2  0  0  0  0
 10 28  1  0  0  0  0
 11 12  2  0  0  0  0
 11 29  1  0  0  0  0
 12 30  1  0  0  0  0
 13 23  1  0  0  0  0
 13 28  2  0  0  0  0
 14 24  2  0  0  0  0
 14 25  1  0  0  0  0
 15 24  1  0  0  0  0
 15 26  2  0  0  0  0
 16 25  2  0  0  0  0
 16 26  1  0  0  0  0
 17 30  2  0  0  0  0
 17 31  1  0  0  0  0
 18 32  1  0  0  0  0
 19 32  1  0  0  0  0
 19 33  2  0  0  0  0
 19 34  1  0  0  0  0
 20 22  2  0  0  0  0
 20 40  1  0  0  0  0
 21 23  2  0  0  0  0
 21 41  1  0  0  0  0
 22 49  1  0  0  0  0
 23 42  1  0  0  0  0
 24 52  1  0  0  0  0
 25 59  1  0  0  0  0
 26 71  1  0  0  0  0
 27 82  1  0  0  0  0
 28 83  1  0  0  0  0
 29 31  2  0  0  0  0
 29 82  1  0  0  0  0
 30 84  1  0  0  0  0
 31 85  1  0  0  0  0
 32 65  2  0  0  0  0
 33 66  1  0  0  0  0
 33 69  1  0  0  0  0
 34 70  1  0  0  0  0
 34 76  2  0  0  0  0
 35 50  1  0  0  0  0
 35 72  1  0  0  0  0
 35 77  2  0  0  0  0
 36 62  1  0  0  0  0
 36 67  1  0  0  0  0
 36 78  2  0  0  0  0
 37 60  1  0  0  0  0
 37 74  1  0  0  0  0
 37 79  2  0  0  0  0
 38 63  1  0  0  0  0
 38 73  1  0  0  0  0
 38 80  2  0  0  0  0
 39 68  1  0  0  0  0
 39 71  1  0  0  0  0
 39 81  2  0  0  0  0
 40 43  1  0  0  0  0
 41 50  1  0  0  0  0
 42 67  1  0  0  0  0
 43 45  1  0  0  0  0
 44 46  1  0  0  0  0
 44 47  1  0  0  0  0
 45 49  1  0  0  0  0
 46 51  1  0  0  0  0
 47 68  1  0  0  0  0
 48 51  1  0  0  0  0
 48 68  1  0  0  0  0
 49 72  1  0  0  0  0
 50 67  1  0  0  0  0
 51 66  1  0  0  0  0
 53 63  1  0  0  0  0
 54 64  1  0  0  0  0
 55 64  1  0  0  0  0
 56 64  1  0  0  0  0
 57 74  1  0  0  0  0
 58 75  1  0  0  0  0
 59 74  1  0  0  0  0
 60 61  1  0  0  0  0
 61 83  1  0  0  0  0
 62 64  1  0  0  0  0
 62 73  1  0  0  0  0
 63 75  1  0  0  0  0
 65 66  1  0  0  0  0
M  CHG  1  75   1
M  ISO  4  39 100  61 101  71 100  83 101
M  END
> <Batch ID>
0019

> <Smiles>
CNC(C)C(=O)NC(C(=O)N1Cc2cc([101O:1][101CH2:1]CC(=O)N(C)Cc3cc(C)cc([100NH:0][100C:0](=O)N4CCCC(n5nc(-c6ccc(Oc7ccc(F)cc7F)cc6)c(C(N)=O)c5N)C4)c3)ccc2CC1C(=O)NC1CCCc2ccccc21)C(C)(C)C

> <Shape>
0.245

> <Color>
0.112

> <Negative vol penalty>
0.000

$$$$

  -OEChem-04042321053D

 84 92  0     1  0  0  0  0  0999 V2000
  -19.2648  -26.8521   23.7893 C   0  0  0  0  0  0  0  0  0  0  0  0
  -19.4911  -25.6927   23.0544 C   0  0  0  0  0  0  0  0  0  0  0  0
  -28.4286  -19.3722   20.6598 C   0  0  0  0  0  0  0  0  0  0  0  0
  -22.9780  -16.1146   21.1820 C   0  0  0  0  0  0  0  0  0  0  0  0
  -22.3371  -14.9336   19.1741 C   0  0  0  0  0  0  0  0  0  0  0  0
  -19.9850  -28.0106   23.5011 C   0  0  0  0  0  0  0  0  0  0  0  0
  -20.4371  -25.6916   22.0299 C   0  0  0  0  0  0  0  0  0  0  0  0
  -25.1848  -21.3937   18.8199 C   0  0  0  0  0  0  0  0  0  0  0  0
  -28.6192  -19.6911   19.3154 C   0  0  0  0  0  0  0  0  0  0  0  0
  -29.0380  -18.2403   21.2013 C   0  0  0  0  0  0  0  0  0  0  0  0
  -21.9019  -16.9859   21.0130 C   0  0  0  0  0  0  0  0  0  0  0  0
  -21.2610  -15.8049   19.0051 C   0  0  0  0  0  0  0  0  0  0  0  0
  -25.5468  -20.9469   17.5498 C   0  0  0  0  0  0  0  0  0  0  0  0
  -21.1583  -19.6880   19.1237 C   0  0  0  0  0  0  0  0  0  0  0  0
  -21.3961  -21.0516   19.2961 C   0  0  0  0  0  0  0  0  0  0  0  0
  -26.7878  -22.9846   17.1933 C   0  0  0  0  0  0  0  0  0  0  0  0
  -30.0285  -17.7462   19.0538 C   0  0  0  0  0  0  0  0  0  0  0  0
  -19.7725  -21.1086   21.0843 C   0  0  0  0  0  0  0  0  0  0  0  0
  -23.1956  -15.0885   20.2625 C   0  0  0  0  0  0  0  0  0  0  0  0
  -24.3148  -12.9740   21.1479 C   0  0  0  0  0  0  0  0  0  0  0  0
  -20.9472  -28.0209   22.4790 C   0  0  0  0  0  0  0  0  0  0  0  0
  -25.6134  -22.6461   19.2828 C   0  0  0  0  0  0  0  0  0  0  0  0
  -21.1699  -26.8517   21.7268 C   0  0  0  0  0  0  0  0  0  0  0  0
  -26.4321  -23.4438   18.4707 C   0  0  0  0  0  0  0  0  0  0  0  0
  -29.4191  -18.8782   18.5124 C   0  0  0  0  0  0  0  0  0  0  0  0
  -29.8379  -17.4273   20.3983 C   0  0  0  0  0  0  0  0  0  0  0  0
  -21.0434  -16.8310   19.9246 C   0  0  0  0  0  0  0  0  0  0  0  0
  -26.3460  -21.7436   16.7352 C   0  0  0  0  0  0  0  0  0  0  0  0
  -20.2275  -19.0348   19.9315 C   0  0  0  0  0  0  0  0  0  0  0  0
  -20.7033  -21.7619   20.2764 C   0  0  0  0  0  0  0  0  0  0  0  0
  -19.5346  -19.7450   20.9118 C   0  0  0  0  0  0  0  0  0  0  0  0
  -24.3074  -14.1886   20.4362 C   0  0  0  0  0  0  0  0  0  0  0  0
  -25.5986  -12.5048   21.0131 C   0  0  0  0  0  0  0  0  0  0  0  0
  -23.2558  -12.3277   21.8666 C   0  0  0  0  0  0  0  0  0  0  0  0
  -24.1563  -25.3265   20.1750 C   0  0  0  0  0  0  0  0  0  0  0  0
  -27.1642  -26.2317   20.9847 C   0  0  0  0  0  0  0  0  0  0  0  0
  -30.5251  -25.8576   20.5247 C   0  0  0  0  0  0  0  0  0  0  0  0
  -30.7344  -15.1176   20.1680 C   0  0  0  0  0  0  0  0  0  0  0  0
  -21.6672  -29.3103   22.1728 C   0  0  0  0  0  0  0  0  0  0  0  0
  -25.2364  -23.1020   20.6657 C   0  0  0  0  0  0  0  0  0  0  0  0
  -26.9353  -24.7875   18.9286 C   0  0  0  0  0  0  0  0  0  0  0  0
  -22.9184  -29.1213   21.3190 C   0  0  0  0  0  0  0  0  0  0  0  0
  -29.3446  -12.6212   18.0515 C   0  0  0  0  0  0  0  0  0  0  0  0
  -22.6264  -28.1971   20.1411 C   0  0  0  0  0  0  0  0  0  0  0  0
  -27.8809  -12.6315   18.4908 C   0  0  0  0  0  0  0  0  0  0  0  0
  -29.9389  -14.0294   18.0071 C   0  0  0  0  0  0  0  0  0  0  0  0
  -28.3148  -14.7996   19.7082 C   0  0  0  0  0  0  0  0  0  0  0  0
  -22.2054  -26.8039   20.6242 C   0  0  1  0  0  0  0  0  0  0  0  0
  -25.3045  -24.6166   20.8349 C   0  0  1  0  0  0  0  0  0  0  0  0
  -27.7077  -13.3922   19.8173 C   0  0  1  0  0  0  0  0  0  0  0  0
  -32.7326  -26.7634   21.3017 C   0  0  0  0  0  0  0  0  0  0  0  0
  -28.4988  -22.1120   14.1042 C   0  0  0  0  0  0  0  0  0  0  0  0
  -26.7384  -28.7256   19.2792 C   0  0  0  0  0  0  0  0  0  0  0  0
  -29.2155  -29.0877   19.3143 C   0  0  0  0  0  0  0  0  0  0  0  0
  -27.9198  -29.1325   21.4455 C   0  0  0  0  0  0  0  0  0  0  0  0
  -31.0529  -16.3509   22.3018 C   0  0  0  0  0  0  0  0  0  0  0  0
  -31.3707  -23.2209   21.5695 C   0  0  0  0  0  0  0  0  0  0  0  0
  -28.2907  -17.4289   15.9668 C   0  0  0  0  0  0  0  0  0  0  0  0
  -29.6239  -19.2217   17.0663 C   0  0  0  0  0  0  0  0  0  0  0  0
  -28.3993  -19.7003   14.9516 C   0  0  0  0  0  0  0  0  0  0  0  0
  -28.3001  -26.9255   20.2724 C   0  0  1  0  0  0  0  0  0  0  0  0
  -31.6658  -25.7005   21.5138 C   0  0  2  0  0  0  0  0  0  0  0  0
  -28.0953  -21.1688   15.2300 C   0  0  2  0  0  0  0  0  0  1  0  0
  -28.0326  -28.4434   20.0682 C   0  0  0  0  0  0  0  0  0  0  0  0
  -25.4925  -14.4733   19.8899 N   0  0  0  0  0  0  0  0  0  0  0  0
  -26.2566  -13.4310   20.2585 N   0  0  0  0  0  0  0  0  0  0  0  0
  -26.5343  -25.1919   20.2863 N   0  0  0  0  0  0  0  0  0  0  0  0
  -29.7138  -14.7302   19.2793 N   0  0  0  0  0  0  0  0  0  0  0  0
  -26.2175  -11.3946   21.4677 N   0  0  0  0  0  0  0  0  0  0  0  0
  -21.9990  -12.9468   21.9045 N   0  0  0  0  0  0  0  0  0  0  0  0
  -23.3624  -26.0451   21.0484 N   0  0  0  0  0  0  0  0  0  0  0  0
  -29.5049  -26.6291   21.0398 N   0  0  0  0  0  0  0  0  0  0  0  0
  -30.4692  -16.2560   20.9593 N   0  0  0  0  0  0  0  0  0  0  0  0
  -32.3009  -24.3607   21.3636 N   0  3  0  0  0  0  0  0  0  0  0  0
  -28.4211  -18.9125   16.2092 N   0  3  1  0  0  0  0  0  0  0  0  0
  -23.4236  -11.2416   22.4715 O   0  0  0  0  0  0  0  0  0  0  0  0
  -24.0030  -25.2307   18.9630 O   0  0  0  0  0  0  0  0  0  0  0  0
  -26.8522  -26.5941   22.1217 O   0  0  0  0  0  0  0  0  0  0  0  0
  -30.5393  -25.3500   19.4054 O   0  0  0  0  0  0  0  0  0  0  0  0
  -31.7902  -14.4807   20.2662 O   0  0  0  0  0  0  0  0  0  0  0  0
  -19.9931  -17.6808   19.7596 O   0  0  0  0  0  0  0  0  0  0  0  0
  -26.7002  -21.3102   15.4948 O   0  0  0  0  0  0  0  0  0  1  0  0
  -20.9329  -23.0710   20.4430 F   0  0  0  0  0  0  0  0  0  0  0  0
  -18.6401  -19.1226   21.6918 F   0  0  0  0  0  0  0  0  0  0  0  0
  1  2  1  0  0  0  0
  1  6  2  0  0  0  0
  2  7  2  0  0  0  0
  3  9  2  0  0  0  0
  3 10  1  0  0  0  0
  4 11  2  0  0  0  0
  4 19  1  0  0  0  0
  5 12  1  0  0  0  0
  5 19  2  0  0  0  0
  6 21  1  0  0  0  0
  7 23  1  0  0  0  0
  8 13  2  0  0  0  0
  8 22  1  0  0  0  0
  9 25  1  0  0  0  0
 10 26  2  0  0  0  0
 11 27  1  0  0  0  0
 12 27  2  0  0  0  0
 13 28  1  0  0  0  0
 14 15  2  0  0  0  0
 14 29  1  0  0  0  0
 15 30  1  0  0  0  0
 16 24  1  0  0  0  0
 16 28  2  0  0  0  0
 17 25  2  0  0  0  0
 17 26  1  0  0  0  0
 18 30  2  0  0  0  0
 18 31  1  0  0  0  0
 19 32  1  0  0  0  0
 20 32  1  0  0  0  0
 20 33  2  0  0  0  0
 20 34  1  0  0  0  0
 21 23  2  0  0  0  0
 21 39  1  0  0  0  0
 22 24  2  0  0  0  0
 22 40  1  0  0  0  0
 23 48  1  0  0  0  0
 24 41  1  0  0  0  0
 25 59  1  0  0  0  0
 26 73  1  0  0  0  0
 27 81  1  0  0  0  0
 28 82  1  0  0  0  0
 29 31  2  0  0  0  0
 29 81  1  0  0  0  0
 30 83  1  0  0  0  0
 31 84  1  0  0  0  0
 32 65  2  0  0  0  0
 33 66  1  0  0  0  0
 33 69  1  0  0  0  0
 34 70  1  0  0  0  0
 34 76  2  0  0  0  0
 35 49  1  0  0  0  0
 35 71  1  0  0  0  0
 35 77  2  0  0  0  0
 36 61  1  0  0  0  0
 36 67  1  0  0  0  0
 36 78  2  0  0  0  0
 37 62  1  0  0  0  0
 37 72  1  0  0  0  0
 37 79  2  0  0  0  0
 38 68  1  0  0  0  0
 38 73  1  0  0  0  0
 38 80  2  0  0  0  0
 39 42  1  0  0  0  0
 40 49  1  0  0  0  0
 41 67  1  0  0  0  0
 42 44  1  0  0  0  0
 43 45  1  0  0  0  0
 43 46  1  0  0  0  0
 44 48  1  0  0  0  0
 45 50  1  0  0  0  0
 46 68  1  0  0  0  0
 47 50  1  0  0  0  0
 47 68  1  0  0  0  0
 48 71  1  0  0  0  0
 49 67  1  0  0  0  0
 50 66  1  0  0  0  0
 51 62  1  0  0  0  0
 52 63  1  0  0  0  0
 53 64  1  0  0  0  0
 54 64  1  0  0  0  0
 55 64  1  0  0  0  0
 56 73  1  0  0  0  0
 57 74  1  0  0  0  0
 58 75  1  0  0  0  0
 59 75  1  0  0  0  0
 60 63  1  0  0  0  0
 60 75  1  0  0  0  0
 61 64  1  0  0  0  0
 61 72  1  0  0  0  0
 62 74  1  0  0  0  0
 63 82  1  0  0  0  0
 65 66  1  0  0  0  0
M  CHG  2  74   1  75   1
M  ISO  4  38 100  63 101  73 100  82 101
M  END
> <Batch ID>
0019

> <Smiles>
CNC(C)C(=O)NC(C(=O)N1Cc2cc([101O:1][101CH:1](C)CN(C)Cc3cccc([100N:0](C)[100C:0](=O)N4CCCC(n5nc(-c6ccc(Oc7ccc(F)cc7F)cc6)c(C(N)=O)c5N)C4)c3)ccc2CC1C(=O)NC1CCCc2ccccc21)C(C)(C)C

> <Shape>
0.237

> <Color>
0.092

> <Negative vol penalty>
0.000

$$$$

  -OEChem-04042321053D

 85 94  0     1  0  0  0  0  0999 V2000
  -20.7286  -30.7468   24.9602 C   0  0  0  0  0  0  0  0  0  0  0  0
  -21.2584  -29.4956   24.6616 C   0  0  0  0  0  0  0  0  0  0  0  0
  -23.0517  -10.0397   19.9316 C   0  0  0  0  0  0  0  0  0  0  0  0
  -23.8492   -9.8721   22.2061 C   0  0  0  0  0  0  0  0  0  0  0  0
  -19.4123  -31.0464   24.6116 C   0  0  0  0  0  0  0  0  0  0  0  0
  -20.4719  -28.5428   24.0151 C   0  0  0  0  0  0  0  0  0  0  0  0
  -22.3435  -24.3810   19.9307 C   0  0  0  0  0  0  0  0  0  0  0  0
  -25.2527  -15.6782   16.2453 C   0  0  0  0  0  0  0  0  0  0  0  0
  -26.2301  -14.8013   15.7750 C   0  0  0  0  0  0  0  0  0  0  0  0
  -22.2844   -8.8896   20.1159 C   0  0  0  0  0  0  0  0  0  0  0  0
  -23.0818   -8.7220   22.3904 C   0  0  0  0  0  0  0  0  0  0  0  0
  -22.6655  -23.0297   20.0488 C   0  0  0  0  0  0  0  0  0  0  0  0
  -19.3420   -8.0637   21.5627 C   0  0  0  0  0  0  0  0  0  0  0  0
  -18.0265   -8.0810   21.0991 C   0  0  0  0  0  0  0  0  0  0  0  0
  -20.4319  -22.4428   19.3517 C   0  0  0  0  0  0  0  0  0  0  0  0
  -27.8376  -15.7807   17.2896 C   0  0  0  0  0  0  0  0  0  0  0  0
  -18.5171   -6.2206   19.6378 C   0  0  0  0  0  0  0  0  0  0  0  0
  -23.8342  -10.5309   20.9767 C   0  0  0  0  0  0  0  0  0  0  0  0
  -24.2352  -13.0498   21.0226 C   0  0  0  0  0  0  0  0  0  0  0  0
  -18.6123  -30.1002   23.9518 C   0  0  0  0  0  0  0  0  0  0  0  0
  -21.0579  -24.7742   19.5321 C   0  0  0  0  0  0  0  0  0  0  0  0
  -19.1432  -28.8296   23.6585 C   0  0  0  0  0  0  0  0  0  0  0  0
  -20.0970  -23.7998   19.2268 C   0  0  0  0  0  0  0  0  0  0  0  0
  -25.5677  -16.6065   17.2377 C   0  0  0  0  0  0  0  0  0  0  0  0
  -27.5225  -14.8525   16.2972 C   0  0  0  0  0  0  0  0  0  0  0  0
  -22.2993   -8.2308   21.3453 C   0  0  0  0  0  0  0  0  0  0  0  0
  -21.7088  -22.0604   19.7621 C   0  0  0  0  0  0  0  0  0  0  0  0
  -20.2450   -7.1250   21.0638 C   0  0  0  0  0  0  0  0  0  0  0  0
  -17.6141   -7.1594   20.1367 C   0  0  0  0  0  0  0  0  0  0  0  0
  -26.8601  -16.6577   17.7599 C   0  0  0  0  0  0  0  0  0  0  0  0
  -19.8326   -6.2034   20.1014 C   0  0  0  0  0  0  0  0  0  0  0  0
  -24.6276  -11.7186   20.7867 C   0  0  0  0  0  0  0  0  0  0  0  0
  -25.3390  -13.7970   20.6915 C   0  0  0  0  0  0  0  0  0  0  0  0
  -22.9846  -13.5649   21.4986 C   0  0  0  0  0  0  0  0  0  0  0  0
  -18.7081  -26.4461   20.8688 C   0  0  0  0  0  0  0  0  0  0  0  0
  -17.3383  -26.1191   17.9466 C   0  0  0  0  0  0  0  0  0  0  0  0
  -17.1114  -24.3543   15.0344 C   0  0  0  0  0  0  0  0  0  0  0  0
  -29.6012  -13.4825   16.6028 C   0  0  0  0  0  0  0  0  0  0  0  0
  -17.1801  -30.4534   23.6373 C   0  0  0  0  0  0  0  0  0  0  0  0
  -20.7345  -26.2357   19.3838 C   0  0  0  0  0  0  0  0  0  0  0  0
  -18.7085  -24.1694   18.7753 C   0  0  0  0  0  0  0  0  0  0  0  0
  -16.5318  -29.5189   22.6192 C   0  0  0  0  0  0  0  0  0  0  0  0
  -30.1700  -12.9129   20.2146 C   0  0  0  0  0  0  0  0  0  0  0  0
  -16.8229  -28.0631   22.9697 C   0  0  0  0  0  0  0  0  0  0  0  0
  -28.7700  -12.5869   20.7313 C   0  0  0  0  0  0  0  0  0  0  0  0
  -22.6455  -18.7833   17.7961 C   0  0  0  0  0  0  0  0  0  0  0  0
  -30.3425  -12.5098   18.7533 C   0  0  0  0  0  0  0  0  0  0  0  0
  -23.2226  -17.4951   17.2132 C   0  0  0  0  0  0  0  0  0  0  0  0
  -24.8294  -18.4855   18.7279 C   0  0  0  0  0  0  0  0  0  0  0  0
  -27.9097  -12.7758   18.3637 C   0  0  0  0  0  0  0  0  0  0  0  0
  -18.3293  -27.7782   22.9359 C   0  0  1  0  0  0  0  0  0  0  0  0
  -19.2395  -26.5281   19.4657 C   0  0  1  0  0  0  0  0  0  0  0  0
  -23.4179  -18.9521   19.1013 C   0  0  1  0  0  0  0  0  0  0  0  0
  -27.6976  -13.2092   19.8219 C   0  0  1  0  0  0  0  0  0  0  0  0
  -15.8764  -24.3078   12.8504 C   0  0  0  0  0  0  0  0  0  0  0  0
  -14.8813  -24.9930   19.3627 C   0  0  0  0  0  0  0  0  0  0  0  0
  -14.1028  -24.1040   17.1555 C   0  0  0  0  0  0  0  0  0  0  0  0
  -14.3741  -26.5621   17.4825 C   0  0  0  0  0  0  0  0  0  0  0  0
  -28.5989  -13.7020   14.3715 C   0  0  0  0  0  0  0  0  0  0  0  0
  -19.6080  -24.6974   13.4825 C   0  0  0  0  0  0  0  0  0  0  0  0
  -23.3782  -20.3708   19.6415 C   0  0  0  0  0  0  0  0  0  1  0  0
  -16.4298  -25.1017   17.2996 C   0  0  1  0  0  0  0  0  0  0  0  0
  -17.1144  -24.8005   13.5834 C   0  0  2  0  0  0  0  0  0  0  0  0
  -14.9725  -25.1830   17.8355 C   0  0  0  0  0  0  0  0  0  0  0  0
  -25.8827  -11.6225   20.3401 N   0  0  0  0  0  0  0  0  0  0  0  0
  -26.2885  -12.9028   20.2927 N   0  0  0  0  0  0  0  0  0  0  0  0
  -24.5998  -17.4730   17.6995 N   0  0  3  0  0  0  0  0  0  0  0  0
  -18.4388  -25.6114   18.6516 N   0  0  0  0  0  0  0  0  0  0  0  0
  -29.2807  -13.0602   17.9094 N   0  0  0  0  0  0  0  0  0  0  0  0
  -25.5804  -15.1252   20.7055 N   0  0  0  0  0  0  0  0  0  0  0  0
  -21.9566  -12.6584   21.7914 N   0  0  0  0  0  0  0  0  0  0  0  0
  -18.7860  -27.6341   21.5702 N   0  0  0  0  0  0  0  0  0  0  0  0
  -16.5492  -25.3050   15.8599 N   0  0  0  0  0  0  0  0  0  0  0  0
  -28.5332  -13.9455   15.8108 N   0  0  0  0  0  0  0  0  0  0  0  0
  -18.3179  -24.2716   12.8813 N   0  3  0  0  0  0  0  0  0  0  0  0
  -22.7792  -14.7938   21.6438 O   0  0  0  0  0  0  0  0  0  0  0  0
  -18.2592  -25.3840   21.2837 O   0  0  0  0  0  0  0  0  0  0  0  0
  -17.0850  -27.3202   17.8248 O   0  0  0  0  0  0  0  0  0  0  0  0
  -17.5593  -23.2693   15.3986 O   0  0  0  0  0  0  0  0  0  0  0  0
  -30.7505  -13.4009   16.1522 O   0  0  0  0  0  0  0  0  0  0  0  0
  -21.5505   -7.1086   21.5256 O   0  0  0  0  0  0  0  0  0  0  0  0
  -22.0202  -20.7406   19.8771 O   0  0  0  0  0  0  0  0  0  1  0  0
  -16.3504   -7.1751   19.6927 F   0  0  0  0  0  0  0  0  0  0  0  0
  -27.1737  -17.5470   18.7128 F   0  0  0  0  0  0  0  0  0  0  0  0
  -20.6953   -5.2984   19.6192 F   0  0  0  0  0  0  0  0  0  0  0  0
  1  2  1  0  0  0  0
  1  5  2  0  0  0  0
  2  6  2  0  0  0  0
  3 10  2  0  0  0  0
  3 18  1  0  0  0  0
  4 11  1  0  0  0  0
  4 18  2  0  0  0  0
  5 20  1  0  0  0  0
  6 22  1  0  0  0  0
  7 12  2  0  0  0  0
  7 21  1  0  0  0  0
  8  9  2  0  0  0  0
  8 24  1  0  0  0  0
  9 25  1  0  0  0  0
 10 26  1  0  0  0  0
 11 26  2  0  0  0  0
 12 27  1  0  0  0  0
 13 14  2  0  0  0  0
 13 28  1  0  0  0  0
 14 29  1  0  0  0  0
 15 23  1  0  0  0  0
 15 27  2  0  0  0  0
 16 25  2  0  0  0  0
 16 30  1  0  0  0  0
 17 29  2  0  0  0  0
 17 31  1  0  0  0  0
 18 32  1  0  0  0  0
 19 32  1  0  0  0  0
 19 33  2  0  0  0  0
 19 34  1  0  0  0  0
 20 22  2  0  0  0  0
 20 39  1  0  0  0  0
 21 23  2  0  0  0  0
 21 40  1  0  0  0  0
 22 51  1  0  0  0  0
 23 41  1  0  0  0  0
 24 30  2  0  0  0  0
 24 67  1  0  0  0  0
 25 74  1  0  0  0  0
 26 81  1  0  0  0  0
 27 82  1  0  0  0  0
 28 31  2  0  0  0  0
 28 81  1  0  0  0  0
 29 83  1  0  0  0  0
 30 84  1  0  0  0  0
 31 85  1  0  0  0  0
 32 65  2  0  0  0  0
 33 66  1  0  0  0  0
 33 70  1  0  0  0  0
 34 71  1  0  0  0  0
 34 76  2  0  0  0  0
 35 52  1  0  0  0  0
 35 72  1  0  0  0  0
 35 77  2  0  0  0  0
 36 62  1  0  0  0  0
 36 68  1  0  0  0  0
 36 78  2  0  0  0  0
 37 63  1  0  0  0  0
 37 73  1  0  0  0  0
 37 79  2  0  0  0  0
 38 69  1  0  0  0  0
 38 74  1  0  0  0  0
 38 80  2  0  0  0  0
 39 42  1  0  0  0  0
 40 52  1  0  0  0  0
 41 68  1  0  0  0  0
 42 44  1  0  0  0  0
 43 45  1  0  0  0  0
 43 47  1  0  0  0  0
 44 51  1  0  0  0  0
 45 54  1  0  0  0  0
 46 48  1  0  0  0  0
 46 53  1  0  0  0  0
 47 69  1  0  0  0  0
 48 67  1  0  0  0  0
 49 53  1  0  0  0  0
 49 67  1  0  0  0  0
 50 54  1  0  0  0  0
 50 69  1  0  0  0  0
 51 72  1  0  0  0  0
 52 68  1  0  0  0  0
 53 61  1  0  0  0  0
 54 66  1  0  0  0  0
 55 63  1  0  0  0  0
 56 64  1  0  0  0  0
 57 64  1  0  0  0  0
 58 64  1  0  0  0  0
 59 74  1  0  0  0  0
 60 75  1  0  0  0  0
 61 82  1  0  0  0  0
 62 64  1  0  0  0  0
 62 73  1  0  0  0  0
 63 75  1  0  0  0  0
 65 66  1  0  0  0  0
M  CHG  1  75   1
M  ISO  4  38 100  61 101  74 100  82 101
M  END
> <Batch ID>
0019

> <Smiles>
CNC(C)C(=O)NC(C(=O)N1Cc2cc([101O:1][101CH2:1]C3CCN(c4ccc([100N:0](C)[100C:0](=O)N5CCCC(n6nc(-c7ccc(Oc8ccc(F)cc8F)cc7)c(C(N)=O)c6N)C5)cc4F)C3)ccc2CC1C(=O)NC1CCCc2ccccc21)C(C)(C)C

> <Shape>
0.189

> <Color>
0.191

> <Negative vol penalty>
0.000

$$$$

  -OEChem-04042321053D

 82 90  0     1  0  0  0  0  0999 V2000
  -31.1929  -34.7210   22.2773 C   0  0  0  0  0  0  0  0  0  0  0  0
  -30.8233  -33.6201   21.5112 C   0  0  0  0  0  0  0  0  0  0  0  0
  -26.7543  -12.5689   21.6962 C   0  0  0  0  0  0  0  0  0  0  0  0
  -26.2729  -13.8888   19.7307 C   0  0  0  0  0  0  0  0  0  0  0  0
  -30.6338  -34.9091   23.5405 C   0  0  0  0  0  0  0  0  0  0  0  0
  -29.8951  -32.7060   22.0085 C   0  0  0  0  0  0  0  0  0  0  0  0
  -26.4153  -31.4039   18.5674 C   0  0  0  0  0  0  0  0  0  0  0  0
  -29.6816  -21.1788   18.5509 C   0  0  0  0  0  0  0  0  0  0  0  0
  -29.2501  -22.3593   17.9463 C   0  0  0  0  0  0  0  0  0  0  0  0
  -25.4290  -12.1353   21.7297 C   0  0  0  0  0  0  0  0  0  0  0  0
  -24.9475  -13.4551   19.7642 C   0  0  0  0  0  0  0  0  0  0  0  0
  -26.7954  -30.4787   17.5962 C   0  0  0  0  0  0  0  0  0  0  0  0
  -23.5107   -9.8618   20.1223 C   0  0  0  0  0  0  0  0  0  0  0  0
  -23.2783   -8.5036   20.3388 C   0  0  0  0  0  0  0  0  0  0  0  0
  -25.6871  -28.7312   18.8360 C   0  0  0  0  0  0  0  0  0  0  0  0
  -30.3176  -22.4212   20.5230 C   0  0  0  0  0  0  0  0  0  0  0  0
  -22.0274   -9.0359   22.3360 C   0  0  0  0  0  0  0  0  0  0  0  0
  -27.1762  -13.4457   20.6968 C   0  0  0  0  0  0  0  0  0  0  0  0
  -29.6221  -13.2865   19.9896 C   0  0  0  0  0  0  0  0  0  0  0  0
  -29.6910  -34.0020   24.0496 C   0  0  0  0  0  0  0  0  0  0  0  0
  -25.6764  -30.9971   19.6876 C   0  0  0  0  0  0  0  0  0  0  0  0
  -29.3238  -32.8814   23.2803 C   0  0  0  0  0  0  0  0  0  0  0  0
  -25.2968  -29.6536   19.8187 C   0  0  0  0  0  0  0  0  0  0  0  0
  -30.2154  -21.2097   19.8393 C   0  0  0  0  0  0  0  0  0  0  0  0
  -29.3524  -23.5709   18.6299 C   0  0  0  0  0  0  0  0  0  0  0  0
  -24.5256  -12.5783   20.7637 C   0  0  0  0  0  0  0  0  0  0  0  0
  -26.4337  -29.1416   17.7318 C   0  0  0  0  0  0  0  0  0  0  0  0
  -23.0015  -10.8071   21.0127 C   0  0  0  0  0  0  0  0  0  0  0  0
  -22.5367   -8.0906   21.4456 C   0  0  0  0  0  0  0  0  0  0  0  0
  -29.8861  -23.6018   19.9183 C   0  0  0  0  0  0  0  0  0  0  0  0
  -22.2599  -10.3942   22.1195 C   0  0  0  0  0  0  0  0  0  0  0  0
  -28.5450  -13.8945   20.6620 C   0  0  0  0  0  0  0  0  0  0  0  0
  -30.6989  -14.0930   20.2664 C   0  0  0  0  0  0  0  0  0  0  0  0
  -29.6471  -12.0990   19.1866 C   0  0  0  0  0  0  0  0  0  0  0  0
  -26.1780  -30.9972   22.8265 C   0  0  0  0  0  0  0  0  0  0  0  0
  -23.0936  -29.9976   22.9261 C   0  0  0  0  0  0  0  0  0  0  0  0
  -20.4888  -28.4742   21.3321 C   0  0  0  0  0  0  0  0  0  0  0  0
  -31.2075  -19.8654   21.7247 C   0  0  0  0  0  0  0  0  0  0  0  0
  -29.1494  -34.2217   25.4399 C   0  0  0  0  0  0  0  0  0  0  0  0
  -25.2514  -32.0123   20.7129 C   0  0  0  0  0  0  0  0  0  0  0  0
  -24.4863  -29.1695   20.9923 C   0  0  0  0  0  0  0  0  0  0  0  0
  -27.8924  -33.4091   25.7394 C   0  0  0  0  0  0  0  0  0  0  0  0
  -32.3775  -17.0814   23.6110 C   0  0  0  0  0  0  0  0  0  0  0  0
  -28.0717  -31.9628   25.2888 C   0  0  0  0  0  0  0  0  0  0  0  0
  -31.6300  -15.8921   23.0036 C   0  0  0  0  0  0  0  0  0  0  0  0
  -31.5052  -18.3346   23.6595 C   0  0  0  0  0  0  0  0  0  0  0  0
  -30.1436  -17.5241   21.7731 C   0  0  0  0  0  0  0  0  0  0  0  0
  -28.3016  -31.8812   23.7749 C   0  0  1  0  0  0  0  0  0  0  0  0
  -24.9403  -31.3942   22.0725 C   0  0  1  0  0  0  0  0  0  0  0  0
  -31.0028  -16.2558   21.6435 C   0  0  2  0  0  0  0  0  0  0  0  0
  -18.1063  -27.7683   21.6825 C   0  0  0  0  0  0  0  0  0  0  0  0
  -24.0428  -27.6419   24.6172 C   0  0  0  0  0  0  0  0  0  0  0  0
  -21.8637  -26.5075   24.1348 C   0  0  0  0  0  0  0  0  0  0  0  0
  -21.8934  -28.6714   25.3754 C   0  0  0  0  0  0  0  0  0  0  0  0
  -19.5291  -30.2134   19.1382 C   0  0  0  0  0  0  0  0  0  0  0  0
  -28.0484  -26.2406   16.3084 C   0  0  0  0  0  0  0  0  0  0  0  0
  -28.3609  -24.8011   16.6988 C   0  0  0  0  0  0  0  0  0  0  0  0
  -27.0150  -26.8932   17.2191 C   0  0  0  0  0  0  0  0  0  1  0  0
  -22.4034  -28.6553   22.8992 C   0  0  1  0  0  0  0  0  0  0  0  0
  -19.0303  -28.8679   21.1826 C   0  0  2  0  0  0  0  0  0  0  0  0
  -22.5678  -27.8775   24.2354 C   0  0  0  0  0  0  0  0  0  0  0  0
  -28.9047  -15.0017   21.3168 N   0  0  0  0  0  0  0  0  0  0  0  0
  -30.2200  -15.0958   21.0572 N   0  0  0  0  0  0  0  0  0  0  0  0
  -24.1003  -30.1991   21.9713 N   0  0  0  0  0  0  0  0  0  0  0  0
  -30.9487  -18.6199   22.3352 N   0  0  0  0  0  0  0  0  0  0  0  0
  -31.9991  -14.0352   19.9082 N   0  0  0  0  0  0  0  0  0  0  0  0
  -28.4517  -11.3903   19.0045 N   0  0  0  0  0  0  0  0  0  0  0  0
  -30.6540  -20.0102   20.4530 N   0  0  0  0  0  0  0  0  0  0  0  0
  -28.9235  -24.7427   18.0263 N   0  0  0  0  0  0  0  0  0  0  0  0
  -27.0510  -32.0415   23.0644 N   0  0  0  0  0  0  0  0  0  0  0  0
  -21.0173  -28.9164   22.5264 N   0  0  0  0  0  0  0  0  0  0  0  0
  -18.7103  -29.1365   19.7521 N   0  3  0  0  0  0  0  0  0  0  0  0
  -30.7016  -11.6697   18.6601 O   0  0  0  0  0  0  0  0  0  0  0  0
  -26.3289  -29.8301   23.1683 O   0  0  0  0  0  0  0  0  0  0  0  0
  -22.7472  -30.8391   23.7590 O   0  0  0  0  0  0  0  0  0  0  0  0
  -21.0972  -27.8349   20.4767 O   0  0  0  0  0  0  0  0  0  0  0  0
  -31.8940  -20.7287   22.2773 O   0  0  0  0  0  0  0  0  0  0  0  0
  -23.2324  -12.1552   20.7959 O   0  0  0  0  0  0  0  0  0  0  0  0
  -26.8039  -28.2363   16.7856 O   0  0  0  0  0  0  0  0  0  1  0  0
  -22.3123   -6.7864   21.6525 F   0  0  0  0  0  0  0  0  0  0  0  0
  -29.9905  -24.7611   20.5836 F   0  0  0  0  0  0  0  0  0  0  0  0
  -21.7671  -11.2977   22.9778 F   0  0  0  0  0  0  0  0  0  0  0  0
  1  2  1  0  0  0  0
  1  5  2  0  0  0  0
  2  6  2  0  0  0  0
  3 10  2  0  0  0  0
  3 18  1  0  0  0  0
  4 11  1  0  0  0  0
  4 18  2  0  0  0  0
  5 20  1  0  0  0  0
  6 22  1  0  0  0  0
  7 12  2  0  0  0  0
  7 21  1  0  0  0  0
  8  9  2  0  0  0  0
  8 24  1  0  0  0  0
  9 25  1  0  0  0  0
 10 26  1  0  0  0  0
 11 26  2  0  0  0  0
 12 27  1  0  0  0  0
 13 14  2  0  0  0  0
 13 28  1  0  0  0  0
 14 29  1  0  0  0  0
 15 23  1  0  0  0  0
 15 27  2  0  0  0  0
 16 24  2  0  0  0  0
 16 30  1  0  0  0  0
 17 29  2  0  0  0  0
 17 31  1  0  0  0  0
 18 32  1  0  0  0  0
 19 32  1  0  0  0  0
 19 33  2  0  0  0  0
 19 34  1  0  0  0  0
 20 22  2  0  0  0  0
 20 39  1  0  0  0  0
 21 23  2  0  0  0  0
 21 40  1  0  0  0  0
 22 48  1  0  0  0  0
 23 41  1  0  0  0  0
 24 68  1  0  0  0  0
 25 30  2  0  0  0  0
 25 69  1  0  0  0  0
 26 78  1  0  0  0  0
 27 79  1  0  0  0  0
 28 31  2  0  0  0  0
 28 78  1  0  0  0  0
 29 80  1  0  0  0  0
 30 81  1  0  0  0  0
 31 82  1  0  0  0  0
 32 62  2  0  0  0  0
 33 63  1  0  0  0  0
 33 66  1  0  0  0  0
 34 67  1  0  0  0  0
 34 73  2  0  0  0  0
 35 49  1  0  0  0  0
 35 70  1  0  0  0  0
 35 74  2  0  0  0  0
 36 59  1  0  0  0  0
 36 64  1  0  0  0  0
 36 75  2  0  0  0  0
 37 60  1  0  0  0  0
 37 71  1  0  0  0  0
 37 76  2  0  0  0  0
 38 65  1  0  0  0  0
 38 68  1  0  0  0  0
 38 77  2  0  0  0  0
 39 42  1  0  0  0  0
 40 49  1  0  0  0  0
 41 64  1  0  0  0  0
 42 44  1  0  0  0  0
 43 45  1  0  0  0  0
 43 46  1  0  0  0  0
 44 48  1  0  0  0  0
 45 50  1  0  0  0  0
 46 65  1  0  0  0  0
 47 50  1  0  0  0  0
 47 65  1  0  0  0  0
 48 70  1  0  0  0  0
 49 64  1  0  0  0  0
 50 63  1  0  0  0  0
 51 60  1  0  0  0  0
 52 61  1  0  0  0  0
 53 61  1  0  0  0  0
 54 61  1  0  0  0  0
 55 72  1  0  0  0  0
 56 57  1  0  0  0  0
 56 58  1  0  0  0  0
 57 69  1  0  0  0  0
 58 79  1  0  0  0  0
 59 61  1  0  0  0  0
 59 71  1  0  0  0  0
 60 72  1  0  0  0  0
 62 63  1  0  0  0  0
M  CHG  1  72   1
M  ISO  4  38 100  58 101  68 100  79 101
M  END
> <Batch ID>
0019

> <Smiles>
CNC(C)C(=O)NC(C(=O)N1Cc2cc([101O:1][101CH2:1]CCNc3ccc([100NH:0][100C:0](=O)N4CCCC(n5nc(-c6ccc(Oc7ccc(F)cc7F)cc6)c(C(N)=O)c5N)C4)cc3F)ccc2CC1C(=O)NC1CCCc2ccccc21)C(C)(C)C

> <Shape>
0.300

> <Color>
0.071

> <Negative vol penalty>
0.000

$$$$

  -OEChem-04042321053D

 86 95  0     1  0  0  0  0  0999 V2000
  -29.1088  -11.3099   16.0478 C   0  0  0  0  0  0  0  0  0  0  0  0
  -29.0044  -12.6870   16.2156 C   0  0  0  0  0  0  0  0  0  0  0  0
  -20.8569  -26.8168   22.1634 C   0  0  0  0  0  0  0  0  0  0  0  0
  -19.8911  -28.9177   22.8636 C   0  0  0  0  0  0  0  0  0  0  0  0
  -28.2586  -10.4569   16.7503 C   0  0  0  0  0  0  0  0  0  0  0  0
  -28.0490  -13.2119   17.0852 C   0  0  0  0  0  0  0  0  0  0  0  0
  -28.5992  -18.2158   20.5729 C   0  0  0  0  0  0  0  0  0  0  0  0
  -27.3349  -26.8000   19.8017 C   0  0  0  0  0  0  0  0  0  0  0  0
  -27.8904  -27.9390   20.3845 C   0  0  0  0  0  0  0  0  0  0  0  0
  -19.6237  -26.1902   22.3423 C   0  0  0  0  0  0  0  0  0  0  0  0
  -18.6577  -28.2911   23.0424 C   0  0  0  0  0  0  0  0  0  0  0  0
  -28.1642  -19.5296   20.4036 C   0  0  0  0  0  0  0  0  0  0  0  0
  -16.7003  -25.9204   20.6648 C   0  0  0  0  0  0  0  0  0  0  0  0
  -16.2643  -25.0504   19.6655 C   0  0  0  0  0  0  0  0  0  0  0  0
  -26.2056  -19.0450   21.7258 C   0  0  0  0  0  0  0  0  0  0  0  0
  -28.2833  -26.7040   22.4235 C   0  0  0  0  0  0  0  0  0  0  0  0
  -16.2040  -23.2419   21.2663 C   0  0  0  0  0  0  0  0  0  0  0  0
  -20.9907  -28.1806   22.4242 C   0  0  0  0  0  0  0  0  0  0  0  0
  -22.7454  -29.4405   21.0673 C   0  0  0  0  0  0  0  0  0  0  0  0
  -27.2987  -10.9711   17.6362 C   0  0  0  0  0  0  0  0  0  0  0  0
  -27.8339  -17.3023   21.3120 C   0  0  0  0  0  0  0  0  0  0  0  0
  -27.1843  -12.3649   17.7991 C   0  0  0  0  0  0  0  0  0  0  0  0
  -26.6343  -17.7210   21.9051 C   0  0  0  0  0  0  0  0  0  0  0  0
  -27.2534  -25.6130   20.5298 C   0  0  0  0  0  0  0  0  0  0  0  0
  -28.3647  -27.8910   21.6953 C   0  0  0  0  0  0  0  0  0  0  0  0
  -18.5241  -26.9273   22.7817 C   0  0  0  0  0  0  0  0  0  0  0  0
  -26.9658  -19.9436   20.9777 C   0  0  0  0  0  0  0  0  0  0  0  0
  -16.8883  -25.4511   21.9649 C   0  0  0  0  0  0  0  0  0  0  0  0
  -16.0161  -23.7112   19.9663 C   0  0  0  0  0  0  0  0  0  0  0  0
  -16.6401  -24.1119   22.2656 C   0  0  0  0  0  0  0  0  0  0  0  0
  -27.7277  -25.5650   21.8407 C   0  0  0  0  0  0  0  0  0  0  0  0
  -22.2645  -28.8283   22.2402 C   0  0  0  0  0  0  0  0  0  0  0  0
  -23.9935  -29.9019   21.4076 C   0  0  0  0  0  0  0  0  0  0  0  0
  -22.1197  -29.5798   19.7848 C   0  0  0  0  0  0  0  0  0  0  0  0
  -26.3692  -14.5578   20.6591 C   0  0  0  0  0  0  0  0  0  0  0  0
  -25.8354  -14.5313   23.8586 C   0  0  0  0  0  0  0  0  0  0  0  0
  -25.5318  -16.3024   26.7600 C   0  0  0  0  0  0  0  0  0  0  0  0
  -28.8553  -29.2954   23.6899 C   0  0  0  0  0  0  0  0  0  0  0  0
  -26.3704  -10.0116   18.3377 C   0  0  0  0  0  0  0  0  0  0  0  0
  -28.3302  -15.8959   21.5076 C   0  0  0  0  0  0  0  0  0  0  0  0
  -25.7859  -16.7847   22.7249 C   0  0  0  0  0  0  0  0  0  0  0  0
  -25.6355  -10.6319   19.5231 C   0  0  0  0  0  0  0  0  0  0  0  0
  -26.2575  -30.2884   25.9053 C   0  0  0  0  0  0  0  0  0  0  0  0
  -23.1006  -24.0701   20.8827 C   0  0  0  0  0  0  0  0  0  0  0  0
  -25.0625  -11.9935   19.1429 C   0  0  0  0  0  0  0  0  0  0  0  0
  -25.0163  -30.0351   25.0505 C   0  0  0  0  0  0  0  0  0  0  0  0
  -23.3240  -22.9706   19.8602 C   0  0  0  0  0  0  0  0  0  0  0  0
  -27.3149  -29.2003   25.7159 C   0  0  0  0  0  0  0  0  0  0  0  0
  -26.4525  -28.7168   23.4472 C   0  0  0  0  0  0  0  0  0  0  0  0
  -24.3439  -24.9190   20.7409 C   0  0  0  0  0  0  0  0  0  0  0  0
  -26.1772  -12.9714   18.7520 C   0  0  1  0  0  0  0  0  0  0  0  0
  -27.2161  -14.9112   21.8489 C   0  0  1  0  0  0  0  0  0  0  0  0
  -25.3960  -29.8255   23.5740 C   0  0  1  0  0  0  0  0  0  0  0  0
  -24.8174  -22.6545   19.9408 C   0  0  2  0  0  0  0  0  0  0  0  0
  -25.0562  -16.0090   29.2064 C   0  0  0  0  0  0  0  0  0  0  0  0
  -22.8726  -14.1535   23.2348 C   0  0  0  0  0  0  0  0  0  0  0  0
  -22.3629  -14.8140   25.5953 C   0  0  0  0  0  0  0  0  0  0  0  0
  -23.7221  -12.7727   25.1391 C   0  0  0  0  0  0  0  0  0  0  0  0
  -29.8215  -29.9138   21.4855 C   0  0  0  0  0  0  0  0  0  0  0  0
  -28.1742  -17.3950   27.5233 C   0  0  0  0  0  0  0  0  0  0  0  0
  -26.6493  -24.4105   19.8665 C   0  0  0  0  0  0  0  0  0  0  0  0
  -25.1286  -21.4443   20.8097 C   0  0  0  0  0  0  0  0  0  1  0  0
  -24.7471  -15.0534   24.7653 C   0  0  1  0  0  0  0  0  0  0  0  0
  -26.1344  -16.0907   28.1371 C   0  0  2  0  0  0  0  0  0  0  0  0
  -23.4410  -14.2158   24.6666 C   0  0  0  0  0  0  0  0  0  0  0  0
  -23.1362  -28.8930   23.2502 N   0  0  0  0  0  0  0  0  0  0  0  0
  -24.1773  -29.5513   22.7128 N   0  0  0  0  0  0  0  0  0  0  0  0
  -26.3106  -15.4181   22.8821 N   0  0  0  0  0  0  0  0  0  0  0  0
  -27.6148  -29.0079   24.2900 N   0  0  0  0  0  0  0  0  0  0  0  0
  -24.9407  -30.5691   20.7148 N   0  0  0  0  0  0  0  0  0  0  0  0
  -20.8353  -29.0479   19.6066 N   0  0  0  0  0  0  0  0  0  0  0  0
  -26.8402  -13.4804   19.9334 N   0  0  0  0  0  0  0  0  0  0  0  0
  -25.3227  -15.1073   26.1048 N   0  0  0  0  0  0  0  0  0  0  0  0
  -28.9388  -29.0706   22.2989 N   0  0  0  0  0  0  0  0  0  0  0  0
  -25.4410  -23.8927   20.5801 N   0  3  1  0  0  0  0  0  0  0  0  0
  -27.0516  -17.2143   28.4795 N   0  3  0  0  0  0  0  0  0  0  0  0
  -22.6895  -30.1444   18.8204 O   0  0  0  0  0  0  0  0  0  0  0  0
  -25.3621  -15.2131   20.4183 O   0  0  0  0  0  0  0  0  0  0  0  0
  -26.2536  -13.3815   24.0158 O   0  0  0  0  0  0  0  0  0  0  0  0
  -25.2691  -17.4163   26.3119 O   0  0  0  0  0  0  0  0  0  0  0  0
  -29.8067  -29.7433   24.3412 O   0  0  0  0  0  0  0  0  0  0  0  0
  -17.3204  -26.3162   22.9561 O   0  0  0  0  0  0  0  0  0  0  0  0
  -26.5387  -21.2252   20.8135 O   0  0  0  0  0  0  0  0  0  1  0  0
  -15.5959  -22.8762   19.0069 F   0  0  0  0  0  0  0  0  0  0  0  0
  -16.8178  -23.6555   23.5130 F   0  0  0  0  0  0  0  0  0  0  0  0
  -27.6431  -24.1143   22.7723 Cl  0  0  0  0  0  0  0  0  0  0  0  0
  1  2  1  0  0  0  0
  1  5  2  0  0  0  0
  2  6  2  0  0  0  0
  3 10  2  0  0  0  0
  3 18  1  0  0  0  0
  4 11  1  0  0  0  0
  4 18  2  0  0  0  0
  5 20  1  0  0  0  0
  6 22  1  0  0  0  0
  7 12  2  0  0  0  0
  7 21  1  0  0  0  0
  8  9  2  0  0  0  0
  8 24  1  0  0  0  0
  9 25  1  0  0  0  0
 10 26  1  0  0  0  0
 11 26  2  0  0  0  0
 12 27  1  0  0  0  0
 13 14  2  0  0  0  0
 13 28  1  0  0  0  0
 14 29  1  0  0  0  0
 15 23  1  0  0  0  0
 15 27  2  0  0  0  0
 16 25  2  0  0  0  0
 16 31  1  0  0  0  0
 17 29  2  0  0  0  0
 17 30  1  0  0  0  0
 18 32  1  0  0  0  0
 19 32  1  0  0  0  0
 19 33  2  0  0  0  0
 19 34  1  0  0  0  0
 20 22  2  0  0  0  0
 20 39  1  0  0  0  0
 21 23  2  0  0  0  0
 21 40  1  0  0  0  0
 22 51  1  0  0  0  0
 23 41  1  0  0  0  0
 24 31  2  0  0  0  0
 24 61  1  0  0  0  0
 25 74  1  0  0  0  0
 26 82  1  0  0  0  0
 27 83  1  0  0  0  0
 28 30  2  0  0  0  0
 28 82  1  0  0  0  0
 29 84  1  0  0  0  0
 30 85  1  0  0  0  0
 31 86  1  0  0  0  0
 32 66  2  0  0  0  0
 33 67  1  0  0  0  0
 33 70  1  0  0  0  0
 34 71  1  0  0  0  0
 34 77  2  0  0  0  0
 35 52  1  0  0  0  0
 35 72  1  0  0  0  0
 35 78  2  0  0  0  0
 36 63  1  0  0  0  0
 36 68  1  0  0  0  0
 36 79  2  0  0  0  0
 37 64  1  0  0  0  0
 37 73  1  0  0  0  0
 37 80  2  0  0  0  0
 38 69  1  0  0  0  0
 38 74  1  0  0  0  0
 38 81  2  0  0  0  0
 39 42  1  0  0  0  0
 40 52  1  0  0  0  0
 41 68  1  0  0  0  0
 42 45  1  0  0  0  0
 43 46  1  0  0  0  0
 43 48  1  0  0  0  0
 44 47  1  0  0  0  0
 44 50  1  0  0  0  0
 45 51  1  0  0  0  0
 46 53  1  0  0  0  0
 47 54  1  0  0  0  0
 48 69  1  0  0  0  0
 49 53  1  0  0  0  0
 49 69  1  0  0  0  0
 50 75  1  0  0  0  0
 51 72  1  0  0  0  0
 52 68  1  0  0  0  0
 53 67  1  0  0  0  0
 54 62  1  0  0  0  0
 54 75  1  0  0  0  0
 55 64  1  0  0  0  0
 56 65  1  0  0  0  0
 57 65  1  0  0  0  0
 58 65  1  0  0  0  0
 59 74  1  0  0  0  0
 60 76  1  0  0  0  0
 61 75  1  0  0  0  0
 62 83  1  0  0  0  0
 63 65  1  0  0  0  0
 63 73  1  0  0  0  0
 64 76  1  0  0  0  0
 66 67  1  0  0  0  0
M  CHG  2  75   1  76   1
M  ISO  4  38 100  62 101  74 100  83 101
M  END
> <Batch ID>
0019

> <Smiles>
CNC(C)C(=O)NC(C(=O)N1Cc2cc([101O:1][101CH2:1]C3CCCN3Cc3ccc([100N:0](C)[100C:0](=O)N4CCCC(n5nc(-c6ccc(Oc7ccc(F)cc7F)cc6)c(C(N)=O)c5N)C4)cc3Cl)ccc2CC1C(=O)NC1CCCc2ccccc21)C(C)(C)C

> <Shape>
0.192

> <Color>
0.052

> <Negative vol penalty>
0.000

$$$$

  -OEChem-04042321053D

 88 96  0     1  0  0  0  0  0999 V2000
  -31.2935  -31.4270   16.8012 C   0  0  0  0  0  0  0  0  0  0  0  0
  -31.8885  -30.2241   16.4348 C   0  0  0  0  0  0  0  0  0  0  0  0
  -23.8214   -9.7572   21.7578 C   0  0  0  0  0  0  0  0  0  0  0  0
  -24.5504  -11.0056   23.6936 C   0  0  0  0  0  0  0  0  0  0  0  0
  -30.5814  -31.5155   17.9967 C   0  0  0  0  0  0  0  0  0  0  0  0
  -31.7727  -29.1091   17.2641 C   0  0  0  0  0  0  0  0  0  0  0  0
  -28.7941  -23.0018   14.8726 C   0  0  0  0  0  0  0  0  0  0  0  0
  -23.3459   -8.7441   22.5902 C   0  0  0  0  0  0  0  0  0  0  0  0
  -24.0748   -9.9925   24.5260 C   0  0  0  0  0  0  0  0  0  0  0  0
  -28.4287  -21.7317   14.4258 C   0  0  0  0  0  0  0  0  0  0  0  0
  -20.6355   -8.1826   24.5322 C   0  0  0  0  0  0  0  0  0  0  0  0
  -19.3725   -7.6578   24.2582 C   0  0  0  0  0  0  0  0  0  0  0  0
  -28.7260  -20.8495   16.6577 C   0  0  0  0  0  0  0  0  0  0  0  0
  -27.6761  -14.4741   15.2079 C   0  0  0  0  0  0  0  0  0  0  0  0
  -27.0491  -11.7571   15.2939 C   0  0  0  0  0  0  0  0  0  0  0  0
  -20.3490   -5.4699   23.9477 C   0  0  0  0  0  0  0  0  0  0  0  0
  -24.4238  -10.8880   22.3095 C   0  0  0  0  0  0  0  0  0  0  0  0
  -24.2070  -13.0610   20.9908 C   0  0  0  0  0  0  0  0  0  0  0  0
  -30.4487  -30.3984   18.8364 C   0  0  0  0  0  0  0  0  0  0  0  0
  -29.1123  -23.2039   16.2184 C   0  0  0  0  0  0  0  0  0  0  0  0
  -31.0594  -29.1831   18.4726 C   0  0  0  0  0  0  0  0  0  0  0  0
  -29.0806  -22.1220   17.1135 C   0  0  0  0  0  0  0  0  0  0  0  0
  -26.4567  -14.0234   14.7023 C   0  0  0  0  0  0  0  0  0  0  0  0
  -28.2686  -12.2078   15.7994 C   0  0  0  0  0  0  0  0  0  0  0  0
  -23.4725   -8.8617   23.9743 C   0  0  0  0  0  0  0  0  0  0  0  0
  -28.3950  -20.6582   15.3162 C   0  0  0  0  0  0  0  0  0  0  0  0
  -21.7553   -7.3511   24.5139 C   0  0  0  0  0  0  0  0  0  0  0  0
  -19.2293   -6.3015   23.9659 C   0  0  0  0  0  0  0  0  0  0  0  0
  -28.5821  -13.5663   15.7564 C   0  0  0  0  0  0  0  0  0  0  0  0
  -26.1432  -12.6650   14.7454 C   0  0  0  0  0  0  0  0  0  0  0  0
  -21.6120   -5.9947   24.2217 C   0  0  0  0  0  0  0  0  0  0  0  0
  -24.9158  -11.9346   21.4500 C   0  0  0  0  0  0  0  0  0  0  0  0
  -25.1111  -13.7416   20.2124 C   0  0  0  0  0  0  0  0  0  0  0  0
  -22.8526  -13.4566   21.2451 C   0  0  0  0  0  0  0  0  0  0  0  0
  -30.1495  -25.6262   18.8891 C   0  0  0  0  0  0  0  0  0  0  0  0
  -28.0515  -23.7684   20.1372 C   0  0  0  0  0  0  0  0  0  0  0  0
  -27.1310  -20.6338   21.1191 C   0  0  0  0  0  0  0  0  0  0  0  0
  -30.1054  -11.5985   17.3950 C   0  0  0  0  0  0  0  0  0  0  0  0
  -29.7093  -30.5552   20.1416 C   0  0  0  0  0  0  0  0  0  0  0  0
  -29.5708  -24.5420   16.7313 C   0  0  0  0  0  0  0  0  0  0  0  0
  -29.4644  -22.3792   18.5451 C   0  0  0  0  0  0  0  0  0  0  0  0
  -29.3170  -29.2266   20.7828 C   0  0  0  0  0  0  0  0  0  0  0  0
  -29.7995  -14.4997   19.6716 C   0  0  0  0  0  0  0  0  0  0  0  0
  -30.4957  -28.2584   20.7689 C   0  0  0  0  0  0  0  0  0  0  0  0
  -28.4901  -14.2180   20.4060 C   0  0  0  0  0  0  0  0  0  0  0  0
  -30.4895  -13.2125   19.2301 C   0  0  0  0  0  0  0  0  0  0  0  0
  -28.3072  -12.0420   19.1360 C   0  0  0  0  0  0  0  0  0  0  0  0
  -30.9351  -27.9448   19.3336 C   0  0  1  0  0  0  0  0  0  0  0  0
  -29.1011  -24.8308   18.1683 C   0  0  1  0  0  0  0  0  0  0  0  0
  -27.5726  -13.3240   19.5556 C   0  0  1  0  0  0  0  0  0  0  0  0
  -21.6468  -13.8157   16.0995 C   0  0  0  0  0  0  0  0  0  0  0  0
  -25.8271  -18.8600   22.3236 C   0  0  0  0  0  0  0  0  0  0  0  0
  -29.9609  -24.4298   22.4221 C   0  0  0  0  0  0  0  0  0  0  0  0
  -28.9849  -22.5101   23.6990 C   0  0  0  0  0  0  0  0  0  0  0  0
  -27.5401  -24.4372   23.0497 C   0  0  0  0  0  0  0  0  0  0  0  0
  -29.4012   -9.9961   15.6722 C   0  0  0  0  0  0  0  0  0  0  0  0
  -25.1142  -20.4854   18.9582 C   0  0  0  0  0  0  0  0  0  0  0  0
  -25.4843  -15.0027   14.1138 C   0  0  0  0  0  0  0  0  0  0  0  0
  -22.5981  -14.6508   15.2579 C   0  0  0  0  0  0  0  0  0  0  0  0
  -26.4541  -17.6256   15.0568 C   0  0  0  0  0  0  0  0  0  0  0  0
  -23.8792  -14.9575   16.0170 C   0  0  0  0  0  0  0  0  0  0  0  0
  -25.6902  -16.6655   15.9562 C   0  0  0  0  0  0  0  0  0  0  0  0
  -27.3905  -18.5602   15.8128 C   0  0  0  0  0  0  0  0  0  1  0  0
  -28.3097  -22.8113   21.2732 C   0  0  1  0  0  0  0  0  0  0  0  0
  -25.7658  -20.0013   21.3203 C   0  0  2  0  0  0  0  0  0  0  0  0
  -28.7103  -23.5430   22.5852 C   0  0  0  0  0  0  0  0  0  0  0  0
  -26.1730  -11.8981   21.0007 N   0  0  0  0  0  0  0  0  0  0  0  0
  -26.2615  -13.0099   20.2510 N   0  0  0  0  0  0  0  0  0  0  0  0
  -28.8672  -23.6424   19.0061 N   0  0  0  0  0  0  0  0  0  0  0  0
  -29.5862  -12.3445   18.4730 N   0  0  0  0  0  0  0  0  0  0  0  0
  -25.0263  -14.8886   19.5056 N   0  0  0  0  0  0  0  0  0  0  0  0
  -22.0618  -12.6423   22.0672 N   0  0  0  0  0  0  0  0  0  0  0  0
  -30.0308  -26.9930   18.7247 N   0  0  0  0  0  0  0  0  0  0  0  0
  -27.1128  -21.9854   21.3912 N   0  0  0  0  0  0  0  0  0  0  0  0
  -29.2033  -11.2667   16.3663 N   0  0  0  0  0  0  0  0  0  0  0  0
  -25.2479  -19.4653   20.0298 N   0  3  0  0  0  0  0  0  0  0  0  0
  -24.7675  -15.8248   15.1578 N   0  3  1  0  0  0  0  0  0  0  0  0
  -22.3533  -14.4928   20.7446 O   0  0  0  0  0  0  0  0  0  0  0  0
  -31.0032  -25.0438   19.5478 O   0  0  0  0  0  0  0  0  0  0  0  0
  -27.1554  -24.6097   20.2491 O   0  0  0  0  0  0  0  0  0  0  0  0
  -28.1160  -19.9922   20.7602 O   0  0  0  0  0  0  0  0  0  0  0  0
  -31.2786  -11.2063   17.3756 O   0  0  0  0  0  0  0  0  0  0  0  0
  -23.0084   -7.8734   24.7870 O   0  0  0  0  0  0  0  0  0  0  0  0
  -28.0331  -19.4219   14.8743 O   0  0  0  0  0  0  0  0  0  1  0  0
  -18.0162   -5.7974   23.7043 F   0  0  0  0  0  0  0  0  0  0  0  0
  -29.7513  -14.0106   16.2393 F   0  0  0  0  0  0  0  0  0  0  0  0
  -24.9741  -12.2226   14.2620 F   0  0  0  0  0  0  0  0  0  0  0  0
  -22.6839   -5.1906   24.2038 F   0  0  0  0  0  0  0  0  0  0  0  0
  1  2  1  0  0  0  0
  1  5  2  0  0  0  0
  2  6  2  0  0  0  0
  3  8  2  0  0  0  0
  3 17  1  0  0  0  0
  4  9  1  0  0  0  0
  4 17  2  0  0  0  0
  5 19  1  0  0  0  0
  6 21  1  0  0  0  0
  7 10  2  0  0  0  0
  7 20  1  0  0  0  0
  8 25  1  0  0  0  0
  9 25  2  0  0  0  0
 10 26  1  0  0  0  0
 11 12  2  0  0  0  0
 11 27  1  0  0  0  0
 12 28  1  0  0  0  0
 13 22  1  0  0  0  0
 13 26  2  0  0  0  0
 14 23  1  0  0  0  0
 14 29  2  0  0  0  0
 15 24  2  0  0  0  0
 15 30  1  0  0  0  0
 16 28  2  0  0  0  0
 16 31  1  0  0  0  0
 17 32  1  0  0  0  0
 18 32  1  0  0  0  0
 18 33  2  0  0  0  0
 18 34  1  0  0  0  0
 19 21  2  0  0  0  0
 19 39  1  0  0  0  0
 20 22  2  0  0  0  0
 20 40  1  0  0  0  0
 21 48  1  0  0  0  0
 22 41  1  0  0  0  0
 23 30  2  0  0  0  0
 23 58  1  0  0  0  0
 24 29  1  0  0  0  0
 24 75  1  0  0  0  0
 25 83  1  0  0  0  0
 26 84  1  0  0  0  0
 27 31  2  0  0  0  0
 27 83  1  0  0  0  0
 28 85  1  0  0  0  0
 29 86  1  0  0  0  0
 30 87  1  0  0  0  0
 31 88  1  0  0  0  0
 32 67  2  0  0  0  0
 33 68  1  0  0  0  0
 33 71  1  0  0  0  0
 34 72  1  0  0  0  0
 34 78  2  0  0  0  0
 35 49  1  0  0  0  0
 35 73  1  0  0  0  0
 35 79  2  0  0  0  0
 36 64  1  0  0  0  0
 36 69  1  0  0  0  0
 36 80  2  0  0  0  0
 37 65  1  0  0  0  0
 37 74  1  0  0  0  0
 37 81  2  0  0  0  0
 38 70  1  0  0  0  0
 38 75  1  0  0  0  0
 38 82  2  0  0  0  0
 39 42  1  0  0  0  0
 40 49  1  0  0  0  0
 41 69  1  0  0  0  0
 42 44  1  0  0  0  0
 43 45  1  0  0  0  0
 43 46  1  0  0  0  0
 44 48  1  0  0  0  0
 45 50  1  0  0  0  0
 46 70  1  0  0  0  0
 47 50  1  0  0  0  0
 47 70  1  0  0  0  0
 48 73  1  0  0  0  0
 49 69  1  0  0  0  0
 50 68  1  0  0  0  0
 51 59  1  0  0  0  0
 52 65  1  0  0  0  0
 53 66  1  0  0  0  0
 54 66  1  0  0  0  0
 55 66  1  0  0  0  0
 56 75  1  0  0  0  0
 57 76  1  0  0  0  0
 58 77  1  0  0  0  0
 59 61  1  0  0  0  0
 60 62  1  0  0  0  0
 60 63  1  0  0  0  0
 61 77  1  0  0  0  0
 62 77  1  0  0  0  0
 63 84  1  0  0  0  0
 64 66  1  0  0  0  0
 64 74  1  0  0  0  0
 65 76  1  0  0  0  0
 67 68  1  0  0  0  0
M  CHG  2  76   1  77   1
M  ISO  4  38 100  63 101  75 100  84 101
M  END
> <Batch ID>
0019

> <Smiles>
CCCN(CC[101CH2:1][101O:1]c1ccc2c(c1)CN(C(=O)C(NC(=O)C(C)NC)C(C)(C)C)C(C(=O)NC1CCCc3ccccc31)C2)Cc1cc(F)c([100N:0](C)[100C:0](=O)N2CCCC(n3nc(-c4ccc(Oc5ccc(F)cc5F)cc4)c(C(N)=O)c3N)C2)cc1F

> <Shape>
0.195

> <Color>
0.123

> <Negative vol penalty>
0.000

$$$$

  -OEChem-04042321053D

 85 93  0     1  0  0  0  0  0999 V2000
  -34.1083  -31.6303   17.6705 C   0  0  0  0  0  0  0  0  0  0  0  0
  -34.0274  -30.2697   17.9492 C   0  0  0  0  0  0  0  0  0  0  0  0
  -23.1790   -9.8002   19.8810 C   0  0  0  0  0  0  0  0  0  0  0  0
  -23.5904   -9.8630   22.2608 C   0  0  0  0  0  0  0  0  0  0  0  0
  -33.0023  -32.4517   17.8853 C   0  0  0  0  0  0  0  0  0  0  0  0
  -32.8407  -29.7299   18.4439 C   0  0  0  0  0  0  0  0  0  0  0  0
  -30.5522  -24.1725   17.2672 C   0  0  0  0  0  0  0  0  0  0  0  0
  -30.5565  -15.6363   21.9145 C   0  0  0  0  0  0  0  0  0  0  0  0
  -31.0282  -16.9475   21.8528 C   0  0  0  0  0  0  0  0  0  0  0  0
  -22.4194   -8.6416   20.0428 C   0  0  0  0  0  0  0  0  0  0  0  0
  -22.8308   -8.7044   22.4227 C   0  0  0  0  0  0  0  0  0  0  0  0
  -30.5867  -22.9740   17.9786 C   0  0  0  0  0  0  0  0  0  0  0  0
  -23.2388   -5.3767   21.9861 C   0  0  0  0  0  0  0  0  0  0  0  0
  -23.7527   -4.3746   22.8092 C   0  0  0  0  0  0  0  0  0  0  0  0
  -28.4172  -23.4708   18.9090 C   0  0  0  0  0  0  0  0  0  0  0  0
  -31.1884  -17.0032   24.2629 C   0  0  0  0  0  0  0  0  0  0  0  0
  -21.8153   -4.5571   24.2410 C   0  0  0  0  0  0  0  0  0  0  0  0
  -23.7645  -10.4109   20.9900 C   0  0  0  0  0  0  0  0  0  0  0  0
  -24.0917  -12.9379   20.8676 C   0  0  0  0  0  0  0  0  0  0  0  0
  -31.7985  -31.9200   18.3738 C   0  0  0  0  0  0  0  0  0  0  0  0
  -29.4529  -25.0358   17.3800 C   0  0  0  0  0  0  0  0  0  0  0  0
  -31.7180  -30.5452   18.6667 C   0  0  0  0  0  0  0  0  0  0  0  0
  -28.3700  -24.6784   18.1960 C   0  0  0  0  0  0  0  0  0  0  0  0
  -30.4007  -15.0085   23.1503 C   0  0  0  0  0  0  0  0  0  0  0  0
  -31.3442  -17.6309   23.0270 C   0  0  0  0  0  0  0  0  0  0  0  0
  -22.2453   -8.0937   21.3137 C   0  0  0  0  0  0  0  0  0  0  0  0
  -29.5204  -22.6243   18.8019 C   0  0  0  0  0  0  0  0  0  0  0  0
  -22.0132   -5.9690   22.2906 C   0  0  0  0  0  0  0  0  0  0  0  0
  -23.0409   -3.9648   23.9366 C   0  0  0  0  0  0  0  0  0  0  0  0
  -30.7167  -15.6919   24.3245 C   0  0  0  0  0  0  0  0  0  0  0  0
  -21.3014   -5.5592   23.4180 C   0  0  0  0  0  0  0  0  0  0  0  0
  -24.5498  -11.6075   20.8233 C   0  0  0  0  0  0  0  0  0  0  0  0
  -25.2170  -13.6958   20.6539 C   0  0  0  0  0  0  0  0  0  0  0  0
  -22.7674  -13.4435   21.0827 C   0  0  0  0  0  0  0  0  0  0  0  0
  -29.0370  -28.0161   18.4038 C   0  0  0  0  0  0  0  0  0  0  0  0
  -26.0212  -27.5606   17.2992 C   0  0  0  0  0  0  0  0  0  0  0  0
  -23.5293  -25.3711   16.4974 C   0  0  0  0  0  0  0  0  0  0  0  0
  -31.0783  -12.1383   21.5247 C   0  0  0  0  0  0  0  0  0  0  0  0
  -30.6446  -32.8555   18.6347 C   0  0  0  0  0  0  0  0  0  0  0  0
  -29.4191  -26.3123   16.5852 C   0  0  0  0  0  0  0  0  0  0  0  0
  -27.1574  -25.5607   18.3359 C   0  0  0  0  0  0  0  0  0  0  0  0
  -29.3073  -32.1400   18.8069 C   0  0  0  0  0  0  0  0  0  0  0  0
  -29.4826  -13.5632   18.5039 C   0  0  0  0  0  0  0  0  0  0  0  0
  -29.4565  -30.9486   19.7478 C   0  0  0  0  0  0  0  0  0  0  0  0
  -28.0023  -13.2663   18.7377 C   0  0  0  0  0  0  0  0  0  0  0  0
  -30.3817  -12.5400   19.1913 C   0  0  0  0  0  0  0  0  0  0  0  0
  -28.6338  -12.0876   20.8807 C   0  0  0  0  0  0  0  0  0  0  0  0
  -30.4404  -29.9180   19.1811 C   0  0  1  0  0  0  0  0  0  0  0  0
  -28.4774  -27.3581   17.1743 C   0  0  1  0  0  0  0  0  0  0  0  0
  -27.7014  -13.1268   20.2401 C   0  0  2  0  0  0  0  0  0  0  0  0
  -21.1660  -25.2983   15.6565 C   0  0  0  0  0  0  0  0  0  0  0  0
  -25.0182  -28.4160   20.0509 C   0  0  0  0  0  0  0  0  0  0  0  0
  -22.7915  -27.4305   19.4687 C   0  0  0  0  0  0  0  0  0  0  0  0
  -23.7016  -29.3289   18.1305 C   0  0  0  0  0  0  0  0  0  0  0  0
  -32.1502  -19.6659   24.1972 C   0  0  0  0  0  0  0  0  0  0  0  0
  -31.9631  -12.4003   23.8112 C   0  0  0  0  0  0  0  0  0  0  0  0
  -24.3100  -23.8345   14.0916 C   0  0  0  0  0  0  0  0  0  0  0  0
  -29.8960  -13.6064   23.2127 C   0  0  0  0  0  0  0  0  0  0  0  0
  -30.6877  -20.2039   21.2017 C   0  0  0  0  0  0  0  0  0  0  0  0
  -32.0047  -19.6231   21.7021 C   0  0  0  0  0  0  0  0  0  0  0  0
  -30.8341  -20.9677   19.8909 C   0  0  0  0  0  0  0  0  0  1  0  0
  -24.7350  -27.0341   17.8885 C   0  0  1  0  0  0  0  0  0  0  0  0
  -22.6374  -25.2642   15.2736 C   0  0  2  0  0  0  0  0  0  0  0  0
  -24.0851  -28.0365   18.8837 C   0  0  0  0  0  0  0  0  0  0  0  0
  -25.8636  -11.5217   20.5990 N   0  0  0  0  0  0  0  0  0  0  0  0
  -26.2408  -12.8078   20.5002 N   0  0  0  0  0  0  0  0  0  0  0  0
  -27.1744  -26.8014   17.5435 N   0  0  0  0  0  0  0  0  0  0  0  0
  -30.0456  -12.3958   20.6081 N   0  0  0  0  0  0  0  0  0  0  0  0
  -25.4208  -15.0285   20.5842 N   0  0  0  0  0  0  0  0  0  0  0  0
  -21.7270  -12.5266   21.2860 N   0  0  0  0  0  0  0  0  0  0  0  0
  -29.8077  -29.1330   18.1428 N   0  0  0  0  0  0  0  0  0  0  0  0
  -23.8840  -26.6777   16.7583 N   0  0  0  0  0  0  0  0  0  0  0  0
  -31.8187  -18.9490   22.9644 N   0  0  3  0  0  0  0  0  0  0  0  0
  -30.9145  -12.6318   22.8279 N   0  0  0  0  0  0  0  0  0  0  0  0
  -22.9048  -23.9904   14.5476 N   0  3  0  0  0  0  0  0  0  0  0  0
  -22.5113  -14.6714   21.0780 O   0  0  0  0  0  0  0  0  0  0  0  0
  -28.7867  -27.5463   19.5075 O   0  0  0  0  0  0  0  0  0  0  0  0
  -26.0023  -28.6032   16.6401 O   0  0  0  0  0  0  0  0  0  0  0  0
  -23.8735  -24.3936   17.1582 O   0  0  0  0  0  0  0  0  0  0  0  0
  -32.0933  -11.5117   21.1943 O   0  0  0  0  0  0  0  0  0  0  0  0
  -21.5040   -6.9632   21.4721 O   0  0  0  0  0  0  0  0  0  0  0  0
  -29.5519  -21.4554   19.4979 O   0  0  0  0  0  0  0  0  0  1  0  0
  -23.5338   -3.0014   24.7260 F   0  0  0  0  0  0  0  0  0  0  0  0
  -30.5691  -15.0974   25.5168 F   0  0  0  0  0  0  0  0  0  0  0  0
  -20.1229   -6.1237   23.7149 F   0  0  0  0  0  0  0  0  0  0  0  0
  1  2  1  0  0  0  0
  1  5  2  0  0  0  0
  2  6  2  0  0  0  0
  3 10  2  0  0  0  0
  3 18  1  0  0  0  0
  4 11  1  0  0  0  0
  4 18  2  0  0  0  0
  5 20  1  0  0  0  0
  6 22  1  0  0  0  0
  7 12  2  0  0  0  0
  7 21  1  0  0  0  0
  8  9  2  0  0  0  0
  8 24  1  0  0  0  0
  9 25  1  0  0  0  0
 10 26  1  0  0  0  0
 11 26  2  0  0  0  0
 12 27  1  0  0  0  0
 13 14  2  0  0  0  0
 13 28  1  0  0  0  0
 14 29  1  0  0  0  0
 15 23  1  0  0  0  0
 15 27  2  0  0  0  0
 16 25  2  0  0  0  0
 16 30  1  0  0  0  0
 17 29  2  0  0  0  0
 17 31  1  0  0  0  0
 18 32  1  0  0  0  0
 19 32  1  0  0  0  0
 19 33  2  0  0  0  0
 19 34  1  0  0  0  0
 20 22  2  0  0  0  0
 20 39  1  0  0  0  0
 21 23  2  0  0  0  0
 21 40  1  0  0  0  0
 22 48  1  0  0  0  0
 23 41  1  0  0  0  0
 24 30  2  0  0  0  0
 24 58  1  0  0  0  0
 25 73  1  0  0  0  0
 26 81  1  0  0  0  0
 27 82  1  0  0  0  0
 28 31  2  0  0  0  0
 28 81  1  0  0  0  0
 29 83  1  0  0  0  0
 30 84  1  0  0  0  0
 31 85  1  0  0  0  0
 32 65  2  0  0  0  0
 33 66  1  0  0  0  0
 33 69  1  0  0  0  0
 34 70  1  0  0  0  0
 34 76  2  0  0  0  0
 35 49  1  0  0  0  0
 35 71  1  0  0  0  0
 35 77  2  0  0  0  0
 36 62  1  0  0  0  0
 36 67  1  0  0  0  0
 36 78  2  0  0  0  0
 37 63  1  0  0  0  0
 37 72  1  0  0  0  0
 37 79  2  0  0  0  0
 38 68  1  0  0  0  0
 38 74  1  0  0  0  0
 38 80  2  0  0  0  0
 39 42  1  0  0  0  0
 40 49  1  0  0  0  0
 41 67  1  0  0  0  0
 42 44  1  0  0  0  0
 43 45  1  0  0  0  0
 43 46  1  0  0  0  0
 44 48  1  0  0  0  0
 45 50  1  0  0  0  0
 46 68  1  0  0  0  0
 47 50  1  0  0  0  0
 47 68  1  0  0  0  0
 48 71  1  0  0  0  0
 49 67  1  0  0  0  0
 50 66  1  0  0  0  0
 51 63  1  0  0  0  0
 52 64  1  0  0  0  0
 53 64  1  0  0  0  0
 54 64  1  0  0  0  0
 55 73  1  0  0  0  0
 56 74  1  0  0  0  0
 57 75  1  0  0  0  0
 58 74  1  0  0  0  0
 59 60  1  0  0  0  0
 59 61  1  0  0  0  0
 60 73  1  0  0  0  0
 61 82  1  0  0  0  0
 62 64  1  0  0  0  0
 62 72  1  0  0  0  0
 63 75  1  0  0  0  0
 65 66  1  0  0  0  0
M  CHG  1  75   1
M  ISO  4  38 100  61 101  74 100  82 101
M  END
> <Batch ID>
0019

> <Smiles>
CNC(C)C(=O)NC(C(=O)N1Cc2cc([101O:1][101CH2:1]CCN(C)c3ccc(C[100N:0](C)[100C:0](=O)N4CCCC(n5nc(-c6ccc(Oc7ccc(F)cc7F)cc6)c(C(N)=O)c5N)C4)c(F)c3)ccc2CC1C(=O)NC1CCCc2ccccc21)C(C)(C)C

> <Shape>
0.238

> <Color>
0.207

> <Negative vol penalty>
0.000

$$$$

  -OEChem-04042321053D

 91 99  0     1  0  0  0  0  0999 V2000
  -30.7756  -23.0743   14.9611 C   0  0  0  0  0  0  0  0  0  0  0  0
  -31.0160  -23.0510   16.3311 C   0  0  0  0  0  0  0  0  0  0  0  0
  -23.9237   -9.5336   21.3385 C   0  0  0  0  0  0  0  0  0  0  0  0
  -24.4972  -10.5236   23.4664 C   0  0  0  0  0  0  0  0  0  0  0  0
  -30.1787  -24.1914   14.3781 C   0  0  0  0  0  0  0  0  0  0  0  0
  -30.6607  -24.1453   17.1189 C   0  0  0  0  0  0  0  0  0  0  0  0
  -28.3461  -22.7795   21.4110 C   0  0  0  0  0  0  0  0  0  0  0  0
  -32.3664  -17.7932   22.8037 C   0  0  0  0  0  0  0  0  0  0  0  0
  -31.9527  -16.6500   22.1201 C   0  0  0  0  0  0  0  0  0  0  0  0
  -23.4562   -8.3948   21.9944 C   0  0  0  0  0  0  0  0  0  0  0  0
  -24.0296   -9.3848   24.1223 C   0  0  0  0  0  0  0  0  0  0  0  0
  -29.1514  -22.3053   22.4456 C   0  0  0  0  0  0  0  0  0  0  0  0
  -20.6832   -7.4569   23.6867 C   0  0  0  0  0  0  0  0  0  0  0  0
  -19.4614   -6.9264   23.2730 C   0  0  0  0  0  0  0  0  0  0  0  0
  -29.0451  -24.4670   23.5109 C   0  0  0  0  0  0  0  0  0  0  0  0
  -31.1691  -17.0524   24.7671 C   0  0  0  0  0  0  0  0  0  0  0  0
  -20.5540   -4.8449   22.7155 C   0  0  0  0  0  0  0  0  0  0  0  0
  -24.4443  -10.5980   22.0746 C   0  0  0  0  0  0  0  0  0  0  0  0
  -24.1904  -12.9253   21.0612 C   0  0  0  0  0  0  0  0  0  0  0  0
  -29.8071  -25.2960   15.1607 C   0  0  0  0  0  0  0  0  0  0  0  0
  -27.8925  -24.1064   21.4130 C   0  0  0  0  0  0  0  0  0  0  0  0
  -30.0596  -25.2788   16.5457 C   0  0  0  0  0  0  0  0  0  0  0  0
  -28.2321  -24.9548   22.4765 C   0  0  0  0  0  0  0  0  0  0  0  0
  -31.9747  -17.9944   24.1273 C   0  0  0  0  0  0  0  0  0  0  0  0
  -30.7554  -15.9092   24.0834 C   0  0  0  0  0  0  0  0  0  0  0  0
  -31.1472  -15.7080   22.7599 C   0  0  0  0  0  0  0  0  0  0  0  0
  -23.5091   -8.3204   23.3862 C   0  0  0  0  0  0  0  0  0  0  0  0
  -29.5034  -23.1499   23.4943 C   0  0  0  0  0  0  0  0  0  0  0  0
  -21.8405   -6.6815   23.6147 C   0  0  0  0  0  0  0  0  0  0  0  0
  -19.3967   -5.6204   22.7874 C   0  0  0  0  0  0  0  0  0  0  0  0
  -21.7758   -5.3755   23.1291 C   0  0  0  0  0  0  0  0  0  0  0  0
  -24.9280  -11.7744   21.3976 C   0  0  0  0  0  0  0  0  0  0  0  0
  -25.0984  -13.7445   20.4362 C   0  0  0  0  0  0  0  0  0  0  0  0
  -22.8079  -13.2268   21.2929 C   0  0  0  0  0  0  0  0  0  0  0  0
  -28.2809  -26.6127   19.4970 C   0  0  0  0  0  0  0  0  0  0  0  0
  -26.1060  -27.9744   21.4814 C   0  0  0  0  0  0  0  0  0  0  0  0
  -24.6328  -28.0379   24.5591 C   0  0  0  0  0  0  0  0  0  0  0  0
  -31.0477  -14.2185   20.7306 C   0  0  0  0  0  0  0  0  0  0  0  0
  -29.2078  -26.5002   14.4784 C   0  0  0  0  0  0  0  0  0  0  0  0
  -27.0025  -24.5948   20.3032 C   0  0  0  0  0  0  0  0  0  0  0  0
  -27.7544  -26.3820   22.5361 C   0  0  0  0  0  0  0  0  0  0  0  0
  -28.5199  -27.4656   15.4403 C   0  0  0  0  0  0  0  0  0  0  0  0
  -29.1037  -13.5841   17.8159 C   0  0  0  0  0  0  0  0  0  0  0  0
  -29.4037  -27.7290   16.6553 C   0  0  0  0  0  0  0  0  0  0  0  0
  -27.7433  -13.1586   18.3729 C   0  0  0  0  0  0  0  0  0  0  0  0
  -30.2556  -13.0671   18.6759 C   0  0  0  0  0  0  0  0  0  0  0  0
  -28.7999  -12.9703   20.6610 C   0  0  0  0  0  0  0  0  0  0  0  0
  -29.6658  -26.4364   17.4374 C   0  0  1  0  0  0  0  0  0  0  0  0
  -27.0216  -26.1122   20.1459 C   0  0  1  0  0  0  0  0  0  0  0  0
  -27.6064  -13.5223   19.8644 C   0  0  2  0  0  0  0  0  0  0  0  0
  -29.8903  -14.9183   24.7927 C   0  0  0  0  0  0  0  0  0  0  0  0
  -22.9157  -29.2879   25.8957 C   0  0  0  0  0  0  0  0  0  0  0  0
  -28.0793  -30.2698   21.8653 C   0  0  0  0  0  0  0  0  0  0  0  0
  -26.7645  -30.9713   23.8772 C   0  0  0  0  0  0  0  0  0  0  0  0
  -25.6921  -30.9755   21.6249 C   0  0  0  0  0  0  0  0  0  0  0  0
  -35.4075  -22.6780   25.6221 C   0  0  0  0  0  0  0  0  0  0  0  0
  -22.9655  -25.6164   24.8987 C   0  0  0  0  0  0  0  0  0  0  0  0
  -34.9674  -19.9040   21.4915 C   0  0  0  0  0  0  0  0  0  0  0  0
  -33.4736  -19.3113   23.3935 C   0  0  0  0  0  0  0  0  0  0  0  0
  -34.1549  -17.9378   26.0967 C   0  0  0  0  0  0  0  0  0  0  0  0
  -32.4178  -19.2254   24.8618 C   0  0  0  0  0  0  0  0  0  0  0  0
  -32.3972  -22.9481   25.6721 C   0  0  0  0  0  0  0  0  0  0  0  0
  -33.1896  -22.2745   24.5411 C   0  0  0  0  0  0  0  0  0  0  0  0
  -35.2302  -21.0519   23.6858 C   0  0  0  0  0  0  0  0  0  0  0  0
  -34.3082  -20.4196   25.9576 C   0  0  0  0  0  0  0  0  0  0  0  0
  -31.1367  -23.6346   25.1536 C   0  0  0  0  0  0  0  0  0  1  0  0
  -26.1783  -28.7704   22.7621 C   0  0  1  0  0  0  0  0  0  0  0  0
  -23.1749  -28.1042   24.9768 C   0  0  2  0  0  0  0  0  0  0  0  0
  -26.6893  -30.2204   22.5306 C   0  0  0  0  0  0  0  0  0  0  0  0
  -34.5283  -21.5873   24.9635 C   0  0  1  0  0  0  0  0  0  0  0  0
  -26.2061  -11.8518   21.0177 N   0  0  0  0  0  0  0  0  0  0  0  0
  -26.2787  -13.0611   20.4360 N   0  0  0  0  0  0  0  0  0  0  0  0
  -26.8917  -26.8146   21.4242 N   0  0  0  0  0  0  0  0  0  0  0  0
  -30.0602  -13.4531   20.0750 N   0  0  0  0  0  0  0  0  0  0  0  0
  -24.9945  -14.9757   19.8922 N   0  0  0  0  0  0  0  0  0  0  0  0
  -22.0170  -12.2736   21.9488 N   0  0  0  0  0  0  0  0  0  0  0  0
  -30.7374  -14.5532   22.0483 N   0  0  0  0  0  0  0  0  0  0  0  0
  -28.5127  -26.0884   18.2397 N   0  0  0  0  0  0  0  0  0  0  0  0
  -24.8525  -28.6933   23.3660 N   0  0  0  0  0  0  0  0  0  0  0  0
  -22.7846  -26.8578   25.6945 N   0  3  0  0  0  0  0  0  0  0  0  0
  -34.2858  -20.4027   22.7415 N   0  3  0  0  0  0  0  0  0  0  0  0
  -33.8661  -19.1741   25.2815 N   0  3  1  0  0  0  0  0  0  0  0  0
  -22.2855  -14.3026   20.9146 O   0  0  0  0  0  0  0  0  0  0  0  0
  -28.9892  -27.4163   20.0923 O   0  0  0  0  0  0  0  0  0  0  0  0
  -25.3737  -28.3634   20.5681 O   0  0  0  0  0  0  0  0  0  0  0  0
  -25.4916  -27.4655   25.2265 O   0  0  0  0  0  0  0  0  0  0  0  0
  -32.0795  -14.5755   20.1562 O   0  0  0  0  0  0  0  0  0  0  0  0
  -23.0527   -7.2094   24.0266 O   0  0  0  0  0  0  0  0  0  0  0  0
  -30.2958  -22.6863   24.5127 O   0  0  0  0  0  0  0  0  0  1  0  0
  -18.2230   -5.1105   22.3916 F   0  0  0  0  0  0  0  0  0  0  0  0
  -22.8840   -4.6253   23.0587 F   0  0  0  0  0  0  0  0  0  0  0  0
  1  2  1  0  0  0  0
  1  5  2  0  0  0  0
  2  6  2  0  0  0  0
  3 10  2  0  0  0  0
  3 18  1  0  0  0  0
  4 11  1  0  0  0  0
  4 18  2  0  0  0  0
  5 20  1  0  0  0  0
  6 22  1  0  0  0  0
  7 12  2  0  0  0  0
  7 21  1  0  0  0  0
  8  9  2  0  0  0  0
  8 24  1  0  0  0  0
  9 26  1  0  0  0  0
 10 27  1  0  0  0  0
 11 27  2  0  0  0  0
 12 28  1  0  0  0  0
 13 14  2  0  0  0  0
 13 29  1  0  0  0  0
 14 30  1  0  0  0  0
 15 23  1  0  0  0  0
 15 28  2  0  0  0  0
 16 24  2  0  0  0  0
 16 25  1  0  0  0  0
 17 30  2  0  0  0  0
 17 31  1  0  0  0  0
 18 32  1  0  0  0  0
 19 32  1  0  0  0  0
 19 33  2  0  0  0  0
 19 34  1  0  0  0  0
 20 22  2  0  0  0  0
 20 39  1  0  0  0  0
 21 23  2  0  0  0  0
 21 40  1  0  0  0  0
 22 48  1  0  0  0  0
 23 41  1  0  0  0  0
 24 61  1  0  0  0  0
 25 26  2  0  0  0  0
 25 51  1  0  0  0  0
 26 77  1  0  0  0  0
 27 88  1  0  0  0  0
 28 89  1  0  0  0  0
 29 31  2  0  0  0  0
 29 88  1  0  0  0  0
 30 90  1  0  0  0  0
 31 91  1  0  0  0  0
 32 71  2  0  0  0  0
 33 72  1  0  0  0  0
 33 75  1  0  0  0  0
 34 76  1  0  0  0  0
 34 83  2  0  0  0  0
 35 49  1  0  0  0  0
 35 78  1  0  0  0  0
 35 84  2  0  0  0  0
 36 67  1  0  0  0  0
 36 73  1  0  0  0  0
 36 85  2  0  0  0  0
 37 68  1  0  0  0  0
 37 79  1  0  0  0  0
 37 86  2  0  0  0  0
 38 74  1  0  0  0  0
 38 77  1  0  0  0  0
 38 87  2  0  0  0  0
 39 42  1  0  0  0  0
 40 49  1  0  0  0  0
 41 73  1  0  0  0  0
 42 44  1  0  0  0  0
 43 45  1  0  0  0  0
 43 46  1  0  0  0  0
 44 48  1  0  0  0  0
 45 50  1  0  0  0  0
 46 74  1  0  0  0  0
 47 50  1  0  0  0  0
 47 74  1  0  0  0  0
 48 78  1  0  0  0  0
 49 73  1  0  0  0  0
 50 72  1  0  0  0  0
 52 68  1  0  0  0  0
 53 69  1  0  0  0  0
 54 69  1  0  0  0  0
 55 69  1  0  0  0  0
 56 70  1  0  0  0  0
 57 80  1  0  0  0  0
 58 81  1  0  0  0  0
 59 81  1  0  0  0  0
 60 82  1  0  0  0  0
 61 82  1  0  0  0  0
 62 63  1  0  0  0  0
 62 66  1  0  0  0  0
 63 70  1  0  0  0  0
 64 70  1  0  0  0  0
 64 81  1  0  0  0  0
 65 70  1  0  0  0  0
 65 82  1  0  0  0  0
 66 89  1  0  0  0  0
 67 69  1  0  0  0  0
 67 79  1  0  0  0  0
 68 80  1  0  0  0  0
 71 72  1  0  0  0  0
M  CHG  3  80   1  81   1  82   1
M  ISO  4  38 100  66 101  77 100  89 101
M  END
> <Batch ID>
0019

> <Smiles>
CNC(C)C(=O)NC(C(=O)N1Cc2cc([101O:1][101CH2:1]CCC(C)(CN(C)C)CN(C)Cc3ccc([100NH:0][100C:0](=O)N4CCCC(n5nc(-c6ccc(Oc7ccc(F)cc7F)cc6)c(C(N)=O)c5N)C4)c(C)c3)ccc2CC1C(=O)NC1CCCc2ccccc21)C(C)(C)C

> <Shape>
0.232

> <Color>
0.128

> <Negative vol penalty>
0.000

$$$$

  -OEChem-04042321053D

 87 95  0     1  0  0  0  0  0999 V2000
  -29.5925  -32.3053   25.7868 C   0  0  0  0  0  0  0  0  0  0  0  0
  -29.9575  -31.1295   25.1389 C   0  0  0  0  0  0  0  0  0  0  0  0
  -23.9756   -8.8920   19.8308 C   0  0  0  0  0  0  0  0  0  0  0  0
  -23.0665  -10.3584   21.5219 C   0  0  0  0  0  0  0  0  0  0  0  0
  -28.2441  -32.6133   25.9627 C   0  0  0  0  0  0  0  0  0  0  0  0
  -28.9742  -30.2605   24.6673 C   0  0  0  0  0  0  0  0  0  0  0  0
  -29.2235  -26.8153   19.6102 C   0  0  0  0  0  0  0  0  0  0  0  0
  -23.3085   -7.8119   20.4087 C   0  0  0  0  0  0  0  0  0  0  0  0
  -22.3993   -9.2784   22.0998 C   0  0  0  0  0  0  0  0  0  0  0  0
  -29.5350  -25.4719   19.4049 C   0  0  0  0  0  0  0  0  0  0  0  0
  -19.5975   -7.4815   21.5150 C   0  0  0  0  0  0  0  0  0  0  0  0
  -18.2657   -7.6674   21.8854 C   0  0  0  0  0  0  0  0  0  0  0  0
  -27.1850  -24.9280   19.4402 C   0  0  0  0  0  0  0  0  0  0  0  0
  -30.1217  -20.5025   19.8103 C   0  0  0  0  0  0  0  0  0  0  0  0
  -30.6365  -20.9290   17.4887 C   0  0  0  0  0  0  0  0  0  0  0  0
  -30.5517  -18.6584   18.3098 C   0  0  0  0  0  0  0  0  0  0  0  0
  -18.8326   -7.1602   24.1785 C   0  0  0  0  0  0  0  0  0  0  0  0
  -23.8546  -10.1653   20.3874 C   0  0  0  0  0  0  0  0  0  0  0  0
  -24.0607  -12.1407   18.7865 C   0  0  0  0  0  0  0  0  0  0  0  0
  -27.2438  -31.7524   25.4844 C   0  0  0  0  0  0  0  0  0  0  0  0
  -27.8888  -27.2242   19.7432 C   0  0  0  0  0  0  0  0  0  0  0  0
  -27.6111  -30.5567   24.8381 C   0  0  0  0  0  0  0  0  0  0  0  0
  -26.8592  -26.2775   19.6446 C   0  0  0  0  0  0  0  0  0  0  0  0
  -30.3216  -21.4015   18.7628 C   0  0  0  0  0  0  0  0  0  0  0  0
  -30.2368  -19.1309   19.5838 C   0  0  0  0  0  0  0  0  0  0  0  0
  -22.5203   -8.0051   21.5431 C   0  0  0  0  0  0  0  0  0  0  0  0
  -28.5158  -24.5276   19.3227 C   0  0  0  0  0  0  0  0  0  0  0  0
  -20.5469   -7.1349   22.4763 C   0  0  0  0  0  0  0  0  0  0  0  0
  -17.8832   -7.5068   23.2171 C   0  0  0  0  0  0  0  0  0  0  0  0
  -30.7516  -19.5574   17.2622 C   0  0  0  0  0  0  0  0  0  0  0  0
  -20.1645   -6.9742   23.8081 C   0  0  0  0  0  0  0  0  0  0  0  0
  -24.5440  -11.2813   19.7913 C   0  0  0  0  0  0  0  0  0  0  0  0
  -25.0869  -13.0276   18.5703 C   0  0  0  0  0  0  0  0  0  0  0  0
  -22.7970  -12.1376   18.1092 C   0  0  0  0  0  0  0  0  0  0  0  0
  -26.1844  -28.6050   22.0438 C   0  0  0  0  0  0  0  0  0  0  0  0
  -23.8829  -28.6768   19.7590 C   0  0  0  0  0  0  0  0  0  0  0  0
  -22.6236  -27.3612   16.8728 C   0  0  0  0  0  0  0  0  0  0  0  0
  -29.3874  -15.0471   21.8922 C   0  0  0  0  0  0  0  0  0  0  0  0
  -25.7997  -32.1048   25.7398 C   0  0  0  0  0  0  0  0  0  0  0  0
  -27.5682  -28.6809   19.9377 C   0  0  0  0  0  0  0  0  0  0  0  0
  -25.4092  -26.6679   19.7606 C   0  0  0  0  0  0  0  0  0  0  0  0
  -24.8183  -31.3136   24.8790 C   0  0  0  0  0  0  0  0  0  0  0  0
  -29.8431  -13.3947   18.8045 C   0  0  0  0  0  0  0  0  0  0  0  0
  -25.1786  -29.8314   24.8839 C   0  0  0  0  0  0  0  0  0  0  0  0
  -28.4787  -12.7348   18.6101 C   0  0  0  0  0  0  0  0  0  0  0  0
  -30.3082  -13.3348   20.2607 C   0  0  0  0  0  0  0  0  0  0  0  0
  -27.9598  -13.2160   21.0311 C   0  0  0  0  0  0  0  0  0  0  0  0
  -26.5736  -29.6008   24.2905 C   0  0  1  0  0  0  0  0  0  0  0  0
  -26.2005  -28.9120   20.5730 C   0  0  1  0  0  0  0  0  0  0  0  0
  -27.4424  -13.3156   19.5878 C   0  0  2  0  0  0  0  0  0  0  0  0
  -31.7874  -14.0835   24.0210 C   0  0  0  0  0  0  0  0  0  0  0  0
  -20.7098  -27.6041   15.2678 C   0  0  0  0  0  0  0  0  0  0  0  0
  -22.0404  -27.2773   21.7481 C   0  0  0  0  0  0  0  0  0  0  0  0
  -20.5273  -26.7049   19.8373 C   0  0  0  0  0  0  0  0  0  0  0  0
  -20.9518  -29.0936   20.4175 C   0  0  0  0  0  0  0  0  0  0  0  0
  -31.9397  -19.0396   22.2113 C   0  0  0  0  0  0  0  0  0  0  0  0
  -32.3905  -17.0805   20.7454 C   0  0  0  0  0  0  0  0  0  0  0  0
  -24.4382  -28.0085   14.6262 C   0  0  0  0  0  0  0  0  0  0  0  0
  -30.1983  -22.8769   19.0064 C   0  0  0  0  0  0  0  0  0  1  0  0
  -31.7654  -14.5017   22.5647 C   0  0  0  0  0  0  0  0  0  0  0  0
  -30.9004  -16.8064   22.7250 C   0  0  0  0  0  0  0  0  0  0  0  0
  -30.0234  -18.1693   20.7038 C   0  0  1  0  0  0  0  0  0  0  0  0
  -22.7834  -27.7404   19.3192 C   0  0  1  0  0  0  0  0  0  0  0  0
  -22.1359  -28.0192   15.5946 C   0  0  2  0  0  0  0  0  0  0  0  0
  -21.6030  -27.6961   20.3302 C   0  0  0  0  0  0  0  0  0  0  0  0
  -31.2932  -17.7806   21.5784 C   0  0  0  0  0  0  0  0  0  0  0  0
  -25.7812  -11.5939   20.1860 N   0  0  0  0  0  0  0  0  0  0  0  0
  -26.0838  -12.6596   19.4252 N   0  0  0  0  0  0  0  0  0  0  0  0
  -25.1470  -28.1033   19.9564 N   0  0  0  0  0  0  0  0  0  0  0  0
  -29.2717  -13.8543   21.1632 N   0  0  0  0  0  0  0  0  0  0  0  0
  -25.2247  -14.0784   17.7342 N   0  0  0  0  0  0  0  0  0  0  0  0
  -21.8569  -11.1567   18.4533 N   0  0  0  0  0  0  0  0  0  0  0  0
  -26.5273  -29.6766   22.8460 N   0  0  0  0  0  0  0  0  0  0  0  0
  -22.4032  -28.1602   17.9748 N   0  0  0  0  0  0  0  0  0  0  0  0
  -30.6762  -15.4359   22.2871 N   0  0  0  0  0  0  0  0  0  0  0  0
  -28.8940  -18.5950   21.6200 N   0  3  0  0  0  0  0  0  0  0  0  0
  -23.0104  -27.6382   14.4496 N   0  3  0  0  0  0  0  0  0  0  0  0
  -22.5162  -12.9696   17.2134 O   0  0  0  0  0  0  0  0  0  0  0  0
  -25.8818  -27.4796   22.4228 O   0  0  0  0  0  0  0  0  0  0  0  0
  -23.6311  -29.8743   19.9146 O   0  0  0  0  0  0  0  0  0  0  0  0
  -23.1444  -26.2481   16.8922 O   0  0  0  0  0  0  0  0  0  0  0  0
  -28.3930  -15.7247   22.1822 O   0  0  0  0  0  0  0  0  0  0  0  0
  -21.8689   -6.9514   22.1072 O   0  0  0  0  0  0  0  0  0  0  0  0
  -28.8171  -23.2157   19.1230 O   0  0  0  0  0  0  0  0  0  1  0  0
  -16.6045   -7.6868   23.5729 F   0  0  0  0  0  0  0  0  0  0  0  0
  -31.0549  -19.1040   16.0390 F   0  0  0  0  0  0  0  0  0  0  0  0
  -21.0723   -6.6424   24.7363 F   0  0  0  0  0  0  0  0  0  0  0  0
  1  2  1  0  0  0  0
  1  5  2  0  0  0  0
  2  6  2  0  0  0  0
  3  8  2  0  0  0  0
  3 18  1  0  0  0  0
  4  9  1  0  0  0  0
  4 18  2  0  0  0  0
  5 20  1  0  0  0  0
  6 22  1  0  0  0  0
  7 10  2  0  0  0  0
  7 21  1  0  0  0  0
  8 26  1  0  0  0  0
  9 26  2  0  0  0  0
 10 27  1  0  0  0  0
 11 12  2  0  0  0  0
 11 28  1  0  0  0  0
 12 29  1  0  0  0  0
 13 23  1  0  0  0  0
 13 27  2  0  0  0  0
 14 24  1  0  0  0  0
 14 25  2  0  0  0  0
 15 24  2  0  0  0  0
 15 30  1  0  0  0  0
 16 25  1  0  0  0  0
 16 30  2  0  0  0  0
 17 29  2  0  0  0  0
 17 31  1  0  0  0  0
 18 32  1  0  0  0  0
 19 32  1  0  0  0  0
 19 33  2  0  0  0  0
 19 34  1  0  0  0  0
 20 22  2  0  0  0  0
 20 39  1  0  0  0  0
 21 23  2  0  0  0  0
 21 40  1  0  0  0  0
 22 48  1  0  0  0  0
 23 41  1  0  0  0  0
 24 59  1  0  0  0  0
 25 62  1  0  0  0  0
 26 83  1  0  0  0  0
 27 84  1  0  0  0  0
 28 31  2  0  0  0  0
 28 83  1  0  0  0  0
 29 85  1  0  0  0  0
 30 86  1  0  0  0  0
 31 87  1  0  0  0  0
 32 67  2  0  0  0  0
 33 68  1  0  0  0  0
 33 71  1  0  0  0  0
 34 72  1  0  0  0  0
 34 78  2  0  0  0  0
 35 49  1  0  0  0  0
 35 73  1  0  0  0  0
 35 79  2  0  0  0  0
 36 63  1  0  0  0  0
 36 69  1  0  0  0  0
 36 80  2  0  0  0  0
 37 64  1  0  0  0  0
 37 74  1  0  0  0  0
 37 81  2  0  0  0  0
 38 70  1  0  0  0  0
 38 75  1  0  0  0  0
 38 82  2  0  0  0  0
 39 42  1  0  0  0  0
 40 49  1  0  0  0  0
 41 69  1  0  0  0  0
 42 44  1  0  0  0  0
 43 45  1  0  0  0  0
 43 46  1  0  0  0  0
 44 48  1  0  0  0  0
 45 50  1  0  0  0  0
 46 70  1  0  0  0  0
 47 50  1  0  0  0  0
 47 70  1  0  0  0  0
 48 73  1  0  0  0  0
 49 69  1  0  0  0  0
 50 68  1  0  0  0  0
 51 60  1  0  0  0  0
 52 64  1  0  0  0  0
 53 65  1  0  0  0  0
 54 65  1  0  0  0  0
 55 65  1  0  0  0  0
 56 66  1  0  0  0  0
 57 66  1  0  0  0  0
 58 77  1  0  0  0  0
 59 84  1  0  0  0  0
 60 75  1  0  0  0  0
 61 66  1  0  0  0  0
 61 75  1  0  0  0  0
 62 66  1  0  0  0  0
 62 76  1  0  0  0  0
 63 65  1  0  0  0  0
 63 74  1  0  0  0  0
 64 77  1  0  0  0  0
 67 68  1  0  0  0  0
M  CHG  2  76   1  77   1
M  ISO  4  38 100  59 101  75 100  84 101
M  END
> <Batch ID>
0019

> <Smiles>
CC[100N:0](CC(C)(C)C(N)c1cc(F)cc([101CH2:1][101O:1]c2ccc3c(c2)CN(C(=O)C(NC(=O)C(C)NC)C(C)(C)C)C(C(=O)NC2CCCc4ccccc42)C3)c1)[100C:0](=O)N1CCCC(n2nc(-c3ccc(Oc4ccc(F)cc4F)cc3)c(C(N)=O)c2N)C1

> <Shape>
0.297

> <Color>
0.089

> <Negative vol penalty>
0.000

$$$$

  -OEChem-04042321053D

 85 93  0     1  0  0  0  0  0999 V2000
  -16.8325  -28.9334   24.2448 C   0  0  0  0  0  0  0  0  0  0  0  0
  -17.2348  -28.1415   23.1741 C   0  0  0  0  0  0  0  0  0  0  0  0
  -25.8268  -14.0525   20.6700 C   0  0  0  0  0  0  0  0  0  0  0  0
  -23.4974  -13.9081   21.2946 C   0  0  0  0  0  0  0  0  0  0  0  0
  -17.5580  -30.0772   24.5757 C   0  0  0  0  0  0  0  0  0  0  0  0
  -18.3622  -28.4935   22.4329 C   0  0  0  0  0  0  0  0  0  0  0  0
  -22.3958  -24.6872   19.8350 C   0  0  0  0  0  0  0  0  0  0  0  0
  -28.4576  -21.3435   18.9565 C   0  0  0  0  0  0  0  0  0  0  0  0
  -28.5872  -21.0129   20.3054 C   0  0  0  0  0  0  0  0  0  0  0  0
  -26.0052  -12.7157   21.0260 C   0  0  0  0  0  0  0  0  0  0  0  0
  -23.6758  -12.5712   21.6506 C   0  0  0  0  0  0  0  0  0  0  0  0
  -22.5349  -24.2160   18.5303 C   0  0  0  0  0  0  0  0  0  0  0  0
  -23.9024   -9.5865   20.0819 C   0  0  0  0  0  0  0  0  0  0  0  0
  -22.9397   -8.6706   19.6579 C   0  0  0  0  0  0  0  0  0  0  0  0
  -24.1555  -25.9463   18.0845 C   0  0  0  0  0  0  0  0  0  0  0  0
  -26.6754  -22.8800   19.5045 C   0  0  0  0  0  0  0  0  0  0  0  0
  -22.4675   -8.1019   21.9581 C   0  0  0  0  0  0  0  0  0  0  0  0
  -24.5729  -14.6487   20.8043 C   0  0  0  0  0  0  0  0  0  0  0  0
  -24.0184  -16.5317   19.1751 C   0  0  0  0  0  0  0  0  0  0  0  0
  -18.7005  -30.4381   23.8442 C   0  0  0  0  0  0  0  0  0  0  0  0
  -23.1287  -25.8002   20.2717 C   0  0  0  0  0  0  0  0  0  0  0  0
  -19.1029  -29.6438   22.7535 C   0  0  0  0  0  0  0  0  0  0  0  0
  -24.0258  -26.4281   19.3960 C   0  0  0  0  0  0  0  0  0  0  0  0
  -27.5017  -22.2772   18.5561 C   0  0  0  0  0  0  0  0  0  0  0  0
  -27.7610  -21.6157   21.2538 C   0  0  0  0  0  0  0  0  0  0  0  0
  -24.9297  -11.9750   21.5163 C   0  0  0  0  0  0  0  0  0  0  0  0
  -23.4127  -24.8472   17.6539 C   0  0  0  0  0  0  0  0  0  0  0  0
  -24.1477   -9.7602   21.4441 C   0  0  0  0  0  0  0  0  0  0  0  0
  -22.2223   -7.9283   20.5959 C   0  0  0  0  0  0  0  0  0  0  0  0
  -26.8051  -22.5493   20.8534 C   0  0  0  0  0  0  0  0  0  0  0  0
  -23.4303   -9.0179   22.3821 C   0  0  0  0  0  0  0  0  0  0  0  0
  -24.3882  -16.0297   20.4373 C   0  0  0  0  0  0  0  0  0  0  0  0
  -23.9788  -17.8940   19.3456 C   0  0  0  0  0  0  0  0  0  0  0  0
  -23.7359  -15.8294   17.9575 C   0  0  0  0  0  0  0  0  0  0  0  0
  -22.3819  -28.7012   21.3347 C   0  0  0  0  0  0  0  0  0  0  0  0
  -25.5755  -28.9033   21.8659 C   0  0  0  0  0  0  0  0  0  0  0  0
  -28.7168  -27.8240   21.0824 C   0  0  0  0  0  0  0  0  0  0  0  0
  -26.8244  -21.3029   23.5595 C   0  0  0  0  0  0  0  0  0  0  0  0
  -19.4251  -31.7092   24.2100 C   0  0  0  0  0  0  0  0  0  0  0  0
  -22.9871  -26.2798   21.6903 C   0  0  0  0  0  0  0  0  0  0  0  0
  -24.8508  -27.6141   19.8218 C   0  0  0  0  0  0  0  0  0  0  0  0
  -20.8244  -31.8075   23.6078 C   0  0  0  0  0  0  0  0  0  0  0  0
  -23.2352  -21.2568   22.6603 C   0  0  0  0  0  0  0  0  0  0  0  0
  -20.7976  -31.4287   22.1304 C   0  0  0  0  0  0  0  0  0  0  0  0
  -23.0796  -19.9112   21.9540 C   0  0  0  0  0  0  0  0  0  0  0  0
  -24.3554  -21.2268   23.6956 C   0  0  0  0  0  0  0  0  0  0  0  0
  -25.5153  -19.4396   22.4299 C   0  0  0  0  0  0  0  0  0  0  0  0
  -20.3348  -29.9790   21.9409 C   0  0  1  0  0  0  0  0  0  0  0  0
  -23.4009  -27.7368   21.8725 C   0  0  1  0  0  0  0  0  0  0  0  0
  -24.4198  -19.4557   21.3534 C   0  0  1  0  0  0  0  0  0  0  0  0
  -31.2104  -27.5974   21.2499 C   0  0  0  0  0  0  0  0  0  0  0  0
  -25.5554  -31.4867   20.2424 C   0  0  0  0  0  0  0  0  0  0  0  0
  -28.0444  -31.3007   20.0460 C   0  0  0  0  0  0  0  0  0  0  0  0
  -26.9876  -31.5534   22.2915 C   0  0  0  0  0  0  0  0  0  0  0  0
  -29.2468  -21.1358   23.1910 C   0  0  0  0  0  0  0  0  0  0  0  0
  -28.5008  -25.6025   23.0259 C   0  0  0  0  0  0  0  0  0  0  0  0
  -26.3460  -20.5402   16.2144 C   0  0  0  0  0  0  0  0  0  0  0  0
  -27.3613  -22.6322   17.1051 C   0  0  0  0  0  0  0  0  0  0  0  0
  -24.2211  -22.5440   15.0026 C   0  0  0  0  0  0  0  0  0  0  0  0
  -25.7096  -22.7440   15.2450 C   0  0  0  0  0  0  0  0  0  0  0  0
  -23.3448  -22.9938   16.1652 C   0  0  0  0  0  0  0  0  0  1  0  0
  -26.7670  -29.3576   21.0579 C   0  0  1  0  0  0  0  0  0  0  0  0
  -29.8797  -27.3893   21.9560 C   0  0  2  0  0  0  0  0  0  0  0  0
  -26.8218  -30.9035   20.9005 C   0  0  0  0  0  0  0  0  0  0  0  0
  -24.5707  -16.9946   21.3427 N   0  0  0  0  0  0  0  0  0  0  0  0
  -24.3146  -18.1165   20.6487 N   0  0  0  0  0  0  0  0  0  0  0  0
  -24.6724  -28.0495   21.2168 N   0  0  0  0  0  0  0  0  0  0  0  0
  -25.6097  -20.7343   23.1241 N   0  0  0  0  0  0  0  0  0  0  0  0
  -23.6900  -18.9113   18.5065 N   0  0  0  0  0  0  0  0  0  0  0  0
  -23.8234  -14.4306   17.9573 N   0  0  0  0  0  0  0  0  0  0  0  0
  -21.4102  -29.0608   22.2490 N   0  0  0  0  0  0  0  0  0  0  0  0
  -27.9416  -28.7806   21.7028 N   0  0  0  0  0  0  0  0  0  0  0  0
  -27.8970  -21.2714   22.6480 N   0  0  0  0  0  0  0  0  0  0  0  0
  -29.7538  -25.9461   22.3056 N   0  3  0  0  0  0  0  0  0  0  0  0
  -26.1429  -22.0159   16.4605 N   0  3  1  0  0  0  0  0  0  0  0  0
  -23.4314  -16.4257   16.8967 O   0  0  0  0  0  0  0  0  0  0  0  0
  -22.4714  -29.0914   20.1765 O   0  0  0  0  0  0  0  0  0  0  0  0
  -25.4544  -29.2860   23.0323 O   0  0  0  0  0  0  0  0  0  0  0  0
  -28.5184  -27.3637   19.9602 O   0  0  0  0  0  0  0  0  0  0  0  0
  -26.9617  -21.7576   24.7018 O   0  0  0  0  0  0  0  0  0  0  0  0
  -25.1033  -10.6705   21.8635 O   0  0  0  0  0  0  0  0  0  0  0  0
  -23.5499  -24.3897   16.3797 O   0  0  0  0  0  0  0  0  0  1  0  0
  -21.2968   -7.0498   20.1886 F   0  0  0  0  0  0  0  0  0  0  0  0
  -26.0046  -23.1339   21.7561 F   0  0  0  0  0  0  0  0  0  0  0  0
  -23.6607   -9.1812   23.6921 F   0  0  0  0  0  0  0  0  0  0  0  0
  1  2  1  0  0  0  0
  1  5  2  0  0  0  0
  2  6  2  0  0  0  0
  3 10  2  0  0  0  0
  3 18  1  0  0  0  0
  4 11  1  0  0  0  0
  4 18  2  0  0  0  0
  5 20  1  0  0  0  0
  6 22  1  0  0  0  0
  7 12  2  0  0  0  0
  7 21  1  0  0  0  0
  8  9  2  0  0  0  0
  8 24  1  0  0  0  0
  9 25  1  0  0  0  0
 10 26  1  0  0  0  0
 11 26  2  0  0  0  0
 12 27  1  0  0  0  0
 13 14  2  0  0  0  0
 13 28  1  0  0  0  0
 14 29  1  0  0  0  0
 15 23  1  0  0  0  0
 15 27  2  0  0  0  0
 16 24  2  0  0  0  0
 16 30  1  0  0  0  0
 17 29  2  0  0  0  0
 17 31  1  0  0  0  0
 18 32  1  0  0  0  0
 19 32  1  0  0  0  0
 19 33  2  0  0  0  0
 19 34  1  0  0  0  0
 20 22  2  0  0  0  0
 20 39  1  0  0  0  0
 21 23  2  0  0  0  0
 21 40  1  0  0  0  0
 22 48  1  0  0  0  0
 23 41  1  0  0  0  0
 24 58  1  0  0  0  0
 25 30  2  0  0  0  0
 25 73  1  0  0  0  0
 26 81  1  0  0  0  0
 27 82  1  0  0  0  0
 28 31  2  0  0  0  0
 28 81  1  0  0  0  0
 29 83  1  0  0  0  0
 30 84  1  0  0  0  0
 31 85  1  0  0  0  0
 32 65  2  0  0  0  0
 33 66  1  0  0  0  0
 33 69  1  0  0  0  0
 34 70  1  0  0  0  0
 34 76  2  0  0  0  0
 35 49  1  0  0  0  0
 35 71  1  0  0  0  0
 35 77  2  0  0  0  0
 36 62  1  0  0  0  0
 36 67  1  0  0  0  0
 36 78  2  0  0  0  0
 37 63  1  0  0  0  0
 37 72  1  0  0  0  0
 37 79  2  0  0  0  0
 38 68  1  0  0  0  0
 38 73  1  0  0  0  0
 38 80  2  0  0  0  0
 39 42  1  0  0  0  0
 40 49  1  0  0  0  0
 41 67  1  0  0  0  0
 42 44  1  0  0  0  0
 43 45  1  0  0  0  0
 43 46  1  0  0  0  0
 44 48  1  0  0  0  0
 45 50  1  0  0  0  0
 46 68  1  0  0  0  0
 47 50  1  0  0  0  0
 47 68  1  0  0  0  0
 48 71  1  0  0  0  0
 49 67  1  0  0  0  0
 50 66  1  0  0  0  0
 51 63  1  0  0  0  0
 52 64  1  0  0  0  0
 53 64  1  0  0  0  0
 54 64  1  0  0  0  0
 55 73  1  0  0  0  0
 56 74  1  0  0  0  0
 57 75  1  0  0  0  0
 58 75  1  0  0  0  0
 59 60  1  0  0  0  0
 59 61  1  0  0  0  0
 60 75  1  0  0  0  0
 61 82  1  0  0  0  0
 62 64  1  0  0  0  0
 62 72  1  0  0  0  0
 63 74  1  0  0  0  0
 65 66  1  0  0  0  0
M  CHG  2  74   1  75   1
M  ISO  4  38 100  61 101  73 100  82 101
M  END
> <Batch ID>
0019

> <Smiles>
CNC(C)C(=O)NC(C(=O)N1Cc2cc([101O:1][101CH2:1]CCN(C)Cc3ccc([100N:0](C)[100C:0](=O)N4CCCC(n5nc(-c6ccc(Oc7ccc(F)cc7F)cc6)c(C(N)=O)c5N)C4)c(F)c3)ccc2CC1C(=O)NC1CCCc2ccccc21)C(C)(C)C

> <Shape>
0.216

> <Color>
0.075

> <Negative vol penalty>
0.000

$$$$

  -OEChem-04042321053D

 86 94  0     1  0  0  0  0  0999 V2000
  -25.4814  -28.3928   30.4137 C   0  0  0  0  0  0  0  0  0  0  0  0
  -26.5497  -27.7210   29.8281 C   0  0  0  0  0  0  0  0  0  0  0  0
  -23.2038   -9.7851   20.3385 C   0  0  0  0  0  0  0  0  0  0  0  0
  -24.1220  -10.0966   22.5514 C   0  0  0  0  0  0  0  0  0  0  0  0
  -24.4060  -28.8075   29.6293 C   0  0  0  0  0  0  0  0  0  0  0  0
  -26.5426  -27.4627   28.4578 C   0  0  0  0  0  0  0  0  0  0  0  0
  -30.9805  -26.8655   22.8663 C   0  0  0  0  0  0  0  0  0  0  0  0
  -22.5585   -8.6260   20.7694 C   0  0  0  0  0  0  0  0  0  0  0  0
  -23.4766   -8.9375   22.9824 C   0  0  0  0  0  0  0  0  0  0  0  0
  -31.2958  -25.9872   21.8304 C   0  0  0  0  0  0  0  0  0  0  0  0
  -20.3600   -8.0250   23.9174 C   0  0  0  0  0  0  0  0  0  0  0  0
  -19.6922   -8.0736   25.1410 C   0  0  0  0  0  0  0  0  0  0  0  0
  -29.4212  -26.8207   20.5614 C   0  0  0  0  0  0  0  0  0  0  0  0
  -29.6582  -18.9626   17.1941 C   0  0  0  0  0  0  0  0  0  0  0  0
  -28.7747  -20.2621   19.0292 C   0  0  0  0  0  0  0  0  0  0  0  0
  -21.1097   -6.3084   25.9848 C   0  0  0  0  0  0  0  0  0  0  0  0
  -23.9856  -10.5203   21.2295 C   0  0  0  0  0  0  0  0  0  0  0  0
  -24.1481  -13.0313   20.8096 C   0  0  0  0  0  0  0  0  0  0  0  0
  -24.3902  -28.5627   28.2471 C   0  0  0  0  0  0  0  0  0  0  0  0
  -29.8749  -27.7217   22.7618 C   0  0  0  0  0  0  0  0  0  0  0  0
  -25.4653  -27.8734   27.6544 C   0  0  0  0  0  0  0  0  0  0  0  0
  -29.0955  -27.7107   21.5962 C   0  0  0  0  0  0  0  0  0  0  0  0
  -29.5450  -17.8029   17.9608 C   0  0  0  0  0  0  0  0  0  0  0  0
  -29.0466  -17.8727   19.2617 C   0  0  0  0  0  0  0  0  0  0  0  0
  -29.2731  -20.1922   17.7283 C   0  0  0  0  0  0  0  0  0  0  0  0
  -22.6948   -8.2022   22.0913 C   0  0  0  0  0  0  0  0  0  0  0  0
  -30.5144  -25.9627   20.6790 C   0  0  0  0  0  0  0  0  0  0  0  0
  -21.4025   -7.1180   23.7274 C   0  0  0  0  0  0  0  0  0  0  0  0
  -20.0671   -7.2154   26.1747 C   0  0  0  0  0  0  0  0  0  0  0  0
  -28.6614  -19.1024   19.7960 C   0  0  0  0  0  0  0  0  0  0  0  0
  -21.7774   -6.2597   24.7611 C   0  0  0  0  0  0  0  0  0  0  0  0
  -24.6530  -11.7174   20.7849 C   0  0  0  0  0  0  0  0  0  0  0  0
  -25.1591  -13.7976   20.2832 C   0  0  0  0  0  0  0  0  0  0  0  0
  -22.8788  -13.5158   21.2676 C   0  0  0  0  0  0  0  0  0  0  0  0
  -27.1649  -28.0936   24.3809 C   0  0  0  0  0  0  0  0  0  0  0  0
  -26.8060  -30.6591   22.4286 C   0  0  0  0  0  0  0  0  0  0  0  0
  -27.5776  -32.1813   19.4731 C   0  0  0  0  0  0  0  0  0  0  0  0
  -30.7344  -14.9037   20.3819 C   0  0  0  0  0  0  0  0  0  0  0  0
  -23.1839  -28.9884   27.4482 C   0  0  0  0  0  0  0  0  0  0  0  0
  -29.5640  -28.6821   23.8769 C   0  0  0  0  0  0  0  0  0  0  0  0
  -27.9100  -28.6240   21.4263 C   0  0  0  0  0  0  0  0  0  0  0  0
  -23.4267  -29.0064   25.9412 C   0  0  0  0  0  0  0  0  0  0  0  0
  -29.4181  -12.4821   17.9112 C   0  0  0  0  0  0  0  0  0  0  0  0
  -24.1319  -27.7282   25.4988 C   0  0  0  0  0  0  0  0  0  0  0  0
  -28.0486  -12.1283   18.4886 C   0  0  0  0  0  0  0  0  0  0  0  0
  -30.4066  -12.8842   19.0015 C   0  0  0  0  0  0  0  0  0  0  0  0
  -28.5516  -13.6299   20.4565 C   0  0  0  0  0  0  0  0  0  0  0  0
  -25.5057  -27.5965   26.1672 C   0  0  1  0  0  0  0  0  0  0  0  0
  -28.1109  -29.1468   23.8775 C   0  0  1  0  0  0  0  0  0  0  0  0
  -27.5186  -13.2650   19.3798 C   0  0  2  0  0  0  0  0  0  0  0  0
  -29.9641  -16.4979   17.3676 C   0  0  0  0  0  0  0  0  0  0  0  0
  -27.1022  -34.2550   18.1423 C   0  0  0  0  0  0  0  0  0  0  0  0
  -24.0679  -29.5442   21.6739 C   0  0  0  0  0  0  0  0  0  0  0  0
  -24.0620  -31.0843   19.7001 C   0  0  0  0  0  0  0  0  0  0  0  0
  -24.1287  -32.0215   22.0109 C   0  0  0  0  0  0  0  0  0  0  0  0
  -29.9091  -21.2841   15.5921 C   0  0  0  0  0  0  0  0  0  0  0  0
  -31.0774  -17.2248   21.1401 C   0  0  0  0  0  0  0  0  0  0  0  0
  -30.4239  -32.9915   19.5008 C   0  0  0  0  0  0  0  0  0  0  0  0
  -28.9181  -16.6425   20.0989 C   0  0  0  0  0  0  0  0  0  0  0  0
  -30.0895  -23.2504   18.3312 C   0  0  0  0  0  0  0  0  0  0  0  0
  -28.9845  -22.6443   17.4745 C   0  0  0  0  0  0  0  0  0  0  0  0
  -29.7360  -24.6326   18.8676 C   0  0  0  0  0  0  0  0  0  1  0  0
  -26.1863  -30.8917   21.0718 C   0  0  1  0  0  0  0  0  0  0  0  0
  -28.0253  -33.5966   19.1558 C   0  0  2  0  0  0  0  0  0  0  0  0
  -24.6323  -30.8667   21.1179 C   0  0  0  0  0  0  0  0  0  0  0  0
  -25.8886  -11.6492   20.2823 N   0  0  0  0  0  0  0  0  0  0  0  0
  -26.1687  -12.9299   19.9863 N   0  0  0  0  0  0  0  0  0  0  0  0
  -27.6429  -29.5405   22.5470 N   0  0  0  0  0  0  0  0  0  0  0  0
  -29.8606  -13.9357   19.8602 N   0  0  0  0  0  0  0  0  0  0  0  0
  -25.2742  -15.1223   20.0498 N   0  0  0  0  0  0  0  0  0  0  0  0
  -21.9565  -12.5929   21.7794 N   0  0  0  0  0  0  0  0  0  0  0  0
  -26.4689  -28.4593   25.5172 N   0  0  0  0  0  0  0  0  0  0  0  0
  -26.7493  -32.1425   20.5748 N   0  0  0  0  0  0  0  0  0  0  0  0
  -29.3863  -21.3583   16.9577 N   0  0  3  0  0  0  0  0  0  0  0  0
  -30.2077  -16.1839   20.6107 N   0  0  0  0  0  0  0  0  0  0  0  0
  -29.4072  -33.5900   18.5980 N   0  3  0  0  0  0  0  0  0  0  0  0
  -22.5653  -14.7290   21.2091 O   0  0  0  0  0  0  0  0  0  0  0  0
  -27.0721  -27.0286   23.7818 O   0  0  0  0  0  0  0  0  0  0  0  0
  -26.5623  -31.4452   23.3475 O   0  0  0  0  0  0  0  0  0  0  0  0
  -27.9247  -31.2079   18.8078 O   0  0  0  0  0  0  0  0  0  0  0  0
  -31.9203  -14.6414   20.6201 O   0  0  0  0  0  0  0  0  0  0  0  0
  -22.0650   -7.0714   22.5122 O   0  0  0  0  0  0  0  0  0  0  0  0
  -30.8195  -25.1059   19.6666 O   0  0  0  0  0  0  0  0  0  1  0  0
  -19.4267   -7.2633   27.3503 F   0  0  0  0  0  0  0  0  0  0  0  0
  -28.1814  -19.1804   21.0451 F   0  0  0  0  0  0  0  0  0  0  0  0
  -22.7790   -5.3871   24.5848 F   0  0  0  0  0  0  0  0  0  0  0  0
  1  2  1  0  0  0  0
  1  5  2  0  0  0  0
  2  6  2  0  0  0  0
  3  8  2  0  0  0  0
  3 17  1  0  0  0  0
  4  9  1  0  0  0  0
  4 17  2  0  0  0  0
  5 19  1  0  0  0  0
  6 21  1  0  0  0  0
  7 10  2  0  0  0  0
  7 20  1  0  0  0  0
  8 26  1  0  0  0  0
  9 26  2  0  0  0  0
 10 27  1  0  0  0  0
 11 12  2  0  0  0  0
 11 28  1  0  0  0  0
 12 29  1  0  0  0  0
 13 22  1  0  0  0  0
 13 27  2  0  0  0  0
 14 23  2  0  0  0  0
 14 25  1  0  0  0  0
 15 25  2  0  0  0  0
 15 30  1  0  0  0  0
 16 29  2  0  0  0  0
 16 31  1  0  0  0  0
 17 32  1  0  0  0  0
 18 32  1  0  0  0  0
 18 33  2  0  0  0  0
 18 34  1  0  0  0  0
 19 21  2  0  0  0  0
 19 39  1  0  0  0  0
 20 22  2  0  0  0  0
 20 40  1  0  0  0  0
 21 48  1  0  0  0  0
 22 41  1  0  0  0  0
 23 24  1  0  0  0  0
 23 51  1  0  0  0  0
 24 30  2  0  0  0  0
 24 59  1  0  0  0  0
 25 74  1  0  0  0  0
 26 82  1  0  0  0  0
 27 83  1  0  0  0  0
 28 31  2  0  0  0  0
 28 82  1  0  0  0  0
 29 84  1  0  0  0  0
 30 85  1  0  0  0  0
 31 86  1  0  0  0  0
 32 66  2  0  0  0  0
 33 67  1  0  0  0  0
 33 70  1  0  0  0  0
 34 71  1  0  0  0  0
 34 77  2  0  0  0  0
 35 49  1  0  0  0  0
 35 72  1  0  0  0  0
 35 78  2  0  0  0  0
 36 63  1  0  0  0  0
 36 68  1  0  0  0  0
 36 79  2  0  0  0  0
 37 64  1  0  0  0  0
 37 73  1  0  0  0  0
 37 80  2  0  0  0  0
 38 69  1  0  0  0  0
 38 75  1  0  0  0  0
 38 81  2  0  0  0  0
 39 42  1  0  0  0  0
 40 49  1  0  0  0  0
 41 68  1  0  0  0  0
 42 44  1  0  0  0  0
 43 45  1  0  0  0  0
 43 46  1  0  0  0  0
 44 48  1  0  0  0  0
 45 50  1  0  0  0  0
 46 69  1  0  0  0  0
 47 50  1  0  0  0  0
 47 69  1  0  0  0  0
 48 72  1  0  0  0  0
 49 68  1  0  0  0  0
 50 67  1  0  0  0  0
 52 64  1  0  0  0  0
 53 65  1  0  0  0  0
 54 65  1  0  0  0  0
 55 65  1  0  0  0  0
 56 74  1  0  0  0  0
 57 75  1  0  0  0  0
 58 76  1  0  0  0  0
 59 75  1  0  0  0  0
 60 61  1  0  0  0  0
 60 62  1  0  0  0  0
 61 74  1  0  0  0  0
 62 83  1  0  0  0  0
 63 65  1  0  0  0  0
 63 73  1  0  0  0  0
 64 76  1  0  0  0  0
 66 67  1  0  0  0  0
M  CHG  1  76   1
M  ISO  4  38 100  62 101  75 100  83 101
M  END
> <Batch ID>
0019

> <Smiles>
CNC(C)C(=O)NC(C(=O)N1Cc2cc([101O:1][101CH2:1]CCN(C)c3cc(C)c(C[100N:0](C)[100C:0](=O)N4CCCC(n5nc(-c6ccc(Oc7ccc(F)cc7F)cc6)c(C(N)=O)c5N)C4)c(F)c3)ccc2CC1C(=O)NC1CCCc2ccccc21)C(C)(C)C

> <Shape>
0.314

> <Color>
0.194

> <Negative vol penalty>
0.000

$$$$

  -OEChem-04042321053D

 91100  0     1  0  0  0  0  0999 V2000
  -18.1834  -26.2186   14.5478 C   0  0  0  0  0  0  0  0  0  0  0  0
  -18.3687  -27.3862   15.2811 C   0  0  0  0  0  0  0  0  0  0  0  0
  -25.5130  -13.8421   21.0163 C   0  0  0  0  0  0  0  0  0  0  0  0
  -27.0624  -13.1024   19.3166 C   0  0  0  0  0  0  0  0  0  0  0  0
  -18.2099  -24.9815   15.1905 C   0  0  0  0  0  0  0  0  0  0  0  0
  -18.5794  -27.3175   16.6578 C   0  0  0  0  0  0  0  0  0  0  0  0
  -24.5546  -30.0248   19.6344 C   0  0  0  0  0  0  0  0  0  0  0  0
  -28.5403  -23.6028   19.4395 C   0  0  0  0  0  0  0  0  0  0  0  0
  -27.0847  -24.7512   20.9886 C   0  0  0  0  0  0  0  0  0  0  0  0
  -25.2276  -12.5142   21.3341 C   0  0  0  0  0  0  0  0  0  0  0  0
  -26.7771  -11.7745   19.6343 C   0  0  0  0  0  0  0  0  0  0  0  0
  -25.5720  -30.7060   20.3028 C   0  0  0  0  0  0  0  0  0  0  0  0
  -23.3472  -10.0019   20.0785 C   0  0  0  0  0  0  0  0  0  0  0  0
  -22.0084   -9.6510   20.2515 C   0  0  0  0  0  0  0  0  0  0  0  0
  -27.5429  -23.6524   18.4656 C   0  0  0  0  0  0  0  0  0  0  0  0
  -26.0874  -24.8008   20.0147 C   0  0  0  0  0  0  0  0  0  0  0  0
  -24.7586  -29.8657   22.4195 C   0  0  0  0  0  0  0  0  0  0  0  0
  -22.4808   -8.9666   22.5199 C   0  0  0  0  0  0  0  0  0  0  0  0
  -26.4303  -14.1362   20.0075 C   0  0  0  0  0  0  0  0  0  0  0  0
  -25.8206  -16.4863   19.2247 C   0  0  0  0  0  0  0  0  0  0  0  0
  -28.3112  -24.1522   20.7010 C   0  0  0  0  0  0  0  0  0  0  0  0
  -18.4306  -24.8971   16.5742 C   0  0  0  0  0  0  0  0  0  0  0  0
  -23.6434  -29.2480   20.3554 C   0  0  0  0  0  0  0  0  0  0  0  0
  -18.6075  -26.0783   17.3198 C   0  0  0  0  0  0  0  0  0  0  0  0
  -23.7449  -29.1710   21.7542 C   0  0  0  0  0  0  0  0  0  0  0  0
  -25.8597  -11.4804   20.6431 C   0  0  0  0  0  0  0  0  0  0  0  0
  -25.6736  -30.6268   21.6920 C   0  0  0  0  0  0  0  0  0  0  0  0
  -24.2529   -9.8351   21.1261 C   0  0  0  0  0  0  0  0  0  0  0  0
  -21.5752   -9.1334   21.4722 C   0  0  0  0  0  0  0  0  0  0  0  0
  -23.8197   -9.3175   22.3468 C   0  0  0  0  0  0  0  0  0  0  0  0
  -26.3165  -24.2514   18.7532 C   0  0  0  0  0  0  0  0  0  0  0  0
  -26.7251  -15.5076   19.6784 C   0  0  0  0  0  0  0  0  0  0  0  0
  -26.5886  -17.6127   19.0578 C   0  0  0  0  0  0  0  0  0  0  0  0
  -24.4121  -16.3861   18.9763 C   0  0  0  0  0  0  0  0  0  0  0  0
  -20.6586  -26.9770   20.2589 C   0  0  0  0  0  0  0  0  0  0  0  0
  -22.5936  -25.8175   22.3378 C   0  0  0  0  0  0  0  0  0  0  0  0
  -24.3974  -23.7983   24.4129 C   0  0  0  0  0  0  0  0  0  0  0  0
  -30.5533  -20.9632   21.3756 C   0  0  0  0  0  0  0  0  0  0  0  0
  -18.4036  -23.5402   17.2322 C   0  0  0  0  0  0  0  0  0  0  0  0
  -22.4946  -28.5468   19.6829 C   0  0  0  0  0  0  0  0  0  0  0  0
  -22.7217  -28.3513   22.4918 C   0  0  0  0  0  0  0  0  0  0  0  0
  -19.0059  -23.5313   18.6348 C   0  0  0  0  0  0  0  0  0  0  0  0
  -31.2677  -25.4596   20.6032 C   0  0  0  0  0  0  0  0  0  0  0  0
  -31.5987  -18.2388   19.0982 C   0  0  0  0  0  0  0  0  0  0  0  0
  -18.4748  -24.7053   19.4513 C   0  0  0  0  0  0  0  0  0  0  0  0
  -31.0825  -26.6120   21.5848 C   0  0  0  0  0  0  0  0  0  0  0  0
  -30.3673  -17.3349   19.0728 C   0  0  0  0  0  0  0  0  0  0  0  0
  -30.8708  -24.1171   21.2226 C   0  0  0  0  0  0  0  0  0  0  0  0
  -29.3214  -25.2741   22.7999 C   0  0  0  0  0  0  0  0  0  0  0  0
  -31.7106  -19.0083   20.4109 C   0  0  0  0  0  0  0  0  0  0  0  0
  -29.2616  -18.8877   20.7302 C   0  0  0  0  0  0  0  0  0  0  0  0
  -18.8635  -26.0433   18.8109 C   0  0  1  0  0  0  0  0  0  0  0  0
  -22.1399  -27.2015   20.3415 C   0  0  1  0  0  0  0  0  0  0  0  0
  -29.6684  -26.6371   22.1756 C   0  0  1  0  0  0  0  0  0  0  0  0
  -29.0940  -18.1332   19.4027 C   0  0  2  0  0  0  0  0  0  0  0  0
  -29.4157  -24.0990   21.7791 C   0  0  1  0  0  0  0  0  0  0  0  0
  -23.6963  -21.5554   23.5324 C   0  0  0  0  0  0  0  0  0  0  0  0
  -21.8296  -27.9837   24.3447 C   0  0  0  0  0  0  0  0  0  0  0  0
  -22.4908  -26.4158   26.1813 C   0  0  0  0  0  0  0  0  0  0  0  0
  -20.6228  -25.8134   24.6417 C   0  0  0  0  0  0  0  0  0  0  0  0
  -28.0909  -20.9973   21.2550 C   0  0  0  0  0  0  0  0  0  0  0  0
  -23.9516  -22.7378   27.1398 C   0  0  0  0  0  0  0  0  0  0  0  0
  -29.5447  -27.7506   23.2154 C   0  0  0  0  0  0  0  0  0  0  0  0
  -29.2223  -22.7696   22.5451 C   0  0  0  0  0  0  0  0  0  0  0  0
  -29.0443  -31.5004   22.6235 C   0  0  0  0  0  0  0  0  0  0  0  0
  -29.1866  -30.2139   23.4228 C   0  0  0  0  0  0  0  0  0  0  0  0
  -27.8938  -31.4774   21.6246 C   0  0  0  0  0  0  0  0  0  1  0  0
  -23.0017  -25.7516   23.7878 C   0  0  1  0  0  0  0  0  0  0  0  0
  -24.3035  -22.3114   24.7040 C   0  0  2  0  0  0  0  0  0  0  0  0
  -22.0048  -26.4982   24.7185 C   0  0  0  0  0  0  0  0  0  0  0  0
  -27.9724  -15.9716   19.7924 N   0  0  0  0  0  0  0  0  0  0  0  0
  -27.8571  -17.2541   19.4078 N   0  0  0  0  0  0  0  0  0  0  0  0
  -22.4726  -27.0925   21.7720 N   0  0  0  0  0  0  0  0  0  0  0  0
  -30.4720  -19.7228   20.7217 N   0  0  0  0  0  0  0  0  0  0  0  0
  -26.2959  -18.8649   18.6473 N   0  0  0  0  0  0  0  0  0  0  0  0
  -23.7801  -15.1552   19.1995 N   0  0  0  0  0  0  0  0  0  0  0  0
  -20.2477  -26.3563   19.0947 N   0  0  0  0  0  0  0  0  0  0  0  0
  -23.1667  -24.3365   24.1015 N   0  0  0  0  0  0  0  0  0  0  0  0
  -29.3455  -21.6237   21.6468 N   0  0  0  0  0  0  0  0  0  0  0  0
  -23.4577  -22.0715   25.9073 N   0  3  0  0  0  0  0  0  0  0  0  0
  -29.3813  -29.0564   22.5185 N   0  3  0  0  0  0  0  0  0  0  0  0
  -23.7370  -17.3549   18.5529 O   0  0  0  0  0  0  0  0  0  0  0  0
  -19.9402  -27.3386   21.1835 O   0  0  0  0  0  0  0  0  0  0  0  0
  -22.3817  -24.7687   21.7226 O   0  0  0  0  0  0  0  0  0  0  0  0
  -25.4560  -24.4209   24.4610 O   0  0  0  0  0  0  0  0  0  0  0  0
  -31.6439  -21.4568   21.6901 O   0  0  0  0  0  0  0  0  0  0  0  0
  -25.5817  -10.1846   20.9531 O   0  0  0  0  0  0  0  0  0  0  0  0
  -26.6720  -31.2908   22.3378 O   0  0  0  0  0  0  0  0  0  1  0  0
  -20.2891   -8.7979   21.6387 F   0  0  0  0  0  0  0  0  0  0  0  0
  -24.6849   -9.1561   23.3574 F   0  0  0  0  0  0  0  0  0  0  0  0
  -25.0864  -24.3125   17.5516 Cl  0  0  0  0  0  0  0  0  0  0  0  0
  1  2  1  0  0  0  0
  1  5  2  0  0  0  0
  2  6  2  0  0  0  0
  3 10  2  0  0  0  0
  3 19  1  0  0  0  0
  4 11  1  0  0  0  0
  4 19  2  0  0  0  0
  5 22  1  0  0  0  0
  6 24  1  0  0  0  0
  7 12  2  0  0  0  0
  7 23  1  0  0  0  0
  8 15  2  0  0  0  0
  8 21  1  0  0  0  0
  9 16  1  0  0  0  0
  9 21  2  0  0  0  0
 10 26  1  0  0  0  0
 11 26  2  0  0  0  0
 12 27  1  0  0  0  0
 13 14  2  0  0  0  0
 13 28  1  0  0  0  0
 14 29  1  0  0  0  0
 15 31  1  0  0  0  0
 16 31  2  0  0  0  0
 17 25  1  0  0  0  0
 17 27  2  0  0  0  0
 18 29  2  0  0  0  0
 18 30  1  0  0  0  0
 19 32  1  0  0  0  0
 20 32  1  0  0  0  0
 20 33  2  0  0  0  0
 20 34  1  0  0  0  0
 21 56  1  0  0  0  0
 22 24  2  0  0  0  0
 22 39  1  0  0  0  0
 23 25  2  0  0  0  0
 23 40  1  0  0  0  0
 24 52  1  0  0  0  0
 25 41  1  0  0  0  0
 26 87  1  0  0  0  0
 27 88  1  0  0  0  0
 28 30  2  0  0  0  0
 28 87  1  0  0  0  0
 29 89  1  0  0  0  0
 30 90  1  0  0  0  0
 31 91  1  0  0  0  0
 32 71  2  0  0  0  0
 33 72  1  0  0  0  0
 33 75  1  0  0  0  0
 34 76  1  0  0  0  0
 34 82  2  0  0  0  0
 35 53  1  0  0  0  0
 35 77  1  0  0  0  0
 35 83  2  0  0  0  0
 36 68  1  0  0  0  0
 36 73  1  0  0  0  0
 36 84  2  0  0  0  0
 37 69  1  0  0  0  0
 37 78  1  0  0  0  0
 37 85  2  0  0  0  0
 38 74  1  0  0  0  0
 38 79  1  0  0  0  0
 38 86  2  0  0  0  0
 39 42  1  0  0  0  0
 40 53  1  0  0  0  0
 41 73  1  0  0  0  0
 42 45  1  0  0  0  0
 43 46  1  0  0  0  0
 43 48  1  0  0  0  0
 44 47  1  0  0  0  0
 44 50  1  0  0  0  0
 45 52  1  0  0  0  0
 46 54  1  0  0  0  0
 47 55  1  0  0  0  0
 48 56  1  0  0  0  0
 49 54  1  0  0  0  0
 49 56  1  0  0  0  0
 50 74  1  0  0  0  0
 51 55  1  0  0  0  0
 51 74  1  0  0  0  0
 52 77  1  0  0  0  0
 53 73  1  0  0  0  0
 54 63  1  0  0  0  0
 55 72  1  0  0  0  0
 56 64  1  0  0  0  0
 57 69  1  0  0  0  0
 58 70  1  0  0  0  0
 59 70  1  0  0  0  0
 60 70  1  0  0  0  0
 61 79  1  0  0  0  0
 62 80  1  0  0  0  0
 63 81  1  0  0  0  0
 64 79  1  0  0  0  0
 65 66  1  0  0  0  0
 65 67  1  0  0  0  0
 66 81  1  0  0  0  0
 67 88  1  0  0  0  0
 68 70  1  0  0  0  0
 68 78  1  0  0  0  0
 69 80  1  0  0  0  0
 71 72  1  0  0  0  0
M  CHG  2  80   1  81   1
M  ISO  4  38 100  67 101  79 100  88 101
M  END
> <Batch ID>
0019

> <Smiles>
CNC(C)C(=O)NC(C(=O)N1Cc2cc([101O:1][101CH2:1]CCNCC3CCCC(C[100N:0](C)[100C:0](=O)N4CCCC(n5nc(-c6ccc(Oc7ccc(F)cc7F)cc6)c(C(N)=O)c5N)C4)(c4ccc(Cl)cc4)C3)ccc2CC1C(=O)NC1CCCc2ccccc21)C(C)(C)C

> <Shape>
0.212

> <Color>
0.043

> <Negative vol penalty>
0.000

$$$$

  -OEChem-04042321053D

 86 94  0     1  0  0  0  0  0999 V2000
  -17.9800  -28.6929   19.7725 C   0  0  0  0  0  0  0  0  0  0  0  0
  -18.4394  -28.3763   18.4981 C   0  0  0  0  0  0  0  0  0  0  0  0
  -23.1033   -9.8209   19.9748 C   0  0  0  0  0  0  0  0  0  0  0  0
  -23.9263   -9.8583   22.2460 C   0  0  0  0  0  0  0  0  0  0  0  0
  -18.8828  -29.0837   20.7606 C   0  0  0  0  0  0  0  0  0  0  0  0
  -19.8018  -28.4514   18.2107 C   0  0  0  0  0  0  0  0  0  0  0  0
  -23.4263  -22.6747   15.8904 C   0  0  0  0  0  0  0  0  0  0  0  0
  -29.5031  -16.6549   18.2824 C   0  0  0  0  0  0  0  0  0  0  0  0
  -29.7009  -17.4285   17.1388 C   0  0  0  0  0  0  0  0  0  0  0  0
  -22.4005   -8.6477   20.2488 C   0  0  0  0  0  0  0  0  0  0  0  0
  -23.2234   -8.6851   22.5201 C   0  0  0  0  0  0  0  0  0  0  0  0
  -24.1435  -21.6690   15.2421 C   0  0  0  0  0  0  0  0  0  0  0  0
  -20.0378   -7.7965   23.2149 C   0  0  0  0  0  0  0  0  0  0  0  0
  -19.3152   -7.7391   24.4066 C   0  0  0  0  0  0  0  0  0  0  0  0
  -26.1328  -23.0433   15.2880 C   0  0  0  0  0  0  0  0  0  0  0  0
  -29.4069  -19.4382   18.4473 C   0  0  0  0  0  0  0  0  0  0  0  0
  -20.6323   -5.8411   25.1137 C   0  0  0  0  0  0  0  0  0  0  0  0
  -23.8663  -10.4262   20.9734 C   0  0  0  0  0  0  0  0  0  0  0  0
  -24.1313  -12.9598   20.8366 C   0  0  0  0  0  0  0  0  0  0  0  0
  -20.2580  -29.1543   20.4878 C   0  0  0  0  0  0  0  0  0  0  0  0
  -24.0644  -23.8638   16.2542 C   0  0  0  0  0  0  0  0  0  0  0  0
  -20.7236  -28.8449   19.1956 C   0  0  0  0  0  0  0  0  0  0  0  0
  -25.4227  -24.0492   15.9487 C   0  0  0  0  0  0  0  0  0  0  0  0
  -29.2572  -17.2729   19.5086 C   0  0  0  0  0  0  0  0  0  0  0  0
  -29.6528  -18.8201   17.2212 C   0  0  0  0  0  0  0  0  0  0  0  0
  -22.4605   -8.0798   21.5214 C   0  0  0  0  0  0  0  0  0  0  0  0
  -25.4933  -21.8530   14.9414 C   0  0  0  0  0  0  0  0  0  0  0  0
  -21.0576   -6.8762   22.9725 C   0  0  0  0  0  0  0  0  0  0  0  0
  -19.6125   -6.7614   25.3560 C   0  0  0  0  0  0  0  0  0  0  0  0
  -29.2091  -18.6645   19.5910 C   0  0  0  0  0  0  0  0  0  0  0  0
  -21.3549   -5.8985   23.9219 C   0  0  0  0  0  0  0  0  0  0  0  0
  -24.5930  -11.6379   20.6909 C   0  0  0  0  0  0  0  0  0  0  0  0
  -25.1907  -13.7392   20.4408 C   0  0  0  0  0  0  0  0  0  0  0  0
  -22.8585  -13.4402   21.2894 C   0  0  0  0  0  0  0  0  0  0  0  0
  -23.7780  -27.2306   17.8848 C   0  0  0  0  0  0  0  0  0  0  0  0
  -26.4808  -26.0555   18.7358 C   0  0  0  0  0  0  0  0  0  0  0  0
  -29.1729  -24.2343   19.7717 C   0  0  0  0  0  0  0  0  0  0  0  0
  -30.7887  -14.6160   20.8998 C   0  0  0  0  0  0  0  0  0  0  0  0
  -21.1903  -29.6275   21.5748 C   0  0  0  0  0  0  0  0  0  0  0  0
  -23.3159  -24.9987   16.8990 C   0  0  0  0  0  0  0  0  0  0  0  0
  -26.0589  -25.3585   16.3282 C   0  0  0  0  0  0  0  0  0  0  0  0
  -22.6590  -29.3203   21.2940 C   0  0  0  0  0  0  0  0  0  0  0  0
  -29.5105  -12.5248   18.1258 C   0  0  0  0  0  0  0  0  0  0  0  0
  -23.0194  -29.7004   19.8614 C   0  0  0  0  0  0  0  0  0  0  0  0
  -28.1045  -12.1633   18.6017 C   0  0  0  0  0  0  0  0  0  0  0  0
  -30.4595  -12.7700   19.2950 C   0  0  0  0  0  0  0  0  0  0  0  0
  -28.5638  -13.4252   20.7411 C   0  0  0  0  0  0  0  0  0  0  0  0
  -22.1968  -28.8904   18.8521 C   0  0  1  0  0  0  0  0  0  0  0  0
  -24.1657  -25.7815   17.9160 C   0  0  1  0  0  0  0  0  0  0  0  0
  -27.5711  -13.2173   19.5875 C   0  0  2  0  0  0  0  0  0  0  0  0
  -31.8116  -20.8638   16.7767 C   0  0  0  0  0  0  0  0  0  0  0  0
  -31.2263  -23.6612   21.0956 C   0  0  0  0  0  0  0  0  0  0  0  0
  -27.8689  -27.7904   16.6461 C   0  0  0  0  0  0  0  0  0  0  0  0
  -30.0626  -27.1167   17.6470 C   0  0  0  0  0  0  0  0  0  0  0  0
  -28.4049  -28.3816   19.0162 C   0  0  0  0  0  0  0  0  0  0  0  0
  -31.1722  -16.8277   21.9200 C   0  0  0  0  0  0  0  0  0  0  0  0
  -27.5753  -22.9907   21.9304 C   0  0  0  0  0  0  0  0  0  0  0  0
  -29.0461  -16.4428   20.7295 C   0  0  0  0  0  0  0  0  0  0  0  0
  -28.0107  -19.3140   14.4931 C   0  0  0  0  0  0  0  0  0  0  0  0
  -30.4453  -20.9312   16.1841 C   0  0  0  0  0  0  0  0  0  0  0  0
  -29.4968  -19.1082   14.7609 C   0  0  0  0  0  0  0  0  0  0  0  0
  -27.5845  -20.7739   14.5947 C   0  0  0  0  0  0  0  0  0  1  0  0
  -27.9598  -25.9557   18.4604 C   0  0  1  0  0  0  0  0  0  0  0  0
  -29.7384  -23.9701   21.1555 C   0  0  2  0  0  0  0  0  0  0  0  0
  -28.5558  -27.2914   17.9330 C   0  0  0  0  0  0  0  0  0  0  0  0
  -25.8480  -11.5771   20.2377 N   0  0  0  0  0  0  0  0  0  0  0  0
  -26.1838  -12.8706   20.0951 N   0  0  0  0  0  0  0  0  0  0  0  0
  -25.6182  -25.7601   17.6732 N   0  0  0  0  0  0  0  0  0  0  0  0
  -29.9088  -13.7434   20.2386 N   0  0  0  0  0  0  0  0  0  0  0  0
  -25.3603  -15.0759   20.3581 N   0  0  0  0  0  0  0  0  0  0  0  0
  -21.8832  -12.5034   21.6574 N   0  0  0  0  0  0  0  0  0  0  0  0
  -22.7291  -27.5506   18.7255 N   0  0  0  0  0  0  0  0  0  0  0  0
  -28.5730  -25.4733   19.6932 N   0  0  0  0  0  0  0  0  0  0  0  0
  -29.8521  -19.5974   16.0711 N   0  0  3  0  0  0  0  0  0  0  0  0
  -30.2944  -15.8834   21.2436 N   0  0  0  0  0  0  0  0  0  0  0  0
  -29.0432  -22.8130   21.7869 N   0  3  0  0  0  0  0  0  0  0  0  0
  -22.5884  -14.6636   21.3497 O   0  0  0  0  0  0  0  0  0  0  0  0
  -24.3860  -28.0031   17.1532 O   0  0  0  0  0  0  0  0  0  0  0  0
  -26.0979  -26.3914   19.8600 O   0  0  0  0  0  0  0  0  0  0  0  0
  -29.2583  -23.4242   18.8514 O   0  0  0  0  0  0  0  0  0  0  0  0
  -31.9527  -14.2849   21.1590 O   0  0  0  0  0  0  0  0  0  0  0  0
  -21.7746   -6.9351   21.7892 O   0  0  0  0  0  0  0  0  0  0  0  0
  -26.1887  -20.8653   14.3123 O   0  0  0  0  0  0  0  0  0  1  0  0
  -18.9196   -6.7073   26.5010 F   0  0  0  0  0  0  0  0  0  0  0  0
  -28.9722  -19.2673   20.7645 F   0  0  0  0  0  0  0  0  0  0  0  0
  -22.3343   -5.0124   23.6952 F   0  0  0  0  0  0  0  0  0  0  0  0
  1  2  1  0  0  0  0
  1  5  2  0  0  0  0
  2  6  2  0  0  0  0
  3 10  2  0  0  0  0
  3 18  1  0  0  0  0
  4 11  1  0  0  0  0
  4 18  2  0  0  0  0
  5 20  1  0  0  0  0
  6 22  1  0  0  0  0
  7 12  2  0  0  0  0
  7 21  1  0  0  0  0
  8  9  2  0  0  0  0
  8 24  1  0  0  0  0
  9 25  1  0  0  0  0
 10 26  1  0  0  0  0
 11 26  2  0  0  0  0
 12 27  1  0  0  0  0
 13 14  2  0  0  0  0
 13 28  1  0  0  0  0
 14 29  1  0  0  0  0
 15 23  1  0  0  0  0
 15 27  2  0  0  0  0
 16 25  2  0  0  0  0
 16 30  1  0  0  0  0
 17 29  2  0  0  0  0
 17 31  1  0  0  0  0
 18 32  1  0  0  0  0
 19 32  1  0  0  0  0
 19 33  2  0  0  0  0
 19 34  1  0  0  0  0
 20 22  2  0  0  0  0
 20 39  1  0  0  0  0
 21 23  2  0  0  0  0
 21 40  1  0  0  0  0
 22 48  1  0  0  0  0
 23 41  1  0  0  0  0
 24 30  2  0  0  0  0
 24 58  1  0  0  0  0
 25 74  1  0  0  0  0
 26 82  1  0  0  0  0
 27 83  1  0  0  0  0
 28 31  2  0  0  0  0
 28 82  1  0  0  0  0
 29 84  1  0  0  0  0
 30 85  1  0  0  0  0
 31 86  1  0  0  0  0
 32 66  2  0  0  0  0
 33 67  1  0  0  0  0
 33 70  1  0  0  0  0
 34 71  1  0  0  0  0
 34 77  2  0  0  0  0
 35 49  1  0  0  0  0
 35 72  1  0  0  0  0
 35 78  2  0  0  0  0
 36 63  1  0  0  0  0
 36 68  1  0  0  0  0
 36 79  2  0  0  0  0
 37 64  1  0  0  0  0
 37 73  1  0  0  0  0
 37 80  2  0  0  0  0
 38 69  1  0  0  0  0
 38 75  1  0  0  0  0
 38 81  2  0  0  0  0
 39 42  1  0  0  0  0
 40 49  1  0  0  0  0
 41 68  1  0  0  0  0
 42 44  1  0  0  0  0
 43 45  1  0  0  0  0
 43 46  1  0  0  0  0
 44 48  1  0  0  0  0
 45 50  1  0  0  0  0
 46 69  1  0  0  0  0
 47 50  1  0  0  0  0
 47 69  1  0  0  0  0
 48 72  1  0  0  0  0
 49 68  1  0  0  0  0
 50 67  1  0  0  0  0
 51 60  1  0  0  0  0
 52 64  1  0  0  0  0
 53 65  1  0  0  0  0
 54 65  1  0  0  0  0
 55 65  1  0  0  0  0
 56 75  1  0  0  0  0
 57 76  1  0  0  0  0
 58 75  1  0  0  0  0
 59 61  1  0  0  0  0
 59 62  1  0  0  0  0
 60 74  1  0  0  0  0
 61 74  1  0  0  0  0
 62 83  1  0  0  0  0
 63 65  1  0  0  0  0
 63 73  1  0  0  0  0
 64 76  1  0  0  0  0
 66 67  1  0  0  0  0
M  CHG  1  76   1
M  ISO  4  38 100  62 101  75 100  83 101
M  END
> <Batch ID>
0019

> <Smiles>
CCN(CC[101CH2:1][101O:1]c1ccc2c(c1)CN(C(=O)C(NC(=O)C(C)NC)C(C)(C)C)C(C(=O)NC1CCCc3ccccc31)C2)c1ccc(C[100N:0](C)[100C:0](=O)N2CCCC(n3nc(-c4ccc(Oc5ccc(F)cc5F)cc4)c(C(N)=O)c3N)C2)c(F)c1

> <Shape>
0.281

> <Color>
0.205

> <Negative vol penalty>
0.000

$$$$

  -OEChem-04042321053D

 83 91  0     1  0  0  0  0  0999 V2000
  -16.6924  -29.1145   23.8144 C   0  0  0  0  0  0  0  0  0  0  0  0
  -17.2723  -28.5000   22.7092 C   0  0  0  0  0  0  0  0  0  0  0  0
  -25.7408  -22.3051   21.8184 C   0  0  0  0  0  0  0  0  0  0  0  0
  -27.5346  -10.9281   20.3907 C   0  0  0  0  0  0  0  0  0  0  0  0
  -26.7275  -12.4659   18.7112 C   0  0  0  0  0  0  0  0  0  0  0  0
  -17.3460  -30.1722   24.4453 C   0  0  0  0  0  0  0  0  0  0  0  0
  -18.5058  -28.9436   22.2336 C   0  0  0  0  0  0  0  0  0  0  0  0
  -21.6609  -25.1297   21.1639 C   0  0  0  0  0  0  0  0  0  0  0  0
  -25.4045  -22.4464   20.4722 C   0  0  0  0  0  0  0  0  0  0  0  0
  -26.5782  -21.2654   22.2227 C   0  0  0  0  0  0  0  0  0  0  0  0
  -26.5317  -10.0229   20.0439 C   0  0  0  0  0  0  0  0  0  0  0  0
  -25.7246  -11.5607   18.3643 C   0  0  0  0  0  0  0  0  0  0  0  0
  -21.4524  -24.4477   19.9660 C   0  0  0  0  0  0  0  0  0  0  0  0
  -23.2260   -9.6251   20.6257 C   0  0  0  0  0  0  0  0  0  0  0  0
  -22.5193   -9.0137   21.6613 C   0  0  0  0  0  0  0  0  0  0  0  0
  -23.2299  -25.7164   18.9412 C   0  0  0  0  0  0  0  0  0  0  0  0
  -26.7429  -20.5082   19.9344 C   0  0  0  0  0  0  0  0  0  0  0  0
  -23.2533   -6.8474   20.8834 C   0  0  0  0  0  0  0  0  0  0  0  0
  -27.6325  -12.1497   19.7244 C   0  0  0  0  0  0  0  0  0  0  0  0
  -29.9631  -13.1700   19.5375 C   0  0  0  0  0  0  0  0  0  0  0  0
  -18.5927  -30.6226   23.9831 C   0  0  0  0  0  0  0  0  0  0  0  0
  -22.6499  -26.1194   21.2566 C   0  0  0  0  0  0  0  0  0  0  0  0
  -19.1761  -30.0091   22.8581 C   0  0  0  0  0  0  0  0  0  0  0  0
  -23.4507  -26.4076   20.1423 C   0  0  0  0  0  0  0  0  0  0  0  0
  -25.9055  -21.5479   19.5301 C   0  0  0  0  0  0  0  0  0  0  0  0
  -27.0792  -20.3669   21.2807 C   0  0  0  0  0  0  0  0  0  0  0  0
  -25.6267  -10.3392   19.0306 C   0  0  0  0  0  0  0  0  0  0  0  0
  -22.2349  -24.7430   18.8535 C   0  0  0  0  0  0  0  0  0  0  0  0
  -23.9463   -8.8475   19.7189 C   0  0  0  0  0  0  0  0  0  0  0  0
  -22.5329   -7.6249   21.7901 C   0  0  0  0  0  0  0  0  0  0  0  0
  -23.9600   -7.4587   19.8477 C   0  0  0  0  0  0  0  0  0  0  0  0
  -28.6679  -13.0854   20.0827 C   0  0  0  0  0  0  0  0  0  0  0  0
  -30.5510  -14.2137   20.2094 C   0  0  0  0  0  0  0  0  0  0  0  0
  -30.5796  -12.3761   18.5150 C   0  0  0  0  0  0  0  0  0  0  0  0
  -22.6512  -29.2391   21.8662 C   0  0  0  0  0  0  0  0  0  0  0  0
  -25.8714  -28.8527   21.8127 C   0  0  0  0  0  0  0  0  0  0  0  0
  -28.5544  -27.0395   20.7352 C   0  0  0  0  0  0  0  0  0  0  0  0
  -28.3623  -19.0301   22.9874 C   0  0  0  0  0  0  0  0  0  0  0  0
  -19.2389  -31.8002   24.6689 C   0  0  0  0  0  0  0  0  0  0  0  0
  -22.8803  -26.8272   22.5637 C   0  0  0  0  0  0  0  0  0  0  0  0
  -24.5392  -27.4473   20.1955 C   0  0  0  0  0  0  0  0  0  0  0  0
  -20.7186  -31.9647   24.3315 C   0  0  0  0  0  0  0  0  0  0  0  0
  -30.4280  -16.5047   24.4131 C   0  0  0  0  0  0  0  0  0  0  0  0
  -20.9411  -31.8338   22.8282 C   0  0  0  0  0  0  0  0  0  0  0  0
  -30.3338  -15.3512   23.4117 C   0  0  0  0  0  0  0  0  0  0  0  0
  -29.0991  -17.2453   24.5517 C   0  0  0  0  0  0  0  0  0  0  0  0
  -28.4180  -16.5559   22.2867 C   0  0  0  0  0  0  0  0  0  0  0  0
  -20.5245  -30.4455   22.3276 C   0  0  1  0  0  0  0  0  0  0  0  0
  -23.5714  -28.1772   22.3984 C   0  0  1  0  0  0  0  0  0  0  0  0
  -29.7498  -15.8205   22.0648 C   0  0  2  0  0  0  0  0  0  0  0  0
  -30.9520  -26.3289   20.5262 C   0  0  0  0  0  0  0  0  0  0  0  0
  -25.9824  -31.1077   19.7603 C   0  0  0  0  0  0  0  0  0  0  0  0
  -28.3102  -30.3820   19.1920 C   0  0  0  0  0  0  0  0  0  0  0  0
  -27.7831  -31.1855   21.4940 C   0  0  0  0  0  0  0  0  0  0  0  0
  -28.3431  -25.2317   23.0690 C   0  0  0  0  0  0  0  0  0  0  0  0
  -24.0198  -19.7541   17.7802 C   0  0  0  0  0  0  0  0  0  0  0  0
  -25.5434  -21.7004   18.0821 C   0  0  0  0  0  0  0  0  0  0  0  0
  -22.0818  -21.9477   16.5840 C   0  0  0  0  0  0  0  0  0  0  0  0
  -23.6002  -21.8691   16.5342 C   0  0  0  0  0  0  0  0  0  0  0  0
  -21.5475  -22.7403   17.7707 C   0  0  0  0  0  0  0  0  0  1  0  0
  -26.9390  -28.9222   20.7476 C   0  0  1  0  0  0  0  0  0  0  0  0
  -29.7732  -26.5106   21.4696 C   0  0  2  0  0  0  0  0  0  0  0  0
  -27.2320  -30.3811   20.2966 C   0  0  0  0  0  0  0  0  0  0  0  0
  -28.4457  -14.0022   21.0282 N   0  0  0  0  0  0  0  0  0  0  0  0
  -29.6091  -14.6727   21.0825 N   0  0  0  0  0  0  0  0  0  0  0  0
  -24.7215  -28.1165   21.4941 N   0  0  0  0  0  0  0  0  0  0  0  0
  -28.6090  -17.6633   23.2364 N   0  0  0  0  0  0  0  0  0  0  0  0
  -31.7766  -14.7743   20.1328 N   0  0  0  0  0  0  0  0  0  0  0  0
  -29.8336  -11.3441   17.9296 N   0  0  0  0  0  0  0  0  0  0  0  0
  -27.9304  -19.3113   21.6917 N   0  0  0  0  0  0  0  0  0  0  0  0
  -21.5384  -29.4655   22.6535 N   0  0  0  0  0  0  0  0  0  0  0  0
  -28.0985  -28.2188   21.2853 N   0  0  0  0  0  0  0  0  0  0  0  0
  -29.4680  -25.1948   22.0993 N   0  3  0  0  0  0  0  0  0  0  0  0
  -24.1322  -21.2597   17.7756 N   0  3  1  0  0  0  0  0  0  0  0  0
  -31.7626  -12.5655   18.1434 O   0  0  0  0  0  0  0  0  0  0  0  0
  -22.9308  -29.8117   20.8195 O   0  0  0  0  0  0  0  0  0  0  0  0
  -26.0542  -29.4243   22.8904 O   0  0  0  0  0  0  0  0  0  0  0  0
  -28.0587  -26.4658   19.7679 O   0  0  0  0  0  0  0  0  0  0  0  0
  -28.5485  -19.8910   23.8512 O   0  0  0  0  0  0  0  0  0  0  0  0
  -24.6481   -9.4560   18.6917 O   0  0  0  0  0  0  0  0  0  0  0  0
  -22.0330  -24.0793   17.6828 O   0  0  0  0  0  0  0  0  0  1  0  0
  -21.8555   -7.0381   22.7856 F   0  0  0  0  0  0  0  0  0  0  0  0
  -24.6511   -6.7066   18.9803 F   0  0  0  0  0  0  0  0  0  0  0  0
  1  2  1  0  0  0  0
  1  6  2  0  0  0  0
  2  7  2  0  0  0  0
  3  9  2  0  0  0  0
  3 10  1  0  0  0  0
  4 11  2  0  0  0  0
  4 19  1  0  0  0  0
  5 12  1  0  0  0  0
  5 19  2  0  0  0  0
  6 21  1  0  0  0  0
  7 23  1  0  0  0  0
  8 13  2  0  0  0  0
  8 22  1  0  0  0  0
  9 25  1  0  0  0  0
 10 26  2  0  0  0  0
 11 27  1  0  0  0  0
 12 27  2  0  0  0  0
 13 28  1  0  0  0  0
 14 15  2  0  0  0  0
 14 29  1  0  0  0  0
 15 30  1  0  0  0  0
 16 24  1  0  0  0  0
 16 28  2  0  0  0  0
 17 25  2  0  0  0  0
 17 26  1  0  0  0  0
 18 30  2  0  0  0  0
 18 31  1  0  0  0  0
 19 32  1  0  0  0  0
 20 32  1  0  0  0  0
 20 33  2  0  0  0  0
 20 34  1  0  0  0  0
 21 23  2  0  0  0  0
 21 39  1  0  0  0  0
 22 24  2  0  0  0  0
 22 40  1  0  0  0  0
 23 48  1  0  0  0  0
 24 41  1  0  0  0  0
 25 57  1  0  0  0  0
 26 70  1  0  0  0  0
 27 80  1  0  0  0  0
 28 81  1  0  0  0  0
 29 31  2  0  0  0  0
 29 80  1  0  0  0  0
 30 82  1  0  0  0  0
 31 83  1  0  0  0  0
 32 64  2  0  0  0  0
 33 65  1  0  0  0  0
 33 68  1  0  0  0  0
 34 69  1  0  0  0  0
 34 75  2  0  0  0  0
 35 49  1  0  0  0  0
 35 71  1  0  0  0  0
 35 76  2  0  0  0  0
 36 61  1  0  0  0  0
 36 66  1  0  0  0  0
 36 77  2  0  0  0  0
 37 62  1  0  0  0  0
 37 72  1  0  0  0  0
 37 78  2  0  0  0  0
 38 67  1  0  0  0  0
 38 70  1  0  0  0  0
 38 79  2  0  0  0  0
 39 42  1  0  0  0  0
 40 49  1  0  0  0  0
 41 66  1  0  0  0  0
 42 44  1  0  0  0  0
 43 45  1  0  0  0  0
 43 46  1  0  0  0  0
 44 48  1  0  0  0  0
 45 50  1  0  0  0  0
 46 67  1  0  0  0  0
 47 50  1  0  0  0  0
 47 67  1  0  0  0  0
 48 71  1  0  0  0  0
 49 66  1  0  0  0  0
 50 65  1  0  0  0  0
 51 62  1  0  0  0  0
 52 63  1  0  0  0  0
 53 63  1  0  0  0  0
 54 63  1  0  0  0  0
 55 73  1  0  0  0  0
 56 74  1  0  0  0  0
 57 74  1  0  0  0  0
 58 59  1  0  0  0  0
 58 60  1  0  0  0  0
 59 74  1  0  0  0  0
 60 81  1  0  0  0  0
 61 63  1  0  0  0  0
 61 72  1  0  0  0  0
 62 73  1  0  0  0  0
 64 65  1  0  0  0  0
M  CHG  2  73   1  74   1
M  ISO  4  38 100  60 101  70 100  81 101
M  END
> <Batch ID>
0019

> <Smiles>
CNC(C)C(=O)NC(C(=O)N1Cc2cc([101O:1][101CH2:1]CCN(C)Cc3cccc([100NH:0][100C:0](=O)N4CCCC(n5nc(-c6ccc(Oc7ccc(F)cc7F)cc6)c(C(N)=O)c5N)C4)c3)ccc2CC1C(=O)NC1CCCc2ccccc21)C(C)(C)C

> <Shape>
0.240

> <Color>
0.078

> <Negative vol penalty>
0.000

$$$$
