
  -OEChem-04042321083D

 83 91  0     1  0  0  0  0  0999 V2000
  -16.6924  -29.1145   23.8144 C   0  0  0  0  0  0  0  0  0  0  0  0
  -17.2723  -28.5000   22.7092 C   0  0  0  0  0  0  0  0  0  0  0  0
  -25.7408  -22.3051   21.8184 C   0  0  0  0  0  0  0  0  0  0  0  0
  -27.5346  -10.9281   20.3907 C   0  0  0  0  0  0  0  0  0  0  0  0
  -26.7275  -12.4659   18.7112 C   0  0  0  0  0  0  0  0  0  0  0  0
  -17.3460  -30.1722   24.4453 C   0  0  0  0  0  0  0  0  0  0  0  0
  -18.5058  -28.9436   22.2336 C   0  0  0  0  0  0  0  0  0  0  0  0
  -21.6609  -25.1297   21.1639 C   0  0  0  0  0  0  0  0  0  0  0  0
  -25.4045  -22.4464   20.4722 C   0  0  0  0  0  0  0  0  0  0  0  0
  -26.5782  -21.2654   22.2227 C   0  0  0  0  0  0  0  0  0  0  0  0
  -26.5317  -10.0229   20.0439 C   0  0  0  0  0  0  0  0  0  0  0  0
  -25.7246  -11.5607   18.3643 C   0  0  0  0  0  0  0  0  0  0  0  0
  -21.4524  -24.4477   19.9660 C   0  0  0  0  0  0  0  0  0  0  0  0
  -23.2260   -9.6251   20.6257 C   0  0  0  0  0  0  0  0  0  0  0  0
  -22.5193   -9.0137   21.6613 C   0  0  0  0  0  0  0  0  0  0  0  0
  -23.2299  -25.7164   18.9412 C   0  0  0  0  0  0  0  0  0  0  0  0
  -26.7429  -20.5082   19.9344 C   0  0  0  0  0  0  0  0  0  0  0  0
  -23.2533   -6.8474   20.8834 C   0  0  0  0  0  0  0  0  0  0  0  0
  -27.6325  -12.1497   19.7244 C   0  0  0  0  0  0  0  0  0  0  0  0
  -29.9631  -13.1700   19.5375 C   0  0  0  0  0  0  0  0  0  0  0  0
  -18.5927  -30.6226   23.9831 C   0  0  0  0  0  0  0  0  0  0  0  0
  -22.6499  -26.1194   21.2566 C   0  0  0  0  0  0  0  0  0  0  0  0
  -19.1761  -30.0091   22.8581 C   0  0  0  0  0  0  0  0  0  0  0  0
  -23.4507  -26.4076   20.1423 C   0  0  0  0  0  0  0  0  0  0  0  0
  -25.9055  -21.5479   19.5301 C   0  0  0  0  0  0  0  0  0  0  0  0
  -27.0792  -20.3669   21.2807 C   0  0  0  0  0  0  0  0  0  0  0  0
  -25.6267  -10.3392   19.0306 C   0  0  0  0  0  0  0  0  0  0  0  0
  -22.2349  -24.7430   18.8535 C   0  0  0  0  0  0  0  0  0  0  0  0
  -23.9463   -8.8475   19.7189 C   0  0  0  0  0  0  0  0  0  0  0  0
  -22.5329   -7.6249   21.7901 C   0  0  0  0  0  0  0  0  0  0  0  0
  -23.9600   -7.4587   19.8477 C   0  0  0  0  0  0  0  0  0  0  0  0
  -28.6679  -13.0854   20.0827 C   0  0  0  0  0  0  0  0  0  0  0  0
  -30.5510  -14.2137   20.2094 C   0  0  0  0  0  0  0  0  0  0  0  0
  -30.5796  -12.3761   18.5150 C   0  0  0  0  0  0  0  0  0  0  0  0
  -22.6512  -29.2391   21.8662 C   0  0  0  0  0  0  0  0  0  0  0  0
  -25.8714  -28.8527   21.8127 C   0  0  0  0  0  0  0  0  0  0  0  0
  -28.5544  -27.0395   20.7352 C   0  0  0  0  0  0  0  0  0  0  0  0
  -28.3623  -19.0301   22.9874 C   0  0  0  0  0  0  0  0  0  0  0  0
  -19.2389  -31.8002   24.6689 C   0  0  0  0  0  0  0  0  0  0  0  0
  -22.8803  -26.8272   22.5637 C   0  0  0  0  0  0  0  0  0  0  0  0
  -24.5392  -27.4473   20.1955 C   0  0  0  0  0  0  0  0  0  0  0  0
  -20.7186  -31.9647   24.3315 C   0  0  0  0  0  0  0  0  0  0  0  0
  -30.4280  -16.5047   24.4131 C   0  0  0  0  0  0  0  0  0  0  0  0
  -20.9411  -31.8338   22.8282 C   0  0  0  0  0  0  0  0  0  0  0  0
  -30.3338  -15.3512   23.4117 C   0  0  0  0  0  0  0  0  0  0  0  0
  -29.0991  -17.2453   24.5517 C   0  0  0  0  0  0  0  0  0  0  0  0
  -28.4180  -16.5559   22.2867 C   0  0  0  0  0  0  0  0  0  0  0  0
  -20.5245  -30.4455   22.3276 C   0  0  1  0  0  0  0  0  0  0  0  0
  -23.5714  -28.1772   22.3984 C   0  0  1  0  0  0  0  0  0  0  0  0
  -29.7498  -15.8205   22.0648 C   0  0  2  0  0  0  0  0  0  0  0  0
  -30.9520  -26.3289   20.5262 C   0  0  0  0  0  0  0  0  0  0  0  0
  -25.9824  -31.1077   19.7603 C   0  0  0  0  0  0  0  0  0  0  0  0
  -28.3102  -30.3820   19.1920 C   0  0  0  0  0  0  0  0  0  0  0  0
  -27.7831  -31.1855   21.4940 C   0  0  0  0  0  0  0  0  0  0  0  0
  -28.3431  -25.2317   23.0690 C   0  0  0  0  0  0  0  0  0  0  0  0
  -24.0198  -19.7541   17.7802 C   0  0  0  0  0  0  0  0  0  0  0  0
  -25.5434  -21.7004   18.0821 C   0  0  0  0  0  0  0  0  0  0  0  0
  -22.0818  -21.9477   16.5840 C   0  0  0  0  0  0  0  0  0  0  0  0
  -23.6002  -21.8691   16.5342 C   0  0  0  0  0  0  0  0  0  0  0  0
  -21.5475  -22.7403   17.7707 C   0  0  0  0  0  0  0  0  0  1  0  0
  -26.9390  -28.9222   20.7476 C   0  0  1  0  0  0  0  0  0  0  0  0
  -29.7732  -26.5106   21.4696 C   0  0  2  0  0  0  0  0  0  0  0  0
  -27.2320  -30.3811   20.2966 C   0  0  0  0  0  0  0  0  0  0  0  0
  -28.4457  -14.0022   21.0282 N   0  0  0  0  0  0  0  0  0  0  0  0
  -29.6091  -14.6727   21.0825 N   0  0  0  0  0  0  0  0  0  0  0  0
  -24.7215  -28.1165   21.4941 N   0  0  0  0  0  0  0  0  0  0  0  0
  -28.6090  -17.6633   23.2364 N   0  0  0  0  0  0  0  0  0  0  0  0
  -31.7766  -14.7743   20.1328 N   0  0  0  0  0  0  0  0  0  0  0  0
  -29.8336  -11.3441   17.9296 N   0  0  0  0  0  0  0  0  0  0  0  0
  -27.9304  -19.3113   21.6917 N   0  0  0  0  0  0  0  0  0  0  0  0
  -21.5384  -29.4655   22.6535 N   0  0  0  0  0  0  0  0  0  0  0  0
  -28.0985  -28.2188   21.2853 N   0  0  0  0  0  0  0  0  0  0  0  0
  -29.4680  -25.1948   22.0993 N   0  3  0  0  0  0  0  0  0  0  0  0
  -24.1322  -21.2597   17.7756 N   0  3  1  0  0  0  0  0  0  0  0  0
  -31.7626  -12.5655   18.1434 O   0  0  0  0  0  0  0  0  0  0  0  0
  -22.9308  -29.8117   20.8195 O   0  0  0  0  0  0  0  0  0  0  0  0
  -26.0542  -29.4243   22.8904 O   0  0  0  0  0  0  0  0  0  0  0  0
  -28.0587  -26.4658   19.7679 O   0  0  0  0  0  0  0  0  0  0  0  0
  -28.5485  -19.8910   23.8512 O   0  0  0  0  0  0  0  0  0  0  0  0
  -24.6481   -9.4560   18.6917 O   0  0  0  0  0  0  0  0  0  0  0  0
  -22.0330  -24.0793   17.6828 O   0  0  0  0  0  0  0  0  0  1  0  0
  -21.8555   -7.0381   22.7856 F   0  0  0  0  0  0  0  0  0  0  0  0
  -24.6511   -6.7066   18.9803 F   0  0  0  0  0  0  0  0  0  0  0  0
  1  2  1  0  0  0  0
  1  6  2  0  0  0  0
  2  7  2  0  0  0  0
  3  9  2  0  0  0  0
  3 10  1  0  0  0  0
  4 11  2  0  0  0  0
  4 19  1  0  0  0  0
  5 12  1  0  0  0  0
  5 19  2  0  0  0  0
  6 21  1  0  0  0  0
  7 23  1  0  0  0  0
  8 13  2  0  0  0  0
  8 22  1  0  0  0  0
  9 25  1  0  0  0  0
 10 26  2  0  0  0  0
 11 27  1  0  0  0  0
 12 27  2  0  0  0  0
 13 28  1  0  0  0  0
 14 15  2  0  0  0  0
 14 29  1  0  0  0  0
 15 30  1  0  0  0  0
 16 24  1  0  0  0  0
 16 28  2  0  0  0  0
 17 25  2  0  0  0  0
 17 26  1  0  0  0  0
 18 30  2  0  0  0  0
 18 31  1  0  0  0  0
 19 32  1  0  0  0  0
 20 32  1  0  0  0  0
 20 33  2  0  0  0  0
 20 34  1  0  0  0  0
 21 23  2  0  0  0  0
 21 39  1  0  0  0  0
 22 24  2  0  0  0  0
 22 40  1  0  0  0  0
 23 48  1  0  0  0  0
 24 41  1  0  0  0  0
 25 57  1  0  0  0  0
 26 70  1  0  0  0  0
 27 80  1  0  0  0  0
 28 81  1  0  0  0  0
 29 31  2  0  0  0  0
 29 80  1  0  0  0  0
 30 82  1  0  0  0  0
 31 83  1  0  0  0  0
 32 64  2  0  0  0  0
 33 65  1  0  0  0  0
 33 68  1  0  0  0  0
 34 69  1  0  0  0  0
 34 75  2  0  0  0  0
 35 49  1  0  0  0  0
 35 71  1  0  0  0  0
 35 76  2  0  0  0  0
 36 61  1  0  0  0  0
 36 66  1  0  0  0  0
 36 77  2  0  0  0  0
 37 62  1  0  0  0  0
 37 72  1  0  0  0  0
 37 78  2  0  0  0  0
 38 67  1  0  0  0  0
 38 70  1  0  0  0  0
 38 79  2  0  0  0  0
 39 42  1  0  0  0  0
 40 49  1  0  0  0  0
 41 66  1  0  0  0  0
 42 44  1  0  0  0  0
 43 45  1  0  0  0  0
 43 46  1  0  0  0  0
 44 48  1  0  0  0  0
 45 50  1  0  0  0  0
 46 67  1  0  0  0  0
 47 50  1  0  0  0  0
 47 67  1  0  0  0  0
 48 71  1  0  0  0  0
 49 66  1  0  0  0  0
 50 65  1  0  0  0  0
 51 62  1  0  0  0  0
 52 63  1  0  0  0  0
 53 63  1  0  0  0  0
 54 63  1  0  0  0  0
 55 73  1  0  0  0  0
 56 74  1  0  0  0  0
 57 74  1  0  0  0  0
 58 59  1  0  0  0  0
 58 60  1  0  0  0  0
 59 74  1  0  0  0  0
 60 81  1  0  0  0  0
 61 63  1  0  0  0  0
 61 72  1  0  0  0  0
 62 73  1  0  0  0  0
 64 65  1  0  0  0  0
M  CHG  2  73   1  74   1
M  ISO  4  38 100  60 101  70 100  81 101
M  END
> <Batch ID>
0020

> <Smiles>
CNC(C)C(=O)NC(C(=O)N1Cc2cc([101O:1][101CH2:1]CCN(C)Cc3cccc([100NH:0][100C:0](=O)N4CCCC(n5nc(-c6ccc(Oc7ccc(F)cc7F)cc6)c(C(N)=O)c5N)C4)c3)ccc2CC1C(=O)NC1CCCc2ccccc21)C(C)(C)C

> <Shape>
0.240

> <Color>
0.078

> <Negative vol penalty>
0.000

$$$$

  -OEChem-04042321083D

 86 95  0     1  0  0  0  0  0999 V2000
  -27.1746  -33.0948   27.1278 C   0  0  0  0  0  0  0  0  0  0  0  0
  -27.5417  -32.0272   26.3149 C   0  0  0  0  0  0  0  0  0  0  0  0
  -23.7505   -9.6157   20.3231 C   0  0  0  0  0  0  0  0  0  0  0  0
  -24.2575  -10.1252   22.6297 C   0  0  0  0  0  0  0  0  0  0  0  0
  -25.8277  -33.3322   27.3988 C   0  0  0  0  0  0  0  0  0  0  0  0
  -26.5620  -31.1957   25.7733 C   0  0  0  0  0  0  0  0  0  0  0  0
  -27.3632  -30.1835   20.8765 C   0  0  0  0  0  0  0  0  0  0  0  0
  -29.6581  -20.4917   20.0228 C   0  0  0  0  0  0  0  0  0  0  0  0
  -29.7988  -19.1196   20.2300 C   0  0  0  0  0  0  0  0  0  0  0  0
  -23.2575   -8.3686   20.7069 C   0  0  0  0  0  0  0  0  0  0  0  0
  -23.7645   -8.8782   23.0135 C   0  0  0  0  0  0  0  0  0  0  0  0
  -28.3317  -29.2273   20.5741 C   0  0  0  0  0  0  0  0  0  0  0  0
  -20.7474   -7.4447   23.5266 C   0  0  0  0  0  0  0  0  0  0  0  0
  -19.9049   -7.3965   24.6371 C   0  0  0  0  0  0  0  0  0  0  0  0
  -26.5976  -27.5821   20.2495 C   0  0  0  0  0  0  0  0  0  0  0  0
  -27.8562  -20.5499   21.6312 C   0  0  0  0  0  0  0  0  0  0  0  0
  -21.4624   -5.9262   25.7549 C   0  0  0  0  0  0  0  0  0  0  0  0
  -24.2506  -10.4940   21.2845 C   0  0  0  0  0  0  0  0  0  0  0  0
  -24.0386  -12.9859   20.7815 C   0  0  0  0  0  0  0  0  0  0  0  0
  -24.8305  -32.5090   26.8524 C   0  0  0  0  0  0  0  0  0  0  0  0
  -26.0029  -29.8428   20.8783 C   0  0  0  0  0  0  0  0  0  0  0  0
  -25.2006  -31.4215   26.0383 C   0  0  0  0  0  0  0  0  0  0  0  0
  -25.6136  -28.5365   20.5497 C   0  0  0  0  0  0  0  0  0  0  0  0
  -28.6868  -21.2070   20.7235 C   0  0  0  0  0  0  0  0  0  0  0  0
  -28.9682  -18.4626   21.1378 C   0  0  0  0  0  0  0  0  0  0  0  0
  -23.2644   -7.9998   22.0521 C   0  0  0  0  0  0  0  0  0  0  0  0
  -27.9492  -27.9257   20.2634 C   0  0  0  0  0  0  0  0  0  0  0  0
  -21.9474   -6.7336   23.5301 C   0  0  0  0  0  0  0  0  0  0  0  0
  -20.2623   -6.6373   25.7513 C   0  0  0  0  0  0  0  0  0  0  0  0
  -27.9969  -19.1777   21.8384 C   0  0  0  0  0  0  0  0  0  0  0  0
  -22.3049   -5.9744   24.6443 C   0  0  0  0  0  0  0  0  0  0  0  0
  -24.7605  -11.7821   20.8885 C   0  0  0  0  0  0  0  0  0  0  0  0
  -24.9697  -13.9096   20.3736 C   0  0  0  0  0  0  0  0  0  0  0  0
  -22.6504  -13.2460   21.0287 C   0  0  0  0  0  0  0  0  0  0  0  0
  -23.7021  -29.8079   23.0712 C   0  0  0  0  0  0  0  0  0  0  0  0
  -21.8266  -29.0719   20.5289 C   0  0  0  0  0  0  0  0  0  0  0  0
  -21.5907  -27.7696   17.3832 C   0  0  0  0  0  0  0  0  0  0  0  0
  -30.0264  -16.2129   20.7309 C   0  0  0  0  0  0  0  0  0  0  0  0
  -23.3905  -32.7767   27.2120 C   0  0  0  0  0  0  0  0  0  0  0  0
  -24.9689  -30.8925   21.1805 C   0  0  0  0  0  0  0  0  0  0  0  0
  -24.1651  -28.1249   20.5178 C   0  0  0  0  0  0  0  0  0  0  0  0
  -22.3928  -32.0735   26.2953 C   0  0  0  0  0  0  0  0  0  0  0  0
  -29.7125  -13.2946   18.7155 C   0  0  0  0  0  0  0  0  0  0  0  0
  -29.9341  -25.0139   23.0026 C   0  0  0  0  0  0  0  0  0  0  0  0
  -22.7934  -30.6162   26.0883 C   0  0  0  0  0  0  0  0  0  0  0  0
  -28.3368  -12.7400   19.0923 C   0  0  0  0  0  0  0  0  0  0  0  0
  -30.6568  -25.5209   21.7660 C   0  0  0  0  0  0  0  0  0  0  0  0
  -30.4302  -13.8985   19.9212 C   0  0  0  0  0  0  0  0  0  0  0  0
  -28.2825  -14.3479   21.0413 C   0  0  0  0  0  0  0  0  0  0  0  0
  -29.4776  -23.6060   22.6551 C   0  0  0  0  0  0  0  0  0  0  0  0
  -24.1658  -30.5120   25.4121 C   0  0  1  0  0  0  0  0  0  0  0  0
  -23.6429  -30.3060   21.6548 C   0  0  1  0  0  0  0  0  0  0  0  0
  -27.4942  -13.7873   19.8464 C   0  0  2  0  0  0  0  0  0  0  0  0
  -29.8939  -24.8889   20.5981 C   0  0  2  0  0  0  0  0  0  0  0  0
  -30.7659  -24.7854   19.3469 C   0  0  0  0  0  0  0  0  0  0  0  0
  -19.9202  -27.2677   15.5791 C   0  0  0  0  0  0  0  0  0  0  0  0
  -20.8538  -26.6485   22.1072 C   0  0  0  0  0  0  0  0  0  0  0  0
  -19.9627  -25.7005   19.9682 C   0  0  0  0  0  0  0  0  0  0  0  0
  -19.0656  -27.8571   20.8440 C   0  0  0  0  0  0  0  0  0  0  0  0
  -22.9409  -29.5784   15.4690 C   0  0  0  0  0  0  0  0  0  0  0  0
  -28.5346  -22.6827   20.4999 C   0  0  0  0  0  0  0  0  0  0  0  0
  -28.5882  -25.6352   20.2963 C   0  0  0  0  0  0  0  0  0  1  0  0
  -21.3919  -27.7924   19.8560 C   0  0  1  0  0  0  0  0  0  0  0  0
  -20.9088  -28.2844   16.1285 C   0  0  2  0  0  0  0  0  0  0  0  0
  -20.3460  -27.0065   20.6962 C   0  0  0  0  0  0  0  0  0  0  0  0
  -26.0507  -11.9249   20.5739 N   0  0  0  0  0  0  0  0  0  0  0  0
  -26.1468  -13.2293   20.2650 N   0  0  0  0  0  0  0  0  0  0  0  0
  -23.1919  -29.1856   20.8267 N   0  0  0  0  0  0  0  0  0  0  0  0
  -29.5734  -14.8848   20.5830 N   0  0  0  0  0  0  0  0  0  0  0  0
  -24.8881  -15.2292   20.1008 N   0  0  0  0  0  0  0  0  0  0  0  0
  -21.8349  -12.1836   21.4419 N   0  0  0  0  0  0  0  0  0  0  0  0
  -29.1130  -17.0685   21.3459 N   0  0  0  0  0  0  0  0  0  0  0  0
  -24.0517  -30.7755   23.9937 N   0  0  0  0  0  0  0  0  0  0  0  0
  -20.9281  -28.1684   18.5248 N   0  0  0  0  0  0  0  0  0  0  0  0
  -29.6178  -23.4892   21.1474 N   0  3  2  0  0  0  0  0  0  0  0  0
  -21.9190  -28.5757   15.0723 N   0  3  0  0  0  0  0  0  0  0  0  0
  -22.1446  -14.3831   20.8716 O   0  0  0  0  0  0  0  0  0  0  0  0
  -23.4480  -28.6330   23.3096 O   0  0  0  0  0  0  0  0  0  0  0  0
  -20.9869  -29.9414   20.7747 O   0  0  0  0  0  0  0  0  0  0  0  0
  -22.6072  -27.0794   17.3535 O   0  0  0  0  0  0  0  0  0  0  0  0
  -31.1315  -16.5716   20.3163 O   0  0  0  0  0  0  0  0  0  0  0  0
  -22.7832   -6.7831   22.4271 O   0  0  0  0  0  0  0  0  0  0  0  0
  -28.8925  -26.9903   19.9685 O   0  0  0  0  0  0  0  0  0  1  0  0
  -19.4539   -6.5923   26.8183 F   0  0  0  0  0  0  0  0  0  0  0  0
  -27.1921  -18.5563   22.7123 F   0  0  0  0  0  0  0  0  0  0  0  0
  -23.4571   -5.2901   24.6540 F   0  0  0  0  0  0  0  0  0  0  0  0
  1  2  1  0  0  0  0
  1  5  2  0  0  0  0
  2  6  2  0  0  0  0
  3 10  2  0  0  0  0
  3 18  1  0  0  0  0
  4 11  1  0  0  0  0
  4 18  2  0  0  0  0
  5 20  1  0  0  0  0
  6 22  1  0  0  0  0
  7 12  2  0  0  0  0
  7 21  1  0  0  0  0
  8  9  2  0  0  0  0
  8 24  1  0  0  0  0
  9 25  1  0  0  0  0
 10 26  1  0  0  0  0
 11 26  2  0  0  0  0
 12 27  1  0  0  0  0
 13 14  2  0  0  0  0
 13 28  1  0  0  0  0
 14 29  1  0  0  0  0
 15 23  1  0  0  0  0
 15 27  2  0  0  0  0
 16 24  2  0  0  0  0
 16 30  1  0  0  0  0
 17 29  2  0  0  0  0
 17 31  1  0  0  0  0
 18 32  1  0  0  0  0
 19 32  1  0  0  0  0
 19 33  2  0  0  0  0
 19 34  1  0  0  0  0
 20 22  2  0  0  0  0
 20 39  1  0  0  0  0
 21 23  2  0  0  0  0
 21 40  1  0  0  0  0
 22 51  1  0  0  0  0
 23 41  1  0  0  0  0
 24 61  1  0  0  0  0
 25 30  2  0  0  0  0
 25 72  1  0  0  0  0
 26 82  1  0  0  0  0
 27 83  1  0  0  0  0
 28 31  2  0  0  0  0
 28 82  1  0  0  0  0
 29 84  1  0  0  0  0
 30 85  1  0  0  0  0
 31 86  1  0  0  0  0
 32 66  2  0  0  0  0
 33 67  1  0  0  0  0
 33 70  1  0  0  0  0
 34 71  1  0  0  0  0
 34 77  2  0  0  0  0
 35 52  1  0  0  0  0
 35 73  1  0  0  0  0
 35 78  2  0  0  0  0
 36 63  1  0  0  0  0
 36 68  1  0  0  0  0
 36 79  2  0  0  0  0
 37 64  1  0  0  0  0
 37 74  1  0  0  0  0
 37 80  2  0  0  0  0
 38 69  1  0  0  0  0
 38 72  1  0  0  0  0
 38 81  2  0  0  0  0
 39 42  1  0  0  0  0
 40 52  1  0  0  0  0
 41 68  1  0  0  0  0
 42 45  1  0  0  0  0
 43 46  1  0  0  0  0
 43 48  1  0  0  0  0
 44 47  1  0  0  0  0
 44 50  1  0  0  0  0
 45 51  1  0  0  0  0
 46 53  1  0  0  0  0
 47 54  1  0  0  0  0
 48 69  1  0  0  0  0
 49 53  1  0  0  0  0
 49 69  1  0  0  0  0
 50 75  1  0  0  0  0
 51 73  1  0  0  0  0
 52 68  1  0  0  0  0
 53 67  1  0  0  0  0
 54 55  1  0  0  0  0
 54 62  1  0  0  0  0
 54 75  1  0  0  0  0
 56 64  1  0  0  0  0
 57 65  1  0  0  0  0
 58 65  1  0  0  0  0
 59 65  1  0  0  0  0
 60 76  1  0  0  0  0
 61 75  1  0  0  0  0
 62 83  1  0  0  0  0
 63 65  1  0  0  0  0
 63 74  1  0  0  0  0
 64 76  1  0  0  0  0
 66 67  1  0  0  0  0
M  CHG  2  75   1  76   1
M  ISO  4  38 100  62 101  72 100  83 101
M  END
> <Batch ID>
0020

> <Smiles>
CNC(C)C(=O)NC(C(=O)N1Cc2cc([101O:1][101CH2:1]C3(C)CCCN3Cc3ccc([100NH:0][100C:0](=O)N4CCCC(n5nc(-c6ccc(Oc7ccc(F)cc7F)cc6)c(C(N)=O)c5N)C4)c(F)c3)ccc2CC1C(=O)NC1CCCc2ccccc21)C(C)(C)C

> <Shape>
0.374

> <Color>
0.172

> <Negative vol penalty>
0.000

$$$$

  -OEChem-04042321083D

 90 98  0     1  0  0  0  0  0999 V2000
  -29.8938  -26.5682   13.3214 C   0  0  0  0  0  0  0  0  0  0  0  0
  -29.8188  -26.0980   14.6286 C   0  0  0  0  0  0  0  0  0  0  0  0
  -23.3635   -9.7318   19.8983 C   0  0  0  0  0  0  0  0  0  0  0  0
  -23.6035  -10.0067   22.2866 C   0  0  0  0  0  0  0  0  0  0  0  0
  -29.7013  -27.9236   13.0573 C   0  0  0  0  0  0  0  0  0  0  0  0
  -29.5524  -26.9831   15.6726 C   0  0  0  0  0  0  0  0  0  0  0  0
  -26.1148  -25.1758   18.9224 C   0  0  0  0  0  0  0  0  0  0  0  0
  -30.4484  -15.9221   21.9249 C   0  0  0  0  0  0  0  0  0  0  0  0
  -30.8945  -17.2361   21.7831 C   0  0  0  0  0  0  0  0  0  0  0  0
  -22.6200   -8.5702   20.1067 C   0  0  0  0  0  0  0  0  0  0  0  0
  -22.8599   -8.8451   22.4950 C   0  0  0  0  0  0  0  0  0  0  0  0
  -26.5496  -24.2274   19.8471 C   0  0  0  0  0  0  0  0  0  0  0  0
  -19.6051   -7.9362   22.4757 C   0  0  0  0  0  0  0  0  0  0  0  0
  -18.6123   -7.9710   23.4549 C   0  0  0  0  0  0  0  0  0  0  0  0
  -26.6963  -25.9468   21.5326 C   0  0  0  0  0  0  0  0  0  0  0  0
  -30.8819  -17.4994   24.1847 C   0  0  0  0  0  0  0  0  0  0  0  0
  -19.7236   -6.1862   24.6451 C   0  0  0  0  0  0  0  0  0  0  0  0
  -23.8554  -10.4500   20.9883 C   0  0  0  0  0  0  0  0  0  0  0  0
  -24.1349  -12.9658   20.6716 C   0  0  0  0  0  0  0  0  0  0  0  0
  -29.4228  -28.8243   14.0975 C   0  0  0  0  0  0  0  0  0  0  0  0
  -25.9776  -26.5211   19.2936 C   0  0  0  0  0  0  0  0  0  0  0  0
  -29.3574  -28.3521   15.4223 C   0  0  0  0  0  0  0  0  0  0  0  0
  -26.2571  -26.9100   20.6115 C   0  0  0  0  0  0  0  0  0  0  0  0
  -30.2190  -15.3968   23.1965 C   0  0  0  0  0  0  0  0  0  0  0  0
  -31.1112  -18.0247   22.9131 C   0  0  0  0  0  0  0  0  0  0  0  0
  -22.3681   -8.1269   21.4050 C   0  0  0  0  0  0  0  0  0  0  0  0
  -26.8433  -24.6133   21.1517 C   0  0  0  0  0  0  0  0  0  0  0  0
  -20.6571   -7.0263   22.5812 C   0  0  0  0  0  0  0  0  0  0  0  0
  -18.6716   -7.0960   24.5396 C   0  0  0  0  0  0  0  0  0  0  0  0
  -30.4358  -16.1854   24.3264 C   0  0  0  0  0  0  0  0  0  0  0  0
  -20.7164   -6.1514   23.6659 C   0  0  0  0  0  0  0  0  0  0  0  0
  -24.6240  -11.6497   20.7737 C   0  0  0  0  0  0  0  0  0  0  0  0
  -25.2557  -13.7341   20.4714 C   0  0  0  0  0  0  0  0  0  0  0  0
  -22.7879  -13.4506   20.7506 C   0  0  0  0  0  0  0  0  0  0  0  0
  -27.3202  -29.2507   18.3711 C   0  0  0  0  0  0  0  0  0  0  0  0
  -25.1231  -30.5547   20.3697 C   0  0  0  0  0  0  0  0  0  0  0  0
  -23.0668  -30.1654   23.0655 C   0  0  0  0  0  0  0  0  0  0  0  0
  -31.0731  -12.4197   21.8746 C   0  0  0  0  0  0  0  0  0  0  0  0
  -29.2690  -30.2881   13.7686 C   0  0  0  0  0  0  0  0  0  0  0  0
  -25.4819  -27.5273   18.2914 C   0  0  0  0  0  0  0  0  0  0  0  0
  -26.1068  -28.3381   21.0657 C   0  0  0  0  0  0  0  0  0  0  0  0
  -28.6199  -31.0989   14.8873 C   0  0  0  0  0  0  0  0  0  0  0  0
  -29.6650  -13.5396   18.6397 C   0  0  0  0  0  0  0  0  0  0  0  0
  -29.2538  -30.7562   16.2318 C   0  0  0  0  0  0  0  0  0  0  0  0
  -28.1788  -13.2223   18.7956 C   0  0  0  0  0  0  0  0  0  0  0  0
  -30.5353  -12.6035   19.4729 C   0  0  0  0  0  0  0  0  0  0  0  0
  -28.6821  -12.2467   21.0706 C   0  0  0  0  0  0  0  0  0  0  0  0
  -29.0458  -29.2770   16.5788 C   0  0  1  0  0  0  0  0  0  0  0  0
  -25.8709  -28.9604   18.6410 C   0  0  1  0  0  0  0  0  0  0  0  0
  -27.7750  -13.2017   20.2802 C   0  0  2  0  0  0  0  0  0  0  0  0
  -35.3386  -19.9142   22.4089 C   0  0  0  0  0  0  0  0  0  0  0  0
  -21.4211  -31.4198   24.4851 C   0  0  0  0  0  0  0  0  0  0  0  0
  -27.4243  -32.0079   21.7490 C   0  0  0  0  0  0  0  0  0  0  0  0
  -25.8923  -32.4579   23.6774 C   0  0  0  0  0  0  0  0  0  0  0  0
  -25.3644  -33.3882   21.4238 C   0  0  0  0  0  0  0  0  0  0  0  0
  -31.7874  -12.8982   24.1855 C   0  0  0  0  0  0  0  0  0  0  0  0
  -20.8709  -28.3093   22.3642 C   0  0  0  0  0  0  0  0  0  0  0  0
  -29.7421  -13.9914   23.3445 C   0  0  0  0  0  0  0  0  0  0  0  0
  -34.0086  -19.6124   23.0846 C   0  0  0  0  0  0  0  0  0  0  0  0
  -29.8201  -20.9262   22.1588 C   0  0  0  0  0  0  0  0  0  0  0  0
  -32.8380  -19.6158   22.1088 C   0  0  0  0  0  0  0  0  0  0  0  0
  -30.7813  -20.4615   23.2504 C   0  0  0  0  0  0  0  0  0  0  0  0
  -28.0043  -22.5764   21.5505 C   0  0  0  0  0  0  0  0  0  1  0  0
  -25.0896  -30.9091   21.8368 C   0  0  1  0  0  0  0  0  0  0  0  0
  -21.6049  -30.5158   23.2761 C   0  0  2  0  0  0  0  0  0  0  0  0
  -25.9474  -32.1641   22.1630 C   0  0  0  0  0  0  0  0  0  0  0  0
  -28.9665  -22.1002   22.6224 C   0  0  0  0  0  0  0  0  0  0  0  0
  -25.9521  -11.5820   20.6485 N   0  0  0  0  0  0  0  0  0  0  0  0
  -26.3070  -12.8652   20.4656 N   0  0  0  0  0  0  0  0  0  0  0  0
  -25.6249  -29.2858   20.0473 N   0  0  0  0  0  0  0  0  0  0  0  0
  -30.1027  -12.5700   20.8703 N   0  0  0  0  0  0  0  0  0  0  0  0
  -25.4347  -15.0613   20.3014 N   0  0  0  0  0  0  0  0  0  0  0  0
  -21.7561  -12.5254   20.9600 N   0  0  0  0  0  0  0  0  0  0  0  0
  -27.6979  -29.0547   17.0564 N   0  0  0  0  0  0  0  0  0  0  0  0
  -23.6809  -31.0391   22.1933 N   0  0  0  0  0  0  0  0  0  0  0  0
  -31.5600  -19.3455   22.7700 N   0  0  3  0  0  0  0  0  0  0  0  0
  -30.8064  -13.0166   23.1161 N   0  0  0  0  0  0  0  0  0  0  0  0
  -20.8010  -29.2788   23.4877 N   0  3  0  0  0  0  0  0  0  0  0  0
  -22.5059  -14.6661   20.6226 O   0  0  0  0  0  0  0  0  0  0  0  0
  -28.0420  -29.6261   19.2875 O   0  0  0  0  0  0  0  0  0  0  0  0
  -24.7123  -31.3707   19.5409 O   0  0  0  0  0  0  0  0  0  0  0  0
  -23.6107  -29.2141   23.6221 O   0  0  0  0  0  0  0  0  0  0  0  0
  -32.1224  -11.7960   21.6701 O   0  0  0  0  0  0  0  0  0  0  0  0
  -21.6424   -6.9936   21.6087 O   0  0  0  0  0  0  0  0  0  0  0  0
  -27.2685  -23.6897   22.0561 O   0  0  0  0  0  0  0  0  0  1  0  0
  -17.7189   -7.1306   25.4806 F   0  0  0  0  0  0  0  0  0  0  0  0
  -30.2170  -15.6897   25.5524 F   0  0  0  0  0  0  0  0  0  0  0  0
  -21.7253   -5.2759   23.7733 F   0  0  0  0  0  0  0  0  0  0  0  0
  -28.2627  -21.7392   23.7254 F   0  0  0  0  0  0  0  0  0  0  0  0
  -29.7734  -23.1292   22.9864 F   0  0  0  0  0  0  0  0  0  0  0  0
  1  2  1  0  0  0  0
  1  5  2  0  0  0  0
  2  6  2  0  0  0  0
  3 10  2  0  0  0  0
  3 18  1  0  0  0  0
  4 11  1  0  0  0  0
  4 18  2  0  0  0  0
  5 20  1  0  0  0  0
  6 22  1  0  0  0  0
  7 12  2  0  0  0  0
  7 21  1  0  0  0  0
  8  9  2  0  0  0  0
  8 24  1  0  0  0  0
  9 25  1  0  0  0  0
 10 26  1  0  0  0  0
 11 26  2  0  0  0  0
 12 27  1  0  0  0  0
 13 14  2  0  0  0  0
 13 28  1  0  0  0  0
 14 29  1  0  0  0  0
 15 23  1  0  0  0  0
 15 27  2  0  0  0  0
 16 25  2  0  0  0  0
 16 30  1  0  0  0  0
 17 29  2  0  0  0  0
 17 31  1  0  0  0  0
 18 32  1  0  0  0  0
 19 32  1  0  0  0  0
 19 33  2  0  0  0  0
 19 34  1  0  0  0  0
 20 22  2  0  0  0  0
 20 39  1  0  0  0  0
 21 23  2  0  0  0  0
 21 40  1  0  0  0  0
 22 48  1  0  0  0  0
 23 41  1  0  0  0  0
 24 30  2  0  0  0  0
 24 58  1  0  0  0  0
 25 76  1  0  0  0  0
 26 84  1  0  0  0  0
 27 85  1  0  0  0  0
 28 31  2  0  0  0  0
 28 84  1  0  0  0  0
 29 86  1  0  0  0  0
 30 87  1  0  0  0  0
 31 88  1  0  0  0  0
 32 68  2  0  0  0  0
 33 69  1  0  0  0  0
 33 72  1  0  0  0  0
 34 73  1  0  0  0  0
 34 79  2  0  0  0  0
 35 49  1  0  0  0  0
 35 74  1  0  0  0  0
 35 80  2  0  0  0  0
 36 64  1  0  0  0  0
 36 70  1  0  0  0  0
 36 81  2  0  0  0  0
 37 65  1  0  0  0  0
 37 75  1  0  0  0  0
 37 82  2  0  0  0  0
 38 71  1  0  0  0  0
 38 77  1  0  0  0  0
 38 83  2  0  0  0  0
 39 42  1  0  0  0  0
 40 49  1  0  0  0  0
 41 70  1  0  0  0  0
 42 44  1  0  0  0  0
 43 45  1  0  0  0  0
 43 46  1  0  0  0  0
 44 48  1  0  0  0  0
 45 50  1  0  0  0  0
 46 71  1  0  0  0  0
 47 50  1  0  0  0  0
 47 71  1  0  0  0  0
 48 74  1  0  0  0  0
 49 70  1  0  0  0  0
 50 69  1  0  0  0  0
 51 59  1  0  0  0  0
 52 65  1  0  0  0  0
 53 66  1  0  0  0  0
 54 66  1  0  0  0  0
 55 66  1  0  0  0  0
 56 77  1  0  0  0  0
 57 78  1  0  0  0  0
 58 77  1  0  0  0  0
 59 61  1  0  0  0  0
 60 62  1  0  0  0  0
 60 67  1  0  0  0  0
 61 76  1  0  0  0  0
 62 76  1  0  0  0  0
 63 67  1  0  0  0  0
 63 85  1  0  0  0  0
 64 66  1  0  0  0  0
 64 75  1  0  0  0  0
 65 78  1  0  0  0  0
 67 89  1  0  0  0  0
 67 90  1  0  0  0  0
 68 69  1  0  0  0  0
M  CHG  1  78   1
M  ISO  4  38 100  63 101  77 100  85 101
M  END
> <Batch ID>
0020

> <Smiles>
CCCN(CCC(F)(F)[101CH2:1][101O:1]c1ccc2c(c1)CN(C(=O)C(NC(=O)C(C)NC)C(C)(C)C)C(C(=O)NC1CCCc3ccccc31)C2)c1ccc(C[100N:0](C)[100C:0](=O)N2CCCC(n3nc(-c4ccc(Oc5ccc(F)cc5F)cc4)c(C(N)=O)c3N)C2)c(F)c1

> <Shape>
0.263

> <Color>
0.219

> <Negative vol penalty>
0.000

$$$$

  -OEChem-04042321083D

 85 93  0     1  0  0  0  0  0999 V2000
  -18.8912  -25.9681   25.0800 C   0  0  0  0  0  0  0  0  0  0  0  0
  -20.1039  -25.6576   24.4732 C   0  0  0  0  0  0  0  0  0  0  0  0
  -23.5118  -16.2557   22.8227 C   0  0  0  0  0  0  0  0  0  0  0  0
  -22.4940  -16.2131   20.6319 C   0  0  0  0  0  0  0  0  0  0  0  0
  -18.1031  -27.0002   24.5724 C   0  0  0  0  0  0  0  0  0  0  0  0
  -20.5287  -26.3782   23.3576 C   0  0  0  0  0  0  0  0  0  0  0  0
  -25.4151  -27.6798   23.6310 C   0  0  0  0  0  0  0  0  0  0  0  0
  -29.3418  -18.8233   22.9351 C   0  0  0  0  0  0  0  0  0  0  0  0
  -30.0237  -19.2866   20.6641 C   0  0  0  0  0  0  0  0  0  0  0  0
  -29.8091  -17.5152   22.8086 C   0  0  0  0  0  0  0  0  0  0  0  0
  -30.4911  -17.9785   20.5376 C   0  0  0  0  0  0  0  0  0  0  0  0
  -22.5804  -17.2078   23.2369 C   0  0  0  0  0  0  0  0  0  0  0  0
  -21.5626  -17.1652   21.0462 C   0  0  0  0  0  0  0  0  0  0  0  0
  -26.3545  -26.6912   23.3412 C   0  0  0  0  0  0  0  0  0  0  0  0
  -20.6923  -19.9158   24.7618 C   0  0  0  0  0  0  0  0  0  0  0  0
  -21.1613  -21.0119   25.4859 C   0  0  0  0  0  0  0  0  0  0  0  0
  -26.6182  -27.6008   21.1226 C   0  0  0  0  0  0  0  0  0  0  0  0
  -22.5731  -21.6357   23.6271 C   0  0  0  0  0  0  0  0  0  0  0  0
  -23.4686  -15.7583   21.5202 C   0  0  0  0  0  0  0  0  0  0  0  0
  -24.3102  -13.3751   21.1745 C   0  0  0  0  0  0  0  0  0  0  0  0
  -18.5231  -27.7402   23.4558 C   0  0  0  0  0  0  0  0  0  0  0  0
  -25.0615  -28.6313   22.6635 C   0  0  0  0  0  0  0  0  0  0  0  0
  -19.7449  -27.4203   22.8337 C   0  0  0  0  0  0  0  0  0  0  0  0
  -25.6759  -28.6019   21.4035 C   0  0  0  0  0  0  0  0  0  0  0  0
  -29.4490  -19.7090   21.8629 C   0  0  0  0  0  0  0  0  0  0  0  0
  -30.3838  -17.0928   21.6099 C   0  0  0  0  0  0  0  0  0  0  0  0
  -21.6058  -17.6625   22.3487 C   0  0  0  0  0  0  0  0  0  0  0  0
  -26.9541  -26.6499   22.0859 C   0  0  0  0  0  0  0  0  0  0  0  0
  -21.1638  -19.6796   23.4704 C   0  0  0  0  0  0  0  0  0  0  0  0
  -22.1017  -21.8719   24.9185 C   0  0  0  0  0  0  0  0  0  0  0  0
  -22.1041  -20.5396   22.9031 C   0  0  0  0  0  0  0  0  0  0  0  0
  -24.4308  -14.7752   21.0915 C   0  0  0  0  0  0  0  0  0  0  0  0
  -25.4812  -12.8972   20.6389 C   0  0  0  0  0  0  0  0  0  0  0  0
  -23.2357  -12.5777   21.6897 C   0  0  0  0  0  0  0  0  0  0  0  0
  -22.3714  -29.4073   21.1585 C   0  0  0  0  0  0  0  0  0  0  0  0
  -24.1860  -31.8248   19.9816 C   0  0  0  0  0  0  0  0  0  0  0  0
  -27.2959  -33.0107   19.2271 C   0  0  0  0  0  0  0  0  0  0  0  0
  -30.8659  -15.0783   20.2312 C   0  0  0  0  0  0  0  0  0  0  0  0
  -17.6149  -28.8158   22.9144 C   0  0  0  0  0  0  0  0  0  0  0  0
  -24.0662  -29.7074   23.0008 C   0  0  0  0  0  0  0  0  0  0  0  0
  -25.3461  -29.6127   20.3366 C   0  0  0  0  0  0  0  0  0  0  0  0
  -18.3133  -29.7772   21.9562 C   0  0  0  0  0  0  0  0  0  0  0  0
  -28.8883  -14.0032   17.4787 C   0  0  0  0  0  0  0  0  0  0  0  0
  -19.1507  -29.0052   20.9415 C   0  0  0  0  0  0  0  0  0  0  0  0
  -27.4958  -13.9537   18.1065 C   0  0  0  0  0  0  0  0  0  0  0  0
  -29.6963  -15.2038   17.9722 C   0  0  0  0  0  0  0  0  0  0  0  0
  -28.3935  -15.2527   20.0757 C   0  0  0  0  0  0  0  0  0  0  0  0
  -20.2517  -28.1954   21.6368 C   0  0  1  0  0  0  0  0  0  0  0  0
  -23.4021  -30.3145   21.7687 C   0  0  1  0  0  0  0  0  0  0  0  0
  -27.5793  -14.0239   19.6416 C   0  0  1  0  0  0  0  0  0  0  0  0
  -26.0485  -20.5929   22.4321 C   0  0  0  0  0  0  0  0  0  0  0  0
  -28.4582  -35.0039   18.2405 C   0  0  0  0  0  0  0  0  0  0  0  0
  -23.3409  -30.9323   17.1889 C   0  0  0  0  0  0  0  0  0  0  0  0
  -25.2236  -32.2959   16.2592 C   0  0  0  0  0  0  0  0  0  0  0  0
  -23.3845  -33.4103   17.5235 C   0  0  0  0  0  0  0  0  0  0  0  0
  -31.5879  -15.1405   22.6082 C   0  0  0  0  0  0  0  0  0  0  0  0
  -28.7824  -33.5298   21.7330 C   0  0  0  0  0  0  0  0  0  0  0  0
  -28.9462  -21.1160   21.9990 C   0  0  0  0  0  0  0  0  0  0  0  0
  -28.3876  -23.7959   20.4163 C   0  0  0  0  0  0  0  0  0  0  0  0
  -26.7229  -20.4684   21.0835 C   0  0  0  0  0  0  0  0  0  0  0  0
  -27.4083  -22.8621   21.1115 C   0  0  0  0  0  0  0  0  0  0  0  0
  -27.9628  -25.2590   20.4415 C   0  0  0  0  0  0  0  0  0  1  0  0
  -25.0738  -32.0050   18.7739 C   0  0  1  0  0  0  0  0  0  0  0  0
  -27.9639  -34.3425   19.5176 C   0  0  2  0  0  0  0  0  0  0  0  0
  -24.2607  -32.1405   17.4556 C   0  0  0  0  0  0  0  0  0  0  0  0
  -25.5872  -15.1617   20.5462 N   0  0  0  0  0  0  0  0  0  0  0  0
  -26.2040  -13.9974   20.2818 N   0  0  0  0  0  0  0  0  0  0  0  0
  -24.3622  -30.6413   20.7125 N   0  0  0  0  0  0  0  0  0  0  0  0
  -29.7138  -15.2518   19.4411 N   0  0  0  0  0  0  0  0  0  0  0  0
  -25.9529  -11.6476   20.4433 N   0  0  0  0  0  0  0  0  0  0  0  0
  -22.1062  -13.2299   22.2026 N   0  0  0  0  0  0  0  0  0  0  0  0
  -21.3486  -29.0584   22.0196 N   0  0  0  0  0  0  0  0  0  0  0  0
  -25.9333  -33.1471   19.0659 N   0  0  0  0  0  0  0  0  0  0  0  0
  -30.8680  -15.7387   21.4787 N   0  0  0  0  0  0  0  0  0  0  0  0
  -29.1278  -34.1505   20.4283 N   0  3  0  0  0  0  0  0  0  0  0  0
  -27.8624  -21.4558   21.0043 N   0  3  1  0  0  0  0  0  0  0  0  0
  -23.2831  -11.3244   21.7101 O   0  0  0  0  0  0  0  0  0  0  0  0
  -22.4942  -29.0514   19.9923 O   0  0  0  0  0  0  0  0  0  0  0  0
  -23.3714  -32.7050   20.2700 O   0  0  0  0  0  0  0  0  0  0  0  0
  -27.9209  -31.9554   19.1471 O   0  0  0  0  0  0  0  0  0  0  0  0
  -31.8085  -14.3673   19.8626 O   0  0  0  0  0  0  0  0  0  0  0  0
  -20.6966  -18.5914   22.7526 O   0  0  0  0  0  0  0  0  0  0  0  0
  -27.8709  -25.6856   21.8001 O   0  0  0  0  0  0  0  0  0  1  0  0
  -22.5508  -22.9253   25.6134 F   0  0  0  0  0  0  0  0  0  0  0  0
  -22.5599  -20.3184   21.6624 F   0  0  0  0  0  0  0  0  0  0  0  0
  1  2  1  0  0  0  0
  1  5  2  0  0  0  0
  2  6  2  0  0  0  0
  3 12  2  0  0  0  0
  3 19  1  0  0  0  0
  4 13  1  0  0  0  0
  4 19  2  0  0  0  0
  5 21  1  0  0  0  0
  6 23  1  0  0  0  0
  7 14  2  0  0  0  0
  7 22  1  0  0  0  0
  8 10  2  0  0  0  0
  8 25  1  0  0  0  0
  9 11  1  0  0  0  0
  9 25  2  0  0  0  0
 10 26  1  0  0  0  0
 11 26  2  0  0  0  0
 12 27  1  0  0  0  0
 13 27  2  0  0  0  0
 14 28  1  0  0  0  0
 15 16  2  0  0  0  0
 15 29  1  0  0  0  0
 16 30  1  0  0  0  0
 17 24  1  0  0  0  0
 17 28  2  0  0  0  0
 18 30  2  0  0  0  0
 18 31  1  0  0  0  0
 19 32  1  0  0  0  0
 20 32  1  0  0  0  0
 20 33  2  0  0  0  0
 20 34  1  0  0  0  0
 21 23  2  0  0  0  0
 21 39  1  0  0  0  0
 22 24  2  0  0  0  0
 22 40  1  0  0  0  0
 23 48  1  0  0  0  0
 24 41  1  0  0  0  0
 25 58  1  0  0  0  0
 26 74  1  0  0  0  0
 27 82  1  0  0  0  0
 28 83  1  0  0  0  0
 29 31  2  0  0  0  0
 29 82  1  0  0  0  0
 30 84  1  0  0  0  0
 31 85  1  0  0  0  0
 32 66  2  0  0  0  0
 33 67  1  0  0  0  0
 33 70  1  0  0  0  0
 34 71  1  0  0  0  0
 34 77  2  0  0  0  0
 35 49  1  0  0  0  0
 35 72  1  0  0  0  0
 35 78  2  0  0  0  0
 36 63  1  0  0  0  0
 36 68  1  0  0  0  0
 36 79  2  0  0  0  0
 37 64  1  0  0  0  0
 37 73  1  0  0  0  0
 37 80  2  0  0  0  0
 38 69  1  0  0  0  0
 38 74  1  0  0  0  0
 38 81  2  0  0  0  0
 39 42  1  0  0  0  0
 40 49  1  0  0  0  0
 41 68  1  0  0  0  0
 42 44  1  0  0  0  0
 43 45  1  0  0  0  0
 43 46  1  0  0  0  0
 44 48  1  0  0  0  0
 45 50  1  0  0  0  0
 46 69  1  0  0  0  0
 47 50  1  0  0  0  0
 47 69  1  0  0  0  0
 48 72  1  0  0  0  0
 49 68  1  0  0  0  0
 50 67  1  0  0  0  0
 51 60  1  0  0  0  0
 52 64  1  0  0  0  0
 53 65  1  0  0  0  0
 54 65  1  0  0  0  0
 55 65  1  0  0  0  0
 56 74  1  0  0  0  0
 57 75  1  0  0  0  0
 58 76  1  0  0  0  0
 59 61  1  0  0  0  0
 59 62  1  0  0  0  0
 60 76  1  0  0  0  0
 61 76  1  0  0  0  0
 62 83  1  0  0  0  0
 63 65  1  0  0  0  0
 63 73  1  0  0  0  0
 64 75  1  0  0  0  0
 66 67  1  0  0  0  0
M  CHG  2  75   1  76   1
M  ISO  4  38 100  62 101  74 100  83 101
M  END
> <Batch ID>
0020

> <Smiles>
CCN(CC[101CH2:1][101O:1]c1ccc2c(c1)CN(C(=O)C(NC(=O)C(C)NC)C(C)(C)C)C(C(=O)NC1CCCc3ccccc31)C2)Cc1ccc([100N:0](C)[100C:0](=O)N2CCCC(n3nc(-c4ccc(Oc5ccc(F)cc5F)cc4)c(C(N)=O)c3N)C2)cc1

> <Shape>
0.222

> <Color>
0.112

> <Negative vol penalty>
0.000

$$$$

  -OEChem-04042321083D

 90 99  0     1  0  0  0  0  0999 V2000
  -29.0077  -22.7293   14.0299 C   0  0  0  0  0  0  0  0  0  0  0  0
  -28.3895  -21.9535   15.0053 C   0  0  0  0  0  0  0  0  0  0  0  0
  -26.1349  -12.7023   21.3344 C   0  0  0  0  0  0  0  0  0  0  0  0
  -26.1265  -12.9414   18.9303 C   0  0  0  0  0  0  0  0  0  0  0  0
  -29.5644  -23.9614   14.3701 C   0  0  0  0  0  0  0  0  0  0  0  0
  -28.3287  -22.4090   16.3219 C   0  0  0  0  0  0  0  0  0  0  0  0
  -24.1187  -22.1972   22.1139 C   0  0  0  0  0  0  0  0  0  0  0  0
  -28.2206  -21.8151   26.7849 C   0  0  0  0  0  0  0  0  0  0  0  0
  -28.6458  -21.3608   25.5366 C   0  0  0  0  0  0  0  0  0  0  0  0
  -24.9849  -11.9163   21.2603 C   0  0  0  0  0  0  0  0  0  0  0  0
  -24.9765  -12.1554   18.8561 C   0  0  0  0  0  0  0  0  0  0  0  0
  -24.1704  -21.8873   23.4722 C   0  0  0  0  0  0  0  0  0  0  0  0
  -22.2579   -9.5482   21.6736 C   0  0  0  0  0  0  0  0  0  0  0  0
  -22.2199   -8.3810   22.4363 C   0  0  0  0  0  0  0  0  0  0  0  0
  -25.0967  -24.0676   23.9281 C   0  0  0  0  0  0  0  0  0  0  0  0
  -27.4298  -19.5966   27.3231 C   0  0  0  0  0  0  0  0  0  0  0  0
  -24.1597   -7.5494   21.2604 C   0  0  0  0  0  0  0  0  0  0  0  0
  -26.7056  -13.2149   20.1694 C   0  0  0  0  0  0  0  0  0  0  0  0
  -29.2293  -13.5864   20.1967 C   0  0  0  0  0  0  0  0  0  0  0  0
  -29.5020  -24.4366   15.6896 C   0  0  0  0  0  0  0  0  0  0  0  0
  -24.5665  -23.4426   21.6503 C   0  0  0  0  0  0  0  0  0  0  0  0
  -28.8864  -23.6480   16.6803 C   0  0  0  0  0  0  0  0  0  0  0  0
  -25.0472  -24.3917   22.5637 C   0  0  0  0  0  0  0  0  0  0  0  0
  -27.6127  -20.9330   27.6782 C   0  0  0  0  0  0  0  0  0  0  0  0
  -27.8550  -19.1422   26.0747 C   0  0  0  0  0  0  0  0  0  0  0  0
  -28.4629  -20.0243   25.1814 C   0  0  0  0  0  0  0  0  0  0  0  0
  -24.4057  -11.6429   20.0212 C   0  0  0  0  0  0  0  0  0  0  0  0
  -24.6621  -22.8215   24.3792 C   0  0  0  0  0  0  0  0  0  0  0  0
  -23.2468   -9.7161   20.7042 C   0  0  0  0  0  0  0  0  0  0  0  0
  -23.1708   -7.3816   22.2297 C   0  0  0  0  0  0  0  0  0  0  0  0
  -24.1977   -8.7167   20.4977 C   0  0  0  0  0  0  0  0  0  0  0  0
  -27.8932  -14.0273   20.2454 C   0  0  0  0  0  0  0  0  0  0  0  0
  -29.9741  -14.7351   20.3075 C   0  0  0  0  0  0  0  0  0  0  0  0
  -29.7505  -12.2575   20.0631 C   0  0  0  0  0  0  0  0  0  0  0  0
  -26.8655  -24.4079   19.6790 C   0  0  0  0  0  0  0  0  0  0  0  0
  -25.5038  -27.3156   20.1407 C   0  0  0  0  0  0  0  0  0  0  0  0
  -23.6080  -29.3449   22.1243 C   0  0  0  0  0  0  0  0  0  0  0  0
  -28.3973  -20.1369   22.6958 C   0  0  0  0  0  0  0  0  0  0  0  0
  -30.1597  -25.7533   16.0189 C   0  0  0  0  0  0  0  0  0  0  0  0
  -24.4792  -23.7713   20.1852 C   0  0  0  0  0  0  0  0  0  0  0  0
  -25.5212  -25.7506   22.1195 C   0  0  0  0  0  0  0  0  0  0  0  0
  -29.7230  -26.3333   17.3617 C   0  0  0  0  0  0  0  0  0  0  0  0
  -29.8185  -19.4177   19.3682 C   0  0  0  0  0  0  0  0  0  0  0  0
  -24.1904  -17.1182   24.5507 C   0  0  0  0  0  0  0  0  0  0  0  0
  -24.8597  -15.7615   24.6403 C   0  0  0  0  0  0  0  0  0  0  0  0
  -29.7521  -25.2575   18.4427 C   0  0  0  0  0  0  0  0  0  0  0  0
  -29.5372  -17.9263   19.1930 C   0  0  0  0  0  0  0  0  0  0  0  0
  -28.7698  -20.0928   20.2472 C   0  0  0  0  0  0  0  0  0  0  0  0
  -28.3125  -17.9516   21.4032 C   0  0  0  0  0  0  0  0  0  0  0  0
  -25.1932  -18.0261   25.2297 C   0  0  0  0  0  0  0  0  0  0  0  0
  -26.3194  -16.0497   24.3365 C   0  0  0  0  0  0  0  0  0  0  0  0
  -28.7786  -24.1190   18.1144 C   0  0  1  0  0  0  0  0  0  0  0  0
  -25.4408  -24.8778   19.7628 C   0  0  1  0  0  0  0  0  0  0  0  0
  -29.3757  -17.2344   20.5576 C   0  0  1  0  0  0  0  0  0  0  0  0
  -22.6985  -31.6800   22.2552 C   0  0  0  0  0  0  0  0  0  0  0  0
  -28.2654  -28.3444   20.9312 C   0  0  0  0  0  0  0  0  0  0  0  0
  -27.1537  -30.3487   21.9386 C   0  0  0  0  0  0  0  0  0  0  0  0
  -26.9430  -29.9054   19.4929 C   0  0  0  0  0  0  0  0  0  0  0  0
  -30.0814  -18.6942   23.8147 C   0  0  0  0  0  0  0  0  0  0  0  0
  -20.8104  -28.3793   22.1262 C   0  0  0  0  0  0  0  0  0  0  0  0
  -26.1384  -23.3870   30.1650 C   0  0  0  0  0  0  0  0  0  0  0  0
  -27.6436  -17.7060   25.7197 C   0  0  0  0  0  0  0  0  0  0  0  0
  -27.1532  -21.4224   29.0200 C   0  0  0  0  0  0  0  0  0  0  0  0
  -23.9457  -23.0842   27.9069 C   0  0  0  0  0  0  0  0  0  0  0  0
  -24.7700  -22.0120   28.6034 C   0  0  0  0  0  0  0  0  0  0  0  0
  -24.5783  -23.6062   26.6227 C   0  0  0  0  0  0  0  0  0  1  0  0
  -25.6930  -28.4397   21.1303 C   0  0  1  0  0  0  0  0  0  0  0  0
  -22.4326  -30.2514   21.8065 C   0  0  2  0  0  0  0  0  0  0  0  0
  -27.0067  -29.2333   20.8817 C   0  0  0  0  0  0  0  0  0  0  0  0
  -27.7920  -15.3526   20.3771 N   0  0  0  0  0  0  0  0  0  0  0  0
  -29.0739  -15.7544   20.4122 N   0  0  0  0  0  0  0  0  0  0  0  0
  -25.4218  -26.0223   20.6760 N   0  0  0  0  0  0  0  0  0  0  0  0
  -28.6034  -19.3889   21.5193 N   0  0  0  0  0  0  0  0  0  0  0  0
  -31.3046  -14.9626   20.3248 N   0  0  0  0  0  0  0  0  0  0  0  0
  -28.8457  -11.1920   19.9611 N   0  0  0  0  0  0  0  0  0  0  0  0
  -27.4194  -24.5131   18.4174 N   0  0  0  0  0  0  0  0  0  0  0  0
  -24.4826  -29.2514   21.0625 N   0  0  0  0  0  0  0  0  0  0  0  0
  -28.9100  -19.5738   23.8845 N   0  0  0  0  0  0  0  0  0  0  0  0
  -26.5261  -17.4956   24.7492 N   0  3  0  0  0  0  0  0  0  0  0  0
  -21.2026  -29.7645   22.4927 N   0  3  0  0  0  0  0  0  0  0  0  0
  -26.1229  -22.5222   28.9275 N   0  3  1  0  0  0  0  0  0  0  0  0
  -30.9822  -12.0201   20.0516 O   0  0  0  0  0  0  0  0  0  0  0  0
  -27.4217  -23.9827   20.6848 O   0  0  0  0  0  0  0  0  0  0  0  0
  -25.4243  -27.5760   18.9375 O   0  0  0  0  0  0  0  0  0  0  0  0
  -23.7393  -28.7794   23.2076 O   0  0  0  0  0  0  0  0  0  0  0  0
  -27.8270  -21.2343   22.6797 O   0  0  0  0  0  0  0  0  0  0  0  0
  -23.2837  -10.8758   19.9484 O   0  0  0  0  0  0  0  0  0  0  0  0
  -24.7143  -22.5215   25.7055 O   0  0  0  0  0  0  0  0  0  1  0  0
  -23.1351   -6.2614   22.9632 F   0  0  0  0  0  0  0  0  0  0  0  0
  -25.1509   -8.8728   19.5687 F   0  0  0  0  0  0  0  0  0  0  0  0
  1  2  1  0  0  0  0
  1  5  2  0  0  0  0
  2  6  2  0  0  0  0
  3 10  2  0  0  0  0
  3 18  1  0  0  0  0
  4 11  1  0  0  0  0
  4 18  2  0  0  0  0
  5 20  1  0  0  0  0
  6 22  1  0  0  0  0
  7 12  2  0  0  0  0
  7 21  1  0  0  0  0
  8  9  2  0  0  0  0
  8 24  1  0  0  0  0
  9 26  1  0  0  0  0
 10 27  1  0  0  0  0
 11 27  2  0  0  0  0
 12 28  1  0  0  0  0
 13 14  2  0  0  0  0
 13 29  1  0  0  0  0
 14 30  1  0  0  0  0
 15 23  1  0  0  0  0
 15 28  2  0  0  0  0
 16 24  2  0  0  0  0
 16 25  1  0  0  0  0
 17 30  2  0  0  0  0
 17 31  1  0  0  0  0
 18 32  1  0  0  0  0
 19 32  1  0  0  0  0
 19 33  2  0  0  0  0
 19 34  1  0  0  0  0
 20 22  2  0  0  0  0
 20 39  1  0  0  0  0
 21 23  2  0  0  0  0
 21 40  1  0  0  0  0
 22 52  1  0  0  0  0
 23 41  1  0  0  0  0
 24 63  1  0  0  0  0
 25 26  2  0  0  0  0
 25 62  1  0  0  0  0
 26 78  1  0  0  0  0
 27 87  1  0  0  0  0
 28 88  1  0  0  0  0
 29 31  2  0  0  0  0
 29 87  1  0  0  0  0
 30 89  1  0  0  0  0
 31 90  1  0  0  0  0
 32 70  2  0  0  0  0
 33 71  1  0  0  0  0
 33 74  1  0  0  0  0
 34 75  1  0  0  0  0
 34 82  2  0  0  0  0
 35 53  1  0  0  0  0
 35 76  1  0  0  0  0
 35 83  2  0  0  0  0
 36 67  1  0  0  0  0
 36 72  1  0  0  0  0
 36 84  2  0  0  0  0
 37 68  1  0  0  0  0
 37 77  1  0  0  0  0
 37 85  2  0  0  0  0
 38 73  1  0  0  0  0
 38 78  1  0  0  0  0
 38 86  2  0  0  0  0
 39 42  1  0  0  0  0
 40 53  1  0  0  0  0
 41 72  1  0  0  0  0
 42 46  1  0  0  0  0
 43 47  1  0  0  0  0
 43 48  1  0  0  0  0
 44 45  1  0  0  0  0
 44 50  1  0  0  0  0
 45 51  1  0  0  0  0
 46 52  1  0  0  0  0
 47 54  1  0  0  0  0
 48 73  1  0  0  0  0
 49 54  1  0  0  0  0
 49 73  1  0  0  0  0
 50 79  1  0  0  0  0
 51 79  1  0  0  0  0
 52 76  1  0  0  0  0
 53 72  1  0  0  0  0
 54 71  1  0  0  0  0
 55 68  1  0  0  0  0
 56 69  1  0  0  0  0
 57 69  1  0  0  0  0
 58 69  1  0  0  0  0
 59 78  1  0  0  0  0
 60 80  1  0  0  0  0
 61 81  1  0  0  0  0
 62 79  1  0  0  0  0
 63 81  1  0  0  0  0
 64 65  1  0  0  0  0
 64 66  1  0  0  0  0
 65 81  1  0  0  0  0
 66 88  1  0  0  0  0
 67 69  1  0  0  0  0
 67 77  1  0  0  0  0
 68 80  1  0  0  0  0
 70 71  1  0  0  0  0
M  CHG  3  79   1  80   1  81   1
M  ISO  4  38 100  66 101  78 100  88 101
M  END
> <Batch ID>
0020

> <Smiles>
CNC(C)C(=O)NC(C(=O)N1Cc2cc([101O:1][101CH2:1]CCN(C)Cc3ccc([100N:0](C)[100C:0](=O)N4CCCC(n5nc(-c6ccc(Oc7ccc(F)cc7F)cc6)c(C(N)=O)c5N)C4)c(CN4CCCC4)c3)ccc2CC1C(=O)NC1CCCc2ccccc21)C(C)(C)C

> <Shape>
0.228

> <Color>
0.066

> <Negative vol penalty>
0.000

$$$$

  -OEChem-04042321083D

 85 93  0     1  0  0  0  0  0999 V2000
  -28.1134  -25.4634   16.0923 C   0  0  0  0  0  0  0  0  0  0  0  0
  -26.9427  -25.5637   16.8371 C   0  0  0  0  0  0  0  0  0  0  0  0
  -27.6948  -14.4802   20.3193 C   0  0  0  0  0  0  0  0  0  0  0  0
  -25.5000  -14.7268   19.3401 C   0  0  0  0  0  0  0  0  0  0  0  0
  -20.3402  -23.2747   22.1223 C   0  0  0  0  0  0  0  0  0  0  0  0
  -29.3099  -25.9618   16.6060 C   0  0  0  0  0  0  0  0  0  0  0  0
  -26.9680  -26.1614   18.0966 C   0  0  0  0  0  0  0  0  0  0  0  0
  -23.1163  -29.3730   18.8007 C   0  0  0  0  0  0  0  0  0  0  0  0
  -21.7003  -22.9841   22.0167 C   0  0  0  0  0  0  0  0  0  0  0  0
  -27.4061  -13.1519   20.6321 C   0  0  0  0  0  0  0  0  0  0  0  0
  -25.2112  -13.3985   19.6529 C   0  0  0  0  0  0  0  0  0  0  0  0
  -21.8715  -28.8192   19.0965 C   0  0  0  0  0  0  0  0  0  0  0  0
  -25.9146  -10.3378   18.4048 C   0  0  0  0  0  0  0  0  0  0  0  0
  -25.3050   -9.5596   17.4207 C   0  0  0  0  0  0  0  0  0  0  0  0
  -22.2183  -29.3035   21.4341 C   0  0  0  0  0  0  0  0  0  0  0  0
  -21.2595  -21.6303   20.0648 C   0  0  0  0  0  0  0  0  0  0  0  0
  -23.4178   -9.1889   18.8831 C   0  0  0  0  0  0  0  0  0  0  0  0
  -26.7417  -15.2677   19.6733 C   0  0  0  0  0  0  0  0  0  0  0  0
  -19.4397  -22.7430   21.1993 C   0  0  0  0  0  0  0  0  0  0  0  0
  -27.6224  -17.1273   18.1654 C   0  0  0  0  0  0  0  0  0  0  0  0
  -29.3481  -26.5746   17.8684 C   0  0  0  0  0  0  0  0  0  0  0  0
  -23.9275  -29.8872   19.8224 C   0  0  0  0  0  0  0  0  0  0  0  0
  -28.1664  -26.6672   18.6283 C   0  0  0  0  0  0  0  0  0  0  0  0
  -23.4718  -29.8656   21.1483 C   0  0  0  0  0  0  0  0  0  0  0  0
  -22.1600  -22.1619   20.9879 C   0  0  0  0  0  0  0  0  0  0  0  0
  -26.1643  -12.6110   20.2989 C   0  0  0  0  0  0  0  0  0  0  0  0
  -21.4235  -28.7818   20.4137 C   0  0  0  0  0  0  0  0  0  0  0  0
  -25.2760  -10.5414   19.6281 C   0  0  0  0  0  0  0  0  0  0  0  0
  -24.0566   -8.9852   17.6598 C   0  0  0  0  0  0  0  0  0  0  0  0
  -19.8993  -21.9208   20.1705 C   0  0  0  0  0  0  0  0  0  0  0  0
  -24.0276   -9.9670   19.8672 C   0  0  0  0  0  0  0  0  0  0  0  0
  -27.0392  -16.6400   19.3504 C   0  0  0  0  0  0  0  0  0  0  0  0
  -27.6916  -18.4865   18.3505 C   0  0  0  0  0  0  0  0  0  0  0  0
  -18.0053  -23.0500   21.3163 C   0  0  0  0  0  0  0  0  0  0  0  0
  -28.0622  -16.4151   17.0014 C   0  0  0  0  0  0  0  0  0  0  0  0
  -26.8082  -29.1844   20.9676 C   0  0  0  0  0  0  0  0  0  0  0  0
  -26.3219  -31.8509   22.7497 C   0  0  0  0  0  0  0  0  0  0  0  0
  -24.1048  -34.0318   24.1550 C   0  0  0  0  0  0  0  0  0  0  0  0
  -24.5678  -22.3127   21.7131 C   0  0  0  0  0  0  0  0  0  0  0  0
  -30.6741  -27.0560   18.4019 C   0  0  0  0  0  0  0  0  0  0  0  0
  -25.2562  -30.5054   19.4836 C   0  0  0  0  0  0  0  0  0  0  0  0
  -24.2958  -30.4229   22.2792 C   0  0  0  0  0  0  0  0  0  0  0  0
  -30.5439  -28.0110   19.5856 C   0  0  0  0  0  0  0  0  0  0  0  0
  -28.0871  -21.7801   21.8046 C   0  0  0  0  0  0  0  0  0  0  0  0
  -29.5467  -27.4667   20.6035 C   0  0  0  0  0  0  0  0  0  0  0  0
  -28.2714  -20.4489   21.0724 C   0  0  0  0  0  0  0  0  0  0  0  0
  -26.8118  -21.7930   22.6456 C   0  0  0  0  0  0  0  0  0  0  0  0
  -25.7710  -20.1007   21.1889 C   0  0  0  0  0  0  0  0  0  0  0  0
  -28.1487  -27.3311   19.9881 C   0  0  1  0  0  0  0  0  0  0  0  0
  -26.2207  -30.5339   20.6653 C   0  0  1  0  0  0  0  0  0  0  0  0
  -27.0085  -20.0634   20.2774 C   0  0  2  0  0  0  0  0  0  0  0  0
  -24.0051  -36.0906   25.5863 C   0  0  0  0  0  0  0  0  0  0  0  0
  -26.9375  -30.1632   25.2160 C   0  0  0  0  0  0  0  0  0  0  0  0
  -25.9144  -31.9665   26.6195 C   0  0  0  0  0  0  0  0  0  0  0  0
  -27.9374  -32.4553   25.2443 C   0  0  0  0  0  0  0  0  0  0  0  0
  -16.0925  -24.4933   20.7399 C   0  0  0  0  0  0  0  0  0  0  0  0
  -22.7769  -35.5927   22.0199 C   0  0  0  0  0  0  0  0  0  0  0  0
  -18.8801  -26.2434   20.6739 C   0  0  0  0  0  0  0  0  0  0  0  0
  -18.3155  -25.0953   19.8483 C   0  0  0  0  0  0  0  0  0  0  0  0
  -19.7425  -27.1953   19.8540 C   0  0  0  0  0  0  0  0  0  1  0  0
  -25.7065  -32.1381   24.0979 C   0  0  1  0  0  0  0  0  0  0  0  0
  -24.0537  -35.5489   24.1661 C   0  0  2  0  0  0  0  0  0  0  0  0
  -26.6090  -31.6684   25.2736 C   0  0  0  0  0  0  0  0  0  0  0  0
  -26.7581  -17.6107   20.2238 N   0  0  0  0  0  0  0  0  0  0  0  0
  -27.1665  -18.7215   19.5871 N   0  0  0  0  0  0  0  0  0  0  0  0
  -25.5905  -31.0111   21.8979 N   0  0  0  0  0  0  0  0  0  0  0  0
  -25.6566  -21.4223   21.8253 N   0  0  0  0  0  0  0  0  0  0  0  0
  -28.1500  -19.4916   17.5746 N   0  0  0  0  0  0  0  0  0  0  0  0
  -27.9174  -15.0212   16.9766 N   0  0  0  0  0  0  0  0  0  0  0  0
  -23.5418  -21.8669   20.8807 N   0  0  0  0  0  0  0  0  0  0  0  0
  -27.5023  -28.6237   19.9124 N   0  0  0  0  0  0  0  0  0  0  0  0
  -25.4015  -33.5647   24.1118 N   0  0  0  0  0  0  0  0  0  0  0  0
  -17.5245  -24.1919   20.6372 N   0  0  0  0  0  0  0  0  0  0  0  0
  -22.8469  -36.0319   23.4373 N   0  3  0  0  0  0  0  0  0  0  0  0
  -17.3356  -22.2718   21.9946 O   0  0  0  0  0  0  0  0  0  0  0  0
  -28.5835  -16.9957   16.0193 O   0  0  0  0  0  0  0  0  0  0  0  0
  -26.6453  -28.6892   22.0766 O   0  0  0  0  0  0  0  0  0  0  0  0
  -27.4081  -32.3588   22.4601 O   0  0  0  0  0  0  0  0  0  0  0  0
  -23.0956  -33.3310   24.1857 O   0  0  0  0  0  0  0  0  0  0  0  0
  -24.5593  -23.4033   22.2899 O   0  0  0  0  0  0  0  0  0  0  0  0
  -25.8822  -11.3149   20.6037 O   0  0  0  0  0  0  0  0  0  0  0  0
  -20.2092  -28.2412   20.7053 O   0  0  0  0  0  0  0  0  0  1  0  0
  -23.4705   -8.2393   16.7142 F   0  0  0  0  0  0  0  0  0  0  0  0
  -19.0428  -21.4039   19.2779 F   0  0  0  0  0  0  0  0  0  0  0  0
  -23.4086  -10.1601   21.0399 F   0  0  0  0  0  0  0  0  0  0  0  0
  1  2  1  0  0  0  0
  1  6  2  0  0  0  0
  2  7  2  0  0  0  0
  3 10  2  0  0  0  0
  3 18  1  0  0  0  0
  4 11  1  0  0  0  0
  4 18  2  0  0  0  0
  5  9  2  0  0  0  0
  5 19  1  0  0  0  0
  6 21  1  0  0  0  0
  7 23  1  0  0  0  0
  8 12  2  0  0  0  0
  8 22  1  0  0  0  0
  9 25  1  0  0  0  0
 10 26  1  0  0  0  0
 11 26  2  0  0  0  0
 12 27  1  0  0  0  0
 13 14  2  0  0  0  0
 13 28  1  0  0  0  0
 14 29  1  0  0  0  0
 15 24  1  0  0  0  0
 15 27  2  0  0  0  0
 16 25  2  0  0  0  0
 16 30  1  0  0  0  0
 17 29  2  0  0  0  0
 17 31  1  0  0  0  0
 18 32  1  0  0  0  0
 19 30  2  0  0  0  0
 19 34  1  0  0  0  0
 20 32  1  0  0  0  0
 20 33  2  0  0  0  0
 20 35  1  0  0  0  0
 21 23  2  0  0  0  0
 21 40  1  0  0  0  0
 22 24  2  0  0  0  0
 22 41  1  0  0  0  0
 23 49  1  0  0  0  0
 24 42  1  0  0  0  0
 25 70  1  0  0  0  0
 26 81  1  0  0  0  0
 27 82  1  0  0  0  0
 28 31  2  0  0  0  0
 28 81  1  0  0  0  0
 29 83  1  0  0  0  0
 30 84  1  0  0  0  0
 31 85  1  0  0  0  0
 32 64  2  0  0  0  0
 33 65  1  0  0  0  0
 33 68  1  0  0  0  0
 34 73  1  0  0  0  0
 34 75  2  0  0  0  0
 35 69  1  0  0  0  0
 35 76  2  0  0  0  0
 36 50  1  0  0  0  0
 36 71  1  0  0  0  0
 36 77  2  0  0  0  0
 37 61  1  0  0  0  0
 37 66  1  0  0  0  0
 37 78  2  0  0  0  0
 38 62  1  0  0  0  0
 38 72  1  0  0  0  0
 38 79  2  0  0  0  0
 39 67  1  0  0  0  0
 39 70  1  0  0  0  0
 39 80  2  0  0  0  0
 40 43  1  0  0  0  0
 41 50  1  0  0  0  0
 42 66  1  0  0  0  0
 43 45  1  0  0  0  0
 44 46  1  0  0  0  0
 44 47  1  0  0  0  0
 45 49  1  0  0  0  0
 46 51  1  0  0  0  0
 47 67  1  0  0  0  0
 48 51  1  0  0  0  0
 48 67  1  0  0  0  0
 49 71  1  0  0  0  0
 50 66  1  0  0  0  0
 51 65  1  0  0  0  0
 52 62  1  0  0  0  0
 53 63  1  0  0  0  0
 54 63  1  0  0  0  0
 55 63  1  0  0  0  0
 56 73  1  0  0  0  0
 57 74  1  0  0  0  0
 58 59  1  0  0  0  0
 58 60  1  0  0  0  0
 59 73  1  0  0  0  0
 60 82  1  0  0  0  0
 61 63  1  0  0  0  0
 61 72  1  0  0  0  0
 62 74  1  0  0  0  0
 64 65  1  0  0  0  0
M  CHG  1  74   1
M  ISO  4  39 100  60 101  70 100  82 101
M  END
> <Batch ID>
0020

> <Smiles>
CNC(C)C(=O)NC(C(=O)N1Cc2cc([101O:1][101CH2:1]CCN(C)C(=O)c3ccc([100NH:0][100C:0](=O)N4CCCC(n5nc(-c6ccc(Oc7ccc(F)cc7F)cc6)c(C(N)=O)c5N)C4)cc3F)ccc2CC1C(=O)NC1CCCc2ccccc21)C(C)(C)C

> <Shape>
0.247

> <Color>
0.073

> <Negative vol penalty>
0.000

$$$$

  -OEChem-04042321083D

 85 94  0     1  0  0  0  0  0999 V2000
  -30.6527  -22.4891   17.7829 C   0  0  0  0  0  0  0  0  0  0  0  0
  -29.8473  -22.6175   18.9100 C   0  0  0  0  0  0  0  0  0  0  0  0
  -25.8260  -27.1254   20.8245 C   0  0  0  0  0  0  0  0  0  0  0  0
  -25.3512  -29.4714   20.4960 C   0  0  0  0  0  0  0  0  0  0  0  0
  -30.3129  -21.5766   16.7850 C   0  0  0  0  0  0  0  0  0  0  0  0
  -28.7010  -21.8342   19.0393 C   0  0  0  0  0  0  0  0  0  0  0  0
  -28.2180  -19.8474   23.6722 C   0  0  0  0  0  0  0  0  0  0  0  0
  -20.9478  -24.1444   25.2490 C   0  0  0  0  0  0  0  0  0  0  0  0
  -22.3505  -22.9775   23.6654 C   0  0  0  0  0  0  0  0  0  0  0  0
  -19.9763  -24.3150   24.2628 C   0  0  0  0  0  0  0  0  0  0  0  0
  -21.3790  -23.1481   22.6792 C   0  0  0  0  0  0  0  0  0  0  0  0
  -26.7927  -27.1805   19.8205 C   0  0  0  0  0  0  0  0  0  0  0  0
  -26.3180  -29.5265   19.4920 C   0  0  0  0  0  0  0  0  0  0  0  0
  -27.7481  -20.6885   24.6799 C   0  0  0  0  0  0  0  0  0  0  0  0
  -29.9862  -28.2423   19.4929 C   0  0  0  0  0  0  0  0  0  0  0  0
  -31.2135  -27.6276   19.7404 C   0  0  0  0  0  0  0  0  0  0  0  0
  -25.5461  -19.7322   24.4430 C   0  0  0  0  0  0  0  0  0  0  0  0
  -30.8688  -26.1747   17.8411 C   0  0  0  0  0  0  0  0  0  0  0  0
  -25.1052  -28.2709   21.1622 C   0  0  0  0  0  0  0  0  0  0  0  0
  -24.2946  -28.4456   23.5747 C   0  0  0  0  0  0  0  0  0  0  0  0
  -29.1671  -20.7748   16.9067 C   0  0  0  0  0  0  0  0  0  0  0  0
  -27.3515  -18.9485   23.0338 C   0  0  0  0  0  0  0  0  0  0  0  0
  -28.3448  -20.9110   18.0414 C   0  0  0  0  0  0  0  0  0  0  0  0
  -26.0081  -18.8790   23.4293 C   0  0  0  0  0  0  0  0  0  0  0  0
  -22.1350  -23.4757   24.9503 C   0  0  0  0  0  0  0  0  0  0  0  0
  -20.1918  -23.8168   22.9779 C   0  0  0  0  0  0  0  0  0  0  0  0
  -27.0387  -28.3810   19.1543 C   0  0  0  0  0  0  0  0  0  0  0  0
  -26.4114  -20.6331   25.0635 C   0  0  0  0  0  0  0  0  0  0  0  0
  -29.2000  -27.8232   18.4195 C   0  0  0  0  0  0  0  0  0  0  0  0
  -31.6549  -26.5938   18.9145 C   0  0  0  0  0  0  0  0  0  0  0  0
  -29.6414  -26.7894   17.5936 C   0  0  0  0  0  0  0  0  0  0  0  0
  -24.1061  -28.2146   22.1989 C   0  0  0  0  0  0  0  0  0  0  0  0
  -23.0487  -28.2716   24.1260 C   0  0  0  0  0  0  0  0  0  0  0  0
  -25.4891  -28.7872   24.2904 C   0  0  0  0  0  0  0  0  0  0  0  0
  -26.3291  -18.5540   20.0500 C   0  0  0  0  0  0  0  0  0  0  0  0
  -24.9504  -15.8916   21.2880 C   0  0  0  0  0  0  0  0  0  0  0  0
  -23.7386  -14.2656   24.0330 C   0  0  0  0  0  0  0  0  0  0  0  0
  -18.3053  -25.0898   21.9236 C   0  0  0  0  0  0  0  0  0  0  0  0
  -28.8149  -19.8363   15.7798 C   0  0  0  0  0  0  0  0  0  0  0  0
  -27.8801  -18.0291   21.9670 C   0  0  0  0  0  0  0  0  0  0  0  0
  -25.0417  -17.9173   22.7893 C   0  0  0  0  0  0  0  0  0  0  0  0
  -27.7870  -18.7767   16.1684 C   0  0  0  0  0  0  0  0  0  0  0  0
  -18.3927  -28.5988   23.0951 C   0  0  0  0  0  0  0  0  0  0  0  0
  -25.7941  -25.8968   25.6577 C   0  0  0  0  0  0  0  0  0  0  0  0
  -26.6257  -19.4122   16.9263 C   0  0  0  0  0  0  0  0  0  0  0  0
  -19.8803  -28.9404   23.0326 C   0  0  0  0  0  0  0  0  0  0  0  0
  -26.1729  -25.1269   26.9100 C   0  0  0  0  0  0  0  0  0  0  0  0
  -18.0104  -27.5421   22.0631 C   0  0  0  0  0  0  0  0  0  0  0  0
  -20.3163  -26.6348   22.0967 C   0  0  0  0  0  0  0  0  0  0  0  0
  -24.3948  -25.4017   25.3689 C   0  0  0  0  0  0  0  0  0  0  0  0
  -27.1068  -20.0614   18.2296 C   0  0  1  0  0  0  0  0  0  0  0  0
  -26.7922  -17.5134   21.0300 C   0  0  1  0  0  0  0  0  0  0  0  0
  -20.7346  -27.6677   23.1538 C   0  0  1  0  0  0  0  0  0  0  0  0
  -25.5808  -23.7319   26.7096 C   0  0  2  0  0  0  0  0  0  0  0  0
  -22.6401  -12.1182   24.7252 C   0  0  0  0  0  0  0  0  0  0  0  0
  -22.3052  -16.8730   20.1263 C   0  0  0  0  0  0  0  0  0  0  0  0
  -21.1257  -15.2458   21.6194 C   0  0  0  0  0  0  0  0  0  0  0  0
  -22.7069  -14.4173   19.8769 C   0  0  0  0  0  0  0  0  0  0  0  0
  -18.9012  -22.8629   21.0766 C   0  0  0  0  0  0  0  0  0  0  0  0
  -25.9849  -13.5594   25.8258 C   0  0  0  0  0  0  0  0  0  0  0  0
  -23.1800  -23.2923   26.0112 C   0  0  0  0  0  0  0  0  0  0  0  0
  -26.5918  -22.7198   26.1899 C   0  0  0  0  0  0  0  0  0  1  0  0
  -23.6209  -15.5759   21.9297 C   0  0  1  0  0  0  0  0  0  0  0  0
  -23.9589  -12.8542   24.5465 C   0  0  2  0  0  0  0  0  0  0  0  0
  -22.4572  -15.5476   20.8990 C   0  0  0  0  0  0  0  0  0  0  0  0
  -22.8401  -27.9163   21.8948 N   0  0  0  0  0  0  0  0  0  0  0  0
  -22.2219  -27.9587   23.0874 N   0  0  0  0  0  0  0  0  0  0  0  0
  -25.6049  -17.0435   21.7467 N   0  0  0  0  0  0  0  0  0  0  0  0
  -18.8709  -26.3612   22.1509 N   0  0  0  0  0  0  0  0  0  0  0  0
  -22.5907  -28.3570   25.3930 N   0  0  0  0  0  0  0  0  0  0  0  0
  -26.6829  -28.9271   23.5696 N   0  0  0  0  0  0  0  0  0  0  0  0
  -27.3334  -19.0532   19.2428 N   0  0  0  0  0  0  0  0  0  0  0  0
  -23.8055  -14.3248   22.6570 N   0  0  0  0  0  0  0  0  0  0  0  0
  -19.1872  -23.9928   21.9579 N   0  0  0  0  0  0  0  0  0  0  0  0
  -24.4901  -23.9219   25.6583 N   0  3  1  0  0  0  0  0  0  0  0  0
  -24.6618  -12.8847   25.8603 N   0  3  0  0  0  0  0  0  0  0  0  0
  -25.5008  -28.9470   25.5345 O   0  0  0  0  0  0  0  0  0  0  0  0
  -25.1478  -18.8789   20.0269 O   0  0  0  0  0  0  0  0  0  0  0  0
  -25.3952  -15.1398   20.4171 O   0  0  0  0  0  0  0  0  0  0  0  0
  -23.5247  -15.2196   24.7778 O   0  0  0  0  0  0  0  0  0  0  0  0
  -17.1067  -24.9457   21.6530 O   0  0  0  0  0  0  0  0  0  0  0  0
  -27.9821  -28.4351   18.1747 O   0  0  0  0  0  0  0  0  0  0  0  0
  -25.9499  -21.4534   26.0463 O   0  0  0  0  0  0  0  0  0  1  0  0
  -32.8342  -26.0046   19.1514 F   0  0  0  0  0  0  0  0  0  0  0  0
  -28.8911  -26.3833   16.5602 F   0  0  0  0  0  0  0  0  0  0  0  0
  1  2  1  0  0  0  0
  1  5  2  0  0  0  0
  2  6  2  0  0  0  0
  3 12  2  0  0  0  0
  3 19  1  0  0  0  0
  4 13  1  0  0  0  0
  4 19  2  0  0  0  0
  5 21  1  0  0  0  0
  6 23  1  0  0  0  0
  7 14  2  0  0  0  0
  7 22  1  0  0  0  0
  8 10  2  0  0  0  0
  8 25  1  0  0  0  0
  9 11  1  0  0  0  0
  9 25  2  0  0  0  0
 10 26  1  0  0  0  0
 11 26  2  0  0  0  0
 12 27  1  0  0  0  0
 13 27  2  0  0  0  0
 14 28  1  0  0  0  0
 15 16  2  0  0  0  0
 15 29  1  0  0  0  0
 16 30  1  0  0  0  0
 17 24  1  0  0  0  0
 17 28  2  0  0  0  0
 18 30  2  0  0  0  0
 18 31  1  0  0  0  0
 19 32  1  0  0  0  0
 20 32  1  0  0  0  0
 20 33  2  0  0  0  0
 20 34  1  0  0  0  0
 21 23  2  0  0  0  0
 21 39  1  0  0  0  0
 22 24  2  0  0  0  0
 22 40  1  0  0  0  0
 23 51  1  0  0  0  0
 24 41  1  0  0  0  0
 25 61  1  0  0  0  0
 26 74  1  0  0  0  0
 27 82  1  0  0  0  0
 28 83  1  0  0  0  0
 29 31  2  0  0  0  0
 29 82  1  0  0  0  0
 30 84  1  0  0  0  0
 31 85  1  0  0  0  0
 32 66  2  0  0  0  0
 33 67  1  0  0  0  0
 33 70  1  0  0  0  0
 34 71  1  0  0  0  0
 34 77  2  0  0  0  0
 35 52  1  0  0  0  0
 35 72  1  0  0  0  0
 35 78  2  0  0  0  0
 36 63  1  0  0  0  0
 36 68  1  0  0  0  0
 36 79  2  0  0  0  0
 37 64  1  0  0  0  0
 37 73  1  0  0  0  0
 37 80  2  0  0  0  0
 38 69  1  0  0  0  0
 38 74  1  0  0  0  0
 38 81  2  0  0  0  0
 39 42  1  0  0  0  0
 40 52  1  0  0  0  0
 41 68  1  0  0  0  0
 42 45  1  0  0  0  0
 43 46  1  0  0  0  0
 43 48  1  0  0  0  0
 44 47  1  0  0  0  0
 44 50  1  0  0  0  0
 45 51  1  0  0  0  0
 46 53  1  0  0  0  0
 47 54  1  0  0  0  0
 48 69  1  0  0  0  0
 49 53  1  0  0  0  0
 49 69  1  0  0  0  0
 50 75  1  0  0  0  0
 51 72  1  0  0  0  0
 52 68  1  0  0  0  0
 53 67  1  0  0  0  0
 54 62  1  0  0  0  0
 54 75  1  0  0  0  0
 55 64  1  0  0  0  0
 56 65  1  0  0  0  0
 57 65  1  0  0  0  0
 58 65  1  0  0  0  0
 59 74  1  0  0  0  0
 60 76  1  0  0  0  0
 61 75  1  0  0  0  0
 62 83  1  0  0  0  0
 63 65  1  0  0  0  0
 63 73  1  0  0  0  0
 64 76  1  0  0  0  0
 66 67  1  0  0  0  0
M  CHG  2  75   1  76   1
M  ISO  4  38 100  62 101  74 100  83 101
M  END
> <Batch ID>
0020

> <Smiles>
CNC(C)C(=O)NC(C(=O)N1Cc2cc([101O:1][101CH2:1]C3CCCN3Cc3ccc([100N:0](C)[100C:0](=O)N4CCCC(n5nc(-c6ccc(Oc7ccc(F)cc7F)cc6)c(C(N)=O)c5N)C4)cc3)ccc2CC1C(=O)NC1CCCc2ccccc21)C(C)(C)C

> <Shape>
0.157

> <Color>
0.058

> <Negative vol penalty>
0.000

$$$$

  -OEChem-04042321083D

 92101  0     1  0  0  0  0  0999 V2000
  -17.2591  -30.3999   24.0647 C   0  0  0  0  0  0  0  0  0  0  0  0
  -18.5173  -29.9978   24.5014 C   0  0  0  0  0  0  0  0  0  0  0  0
  -23.7916   -9.5456   21.3679 C   0  0  0  0  0  0  0  0  0  0  0  0
  -22.3394  -11.4023   20.8383 C   0  0  0  0  0  0  0  0  0  0  0  0
  -16.6001  -29.6712   23.0754 C   0  0  0  0  0  0  0  0  0  0  0  0
  -19.1169  -28.8662   23.9496 C   0  0  0  0  0  0  0  0  0  0  0  0
  -25.5164  -29.2864   20.6694 C   0  0  0  0  0  0  0  0  0  0  0  0
  -30.8060  -23.4472   21.4654 C   0  0  0  0  0  0  0  0  0  0  0  0
  -31.9378  -23.5666   19.3342 C   0  0  0  0  0  0  0  0  0  0  0  0
  -30.0008  -22.4168   20.9800 C   0  0  0  0  0  0  0  0  0  0  0  0
  -31.1326  -22.5362   18.8489 C   0  0  0  0  0  0  0  0  0  0  0  0
  -22.6769   -8.7380   21.5933 C   0  0  0  0  0  0  0  0  0  0  0  0
  -21.2246  -10.5947   21.0637 C   0  0  0  0  0  0  0  0  0  0  0  0
  -26.8338  -29.2459   20.2121 C   0  0  0  0  0  0  0  0  0  0  0  0
  -20.4121   -8.2497   24.0544 C   0  0  0  0  0  0  0  0  0  0  0  0
  -20.4171   -7.4421   25.1916 C   0  0  0  0  0  0  0  0  0  0  0  0
  -26.5947  -26.8948   19.6989 C   0  0  0  0  0  0  0  0  0  0  0  0
  -20.2171   -5.4786   23.7982 C   0  0  0  0  0  0  0  0  0  0  0  0
  -23.6229  -10.8778   20.9905 C   0  0  0  0  0  0  0  0  0  0  0  0
  -25.7936  -11.5097   19.8089 C   0  0  0  0  0  0  0  0  0  0  0  0
  -17.1960  -28.5357   22.5044 C   0  0  0  0  0  0  0  0  0  0  0  0
  -24.7274  -28.1335   20.6288 C   0  0  0  0  0  0  0  0  0  0  0  0
  -18.4646  -28.1209   22.9527 C   0  0  0  0  0  0  0  0  0  0  0  0
  -25.2705  -26.9323   20.1440 C   0  0  0  0  0  0  0  0  0  0  0  0
  -31.7745  -24.0221   20.6425 C   0  0  0  0  0  0  0  0  0  0  0  0
  -30.1641  -21.9613   19.6718 C   0  0  0  0  0  0  0  0  0  0  0  0
  -21.3934   -9.2625   21.4412 C   0  0  0  0  0  0  0  0  0  0  0  0
  -27.3716  -28.0530   19.7283 C   0  0  0  0  0  0  0  0  0  0  0  0
  -20.3095   -7.6717   22.7890 C   0  0  0  0  0  0  0  0  0  0  0  0
  -20.3196   -6.0566   25.0636 C   0  0  0  0  0  0  0  0  0  0  0  0
  -20.2120   -6.2861   22.6609 C   0  0  0  0  0  0  0  0  0  0  0  0
  -24.7740  -11.7127   20.7580 C   0  0  0  0  0  0  0  0  0  0  0  0
  -26.6454  -12.5723   19.9874 C   0  0  0  0  0  0  0  0  0  0  0  0
  -29.5666  -19.5449   19.2174 C   0  0  0  0  0  0  0  0  0  0  0  0
  -32.9390  -18.7583   20.4456 C   0  0  0  0  0  0  0  0  0  0  0  0
  -30.6584  -18.8456   19.5662 C   0  0  0  0  0  0  0  0  0  0  0  0
  -31.8514  -19.4555   20.0982 C   0  0  0  0  0  0  0  0  0  0  0  0
  -25.9562  -10.4550   18.8513 C   0  0  0  0  0  0  0  0  0  0  0  0
  -21.3871  -26.5670   21.3103 C   0  0  0  0  0  0  0  0  0  0  0  0
  -22.3736  -25.4338   18.6358 C   0  0  0  0  0  0  0  0  0  0  0  0
  -22.6460  -24.1252   15.4972 C   0  0  0  0  0  0  0  0  0  0  0  0
  -27.6500  -17.9101   20.8283 C   0  0  0  0  0  0  0  0  0  0  0  0
  -16.4247  -27.7529   21.4714 C   0  0  0  0  0  0  0  0  0  0  0  0
  -23.3228  -28.1160   21.1680 C   0  0  0  0  0  0  0  0  0  0  0  0
  -24.3955  -25.7087   20.1513 C   0  0  0  0  0  0  0  0  0  0  0  0
  -17.2898  -26.7818   20.6721 C   0  0  0  0  0  0  0  0  0  0  0  0
  -26.8735  -16.0444   23.6465 C   0  0  0  0  0  0  0  0  0  0  0  0
  -18.1997  -25.9868   21.6032 C   0  0  0  0  0  0  0  0  0  0  0  0
  -26.3365  -14.7304   23.0808 C   0  0  0  0  0  0  0  0  0  0  0  0
  -27.2784  -19.9834   18.6655 C   0  0  0  0  0  0  0  0  0  0  0  0
  -26.3699  -17.2324   22.8355 C   0  0  0  0  0  0  0  0  0  0  0  0
  -28.0939  -21.2674   18.5181 C   0  0  0  0  0  0  0  0  0  0  0  0
  -26.1765  -15.8429   20.7975 C   0  0  0  0  0  0  0  0  0  0  0  0
  -19.1584  -26.9131   22.3610 C   0  0  1  0  0  0  0  0  0  0  0  0
  -28.3262  -18.8676   18.6595 C   0  0  2  0  0  0  0  0  0  0  0  0
  -22.3841  -27.1878   20.3765 C   0  0  1  0  0  0  0  0  0  0  0  0
  -26.6569  -14.6041   21.5811 C   0  0  2  0  0  0  0  0  0  0  0  0
  -34.1344  -24.7992   21.1112 C   0  0  0  0  0  0  0  0  0  0  0  0
  -21.8835  -22.1862   14.0985 C   0  0  0  0  0  0  0  0  0  0  0  0
  -24.3642  -23.6214   20.0699 C   0  0  0  0  0  0  0  0  0  0  0  0
  -24.2658  -22.0757   18.1028 C   0  0  0  0  0  0  0  0  0  0  0  0
  -22.2095  -22.5165   19.4446 C   0  0  0  0  0  0  0  0  0  0  0  0
  -27.5283  -16.5335   18.7081 C   0  0  0  0  0  0  0  0  0  0  0  0
  -21.2767  -25.9048   13.5692 C   0  0  0  0  0  0  0  0  0  0  0  0
  -30.9702  -28.3150   19.8414 C   0  0  0  0  0  0  0  0  0  0  0  0
  -31.0708  -26.9801   20.5640 C   0  0  0  0  0  0  0  0  0  0  0  0
  -29.5769  -28.9307   19.8821 C   0  0  0  0  0  0  0  0  0  1  0  0
  -32.6471  -25.1389   21.1673 C   0  0  1  0  0  0  0  0  0  0  0  0
  -23.1101  -24.3260   17.9259 C   0  0  1  0  0  0  0  0  0  0  0  0
  -21.5983  -23.6186   14.5224 C   0  0  2  0  0  0  0  0  0  0  0  0
  -23.4947  -23.1622   18.8824 C   0  0  0  0  0  0  0  0  0  0  0  0
  -24.9593  -12.8173   21.4857 N   0  0  0  0  0  0  0  0  0  0  0  0
  -26.1054  -13.3179   20.9937 N   0  0  0  0  0  0  0  0  0  0  0  0
  -29.3534  -20.9209   19.1825 N   0  0  0  0  0  0  0  0  0  0  0  0
  -23.0402  -26.0575   19.6975 N   0  0  0  0  0  0  0  0  0  0  0  0
  -26.6866  -17.0765   21.4155 N   0  0  0  0  0  0  0  0  0  0  0  0
  -27.7962  -12.9322   19.3803 N   0  0  0  0  0  0  0  0  0  0  0  0
  -24.9885   -9.4424   18.8019 N   0  0  0  0  0  0  0  0  0  0  0  0
  -20.2478  -27.3251   21.5019 N   0  0  0  0  0  0  0  0  0  0  0  0
  -22.2642  -23.9251   16.8069 N   0  0  0  0  0  0  0  0  0  0  0  0
  -27.9107  -17.7260   19.4621 N   0  0  0  0  0  0  0  0  0  0  0  0
  -21.5701  -24.4732   13.3019 N   0  3  0  0  0  0  0  0  0  0  0  0
  -32.4378  -26.4217   20.4406 N   0  3  0  0  0  0  0  0  0  0  0  0
  -26.9395  -10.4030   18.0741 O   0  0  0  0  0  0  0  0  0  0  0  0
  -21.6316  -25.4793   21.8191 O   0  0  0  0  0  0  0  0  0  0  0  0
  -21.2360  -25.7361   18.2648 O   0  0  0  0  0  0  0  0  0  0  0  0
  -23.6995  -24.6430   15.1331 O   0  0  0  0  0  0  0  0  0  0  0  0
  -28.2400  -18.7771   21.4858 O   0  0  0  0  0  0  0  0  0  0  0  0
  -20.3055   -8.4747   21.6608 O   0  0  0  0  0  0  0  0  0  0  0  0
  -28.6569  -28.0215   19.2793 O   0  0  0  0  0  0  0  0  0  1  0  0
  -20.3260   -5.2811   26.1557 F   0  0  0  0  0  0  0  0  0  0  0  0
  -20.1144   -5.7250   21.4479 F   0  0  0  0  0  0  0  0  0  0  0  0
  1  2  1  0  0  0  0
  1  5  2  0  0  0  0
  2  6  2  0  0  0  0
  3 12  2  0  0  0  0
  3 19  1  0  0  0  0
  4 13  1  0  0  0  0
  4 19  2  0  0  0  0
  5 21  1  0  0  0  0
  6 23  1  0  0  0  0
  7 14  2  0  0  0  0
  7 22  1  0  0  0  0
  8 10  2  0  0  0  0
  8 25  1  0  0  0  0
  9 11  1  0  0  0  0
  9 25  2  0  0  0  0
 10 26  1  0  0  0  0
 11 26  2  0  0  0  0
 12 27  1  0  0  0  0
 13 27  2  0  0  0  0
 14 28  1  0  0  0  0
 15 16  2  0  0  0  0
 15 29  1  0  0  0  0
 16 30  1  0  0  0  0
 17 24  1  0  0  0  0
 17 28  2  0  0  0  0
 18 30  2  0  0  0  0
 18 31  1  0  0  0  0
 19 32  1  0  0  0  0
 20 32  1  0  0  0  0
 20 33  2  0  0  0  0
 20 38  1  0  0  0  0
 21 23  2  0  0  0  0
 21 43  1  0  0  0  0
 22 24  2  0  0  0  0
 22 44  1  0  0  0  0
 23 54  1  0  0  0  0
 24 45  1  0  0  0  0
 25 68  1  0  0  0  0
 26 74  1  0  0  0  0
 27 89  1  0  0  0  0
 28 90  1  0  0  0  0
 29 31  2  0  0  0  0
 29 89  1  0  0  0  0
 30 91  1  0  0  0  0
 31 92  1  0  0  0  0
 32 72  2  0  0  0  0
 33 73  1  0  0  0  0
 33 77  1  0  0  0  0
 34 36  2  0  0  0  0
 34 55  1  0  0  0  0
 34 74  1  0  0  0  0
 35 37  2  0  0  0  0
 36 37  1  0  0  0  0
 38 78  1  0  0  0  0
 38 84  2  0  0  0  0
 39 56  1  0  0  0  0
 39 79  1  0  0  0  0
 39 85  2  0  0  0  0
 40 69  1  0  0  0  0
 40 75  1  0  0  0  0
 40 86  2  0  0  0  0
 41 70  1  0  0  0  0
 41 80  1  0  0  0  0
 41 87  2  0  0  0  0
 42 76  1  0  0  0  0
 42 81  1  0  0  0  0
 42 88  2  0  0  0  0
 43 46  1  0  0  0  0
 44 56  1  0  0  0  0
 45 75  1  0  0  0  0
 46 48  1  0  0  0  0
 47 49  1  0  0  0  0
 47 51  1  0  0  0  0
 48 54  1  0  0  0  0
 49 57  1  0  0  0  0
 50 52  1  0  0  0  0
 50 55  1  0  0  0  0
 51 76  1  0  0  0  0
 52 74  1  0  0  0  0
 53 57  1  0  0  0  0
 53 76  1  0  0  0  0
 54 79  1  0  0  0  0
 55 81  1  0  0  0  0
 56 75  1  0  0  0  0
 57 73  1  0  0  0  0
 58 68  1  0  0  0  0
 59 70  1  0  0  0  0
 60 71  1  0  0  0  0
 61 71  1  0  0  0  0
 62 71  1  0  0  0  0
 63 81  1  0  0  0  0
 64 82  1  0  0  0  0
 65 66  1  0  0  0  0
 65 67  1  0  0  0  0
 66 83  1  0  0  0  0
 67 90  1  0  0  0  0
 68 83  1  0  0  0  0
 69 71  1  0  0  0  0
 69 80  1  0  0  0  0
 70 82  1  0  0  0  0
 72 73  1  0  0  0  0
M  CHG  2  82   1  83   1
M  ISO  4  42 100  67 101  81 100  90 101
M  END
> <Batch ID>
0020

> <Smiles>
C=CC=C1C([100N:0](C)[100C:0](=O)N2CCCC(n3nc(-c4ccc(Oc5ccc(F)cc5F)cc4)c(C(N)=O)c3N)C2)CCN1c1ccc(C(C)NCC[101CH2:1][101O:1]c2ccc3c(c2)CN(C(=O)C(NC(=O)C(C)NC)C(C)(C)C)C(C(=O)NC2CCCc4ccccc42)C3)cc1

> <Shape>
0.266

> <Color>
0.062

> <Negative vol penalty>
0.000

$$$$

  -OEChem-04042321083D

 86 94  0     1  0  0  0  0  0999 V2000
  -22.4563  -23.9375   17.9617 C   0  0  0  0  0  0  0  0  0  0  0  0
  -23.1687  -23.2472   18.9371 C   0  0  0  0  0  0  0  0  0  0  0  0
  -23.3110   -9.6983   20.0105 C   0  0  0  0  0  0  0  0  0  0  0  0
  -23.7378   -9.9685   22.3731 C   0  0  0  0  0  0  0  0  0  0  0  0
  -23.1313  -24.5293   16.8950 C   0  0  0  0  0  0  0  0  0  0  0  0
  -24.5566  -23.1474   18.8457 C   0  0  0  0  0  0  0  0  0  0  0  0
  -28.5562  -23.0808   23.4831 C   0  0  0  0  0  0  0  0  0  0  0  0
  -27.4764  -17.2445   17.8787 C   0  0  0  0  0  0  0  0  0  0  0  0
  -22.6030   -8.5254   20.2725 C   0  0  0  0  0  0  0  0  0  0  0  0
  -23.0298   -8.7956   22.6351 C   0  0  0  0  0  0  0  0  0  0  0  0
  -29.2149  -22.0416   24.1387 C   0  0  0  0  0  0  0  0  0  0  0  0
  -19.7971   -7.8398   22.8727 C   0  0  0  0  0  0  0  0  0  0  0  0
  -18.8856   -7.8569   23.9284 C   0  0  0  0  0  0  0  0  0  0  0  0
  -27.1112  -18.1226   18.8991 C   0  0  0  0  0  0  0  0  0  0  0  0
  -31.1393  -22.3764   22.7230 C   0  0  0  0  0  0  0  0  0  0  0  0
  -29.4538  -16.6238   19.1204 C   0  0  0  0  0  0  0  0  0  0  0  0
  -20.1140   -6.0844   25.0176 C   0  0  0  0  0  0  0  0  0  0  0  0
  -23.8784  -10.4198   21.0608 C   0  0  0  0  0  0  0  0  0  0  0  0
  -24.0961  -12.9404   20.7341 C   0  0  0  0  0  0  0  0  0  0  0  0
  -24.5291  -24.4451   16.7956 C   0  0  0  0  0  0  0  0  0  0  0  0
  -29.1810  -23.7696   22.4335 C   0  0  0  0  0  0  0  0  0  0  0  0
  -25.2508  -23.7376   17.7759 C   0  0  0  0  0  0  0  0  0  0  0  0
  -30.4872  -23.4256   22.0574 C   0  0  0  0  0  0  0  0  0  0  0  0
  -29.0886  -17.5020   20.1408 C   0  0  0  0  0  0  0  0  0  0  0  0
  -28.6477  -16.4951   17.9894 C   0  0  0  0  0  0  0  0  0  0  0  0
  -22.4624   -8.0740   21.5848 C   0  0  0  0  0  0  0  0  0  0  0  0
  -30.5056  -21.6873   23.7568 C   0  0  0  0  0  0  0  0  0  0  0  0
  -20.8669   -6.9449   22.8893 C   0  0  0  0  0  0  0  0  0  0  0  0
  -19.0441   -6.9792   25.0008 C   0  0  0  0  0  0  0  0  0  0  0  0
  -21.0254   -6.0672   23.9618 C   0  0  0  0  0  0  0  0  0  0  0  0
  -27.9173  -18.2513   20.0302 C   0  0  0  0  0  0  0  0  0  0  0  0
  -24.6104  -11.6312   20.7907 C   0  0  0  0  0  0  0  0  0  0  0  0
  -25.1863  -13.7255   20.4482 C   0  0  0  0  0  0  0  0  0  0  0  0
  -22.7531  -13.4054   20.9231 C   0  0  0  0  0  0  0  0  0  0  0  0
  -28.5682  -24.1807   19.3417 C   0  0  0  0  0  0  0  0  0  0  0  0
  -31.0878  -26.2166   19.5122 C   0  0  0  0  0  0  0  0  0  0  0  0
  -33.9566  -27.1487   21.1085 C   0  0  0  0  0  0  0  0  0  0  0  0
  -29.7600  -14.4067   17.1573 C   0  0  0  0  0  0  0  0  0  0  0  0
  -25.2102  -25.0606   15.5990 C   0  0  0  0  0  0  0  0  0  0  0  0
  -28.4669  -24.9058   21.7541 C   0  0  0  0  0  0  0  0  0  0  0  0
  -31.2097  -24.1472   20.9502 C   0  0  0  0  0  0  0  0  0  0  0  0
  -26.7172  -25.2285   15.7755 C   0  0  0  0  0  0  0  0  0  0  0  0
  -30.1231  -12.6802   20.4101 C   0  0  0  0  0  0  0  0  0  0  0  0
  -27.3339  -23.9529   16.3406 C   0  0  0  0  0  0  0  0  0  0  0  0
  -28.6860  -12.2883   20.7485 C   0  0  0  0  0  0  0  0  0  0  0  0
  -30.3496  -12.7561   18.9032 C   0  0  0  0  0  0  0  0  0  0  0  0
  -27.9534  -13.2740   18.5409 C   0  0  0  0  0  0  0  0  0  0  0  0
  -26.7593  -23.6287   17.7249 C   0  0  1  0  0  0  0  0  0  0  0  0
  -29.0043  -25.1991   20.3568 C   0  0  1  0  0  0  0  0  0  0  0  0
  -27.6890  -13.2301   20.0534 C   0  0  1  0  0  0  0  0  0  0  0  0
  -35.8188  -28.8268   20.9934 C   0  0  0  0  0  0  0  0  0  0  0  0
  -30.2059  -18.9457   25.7678 C   0  0  0  0  0  0  0  0  0  0  0  0
  -32.3300  -24.6752   17.1903 C   0  0  0  0  0  0  0  0  0  0  0  0
  -34.5232  -25.7494   17.7418 C   0  0  0  0  0  0  0  0  0  0  0  0
  -32.5853  -27.1590   17.0489 C   0  0  0  0  0  0  0  0  0  0  0  0
  -28.8628  -16.0359   15.5535 C   0  0  0  0  0  0  0  0  0  0  0  0
  -33.2836  -28.2510   23.7714 C   0  0  0  0  0  0  0  0  0  0  0  0
  -31.1935  -19.2916   19.9584 C   0  0  0  0  0  0  0  0  0  0  0  0
  -29.9823  -17.6116   21.3409 C   0  0  0  0  0  0  0  0  0  0  0  0
  -31.5025  -18.3959   23.6776 C   0  0  0  0  0  0  0  0  0  0  0  0
  -31.9555  -18.8062   22.2792 C   0  0  0  0  0  0  0  0  0  0  0  0
  -32.5816  -26.0858   19.3381 C   0  0  1  0  0  0  0  0  0  0  0  0
  -34.4529  -28.5041   21.5787 C   0  0  2  0  0  0  0  0  0  0  0  0
  -30.5403  -19.3839   24.3474 C   0  0  2  0  0  0  0  0  0  1  0  0
  -32.9910  -25.9023   17.8494 C   0  0  0  0  0  0  0  0  0  0  0  0
  -25.9249  -11.5831   20.5592 N   0  0  0  0  0  0  0  0  0  0  0  0
  -26.2459  -12.8719   20.3543 N   0  0  0  0  0  0  0  0  0  0  0  0
  -30.4672  -25.2468   20.3123 N   0  0  0  0  0  0  0  0  0  0  0  0
  -29.3566  -13.6083   18.2473 N   0  0  0  0  0  0  0  0  0  0  0  0
  -25.3322  -15.0557   20.2705 N   0  0  0  0  0  0  0  0  0  0  0  0
  -21.7545  -12.4648   21.2103 N   0  0  0  0  0  0  0  0  0  0  0  0
  -27.3627  -24.4736   18.7330 N   0  0  0  0  0  0  0  0  0  0  0  0
  -33.1714  -27.2556   19.9801 N   0  0  0  0  0  0  0  0  0  0  0  0
  -29.0245  -15.5864   16.9344 N   0  0  0  0  0  0  0  0  0  0  0  0
  -34.5606  -28.5292   23.0649 N   0  3  0  0  0  0  0  0  0  0  0  0
  -30.7983  -18.8819   21.3568 N   0  3  1  0  0  0  0  0  0  0  0  0
  -22.4446  -14.6172   20.8235 O   0  0  0  0  0  0  0  0  0  0  0  0
  -29.2739  -23.2025   19.1255 O   0  0  0  0  0  0  0  0  0  0  0  0
  -30.4945  -27.1492   18.9645 O   0  0  0  0  0  0  0  0  0  0  0  0
  -34.2404  -26.0996   21.6824 O   0  0  0  0  0  0  0  0  0  0  0  0
  -30.6767  -14.0652   16.4000 O   0  0  0  0  0  0  0  0  0  0  0  0
  -21.7714   -6.9297   21.8408 O   0  0  0  0  0  0  0  0  0  0  0  0
  -31.1506  -20.6730   24.3947 O   0  0  0  0  0  0  0  0  0  1  0  0
  -18.1696   -6.9968   26.0153 F   0  0  0  0  0  0  0  0  0  0  0  0
  -22.0519   -5.2061   23.9840 F   0  0  0  0  0  0  0  0  0  0  0  0
  -27.4325  -19.3473   21.2723 Cl  0  0  0  0  0  0  0  0  0  0  0  0
  1  2  1  0  0  0  0
  1  5  2  0  0  0  0
  2  6  2  0  0  0  0
  3  9  2  0  0  0  0
  3 18  1  0  0  0  0
  4 10  1  0  0  0  0
  4 18  2  0  0  0  0
  5 20  1  0  0  0  0
  6 22  1  0  0  0  0
  7 11  2  0  0  0  0
  7 21  1  0  0  0  0
  8 14  2  0  0  0  0
  8 25  1  0  0  0  0
  9 26  1  0  0  0  0
 10 26  2  0  0  0  0
 11 27  1  0  0  0  0
 12 13  2  0  0  0  0
 12 28  1  0  0  0  0
 13 29  1  0  0  0  0
 14 31  1  0  0  0  0
 15 23  1  0  0  0  0
 15 27  2  0  0  0  0
 16 24  1  0  0  0  0
 16 25  2  0  0  0  0
 17 29  2  0  0  0  0
 17 30  1  0  0  0  0
 18 32  1  0  0  0  0
 19 32  1  0  0  0  0
 19 33  2  0  0  0  0
 19 34  1  0  0  0  0
 20 22  2  0  0  0  0
 20 39  1  0  0  0  0
 21 23  2  0  0  0  0
 21 40  1  0  0  0  0
 22 48  1  0  0  0  0
 23 41  1  0  0  0  0
 24 31  2  0  0  0  0
 24 59  1  0  0  0  0
 25 74  1  0  0  0  0
 26 82  1  0  0  0  0
 27 83  1  0  0  0  0
 28 30  2  0  0  0  0
 28 82  1  0  0  0  0
 29 84  1  0  0  0  0
 30 85  1  0  0  0  0
 31 86  1  0  0  0  0
 32 66  2  0  0  0  0
 33 67  1  0  0  0  0
 33 70  1  0  0  0  0
 34 71  1  0  0  0  0
 34 77  2  0  0  0  0
 35 49  1  0  0  0  0
 35 72  1  0  0  0  0
 35 78  2  0  0  0  0
 36 62  1  0  0  0  0
 36 68  1  0  0  0  0
 36 79  2  0  0  0  0
 37 63  1  0  0  0  0
 37 73  1  0  0  0  0
 37 80  2  0  0  0  0
 38 69  1  0  0  0  0
 38 74  1  0  0  0  0
 38 81  2  0  0  0  0
 39 42  1  0  0  0  0
 40 49  1  0  0  0  0
 41 68  1  0  0  0  0
 42 44  1  0  0  0  0
 43 45  1  0  0  0  0
 43 46  1  0  0  0  0
 44 48  1  0  0  0  0
 45 50  1  0  0  0  0
 46 69  1  0  0  0  0
 47 50  1  0  0  0  0
 47 69  1  0  0  0  0
 48 72  1  0  0  0  0
 49 68  1  0  0  0  0
 50 67  1  0  0  0  0
 51 63  1  0  0  0  0
 52 64  1  0  0  0  0
 53 65  1  0  0  0  0
 54 65  1  0  0  0  0
 55 65  1  0  0  0  0
 56 74  1  0  0  0  0
 57 75  1  0  0  0  0
 58 76  1  0  0  0  0
 59 76  1  0  0  0  0
 60 61  1  0  0  0  0
 60 64  1  0  0  0  0
 61 76  1  0  0  0  0
 62 65  1  0  0  0  0
 62 73  1  0  0  0  0
 63 75  1  0  0  0  0
 64 83  1  0  0  0  0
 66 67  1  0  0  0  0
M  CHG  2  75   1  76   1
M  ISO  4  38 100  64 101  74 100  83 101
M  END
> <Batch ID>
0020

> <Smiles>
CNC(C)C(=O)NC(C(=O)N1Cc2cc([101O:1][101CH:1](C)CCN(C)Cc3cc([100N:0](C)[100C:0](=O)N4CCCC(n5nc(-c6ccc(Oc7ccc(F)cc7F)cc6)c(C(N)=O)c5N)C4)ccc3Cl)ccc2CC1C(=O)NC1CCCc2ccccc21)C(C)(C)C

> <Shape>
0.218

> <Color>
0.193

> <Negative vol penalty>
0.000

$$$$

  -OEChem-04042321083D

 86 94  0     1  0  0  0  0  0999 V2000
  -35.3684  -16.6763   25.4155 C   0  0  0  0  0  0  0  0  0  0  0  0
  -34.9200  -17.7626   24.6711 C   0  0  0  0  0  0  0  0  0  0  0  0
  -19.0023  -24.0953   21.2029 C   0  0  0  0  0  0  0  0  0  0  0  0
  -21.0109  -24.1935   22.5420 C   0  0  0  0  0  0  0  0  0  0  0  0
  -34.9614  -15.3861   25.0784 C   0  0  0  0  0  0  0  0  0  0  0  0
  -34.0651  -17.5593   23.5884 C   0  0  0  0  0  0  0  0  0  0  0  0
  -29.5427  -21.2448   21.7255 C   0  0  0  0  0  0  0  0  0  0  0  0
  -26.3530  -30.1002   19.7257 C   0  0  0  0  0  0  0  0  0  0  0  0
  -26.7942  -28.8837   19.2051 C   0  0  0  0  0  0  0  0  0  0  0  0
  -19.2778  -22.7649   20.8872 C   0  0  0  0  0  0  0  0  0  0  0  0
  -21.2864  -22.8631   22.2264 C   0  0  0  0  0  0  0  0  0  0  0  0
  -29.4704  -22.2052   20.7174 C   0  0  0  0  0  0  0  0  0  0  0  0
  -18.9775  -19.7399   22.3679 C   0  0  0  0  0  0  0  0  0  0  0  0
  -17.9263  -18.8258   22.4388 C   0  0  0  0  0  0  0  0  0  0  0  0
  -28.5011  -20.5675   19.2350 C   0  0  0  0  0  0  0  0  0  0  0  0
  -18.2098  -18.3181   20.0938 C   0  0  0  0  0  0  0  0  0  0  0  0
  -19.8689  -24.8097   22.0302 C   0  0  0  0  0  0  0  0  0  0  0  0
  -18.8346  -26.6617   23.4472 C   0  0  0  0  0  0  0  0  0  0  0  0
  -34.0935  -15.1677   23.9969 C   0  0  0  0  0  0  0  0  0  0  0  0
  -29.1041  -19.9335   21.4921 C   0  0  0  0  0  0  0  0  0  0  0  0
  -33.6472  -16.2648   23.2356 C   0  0  0  0  0  0  0  0  0  0  0  0
  -28.5665  -19.5930   20.2426 C   0  0  0  0  0  0  0  0  0  0  0  0
  -25.5527  -30.1208   20.8680 C   0  0  0  0  0  0  0  0  0  0  0  0
  -26.4349  -27.6878   19.8266 C   0  0  0  0  0  0  0  0  0  0  0  0
  -20.4198  -22.1487   21.3990 C   0  0  0  0  0  0  0  0  0  0  0  0
  -28.9523  -21.8659   19.4710 C   0  0  0  0  0  0  0  0  0  0  0  0
  -19.6448  -19.9431   21.1600 C   0  0  0  0  0  0  0  0  0  0  0  0
  -17.5425  -18.1149   21.3017 C   0  0  0  0  0  0  0  0  0  0  0  0
  -19.2610  -19.2322   20.0229 C   0  0  0  0  0  0  0  0  0  0  0  0
  -25.1934  -28.9248   21.4895 C   0  0  0  0  0  0  0  0  0  0  0  0
  -25.6345  -27.7083   20.9688 C   0  0  0  0  0  0  0  0  0  0  0  0
  -19.5852  -26.1842   22.3561 C   0  0  0  0  0  0  0  0  0  0  0  0
  -18.8603  -28.0281   23.3100 C   0  0  0  0  0  0  0  0  0  0  0  0
  -18.1734  -25.9351   24.4915 C   0  0  0  0  0  0  0  0  0  0  0  0
  -30.4859  -17.0710   21.5010 C   0  0  0  0  0  0  0  0  0  0  0  0
  -27.4432  -16.0320   21.0707 C   0  0  0  0  0  0  0  0  0  0  0  0
  -24.2780  -16.7050   19.9868 C   0  0  0  0  0  0  0  0  0  0  0  0
  -22.9076  -31.4730   20.2620 C   0  0  0  0  0  0  0  0  0  0  0  0
  -33.7187  -13.7506   23.6415 C   0  0  0  0  0  0  0  0  0  0  0  0
  -29.1641  -18.9162   22.5983 C   0  0  0  0  0  0  0  0  0  0  0  0
  -28.0634  -18.2044   19.9475 C   0  0  0  0  0  0  0  0  0  0  0  0
  -32.5130  -13.6548   22.7102 C   0  0  0  0  0  0  0  0  0  0  0  0
  -19.2146  -31.4657   20.0097 C   0  0  0  0  0  0  0  0  0  0  0  0
  -32.6500  -14.6429   21.5562 C   0  0  0  0  0  0  0  0  0  0  0  0
  -18.8421  -30.1131   20.6143 C   0  0  0  0  0  0  0  0  0  0  0  0
  -20.6033  -31.4417   19.3783 C   0  0  0  0  0  0  0  0  0  0  0  0
  -21.3038  -29.6271   20.9050 C   0  0  0  0  0  0  0  0  0  0  0  0
  -32.6994  -16.0871   22.0694 C   0  0  1  0  0  0  0  0  0  0  0  0
  -29.1643  -17.4783   22.0884 C   0  0  1  0  0  0  0  0  0  0  0  0
  -19.9291  -29.6304   21.5904 C   0  0  2  0  0  0  0  0  0  0  0  0
  -23.2094  -33.4165   22.9730 C   0  0  0  0  0  0  0  0  0  0  0  0
  -21.8287  -16.3393   19.5810 C   0  0  0  0  0  0  0  0  0  0  0  0
  -28.4472  -14.4886   18.6377 C   0  0  0  0  0  0  0  0  0  0  0  0
  -26.0683  -14.2487   17.8952 C   0  0  0  0  0  0  0  0  0  0  0  0
  -26.8055  -13.2456   20.0569 C   0  0  0  0  0  0  0  0  0  0  0  0
  -23.5536  -17.8368   22.6237 C   0  0  0  0  0  0  0  0  0  0  0  0
  -25.0827  -31.4233   21.4221 C   0  0  0  0  0  0  0  0  0  0  0  0
  -27.9593  -24.9049   17.7896 C   0  0  0  0  0  0  0  0  0  0  0  0
  -23.0630  -31.9253   22.7467 C   0  0  0  0  0  0  0  0  0  0  0  0
  -27.7037  -26.3678   18.1314 C   0  0  0  0  0  0  0  0  0  0  0  0
  -28.7059  -24.1586   18.8890 C   0  0  0  0  0  0  0  0  0  1  0  0
  -26.5672  -15.7559   19.8727 C   0  0  1  0  0  0  0  0  0  0  0  0
  -22.9224  -16.4721   20.6292 C   0  0  2  0  0  0  0  0  0  0  0  0
  -26.9832  -14.4604   19.1203 C   0  0  0  0  0  0  0  0  0  0  0  0
  -20.0534  -27.1674   21.5827 N   0  0  0  0  0  0  0  0  0  0  0  0
  -19.5957  -28.2763   22.1885 N   0  0  0  0  0  0  0  0  0  0  0  0
  -28.1491  -17.2434   21.0596 N   0  0  0  0  0  0  0  0  0  0  0  0
  -21.6098  -30.9383   20.3136 N   0  0  0  0  0  0  0  0  0  0  0  0
  -18.3253  -29.0294   24.0403 N   0  0  0  0  0  0  0  0  0  0  0  0
  -18.2474  -24.5355   24.4819 N   0  0  0  0  0  0  0  0  0  0  0  0
  -26.8744  -26.4802   19.3070 N   0  0  0  0  0  0  0  0  0  0  0  0
  -31.3721  -16.5441   22.4211 N   0  0  0  0  0  0  0  0  0  0  0  0
  -25.1938  -15.7461   20.3649 N   0  0  0  0  0  0  0  0  0  0  0  0
  -23.6302  -31.5152   21.4639 N   0  0  0  0  0  0  0  0  0  0  0  0
  -22.5744  -17.6069   21.5304 N   0  3  0  0  0  0  0  0  0  0  0  0
  -17.5221  -26.5092   25.3969 O   0  0  0  0  0  0  0  0  0  0  0  0
  -30.6862  -17.2220   20.3015 O   0  0  0  0  0  0  0  0  0  0  0  0
  -27.4937  -15.2067   21.9861 O   0  0  0  0  0  0  0  0  0  0  0  0
  -24.5009  -17.6416   19.2229 O   0  0  0  0  0  0  0  0  0  0  0  0
  -23.3891  -31.8978   19.2038 O   0  0  0  0  0  0  0  0  0  0  0  0
  -20.6888  -20.8504   21.0914 O   0  0  0  0  0  0  0  0  0  0  0  0
  -28.8812  -22.8012   18.4851 O   0  0  0  0  0  0  0  0  0  1  0  0
  -16.5340  -17.2360   21.3703 F   0  0  0  0  0  0  0  0  0  0  0  0
  -19.8991  -19.4223   18.8600 F   0  0  0  0  0  0  0  0  0  0  0  0
  -24.4247  -28.9347   22.5874 F   0  0  0  0  0  0  0  0  0  0  0  0
  -25.2837  -26.5648   21.5743 F   0  0  0  0  0  0  0  0  0  0  0  0
  1  2  1  0  0  0  0
  1  5  2  0  0  0  0
  2  6  2  0  0  0  0
  3 10  2  0  0  0  0
  3 17  1  0  0  0  0
  4 11  1  0  0  0  0
  4 17  2  0  0  0  0
  5 19  1  0  0  0  0
  6 21  1  0  0  0  0
  7 12  2  0  0  0  0
  7 20  1  0  0  0  0
  8  9  2  0  0  0  0
  8 23  1  0  0  0  0
  9 24  1  0  0  0  0
 10 25  1  0  0  0  0
 11 25  2  0  0  0  0
 12 26  1  0  0  0  0
 13 14  2  0  0  0  0
 13 27  1  0  0  0  0
 14 28  1  0  0  0  0
 15 22  1  0  0  0  0
 15 26  2  0  0  0  0
 16 28  2  0  0  0  0
 16 29  1  0  0  0  0
 17 32  1  0  0  0  0
 18 32  1  0  0  0  0
 18 33  2  0  0  0  0
 18 34  1  0  0  0  0
 19 21  2  0  0  0  0
 19 39  1  0  0  0  0
 20 22  2  0  0  0  0
 20 40  1  0  0  0  0
 21 48  1  0  0  0  0
 22 41  1  0  0  0  0
 23 30  2  0  0  0  0
 23 57  1  0  0  0  0
 24 31  2  0  0  0  0
 24 71  1  0  0  0  0
 25 81  1  0  0  0  0
 26 82  1  0  0  0  0
 27 29  2  0  0  0  0
 27 81  1  0  0  0  0
 28 83  1  0  0  0  0
 29 84  1  0  0  0  0
 30 31  1  0  0  0  0
 30 85  1  0  0  0  0
 31 86  1  0  0  0  0
 32 65  2  0  0  0  0
 33 66  1  0  0  0  0
 33 69  1  0  0  0  0
 34 70  1  0  0  0  0
 34 76  2  0  0  0  0
 35 49  1  0  0  0  0
 35 72  1  0  0  0  0
 35 77  2  0  0  0  0
 36 62  1  0  0  0  0
 36 67  1  0  0  0  0
 36 78  2  0  0  0  0
 37 63  1  0  0  0  0
 37 73  1  0  0  0  0
 37 79  2  0  0  0  0
 38 68  1  0  0  0  0
 38 74  1  0  0  0  0
 38 80  2  0  0  0  0
 39 42  1  0  0  0  0
 40 49  1  0  0  0  0
 41 67  1  0  0  0  0
 42 44  1  0  0  0  0
 43 45  1  0  0  0  0
 43 46  1  0  0  0  0
 44 48  1  0  0  0  0
 45 50  1  0  0  0  0
 46 68  1  0  0  0  0
 47 50  1  0  0  0  0
 47 68  1  0  0  0  0
 48 72  1  0  0  0  0
 49 67  1  0  0  0  0
 50 66  1  0  0  0  0
 51 59  1  0  0  0  0
 52 63  1  0  0  0  0
 53 64  1  0  0  0  0
 54 64  1  0  0  0  0
 55 64  1  0  0  0  0
 56 75  1  0  0  0  0
 57 74  1  0  0  0  0
 58 60  1  0  0  0  0
 58 61  1  0  0  0  0
 59 74  1  0  0  0  0
 60 71  1  0  0  0  0
 61 82  1  0  0  0  0
 62 64  1  0  0  0  0
 62 73  1  0  0  0  0
 63 75  1  0  0  0  0
 65 66  1  0  0  0  0
M  CHG  1  75   1
M  ISO  4  38 100  61 101  74 100  82 101
M  END
> <Batch ID>
0020

> <Smiles>
CC[100N:0](Cc1ccc(NCC[101CH2:1][101O:1]c2ccc3c(c2)CN(C(=O)C(NC(=O)C(C)NC)C(C)(C)C)C(C(=O)NC2CCCc4ccccc42)C3)c(F)c1F)[100C:0](=O)N1CCCC(n2nc(-c3ccc(Oc4ccc(F)cc4F)cc3)c(C(N)=O)c2N)C1

> <Shape>
0.212

> <Color>
0.073

> <Negative vol penalty>
0.000

$$$$

  -OEChem-04042321083D

 84 92  0     1  0  0  0  0  0999 V2000
  -29.8678   -2.0832   36.8256 C   0  0  0  0  0  0  0  0  0  0  0  0
  -29.8000   -2.9386   35.7306 C   0  0  0  0  0  0  0  0  0  0  0  0
  -23.2846   -9.7975   19.9080 C   0  0  0  0  0  0  0  0  0  0  0  0
  -23.7225   -9.9368   22.2799 C   0  0  0  0  0  0  0  0  0  0  0  0
  -28.6956   -1.5915   37.3984 C   0  0  0  0  0  0  0  0  0  0  0  0
  -28.5597   -3.3021   35.2070 C   0  0  0  0  0  0  0  0  0  0  0  0
  -27.0427   -8.6994   32.7426 C   0  0  0  0  0  0  0  0  0  0  0  0
  -28.4291  -11.5084   25.2454 C   0  0  0  0  0  0  0  0  0  0  0  0
  -28.4860  -10.3588   23.1212 C   0  0  0  0  0  0  0  0  0  0  0  0
  -27.7612  -10.4241   25.8143 C   0  0  0  0  0  0  0  0  0  0  0  0
  -27.8181   -9.2744   23.6902 C   0  0  0  0  0  0  0  0  0  0  0  0
  -22.5525   -8.6278   20.1119 C   0  0  0  0  0  0  0  0  0  0  0  0
  -22.9904   -8.7671   22.4838 C   0  0  0  0  0  0  0  0  0  0  0  0
  -26.9560   -9.1361   31.4214 C   0  0  0  0  0  0  0  0  0  0  0  0
  -19.7387   -7.8687   22.6830 C   0  0  0  0  0  0  0  0  0  0  0  0
  -18.8303   -7.8507   23.7413 C   0  0  0  0  0  0  0  0  0  0  0  0
  -24.5870   -8.6809   31.4327 C   0  0  0  0  0  0  0  0  0  0  0  0
  -20.0233   -5.9990   24.7339 C   0  0  0  0  0  0  0  0  0  0  0  0
  -23.8696  -10.4519   20.9921 C   0  0  0  0  0  0  0  0  0  0  0  0
  -24.1400  -12.9809   20.7945 C   0  0  0  0  0  0  0  0  0  0  0  0
  -27.4401   -1.9568   36.8876 C   0  0  0  0  0  0  0  0  0  0  0  0
  -25.9022   -8.2391   33.4164 C   0  0  0  0  0  0  0  0  0  0  0  0
  -27.3696   -2.8138   35.7726 C   0  0  0  0  0  0  0  0  0  0  0  0
  -24.6614   -8.2413   32.7633 C   0  0  0  0  0  0  0  0  0  0  0  0
  -28.7915  -11.4758   23.8987 C   0  0  0  0  0  0  0  0  0  0  0  0
  -27.4557   -9.3071   25.0368 C   0  0  0  0  0  0  0  0  0  0  0  0
  -22.4054   -8.1126   21.3998 C   0  0  0  0  0  0  0  0  0  0  0  0
  -25.7286   -9.1242   30.7653 C   0  0  0  0  0  0  0  0  0  0  0  0
  -20.7894   -6.9518   22.6500 C   0  0  0  0  0  0  0  0  0  0  0  0
  -18.9726   -6.9159   24.7667 C   0  0  0  0  0  0  0  0  0  0  0  0
  -20.9317   -6.0170   23.6755 C   0  0  0  0  0  0  0  0  0  0  0  0
  -24.6265  -11.6599   20.7821 C   0  0  0  0  0  0  0  0  0  0  0  0
  -25.2459  -13.7565   20.5456 C   0  0  0  0  0  0  0  0  0  0  0  0
  -22.8075  -13.4637   21.0117 C   0  0  0  0  0  0  0  0  0  0  0  0
  -25.0315   -5.4755   34.7233 C   0  0  0  0  0  0  0  0  0  0  0  0
  -22.4723   -7.2006   35.7218 C   0  0  0  0  0  0  0  0  0  0  0  0
  -20.4424   -9.9047   35.2594 C   0  0  0  0  0  0  0  0  0  0  0  0
  -31.1496  -12.3509   21.3872 C   0  0  0  0  0  0  0  0  0  0  0  0
  -26.2020   -1.3624   37.5107 C   0  0  0  0  0  0  0  0  0  0  0  0
  -26.0076   -7.7965   34.8501 C   0  0  0  0  0  0  0  0  0  0  0  0
  -23.4036   -7.7759   33.4487 C   0  0  0  0  0  0  0  0  0  0  0  0
  -24.9172   -2.0935   37.1297 C   0  0  0  0  0  0  0  0  0  0  0  0
  -29.4877  -13.6547   18.3475 C   0  0  0  0  0  0  0  0  0  0  0  0
  -24.8769   -2.3545   35.6274 C   0  0  0  0  0  0  0  0  0  0  0  0
  -28.0171  -13.3328   18.6079 C   0  0  0  0  0  0  0  0  0  0  0  0
  -30.4170  -12.6711   19.0522 C   0  0  0  0  0  0  0  0  0  0  0  0
  -28.6994  -12.2294   20.7753 C   0  0  0  0  0  0  0  0  0  0  0  0
  -26.0424   -3.2508   35.1916 C   0  0  1  0  0  0  0  0  0  0  0  0
  -24.8755   -6.8653   35.2727 C   0  0  1  0  0  0  0  0  0  0  0  0
  -27.7370  -13.2295   20.1172 C   0  0  2  0  0  0  0  0  0  0  0  0
  -18.4121  -11.0298   36.2130 C   0  0  0  0  0  0  0  0  0  0  0  0
  -20.6974   -5.0672   34.4536 C   0  0  0  0  0  0  0  0  0  0  0  0
  -18.7849   -6.6772   34.5889 C   0  0  0  0  0  0  0  0  0  0  0  0
  -19.9058   -5.8966   36.6762 C   0  0  0  0  0  0  0  0  0  0  0  0
  -26.4659   -7.0444   24.7913 C   0  0  0  0  0  0  0  0  0  0  0  0
  -31.8627  -12.0559   23.7290 C   0  0  0  0  0  0  0  0  0  0  0  0
  -21.9521  -12.3786   35.8592 C   0  0  0  0  0  0  0  0  0  0  0  0
  -29.5053  -12.6348   23.2894 C   0  0  0  0  0  0  0  0  0  0  0  0
  -25.1026   -8.9645   27.2113 C   0  0  0  0  0  0  0  0  0  0  0  0
  -26.4098   -8.2097   27.0020 C   0  0  0  0  0  0  0  0  0  0  0  0
  -24.6335   -8.9512   28.6614 C   0  0  0  0  0  0  0  0  0  1  0  0
  -21.1096   -7.5176   35.1547 C   0  0  1  0  0  0  0  0  0  0  0  0
  -19.9311  -10.9575   36.2262 C   0  0  2  0  0  0  0  0  0  0  0  0
  -20.1483   -6.2967   35.2045 C   0  0  0  0  0  0  0  0  0  0  0  0
  -25.9392  -11.5961   20.5439 N   0  0  0  0  0  0  0  0  0  0  0  0
  -26.2869  -12.8867   20.4044 N   0  0  0  0  0  0  0  0  0  0  0  0
  -23.5593   -7.3469   34.8484 N   0  0  0  0  0  0  0  0  0  0  0  0
  -30.1009  -12.5599   20.4766 N   0  0  0  0  0  0  0  0  0  0  0  0
  -25.4196  -15.0907   20.4359 N   0  0  0  0  0  0  0  0  0  0  0  0
  -21.7900  -12.5308   21.2536 N   0  0  0  0  0  0  0  0  0  0  0  0
  -25.7716   -4.6317   35.5293 N   0  0  0  0  0  0  0  0  0  0  0  0
  -20.6276   -8.6877   35.8806 N   0  0  0  0  0  0  0  0  0  0  0  0
  -26.7858   -8.2161   25.6089 N   0  0  3  0  0  0  0  0  0  0  0  0
  -30.8090  -12.2608   22.7454 N   0  0  0  0  0  0  0  0  0  0  0  0
  -20.4686  -12.2991   35.8629 N   0  3  0  0  0  0  0  0  0  0  0  0
  -22.5246  -14.6852   20.9756 O   0  0  0  0  0  0  0  0  0  0  0  0
  -24.5171   -5.1895   33.6485 O   0  0  0  0  0  0  0  0  0  0  0  0
  -22.5694   -6.8434   36.8985 O   0  0  0  0  0  0  0  0  0  0  0  0
  -20.6527  -10.1376   34.0711 O   0  0  0  0  0  0  0  0  0  0  0  0
  -32.3246  -12.2600   21.0088 O   0  0  0  0  0  0  0  0  0  0  0  0
  -21.6909   -6.9715   21.5991 O   0  0  0  0  0  0  0  0  0  0  0  0
  -25.6413   -9.5493   29.4756 O   0  0  0  0  0  0  0  0  0  1  0  0
  -18.1010   -6.8998   25.7838 F   0  0  0  0  0  0  0  0  0  0  0  0
  -21.9398   -5.1344   23.6500 F   0  0  0  0  0  0  0  0  0  0  0  0
  1  2  1  0  0  0  0
  1  5  2  0  0  0  0
  2  6  2  0  0  0  0
  3 12  2  0  0  0  0
  3 19  1  0  0  0  0
  4 13  1  0  0  0  0
  4 19  2  0  0  0  0
  5 21  1  0  0  0  0
  6 23  1  0  0  0  0
  7 14  2  0  0  0  0
  7 22  1  0  0  0  0
  8 10  2  0  0  0  0
  8 25  1  0  0  0  0
  9 11  1  0  0  0  0
  9 25  2  0  0  0  0
 10 26  1  0  0  0  0
 11 26  2  0  0  0  0
 12 27  1  0  0  0  0
 13 27  2  0  0  0  0
 14 28  1  0  0  0  0
 15 16  2  0  0  0  0
 15 29  1  0  0  0  0
 16 30  1  0  0  0  0
 17 24  1  0  0  0  0
 17 28  2  0  0  0  0
 18 30  2  0  0  0  0
 18 31  1  0  0  0  0
 19 32  1  0  0  0  0
 20 32  1  0  0  0  0
 20 33  2  0  0  0  0
 20 34  1  0  0  0  0
 21 23  2  0  0  0  0
 21 39  1  0  0  0  0
 22 24  2  0  0  0  0
 22 40  1  0  0  0  0
 23 48  1  0  0  0  0
 24 41  1  0  0  0  0
 25 58  1  0  0  0  0
 26 73  1  0  0  0  0
 27 81  1  0  0  0  0
 28 82  1  0  0  0  0
 29 31  2  0  0  0  0
 29 81  1  0  0  0  0
 30 83  1  0  0  0  0
 31 84  1  0  0  0  0
 32 65  2  0  0  0  0
 33 66  1  0  0  0  0
 33 69  1  0  0  0  0
 34 70  1  0  0  0  0
 34 76  2  0  0  0  0
 35 49  1  0  0  0  0
 35 71  1  0  0  0  0
 35 77  2  0  0  0  0
 36 62  1  0  0  0  0
 36 67  1  0  0  0  0
 36 78  2  0  0  0  0
 37 63  1  0  0  0  0
 37 72  1  0  0  0  0
 37 79  2  0  0  0  0
 38 68  1  0  0  0  0
 38 74  1  0  0  0  0
 38 80  2  0  0  0  0
 39 42  1  0  0  0  0
 40 49  1  0  0  0  0
 41 67  1  0  0  0  0
 42 44  1  0  0  0  0
 43 45  1  0  0  0  0
 43 46  1  0  0  0  0
 44 48  1  0  0  0  0
 45 50  1  0  0  0  0
 46 68  1  0  0  0  0
 47 50  1  0  0  0  0
 47 68  1  0  0  0  0
 48 71  1  0  0  0  0
 49 67  1  0  0  0  0
 50 66  1  0  0  0  0
 51 63  1  0  0  0  0
 52 64  1  0  0  0  0
 53 64  1  0  0  0  0
 54 64  1  0  0  0  0
 55 73  1  0  0  0  0
 56 74  1  0  0  0  0
 57 75  1  0  0  0  0
 58 74  1  0  0  0  0
 59 60  1  0  0  0  0
 59 61  1  0  0  0  0
 60 73  1  0  0  0  0
 61 82  1  0  0  0  0
 62 64  1  0  0  0  0
 62 72  1  0  0  0  0
 63 75  1  0  0  0  0
 65 66  1  0  0  0  0
M  CHG  1  75   1
M  ISO  4  38 100  61 101  74 100  82 101
M  END
> <Batch ID>
0020

> <Smiles>
CNC(C)C(=O)NC(C(=O)N1Cc2cc([101O:1][101CH2:1]CCN(C)c3ccc(C[100N:0](C)[100C:0](=O)N4CCCC(n5nc(-c6ccc(Oc7ccc(F)cc7F)cc6)c(C(N)=O)c5N)C4)cc3)ccc2CC1C(=O)NC1CCCc2ccccc21)C(C)(C)C

> <Shape>
0.132

> <Color>
0.185

> <Negative vol penalty>
0.000

$$$$

  -OEChem-04042321083D

 83 92  0     1  0  0  0  0  0999 V2000
  -16.7671  -29.9311   23.9653 C   0  0  0  0  0  0  0  0  0  0  0  0
  -17.9158  -30.5272   24.4758 C   0  0  0  0  0  0  0  0  0  0  0  0
  -28.1091  -15.6373   19.3329 C   0  0  0  0  0  0  0  0  0  0  0  0
  -29.4409  -15.9730   21.3206 C   0  0  0  0  0  0  0  0  0  0  0  0
  -16.8698  -28.7925   23.1672 C   0  0  0  0  0  0  0  0  0  0  0  0
  -19.1679  -29.9843   24.1893 C   0  0  0  0  0  0  0  0  0  0  0  0
  -25.9757  -31.9249   23.0916 C   0  0  0  0  0  0  0  0  0  0  0  0
  -28.8717  -26.3579   24.5997 C   0  0  0  0  0  0  0  0  0  0  0  0
  -30.6512  -27.4420   23.3770 C   0  0  0  0  0  0  0  0  0  0  0  0
  -28.7388  -25.4206   23.5753 C   0  0  0  0  0  0  0  0  0  0  0  0
  -30.5184  -26.5047   22.3526 C   0  0  0  0  0  0  0  0  0  0  0  0
  -28.4723  -14.2906   19.3170 C   0  0  0  0  0  0  0  0  0  0  0  0
  -29.8041  -14.6263   21.3046 C   0  0  0  0  0  0  0  0  0  0  0  0
  -27.2641  -31.6329   23.5371 C   0  0  0  0  0  0  0  0  0  0  0  0
  -28.4296  -11.6669   22.1838 C   0  0  0  0  0  0  0  0  0  0  0  0
  -28.3860  -10.9712   23.3919 C   0  0  0  0  0  0  0  0  0  0  0  0
  -27.3248  -29.7098   22.0820 C   0  0  0  0  0  0  0  0  0  0  0  0
  -30.7485  -10.5006   23.2060 C   0  0  0  0  0  0  0  0  0  0  0  0
  -28.5934  -16.4785   20.3347 C   0  0  0  0  0  0  0  0  0  0  0  0
  -27.1084  -18.4435   20.9989 C   0  0  0  0  0  0  0  0  0  0  0  0
  -18.1244  -28.2410   22.8629 C   0  0  0  0  0  0  0  0  0  0  0  0
  -25.3469  -31.1039   22.1444 C   0  0  0  0  0  0  0  0  0  0  0  0
  -19.2874  -28.8365   23.3875 C   0  0  0  0  0  0  0  0  0  0  0  0
  -26.0294  -29.9950   21.6242 C   0  0  0  0  0  0  0  0  0  0  0  0
  -29.8278  -27.3687   24.5005 C   0  0  0  0  0  0  0  0  0  0  0  0
  -29.5622  -25.4940   22.4518 C   0  0  0  0  0  0  0  0  0  0  0  0
  -29.3198  -13.7852   20.3028 C   0  0  0  0  0  0  0  0  0  0  0  0
  -27.9378  -30.5236   23.0345 C   0  0  0  0  0  0  0  0  0  0  0  0
  -29.6325  -11.7794   21.4866 C   0  0  0  0  0  0  0  0  0  0  0  0
  -29.5455  -10.3880   23.9030 C   0  0  0  0  0  0  0  0  0  0  0  0
  -30.7920  -11.1963   21.9978 C   0  0  0  0  0  0  0  0  0  0  0  0
  -28.2190  -17.8697   20.3514 C   0  0  0  0  0  0  0  0  0  0  0  0
  -27.1989  -19.7838   20.7129 C   0  0  0  0  0  0  0  0  0  0  0  0
  -26.0864  -17.8206   21.7883 C   0  0  0  0  0  0  0  0  0  0  0  0
  -22.7278  -29.3029   22.1231 C   0  0  0  0  0  0  0  0  0  0  0  0
  -23.4664  -28.9511   18.9842 C   0  0  0  0  0  0  0  0  0  0  0  0
  -25.8518  -29.0147   16.5443 C   0  0  0  0  0  0  0  0  0  0  0  0
  -30.1640  -24.4718   20.2293 C   0  0  0  0  0  0  0  0  0  0  0  0
  -18.1823  -26.9818   22.0348 C   0  0  0  0  0  0  0  0  0  0  0  0
  -23.9671  -31.4477   21.6543 C   0  0  0  0  0  0  0  0  0  0  0  0
  -25.4064  -29.0936   20.5909 C   0  0  0  0  0  0  0  0  0  0  0  0
  -19.5696  -26.6874   21.4700 C   0  0  0  0  0  0  0  0  0  0  0  0
  -30.1596  -22.2607   17.4386 C   0  0  0  0  0  0  0  0  0  0  0  0
  -29.9148  -29.3009   27.6590 C   0  0  0  0  0  0  0  0  0  0  0  0
  -20.6323  -26.8519   22.5518 C   0  0  0  0  0  0  0  0  0  0  0  0
  -29.5630  -20.9684   18.0009 C   0  0  0  0  0  0  0  0  0  0  0  0
  -30.9538  -30.0023   26.7985 C   0  0  0  0  0  0  0  0  0  0  0  0
  -29.6597  -27.9938   26.9154 C   0  0  0  0  0  0  0  0  0  0  0  0
  -31.0485  -22.9668   18.4609 C   0  0  0  0  0  0  0  0  0  0  0  0
  -29.8221  -21.9244   20.3259 C   0  0  0  0  0  0  0  0  0  0  0  0
  -20.6650  -28.2917   23.0787 C   0  0  1  0  0  0  0  0  0  0  0  0
  -23.2255  -30.2502   21.0683 C   0  0  1  0  0  0  0  0  0  0  0  0
  -28.8673  -21.2113   19.3546 C   0  0  2  0  0  0  0  0  0  0  0  0
  -30.5498  -29.6339   25.3640 C   0  0  2  0  0  0  0  0  0  0  0  0
  -26.1604  -28.6479   14.0811 C   0  0  0  0  0  0  0  0  0  0  0  0
  -23.3292  -25.9341   19.4188 C   0  0  0  0  0  0  0  0  0  0  0  0
  -24.5469  -25.6367   17.2515 C   0  0  0  0  0  0  0  0  0  0  0  0
  -22.3037  -26.7277   17.2803 C   0  0  0  0  0  0  0  0  0  0  0  0
  -26.7509  -31.8029   16.1240 C   0  0  0  0  0  0  0  0  0  0  0  0
  -29.5257  -30.6192   24.8023 C   0  0  0  0  0  0  0  0  0  1  0  0
  -24.3038  -27.9821   18.1850 C   0  0  1  0  0  0  0  0  0  0  0  0
  -25.8733  -29.6663   15.1734 C   0  0  2  0  0  0  0  0  0  0  0  0
  -23.6322  -26.5858   18.0548 C   0  0  0  0  0  0  0  0  0  0  0  0
  -28.9605  -18.7717   19.7028 N   0  0  0  0  0  0  0  0  0  0  0  0
  -28.3145  -19.9258   19.9412 N   0  0  0  0  0  0  0  0  0  0  0  0
  -29.9583  -28.2987   25.5147 N   0  0  3  0  0  0  0  0  0  0  0  0
  -24.0532  -29.4679   20.1480 N   0  0  0  0  0  0  0  0  0  0  0  0
  -30.3216  -23.1669   19.7164 N   0  0  0  0  0  0  0  0  0  0  0  0
  -26.4322  -20.8430   21.0486 N   0  0  0  0  0  0  0  0  0  0  0  0
  -26.1445  -16.4338   21.9827 N   0  0  0  0  0  0  0  0  0  0  0  0
  -29.4272  -24.5417   21.4112 N   0  0  0  0  0  0  0  0  0  0  0  0
  -21.3540  -29.1561   22.1446 N   0  0  0  0  0  0  0  0  0  0  0  0
  -24.5776  -28.6348   16.9093 N   0  0  0  0  0  0  0  0  0  0  0  0
  -26.9229  -30.7229   15.1185 N   0  3  0  0  0  0  0  0  0  0  0  0
  -25.1404  -18.4721   22.2923 O   0  0  0  0  0  0  0  0  0  0  0  0
  -23.5310  -28.7451   22.8618 O   0  0  0  0  0  0  0  0  0  0  0  0
  -22.3362  -29.2444   18.5865 O   0  0  0  0  0  0  0  0  0  0  0  0
  -26.8647  -28.8552   17.2220 O   0  0  0  0  0  0  0  0  0  0  0  0
  -30.6237  -25.4577   19.6474 O   0  0  0  0  0  0  0  0  0  0  0  0
  -29.6742  -12.4711   20.2877 O   0  0  0  0  0  0  0  0  0  0  0  0
  -29.1952  -30.2359   23.4681 O   0  0  0  0  0  0  0  0  0  1  0  0
  -29.5039   -9.7213   25.0640 F   0  0  0  0  0  0  0  0  0  0  0  0
  -31.9508  -11.3020   21.3332 F   0  0  0  0  0  0  0  0  0  0  0  0
  1  2  1  0  0  0  0
  1  5  2  0  0  0  0
  2  6  2  0  0  0  0
  3 12  2  0  0  0  0
  3 19  1  0  0  0  0
  4 13  1  0  0  0  0
  4 19  2  0  0  0  0
  5 21  1  0  0  0  0
  6 23  1  0  0  0  0
  7 14  2  0  0  0  0
  7 22  1  0  0  0  0
  8 10  2  0  0  0  0
  8 25  1  0  0  0  0
  9 11  1  0  0  0  0
  9 25  2  0  0  0  0
 10 26  1  0  0  0  0
 11 26  2  0  0  0  0
 12 27  1  0  0  0  0
 13 27  2  0  0  0  0
 14 28  1  0  0  0  0
 15 16  2  0  0  0  0
 15 29  1  0  0  0  0
 16 30  1  0  0  0  0
 17 24  1  0  0  0  0
 17 28  2  0  0  0  0
 18 30  2  0  0  0  0
 18 31  1  0  0  0  0
 19 32  1  0  0  0  0
 20 32  1  0  0  0  0
 20 33  2  0  0  0  0
 20 34  1  0  0  0  0
 21 23  2  0  0  0  0
 21 39  1  0  0  0  0
 22 24  2  0  0  0  0
 22 40  1  0  0  0  0
 23 51  1  0  0  0  0
 24 41  1  0  0  0  0
 25 66  1  0  0  0  0
 26 71  1  0  0  0  0
 27 80  1  0  0  0  0
 28 81  1  0  0  0  0
 29 31  2  0  0  0  0
 29 80  1  0  0  0  0
 30 82  1  0  0  0  0
 31 83  1  0  0  0  0
 32 64  2  0  0  0  0
 33 65  1  0  0  0  0
 33 69  1  0  0  0  0
 34 70  1  0  0  0  0
 34 75  2  0  0  0  0
 35 52  1  0  0  0  0
 35 72  1  0  0  0  0
 35 76  2  0  0  0  0
 36 61  1  0  0  0  0
 36 67  1  0  0  0  0
 36 77  2  0  0  0  0
 37 62  1  0  0  0  0
 37 73  1  0  0  0  0
 37 78  2  0  0  0  0
 38 68  1  0  0  0  0
 38 71  1  0  0  0  0
 38 79  2  0  0  0  0
 39 42  1  0  0  0  0
 40 52  1  0  0  0  0
 41 67  1  0  0  0  0
 42 45  1  0  0  0  0
 43 46  1  0  0  0  0
 43 49  1  0  0  0  0
 44 47  1  0  0  0  0
 44 48  1  0  0  0  0
 45 51  1  0  0  0  0
 46 53  1  0  0  0  0
 47 54  1  0  0  0  0
 48 66  1  0  0  0  0
 49 68  1  0  0  0  0
 50 53  1  0  0  0  0
 50 68  1  0  0  0  0
 51 72  1  0  0  0  0
 52 67  1  0  0  0  0
 53 65  1  0  0  0  0
 54 60  1  0  0  0  0
 54 66  1  0  0  0  0
 55 62  1  0  0  0  0
 56 63  1  0  0  0  0
 57 63  1  0  0  0  0
 58 63  1  0  0  0  0
 59 74  1  0  0  0  0
 60 81  1  0  0  0  0
 61 63  1  0  0  0  0
 61 73  1  0  0  0  0
 62 74  1  0  0  0  0
 64 65  1  0  0  0  0
M  CHG  1  74   1
M  ISO  4  38 100  60 101  71 100  81 101
M  END
> <Batch ID>
0020

> <Smiles>
CNC(C)C(=O)NC(C(=O)N1Cc2cc([101O:1][101CH2:1]C3CCCN3c3ccc([100NH:0][100C:0](=O)N4CCCC(n5nc(-c6ccc(Oc7ccc(F)cc7F)cc6)c(C(N)=O)c5N)C4)cc3)ccc2CC1C(=O)NC1CCCc2ccccc21)C(C)(C)C

> <Shape>
0.266

> <Color>
0.114

> <Negative vol penalty>
0.000

$$$$

  -OEChem-04042321083D

 92101  0     1  0  0  0  0  0999 V2000
  -32.8175  -27.2155   17.6687 C   0  0  0  0  0  0  0  0  0  0  0  0
  -31.8678  -26.2324   17.4145 C   0  0  0  0  0  0  0  0  0  0  0  0
  -23.0593   -9.8919   19.9310 C   0  0  0  0  0  0  0  0  0  0  0  0
  -23.8382   -9.8600   22.2178 C   0  0  0  0  0  0  0  0  0  0  0  0
  -32.4120  -28.4740   18.1079 C   0  0  0  0  0  0  0  0  0  0  0  0
  -30.5116  -26.5112   17.5880 C   0  0  0  0  0  0  0  0  0  0  0  0
  -27.3173  -23.0650   16.1309 C   0  0  0  0  0  0  0  0  0  0  0  0
  -31.3544  -19.0533   20.6633 C   0  0  0  0  0  0  0  0  0  0  0  0
  -31.1779  -17.6699   20.6387 C   0  0  0  0  0  0  0  0  0  0  0  0
  -22.3120   -8.7385   20.1695 C   0  0  0  0  0  0  0  0  0  0  0  0
  -23.0908   -8.7067   22.4563 C   0  0  0  0  0  0  0  0  0  0  0  0
  -27.1376  -21.8652   16.8179 C   0  0  0  0  0  0  0  0  0  0  0  0
  -19.8640   -7.9150   23.0736 C   0  0  0  0  0  0  0  0  0  0  0  0
  -19.1166   -7.8606   24.2500 C   0  0  0  0  0  0  0  0  0  0  0  0
  -25.0802  -22.7134   17.7489 C   0  0  0  0  0  0  0  0  0  0  0  0
  -29.7395  -19.2278   22.4517 C   0  0  0  0  0  0  0  0  0  0  0  0
  -20.3547   -5.9063   24.9463 C   0  0  0  0  0  0  0  0  0  0  0  0
  -23.8225  -10.4526   20.9552 C   0  0  0  0  0  0  0  0  0  0  0  0
  -24.1755  -12.9777   20.8710 C   0  0  0  0  0  0  0  0  0  0  0  0
  -31.0508  -28.7636   18.2985 C   0  0  0  0  0  0  0  0  0  0  0  0
  -26.3838  -24.1038   16.2566 C   0  0  0  0  0  0  0  0  0  0  0  0
  -30.0809  -27.7828   18.0075 C   0  0  0  0  0  0  0  0  0  0  0  0
  -25.2491  -23.9245   17.0605 C   0  0  0  0  0  0  0  0  0  0  0  0
  -30.6353  -19.8323   21.5698 C   0  0  0  0  0  0  0  0  0  0  0  0
  -30.2821  -17.0654   21.5206 C   0  0  0  0  0  0  0  0  0  0  0  0
  -22.3277   -8.1460   21.4322 C   0  0  0  0  0  0  0  0  0  0  0  0
  -26.0204  -21.6903   17.6293 C   0  0  0  0  0  0  0  0  0  0  0  0
  -20.8567   -6.9649   22.8334 C   0  0  0  0  0  0  0  0  0  0  0  0
  -19.3619   -6.8563   25.1864 C   0  0  0  0  0  0  0  0  0  0  0  0
  -29.5629  -17.8443   22.4272 C   0  0  0  0  0  0  0  0  0  0  0  0
  -21.1020   -5.9606   23.7698 C   0  0  0  0  0  0  0  0  0  0  0  0
  -24.5952  -11.6437   20.7093 C   0  0  0  0  0  0  0  0  0  0  0  0
  -25.2683  -13.7275   20.5101 C   0  0  0  0  0  0  0  0  0  0  0  0
  -28.2084  -21.3889   20.4557 C   0  0  0  0  0  0  0  0  0  0  0  0
  -22.9111  -13.4930   21.3084 C   0  0  0  0  0  0  0  0  0  0  0  0
  -26.4841  -27.0908   17.3391 C   0  0  0  0  0  0  0  0  0  0  0  0
  -23.4437  -27.1879   16.2125 C   0  0  0  0  0  0  0  0  0  0  0  0
  -20.6156  -25.4808   15.3556 C   0  0  0  0  0  0  0  0  0  0  0  0
  -30.7407  -14.7445   20.6550 C   0  0  0  0  0  0  0  0  0  0  0  0
  -30.6671  -30.1448   18.7679 C   0  0  0  0  0  0  0  0  0  0  0  0
  -26.5785  -25.3820   15.4879 C   0  0  0  0  0  0  0  0  0  0  0  0
  -24.2071  -25.0013   17.2131 C   0  0  0  0  0  0  0  0  0  0  0  0
  -29.2564  -30.2062   19.3445 C   0  0  0  0  0  0  0  0  0  0  0  0
  -29.5950  -12.3726   18.2595 C   0  0  0  0  0  0  0  0  0  0  0  0
  -28.2754  -29.5426   18.3896 C   0  0  0  0  0  0  0  0  0  0  0  0
  -28.1576  -12.0813   18.6966 C   0  0  0  0  0  0  0  0  0  0  0  0
  -30.5212  -12.5786   19.4568 C   0  0  0  0  0  0  0  0  0  0  0  0
  -26.6965  -22.2262   22.0189 C   0  0  0  0  0  0  0  0  0  0  0  0
  -28.6293  -13.2908   20.8649 C   0  0  0  0  0  0  0  0  0  0  0  0
  -28.6022  -28.0537   18.2184 C   0  0  1  0  0  0  0  0  0  0  0  0
  -25.8283  -26.5640   16.0941 C   0  0  1  0  0  0  0  0  0  0  0  0
  -27.6803  -23.3556   21.6775 C   0  0  1  0  0  0  0  0  0  0  0  0
  -27.6459  -13.1402   19.6928 C   0  0  2  0  0  0  0  0  0  0  0  0
  -28.8868  -22.5843   21.0520 C   0  0  2  0  0  0  0  0  0  0  0  0
  -27.0014  -24.3553   20.7349 C   0  0  0  0  0  0  0  0  0  0  0  0
  -29.6686  -23.4021   20.0195 C   0  0  0  0  0  0  0  0  0  0  0  0
  -18.2823  -25.8362   14.5032 C   0  0  0  0  0  0  0  0  0  0  0  0
  -23.8736  -19.7484   19.4587 C   0  0  0  0  0  0  0  0  0  0  0  0
  -22.5832  -28.1513   18.9768 C   0  0  0  0  0  0  0  0  0  0  0  0
  -20.2238  -27.5793   18.3650 C   0  0  0  0  0  0  0  0  0  0  0  0
  -21.4602  -29.3161   17.0698 C   0  0  0  0  0  0  0  0  0  0  0  0
  -32.0445  -21.7952   21.0033 C   0  0  0  0  0  0  0  0  0  0  0  0
  -21.1362  -23.8787   12.9223 C   0  0  0  0  0  0  0  0  0  0  0  0
  -29.8494  -22.1124   22.1562 C   0  0  0  0  0  0  0  0  0  0  0  0
  -26.0798  -20.1389   20.6592 C   0  0  0  0  0  0  0  0  0  0  0  0
  -22.0810  -26.8818   16.7854 C   0  0  1  0  0  0  0  0  0  0  0  0
  -19.7283  -25.5543   14.1261 C   0  0  2  0  0  0  0  0  0  0  0  0
  -25.1430  -20.5847   19.5435 C   0  0  1  0  0  0  0  0  0  1  0  0
  -21.6075  -27.9624   17.7981 C   0  0  0  0  0  0  0  0  0  0  0  0
  -25.8560  -11.5483   20.2790 N   0  0  0  0  0  0  0  0  0  0  0  0
  -26.2381  -12.8319   20.1672 N   0  0  0  0  0  0  0  0  0  0  0  0
  -27.0017  -21.2159   20.9983 N   0  0  0  0  0  0  0  0  0  0  0  0
  -24.4455  -26.2352   16.4462 N   0  0  0  0  0  0  0  0  0  0  0  0
  -29.9745  -13.5985   20.3545 N   0  0  0  0  0  0  0  0  0  0  0  0
  -25.4845  -15.0589   20.4557 N   0  0  0  0  0  0  0  0  0  0  0  0
  -21.8976  -12.5835   21.6402 N   0  0  0  0  0  0  0  0  0  0  0  0
  -30.1046  -15.6599   21.4929 N   0  0  0  0  0  0  0  0  0  0  0  0
  -27.7874  -27.5109   17.1539 N   0  0  0  0  0  0  0  0  0  0  0  0
  -21.1899  -26.7006   15.6446 N   0  0  0  0  0  0  0  0  0  0  0  0
  -30.8148  -21.2349   21.5950 N   0  0  3  0  0  0  0  0  0  0  0  0
  -28.8071  -20.6506   19.5340 N   0  3  0  0  0  0  0  0  0  0  0  0
  -19.7759  -24.2677   13.3754 N   0  3  0  0  0  0  0  0  0  0  0  0
  -22.6813  -14.7237   21.3866 O   0  0  0  0  0  0  0  0  0  0  0  0
  -25.8537  -27.1157   18.3897 O   0  0  0  0  0  0  0  0  0  0  0  0
  -23.6113  -28.2305   15.5748 O   0  0  0  0  0  0  0  0  0  0  0  0
  -20.7797  -24.4459   15.9978 O   0  0  0  0  0  0  0  0  0  0  0  0
  -31.8667  -14.9151   20.1806 O   0  0  0  0  0  0  0  0  0  0  0  0
  -21.5984   -7.0207   21.6653 O   0  0  0  0  0  0  0  0  0  0  0  0
  -25.8428  -20.5205   18.3015 O   0  0  0  0  0  0  0  0  0  1  0  0
  -18.6452   -6.8052   26.3168 F   0  0  0  0  0  0  0  0  0  0  0  0
  -28.6989  -17.2739   23.2790 F   0  0  0  0  0  0  0  0  0  0  0  0
  -22.0552   -5.0458   23.5452 F   0  0  0  0  0  0  0  0  0  0  0  0
  1  2  1  0  0  0  0
  1  5  2  0  0  0  0
  2  6  2  0  0  0  0
  3 10  2  0  0  0  0
  3 18  1  0  0  0  0
  4 11  1  0  0  0  0
  4 18  2  0  0  0  0
  5 20  1  0  0  0  0
  6 22  1  0  0  0  0
  7 12  2  0  0  0  0
  7 21  1  0  0  0  0
  8  9  2  0  0  0  0
  8 24  1  0  0  0  0
  9 25  1  0  0  0  0
 10 26  1  0  0  0  0
 11 26  2  0  0  0  0
 12 27  1  0  0  0  0
 13 14  2  0  0  0  0
 13 28  1  0  0  0  0
 14 29  1  0  0  0  0
 15 23  1  0  0  0  0
 15 27  2  0  0  0  0
 16 24  2  0  0  0  0
 16 30  1  0  0  0  0
 17 29  2  0  0  0  0
 17 31  1  0  0  0  0
 18 32  1  0  0  0  0
 19 32  1  0  0  0  0
 19 33  2  0  0  0  0
 19 35  1  0  0  0  0
 20 22  2  0  0  0  0
 20 40  1  0  0  0  0
 21 23  2  0  0  0  0
 21 41  1  0  0  0  0
 22 50  1  0  0  0  0
 23 42  1  0  0  0  0
 24 80  1  0  0  0  0
 25 30  2  0  0  0  0
 25 77  1  0  0  0  0
 26 88  1  0  0  0  0
 27 89  1  0  0  0  0
 28 31  2  0  0  0  0
 28 88  1  0  0  0  0
 29 90  1  0  0  0  0
 30 91  1  0  0  0  0
 31 92  1  0  0  0  0
 32 70  2  0  0  0  0
 33 71  1  0  0  0  0
 33 75  1  0  0  0  0
 34 54  1  0  0  0  0
 34 72  1  0  0  0  0
 34 81  2  0  0  0  0
 35 76  1  0  0  0  0
 35 83  2  0  0  0  0
 36 51  1  0  0  0  0
 36 78  1  0  0  0  0
 36 84  2  0  0  0  0
 37 66  1  0  0  0  0
 37 73  1  0  0  0  0
 37 85  2  0  0  0  0
 38 67  1  0  0  0  0
 38 79  1  0  0  0  0
 38 86  2  0  0  0  0
 39 74  1  0  0  0  0
 39 77  1  0  0  0  0
 39 87  2  0  0  0  0
 40 43  1  0  0  0  0
 41 51  1  0  0  0  0
 42 73  1  0  0  0  0
 43 45  1  0  0  0  0
 44 46  1  0  0  0  0
 44 47  1  0  0  0  0
 45 50  1  0  0  0  0
 46 53  1  0  0  0  0
 47 74  1  0  0  0  0
 48 52  1  0  0  0  0
 48 72  1  0  0  0  0
 49 53  1  0  0  0  0
 49 74  1  0  0  0  0
 50 78  1  0  0  0  0
 51 73  1  0  0  0  0
 52 54  1  0  0  0  0
 52 55  1  0  0  0  0
 53 71  1  0  0  0  0
 54 56  1  0  0  0  0
 54 64  1  0  0  0  0
 57 67  1  0  0  0  0
 58 68  1  0  0  0  0
 59 69  1  0  0  0  0
 60 69  1  0  0  0  0
 61 69  1  0  0  0  0
 62 80  1  0  0  0  0
 63 82  1  0  0  0  0
 64 80  1  0  0  0  0
 65 68  1  0  0  0  0
 65 72  1  0  0  0  0
 66 69  1  0  0  0  0
 66 79  1  0  0  0  0
 67 82  1  0  0  0  0
 68 89  1  0  0  0  0
 70 71  1  0  0  0  0
M  CHG  2  81   1  82   1
M  ISO  4  39 100  68 101  77 100  89 101
M  END
> <Batch ID>
0020

> <Smiles>
CNC(C)C(=O)NC(C(=O)N1Cc2cc([101O:1][101CH:1](C)CN3CC(C)C(C)(CN(C)c4ccc([100NH:0][100C:0](=O)N5CCCC(n6nc(-c7ccc(Oc8ccc(F)cc8F)cc7)c(C(N)=O)c6N)C5)c(F)c4)C3=N)ccc2CC1C(=O)NC1CCCc2ccccc21)C(C)(C)C

> <Shape>
0.233

> <Color>
0.187

> <Negative vol penalty>
0.000

$$$$

  -OEChem-04042321083D

 97106  0     1  0  0  0  0  0999 V2000
  -17.7125  -22.1928   22.0366 C   0  0  0  0  0  0  0  0  0  0  0  0
  -18.9719  -21.9263   22.5641 C   0  0  0  0  0  0  0  0  0  0  0  0
  -22.9043   -9.8436   20.0156 C   0  0  0  0  0  0  0  0  0  0  0  0
  -24.2987   -9.4413   21.9471 C   0  0  0  0  0  0  0  0  0  0  0  0
  -17.5046  -23.3450   21.2796 C   0  0  0  0  0  0  0  0  0  0  0  0
  -20.0245  -22.8115   22.3340 C   0  0  0  0  0  0  0  0  0  0  0  0
  -22.7239  -23.7487   26.5149 C   0  0  0  0  0  0  0  0  0  0  0  0
  -29.5511  -16.6914   18.7716 C   0  0  0  0  0  0  0  0  0  0  0  0
  -29.9039  -17.3921   17.6183 C   0  0  0  0  0  0  0  0  0  0  0  0
  -22.2399   -8.6387   20.2443 C   0  0  0  0  0  0  0  0  0  0  0  0
  -23.6343   -8.2364   22.1758 C   0  0  0  0  0  0  0  0  0  0  0  0
  -23.6391  -22.7753   26.9134 C   0  0  0  0  0  0  0  0  0  0  0  0
  -20.7044   -7.2261   23.5232 C   0  0  0  0  0  0  0  0  0  0  0  0
  -20.3203   -6.9380   24.8328 C   0  0  0  0  0  0  0  0  0  0  0  0
  -25.4252  -24.0563   25.9193 C   0  0  0  0  0  0  0  0  0  0  0  0
  -29.2685  -19.4654   18.6836 C   0  0  0  0  0  0  0  0  0  0  0  0
  -21.6789   -4.9406   24.7917 C   0  0  0  0  0  0  0  0  0  0  0  0
  -23.9337  -10.2450   20.8670 C   0  0  0  0  0  0  0  0  0  0  0  0
  -24.0580  -12.7794   20.6046 C   0  0  0  0  0  0  0  0  0  0  0  0
  -18.5528  -24.2497   21.0482 C   0  0  0  0  0  0  0  0  0  0  0  0
  -23.1517  -24.8797   25.8048 C   0  0  0  0  0  0  0  0  0  0  0  0
  -19.8307  -23.9763   21.5721 C   0  0  0  0  0  0  0  0  0  0  0  0
  -24.5138  -25.0438   25.5151 C   0  0  0  0  0  0  0  0  0  0  0  0
  -29.0570  -17.3777   19.8809 C   0  0  0  0  0  0  0  0  0  0  0  0
  -28.9157  -18.7646   19.8369 C   0  0  0  0  0  0  0  0  0  0  0  0
  -29.7626  -18.7791   17.5743 C   0  0  0  0  0  0  0  0  0  0  0  0
  -22.6049   -7.8351   21.3244 C   0  0  0  0  0  0  0  0  0  0  0  0
  -24.9896  -22.9276   26.6131 C   0  0  0  0  0  0  0  0  0  0  0  0
  -21.5757   -6.3715   22.8478 C   0  0  0  0  0  0  0  0  0  0  0  0
  -20.8076   -5.7952   25.4670 C   0  0  0  0  0  0  0  0  0  0  0  0
  -22.0629   -5.2287   23.4821 C   0  0  0  0  0  0  0  0  0  0  0  0
  -24.6208  -11.4893   20.6310 C   0  0  0  0  0  0  0  0  0  0  0  0
  -25.1191  -13.6116   20.3439 C   0  0  0  0  0  0  0  0  0  0  0  0
  -22.6977  -13.1889   20.7983 C   0  0  0  0  0  0  0  0  0  0  0  0
  -22.5563  -26.0753   22.9204 C   0  0  0  0  0  0  0  0  0  0  0  0
  -24.3440  -28.5544   24.0069 C   0  0  0  0  0  0  0  0  0  0  0  0
  -26.7432  -29.6708   26.1620 C   0  0  0  0  0  0  0  0  0  0  0  0
  -30.4823  -14.9256   21.6954 C   0  0  0  0  0  0  0  0  0  0  0  0
  -18.2915  -25.4579   20.1841 C   0  0  0  0  0  0  0  0  0  0  0  0
  -22.1557  -25.9337   25.4055 C   0  0  0  0  0  0  0  0  0  0  0  0
  -25.0271  -26.2496   24.7729 C   0  0  0  0  0  0  0  0  0  0  0  0
  -19.3674  -26.5344   20.3009 C   0  0  0  0  0  0  0  0  0  0  0  0
  -29.8468  -12.5922   18.8930 C   0  0  0  0  0  0  0  0  0  0  0  0
  -24.7912  -19.9625   20.4585 C   0  0  0  0  0  0  0  0  0  0  0  0
  -20.7573  -25.9117   20.2151 C   0  0  0  0  0  0  0  0  0  0  0  0
  -28.4047  -12.1550   19.1442 C   0  0  0  0  0  0  0  0  0  0  0  0
  -24.8873  -20.1625   21.9672 C   0  0  0  0  0  0  0  0  0  0  0  0
  -30.5579  -12.9727   20.1881 C   0  0  0  0  0  0  0  0  0  0  0  0
  -26.2292  -19.8582   19.9794 C   0  0  0  0  0  0  0  0  0  0  0  0
  -28.3999  -13.5661   21.2393 C   0  0  0  0  0  0  0  0  0  0  0  0
  -20.9916  -24.9248   21.3652 C   0  0  1  0  0  0  0  0  0  0  0  0
  -22.6310  -26.7933   24.2382 C   0  0  1  0  0  0  0  0  0  0  0  0
  -27.6407  -13.2204   19.9495 C   0  0  2  0  0  0  0  0  0  0  0  0
  -26.3844  -20.1381   22.2842 C   0  0  1  0  0  0  0  0  0  0  0  0
  -28.0213  -31.7377   26.7878 C   0  0  0  0  0  0  0  0  0  0  0  0
  -25.5334  -20.1477   28.5285 C   0  0  0  0  0  0  0  0  0  0  0  0
  -26.0734  -28.2371   21.5132 C   0  0  0  0  0  0  0  0  0  0  0  0
  -27.8237  -29.6328   22.6343 C   0  0  0  0  0  0  0  0  0  0  0  0
  -25.5793  -30.6057   22.1455 C   0  0  0  0  0  0  0  0  0  0  0  0
  -30.6354  -18.7831   15.2509 C   0  0  0  0  0  0  0  0  0  0  0  0
  -30.5399  -17.2137   22.6124 C   0  0  0  0  0  0  0  0  0  0  0  0
  -25.6755  -29.6357   28.9221 C   0  0  0  0  0  0  0  0  0  0  0  0
  -28.3847  -19.5245   21.0179 C   0  0  0  0  0  0  0  0  0  0  0  0
  -28.6850  -16.6056   21.1040 C   0  0  0  0  0  0  0  0  0  0  0  0
  -26.6639  -19.5108   23.6441 C   0  0  0  0  0  0  0  0  0  0  0  0
  -29.9643  -20.9270   16.3471 C   0  0  0  0  0  0  0  0  0  0  0  0
  -26.1565  -19.7779   26.0751 C   0  0  0  0  0  0  0  0  0  0  0  0
  -25.8139  -28.8984   23.9954 C   0  0  1  0  0  0  0  0  0  0  0  0
  -26.7941  -30.8854   27.0712 C   0  0  2  0  0  0  0  0  0  0  0  0
  -25.4099  -20.6362   27.0911 C   0  0  2  0  0  0  0  0  0  1  0  0
  -26.3130  -29.3197   22.5844 C   0  0  0  0  0  0  0  0  0  0  0  0
  -31.1897  -21.6416   16.8585 C   0  0  0  0  0  0  0  0  0  0  0  0
  -25.9372  -11.4963   20.4051 N   0  0  0  0  0  0  0  0  0  0  0  0
  -26.2104  -12.8009   20.2341 N   0  0  0  0  0  0  0  0  0  0  0  0
  -24.0133  -27.2494   24.3982 N   0  0  0  0  0  0  0  0  0  0  0  0
  -29.7894  -13.9542   20.9544 N   0  0  0  0  0  0  0  0  0  0  0  0
  -26.9422  -19.3700   21.1624 N   0  0  2  0  0  0  0  0  0  0  0  0
  -25.2158  -14.9504   20.2002 N   0  0  0  0  0  0  0  0  0  0  0  0
  -22.2706  -13.4948   22.0977 N   0  0  0  0  0  0  0  0  0  0  0  0
  -21.2883  -25.6369   22.5897 N   0  0  0  0  0  0  0  0  0  0  0  0
  -26.0033  -29.9151   25.0244 N   0  0  0  0  0  0  0  0  0  0  0  0
  -30.1203  -19.4872   16.4082 N   0  0  3  0  0  0  0  0  0  0  0  0
  -29.8562  -16.1702   21.8617 N   0  0  0  0  0  0  0  0  0  0  0  0
  -26.8356  -30.4620   28.4994 N   0  3  0  0  0  0  0  0  0  0  0  0
  -26.0067  -20.3237   24.7032 N   0  3  0  0  0  0  0  0  0  0  0  0
  -21.8805  -13.2650   19.8496 O   0  0  0  0  0  0  0  0  0  0  0  0
  -23.5735  -25.9311   22.2525 O   0  0  0  0  0  0  0  0  0  0  0  0
  -23.5192  -29.4143   23.6874 O   0  0  0  0  0  0  0  0  0  0  0  0
  -27.3067  -28.6125   26.4321 O   0  0  0  0  0  0  0  0  0  0  0  0
  -31.6012  -14.6969   22.1725 O   0  0  0  0  0  0  0  0  0  0  0  0
  -21.9566   -6.6593   21.5479 O   0  0  0  0  0  0  0  0  0  0  0  0
  -25.8849  -21.9787   27.0003 O   0  0  0  0  0  0  0  0  0  1  0  0
  -20.4399   -5.5195   26.7252 F   0  0  0  0  0  0  0  0  0  0  0  0
  -22.9012   -4.4045   22.8388 F   0  0  0  0  0  0  0  0  0  0  0  0
  -31.0198  -22.9805   16.7884 F   0  0  0  0  0  0  0  0  0  0  0  0
  -31.4414  -21.3282   18.1474 F   0  0  0  0  0  0  0  0  0  0  0  0
  -32.2825  -21.3294   16.1298 F   0  0  0  0  0  0  0  0  0  0  0  0
  1  2  1  0  0  0  0
  1  5  2  0  0  0  0
  2  6  2  0  0  0  0
  3 10  2  0  0  0  0
  3 18  1  0  0  0  0
  4 11  1  0  0  0  0
  4 18  2  0  0  0  0
  5 20  1  0  0  0  0
  6 22  1  0  0  0  0
  7 12  2  0  0  0  0
  7 21  1  0  0  0  0
  8  9  2  0  0  0  0
  8 24  1  0  0  0  0
  9 26  1  0  0  0  0
 10 27  1  0  0  0  0
 11 27  2  0  0  0  0
 12 28  1  0  0  0  0
 13 14  2  0  0  0  0
 13 29  1  0  0  0  0
 14 30  1  0  0  0  0
 15 23  1  0  0  0  0
 15 28  2  0  0  0  0
 16 25  1  0  0  0  0
 16 26  2  0  0  0  0
 17 30  2  0  0  0  0
 17 31  1  0  0  0  0
 18 32  1  0  0  0  0
 19 32  1  0  0  0  0
 19 33  2  0  0  0  0
 19 34  1  0  0  0  0
 20 22  2  0  0  0  0
 20 39  1  0  0  0  0
 21 23  2  0  0  0  0
 21 40  1  0  0  0  0
 22 51  1  0  0  0  0
 23 41  1  0  0  0  0
 24 25  2  0  0  0  0
 24 64  1  0  0  0  0
 25 63  1  0  0  0  0
 26 82  1  0  0  0  0
 27 91  1  0  0  0  0
 28 92  1  0  0  0  0
 29 31  2  0  0  0  0
 29 91  1  0  0  0  0
 30 93  1  0  0  0  0
 31 94  1  0  0  0  0
 32 73  2  0  0  0  0
 33 74  1  0  0  0  0
 33 78  1  0  0  0  0
 34 79  1  0  0  0  0
 34 86  2  0  0  0  0
 35 52  1  0  0  0  0
 35 80  1  0  0  0  0
 35 87  2  0  0  0  0
 36 68  1  0  0  0  0
 36 75  1  0  0  0  0
 36 88  2  0  0  0  0
 37 69  1  0  0  0  0
 37 81  1  0  0  0  0
 37 89  2  0  0  0  0
 38 76  1  0  0  0  0
 38 83  1  0  0  0  0
 38 90  2  0  0  0  0
 39 42  1  0  0  0  0
 40 52  1  0  0  0  0
 41 75  1  0  0  0  0
 42 45  1  0  0  0  0
 43 46  1  0  0  0  0
 43 48  1  0  0  0  0
 44 47  1  0  0  0  0
 44 49  1  0  0  0  0
 45 51  1  0  0  0  0
 46 53  1  0  0  0  0
 47 54  1  0  0  0  0
 48 76  1  0  0  0  0
 49 77  1  0  0  0  0
 50 53  1  0  0  0  0
 50 76  1  0  0  0  0
 51 80  1  0  0  0  0
 52 75  1  0  0  0  0
 53 74  1  0  0  0  0
 54 65  1  0  0  0  0
 54 77  1  0  0  0  0
 55 69  1  0  0  0  0
 56 70  1  0  0  0  0
 57 71  1  0  0  0  0
 58 71  1  0  0  0  0
 59 71  1  0  0  0  0
 60 82  1  0  0  0  0
 61 83  1  0  0  0  0
 62 84  1  0  0  0  0
 63 77  1  0  0  0  0
 64 83  1  0  0  0  0
 65 85  1  0  0  0  0
 66 72  1  0  0  0  0
 66 82  1  0  0  0  0
 67 70  1  0  0  0  0
 67 85  1  0  0  0  0
 68 71  1  0  0  0  0
 68 81  1  0  0  0  0
 69 84  1  0  0  0  0
 70 92  1  0  0  0  0
 72 95  1  0  0  0  0
 72 96  1  0  0  0  0
 72 97  1  0  0  0  0
 73 74  1  0  0  0  0
M  CHG  2  84   1  85   1
M  ISO  4  38 100  70 101  83 100  92 101
M  END
> <Batch ID>
0020

> <Smiles>
CNC(C)C(=O)NC(C(=O)N1Cc2cc([101O:1][101CH:1](C)CNCC3CCCN3Cc3cc(N(C)CC(F)(F)F)ccc3C[100N:0](C)[100C:0](=O)N3CCCC(n4nc(-c5ccc(Oc6ccc(F)cc6F)cc5)c(C(N)=O)c4N)C3)ccc2CC1C(=O)NC1CCCc2ccccc21)C(C)(C)C

> <Shape>
0.278

> <Color>
0.155

> <Negative vol penalty>
0.000

$$$$

  -OEChem-04042321083D

 85 94  0     1  0  0  0  0  0999 V2000
  -29.1862  -29.5735   28.0407 C   0  0  0  0  0  0  0  0  0  0  0  0
  -29.0659  -28.8591   26.8530 C   0  0  0  0  0  0  0  0  0  0  0  0
  -24.7724   -8.4439   21.4984 C   0  0  0  0  0  0  0  0  0  0  0  0
  -23.1493  -10.0495   20.7079 C   0  0  0  0  0  0  0  0  0  0  0  0
  -28.0793  -30.2360   28.5696 C   0  0  0  0  0  0  0  0  0  0  0  0
  -27.8381  -28.8060   26.1940 C   0  0  0  0  0  0  0  0  0  0  0  0
  -26.9122  -28.6382   20.1426 C   0  0  0  0  0  0  0  0  0  0  0  0
  -26.5173  -19.8365   20.1386 C   0  0  0  0  0  0  0  0  0  0  0  0
  -27.1651  -18.6052   20.0396 C   0  0  0  0  0  0  0  0  0  0  0  0
  -23.8179   -7.9032   22.3599 C   0  0  0  0  0  0  0  0  0  0  0  0
  -22.1948   -9.5088   21.5694 C   0  0  0  0  0  0  0  0  0  0  0  0
  -26.6498  -27.5891   19.2626 C   0  0  0  0  0  0  0  0  0  0  0  0
  -21.1764   -5.8031   22.1484 C   0  0  0  0  0  0  0  0  0  0  0  0
  -21.0703   -4.4136   22.2083 C   0  0  0  0  0  0  0  0  0  0  0  0
  -24.2876  -28.0495   19.4279 C   0  0  0  0  0  0  0  0  0  0  0  0
  -21.5979   -4.4750   24.5653 C   0  0  0  0  0  0  0  0  0  0  0  0
  -24.4381   -9.5171   20.6724 C   0  0  0  0  0  0  0  0  0  0  0  0
  -25.6874   -9.6897   18.4549 C   0  0  0  0  0  0  0  0  0  0  0  0
  -26.8397  -30.1990   27.9117 C   0  0  0  0  0  0  0  0  0  0  0  0
  -25.8618  -29.3951   20.6813 C   0  0  0  0  0  0  0  0  0  0  0  0
  -26.7132  -29.4675   26.7153 C   0  0  0  0  0  0  0  0  0  0  0  0
  -24.5396  -29.1092   20.3125 C   0  0  0  0  0  0  0  0  0  0  0  0
  -25.2377  -19.9961   19.6066 C   0  0  0  0  0  0  0  0  0  0  0  0
  -24.6061  -18.9245   18.9755 C   0  0  0  0  0  0  0  0  0  0  0  0
  -26.5335  -17.5336   19.4085 C   0  0  0  0  0  0  0  0  0  0  0  0
  -22.5292   -8.4356   22.3954 C   0  0  0  0  0  0  0  0  0  0  0  0
  -25.3371  -27.2928   18.9073 C   0  0  0  0  0  0  0  0  0  0  0  0
  -21.4933   -6.5286   23.2968 C   0  0  0  0  0  0  0  0  0  0  0  0
  -21.2811   -3.7496   23.4168 C   0  0  0  0  0  0  0  0  0  0  0  0
  -21.7041   -5.8646   24.5053 C   0  0  0  0  0  0  0  0  0  0  0  0
  -25.2540  -17.6932   18.8764 C   0  0  0  0  0  0  0  0  0  0  0  0
  -25.4237  -10.0765   19.7826 C   0  0  0  0  0  0  0  0  0  0  0  0
  -26.7043  -10.5199   18.0509 C   0  0  0  0  0  0  0  0  0  0  0  0
  -25.0685   -8.6710   17.6581 C   0  0  0  0  0  0  0  0  0  0  0  0
  -24.7604  -29.9353   23.6136 C   0  0  0  0  0  0  0  0  0  0  0  0
  -22.8234  -32.0360   22.0782 C   0  0  0  0  0  0  0  0  0  0  0  0
  -21.2913  -32.9768   19.1775 C   0  0  0  0  0  0  0  0  0  0  0  0
  -28.4649  -15.9605   19.7847 C   0  0  0  0  0  0  0  0  0  0  0  0
  -25.6599  -30.8916   28.5466 C   0  0  0  0  0  0  0  0  0  0  0  0
  -26.1635  -30.5404   21.6084 C   0  0  0  0  0  0  0  0  0  0  0  0
  -23.3776  -29.9046   20.8471 C   0  0  0  0  0  0  0  0  0  0  0  0
  -24.4873  -31.0963   27.5909 C   0  0  0  0  0  0  0  0  0  0  0  0
  -30.4287  -12.9905   19.7711 C   0  0  0  0  0  0  0  0  0  0  0  0
  -24.2002  -29.8143   26.8157 C   0  0  0  0  0  0  0  0  0  0  0  0
  -29.3925  -11.8713   19.6456 C   0  0  0  0  0  0  0  0  0  0  0  0
  -29.9209  -14.1384   20.6420 C   0  0  0  0  0  0  0  0  0  0  0  0
  -27.5814  -13.5685   20.1216 C   0  0  0  0  0  0  0  0  0  0  0  0
  -25.8870  -22.5665   18.0780 C   0  0  0  0  0  0  0  0  0  0  0  0
  -24.0970  -23.4803   18.6482 C   0  0  0  0  0  0  0  0  0  0  0  0
  -25.4044  -29.4068   25.9582 C   0  0  1  0  0  0  0  0  0  0  0  0
  -24.9822  -30.9165   22.4975 C   0  0  1  0  0  0  0  0  0  0  0  0
  -25.2307  -23.9092   17.6926 C   0  0  0  0  0  0  0  0  0  0  0  0
  -28.0223  -12.4192   19.2005 C   0  0  2  0  0  0  0  0  0  0  0  0
  -23.2360  -19.0759   18.4001 C   0  0  0  0  0  0  0  0  0  0  0  0
  -19.7405  -34.7142   18.2425 C   0  0  0  0  0  0  0  0  0  0  0  0
  -20.4615  -30.6460   23.4194 C   0  0  0  0  0  0  0  0  0  0  0  0
  -18.9536  -31.7584   21.7590 C   0  0  0  0  0  0  0  0  0  0  0  0
  -20.2974  -33.1403   23.3423 C   0  0  0  0  0  0  0  0  0  0  0  0
  -23.3302  -33.9294   17.2554 C   0  0  0  0  0  0  0  0  0  0  0  0
  -24.5615  -21.3301   19.7254 C   0  0  0  0  0  0  0  0  0  0  0  0
  -25.9898  -25.1713   18.0535 C   0  0  0  0  0  0  0  0  0  1  0  0
  -21.4606  -31.9590   21.4335 C   0  0  1  0  0  0  0  0  0  0  0  0
  -21.1903  -34.3225   18.4822 C   0  0  2  0  0  0  0  0  0  0  0  0
  -20.3148  -31.8595   22.4798 C   0  0  0  0  0  0  0  0  0  0  0  0
  -26.2098  -11.0746   20.1946 N   0  0  0  0  0  0  0  0  0  0  0  0
  -26.9774  -11.3220   19.1196 N   0  0  0  0  0  0  0  0  0  0  0  0
  -23.7235  -31.0106   21.7552 N   0  0  0  0  0  0  0  0  0  0  0  0
  -28.6211  -14.6088   20.1582 N   0  0  0  0  0  0  0  0  0  0  0  0
  -27.3825  -10.6347   16.8894 N   0  0  0  0  0  0  0  0  0  0  0  0
  -24.0390   -7.9100   18.2284 N   0  0  0  0  0  0  0  0  0  0  0  0
  -27.1944  -16.2841   19.3094 N   0  0  0  0  0  0  0  0  0  0  0  0
  -25.4722  -30.2204   24.7632 N   0  0  0  0  0  0  0  0  0  0  0  0
  -21.3622  -33.1140   20.5476 N   0  0  0  0  0  0  0  0  0  0  0  0
  -24.5420  -22.0852   18.4537 N   0  3  0  0  0  0  0  0  0  0  0  0
  -21.8892  -34.2796   17.1666 N   0  3  0  0  0  0  0  0  0  0  0  0
  -25.4291   -8.4315   16.4808 O   0  0  0  0  0  0  0  0  0  0  0  0
  -23.9986  -28.9903   23.4449 O   0  0  0  0  0  0  0  0  0  0  0  0
  -23.0824  -32.9753   22.8346 O   0  0  0  0  0  0  0  0  0  0  0  0
  -21.3022  -31.9105   18.5664 O   0  0  0  0  0  0  0  0  0  0  0  0
  -29.3977  -16.7649   19.8538 O   0  0  0  0  0  0  0  0  0  0  0  0
  -21.5975   -7.9081   23.2358 O   0  0  0  0  0  0  0  0  0  0  0  0
  -25.0780  -26.2690   18.0491 O   0  0  0  0  0  0  0  0  0  1  0  0
  -21.1777   -2.4153   23.4745 F   0  0  0  0  0  0  0  0  0  0  0  0
  -22.0076   -6.5563   25.6122 F   0  0  0  0  0  0  0  0  0  0  0  0
  -24.6456  -16.6631   18.2690 F   0  0  0  0  0  0  0  0  0  0  0  0
  1  2  1  0  0  0  0
  1  5  2  0  0  0  0
  2  6  2  0  0  0  0
  3 10  2  0  0  0  0
  3 17  1  0  0  0  0
  4 11  1  0  0  0  0
  4 17  2  0  0  0  0
  5 19  1  0  0  0  0
  6 21  1  0  0  0  0
  7 12  2  0  0  0  0
  7 20  1  0  0  0  0
  8  9  2  0  0  0  0
  8 23  1  0  0  0  0
  9 25  1  0  0  0  0
 10 26  1  0  0  0  0
 11 26  2  0  0  0  0
 12 27  1  0  0  0  0
 13 14  2  0  0  0  0
 13 28  1  0  0  0  0
 14 29  1  0  0  0  0
 15 22  1  0  0  0  0
 15 27  2  0  0  0  0
 16 29  2  0  0  0  0
 16 30  1  0  0  0  0
 17 32  1  0  0  0  0
 18 32  1  0  0  0  0
 18 33  2  0  0  0  0
 18 34  1  0  0  0  0
 19 21  2  0  0  0  0
 19 39  1  0  0  0  0
 20 22  2  0  0  0  0
 20 40  1  0  0  0  0
 21 50  1  0  0  0  0
 22 41  1  0  0  0  0
 23 24  2  0  0  0  0
 23 60  1  0  0  0  0
 24 31  1  0  0  0  0
 24 54  1  0  0  0  0
 25 31  2  0  0  0  0
 25 71  1  0  0  0  0
 26 81  1  0  0  0  0
 27 82  1  0  0  0  0
 28 30  2  0  0  0  0
 28 81  1  0  0  0  0
 29 83  1  0  0  0  0
 30 84  1  0  0  0  0
 31 85  1  0  0  0  0
 32 65  2  0  0  0  0
 33 66  1  0  0  0  0
 33 69  1  0  0  0  0
 34 70  1  0  0  0  0
 34 76  2  0  0  0  0
 35 51  1  0  0  0  0
 35 72  1  0  0  0  0
 35 77  2  0  0  0  0
 36 62  1  0  0  0  0
 36 67  1  0  0  0  0
 36 78  2  0  0  0  0
 37 63  1  0  0  0  0
 37 73  1  0  0  0  0
 37 79  2  0  0  0  0
 38 68  1  0  0  0  0
 38 71  1  0  0  0  0
 38 80  2  0  0  0  0
 39 42  1  0  0  0  0
 40 51  1  0  0  0  0
 41 67  1  0  0  0  0
 42 44  1  0  0  0  0
 43 45  1  0  0  0  0
 43 46  1  0  0  0  0
 44 50  1  0  0  0  0
 45 53  1  0  0  0  0
 46 68  1  0  0  0  0
 47 53  1  0  0  0  0
 47 68  1  0  0  0  0
 48 52  1  0  0  0  0
 48 74  1  0  0  0  0
 49 52  1  0  0  0  0
 49 74  1  0  0  0  0
 50 72  1  0  0  0  0
 51 67  1  0  0  0  0
 52 61  1  0  0  0  0
 53 66  1  0  0  0  0
 55 63  1  0  0  0  0
 56 64  1  0  0  0  0
 57 64  1  0  0  0  0
 58 64  1  0  0  0  0
 59 75  1  0  0  0  0
 60 74  1  0  0  0  0
 61 82  1  0  0  0  0
 62 64  1  0  0  0  0
 62 73  1  0  0  0  0
 63 75  1  0  0  0  0
 65 66  1  0  0  0  0
M  CHG  2  74   1  75   1
M  ISO  4  38 100  61 101  71 100  82 101
M  END
> <Batch ID>
0020

> <Smiles>
CNC(C)C(=O)NC(C(=O)N1Cc2cc([101O:1][101CH2:1]C3CN(Cc4ccc([100NH:0][100C:0](=O)N5CCCC(n6nc(-c7ccc(Oc8ccc(F)cc8F)cc7)c(C(N)=O)c6N)C5)c(F)c4C)C3)ccc2CC1C(=O)NC1CCCc2ccccc21)C(C)(C)C

> <Shape>
0.227

> <Color>
0.108

> <Negative vol penalty>
0.000

$$$$

  -OEChem-04042321083D

 88 97  0     1  0  0  0  0  0999 V2000
  -28.2432  -32.5376   26.9341 C   0  0  0  0  0  0  0  0  0  0  0  0
  -28.3358  -31.4597   26.0594 C   0  0  0  0  0  0  0  0  0  0  0  0
  -24.6075  -18.0868   25.1855 C   0  0  0  0  0  0  0  0  0  0  0  0
  -26.5547  -19.3279   24.4747 C   0  0  0  0  0  0  0  0  0  0  0  0
  -26.9930  -32.9757   27.3687 C   0  0  0  0  0  0  0  0  0  0  0  0
  -27.1782  -30.8185   25.6198 C   0  0  0  0  0  0  0  0  0  0  0  0
  -27.2404  -29.8953   20.6409 C   0  0  0  0  0  0  0  0  0  0  0  0
  -32.0972  -20.3226   16.7568 C   0  0  0  0  0  0  0  0  0  0  0  0
  -31.7918  -21.6801   16.6587 C   0  0  0  0  0  0  0  0  0  0  0  0
  -24.4008  -19.0021   26.2175 C   0  0  0  0  0  0  0  0  0  0  0  0
  -26.3480  -20.2433   25.5067 C   0  0  0  0  0  0  0  0  0  0  0  0
  -27.9988  -28.8100   20.2041 C   0  0  0  0  0  0  0  0  0  0  0  0
  -24.3350  -22.8868   26.1232 C   0  0  0  0  0  0  0  0  0  0  0  0
  -24.4418  -24.2431   25.8155 C   0  0  0  0  0  0  0  0  0  0  0  0
  -25.9934  -27.4780   20.0513 C   0  0  0  0  0  0  0  0  0  0  0  0
  -30.7930  -20.1756   18.7852 C   0  0  0  0  0  0  0  0  0  0  0  0
  -26.2309  -24.4671   27.4236 C   0  0  0  0  0  0  0  0  0  0  0  0
  -25.6845  -18.2497   24.3141 C   0  0  0  0  0  0  0  0  0  0  0  0
  -25.0163  -16.9947   22.1960 C   0  0  0  0  0  0  0  0  0  0  0  0
  -25.8190  -32.3457   26.9265 C   0  0  0  0  0  0  0  0  0  0  0  0
  -25.8519  -29.7766   20.7970 C   0  0  0  0  0  0  0  0  0  0  0  0
  -25.9112  -31.2478   26.0499 C   0  0  0  0  0  0  0  0  0  0  0  0
  -25.2194  -28.5640   20.4878 C   0  0  0  0  0  0  0  0  0  0  0  0
  -31.5978  -19.5704   17.8200 C   0  0  0  0  0  0  0  0  0  0  0  0
  -30.9871  -22.2853   17.6239 C   0  0  0  0  0  0  0  0  0  0  0  0
  -25.2710  -20.0803   26.3781 C   0  0  0  0  0  0  0  0  0  0  0  0
  -27.3756  -27.6003   19.9119 C   0  0  0  0  0  0  0  0  0  0  0  0
  -25.1761  -22.3207   27.0811 C   0  0  0  0  0  0  0  0  0  0  0  0
  -25.3897  -25.0333   26.4657 C   0  0  0  0  0  0  0  0  0  0  0  0
  -30.4876  -21.5331   18.6872 C   0  0  0  0  0  0  0  0  0  0  0  0
  -26.1241  -23.1108   27.7313 C   0  0  0  0  0  0  0  0  0  0  0  0
  -25.8990  -17.3042   23.2482 C   0  0  0  0  0  0  0  0  0  0  0  0
  -25.6810  -16.0460   21.4581 C   0  0  0  0  0  0  0  0  0  0  0  0
  -23.7122  -17.5180   21.9112 C   0  0  0  0  0  0  0  0  0  0  0  0
  -23.8411  -30.0188   23.2468 C   0  0  0  0  0  0  0  0  0  0  0  0
  -31.5294  -14.8023   20.8568 C   0  0  0  0  0  0  0  0  0  0  0  0
  -21.5935  -29.6980   20.9300 C   0  0  0  0  0  0  0  0  0  0  0  0
  -20.7914  -28.5818   17.8063 C   0  0  0  0  0  0  0  0  0  0  0  0
  -24.4926  -32.8250   27.4610 C   0  0  0  0  0  0  0  0  0  0  0  0
  -25.0447  -30.9646   21.2436 C   0  0  0  0  0  0  0  0  0  0  0  0
  -23.7290  -28.3909   20.6194 C   0  0  0  0  0  0  0  0  0  0  0  0
  -23.2956  -32.3288   26.6539 C   0  0  0  0  0  0  0  0  0  0  0  0
  -28.9233  -12.5627   21.8729 C   0  0  0  0  0  0  0  0  0  0  0  0
  -23.4262  -30.8362   26.3680 C   0  0  0  0  0  0  0  0  0  0  0  0
  -27.7822  -13.4973   22.2721 C   0  0  0  0  0  0  0  0  0  0  0  0
  -30.8217  -25.9027   16.9335 C   0  0  0  0  0  0  0  0  0  0  0  0
  -30.2827  -13.1603   22.2221 C   0  0  0  0  0  0  0  0  0  0  0  0
  -31.1624  -24.4947   16.4502 C   0  0  0  0  0  0  0  0  0  0  0  0
  -29.8613  -24.3555   18.4861 C   0  0  0  0  0  0  0  0  0  0  0  0
  -29.3756  -15.4552   22.0426 C   0  0  0  0  0  0  0  0  0  0  0  0
  -24.6771  -30.5421   25.5312 C   0  0  1  0  0  0  0  0  0  0  0  0
  -23.7033  -30.5783   21.8592 C   0  0  1  0  0  0  0  0  0  0  0  0
  -29.5729  -25.6870   17.7835 C   0  0  1  0  0  0  0  0  0  0  0  0
  -27.9858  -14.9029   21.6794 C   0  0  2  0  0  0  0  0  0  0  0  0
  -18.8669  -28.4285   16.2031 C   0  0  0  0  0  0  0  0  0  0  0  0
  -20.4236  -27.3978   22.5581 C   0  0  0  0  0  0  0  0  0  0  0  0
  -19.1518  -26.6940   20.5196 C   0  0  0  0  0  0  0  0  0  0  0  0
  -18.7250  -28.9280   21.5441 C   0  0  0  0  0  0  0  0  0  0  0  0
  -22.1924  -30.2294   15.7861 C   0  0  0  0  0  0  0  0  0  0  0  0
  -34.3357  -18.1677   18.5433 C   0  0  0  0  0  0  0  0  0  0  0  0
  -31.9242  -18.1190   17.9247 C   0  0  0  0  0  0  0  0  0  0  0  0
  -31.6085  -16.2058   20.3112 C   0  0  0  0  0  0  0  0  0  0  0  0
  -29.3004  -26.8278   18.7481 C   0  0  0  0  0  0  0  0  0  1  0  0
  -32.8510  -16.3902   19.4587 C   0  0  0  0  0  0  0  0  0  0  0  0
  -20.8816  -28.5334   20.2850 C   0  0  1  0  0  0  0  0  0  0  0  0
  -20.0645  -29.2505   16.6535 C   0  0  2  0  0  0  0  0  0  0  0  0
  -19.8239  -27.8907   21.2260 C   0  0  0  0  0  0  0  0  0  0  0  0
  -27.0375  -16.6084   23.1876 N   0  0  0  0  0  0  0  0  0  0  0  0
  -26.8748  -15.8522   22.0886 N   0  0  0  0  0  0  0  0  0  0  0  0
  -30.6867  -23.6273   17.5249 N   0  0  3  0  0  0  0  0  0  0  0  0
  -22.9840  -29.5797   21.0657 N   0  0  0  0  0  0  0  0  0  0  0  0
  -30.4284  -14.5041   21.6598 N   0  0  0  0  0  0  0  0  0  0  0  0
  -25.3550  -15.3670   20.3378 N   0  0  0  0  0  0  0  0  0  0  0  0
  -23.6111  -18.6508   21.0920 N   0  0  0  0  0  0  0  0  0  0  0  0
  -24.4469  -30.8790   24.1427 N   0  0  0  0  0  0  0  0  0  0  0  0
  -20.3372  -29.0336   19.0273 N   0  0  0  0  0  0  0  0  0  0  0  0
  -20.9819  -29.4202   15.4914 N   0  3  0  0  0  0  0  0  0  0  0  0
  -32.9355  -17.8148   18.9745 N   0  3  1  0  0  0  0  0  0  0  0  0
  -22.6685  -17.0064   22.3829 O   0  0  0  0  0  0  0  0  0  0  0  0
  -23.4271  -28.8908   23.4874 O   0  0  0  0  0  0  0  0  0  0  0  0
  -32.4191  -13.9955   20.5743 O   0  0  0  0  0  0  0  0  0  0  0  0
  -20.9408  -30.6796   21.2934 O   0  0  0  0  0  0  0  0  0  0  0  0
  -21.6712  -27.7399   17.6404 O   0  0  0  0  0  0  0  0  0  0  0  0
  -25.0695  -20.9738   27.3849 O   0  0  0  0  0  0  0  0  0  0  0  0
  -28.1136  -26.5392   19.4859 O   0  0  0  0  0  0  0  0  0  1  0  0
  -25.4931  -26.3354   26.1690 F   0  0  0  0  0  0  0  0  0  0  0  0
  -29.7131  -22.1047   19.6204 F   0  0  0  0  0  0  0  0  0  0  0  0
  -26.9357  -22.5723   28.6517 F   0  0  0  0  0  0  0  0  0  0  0  0
  1  2  1  0  0  0  0
  1  5  2  0  0  0  0
  2  6  2  0  0  0  0
  3 10  2  0  0  0  0
  3 18  1  0  0  0  0
  4 11  1  0  0  0  0
  4 18  2  0  0  0  0
  5 20  1  0  0  0  0
  6 22  1  0  0  0  0
  7 12  2  0  0  0  0
  7 21  1  0  0  0  0
  8  9  2  0  0  0  0
  8 24  1  0  0  0  0
  9 25  1  0  0  0  0
 10 26  1  0  0  0  0
 11 26  2  0  0  0  0
 12 27  1  0  0  0  0
 13 14  2  0  0  0  0
 13 28  1  0  0  0  0
 14 29  1  0  0  0  0
 15 23  1  0  0  0  0
 15 27  2  0  0  0  0
 16 24  2  0  0  0  0
 16 30  1  0  0  0  0
 17 29  2  0  0  0  0
 17 31  1  0  0  0  0
 18 32  1  0  0  0  0
 19 32  1  0  0  0  0
 19 33  2  0  0  0  0
 19 34  1  0  0  0  0
 20 22  2  0  0  0  0
 20 39  1  0  0  0  0
 21 23  2  0  0  0  0
 21 40  1  0  0  0  0
 22 51  1  0  0  0  0
 23 41  1  0  0  0  0
 24 61  1  0  0  0  0
 25 30  2  0  0  0  0
 25 70  1  0  0  0  0
 26 84  1  0  0  0  0
 27 85  1  0  0  0  0
 28 31  2  0  0  0  0
 28 84  1  0  0  0  0
 29 86  1  0  0  0  0
 30 87  1  0  0  0  0
 31 88  1  0  0  0  0
 32 68  2  0  0  0  0
 33 69  1  0  0  0  0
 33 73  1  0  0  0  0
 34 74  1  0  0  0  0
 34 79  2  0  0  0  0
 35 52  1  0  0  0  0
 35 75  1  0  0  0  0
 35 80  2  0  0  0  0
 36 62  1  0  0  0  0
 36 72  1  0  0  0  0
 36 81  2  0  0  0  0
 37 65  1  0  0  0  0
 37 71  1  0  0  0  0
 37 82  2  0  0  0  0
 38 66  1  0  0  0  0
 38 76  1  0  0  0  0
 38 83  2  0  0  0  0
 39 42  1  0  0  0  0
 40 52  1  0  0  0  0
 41 71  1  0  0  0  0
 42 44  1  0  0  0  0
 43 45  1  0  0  0  0
 43 47  1  0  0  0  0
 44 51  1  0  0  0  0
 45 54  1  0  0  0  0
 46 48  1  0  0  0  0
 46 53  1  0  0  0  0
 47 72  1  0  0  0  0
 48 70  1  0  0  0  0
 49 53  1  0  0  0  0
 49 70  1  0  0  0  0
 50 54  1  0  0  0  0
 50 72  1  0  0  0  0
 51 75  1  0  0  0  0
 52 71  1  0  0  0  0
 53 63  1  0  0  0  0
 54 69  1  0  0  0  0
 55 66  1  0  0  0  0
 56 67  1  0  0  0  0
 57 67  1  0  0  0  0
 58 67  1  0  0  0  0
 59 77  1  0  0  0  0
 60 78  1  0  0  0  0
 61 78  1  0  0  0  0
 62 64  1  0  0  0  0
 63 85  1  0  0  0  0
 64 78  1  0  0  0  0
 65 67  1  0  0  0  0
 65 76  1  0  0  0  0
 66 77  1  0  0  0  0
 68 69  1  0  0  0  0
M  CHG  2  77   1  78   1
M  ISO  4  36 100  62 100  63 101  85 101
M  END
> <Batch ID>
0020

> <Smiles>
CNC(C)C(=O)NC(C(=O)N1Cc2cc([101O:1][101CH2:1]C3CCN(c4ccc(CN(C)C[100CH2:0][100C:0](=O)N5CCCC(n6nc(-c7ccc(Oc8ccc(F)cc8F)cc7)c(C(N)=O)c6N)C5)cc4F)C3)ccc2CC1C(=O)NC1CCCc2ccccc21)C(C)(C)C

> <Shape>
0.219

> <Color>
0.102

> <Negative vol penalty>
0.000

$$$$

  -OEChem-04042321083D

 88 96  0     1  0  0  0  0  0999 V2000
  -25.3339  -29.1087   20.5845 C   0  0  0  0  0  0  0  0  0  0  0  0
  -24.9319  -27.8718   20.0906 C   0  0  0  0  0  0  0  0  0  0  0  0
  -24.1886  -14.8764   23.3340 C   0  0  0  0  0  0  0  0  0  0  0  0
  -23.3310  -15.6467   21.2107 C   0  0  0  0  0  0  0  0  0  0  0  0
  -26.6884  -29.4375   20.6189 C   0  0  0  0  0  0  0  0  0  0  0  0
  -25.8842  -26.9634   19.6298 C   0  0  0  0  0  0  0  0  0  0  0  0
  -25.0324  -22.2518   21.2790 C   0  0  0  0  0  0  0  0  0  0  0  0
  -23.7154  -15.4516   15.2552 C   0  0  0  0  0  0  0  0  0  0  0  0
  -24.0346  -16.8309   13.2974 C   0  0  0  0  0  0  0  0  0  0  0  0
  -22.6575  -16.2670   15.6571 C   0  0  0  0  0  0  0  0  0  0  0  0
  -22.9767  -17.6463   13.6994 C   0  0  0  0  0  0  0  0  0  0  0  0
  -23.5205  -15.9160   23.9810 C   0  0  0  0  0  0  0  0  0  0  0  0
  -22.6629  -16.6863   21.8577 C   0  0  0  0  0  0  0  0  0  0  0  0
  -24.0347  -21.5221   20.6341 C   0  0  0  0  0  0  0  0  0  0  0  0
  -22.3315  -18.5809   26.1508 C   0  0  0  0  0  0  0  0  0  0  0  0
  -23.0302  -19.2974   27.1223 C   0  0  0  0  0  0  0  0  0  0  0  0
  -25.7180  -20.3707   19.3457 C   0  0  0  0  0  0  0  0  0  0  0  0
  -24.6671  -19.9451   25.4676 C   0  0  0  0  0  0  0  0  0  0  0  0
  -24.0938  -14.7418   21.9488 C   0  0  0  0  0  0  0  0  0  0  0  0
  -24.2908  -12.3778   21.0106 C   0  0  0  0  0  0  0  0  0  0  0  0
  -27.6584  -28.5289   20.1672 C   0  0  0  0  0  0  0  0  0  0  0  0
  -26.3820  -22.0539   20.9538 C   0  0  0  0  0  0  0  0  0  0  0  0
  -27.2528  -27.2809   19.6569 C   0  0  0  0  0  0  0  0  0  0  0  0
  -26.7310  -21.0974   19.9897 C   0  0  0  0  0  0  0  0  0  0  0  0
  -24.4040  -15.7336   14.0753 C   0  0  0  0  0  0  0  0  0  0  0  0
  -22.2881  -17.3643   14.8793 C   0  0  0  0  0  0  0  0  0  0  0  0
  -22.7576  -16.8209   23.2429 C   0  0  0  0  0  0  0  0  0  0  0  0
  -24.3772  -20.5835   19.6652 C   0  0  0  0  0  0  0  0  0  0  0  0
  -22.8006  -18.5464   24.8376 C   0  0  0  0  0  0  0  0  0  0  0  0
  -24.1980  -19.9795   26.7808 C   0  0  0  0  0  0  0  0  0  0  0  0
  -23.9684  -19.2285   24.4960 C   0  0  0  0  0  0  0  0  0  0  0  0
  -24.7842  -13.6685   21.2798 C   0  0  0  0  0  0  0  0  0  0  0  0
  -25.3229  -11.7439   20.3629 C   0  0  0  0  0  0  0  0  0  0  0  0
  -23.0138  -11.8032   21.3185 C   0  0  0  0  0  0  0  0  0  0  0  0
  -28.6901  -23.8782   19.7504 C   0  0  0  0  0  0  0  0  0  0  0  0
  -30.5321  -21.2816   20.3725 C   0  0  0  0  0  0  0  0  0  0  0  0
  -30.7158  -17.9080   20.8542 C   0  0  0  0  0  0  0  0  0  0  0  0
  -29.9406  -13.7434   17.1179 C   0  0  0  0  0  0  0  0  0  0  0  0
  -29.1073  -28.9476   20.1802 C   0  0  0  0  0  0  0  0  0  0  0  0
  -27.4479  -22.8300   21.6776 C   0  0  0  0  0  0  0  0  0  0  0  0
  -28.1666  -20.8327   19.6187 C   0  0  0  0  0  0  0  0  0  0  0  0
  -30.0797  -27.7818   20.0208 C   0  0  0  0  0  0  0  0  0  0  0  0
  -30.0969  -11.7257   20.0473 C   0  0  0  0  0  0  0  0  0  0  0  0
  -29.6354  -26.8677   18.8833 C   0  0  0  0  0  0  0  0  0  0  0  0
  -28.7085  -11.8784   20.6710 C   0  0  0  0  0  0  0  0  0  0  0  0
  -30.5723  -13.0262   19.4033 C   0  0  0  0  0  0  0  0  0  0  0  0
  -28.2477  -13.7642   19.0493 C   0  0  0  0  0  0  0  0  0  0  0  0
  -28.2576  -26.2589   19.1709 C   0  0  1  0  0  0  0  0  0  0  0  0
  -28.7580  -22.9135   20.9004 C   0  0  1  0  0  0  0  0  0  0  0  0
  -27.7017  -12.4632   19.6622 C   0  0  2  0  0  0  0  0  0  0  0  0
  -32.3630  -16.0693   21.3053 C   0  0  0  0  0  0  0  0  0  0  0  0
  -29.6875  -15.8924   14.6800 C   0  0  0  0  0  0  0  0  0  0  0  0
  -31.4395  -21.3835   17.4611 C   0  0  0  0  0  0  0  0  0  0  0  0
  -32.2930  -19.0439   17.7180 C   0  0  0  0  0  0  0  0  0  0  0  0
  -33.2573  -20.8805   19.1034 C   0  0  0  0  0  0  0  0  0  0  0  0
  -20.8365  -19.3344   14.4651 C   0  0  0  0  0  0  0  0  0  0  0  0
  -29.4115  -17.2107   23.4177 C   0  0  0  0  0  0  0  0  0  0  0  0
  -25.5355  -14.8626   13.6449 C   0  0  0  0  0  0  0  0  0  0  0  0
  -21.2045  -18.4633   17.7137 C   0  0  0  0  0  0  0  0  0  0  0  0
  -21.4477  -19.9704   17.6231 C   0  0  0  0  0  0  0  0  0  0  0  0
  -20.4798  -17.9112   16.4889 C   0  0  0  0  0  0  0  0  0  0  0  0
  -27.9017  -14.1778   14.0583 C   0  0  0  0  0  0  0  0  0  0  0  0
  -22.1360  -20.5024   18.8739 C   0  0  0  0  0  0  0  0  0  1  0  0
  -30.9259  -20.0418   19.6064 C   0  0  1  0  0  0  0  0  0  0  0  0
  -31.4072  -17.0791   21.9216 C   0  0  2  0  0  0  0  0  0  0  0  0
  -29.1540  -14.4774   14.8815 C   0  0  2  0  0  0  0  0  0  0  0  0
  -31.9517  -20.3436   18.4776 C   0  0  0  0  0  0  0  0  0  0  0  0
  -26.0326  -13.8456   20.8393 N   0  0  0  0  0  0  0  0  0  0  0  0
  -26.3324  -12.6578   20.2868 N   0  0  0  0  0  0  0  0  0  0  0  0
  -29.1720  -21.6213   20.3499 N   0  0  0  0  0  0  0  0  0  0  0  0
  -29.5732  -13.5270   18.4563 N   0  0  0  0  0  0  0  0  0  0  0  0
  -25.4562  -10.4996   19.8567 N   0  0  0  0  0  0  0  0  0  0  0  0
  -22.0693  -12.5935   21.9875 N   0  0  0  0  0  0  0  0  0  0  0  0
  -28.3733  -25.1717   20.1191 N   0  0  0  0  0  0  0  0  0  0  0  0
  -31.3948  -19.0805   20.5986 N   0  0  0  0  0  0  0  0  0  0  0  0
  -28.9318  -14.2128   16.2856 N   0  0  0  0  0  0  0  0  0  0  0  0
  -21.2236  -18.1830   15.2820 N   0  0  3  0  0  0  0  0  0  0  0  0
  -30.4015  -16.3386   22.7347 N   0  3  0  0  0  0  0  0  0  0  0  0
  -26.7796  -15.0766   14.4347 N   0  3  0  0  0  0  0  0  0  0  0  0
  -22.7249  -10.6186   21.0240 O   0  0  0  0  0  0  0  0  0  0  0  0
  -28.9104  -23.4789   18.6130 O   0  0  0  0  0  0  0  0  0  0  0  0
  -31.3982  -21.9208   20.9749 O   0  0  0  0  0  0  0  0  0  0  0  0
  -29.6792  -17.5493   20.2998 O   0  0  0  0  0  0  0  0  0  0  0  0
  -31.0816  -13.5288   16.6948 O   0  0  0  0  0  0  0  0  0  0  0  0
  -22.1054  -17.8352   23.8739 O   0  0  0  0  0  0  0  0  0  0  0  0
  -23.4053  -19.8703   19.0338 O   0  0  0  0  0  0  0  0  0  1  0  0
  -24.8680  -20.6688   27.7136 F   0  0  0  0  0  0  0  0  0  0  0  0
  -24.4234  -19.2000   23.2358 F   0  0  0  0  0  0  0  0  0  0  0  0
  1  2  1  0  0  0  0
  1  5  2  0  0  0  0
  2  6  2  0  0  0  0
  3 12  2  0  0  0  0
  3 19  1  0  0  0  0
  4 13  1  0  0  0  0
  4 19  2  0  0  0  0
  5 21  1  0  0  0  0
  6 23  1  0  0  0  0
  7 14  2  0  0  0  0
  7 22  1  0  0  0  0
  8 10  2  0  0  0  0
  8 25  1  0  0  0  0
  9 11  1  0  0  0  0
  9 25  2  0  0  0  0
 10 26  1  0  0  0  0
 11 26  2  0  0  0  0
 12 27  1  0  0  0  0
 13 27  2  0  0  0  0
 14 28  1  0  0  0  0
 15 16  2  0  0  0  0
 15 29  1  0  0  0  0
 16 30  1  0  0  0  0
 17 24  1  0  0  0  0
 17 28  2  0  0  0  0
 18 30  2  0  0  0  0
 18 31  1  0  0  0  0
 19 32  1  0  0  0  0
 20 32  1  0  0  0  0
 20 33  2  0  0  0  0
 20 34  1  0  0  0  0
 21 23  2  0  0  0  0
 21 39  1  0  0  0  0
 22 24  2  0  0  0  0
 22 40  1  0  0  0  0
 23 48  1  0  0  0  0
 24 41  1  0  0  0  0
 25 58  1  0  0  0  0
 26 77  1  0  0  0  0
 27 85  1  0  0  0  0
 28 86  1  0  0  0  0
 29 31  2  0  0  0  0
 29 85  1  0  0  0  0
 30 87  1  0  0  0  0
 31 88  1  0  0  0  0
 32 68  2  0  0  0  0
 33 69  1  0  0  0  0
 33 72  1  0  0  0  0
 34 73  1  0  0  0  0
 34 80  2  0  0  0  0
 35 49  1  0  0  0  0
 35 74  1  0  0  0  0
 35 81  2  0  0  0  0
 36 64  1  0  0  0  0
 36 70  1  0  0  0  0
 36 82  2  0  0  0  0
 37 65  1  0  0  0  0
 37 75  1  0  0  0  0
 37 83  2  0  0  0  0
 38 71  1  0  0  0  0
 38 76  1  0  0  0  0
 38 84  2  0  0  0  0
 39 42  1  0  0  0  0
 40 49  1  0  0  0  0
 41 70  1  0  0  0  0
 42 44  1  0  0  0  0
 43 45  1  0  0  0  0
 43 46  1  0  0  0  0
 44 48  1  0  0  0  0
 45 50  1  0  0  0  0
 46 71  1  0  0  0  0
 47 50  1  0  0  0  0
 47 71  1  0  0  0  0
 48 74  1  0  0  0  0
 49 70  1  0  0  0  0
 50 69  1  0  0  0  0
 51 65  1  0  0  0  0
 52 66  1  0  0  0  0
 53 67  1  0  0  0  0
 54 67  1  0  0  0  0
 55 67  1  0  0  0  0
 56 77  1  0  0  0  0
 57 78  1  0  0  0  0
 58 79  1  0  0  0  0
 59 60  1  0  0  0  0
 59 61  1  0  0  0  0
 60 63  1  0  0  0  0
 61 77  1  0  0  0  0
 62 66  1  0  0  0  0
 62 79  1  0  0  0  0
 63 86  1  0  0  0  0
 64 67  1  0  0  0  0
 64 75  1  0  0  0  0
 65 78  1  0  0  0  0
 66 76  1  0  0  0  0
 68 69  1  0  0  0  0
M  CHG  2  78   1  79   1
M  ISO  4  38 100  63 101  76 100  86 101
M  END
> <Batch ID>
0020

> <Smiles>
CNC(C)C(=O)NC(C(=O)N1Cc2cc([101O:1][101CH2:1]CCCN(C)c3ccc(CNCC(C)[100NH:0][100C:0](=O)N4CCCC(n5nc(-c6ccc(Oc7ccc(F)cc7F)cc6)c(C(N)=O)c5N)C4)cc3)ccc2CC1C(=O)NC1CCCc2ccccc21)C(C)(C)C

> <Shape>
0.207

> <Color>
0.105

> <Negative vol penalty>
0.000

$$$$

  -OEChem-04042321083D

 89 98  0     1  0  0  0  0  0999 V2000
  -17.6576  -25.8744   22.7069 C   0  0  0  0  0  0  0  0  0  0  0  0
  -18.8821  -25.5553   22.1288 C   0  0  0  0  0  0  0  0  0  0  0  0
  -27.4782  -16.2109   19.3858 C   0  0  0  0  0  0  0  0  0  0  0  0
  -27.9368  -16.1890   21.7578 C   0  0  0  0  0  0  0  0  0  0  0  0
  -17.2789  -27.2094   22.8426 C   0  0  0  0  0  0  0  0  0  0  0  0
  -19.7281  -26.5711   21.6851 C   0  0  0  0  0  0  0  0  0  0  0  0
  -25.8509  -26.5819   21.8155 C   0  0  0  0  0  0  0  0  0  0  0  0
  -30.2386  -19.5558   15.0823 C   0  0  0  0  0  0  0  0  0  0  0  0
  -31.4286  -18.8777   15.3464 C   0  0  0  0  0  0  0  0  0  0  0  0
  -26.8062  -14.9944   19.5045 C   0  0  0  0  0  0  0  0  0  0  0  0
  -27.2648  -14.9725   21.8765 C   0  0  0  0  0  0  0  0  0  0  0  0
  -26.8103  -26.3013   20.8436 C   0  0  0  0  0  0  0  0  0  0  0  0
  -23.7730  -13.9146   20.5374 C   0  0  0  0  0  0  0  0  0  0  0  0
  -22.5468  -13.7851   19.8853 C   0  0  0  0  0  0  0  0  0  0  0  0
  -26.9977  -28.6567   20.3572 C   0  0  0  0  0  0  0  0  0  0  0  0
  -31.1313  -21.5350   16.1421 C   0  0  0  0  0  0  0  0  0  0  0  0
  -23.4286  -11.9440   18.5929 C   0  0  0  0  0  0  0  0  0  0  0  0
  -28.0436  -16.8082   20.5125 C   0  0  0  0  0  0  0  0  0  0  0  0
  -28.1885  -19.3551   20.5089 C   0  0  0  0  0  0  0  0  0  0  0  0
  -18.1249  -28.2423   22.4091 C   0  0  0  0  0  0  0  0  0  0  0  0
  -25.4491  -27.9033   22.0584 C   0  0  0  0  0  0  0  0  0  0  0  0
  -19.3598  -27.9210   21.8139 C   0  0  0  0  0  0  0  0  0  0  0  0
  -26.0349  -28.9516   21.3345 C   0  0  0  0  0  0  0  0  0  0  0  0
  -30.0900  -20.8845   15.4801 C   0  0  0  0  0  0  0  0  0  0  0  0
  -32.4698  -19.5282   16.0084 C   0  0  0  0  0  0  0  0  0  0  0  0
  -26.6995  -14.3752   20.7498 C   0  0  0  0  0  0  0  0  0  0  0  0
  -27.3818  -27.3385   20.1122 C   0  0  0  0  0  0  0  0  0  0  0  0
  -24.8271  -13.0589   20.2172 C   0  0  0  0  0  0  0  0  0  0  0  0
  -22.3746  -12.7998   18.9131 C   0  0  0  0  0  0  0  0  0  0  0  0
  -32.3212  -20.8568   16.4063 C   0  0  0  0  0  0  0  0  0  0  0  0
  -24.6548  -12.0736   19.2450 C   0  0  0  0  0  0  0  0  0  0  0  0
  -28.7383  -18.0646   20.3904 C   0  0  0  0  0  0  0  0  0  0  0  0
  -29.2524  -20.2011   20.3118 C   0  0  0  0  0  0  0  0  0  0  0  0
  -26.9654  -22.8179   16.2277 C   0  0  0  0  0  0  0  0  0  0  0  0
  -27.3187  -24.1080   16.2379 C   0  0  0  0  0  0  0  0  0  0  0  0
  -26.8368  -19.7536   20.7735 C   0  0  0  0  0  0  0  0  0  0  0  0
  -22.7047  -29.4909   21.8316 C   0  0  0  0  0  0  0  0  0  0  0  0
  -24.4243  -31.8807   23.1932 C   0  0  0  0  0  0  0  0  0  0  0  0
  -27.4821  -33.2764   23.7839 C   0  0  0  0  0  0  0  0  0  0  0  0
  -34.5189  -19.1026   17.3910 C   0  0  0  0  0  0  0  0  0  0  0  0
  -17.6517  -29.6689   22.5339 C   0  0  0  0  0  0  0  0  0  0  0  0
  -24.4325  -28.1917   23.1288 C   0  0  0  0  0  0  0  0  0  0  0  0
  -25.6528  -30.3891   21.5710 C   0  0  0  0  0  0  0  0  0  0  0  0
  -25.5666  -22.2959   16.1192 C   0  0  0  0  0  0  0  0  0  0  0  0
  -18.7693  -30.6971   22.3794 C   0  0  0  0  0  0  0  0  0  0  0  0
  -25.8050  -20.7987   15.9983 C   0  0  0  0  0  0  0  0  0  0  0  0
  -34.0009  -20.4594   20.7945 C   0  0  0  0  0  0  0  0  0  0  0  0
  -19.6403  -30.3615   21.1729 C   0  0  0  0  0  0  0  0  0  0  0  0
  -32.5700  -20.0321   21.1159 C   0  0  0  0  0  0  0  0  0  0  0  0
  -34.6778  -19.4912   19.8290 C   0  0  0  0  0  0  0  0  0  0  0  0
  -32.4778  -18.8508   18.8849 C   0  0  0  0  0  0  0  0  0  0  0  0
  -27.1109  -20.5629   16.7409 C   0  0  0  0  0  0  0  0  0  0  0  0
  -20.3158  -28.9954   21.3430 C   0  0  1  0  0  0  0  0  0  0  0  0
  -23.7238  -29.5287   22.9351 C   0  0  1  0  0  0  0  0  0  0  0  0
  -31.7605  -19.8320   19.8241 C   0  0  1  0  0  0  0  0  0  0  0  0
  -28.5659  -35.2487   24.8942 C   0  0  0  0  0  0  0  0  0  0  0  0
  -23.5400  -33.6650   20.8814 C   0  0  0  0  0  0  0  0  0  0  0  0
  -25.3625  -35.2627   21.5090 C   0  0  0  0  0  0  0  0  0  0  0  0
  -23.5230  -34.7757   23.1220 C   0  0  0  0  0  0  0  0  0  0  0  0
  -34.2463  -17.9704   15.2287 C   0  0  0  0  0  0  0  0  0  0  0  0
  -29.0111  -31.5428   25.6321 C   0  0  0  0  0  0  0  0  0  0  0  0
  -28.8097  -21.6138   15.1972 C   0  0  0  0  0  0  0  0  0  0  0  0
  -28.7352  -24.5890   16.3485 C   0  0  0  0  0  0  0  0  0  0  0  0
  -28.8126  -25.9185   17.0967 C   0  0  0  0  0  0  0  0  0  0  0  0
  -28.2222  -25.8088   18.4968 C   0  0  0  0  0  0  0  0  0  1  0  0
  -25.2787  -33.0123   22.6749 C   0  0  1  0  0  0  0  0  0  0  0  0
  -28.1196  -33.8040   25.0566 C   0  0  2  0  0  0  0  0  0  0  0  0
  -24.4320  -34.1518   22.0408 C   0  0  0  0  0  0  0  0  0  0  0  0
  -30.0497  -18.0841   20.1376 N   0  0  0  0  0  0  0  0  0  0  0  0
  -30.3327  -19.3972   20.0954 N   0  0  0  0  0  0  0  0  0  0  0  0
  -24.6498  -30.6194   22.6239 N   0  0  0  0  0  0  0  0  0  0  0  0
  -33.8677  -19.2639   18.6312 N   0  0  0  0  0  0  0  0  0  0  0  0
  -29.3599  -21.5467   20.3042 N   0  0  0  0  0  0  0  0  0  0  0  0
  -25.8687  -18.7558   20.9507 N   0  0  0  0  0  0  0  0  0  0  0  0
  -21.4450  -29.0984   22.2423 N   0  0  0  0  0  0  0  0  0  0  0  0
  -26.1129  -33.4391   23.7931 N   0  0  0  0  0  0  0  0  0  0  0  0
  -33.6991  -18.8242   16.2807 N   0  0  0  0  0  0  0  0  0  0  0  0
  -27.9492  -21.7870   16.4162 N   0  3  1  0  0  0  0  0  0  0  0  0
  -29.3091  -32.9825   25.4191 N   0  3  0  0  0  0  0  0  0  0  0  0
  -26.4945  -20.9588   20.8342 O   0  0  0  0  0  0  0  0  0  0  0  0
  -23.0363  -29.7967   20.6922 O   0  0  0  0  0  0  0  0  0  0  0  0
  -23.5926  -32.1062   24.0758 O   0  0  0  0  0  0  0  0  0  0  0  0
  -28.1339  -32.7738   22.8712 O   0  0  0  0  0  0  0  0  0  0  0  0
  -35.7510  -19.1477   17.2880 O   0  0  0  0  0  0  0  0  0  0  0  0
  -26.0436  -13.1882   20.8660 O   0  0  0  0  0  0  0  0  0  0  0  0
  -28.3179  -27.0673   19.1626 O   0  0  0  0  0  0  0  0  0  1  0  0
  -21.1965  -12.6745   18.2881 F   0  0  0  0  0  0  0  0  0  0  0  0
  -33.3149  -21.4915   17.0445 F   0  0  0  0  0  0  0  0  0  0  0  0
  -25.6634  -11.2478   18.9340 F   0  0  0  0  0  0  0  0  0  0  0  0
  1  2  1  0  0  0  0
  1  5  2  0  0  0  0
  2  6  2  0  0  0  0
  3 10  2  0  0  0  0
  3 18  1  0  0  0  0
  4 11  1  0  0  0  0
  4 18  2  0  0  0  0
  5 20  1  0  0  0  0
  6 22  1  0  0  0  0
  7 12  2  0  0  0  0
  7 21  1  0  0  0  0
  8  9  2  0  0  0  0
  8 24  1  0  0  0  0
  9 25  1  0  0  0  0
 10 26  1  0  0  0  0
 11 26  2  0  0  0  0
 12 27  1  0  0  0  0
 13 14  2  0  0  0  0
 13 28  1  0  0  0  0
 14 29  1  0  0  0  0
 15 23  1  0  0  0  0
 15 27  2  0  0  0  0
 16 24  2  0  0  0  0
 16 30  1  0  0  0  0
 17 29  2  0  0  0  0
 17 31  1  0  0  0  0
 18 32  1  0  0  0  0
 19 32  1  0  0  0  0
 19 33  2  0  0  0  0
 19 36  1  0  0  0  0
 20 22  2  0  0  0  0
 20 41  1  0  0  0  0
 21 23  2  0  0  0  0
 21 42  1  0  0  0  0
 22 53  1  0  0  0  0
 23 43  1  0  0  0  0
 24 62  1  0  0  0  0
 25 30  2  0  0  0  0
 25 77  1  0  0  0  0
 26 85  1  0  0  0  0
 27 86  1  0  0  0  0
 28 31  2  0  0  0  0
 28 85  1  0  0  0  0
 29 87  1  0  0  0  0
 30 88  1  0  0  0  0
 31 89  1  0  0  0  0
 32 69  2  0  0  0  0
 33 70  1  0  0  0  0
 33 73  1  0  0  0  0
 34 35  2  0  0  0  0
 34 44  1  0  0  0  0
 34 78  1  0  0  0  0
 35 63  1  0  0  0  0
 36 74  1  0  0  0  0
 36 80  2  0  0  0  0
 37 54  1  0  0  0  0
 37 75  1  0  0  0  0
 37 81  2  0  0  0  0
 38 66  1  0  0  0  0
 38 71  1  0  0  0  0
 38 82  2  0  0  0  0
 39 67  1  0  0  0  0
 39 76  1  0  0  0  0
 39 83  2  0  0  0  0
 40 72  1  0  0  0  0
 40 77  1  0  0  0  0
 40 84  2  0  0  0  0
 41 45  1  0  0  0  0
 42 54  1  0  0  0  0
 43 71  1  0  0  0  0
 44 46  1  0  0  0  0
 45 48  1  0  0  0  0
 46 52  1  0  0  0  0
 47 49  1  0  0  0  0
 47 50  1  0  0  0  0
 48 53  1  0  0  0  0
 49 55  1  0  0  0  0
 50 72  1  0  0  0  0
 51 55  1  0  0  0  0
 51 72  1  0  0  0  0
 52 78  1  0  0  0  0
 53 75  1  0  0  0  0
 54 71  1  0  0  0  0
 55 70  1  0  0  0  0
 56 67  1  0  0  0  0
 57 68  1  0  0  0  0
 58 68  1  0  0  0  0
 59 68  1  0  0  0  0
 60 77  1  0  0  0  0
 61 79  1  0  0  0  0
 62 78  1  0  0  0  0
 63 64  1  0  0  0  0
 64 65  1  0  0  0  0
 65 86  1  0  0  0  0
 66 68  1  0  0  0  0
 66 76  1  0  0  0  0
 67 79  1  0  0  0  0
 69 70  1  0  0  0  0
M  CHG  2  78   1  79   1
M  ISO  4  40 100  65 101  77 100  86 101
M  END
> <Batch ID>
0020

> <Smiles>
CNC(C)C(=O)NC(C(=O)N1Cc2cc([101O:1][101CH2:1]CCC=C3CCCN3Cc3ccc([100N:0](C)[100C:0](=O)N4CCCC(n5nc(-c6ccc(Oc7ccc(F)cc7F)cc6)c(C(N)=O)c5N)C4)c(F)c3)ccc2CC1C(=O)NC1CCCc2ccccc21)C(C)(C)C

> <Shape>
0.235

> <Color>
0.089

> <Negative vol penalty>
0.000

$$$$

  -OEChem-04042321083D

 88 96  0     1  0  0  0  0  0999 V2000
  -32.0313  -33.2947   22.6203 C   0  0  0  0  0  0  0  0  0  0  0  0
  -30.7354  -32.9453   22.2541 C   0  0  0  0  0  0  0  0  0  0  0  0
  -23.1291   -9.8656   19.8960 C   0  0  0  0  0  0  0  0  0  0  0  0
  -23.7804   -9.8693   22.2225 C   0  0  0  0  0  0  0  0  0  0  0  0
  -33.1127  -32.8523   21.8597 C   0  0  0  0  0  0  0  0  0  0  0  0
  -30.5203  -32.1541   21.1262 C   0  0  0  0  0  0  0  0  0  0  0  0
  -27.1052  -25.8314   21.6282 C   0  0  0  0  0  0  0  0  0  0  0  0
  -22.3641   -8.7195   20.1119 C   0  0  0  0  0  0  0  0  0  0  0  0
  -23.0153   -8.7231   22.4385 C   0  0  0  0  0  0  0  0  0  0  0  0
  -26.2755  -24.7101   21.6086 C   0  0  0  0  0  0  0  0  0  0  0  0
  -19.7554   -7.9548   22.8894 C   0  0  0  0  0  0  0  0  0  0  0  0
  -18.9439   -7.9233   24.0234 C   0  0  0  0  0  0  0  0  0  0  0  0
  -26.6958  -24.4273   19.2440 C   0  0  0  0  0  0  0  0  0  0  0  0
  -27.3611  -18.1473   20.7848 C   0  0  0  0  0  0  0  0  0  0  0  0
  -29.1083  -18.6575   19.1961 C   0  0  0  0  0  0  0  0  0  0  0  0
  -20.1321   -5.9760   24.8195 C   0  0  0  0  0  0  0  0  0  0  0  0
  -23.8373  -10.4405   20.9513 C   0  0  0  0  0  0  0  0  0  0  0  0
  -24.2069  -12.9624   20.8448 C   0  0  0  0  0  0  0  0  0  0  0  0
  -32.9113  -32.0473   20.7274 C   0  0  0  0  0  0  0  0  0  0  0  0
  -27.7463  -26.2464   20.4577 C   0  0  0  0  0  0  0  0  0  0  0  0
  -31.6000  -31.7016   20.3489 C   0  0  0  0  0  0  0  0  0  0  0  0
  -27.5379  -25.5424   19.2603 C   0  0  0  0  0  0  0  0  0  0  0  0
  -28.2975  -17.5354   21.6181 C   0  0  0  0  0  0  0  0  0  0  0  0
  -29.6393  -17.4847   21.2404 C   0  0  0  0  0  0  0  0  0  0  0  0
  -27.7665  -18.7083   19.5737 C   0  0  0  0  0  0  0  0  0  0  0  0
  -22.3072   -8.1482   21.3831 C   0  0  0  0  0  0  0  0  0  0  0  0
  -26.0712  -24.0100   20.4193 C   0  0  0  0  0  0  0  0  0  0  0  0
  -20.7552   -6.9968   22.7203 C   0  0  0  0  0  0  0  0  0  0  0  0
  -19.1323   -6.9339   24.9885 C   0  0  0  0  0  0  0  0  0  0  0  0
  -30.0447  -18.0457   20.0294 C   0  0  0  0  0  0  0  0  0  0  0  0
  -20.9435   -6.0075   23.6854 C   0  0  0  0  0  0  0  0  0  0  0  0
  -24.6283  -11.6242   20.7287 C   0  0  0  0  0  0  0  0  0  0  0  0
  -25.3215  -13.7016   20.5325 C   0  0  0  0  0  0  0  0  0  0  0  0
  -22.9227  -13.4900   21.2029 C   0  0  0  0  0  0  0  0  0  0  0  0
  -30.0725  -28.6993   18.8304 C   0  0  0  0  0  0  0  0  0  0  0  0
  -30.7365  -25.9378   17.6713 C   0  0  0  0  0  0  0  0  0  0  0  0
  -31.4369  -22.6759   16.9593 C   0  0  0  0  0  0  0  0  0  0  0  0
  -30.7120  -14.7326   20.8300 C   0  0  0  0  0  0  0  0  0  0  0  0
  -34.1086  -31.6324   19.9094 C   0  0  0  0  0  0  0  0  0  0  0  0
  -28.6000  -27.4847   20.4189 C   0  0  0  0  0  0  0  0  0  0  0  0
  -28.2208  -26.0457   18.0180 C   0  0  0  0  0  0  0  0  0  0  0  0
  -33.8188  -30.4866   18.9433 C   0  0  0  0  0  0  0  0  0  0  0  0
  -29.7475  -12.3205   18.5326 C   0  0  0  0  0  0  0  0  0  0  0  0
  -32.5200  -30.7428   18.1855 C   0  0  0  0  0  0  0  0  0  0  0  0
  -28.2947  -12.0225   18.9007 C   0  0  0  0  0  0  0  0  0  0  0  0
  -30.6016  -12.4924   19.7830 C   0  0  0  0  0  0  0  0  0  0  0  0
  -28.6503  -13.2736   21.0881 C   0  0  0  0  0  0  0  0  0  0  0  0
  -31.3276  -30.8244   19.1462 C   0  0  1  0  0  0  0  0  0  0  0  0
  -29.7949  -27.3641   19.4562 C   0  0  1  0  0  0  0  0  0  0  0  0
  -27.7382  -13.0913   19.8576 C   0  0  2  0  0  0  0  0  0  0  0  0
  -27.8398  -16.9413   22.9096 C   0  0  0  0  0  0  0  0  0  0  0  0
  -27.4087  -18.8667   16.4137 C   0  0  0  0  0  0  0  0  0  0  0  0
  -32.0738  -14.6571   23.8895 C   0  0  0  0  0  0  0  0  0  0  0  0
  -32.9745  -21.2460   15.5852 C   0  0  0  0  0  0  0  0  0  0  0  0
  -29.1347  -26.6268   15.1687 C   0  0  0  0  0  0  0  0  0  0  0  0
  -30.0381  -24.5485   14.1044 C   0  0  0  0  0  0  0  0  0  0  0  0
  -31.5944  -26.3713   14.7959 C   0  0  0  0  0  0  0  0  0  0  0  0
  -32.5554  -21.3641   19.3649 C   0  0  0  0  0  0  0  0  0  0  0  0
  -30.6571  -16.8336   22.1185 C   0  0  0  0  0  0  0  0  0  0  0  0
  -25.1598  -20.5446   20.0381 C   0  0  0  0  0  0  0  0  0  0  0  0
  -27.2527  -19.9122   17.4650 C   0  0  0  0  0  0  0  0  0  0  0  0
  -30.6547  -14.7016   23.3599 C   0  0  0  0  0  0  0  0  0  0  0  0
  -25.4277  -19.3829   19.0890 C   0  0  0  0  0  0  0  0  0  0  0  0
  -25.5678  -21.8935   19.4576 C   0  0  0  0  0  0  0  0  0  1  0  0
  -30.4984  -24.9387   16.5675 C   0  0  1  0  0  0  0  0  0  0  0  0
  -32.7466  -21.9088   16.9348 C   0  0  2  0  0  0  0  0  0  0  0  0
  -30.3022  -25.6200   15.1837 C   0  0  0  0  0  0  0  0  0  0  0  0
  -25.9105  -11.5165   20.3705 N   0  0  0  0  0  0  0  0  0  0  0  0
  -26.3044  -12.7965   20.2587 N   0  0  0  0  0  0  0  0  0  0  0  0
  -29.6050  -26.4359   18.3286 N   0  0  0  0  0  0  0  0  0  0  0  0
  -30.0410  -13.5109   20.6714 N   0  0  0  0  0  0  0  0  0  0  0  0
  -25.5470  -15.0311   20.4680 N   0  0  0  0  0  0  0  0  0  0  0  0
  -21.8880  -12.5903   21.4932 N   0  0  0  0  0  0  0  0  0  0  0  0
  -30.9256  -29.4991   19.5666 N   0  0  0  0  0  0  0  0  0  0  0  0
  -31.6142  -24.0002   16.6186 N   0  0  0  0  0  0  0  0  0  0  0  0
  -26.8255  -19.3239   18.7358 N   0  0  3  0  0  0  0  0  0  0  0  0
  -30.5811  -15.3805   22.0675 N   0  0  0  0  0  0  0  0  0  0  0  0
  -32.7467  -20.8505   17.9841 N   0  3  0  0  0  0  0  0  0  0  0  0
  -22.6950  -14.7228   21.2478 O   0  0  0  0  0  0  0  0  0  0  0  0
  -29.5527  -28.9837   17.7578 O   0  0  0  0  0  0  0  0  0  0  0  0
  -31.8930  -26.2736   17.9418 O   0  0  0  0  0  0  0  0  0  0  0  0
  -30.3633  -22.1519   17.2479 O   0  0  0  0  0  0  0  0  0  0  0  0
  -31.3972  -15.2153   19.9192 O   0  0  0  0  0  0  0  0  0  0  0  0
  -21.5605   -7.0299   21.5943 O   0  0  0  0  0  0  0  0  0  0  0  0
  -25.2635  -22.9135   20.4082 O   0  0  0  0  0  0  0  0  0  1  0  0
  -18.3539   -6.9047   26.0782 F   0  0  0  0  0  0  0  0  0  0  0  0
  -31.3317  -18.0021   19.6572 F   0  0  0  0  0  0  0  0  0  0  0  0
  -21.9032   -5.0853   23.5291 F   0  0  0  0  0  0  0  0  0  0  0  0
  1  2  1  0  0  0  0
  1  5  2  0  0  0  0
  2  6  2  0  0  0  0
  3  8  2  0  0  0  0
  3 17  1  0  0  0  0
  4  9  1  0  0  0  0
  4 17  2  0  0  0  0
  5 19  1  0  0  0  0
  6 21  1  0  0  0  0
  7 10  2  0  0  0  0
  7 20  1  0  0  0  0
  8 26  1  0  0  0  0
  9 26  2  0  0  0  0
 10 27  1  0  0  0  0
 11 12  2  0  0  0  0
 11 28  1  0  0  0  0
 12 29  1  0  0  0  0
 13 22  1  0  0  0  0
 13 27  2  0  0  0  0
 14 23  2  0  0  0  0
 14 25  1  0  0  0  0
 15 25  2  0  0  0  0
 15 30  1  0  0  0  0
 16 29  2  0  0  0  0
 16 31  1  0  0  0  0
 17 32  1  0  0  0  0
 18 32  1  0  0  0  0
 18 33  2  0  0  0  0
 18 34  1  0  0  0  0
 19 21  2  0  0  0  0
 19 39  1  0  0  0  0
 20 22  2  0  0  0  0
 20 40  1  0  0  0  0
 21 48  1  0  0  0  0
 22 41  1  0  0  0  0
 23 24  1  0  0  0  0
 23 51  1  0  0  0  0
 24 30  2  0  0  0  0
 24 59  1  0  0  0  0
 25 76  1  0  0  0  0
 26 84  1  0  0  0  0
 27 85  1  0  0  0  0
 28 31  2  0  0  0  0
 28 84  1  0  0  0  0
 29 86  1  0  0  0  0
 30 87  1  0  0  0  0
 31 88  1  0  0  0  0
 32 68  2  0  0  0  0
 33 69  1  0  0  0  0
 33 72  1  0  0  0  0
 34 73  1  0  0  0  0
 34 79  2  0  0  0  0
 35 49  1  0  0  0  0
 35 74  1  0  0  0  0
 35 80  2  0  0  0  0
 36 65  1  0  0  0  0
 36 70  1  0  0  0  0
 36 81  2  0  0  0  0
 37 66  1  0  0  0  0
 37 75  1  0  0  0  0
 37 82  2  0  0  0  0
 38 71  1  0  0  0  0
 38 77  1  0  0  0  0
 38 83  2  0  0  0  0
 39 42  1  0  0  0  0
 40 49  1  0  0  0  0
 41 70  1  0  0  0  0
 42 44  1  0  0  0  0
 43 45  1  0  0  0  0
 43 46  1  0  0  0  0
 44 48  1  0  0  0  0
 45 50  1  0  0  0  0
 46 71  1  0  0  0  0
 47 50  1  0  0  0  0
 47 71  1  0  0  0  0
 48 74  1  0  0  0  0
 49 70  1  0  0  0  0
 50 69  1  0  0  0  0
 52 61  1  0  0  0  0
 53 62  1  0  0  0  0
 54 66  1  0  0  0  0
 55 67  1  0  0  0  0
 56 67  1  0  0  0  0
 57 67  1  0  0  0  0
 58 78  1  0  0  0  0
 59 77  1  0  0  0  0
 60 63  1  0  0  0  0
 60 64  1  0  0  0  0
 61 76  1  0  0  0  0
 62 77  1  0  0  0  0
 63 76  1  0  0  0  0
 64 85  1  0  0  0  0
 65 67  1  0  0  0  0
 65 75  1  0  0  0  0
 66 78  1  0  0  0  0
 68 69  1  0  0  0  0
M  CHG  1  78   1
M  ISO  4  38 100  64 101  77 100  85 101
M  END
> <Batch ID>
0020

> <Smiles>
CCN(CC[101CH2:1][101O:1]c1ccc2c(c1)CN(C(=O)C(NC(=O)C(C)NC)C(C)(C)C)C(C(=O)NC1CCCc3ccccc31)C2)c1cc(C)c(C[100N:0](CC)[100C:0](=O)N2CCCC(n3nc(-c4ccc(Oc5ccc(F)cc5F)cc4)c(C(N)=O)c3N)C2)c(F)c1

> <Shape>
0.254

> <Color>
0.196

> <Negative vol penalty>
0.000

$$$$

  -OEChem-04042321083D

 85 94  0     1  0  0  0  0  0999 V2000
  -29.3311  -34.5311   16.8054 C   0  0  0  0  0  0  0  0  0  0  0  0
  -29.6969  -33.1914   16.7231 C   0  0  0  0  0  0  0  0  0  0  0  0
  -23.0254   -9.9230   19.8905 C   0  0  0  0  0  0  0  0  0  0  0  0
  -23.9254   -9.7015   22.1217 C   0  0  0  0  0  0  0  0  0  0  0  0
  -28.6453  -34.9978   17.9260 C   0  0  0  0  0  0  0  0  0  0  0  0
  -29.3782  -32.3178   17.7621 C   0  0  0  0  0  0  0  0  0  0  0  0
  -27.8776  -26.4009   17.2672 C   0  0  0  0  0  0  0  0  0  0  0  0
  -31.2394  -19.1227   21.0184 C   0  0  0  0  0  0  0  0  0  0  0  0
  -31.0732  -17.7416   20.8737 C   0  0  0  0  0  0  0  0  0  0  0  0
  -22.3054   -8.7409   20.0636 C   0  0  0  0  0  0  0  0  0  0  0  0
  -23.2053   -8.5194   22.2948 C   0  0  0  0  0  0  0  0  0  0  0  0
  -28.6155  -25.2293   17.4304 C   0  0  0  0  0  0  0  0  0  0  0  0
  -20.0254   -7.6233   23.0059 C   0  0  0  0  0  0  0  0  0  0  0  0
  -19.3425   -7.4527   24.2100 C   0  0  0  0  0  0  0  0  0  0  0  0
  -27.8220  -25.0531   19.7016 C   0  0  0  0  0  0  0  0  0  0  0  0
  -20.6387   -5.4649   24.6636 C   0  0  0  0  0  0  0  0  0  0  0  0
  -23.8355  -10.4032   20.9195 C   0  0  0  0  0  0  0  0  0  0  0  0
  -24.1539  -12.9313   21.0430 C   0  0  0  0  0  0  0  0  0  0  0  0
  -28.3095  -34.1273   18.9749 C   0  0  0  0  0  0  0  0  0  0  0  0
  -27.1137  -26.9142   18.3253 C   0  0  0  0  0  0  0  0  0  0  0  0
  -28.6885  -32.7735   18.8985 C   0  0  0  0  0  0  0  0  0  0  0  0
  -27.0733  -26.2300   19.5485 C   0  0  0  0  0  0  0  0  0  0  0  0
  -29.7162  -19.1212   22.8837 C   0  0  0  0  0  0  0  0  0  0  0  0
  -30.5794  -19.8496   22.0288 C   0  0  0  0  0  0  0  0  0  0  0  0
  -30.2381  -17.0450   21.7366 C   0  0  0  0  0  0  0  0  0  0  0  0
  -22.3953   -8.0392   21.2657 C   0  0  0  0  0  0  0  0  0  0  0  0
  -28.5900  -24.5567   18.6486 C   0  0  0  0  0  0  0  0  0  0  0  0
  -21.0150   -6.7147   22.6305 C   0  0  0  0  0  0  0  0  0  0  0  0
  -19.6491   -6.3736   25.0389 C   0  0  0  0  0  0  0  0  0  0  0  0
  -21.3216   -5.6355   23.4594 C   0  0  0  0  0  0  0  0  0  0  0  0
  -29.5638  -17.7310   22.7402 C   0  0  0  0  0  0  0  0  0  0  0  0
  -24.5799  -11.6239   20.7411 C   0  0  0  0  0  0  0  0  0  0  0  0
  -25.2170  -13.7279   20.6942 C   0  0  0  0  0  0  0  0  0  0  0  0
  -22.9086  -13.3850   21.5898 C   0  0  0  0  0  0  0  0  0  0  0  0
  -27.1436  -29.6075   20.0132 C   0  0  0  0  0  0  0  0  0  0  0  0
  -24.4333  -28.3734   21.2991 C   0  0  0  0  0  0  0  0  0  0  0  0
  -22.5575  -25.6105   22.0025 C   0  0  0  0  0  0  0  0  0  0  0  0
  -30.6771  -14.8177   20.6444 C   0  0  0  0  0  0  0  0  0  0  0  0
  -27.6093  -34.6879   20.1874 C   0  0  0  0  0  0  0  0  0  0  0  0
  -26.3022  -28.1646   18.1247 C   0  0  0  0  0  0  0  0  0  0  0  0
  -28.9709  -19.8091   24.0019 C   0  0  0  0  0  0  0  0  0  0  0  0
  -26.2530  -26.7284   20.7092 C   0  0  0  0  0  0  0  0  0  0  0  0
  -26.9798  -33.6181   21.0761 C   0  0  0  0  0  0  0  0  0  0  0  0
  -28.8474  -21.3038   23.7430 C   0  0  0  0  0  0  0  0  0  0  0  0
  -29.4333  -12.6489   18.1095 C   0  0  0  0  0  0  0  0  0  0  0  0
  -27.9619  -32.4751   21.3128 C   0  0  0  0  0  0  0  0  0  0  0  0
  -28.0247  -12.2964   18.5930 C   0  0  0  0  0  0  0  0  0  0  0  0
  -30.2095  -21.8763   23.3804 C   0  0  0  0  0  0  0  0  0  0  0  0
  -30.4194  -12.7632   19.2706 C   0  0  0  0  0  0  0  0  0  0  0  0
  -28.5970  -13.3167   20.8332 C   0  0  0  0  0  0  0  0  0  0  0  0
  -28.3388  -31.7896   19.9939 C   0  0  1  0  0  0  0  0  0  0  0  0
  -25.9670  -28.8755   19.4323 C   0  0  1  0  0  0  0  0  0  0  0  0
  -27.5544  -13.2544   19.7050 C   0  0  2  0  0  0  0  0  0  0  0  0
  -20.4079  -24.9146   23.0944 C   0  0  0  0  0  0  0  0  0  0  0  0
  -25.6976  -28.7858   24.0453 C   0  0  0  0  0  0  0  0  0  0  0  0
  -23.9708  -27.2416   24.9950 C   0  0  0  0  0  0  0  0  0  0  0  0
  -23.2714  -29.3783   23.9142 C   0  0  0  0  0  0  0  0  0  0  0  0
  -21.5119  -24.4668   19.4810 C   0  0  0  0  0  0  0  0  0  0  0  0
  -31.0758  -22.3173   20.0105 C   0  0  0  0  0  0  0  0  0  0  0  0
  -31.6846  -21.9749   21.3649 C   0  0  0  0  0  0  0  0  0  0  0  0
  -29.7910  -23.1294   20.1239 C   0  0  0  0  0  0  0  0  0  1  0  0
  -24.1182  -27.4802   22.4746 C   0  0  1  0  0  0  0  0  0  0  0  0
  -21.0839  -25.3131   21.7917 C   0  0  2  0  0  0  0  0  0  0  0  0
  -24.2816  -28.2128   23.8362 C   0  0  0  0  0  0  0  0  0  0  0  0
  -25.8171  -11.5877   20.2391 N   0  0  0  0  0  0  0  0  0  0  0  0
  -26.1776  -12.8823   20.2226 N   0  0  0  0  0  0  0  0  0  0  0  0
  -30.7384  -21.2282   22.1812 N   0  0  3  0  0  0  0  0  0  0  0  0
  -25.4818  -27.9586   20.4658 N   0  0  0  0  0  0  0  0  0  0  0  0
  -29.9094  -13.6904   20.2830 N   0  0  0  0  0  0  0  0  0  0  0  0
  -25.4144  -15.0623   20.7477 N   0  0  0  0  0  0  0  0  0  0  0  0
  -21.9250  -12.4332   21.8913 N   0  0  0  0  0  0  0  0  0  0  0  0
  -30.0759  -15.6448   21.5927 N   0  0  0  0  0  0  0  0  0  0  0  0
  -27.2768  -30.9066   19.5617 N   0  0  0  0  0  0  0  0  0  0  0  0
  -22.7795  -26.9508   22.2378 N   0  0  0  0  0  0  0  0  0  0  0  0
  -20.9146  -24.2004   20.8148 N   0  3  0  0  0  0  0  0  0  0  0  0
  -22.6689  -14.6000   21.7895 O   0  0  0  0  0  0  0  0  0  0  0  0
  -27.8755  -29.0363   20.8131 O   0  0  0  0  0  0  0  0  0  0  0  0
  -23.7687  -29.3975   21.1226 O   0  0  0  0  0  0  0  0  0  0  0  0
  -23.4246  -24.7402   21.9659 O   0  0  0  0  0  0  0  0  0  0  0  0
  -31.7741  -15.0481   20.1292 O   0  0  0  0  0  0  0  0  0  0  0  0
  -21.6927   -6.8859   21.4350 O   0  0  0  0  0  0  0  0  0  0  0  0
  -29.3098  -23.4133   18.8108 O   0  0  0  0  0  0  0  0  0  1  0  0
  -18.9942   -6.2107   26.1960 F   0  0  0  0  0  0  0  0  0  0  0  0
  -22.2721   -4.7600   23.1046 F   0  0  0  0  0  0  0  0  0  0  0  0
  -28.7590  -17.0594   23.5790 F   0  0  0  0  0  0  0  0  0  0  0  0
  1  2  1  0  0  0  0
  1  5  2  0  0  0  0
  2  6  2  0  0  0  0
  3 10  2  0  0  0  0
  3 17  1  0  0  0  0
  4 11  1  0  0  0  0
  4 17  2  0  0  0  0
  5 19  1  0  0  0  0
  6 21  1  0  0  0  0
  7 12  2  0  0  0  0
  7 20  1  0  0  0  0
  8  9  1  0  0  0  0
  8 24  2  0  0  0  0
  9 25  2  0  0  0  0
 10 26  1  0  0  0  0
 11 26  2  0  0  0  0
 12 27  1  0  0  0  0
 13 14  2  0  0  0  0
 13 28  1  0  0  0  0
 14 29  1  0  0  0  0
 15 22  1  0  0  0  0
 15 27  2  0  0  0  0
 16 29  2  0  0  0  0
 16 30  1  0  0  0  0
 17 32  1  0  0  0  0
 18 32  1  0  0  0  0
 18 33  2  0  0  0  0
 18 34  1  0  0  0  0
 19 21  2  0  0  0  0
 19 39  1  0  0  0  0
 20 22  2  0  0  0  0
 20 40  1  0  0  0  0
 21 51  1  0  0  0  0
 22 42  1  0  0  0  0
 23 24  1  0  0  0  0
 23 31  2  0  0  0  0
 23 41  1  0  0  0  0
 24 67  1  0  0  0  0
 25 31  1  0  0  0  0
 25 72  1  0  0  0  0
 26 81  1  0  0  0  0
 27 82  1  0  0  0  0
 28 30  2  0  0  0  0
 28 81  1  0  0  0  0
 29 83  1  0  0  0  0
 30 84  1  0  0  0  0
 31 85  1  0  0  0  0
 32 65  2  0  0  0  0
 33 66  1  0  0  0  0
 33 70  1  0  0  0  0
 34 71  1  0  0  0  0
 34 76  2  0  0  0  0
 35 52  1  0  0  0  0
 35 73  1  0  0  0  0
 35 77  2  0  0  0  0
 36 62  1  0  0  0  0
 36 68  1  0  0  0  0
 36 78  2  0  0  0  0
 37 63  1  0  0  0  0
 37 74  1  0  0  0  0
 37 79  2  0  0  0  0
 38 69  1  0  0  0  0
 38 72  1  0  0  0  0
 38 80  2  0  0  0  0
 39 43  1  0  0  0  0
 40 52  1  0  0  0  0
 41 44  1  0  0  0  0
 42 68  1  0  0  0  0
 43 46  1  0  0  0  0
 44 48  1  0  0  0  0
 45 47  1  0  0  0  0
 45 49  1  0  0  0  0
 46 51  1  0  0  0  0
 47 53  1  0  0  0  0
 48 67  1  0  0  0  0
 49 69  1  0  0  0  0
 50 53  1  0  0  0  0
 50 69  1  0  0  0  0
 51 73  1  0  0  0  0
 52 68  1  0  0  0  0
 53 66  1  0  0  0  0
 54 63  1  0  0  0  0
 55 64  1  0  0  0  0
 56 64  1  0  0  0  0
 57 64  1  0  0  0  0
 58 75  1  0  0  0  0
 59 60  1  0  0  0  0
 59 61  1  0  0  0  0
 60 67  1  0  0  0  0
 61 82  1  0  0  0  0
 62 64  1  0  0  0  0
 62 74  1  0  0  0  0
 63 75  1  0  0  0  0
 65 66  1  0  0  0  0
M  CHG  1  75   1
M  ISO  4  38 100  61 101  72 100  82 101
M  END
> <Batch ID>
0020

> <Smiles>
CNC(C)C(=O)NC(C(=O)N1Cc2cc([101O:1][101CH2:1]CCN3CCCc4c3ccc([100NH:0][100C:0](=O)N3CCCC(n5nc(-c6ccc(Oc7ccc(F)cc7F)cc6)c(C(N)=O)c5N)C3)c4F)ccc2CC1C(=O)NC1CCCc2ccccc21)C(C)(C)C

> <Shape>
0.284

> <Color>
0.211

> <Negative vol penalty>
0.000

$$$$

  -OEChem-04042321083D

 86 95  0     1  0  0  0  0  0999 V2000
  -16.6273  -28.8746   23.7039 C   0  0  0  0  0  0  0  0  0  0  0  0
  -17.5097  -28.0269   23.0419 C   0  0  0  0  0  0  0  0  0  0  0  0
  -28.2915  -14.1413   19.9737 C   0  0  0  0  0  0  0  0  0  0  0  0
  -27.5017  -14.5153   22.2262 C   0  0  0  0  0  0  0  0  0  0  0  0
  -16.8154  -30.2551   23.6495 C   0  0  0  0  0  0  0  0  0  0  0  0
  -18.5801  -28.5593   22.3241 C   0  0  0  0  0  0  0  0  0  0  0  0
  -25.3533  -27.1051   20.5005 C   0  0  0  0  0  0  0  0  0  0  0  0
  -29.4624  -24.5774   19.5195 C   0  0  0  0  0  0  0  0  0  0  0  0
  -29.3836  -24.1887   17.1362 C   0  0  0  0  0  0  0  0  0  0  0  0
  -29.8996  -25.8823   19.2923 C   0  0  0  0  0  0  0  0  0  0  0  0
  -29.8208  -25.4937   16.9090 C   0  0  0  0  0  0  0  0  0  0  0  0
  -27.5286  -12.9759   19.8997 C   0  0  0  0  0  0  0  0  0  0  0  0
  -26.7387  -13.3499   22.1521 C   0  0  0  0  0  0  0  0  0  0  0  0
  -26.1730  -27.0281   19.3754 C   0  0  0  0  0  0  0  0  0  0  0  0
  -23.7952  -12.3834   20.8024 C   0  0  0  0  0  0  0  0  0  0  0  0
  -22.4820  -12.4396   21.2693 C   0  0  0  0  0  0  0  0  0  0  0  0
  -26.4446  -29.4247   19.4168 C   0  0  0  0  0  0  0  0  0  0  0  0
  -22.9862  -10.7236   22.8936 C   0  0  0  0  0  0  0  0  0  0  0  0
  -28.2781  -14.9109   21.1370 C   0  0  0  0  0  0  0  0  0  0  0  0
  -30.4638  -16.2253   21.0847 C   0  0  0  0  0  0  0  0  0  0  0  0
  -17.8942  -30.8042   22.9386 C   0  0  0  0  0  0  0  0  0  0  0  0
  -25.0638  -28.3456   21.0867 C   0  0  0  0  0  0  0  0  0  0  0  0
  -18.7820  -29.9485   22.2590 C   0  0  0  0  0  0  0  0  0  0  0  0
  -25.6230  -29.5144   20.5509 C   0  0  0  0  0  0  0  0  0  0  0  0
  -29.2045  -23.7305   18.4415 C   0  0  0  0  0  0  0  0  0  0  0  0
  -30.0788  -26.3404   17.9870 C   0  0  0  0  0  0  0  0  0  0  0  0
  -26.7522  -12.5802   20.9888 C   0  0  0  0  0  0  0  0  0  0  0  0
  -26.7164  -28.1883   18.8316 C   0  0  0  0  0  0  0  0  0  0  0  0
  -24.7038  -11.4973   21.3810 C   0  0  0  0  0  0  0  0  0  0  0  0
  -22.0775  -11.6097   22.3149 C   0  0  0  0  0  0  0  0  0  0  0  0
  -24.2994  -10.6674   22.4266 C   0  0  0  0  0  0  0  0  0  0  0  0
  -29.0664  -16.1146   21.2143 C   0  0  0  0  0  0  0  0  0  0  0  0
  -30.7174  -17.5668   21.2352 C   0  0  0  0  0  0  0  0  0  0  0  0
  -31.4450  -15.2067   20.8493 C   0  0  0  0  0  0  0  0  0  0  0  0
  -22.4133  -30.0292   21.5808 C   0  0  0  0  0  0  0  0  0  0  0  0
  -24.4231  -31.9798   23.2174 C   0  0  0  0  0  0  0  0  0  0  0  0
  -27.7541  -33.2948   22.7789 C   0  0  0  0  0  0  0  0  0  0  0  0
  -26.8909  -22.2806   20.4126 C   0  0  0  0  0  0  0  0  0  0  0  0
  -18.0293  -32.3047   22.8692 C   0  0  0  0  0  0  0  0  0  0  0  0
  -24.1994  -28.4090   22.3161 C   0  0  0  0  0  0  0  0  0  0  0  0
  -25.3595  -30.8688   21.1548 C   0  0  0  0  0  0  0  0  0  0  0  0
  -19.4040  -32.7713   22.3975 C   0  0  0  0  0  0  0  0  0  0  0  0
  -31.4526  -30.3444   17.2681 C   0  0  0  0  0  0  0  0  0  0  0  0
  -32.2637  -29.3624   18.0992 C   0  0  0  0  0  0  0  0  0  0  0  0
  -29.0089  -21.4988   23.3460 C   0  0  0  0  0  0  0  0  0  0  0  0
  -19.8436  -31.9809   21.1691 C   0  0  0  0  0  0  0  0  0  0  0  0
  -29.3181  -20.0158   23.1479 C   0  0  0  0  0  0  0  0  0  0  0  0
  -30.6175  -29.5983   16.2355 C   0  0  0  0  0  0  0  0  0  0  0  0
  -31.3833  -28.2989   18.7499 C   0  0  0  0  0  0  0  0  0  0  0  0
  -27.6730  -21.8882   22.7205 C   0  0  0  0  0  0  0  0  0  0  0  0
  -27.8630  -20.0449   21.0833 C   0  0  0  0  0  0  0  0  0  0  0  0
  -19.9693  -30.4868   21.4904 C   0  0  1  0  0  0  0  0  0  0  0  0
  -23.5554  -29.7763   22.5238 C   0  0  1  0  0  0  0  0  0  0  0  0
  -29.2242  -19.6297   21.6615 C   0  0  2  0  0  0  0  0  0  0  0  0
  -29.7258  -28.5115   16.8544 C   0  0  2  0  0  0  0  0  0  0  0  0
  -29.4477  -34.0456   24.4716 C   0  0  0  0  0  0  0  0  0  0  0  0
  -23.2382  -34.7517   22.7453 C   0  0  0  0  0  0  0  0  0  0  0  0
  -25.5514  -35.6937   22.9190 C   0  0  0  0  0  0  0  0  0  0  0  0
  -24.5349  -34.5197   24.8712 C   0  0  0  0  0  0  0  0  0  0  0  0
  -26.3701  -22.5203   18.0146 C   0  0  0  0  0  0  0  0  0  0  0  0
  -29.8108  -31.4552   21.7086 C   0  0  0  0  0  0  0  0  0  0  0  0
  -28.7374  -22.3351   18.6834 C   0  0  0  0  0  0  0  0  0  0  0  0
  -28.5294  -29.1123   17.6007 C   0  0  0  0  0  0  0  0  0  1  0  0
  -25.2778  -33.1731   22.8645 C   0  0  1  0  0  0  0  0  0  0  0  0
  -28.9937  -32.9109   23.5667 C   0  0  2  0  0  0  0  0  0  0  0  0
  -24.6446  -34.5144   23.3309 C   0  0  0  0  0  0  0  0  0  0  0  0
  -28.4737  -17.2918   21.4307 N   0  0  0  0  0  0  0  0  0  0  0  0
  -29.5037  -18.1550   21.4383 N   0  0  0  0  0  0  0  0  0  0  0  0
  -30.5160  -27.6513   17.7584 N   0  0  2  0  0  0  0  0  0  0  0  0
  -24.5031  -30.8793   22.3523 N   0  0  0  0  0  0  0  0  0  0  0  0
  -27.5939  -21.4711   21.3201 N   0  0  0  0  0  0  0  0  0  0  0  0
  -31.8578  -18.2887   21.2125 N   0  0  0  0  0  0  0  0  0  0  0  0
  -32.0275  -14.5718   21.9547 N   0  0  0  0  0  0  0  0  0  0  0  0
  -21.1982  -30.2259   22.2088 N   0  0  0  0  0  0  0  0  0  0  0  0
  -26.5986  -32.9091   23.4249 N   0  0  0  0  0  0  0  0  0  0  0  0
  -27.3322  -22.2804   19.0807 N   0  0  0  0  0  0  0  0  0  0  0  0
  -30.1114  -32.5720   22.6410 N   0  3  0  0  0  0  0  0  0  0  0  0
  -31.8066  -14.8809   19.6932 O   0  0  0  0  0  0  0  0  0  0  0  0
  -22.6195  -30.0462   20.3730 O   0  0  0  0  0  0  0  0  0  0  0  0
  -23.7161  -32.0199   24.2274 O   0  0  0  0  0  0  0  0  0  0  0  0
  -27.8057  -33.8815   21.7002 O   0  0  0  0  0  0  0  0  0  0  0  0
  -25.9300  -22.9717   20.7744 O   0  0  0  0  0  0  0  0  0  0  0  0
  -26.0074  -11.4433   20.9168 O   0  0  0  0  0  0  0  0  0  0  0  0
  -27.5163  -28.1161   17.7330 O   0  0  0  0  0  0  0  0  0  1  0  0
  -20.8168  -11.6649   22.7642 F   0  0  0  0  0  0  0  0  0  0  0  0
  -25.1681   -9.8150   22.9873 F   0  0  0  0  0  0  0  0  0  0  0  0
  1  2  1  0  0  0  0
  1  5  2  0  0  0  0
  2  6  2  0  0  0  0
  3 12  2  0  0  0  0
  3 19  1  0  0  0  0
  4 13  1  0  0  0  0
  4 19  2  0  0  0  0
  5 21  1  0  0  0  0
  6 23  1  0  0  0  0
  7 14  2  0  0  0  0
  7 22  1  0  0  0  0
  8 10  2  0  0  0  0
  8 25  1  0  0  0  0
  9 11  1  0  0  0  0
  9 25  2  0  0  0  0
 10 26  1  0  0  0  0
 11 26  2  0  0  0  0
 12 27  1  0  0  0  0
 13 27  2  0  0  0  0
 14 28  1  0  0  0  0
 15 16  2  0  0  0  0
 15 29  1  0  0  0  0
 16 30  1  0  0  0  0
 17 24  1  0  0  0  0
 17 28  2  0  0  0  0
 18 30  2  0  0  0  0
 18 31  1  0  0  0  0
 19 32  1  0  0  0  0
 20 32  1  0  0  0  0
 20 33  2  0  0  0  0
 20 34  1  0  0  0  0
 21 23  2  0  0  0  0
 21 39  1  0  0  0  0
 22 24  2  0  0  0  0
 22 40  1  0  0  0  0
 23 52  1  0  0  0  0
 24 41  1  0  0  0  0
 25 62  1  0  0  0  0
 26 69  1  0  0  0  0
 27 83  1  0  0  0  0
 28 84  1  0  0  0  0
 29 31  2  0  0  0  0
 29 83  1  0  0  0  0
 30 85  1  0  0  0  0
 31 86  1  0  0  0  0
 32 67  2  0  0  0  0
 33 68  1  0  0  0  0
 33 72  1  0  0  0  0
 34 73  1  0  0  0  0
 34 78  2  0  0  0  0
 35 53  1  0  0  0  0
 35 74  1  0  0  0  0
 35 79  2  0  0  0  0
 36 64  1  0  0  0  0
 36 70  1  0  0  0  0
 36 80  2  0  0  0  0
 37 65  1  0  0  0  0
 37 75  1  0  0  0  0
 37 81  2  0  0  0  0
 38 71  1  0  0  0  0
 38 76  1  0  0  0  0
 38 82  2  0  0  0  0
 39 42  1  0  0  0  0
 40 53  1  0  0  0  0
 41 70  1  0  0  0  0
 42 46  1  0  0  0  0
 43 44  1  0  0  0  0
 43 48  1  0  0  0  0
 44 49  1  0  0  0  0
 45 47  1  0  0  0  0
 45 50  1  0  0  0  0
 46 52  1  0  0  0  0
 47 54  1  0  0  0  0
 48 55  1  0  0  0  0
 49 69  1  0  0  0  0
 50 71  1  0  0  0  0
 51 54  1  0  0  0  0
 51 71  1  0  0  0  0
 52 74  1  0  0  0  0
 53 70  1  0  0  0  0
 54 68  1  0  0  0  0
 55 63  1  0  0  0  0
 55 69  1  0  0  0  0
 56 65  1  0  0  0  0
 57 66  1  0  0  0  0
 58 66  1  0  0  0  0
 59 66  1  0  0  0  0
 60 76  1  0  0  0  0
 61 77  1  0  0  0  0
 62 76  1  0  0  0  0
 63 84  1  0  0  0  0
 64 66  1  0  0  0  0
 64 75  1  0  0  0  0
 65 77  1  0  0  0  0
 67 68  1  0  0  0  0
M  CHG  1  77   1
M  ISO  4  38 100  63 101  76 100  84 101
M  END
> <Batch ID>
0020

> <Smiles>
CNC(C)C(=O)NC(C(=O)N1Cc2cc([101O:1][101CH2:1]C3CCCCN3c3ccc(C[100N:0](C)[100C:0](=O)N4CCCC(n5nc(-c6ccc(Oc7ccc(F)cc7F)cc6)c(C(N)=O)c5N)C4)cc3)ccc2CC1C(=O)NC1CCCc2ccccc21)C(C)(C)C

> <Shape>
0.307

> <Color>
0.109

> <Negative vol penalty>
0.000

$$$$

  -OEChem-04042321083D

 84 92  0     1  0  0  0  0  0999 V2000
  -19.1797  -27.8220   18.1833 C   0  0  0  0  0  0  0  0  0  0  0  0
  -20.4165  -27.3475   18.6082 C   0  0  0  0  0  0  0  0  0  0  0  0
  -23.0732   -9.8520   19.8984 C   0  0  0  0  0  0  0  0  0  0  0  0
  -23.8930   -9.7572   22.1691 C   0  0  0  0  0  0  0  0  0  0  0  0
  -18.6912  -29.0311   18.6768 C   0  0  0  0  0  0  0  0  0  0  0  0
  -21.1661  -28.0823   19.5261 C   0  0  0  0  0  0  0  0  0  0  0  0
  -23.1273  -25.1898   23.1912 C   0  0  0  0  0  0  0  0  0  0  0  0
  -31.1130  -17.6759   20.6995 C   0  0  0  0  0  0  0  0  0  0  0  0
  -22.3447   -8.6819   20.1126 C   0  0  0  0  0  0  0  0  0  0  0  0
  -23.1646   -8.5871   22.3833 C   0  0  0  0  0  0  0  0  0  0  0  0
  -24.2609  -24.4425   22.8746 C   0  0  0  0  0  0  0  0  0  0  0  0
  -19.9594   -7.7337   23.0308 C   0  0  0  0  0  0  0  0  0  0  0  0
  -19.2338   -7.6320   24.2177 C   0  0  0  0  0  0  0  0  0  0  0  0
  -31.2967  -19.0581   20.7365 C   0  0  0  0  0  0  0  0  0  0  0  0
  -25.6459  -26.0992   23.9500 C   0  0  0  0  0  0  0  0  0  0  0  0
  -20.5086   -5.6728   24.8289 C   0  0  0  0  0  0  0  0  0  0  0  0
  -23.8474  -10.3896   20.9266 C   0  0  0  0  0  0  0  0  0  0  0  0
  -24.1671  -12.9205   20.9177 C   0  0  0  0  0  0  0  0  0  0  0  0
  -19.4309  -29.7763   19.6086 C   0  0  0  0  0  0  0  0  0  0  0  0
  -23.2455  -26.4049   23.8812 C   0  0  0  0  0  0  0  0  0  0  0  0
  -20.6876  -29.3031   20.0316 C   0  0  0  0  0  0  0  0  0  0  0  0
  -24.5120  -26.8587   24.2764 C   0  0  0  0  0  0  0  0  0  0  0  0
  -30.2325  -17.0651   21.5924 C   0  0  0  0  0  0  0  0  0  0  0  0
  -29.7193  -19.2188   22.5594 C   0  0  0  0  0  0  0  0  0  0  0  0
  -22.3904   -8.0495   21.3550 C   0  0  0  0  0  0  0  0  0  0  0  0
  -25.5207  -24.8986   23.2514 C   0  0  0  0  0  0  0  0  0  0  0  0
  -20.9595   -6.8050   22.7429 C   0  0  0  0  0  0  0  0  0  0  0  0
  -19.5084   -6.6015   25.1168 C   0  0  0  0  0  0  0  0  0  0  0  0
  -21.2341   -5.7745   23.6420 C   0  0  0  0  0  0  0  0  0  0  0  0
  -30.5999  -19.8296   21.6665 C   0  0  0  0  0  0  0  0  0  0  0  0
  -29.5356  -17.8366   22.5224 C   0  0  0  0  0  0  0  0  0  0  0  0
  -24.6005  -11.5980   20.7058 C   0  0  0  0  0  0  0  0  0  0  0  0
  -25.2437  -13.6957   20.5622 C   0  0  0  0  0  0  0  0  0  0  0  0
  -22.9043  -13.4049   21.3935 C   0  0  0  0  0  0  0  0  0  0  0  0
  -22.5385  -29.4340   23.2269 C   0  0  0  0  0  0  0  0  0  0  0  0
  -23.4032  -29.8962   26.3190 C   0  0  0  0  0  0  0  0  0  0  0  0
  -25.1797  -28.8120   29.0237 C   0  0  0  0  0  0  0  0  0  0  0  0
  -30.7047  -14.7793   20.6446 C   0  0  0  0  0  0  0  0  0  0  0  0
  -18.8829  -31.1008   20.0779 C   0  0  0  0  0  0  0  0  0  0  0  0
  -22.0108  -27.1859   24.2386 C   0  0  0  0  0  0  0  0  0  0  0  0
  -24.6913  -28.1466   25.0364 C   0  0  0  0  0  0  0  0  0  0  0  0
  -19.5702  -31.6343   21.3322 C   0  0  0  0  0  0  0  0  0  0  0  0
  -29.5464  -12.4705   18.1941 C   0  0  0  0  0  0  0  0  0  0  0  0
  -21.0857  -31.5220   21.1992 C   0  0  0  0  0  0  0  0  0  0  0  0
  -28.1207  -12.1464   18.6466 C   0  0  0  0  0  0  0  0  0  0  0  0
  -30.4910  -12.6502   19.3811 C   0  0  0  0  0  0  0  0  0  0  0  0
  -28.6158  -13.2920   20.8442 C   0  0  0  0  0  0  0  0  0  0  0  0
  -21.5191  -30.0592   21.0450 C   0  0  1  0  0  0  0  0  0  0  0  0
  -22.2913  -28.6637   24.4931 C   0  0  1  0  0  0  0  0  0  0  0  0
  -27.6136  -13.1662   19.6851 C   0  0  2  0  0  0  0  0  0  0  0  0
  -25.7204  -29.4195   31.3977 C   0  0  0  0  0  0  0  0  0  0  0  0
  -25.3328  -32.0420   25.3278 C   0  0  0  0  0  0  0  0  0  0  0  0
  -26.4874  -31.9299   27.5465 C   0  0  0  0  0  0  0  0  0  0  0  0
  -24.0980  -32.6354   27.4200 C   0  0  0  0  0  0  0  0  0  0  0  0
  -29.6034  -20.2571   24.8108 C   0  0  0  0  0  0  0  0  0  0  0  0
  -23.9651  -26.3201   30.0602 C   0  0  0  0  0  0  0  0  0  0  0  0
  -27.7975  -22.0943   23.2239 C   0  0  0  0  0  0  0  0  0  0  0  0
  -27.7340  -20.5723   23.1815 C   0  0  0  0  0  0  0  0  0  0  0  0
  -26.4737  -22.7554   22.8583 C   0  0  0  0  0  0  0  0  0  1  0  0
  -24.6964  -30.2099   27.0320 C   0  0  1  0  0  0  0  0  0  0  0  0
  -24.7909  -28.6396   30.4809 C   0  0  2  0  0  0  0  0  0  0  0  0
  -25.1508  -31.6810   26.8156 C   0  0  0  0  0  0  0  0  0  0  0  0
  -25.8546  -11.5330   20.2508 N   0  0  0  0  0  0  0  0  0  0  0  0
  -26.2185  -12.8244   20.1738 N   0  0  0  0  0  0  0  0  0  0  0  0
  -23.4542  -28.8776   25.3569 N   0  0  0  0  0  0  0  0  0  0  0  0
  -29.9477  -13.6335   20.3206 N   0  0  0  0  0  0  0  0  0  0  0  0
  -25.4422  -15.0309   20.5470 N   0  0  0  0  0  0  0  0  0  0  0  0
  -21.9084  -12.4720   21.7133 N   0  0  0  0  0  0  0  0  0  0  0  0
  -30.0722  -15.6590   21.5225 N   0  0  0  0  0  0  0  0  0  0  0  0
  -21.4918  -29.3863   22.3260 N   0  0  0  0  0  0  0  0  0  0  0  0
  -24.4898  -29.8478   28.4301 N   0  0  0  0  0  0  0  0  0  0  0  0
  -29.0211  -19.9987   23.4925 N   0  0  3  0  0  0  0  0  0  0  0  0
  -24.8493  -27.2010   30.8659 N   0  3  0  0  0  0  0  0  0  0  0  0
  -22.6605  -14.6293   21.5152 O   0  0  0  0  0  0  0  0  0  0  0  0
  -23.5995  -30.0289   23.0790 O   0  0  0  0  0  0  0  0  0  0  0  0
  -22.3838  -30.5268   26.6101 O   0  0  0  0  0  0  0  0  0  0  0  0
  -26.0148  -28.1014   28.4685 O   0  0  0  0  0  0  0  0  0  0  0  0
  -31.8198  -14.9797   20.1564 O   0  0  0  0  0  0  0  0  0  0  0  0
  -21.6795   -6.9078   21.5644 O   0  0  0  0  0  0  0  0  0  0  0  0
  -26.6289  -24.1715   22.9431 O   0  0  0  0  0  0  0  0  0  1  0  0
  -18.8127   -6.5048   26.2572 F   0  0  0  0  0  0  0  0  0  0  0  0
  -22.1946   -4.8800   23.3714 F   0  0  0  0  0  0  0  0  0  0  0  0
  -30.8608  -21.5379   21.6722 Cl  0  0  0  0  0  0  0  0  0  0  0  0
  -28.4402  -17.0718   23.6311 Cl  0  0  0  0  0  0  0  0  0  0  0  0
  1  2  1  0  0  0  0
  1  5  2  0  0  0  0
  2  6  2  0  0  0  0
  3  9  2  0  0  0  0
  3 17  1  0  0  0  0
  4 10  1  0  0  0  0
  4 17  2  0  0  0  0
  5 19  1  0  0  0  0
  6 21  1  0  0  0  0
  7 11  2  0  0  0  0
  7 20  1  0  0  0  0
  8 14  1  0  0  0  0
  8 23  2  0  0  0  0
  9 25  1  0  0  0  0
 10 25  2  0  0  0  0
 11 26  1  0  0  0  0
 12 13  2  0  0  0  0
 12 27  1  0  0  0  0
 13 28  1  0  0  0  0
 14 30  2  0  0  0  0
 15 22  1  0  0  0  0
 15 26  2  0  0  0  0
 16 28  2  0  0  0  0
 16 29  1  0  0  0  0
 17 32  1  0  0  0  0
 18 32  1  0  0  0  0
 18 33  2  0  0  0  0
 18 34  1  0  0  0  0
 19 21  2  0  0  0  0
 19 39  1  0  0  0  0
 20 22  2  0  0  0  0
 20 40  1  0  0  0  0
 21 48  1  0  0  0  0
 22 41  1  0  0  0  0
 23 31  1  0  0  0  0
 23 69  1  0  0  0  0
 24 30  1  0  0  0  0
 24 31  2  0  0  0  0
 24 72  1  0  0  0  0
 25 79  1  0  0  0  0
 26 80  1  0  0  0  0
 27 29  2  0  0  0  0
 27 79  1  0  0  0  0
 28 81  1  0  0  0  0
 29 82  1  0  0  0  0
 30 83  1  0  0  0  0
 31 84  1  0  0  0  0
 32 63  2  0  0  0  0
 33 64  1  0  0  0  0
 33 67  1  0  0  0  0
 34 68  1  0  0  0  0
 34 74  2  0  0  0  0
 35 49  1  0  0  0  0
 35 70  1  0  0  0  0
 35 75  2  0  0  0  0
 36 60  1  0  0  0  0
 36 65  1  0  0  0  0
 36 76  2  0  0  0  0
 37 61  1  0  0  0  0
 37 71  1  0  0  0  0
 37 77  2  0  0  0  0
 38 66  1  0  0  0  0
 38 69  1  0  0  0  0
 38 78  2  0  0  0  0
 39 42  1  0  0  0  0
 40 49  1  0  0  0  0
 41 65  1  0  0  0  0
 42 44  1  0  0  0  0
 43 45  1  0  0  0  0
 43 46  1  0  0  0  0
 44 48  1  0  0  0  0
 45 50  1  0  0  0  0
 46 66  1  0  0  0  0
 47 50  1  0  0  0  0
 47 66  1  0  0  0  0
 48 70  1  0  0  0  0
 49 65  1  0  0  0  0
 50 64  1  0  0  0  0
 51 61  1  0  0  0  0
 52 62  1  0  0  0  0
 53 62  1  0  0  0  0
 54 62  1  0  0  0  0
 55 72  1  0  0  0  0
 56 73  1  0  0  0  0
 57 58  1  0  0  0  0
 57 59  1  0  0  0  0
 58 72  1  0  0  0  0
 59 80  1  0  0  0  0
 60 62  1  0  0  0  0
 60 71  1  0  0  0  0
 61 73  1  0  0  0  0
 63 64  1  0  0  0  0
M  CHG  1  73   1
M  ISO  4  38 100  59 101  69 100  80 101
M  END
> <Batch ID>
0020

> <Smiles>
CNC(C)C(=O)NC(C(=O)N1Cc2cc([101O:1][101CH2:1]CCN(C)c3c(Cl)ccc([100NH:0][100C:0](=O)N4CCCC(n5nc(-c6ccc(Oc7ccc(F)cc7F)cc6)c(C(N)=O)c5N)C4)c3Cl)ccc2CC1C(=O)NC1CCCc2ccccc21)C(C)(C)C

> <Shape>
0.246

> <Color>
0.230

> <Negative vol penalty>
0.000

$$$$

  -OEChem-04042321083D

 84 93  0     1  0  0  0  0  0999 V2000
  -17.2056  -30.8773   24.3281 C   0  0  0  0  0  0  0  0  0  0  0  0
  -18.5084  -31.2411   24.6534 C   0  0  0  0  0  0  0  0  0  0  0  0
  -24.6459  -14.1347   19.9150 C   0  0  0  0  0  0  0  0  0  0  0  0
  -26.2514  -14.3130   21.7116 C   0  0  0  0  0  0  0  0  0  0  0  0
  -16.9664  -29.6899   23.6376 C   0  0  0  0  0  0  0  0  0  0  0  0
  -19.5727  -30.4170   24.2895 C   0  0  0  0  0  0  0  0  0  0  0  0
  -26.4451  -30.7284   22.2920 C   0  0  0  0  0  0  0  0  0  0  0  0
  -30.0735  -25.3576   22.5126 C   0  0  0  0  0  0  0  0  0  0  0  0
  -29.6215  -24.3999   21.6049 C   0  0  0  0  0  0  0  0  0  0  0  0
  -24.7154  -12.7437   19.9909 C   0  0  0  0  0  0  0  0  0  0  0  0
  -26.3208  -12.9219   21.7876 C   0  0  0  0  0  0  0  0  0  0  0  0
  -27.6886  -30.1927   22.6242 C   0  0  0  0  0  0  0  0  0  0  0  0
  -23.4653  -10.2907   21.9539 C   0  0  0  0  0  0  0  0  0  0  0  0
  -22.2660   -9.5792   21.9238 C   0  0  0  0  0  0  0  0  0  0  0  0
  -27.1620  -28.2043   21.3641 C   0  0  0  0  0  0  0  0  0  0  0  0
  -28.2718  -24.7829   24.0162 C   0  0  0  0  0  0  0  0  0  0  0  0
  -22.9962   -8.4327   19.9264 C   0  0  0  0  0  0  0  0  0  0  0  0
  -25.4140  -14.9194   20.7753 C   0  0  0  0  0  0  0  0  0  0  0  0
  -24.4645  -17.2037   21.3982 C   0  0  0  0  0  0  0  0  0  0  0  0
  -18.0291  -28.8556   23.2565 C   0  0  0  0  0  0  0  0  0  0  0  0
  -25.5448  -30.0002   21.5010 C   0  0  0  0  0  0  0  0  0  0  0  0
  -19.3474  -29.2166   23.5945 C   0  0  0  0  0  0  0  0  0  0  0  0
  -25.9087  -28.7340   21.0211 C   0  0  0  0  0  0  0  0  0  0  0  0
  -29.3987  -25.5491   23.7183 C   0  0  0  0  0  0  0  0  0  0  0  0
  -28.4946  -23.6337   21.9028 C   0  0  0  0  0  0  0  0  0  0  0  0
  -25.5528  -12.1373   20.9272 C   0  0  0  0  0  0  0  0  0  0  0  0
  -28.0461  -28.9293   22.1627 C   0  0  0  0  0  0  0  0  0  0  0  0
  -24.4301  -10.0733   20.9701 C   0  0  0  0  0  0  0  0  0  0  0  0
  -22.0314   -8.6502   20.9101 C   0  0  0  0  0  0  0  0  0  0  0  0
  -27.8197  -23.8252   23.1084 C   0  0  0  0  0  0  0  0  0  0  0  0
  -24.1955   -9.1443   19.9565 C   0  0  0  0  0  0  0  0  0  0  0  0
  -25.3431  -16.3564   20.6969 C   0  0  0  0  0  0  0  0  0  0  0  0
  -24.7970  -18.4679   20.9768 C   0  0  0  0  0  0  0  0  0  0  0  0
  -23.4394  -16.8772   22.3460 C   0  0  0  0  0  0  0  0  0  0  0  0
  -22.6240  -28.8228   21.9326 C   0  0  0  0  0  0  0  0  0  0  0  0
  -22.8749  -28.0934   18.7818 C   0  0  0  0  0  0  0  0  0  0  0  0
  -24.8972  -27.4558   16.1077 C   0  0  0  0  0  0  0  0  0  0  0  0
  -28.5933  -22.3483   19.7384 C   0  0  0  0  0  0  0  0  0  0  0  0
  -17.7174  -27.5585   22.5529 C   0  0  0  0  0  0  0  0  0  0  0  0
  -24.2179  -30.6033   21.1292 C   0  0  0  0  0  0  0  0  0  0  0  0
  -24.9864  -27.9201   20.1520 C   0  0  0  0  0  0  0  0  0  0  0  0
  -18.9304  -26.9265   21.8750 C   0  0  0  0  0  0  0  0  0  0  0  0
  -27.7863  -19.9974   17.1891 C   0  0  0  0  0  0  0  0  0  0  0  0
  -30.2829  -27.6359   26.6476 C   0  0  0  0  0  0  0  0  0  0  0  0
  -20.1304  -26.9301   22.8168 C   0  0  0  0  0  0  0  0  0  0  0  0
  -27.0064  -18.9103   17.9321 C   0  0  0  0  0  0  0  0  0  0  0  0
  -31.3304  -28.0281   25.6177 C   0  0  0  0  0  0  0  0  0  0  0  0
  -29.6681  -26.3671   26.0654 C   0  0  0  0  0  0  0  0  0  0  0  0
  -28.9212  -20.5637   18.0406 C   0  0  0  0  0  0  0  0  0  0  0  0
  -27.7417  -19.9507   20.1148 C   0  0  0  0  0  0  0  0  0  0  0  0
  -20.5303  -28.3613   23.1953 C   0  0  1  0  0  0  0  0  0  0  0  0
  -23.1741  -29.5595   20.7441 C   0  0  1  0  0  0  0  0  0  0  0  0
  -26.5477  -19.3955   19.3212 C   0  0  2  0  0  0  0  0  0  0  0  0
  -30.6824  -27.6558   24.2767 C   0  0  2  0  0  0  0  0  0  0  0  0
  -24.8123  -26.8546   13.6728 C   0  0  0  0  0  0  0  0  0  0  0  0
  -22.1621  -25.2196   19.5187 C   0  0  0  0  0  0  0  0  0  0  0  0
  -23.0101  -24.5072   17.2733 C   0  0  0  0  0  0  0  0  0  0  0  0
  -21.0679  -26.0642   17.4345 C   0  0  0  0  0  0  0  0  0  0  0  0
  -26.3026  -29.9403   15.3262 C   0  0  0  0  0  0  0  0  0  0  0  0
  -29.8264  -28.7995   23.7343 C   0  0  0  0  0  0  0  0  0  1  0  0
  -23.3837  -26.9092   17.9958 C   0  0  1  0  0  0  0  0  0  0  0  0
  -24.8841  -27.9868   14.6857 C   0  0  2  0  0  0  0  0  0  0  0  0
  -22.4228  -25.6893   18.0736 C   0  0  0  0  0  0  0  0  0  0  0  0
  -26.1715  -17.0259   19.8909 N   0  0  0  0  0  0  0  0  0  0  0  0
  -25.8148  -18.3072   20.0831 N   0  0  0  0  0  0  0  0  0  0  0  0
  -29.8471  -26.4978   24.6180 N   0  0  3  0  0  0  0  0  0  0  0  0
  -23.6976  -28.5504   19.8212 N   0  0  0  0  0  0  0  0  0  0  0  0
  -28.4112  -21.0071   19.3398 N   0  0  0  0  0  0  0  0  0  0  0  0
  -24.3152  -19.6902   21.2870 N   0  0  0  0  0  0  0  0  0  0  0  0
  -23.2301  -15.5288   22.6659 N   0  0  0  0  0  0  0  0  0  0  0  0
  -28.0376  -22.6619   20.9783 N   0  0  0  0  0  0  0  0  0  0  0  0
  -21.2636  -28.9839   22.1140 N   0  0  0  0  0  0  0  0  0  0  0  0
  -23.6272  -27.3926   16.6411 N   0  0  0  0  0  0  0  0  0  0  0  0
  -26.1170  -28.7798   14.4175 N   0  3  0  0  0  0  0  0  0  0  0  0
  -22.7190  -17.7540   22.8807 O   0  0  0  0  0  0  0  0  0  0  0  0
  -23.3776  -28.1564   22.6322 O   0  0  0  0  0  0  0  0  0  0  0  0
  -21.7910  -28.5990   18.4800 O   0  0  0  0  0  0  0  0  0  0  0  0
  -25.9303  -27.1262   16.6862 O   0  0  0  0  0  0  0  0  0  0  0  0
  -29.1740  -23.1657   19.0197 O   0  0  0  0  0  0  0  0  0  0  0  0
  -25.6206  -10.7799   21.0018 O   0  0  0  0  0  0  0  0  0  0  0  0
  -29.2590  -28.4038   22.4861 O   0  0  0  0  0  0  0  0  0  1  0  0
  -20.8803   -7.9659   20.8823 F   0  0  0  0  0  0  0  0  0  0  0  0
  -26.7353  -23.0947   23.4048 F   0  0  0  0  0  0  0  0  0  0  0  0
  -25.1191   -8.9303   19.0094 F   0  0  0  0  0  0  0  0  0  0  0  0
  1  2  1  0  0  0  0
  1  5  2  0  0  0  0
  2  6  2  0  0  0  0
  3 10  2  0  0  0  0
  3 18  1  0  0  0  0
  4 11  1  0  0  0  0
  4 18  2  0  0  0  0
  5 20  1  0  0  0  0
  6 22  1  0  0  0  0
  7 12  2  0  0  0  0
  7 21  1  0  0  0  0
  8  9  2  0  0  0  0
  8 24  1  0  0  0  0
  9 25  1  0  0  0  0
 10 26  1  0  0  0  0
 11 26  2  0  0  0  0
 12 27  1  0  0  0  0
 13 14  2  0  0  0  0
 13 28  1  0  0  0  0
 14 29  1  0  0  0  0
 15 23  1  0  0  0  0
 15 27  2  0  0  0  0
 16 24  2  0  0  0  0
 16 30  1  0  0  0  0
 17 29  2  0  0  0  0
 17 31  1  0  0  0  0
 18 32  1  0  0  0  0
 19 32  1  0  0  0  0
 19 33  2  0  0  0  0
 19 34  1  0  0  0  0
 20 22  2  0  0  0  0
 20 39  1  0  0  0  0
 21 23  2  0  0  0  0
 21 40  1  0  0  0  0
 22 51  1  0  0  0  0
 23 41  1  0  0  0  0
 24 66  1  0  0  0  0
 25 30  2  0  0  0  0
 25 71  1  0  0  0  0
 26 80  1  0  0  0  0
 27 81  1  0  0  0  0
 28 31  2  0  0  0  0
 28 80  1  0  0  0  0
 29 82  1  0  0  0  0
 30 83  1  0  0  0  0
 31 84  1  0  0  0  0
 32 64  2  0  0  0  0
 33 65  1  0  0  0  0
 33 69  1  0  0  0  0
 34 70  1  0  0  0  0
 34 75  2  0  0  0  0
 35 52  1  0  0  0  0
 35 72  1  0  0  0  0
 35 76  2  0  0  0  0
 36 61  1  0  0  0  0
 36 67  1  0  0  0  0
 36 77  2  0  0  0  0
 37 62  1  0  0  0  0
 37 73  1  0  0  0  0
 37 78  2  0  0  0  0
 38 68  1  0  0  0  0
 38 71  1  0  0  0  0
 38 79  2  0  0  0  0
 39 42  1  0  0  0  0
 40 52  1  0  0  0  0
 41 67  1  0  0  0  0
 42 45  1  0  0  0  0
 43 46  1  0  0  0  0
 43 49  1  0  0  0  0
 44 47  1  0  0  0  0
 44 48  1  0  0  0  0
 45 51  1  0  0  0  0
 46 53  1  0  0  0  0
 47 54  1  0  0  0  0
 48 66  1  0  0  0  0
 49 68  1  0  0  0  0
 50 53  1  0  0  0  0
 50 68  1  0  0  0  0
 51 72  1  0  0  0  0
 52 67  1  0  0  0  0
 53 65  1  0  0  0  0
 54 60  1  0  0  0  0
 54 66  1  0  0  0  0
 55 62  1  0  0  0  0
 56 63  1  0  0  0  0
 57 63  1  0  0  0  0
 58 63  1  0  0  0  0
 59 74  1  0  0  0  0
 60 81  1  0  0  0  0
 61 63  1  0  0  0  0
 61 73  1  0  0  0  0
 62 74  1  0  0  0  0
 64 65  1  0  0  0  0
M  CHG  1  74   1
M  ISO  4  38 100  60 101  71 100  81 101
M  END
> <Batch ID>
0020

> <Smiles>
CNC(C)C(=O)NC(C(=O)N1Cc2cc([101O:1][101CH2:1]C3CCCN3c3ccc([100NH:0][100C:0](=O)N4CCCC(n5nc(-c6ccc(Oc7ccc(F)cc7F)cc6)c(C(N)=O)c5N)C4)c(F)c3)ccc2CC1C(=O)NC1CCCc2ccccc21)C(C)(C)C

> <Shape>
0.238

> <Color>
0.111

> <Negative vol penalty>
0.000

$$$$

  -OEChem-04042321083D

 86 95  0     1  0  0  0  0  0999 V2000
  -35.7206  -13.5632   20.9017 C   0  0  0  0  0  0  0  0  0  0  0  0
  -34.9814  -14.7201   20.6768 C   0  0  0  0  0  0  0  0  0  0  0  0
  -23.3705  -10.2139   22.2059 C   0  0  0  0  0  0  0  0  0  0  0  0
  -23.6233   -9.6056   19.8814 C   0  0  0  0  0  0  0  0  0  0  0  0
  -36.2862  -13.3312   22.1547 C   0  0  0  0  0  0  0  0  0  0  0  0
  -34.8065  -15.6453   21.7054 C   0  0  0  0  0  0  0  0  0  0  0  0
  -35.5013  -20.4187   20.1636 C   0  0  0  0  0  0  0  0  0  0  0  0
  -29.0678  -18.8965   20.9727 C   0  0  0  0  0  0  0  0  0  0  0  0
  -29.2923  -20.1358   20.3733 C   0  0  0  0  0  0  0  0  0  0  0  0
  -22.6389   -9.0480   22.4315 C   0  0  0  0  0  0  0  0  0  0  0  0
  -22.8917   -8.4396   20.1070 C   0  0  0  0  0  0  0  0  0  0  0  0
  -34.4591  -21.0177   19.4573 C   0  0  0  0  0  0  0  0  0  0  0  0
  -23.4338   -5.3778   21.4305 C   0  0  0  0  0  0  0  0  0  0  0  0
  -23.9251   -4.1909   20.8869 C   0  0  0  0  0  0  0  0  0  0  0  0
  -33.7622  -22.1586   21.4653 C   0  0  0  0  0  0  0  0  0  0  0  0
  -29.9836  -17.7909   19.0294 C   0  0  0  0  0  0  0  0  0  0  0  0
  -21.8926   -3.9364   19.6058 C   0  0  0  0  0  0  0  0  0  0  0  0
  -23.8627  -10.4928   20.9309 C   0  0  0  0  0  0  0  0  0  0  0  0
  -24.1837  -13.0231   20.8854 C   0  0  0  0  0  0  0  0  0  0  0  0
  -36.1263  -14.2586   23.1963 C   0  0  0  0  0  0  0  0  0  0  0  0
  -35.6754  -20.6770   21.5308 C   0  0  0  0  0  0  0  0  0  0  0  0
  -35.3695  -15.4249   22.9739 C   0  0  0  0  0  0  0  0  0  0  0  0
  -34.8089  -21.5635   22.1860 C   0  0  0  0  0  0  0  0  0  0  0  0
  -29.4135  -17.7240   20.3007 C   0  0  0  0  0  0  0  0  0  0  0  0
  -29.8624  -20.2028   19.1021 C   0  0  0  0  0  0  0  0  0  0  0  0
  -22.3995   -8.1608   21.3820 C   0  0  0  0  0  0  0  0  0  0  0  0
  -33.5877  -21.8856   20.1088 C   0  0  0  0  0  0  0  0  0  0  0  0
  -22.1719   -5.8439   21.0618 C   0  0  0  0  0  0  0  0  0  0  0  0
  -23.1545   -3.4702   19.9745 C   0  0  0  0  0  0  0  0  0  0  0  0
  -30.2080  -19.0303   18.4301 C   0  0  0  0  0  0  0  0  0  0  0  0
  -21.4013   -5.1233   20.1494 C   0  0  0  0  0  0  0  0  0  0  0  0
  -24.6180  -11.6973   20.6971 C   0  0  0  0  0  0  0  0  0  0  0  0
  -25.2633  -13.7924   20.5260 C   0  0  0  0  0  0  0  0  0  0  0  0
  -22.9176  -13.5152   21.3443 C   0  0  0  0  0  0  0  0  0  0  0  0
  -35.6122  -18.9114   24.1732 C   0  0  0  0  0  0  0  0  0  0  0  0
  -36.5799  -21.6723   25.5742 C   0  0  0  0  0  0  0  0  0  0  0  0
  -36.5135  -25.2534   26.0085 C   0  0  0  0  0  0  0  0  0  0  0  0
  -30.8746  -14.5295   21.0618 C   0  0  0  0  0  0  0  0  0  0  0  0
  -36.7168  -13.9417   24.5475 C   0  0  0  0  0  0  0  0  0  0  0  0
  -36.8207  -20.0437   22.2723 C   0  0  0  0  0  0  0  0  0  0  0  0
  -34.9650  -21.8899   23.6481 C   0  0  0  0  0  0  0  0  0  0  0  0
  -36.7996  -15.1514   25.4749 C   0  0  0  0  0  0  0  0  0  0  0  0
  -29.5765  -12.5652   18.2055 C   0  0  0  0  0  0  0  0  0  0  0  0
  -29.6921  -23.0795   16.8848 C   0  0  0  0  0  0  0  0  0  0  0  0
  -35.4858  -15.9264   25.4600 C   0  0  0  0  0  0  0  0  0  0  0  0
  -28.1587  -12.2183   18.6567 C   0  0  0  0  0  0  0  0  0  0  0  0
  -30.3581  -23.7420   18.0777 C   0  0  0  0  0  0  0  0  0  0  0  0
  -30.0498  -21.6087   17.0600 C   0  0  0  0  0  0  0  0  0  0  0  0
  -30.5200  -12.7484   19.3904 C   0  0  0  0  0  0  0  0  0  0  0  0
  -28.6260  -13.3941   20.8430 C   0  0  0  0  0  0  0  0  0  0  0  0
  -35.1783  -16.4641   24.0573 C   0  0  1  0  0  0  0  0  0  0  0  0
  -36.5937  -19.9788   23.7795 C   0  0  1  0  0  0  0  0  0  0  0  0
  -27.6395  -13.2486   19.6746 C   0  0  2  0  0  0  0  0  0  0  0  0
  -30.1868  -22.7178   19.2131 C   0  0  2  0  0  0  0  0  0  0  0  0
  -37.8664  -26.7401   27.5108 C   0  0  0  0  0  0  0  0  0  0  0  0
  -34.2360  -21.3683   27.5038 C   0  0  0  0  0  0  0  0  0  0  0  0
  -34.5311  -23.7739   28.1316 C   0  0  0  0  0  0  0  0  0  0  0  0
  -36.3659  -22.1399   28.5632 C   0  0  0  0  0  0  0  0  0  0  0  0
  -31.2967  -16.6952   22.1624 C   0  0  0  0  0  0  0  0  0  0  0  0
  -37.4263  -26.9146   23.7356 C   0  0  0  0  0  0  0  0  0  0  0  0
  -29.1736  -16.3989   20.9415 C   0  0  0  0  0  0  0  0  0  0  0  0
  -31.3847  -22.7803   20.1551 C   0  0  0  0  0  0  0  0  0  1  0  0
  -35.8816  -22.8612   26.1889 C   0  0  1  0  0  0  0  0  0  0  0  0
  -37.7124  -26.1795   26.1055 C   0  0  2  0  0  0  0  0  0  0  0  0
  -35.2493  -22.5284   27.5698 C   0  0  0  0  0  0  0  0  0  0  0  0
  -25.8754  -11.6249   20.2524 N   0  0  0  0  0  0  0  0  0  0  0  0
  -26.2404  -12.9149   20.1583 N   0  0  0  0  0  0  0  0  0  0  0  0
  -30.0835  -21.4307   18.5109 N   0  0  3  0  0  0  0  0  0  0  0  0
  -36.0962  -21.2407   24.3310 N   0  0  0  0  0  0  0  0  0  0  0  0
  -29.9820  -13.7001   20.3631 N   0  0  0  0  0  0  0  0  0  0  0  0
  -25.4625  -15.1272   20.4918 N   0  0  0  0  0  0  0  0  0  0  0  0
  -22.7366  -13.7135   22.7199 N   0  0  0  0  0  0  0  0  0  0  0  0
  -35.9776  -17.6382   23.7796 N   0  0  0  0  0  0  0  0  0  0  0  0
  -36.8652  -23.9381   26.2261 N   0  0  0  0  0  0  0  0  0  0  0  0
  -30.4048  -15.7946   21.4459 N   0  0  0  0  0  0  0  0  0  0  0  0
  -37.5638  -27.3203   25.1582 N   0  3  0  0  0  0  0  0  0  0  0  0
  -21.9693  -13.7560   20.5594 O   0  0  0  0  0  0  0  0  0  0  0  0
  -34.5991  -19.2199   24.7898 O   0  0  0  0  0  0  0  0  0  0  0  0
  -37.5246  -21.1504   26.1717 O   0  0  0  0  0  0  0  0  0  0  0  0
  -35.3778  -25.6570   25.7678 O   0  0  0  0  0  0  0  0  0  0  0  0
  -32.0288  -14.1640   21.3188 O   0  0  0  0  0  0  0  0  0  0  0  0
  -21.6858   -7.0229   21.6018 O   0  0  0  0  0  0  0  0  0  0  0  0
  -32.5692  -22.4711   19.4219 O   0  0  0  0  0  0  0  0  0  1  0  0
  -23.6270   -2.3312   19.4514 F   0  0  0  0  0  0  0  0  0  0  0  0
  -30.7566  -19.0830   17.2079 F   0  0  0  0  0  0  0  0  0  0  0  0
  -20.1887   -5.5667   19.7905 F   0  0  0  0  0  0  0  0  0  0  0  0
  1  2  1  0  0  0  0
  1  5  2  0  0  0  0
  2  6  2  0  0  0  0
  3 10  2  0  0  0  0
  3 18  1  0  0  0  0
  4 11  1  0  0  0  0
  4 18  2  0  0  0  0
  5 20  1  0  0  0  0
  6 22  1  0  0  0  0
  7 12  2  0  0  0  0
  7 21  1  0  0  0  0
  8  9  2  0  0  0  0
  8 24  1  0  0  0  0
  9 25  1  0  0  0  0
 10 26  1  0  0  0  0
 11 26  2  0  0  0  0
 12 27  1  0  0  0  0
 13 14  2  0  0  0  0
 13 28  1  0  0  0  0
 14 29  1  0  0  0  0
 15 23  1  0  0  0  0
 15 27  2  0  0  0  0
 16 24  2  0  0  0  0
 16 30  1  0  0  0  0
 17 29  2  0  0  0  0
 17 31  1  0  0  0  0
 18 32  1  0  0  0  0
 19 32  1  0  0  0  0
 19 33  2  0  0  0  0
 19 34  1  0  0  0  0
 20 22  2  0  0  0  0
 20 39  1  0  0  0  0
 21 23  2  0  0  0  0
 21 40  1  0  0  0  0
 22 51  1  0  0  0  0
 23 41  1  0  0  0  0
 24 61  1  0  0  0  0
 25 30  2  0  0  0  0
 25 68  1  0  0  0  0
 26 82  1  0  0  0  0
 27 83  1  0  0  0  0
 28 31  2  0  0  0  0
 28 82  1  0  0  0  0
 29 84  1  0  0  0  0
 30 85  1  0  0  0  0
 31 86  1  0  0  0  0
 32 66  2  0  0  0  0
 33 67  1  0  0  0  0
 33 71  1  0  0  0  0
 34 72  1  0  0  0  0
 34 77  2  0  0  0  0
 35 52  1  0  0  0  0
 35 73  1  0  0  0  0
 35 78  2  0  0  0  0
 36 63  1  0  0  0  0
 36 69  1  0  0  0  0
 36 79  2  0  0  0  0
 37 64  1  0  0  0  0
 37 74  1  0  0  0  0
 37 80  2  0  0  0  0
 38 70  1  0  0  0  0
 38 75  1  0  0  0  0
 38 81  2  0  0  0  0
 39 42  1  0  0  0  0
 40 52  1  0  0  0  0
 41 69  1  0  0  0  0
 42 45  1  0  0  0  0
 43 46  1  0  0  0  0
 43 49  1  0  0  0  0
 44 47  1  0  0  0  0
 44 48  1  0  0  0  0
 45 51  1  0  0  0  0
 46 53  1  0  0  0  0
 47 54  1  0  0  0  0
 48 68  1  0  0  0  0
 49 70  1  0  0  0  0
 50 53  1  0  0  0  0
 50 70  1  0  0  0  0
 51 73  1  0  0  0  0
 52 69  1  0  0  0  0
 53 67  1  0  0  0  0
 54 62  1  0  0  0  0
 54 68  1  0  0  0  0
 55 64  1  0  0  0  0
 56 65  1  0  0  0  0
 57 65  1  0  0  0  0
 58 65  1  0  0  0  0
 59 75  1  0  0  0  0
 60 76  1  0  0  0  0
 61 75  1  0  0  0  0
 62 83  1  0  0  0  0
 63 65  1  0  0  0  0
 63 74  1  0  0  0  0
 64 76  1  0  0  0  0
 66 67  1  0  0  0  0
M  CHG  1  76   1
M  ISO  4  38 100  62 101  75 100  83 101
M  END
> <Batch ID>
0020

> <Smiles>
CNC(C)C(=O)NC(C(=O)N1Cc2cc([101O:1][101CH2:1]C3CCCN3c3ccc(C[100N:0](C)[100C:0](=O)N4CCCC(n5nc(-c6ccc(Oc7ccc(F)cc7F)cc6)c(C(N)=O)c5N)C4)cc3F)ccc2CC1C(=O)NC1CCCc2ccccc21)C(C)(C)C

> <Shape>
0.199

> <Color>
0.161

> <Negative vol penalty>
0.000

$$$$

  -OEChem-04042321083D

 86 95  0     1  0  0  0  0  0999 V2000
  -20.8081  -23.0035   24.9446 C   0  0  0  0  0  0  0  0  0  0  0  0
  -22.1568  -23.3129   24.8015 C   0  0  0  0  0  0  0  0  0  0  0  0
  -23.7213  -10.9724   24.5062 C   0  0  0  0  0  0  0  0  0  0  0  0
  -22.1283  -10.5989   22.7286 C   0  0  0  0  0  0  0  0  0  0  0  0
  -19.8384  -23.8653   24.4339 C   0  0  0  0  0  0  0  0  0  0  0  0
  -22.5367  -24.4840   24.1467 C   0  0  0  0  0  0  0  0  0  0  0  0
  -26.1943  -26.9830   26.6008 C   0  0  0  0  0  0  0  0  0  0  0  0
  -28.0154  -21.7140   24.0611 C   0  0  0  0  0  0  0  0  0  0  0  0
  -26.8538  -20.9407   24.1394 C   0  0  0  0  0  0  0  0  0  0  0  0
  -23.3589   -9.7570   25.0865 C   0  0  0  0  0  0  0  0  0  0  0  0
  -21.7659   -9.3833   23.3089 C   0  0  0  0  0  0  0  0  0  0  0  0
  -27.4947  -26.4973   26.4712 C   0  0  0  0  0  0  0  0  0  0  0  0
  -20.6778   -6.0122   24.1272 C   0  0  0  0  0  0  0  0  0  0  0  0
  -20.5483   -4.9054   23.2884 C   0  0  0  0  0  0  0  0  0  0  0  0
  -28.2006  -21.2784   21.6783 C   0  0  0  0  0  0  0  0  0  0  0  0
  -27.9564  -28.1919   24.8176 C   0  0  0  0  0  0  0  0  0  0  0  0
  -22.8634   -5.1297   22.6348 C   0  0  0  0  0  0  0  0  0  0  0  0
  -23.1060  -11.3935   23.3273 C   0  0  0  0  0  0  0  0  0  0  0  0
  -24.4919  -12.8683   21.7742 C   0  0  0  0  0  0  0  0  0  0  0  0
  -20.2063  -25.0523   23.7810 C   0  0  0  0  0  0  0  0  0  0  0  0
  -25.7611  -28.0718   25.8305 C   0  0  0  0  0  0  0  0  0  0  0  0
  -21.5710  -25.3619   23.6257 C   0  0  0  0  0  0  0  0  0  0  0  0
  -27.0543  -20.5029   21.7647 C   0  0  0  0  0  0  0  0  0  0  0  0
  -26.6508  -28.6911   24.9412 C   0  0  0  0  0  0  0  0  0  0  0  0
  -28.6844  -21.8814   22.8400 C   0  0  0  0  0  0  0  0  0  0  0  0
  -26.3848  -20.3390   22.9809 C   0  0  0  0  0  0  0  0  0  0  0  0
  -22.3812   -8.9624   24.4878 C   0  0  0  0  0  0  0  0  0  0  0  0
  -28.3751  -27.0999   25.5774 C   0  0  0  0  0  0  0  0  0  0  0  0
  -21.9002   -6.6779   24.2198 C   0  0  0  0  0  0  0  0  0  0  0  0
  -21.6410   -4.4641   22.5422 C   0  0  0  0  0  0  0  0  0  0  0  0
  -22.9929   -6.2366   23.4736 C   0  0  0  0  0  0  0  0  0  0  0  0
  -23.4796  -12.6493   22.7277 C   0  0  0  0  0  0  0  0  0  0  0  0
  -24.4468  -14.2190   21.5296 C   0  0  0  0  0  0  0  0  0  0  0  0
  -25.3924  -11.9342   21.1641 C   0  0  0  0  0  0  0  0  0  0  0  0
  -23.5074  -28.5088   23.6320 C   0  0  0  0  0  0  0  0  0  0  0  0
  -24.4252  -31.6110   23.8691 C   0  0  0  0  0  0  0  0  0  0  0  0
  -26.8594  -33.8575   24.6905 C   0  0  0  0  0  0  0  0  0  0  0  0
  -24.2000  -19.4073   23.7192 C   0  0  0  0  0  0  0  0  0  0  0  0
  -19.1234  -25.9292   23.2040 C   0  0  0  0  0  0  0  0  0  0  0  0
  -24.3634  -28.6006   26.0015 C   0  0  0  0  0  0  0  0  0  0  0  0
  -26.2412  -29.8757   24.1060 C   0  0  0  0  0  0  0  0  0  0  0  0
  -19.6010  -27.3360   22.8532 C   0  0  0  0  0  0  0  0  0  0  0  0
  -21.0460  -17.7140   22.8733 C   0  0  0  0  0  0  0  0  0  0  0  0
  -20.9210  -27.2770   22.0909 C   0  0  0  0  0  0  0  0  0  0  0  0
  -21.4806  -16.2541   22.7306 C   0  0  0  0  0  0  0  0  0  0  0  0
  -21.9139  -18.4752   23.8732 C   0  0  0  0  0  0  0  0  0  0  0  0
  -25.3040  -18.9665   21.4264 C   0  0  0  0  0  0  0  0  0  0  0  0
  -23.7905  -16.9261   23.4823 C   0  0  0  0  0  0  0  0  0  0  0  0
  -22.0222  -26.6351   22.9434 C   0  0  1  0  0  0  0  0  0  0  0  0
  -26.3060  -19.8378   20.6536 C   0  0  2  0  0  0  0  0  0  0  0  0
  -23.8715  -29.3907   24.7927 C   0  0  1  0  0  0  0  0  0  0  0  0
  -22.9880  -16.1488   22.4306 C   0  0  1  0  0  0  0  0  0  0  0  0
  -27.3294  -36.3220   24.7419 C   0  0  0  0  0  0  0  0  0  0  0  0
  -24.8093  -31.5985   20.8422 C   0  0  0  0  0  0  0  0  0  0  0  0
  -26.1484  -33.7012   21.0734 C   0  0  0  0  0  0  0  0  0  0  0  0
  -23.7477  -33.6727   21.7505 C   0  0  0  0  0  0  0  0  0  0  0  0
  -27.2646  -33.8368   27.6221 C   0  0  0  0  0  0  0  0  0  0  0  0
  -29.1295  -24.7295   21.5448 C   0  0  0  0  0  0  0  0  0  0  0  0
  -29.9186  -22.7179   22.7822 C   0  0  0  0  0  0  0  0  0  0  0  0
  -31.0230  -24.7552   24.8425 C   0  0  0  0  0  0  0  0  0  0  0  0
  -30.8309  -24.9647   23.3480 C   0  0  0  0  0  0  0  0  0  0  0  0
  -29.8477  -25.2355   25.6849 C   0  0  0  0  0  0  0  0  0  1  0  0
  -25.4538  -32.4771   23.1829 C   0  0  1  0  0  0  0  0  0  0  0  0
  -26.8210  -35.1233   25.5276 C   0  0  2  0  0  0  0  0  0  0  0  0
  -25.0472  -32.8389   21.7264 C   0  0  0  0  0  0  0  0  0  0  0  0
  -22.8384  -13.7711   23.0659 N   0  0  0  0  0  0  0  0  0  0  0  0
  -23.4494  -14.7080   22.3209 N   0  0  0  0  0  0  0  0  0  0  0  0
  -25.2547  -19.5061   22.8099 N   0  0  0  0  0  0  0  0  0  0  0  0
  -24.8623  -30.3519   24.3044 N   0  0  0  0  0  0  0  0  0  0  0  0
  -23.3330  -18.3169   23.5582 N   0  0  0  0  0  0  0  0  0  0  0  0
  -25.1636  -15.0244   20.7171 N   0  0  0  0  0  0  0  0  0  0  0  0
  -25.3029  -10.5839   21.5291 N   0  0  0  0  0  0  0  0  0  0  0  0
  -22.5237  -27.5812   23.9170 N   0  0  0  0  0  0  0  0  0  0  0  0
  -25.6592  -33.6320   24.0503 N   0  0  0  0  0  0  0  0  0  0  0  0
  -27.1173  -18.9935   19.7483 N   0  3  0  0  0  0  0  0  0  0  0  0
  -27.6672  -34.9656   26.7442 N   0  3  0  0  0  0  0  0  0  0  0  0
  -29.6447  -24.1796   22.8500 N   0  3  1  0  0  0  0  0  0  0  0  0
  -26.2620  -12.2890   20.3325 O   0  0  0  0  0  0  0  0  0  0  0  0
  -24.0758  -28.6598   22.5569 O   0  0  0  0  0  0  0  0  0  0  0  0
  -23.2781  -32.0389   24.0200 O   0  0  0  0  0  0  0  0  0  0  0  0
  -27.8558  -33.1425   24.6095 O   0  0  0  0  0  0  0  0  0  0  0  0
  -23.9814  -20.2681   24.5801 O   0  0  0  0  0  0  0  0  0  0  0  0
  -22.0274   -7.7761   25.0537 O   0  0  0  0  0  0  0  0  0  0  0  0
  -29.6536  -26.6240   25.4476 O   0  0  0  0  0  0  0  0  0  1  0  0
  -21.5168   -3.4002   21.7378 F   0  0  0  0  0  0  0  0  0  0  0  0
  -24.1700   -6.8712   23.5593 F   0  0  0  0  0  0  0  0  0  0  0  0
  1  2  1  0  0  0  0
  1  5  2  0  0  0  0
  2  6  2  0  0  0  0
  3 10  2  0  0  0  0
  3 18  1  0  0  0  0
  4 11  1  0  0  0  0
  4 18  2  0  0  0  0
  5 20  1  0  0  0  0
  6 22  1  0  0  0  0
  7 12  2  0  0  0  0
  7 21  1  0  0  0  0
  8  9  2  0  0  0  0
  8 25  1  0  0  0  0
  9 26  1  0  0  0  0
 10 27  1  0  0  0  0
 11 27  2  0  0  0  0
 12 28  1  0  0  0  0
 13 14  2  0  0  0  0
 13 29  1  0  0  0  0
 14 30  1  0  0  0  0
 15 23  1  0  0  0  0
 15 25  2  0  0  0  0
 16 24  1  0  0  0  0
 16 28  2  0  0  0  0
 17 30  2  0  0  0  0
 17 31  1  0  0  0  0
 18 32  1  0  0  0  0
 19 32  1  0  0  0  0
 19 33  2  0  0  0  0
 19 34  1  0  0  0  0
 20 22  2  0  0  0  0
 20 39  1  0  0  0  0
 21 24  2  0  0  0  0
 21 40  1  0  0  0  0
 22 49  1  0  0  0  0
 23 26  2  0  0  0  0
 23 50  1  0  0  0  0
 24 41  1  0  0  0  0
 25 59  1  0  0  0  0
 26 68  1  0  0  0  0
 27 83  1  0  0  0  0
 28 84  1  0  0  0  0
 29 31  2  0  0  0  0
 29 83  1  0  0  0  0
 30 85  1  0  0  0  0
 31 86  1  0  0  0  0
 32 66  2  0  0  0  0
 33 67  1  0  0  0  0
 33 71  1  0  0  0  0
 34 72  1  0  0  0  0
 34 78  2  0  0  0  0
 35 51  1  0  0  0  0
 35 73  1  0  0  0  0
 35 79  2  0  0  0  0
 36 63  1  0  0  0  0
 36 69  1  0  0  0  0
 36 80  2  0  0  0  0
 37 64  1  0  0  0  0
 37 74  1  0  0  0  0
 37 81  2  0  0  0  0
 38 68  1  0  0  0  0
 38 70  1  0  0  0  0
 38 82  2  0  0  0  0
 39 42  1  0  0  0  0
 40 51  1  0  0  0  0
 41 69  1  0  0  0  0
 42 44  1  0  0  0  0
 43 45  1  0  0  0  0
 43 46  1  0  0  0  0
 44 49  1  0  0  0  0
 45 52  1  0  0  0  0
 46 70  1  0  0  0  0
 47 50  1  0  0  0  0
 47 68  1  0  0  0  0
 48 52  1  0  0  0  0
 48 70  1  0  0  0  0
 49 73  1  0  0  0  0
 50 75  1  0  0  0  0
 51 69  1  0  0  0  0
 52 67  1  0  0  0  0
 53 64  1  0  0  0  0
 54 65  1  0  0  0  0
 55 65  1  0  0  0  0
 56 65  1  0  0  0  0
 57 76  1  0  0  0  0
 58 77  1  0  0  0  0
 59 77  1  0  0  0  0
 60 61  1  0  0  0  0
 60 62  1  0  0  0  0
 61 77  1  0  0  0  0
 62 84  1  0  0  0  0
 63 65  1  0  0  0  0
 63 74  1  0  0  0  0
 64 76  1  0  0  0  0
 66 67  1  0  0  0  0
M  CHG  3  75   1  76   1  77   1
M  ISO  4  38 100  62 101  68 100  84 101
M  END
> <Batch ID>
0020

> <Smiles>
CNC(C)C(=O)NC(C(=O)N1Cc2cc([101O:1][101CH2:1]CCN(C)Cc3ccc4c(c3)C(N)C[100N:0]4[100C:0](=O)N3CCCC(n4nc(-c5ccc(Oc6ccc(F)cc6F)cc5)c(C(N)=O)c4N)C3)ccc2CC1C(=O)NC1CCCc2ccccc21)C(C)(C)C

> <Shape>
0.182

> <Color>
0.099

> <Negative vol penalty>
0.000

$$$$

  -OEChem-04042321083D

 83 91  0     1  0  0  0  0  0999 V2000
  -16.3977  -28.0610   22.0558 C   0  0  0  0  0  0  0  0  0  0  0  0
  -17.4457  -27.1508   21.9623 C   0  0  0  0  0  0  0  0  0  0  0  0
  -30.9503  -19.2423   19.9468 C   0  0  0  0  0  0  0  0  0  0  0  0
  -23.3783  -10.7893   22.3769 C   0  0  0  0  0  0  0  0  0  0  0  0
  -22.8323  -13.0207   21.6287 C   0  0  0  0  0  0  0  0  0  0  0  0
  -16.6255  -29.4130   21.8028 C   0  0  0  0  0  0  0  0  0  0  0  0
  -18.7220  -27.5921   21.6146 C   0  0  0  0  0  0  0  0  0  0  0  0
  -24.0611  -25.3808   23.6417 C   0  0  0  0  0  0  0  0  0  0  0  0
  -29.9170  -20.0833   19.5338 C   0  0  0  0  0  0  0  0  0  0  0  0
  -30.7907  -17.8580   19.8828 C   0  0  0  0  0  0  0  0  0  0  0  0
  -22.4037  -10.8839   23.3702 C   0  0  0  0  0  0  0  0  0  0  0  0
  -21.8576  -13.1152   22.6219 C   0  0  0  0  0  0  0  0  0  0  0  0
  -24.9731  -24.4809   23.0918 C   0  0  0  0  0  0  0  0  0  0  0  0
  -18.6974  -12.0264   23.1200 C   0  0  0  0  0  0  0  0  0  0  0  0
  -17.4547  -12.5467   22.7589 C   0  0  0  0  0  0  0  0  0  0  0  0
  -26.2699  -26.3268   22.2372 C   0  0  0  0  0  0  0  0  0  0  0  0
  -28.5644  -18.1558   18.9928 C   0  0  0  0  0  0  0  0  0  0  0  0
  -17.7330  -14.3278   24.3674 C   0  0  0  0  0  0  0  0  0  0  0  0
  -23.5927  -11.8578   21.5062 C   0  0  0  0  0  0  0  0  0  0  0  0
  -24.4328  -11.2801   19.1677 C   0  0  0  0  0  0  0  0  0  0  0  0
  -17.9072  -29.8725   21.4614 C   0  0  0  0  0  0  0  0  0  0  0  0
  -24.2411  -26.7625   23.4838 C   0  0  0  0  0  0  0  0  0  0  0  0
  -18.9668  -28.9514   21.3556 C   0  0  0  0  0  0  0  0  0  0  0  0
  -25.3601  -27.2421   22.7882 C   0  0  0  0  0  0  0  0  0  0  0  0
  -28.7241  -19.5401   19.0568 C   0  0  0  0  0  0  0  0  0  0  0  0
  -29.5978  -17.3148   19.4059 C   0  0  0  0  0  0  0  0  0  0  0  0
  -21.6433  -12.0468   23.4927 C   0  0  0  0  0  0  0  0  0  0  0  0
  -26.0761  -24.9538   22.3870 C   0  0  0  0  0  0  0  0  0  0  0  0
  -19.4580  -12.6567   24.1048 C   0  0  0  0  0  0  0  0  0  0  0  0
  -16.9725  -13.6975   23.3825 C   0  0  0  0  0  0  0  0  0  0  0  0
  -18.9758  -13.8074   24.7285 C   0  0  0  0  0  0  0  0  0  0  0  0
  -24.5998  -11.7609   20.4802 C   0  0  0  0  0  0  0  0  0  0  0  0
  -25.6777  -11.3949   18.5990 C   0  0  0  0  0  0  0  0  0  0  0  0
  -23.2574  -10.7750   18.5205 C   0  0  0  0  0  0  0  0  0  0  0  0
  -22.5816  -29.0979   22.1072 C   0  0  0  0  0  0  0  0  0  0  0  0
  -24.8637  -30.9777   23.4416 C   0  0  0  0  0  0  0  0  0  0  0  0
  -27.2753  -22.2833   20.2783 C   0  0  0  0  0  0  0  0  0  0  0  0
  -28.0353  -31.2542   24.6708 C   0  0  0  0  0  0  0  0  0  0  0  0
  -30.3625  -14.9338   19.7097 C   0  0  0  0  0  0  0  0  0  0  0  0
  -18.0947  -31.3365   21.1508 C   0  0  0  0  0  0  0  0  0  0  0  0
  -23.2627  -27.7206   24.1060 C   0  0  0  0  0  0  0  0  0  0  0  0
  -25.6098  -28.7164   22.6079 C   0  0  0  0  0  0  0  0  0  0  0  0
  -19.5561  -31.7775   21.1543 C   0  0  0  0  0  0  0  0  0  0  0  0
  -30.3300  -11.3735   19.7346 C   0  0  0  0  0  0  0  0  0  0  0  0
  -20.4137  -30.7899   20.3695 C   0  0  0  0  0  0  0  0  0  0  0  0
  -28.8414  -11.0250   19.8031 C   0  0  0  0  0  0  0  0  0  0  0  0
  -30.6598  -12.6172   20.5582 C   0  0  0  0  0  0  0  0  0  0  0  0
  -28.3532  -13.4497   20.3224 C   0  0  0  0  0  0  0  0  0  0  0  0
  -20.3706  -29.3951   21.0054 C   0  0  1  0  0  0  0  0  0  0  0  0
  -23.2686  -29.0948   23.4435 C   0  0  1  0  0  0  0  0  0  0  0  0
  -27.9613  -12.2418   19.4559 C   0  0  2  0  0  0  0  0  0  0  0  0
  -29.6278  -32.9253   25.6551 C   0  0  0  0  0  0  0  0  0  0  0  0
  -25.3381  -32.1561   20.6674 C   0  0  0  0  0  0  0  0  0  0  0  0
  -27.5096  -33.0773   21.5064 C   0  0  0  0  0  0  0  0  0  0  0  0
  -25.3609  -33.8267   22.5283 C   0  0  0  0  0  0  0  0  0  0  0  0
  -25.8041  -20.2614   20.2752 C   0  0  0  0  0  0  0  0  0  0  0  0
  -28.2408  -29.7394   27.2050 C   0  0  0  0  0  0  0  0  0  0  0  0
  -27.6122  -20.4458   18.6124 C   0  0  0  0  0  0  0  0  0  0  0  0
  -26.4644  -22.8044   21.4460 C   0  0  0  0  0  0  0  0  0  1  0  0
  -26.2131  -31.4946   23.0047 C   0  0  1  0  0  0  0  0  0  0  0  0
  -28.5696  -31.8736   25.9496 C   0  0  2  0  0  0  0  0  0  0  0  0
  -26.1000  -32.6108   21.9282 C   0  0  0  0  0  0  0  0  0  0  0  0
  -25.8522  -12.1519   20.7307 N   0  0  0  0  0  0  0  0  0  0  0  0
  -26.4834  -11.9168   19.5678 N   0  0  0  0  0  0  0  0  0  0  0  0
  -24.6213  -29.6132   23.2293 N   0  0  0  0  0  0  0  0  0  0  0  0
  -29.7897  -13.7300   20.1717 N   0  0  0  0  0  0  0  0  0  0  0  0
  -26.1508  -11.0993   17.3697 N   0  0  0  0  0  0  0  0  0  0  0  0
  -22.0616  -10.7262   19.2500 N   0  0  0  0  0  0  0  0  0  0  0  0
  -29.4363  -15.9086   19.3403 N   0  0  0  0  0  0  0  0  0  0  0  0
  -21.2237  -29.3456   22.1733 N   0  0  0  0  0  0  0  0  0  0  0  0
  -26.9063  -31.9054   24.2209 N   0  0  0  0  0  0  0  0  0  0  0  0
  -26.9113  -21.0468   19.7441 N   0  0  0  0  0  0  0  0  0  0  0  0
  -29.1772  -30.8259   26.8181 N   0  3  0  0  0  0  0  0  0  0  0  0
  -23.2709  -10.3633   17.3356 O   0  0  0  0  0  0  0  0  0  0  0  0
  -23.2352  -28.8924   21.0913 O   0  0  0  0  0  0  0  0  0  0  0  0
  -24.0572  -31.7546   23.9590 O   0  0  0  0  0  0  0  0  0  0  0  0
  -28.2075  -22.9705   19.8498 O   0  0  0  0  0  0  0  0  0  0  0  0
  -28.5686  -30.2916   24.1235 O   0  0  0  0  0  0  0  0  0  0  0  0
  -31.5844  -15.0788   19.6207 O   0  0  0  0  0  0  0  0  0  0  0  0
  -20.6919  -12.1393   24.4617 O   0  0  0  0  0  0  0  0  0  0  0  0
  -26.9675  -24.0777   21.8487 O   0  0  0  0  0  0  0  0  0  1  0  0
  -15.7797  -14.1979   23.0345 F   0  0  0  0  0  0  0  0  0  0  0  0
  -19.7024  -14.4181   25.6745 F   0  0  0  0  0  0  0  0  0  0  0  0
  1  2  1  0  0  0  0
  1  6  2  0  0  0  0
  2  7  2  0  0  0  0
  3  9  2  0  0  0  0
  3 10  1  0  0  0  0
  4 11  2  0  0  0  0
  4 19  1  0  0  0  0
  5 12  1  0  0  0  0
  5 19  2  0  0  0  0
  6 21  1  0  0  0  0
  7 23  1  0  0  0  0
  8 13  2  0  0  0  0
  8 22  1  0  0  0  0
  9 25  1  0  0  0  0
 10 26  2  0  0  0  0
 11 27  1  0  0  0  0
 12 27  2  0  0  0  0
 13 28  1  0  0  0  0
 14 15  2  0  0  0  0
 14 29  1  0  0  0  0
 15 30  1  0  0  0  0
 16 24  1  0  0  0  0
 16 28  2  0  0  0  0
 17 25  2  0  0  0  0
 17 26  1  0  0  0  0
 18 30  2  0  0  0  0
 18 31  1  0  0  0  0
 19 32  1  0  0  0  0
 20 32  1  0  0  0  0
 20 33  2  0  0  0  0
 20 34  1  0  0  0  0
 21 23  2  0  0  0  0
 21 40  1  0  0  0  0
 22 24  2  0  0  0  0
 22 41  1  0  0  0  0
 23 49  1  0  0  0  0
 24 42  1  0  0  0  0
 25 58  1  0  0  0  0
 26 69  1  0  0  0  0
 27 80  1  0  0  0  0
 28 81  1  0  0  0  0
 29 31  2  0  0  0  0
 29 80  1  0  0  0  0
 30 82  1  0  0  0  0
 31 83  1  0  0  0  0
 32 63  2  0  0  0  0
 33 64  1  0  0  0  0
 33 67  1  0  0  0  0
 34 68  1  0  0  0  0
 34 74  2  0  0  0  0
 35 50  1  0  0  0  0
 35 70  1  0  0  0  0
 35 75  2  0  0  0  0
 36 60  1  0  0  0  0
 36 65  1  0  0  0  0
 36 76  2  0  0  0  0
 37 59  1  0  0  0  0
 37 72  1  0  0  0  0
 37 77  2  0  0  0  0
 38 61  1  0  0  0  0
 38 71  1  0  0  0  0
 38 78  2  0  0  0  0
 39 66  1  0  0  0  0
 39 69  1  0  0  0  0
 39 79  2  0  0  0  0
 40 43  1  0  0  0  0
 41 50  1  0  0  0  0
 42 65  1  0  0  0  0
 43 45  1  0  0  0  0
 44 46  1  0  0  0  0
 44 47  1  0  0  0  0
 45 49  1  0  0  0  0
 46 51  1  0  0  0  0
 47 66  1  0  0  0  0
 48 51  1  0  0  0  0
 48 66  1  0  0  0  0
 49 70  1  0  0  0  0
 50 65  1  0  0  0  0
 51 64  1  0  0  0  0
 52 61  1  0  0  0  0
 53 62  1  0  0  0  0
 54 62  1  0  0  0  0
 55 62  1  0  0  0  0
 56 72  1  0  0  0  0
 57 73  1  0  0  0  0
 58 72  1  0  0  0  0
 59 81  1  0  0  0  0
 60 62  1  0  0  0  0
 60 71  1  0  0  0  0
 61 73  1  0  0  0  0
 63 64  1  0  0  0  0
M  CHG  1  73   1
M  ISO  4  39 100  59 101  69 100  81 101
M  END
> <Batch ID>
0020

> <Smiles>
CNC(C)C(=O)NC(C(=O)N1Cc2cc([101O:1][101CH2:1]C(=O)N(C)Cc3cccc([100NH:0][100C:0](=O)N4CCCC(n5nc(-c6ccc(Oc7ccc(F)cc7F)cc6)c(C(N)=O)c5N)C4)c3)ccc2CC1C(=O)NC1CCCc2ccccc21)C(C)(C)C

> <Shape>
0.244

> <Color>
0.081

> <Negative vol penalty>
0.000

$$$$

  -OEChem-04042321083D

 84 92  0     1  0  0  0  0  0999 V2000
  -16.6579  -29.8824   23.7651 C   0  0  0  0  0  0  0  0  0  0  0  0
  -17.7633  -30.5012   24.3401 C   0  0  0  0  0  0  0  0  0  0  0  0
  -27.4941  -21.9148   16.1711 C   0  0  0  0  0  0  0  0  0  0  0  0
  -27.6914  -24.3224   16.2092 C   0  0  0  0  0  0  0  0  0  0  0  0
  -16.8282  -28.7421   22.9812 C   0  0  0  0  0  0  0  0  0  0  0  0
  -19.0396  -29.9794   24.1323 C   0  0  0  0  0  0  0  0  0  0  0  0
  -24.2637  -33.1307   23.5999 C   0  0  0  0  0  0  0  0  0  0  0  0
  -31.6514  -28.1606   25.4104 C   0  0  0  0  0  0  0  0  0  0  0  0
  -30.9260  -29.3657   23.4460 C   0  0  0  0  0  0  0  0  0  0  0  0
  -30.9277  -27.0438   24.9926 C   0  0  0  0  0  0  0  0  0  0  0  0
  -30.2023  -28.2488   23.0281 C   0  0  0  0  0  0  0  0  0  0  0  0
  -26.4746  -22.0133   15.2243 C   0  0  0  0  0  0  0  0  0  0  0  0
  -26.6719  -24.4209   15.2624 C   0  0  0  0  0  0  0  0  0  0  0  0
  -25.2808  -33.4209   24.5082 C   0  0  0  0  0  0  0  0  0  0  0  0
  -23.8758  -25.3238   13.1231 C   0  0  0  0  0  0  0  0  0  0  0  0
  -22.8826  -26.2795   13.3369 C   0  0  0  0  0  0  0  0  0  0  0  0
  -26.5448  -31.5384   23.6850 C   0  0  0  0  0  0  0  0  0  0  0  0
  -22.3014  -25.2087   15.4232 C   0  0  0  0  0  0  0  0  0  0  0  0
  -28.1025  -23.0694   16.6636 C   0  0  0  0  0  0  0  0  0  0  0  0
  -30.5372  -22.8592   17.3958 C   0  0  0  0  0  0  0  0  0  0  0  0
  -18.1082  -28.2116   22.7557 C   0  0  0  0  0  0  0  0  0  0  0  0
  -24.3749  -32.0339   22.7333 C   0  0  0  0  0  0  0  0  0  0  0  0
  -19.2270  -28.8301   23.3457 C   0  0  0  0  0  0  0  0  0  0  0  0
  -25.5289  -31.2380   22.7648 C   0  0  0  0  0  0  0  0  0  0  0  0
  -31.6505  -29.3216   24.6371 C   0  0  0  0  0  0  0  0  0  0  0  0
  -30.2032  -27.0879   23.8015 C   0  0  0  0  0  0  0  0  0  0  0  0
  -26.0634  -23.2663   14.7699 C   0  0  0  0  0  0  0  0  0  0  0  0
  -26.4203  -32.6230   24.5528 C   0  0  0  0  0  0  0  0  0  0  0  0
  -24.0818  -24.3105   14.0593 C   0  0  0  0  0  0  0  0  0  0  0  0
  -22.0954  -26.2220   14.4870 C   0  0  0  0  0  0  0  0  0  0  0  0
  -23.2946  -24.2530   15.2093 C   0  0  0  0  0  0  0  0  0  0  0  0
  -29.1554  -22.9683   17.6420 C   0  0  0  0  0  0  0  0  0  0  0  0
  -31.1045  -22.7938   18.6449 C   0  0  0  0  0  0  0  0  0  0  0  0
  -31.2446  -22.8205   16.1493 C   0  0  0  0  0  0  0  0  0  0  0  0
  -22.7285  -29.3516   22.2873 C   0  0  0  0  0  0  0  0  0  0  0  0
  -24.7413  -28.9952   19.7685 C   0  0  0  0  0  0  0  0  0  0  0  0
  -27.7454  -29.7426   18.3321 C   0  0  0  0  0  0  0  0  0  0  0  0
  -29.3630  -24.7235   24.0253 C   0  0  0  0  0  0  0  0  0  0  0  0
  -18.2377  -26.9498   21.9399 C   0  0  0  0  0  0  0  0  0  0  0  0
  -23.2807  -31.7501   21.7410 C   0  0  0  0  0  0  0  0  0  0  0  0
  -25.7059  -30.0610   21.8419 C   0  0  0  0  0  0  0  0  0  0  0  0
  -19.6613  -26.6775   21.4609 C   0  0  0  0  0  0  0  0  0  0  0  0
  -30.1559  -21.3729   23.1188 C   0  0  0  0  0  0  0  0  0  0  0  0
  -20.6542  -26.8659   22.6035 C   0  0  0  0  0  0  0  0  0  0  0  0
  -30.1210  -21.3933   21.5889 C   0  0  0  0  0  0  0  0  0  0  0  0
  -29.0797  -22.2734   23.7227 C   0  0  0  0  0  0  0  0  0  0  0  0
  -29.0427  -23.6764   21.6980 C   0  0  0  0  0  0  0  0  0  0  0  0
  -20.6300  -28.3084   23.1232 C   0  0  1  0  0  0  0  0  0  0  0  0
  -23.2720  -30.3027   21.2588 C   0  0  1  0  0  0  0  0  0  0  0  0
  -30.1505  -22.8346   21.0437 C   0  0  2  0  0  0  0  0  0  0  0  0
  -29.1226  -29.2728   16.2877 C   0  0  0  0  0  0  0  0  0  0  0  0
  -31.7297  -32.1702   27.6920 C   0  0  0  0  0  0  0  0  0  0  0  0
  -25.4288  -26.2338   20.8693 C   0  0  0  0  0  0  0  0  0  0  0  0
  -27.4415  -26.2180   19.3803 C   0  0  0  0  0  0  0  0  0  0  0  0
  -25.1568  -26.3284   18.3850 C   0  0  0  0  0  0  0  0  0  0  0  0
  -27.7781  -32.5984   17.5560 C   0  0  0  0  0  0  0  0  0  0  0  0
  -32.3628  -33.0110   25.1589 C   0  0  0  0  0  0  0  0  0  0  0  0
  -32.4290  -30.5228   25.0866 C   0  0  0  0  0  0  0  0  0  0  0  0
  -29.5458  -32.5386   26.4774 C   0  0  0  0  0  0  0  0  0  0  0  0
  -28.5537  -32.0446   25.4303 C   0  0  0  0  0  0  0  0  0  1  0  0
  -26.0949  -28.3591   19.5634 C   0  0  1  0  0  0  0  0  0  0  0  0
  -28.1053  -30.2024   16.9309 C   0  0  2  0  0  0  0  0  0  0  0  0
  -30.8094  -31.6821   26.5812 C   0  0  1  0  0  0  0  0  0  0  0  0
  -26.0266  -26.8058   19.5683 C   0  0  0  0  0  0  0  0  0  0  0  0
  -28.8626  -22.9722   18.9452 N   0  0  0  0  0  0  0  0  0  0  0  0
  -30.0683  -22.8646   19.5290 N   0  0  0  0  0  0  0  0  0  0  0  0
  -24.6056  -29.8205   20.8938 N   0  0  0  0  0  0  0  0  0  0  0  0
  -29.1716  -23.6235   23.1627 N   0  0  0  0  0  0  0  0  0  0  0  0
  -32.3835  -22.6831   19.0623 N   0  0  0  0  0  0  0  0  0  0  0  0
  -30.5074  -22.8990   14.9599 N   0  0  0  0  0  0  0  0  0  0  0  0
  -29.4681  -25.9535   23.3766 N   0  0  0  0  0  0  0  0  0  0  0  0
  -21.3586  -29.1806   22.2272 N   0  0  0  0  0  0  0  0  0  0  0  0
  -26.6317  -28.9297   18.3327 N   0  0  0  0  0  0  0  0  0  0  0  0
  -28.6819  -31.5761   16.9685 N   0  3  0  0  0  0  0  0  0  0  0  0
  -31.5661  -31.7397   25.2995 N   0  3  1  0  0  0  0  0  0  0  0  0
  -32.4922  -22.7028   16.0917 O   0  0  0  0  0  0  0  0  0  0  0  0
  -23.4955  -28.8117   23.0759 O   0  0  0  0  0  0  0  0  0  0  0  0
  -23.8397  -28.7738   18.9562 O   0  0  0  0  0  0  0  0  0  0  0  0
  -28.3901  -30.0688   19.3264 O   0  0  0  0  0  0  0  0  0  0  0  0
  -29.4560  -24.5815   25.2472 O   0  0  0  0  0  0  0  0  0  0  0  0
  -25.0688  -23.3628   13.8459 O   0  0  0  0  0  0  0  0  0  0  0  0
  -27.4143  -32.9037   25.4389 O   0  0  0  0  0  0  0  0  0  1  0  0
  -21.1427  -27.1407   14.6929 F   0  0  0  0  0  0  0  0  0  0  0  0
  -23.4886  -23.2826   16.1129 F   0  0  0  0  0  0  0  0  0  0  0  0
  1  2  1  0  0  0  0
  1  5  2  0  0  0  0
  2  6  2  0  0  0  0
  3 12  2  0  0  0  0
  3 19  1  0  0  0  0
  4 13  1  0  0  0  0
  4 19  2  0  0  0  0
  5 21  1  0  0  0  0
  6 23  1  0  0  0  0
  7 14  2  0  0  0  0
  7 22  1  0  0  0  0
  8 10  2  0  0  0  0
  8 25  1  0  0  0  0
  9 11  1  0  0  0  0
  9 25  2  0  0  0  0
 10 26  1  0  0  0  0
 11 26  2  0  0  0  0
 12 27  1  0  0  0  0
 13 27  2  0  0  0  0
 14 28  1  0  0  0  0
 15 16  2  0  0  0  0
 15 29  1  0  0  0  0
 16 30  1  0  0  0  0
 17 24  1  0  0  0  0
 17 28  2  0  0  0  0
 18 30  2  0  0  0  0
 18 31  1  0  0  0  0
 19 32  1  0  0  0  0
 20 32  1  0  0  0  0
 20 33  2  0  0  0  0
 20 34  1  0  0  0  0
 21 23  2  0  0  0  0
 21 39  1  0  0  0  0
 22 24  2  0  0  0  0
 22 40  1  0  0  0  0
 23 48  1  0  0  0  0
 24 41  1  0  0  0  0
 25 58  1  0  0  0  0
 26 71  1  0  0  0  0
 27 81  1  0  0  0  0
 28 82  1  0  0  0  0
 29 31  2  0  0  0  0
 29 81  1  0  0  0  0
 30 83  1  0  0  0  0
 31 84  1  0  0  0  0
 32 65  2  0  0  0  0
 33 66  1  0  0  0  0
 33 69  1  0  0  0  0
 34 70  1  0  0  0  0
 34 76  2  0  0  0  0
 35 49  1  0  0  0  0
 35 72  1  0  0  0  0
 35 77  2  0  0  0  0
 36 61  1  0  0  0  0
 36 67  1  0  0  0  0
 36 78  2  0  0  0  0
 37 62  1  0  0  0  0
 37 73  1  0  0  0  0
 37 79  2  0  0  0  0
 38 68  1  0  0  0  0
 38 71  1  0  0  0  0
 38 80  2  0  0  0  0
 39 42  1  0  0  0  0
 40 49  1  0  0  0  0
 41 67  1  0  0  0  0
 42 44  1  0  0  0  0
 43 45  1  0  0  0  0
 43 46  1  0  0  0  0
 44 48  1  0  0  0  0
 45 50  1  0  0  0  0
 46 68  1  0  0  0  0
 47 50  1  0  0  0  0
 47 68  1  0  0  0  0
 48 72  1  0  0  0  0
 49 67  1  0  0  0  0
 50 66  1  0  0  0  0
 51 62  1  0  0  0  0
 52 63  1  0  0  0  0
 53 64  1  0  0  0  0
 54 64  1  0  0  0  0
 55 64  1  0  0  0  0
 56 74  1  0  0  0  0
 57 75  1  0  0  0  0
 58 75  1  0  0  0  0
 59 60  1  0  0  0  0
 59 63  1  0  0  0  0
 60 82  1  0  0  0  0
 61 64  1  0  0  0  0
 61 73  1  0  0  0  0
 62 74  1  0  0  0  0
 63 75  1  0  0  0  0
 65 66  1  0  0  0  0
M  CHG  2  74   1  75   1
M  ISO  4  38 100  60 101  71 100  82 101
M  END
> <Batch ID>
0020

> <Smiles>
CNC(C)C(=O)NC(C(=O)N1Cc2cc([101O:1][101CH2:1]CC(C)N(C)Cc3ccc([100NH:0][100C:0](=O)N4CCCC(n5nc(-c6ccc(Oc7ccc(F)cc7F)cc6)c(C(N)=O)c5N)C4)cc3)ccc2CC1C(=O)NC1CCCc2ccccc21)C(C)(C)C

> <Shape>
0.221

> <Color>
0.100

> <Negative vol penalty>
0.000

$$$$

  -OEChem-04042321083D

 88 96  0     1  0  0  0  0  0999 V2000
  -30.2156  -31.3406   26.8878 C   0  0  0  0  0  0  0  0  0  0  0  0
  -30.1082  -30.6601   25.6792 C   0  0  0  0  0  0  0  0  0  0  0  0
  -23.1408   -9.8272   19.9869 C   0  0  0  0  0  0  0  0  0  0  0  0
  -23.9924   -9.8895   22.2470 C   0  0  0  0  0  0  0  0  0  0  0  0
  -31.3615  -32.0836   27.1687 C   0  0  0  0  0  0  0  0  0  0  0  0
  -31.1462  -30.7231   24.7502 C   0  0  0  0  0  0  0  0  0  0  0  0
  -32.2570  -26.1971   22.7686 C   0  0  0  0  0  0  0  0  0  0  0  0
  -29.6766  -17.9122   18.6566 C   0  0  0  0  0  0  0  0  0  0  0  0
  -29.8377  -19.1353   18.0057 C   0  0  0  0  0  0  0  0  0  0  0  0
  -22.4642   -8.6418   20.2745 C   0  0  0  0  0  0  0  0  0  0  0  0
  -23.3158   -8.7042   22.5346 C   0  0  0  0  0  0  0  0  0  0  0  0
  -31.4076  -25.7109   21.7757 C   0  0  0  0  0  0  0  0  0  0  0  0
  -20.1571   -7.7577   23.2745 C   0  0  0  0  0  0  0  0  0  0  0  0
  -19.4514   -7.6912   24.4758 C   0  0  0  0  0  0  0  0  0  0  0  0
  -32.9800  -26.4225   20.0904 C   0  0  0  0  0  0  0  0  0  0  0  0
  -28.7569  -19.0549   20.5764 C   0  0  0  0  0  0  0  0  0  0  0  0
  -20.8137   -5.8216   25.1728 C   0  0  0  0  0  0  0  0  0  0  0  0
  -23.9050  -10.4510   20.9731 C   0  0  0  0  0  0  0  0  0  0  0  0
  -24.1195  -12.9886   20.8232 C   0  0  0  0  0  0  0  0  0  0  0  0
  -32.4182  -32.1478   26.2467 C   0  0  0  0  0  0  0  0  0  0  0  0
  -33.4714  -26.8105   22.4287 C   0  0  0  0  0  0  0  0  0  0  0  0
  -32.3067  -31.4687   25.0184 C   0  0  0  0  0  0  0  0  0  0  0  0
  -33.8443  -26.9134   21.0810 C   0  0  0  0  0  0  0  0  0  0  0  0
  -29.1361  -17.8720   19.9419 C   0  0  0  0  0  0  0  0  0  0  0  0
  -29.4585  -20.3182   18.6402 C   0  0  0  0  0  0  0  0  0  0  0  0
  -22.5517   -8.0803   21.5484 C   0  0  0  0  0  0  0  0  0  0  0  0
  -31.7677  -25.8262   20.4362 C   0  0  0  0  0  0  0  0  0  0  0  0
  -21.1911   -6.8560   23.0223 C   0  0  0  0  0  0  0  0  0  0  0  0
  -19.7797   -6.7232   25.4249 C   0  0  0  0  0  0  0  0  0  0  0  0
  -28.9181  -20.2780   19.9255 C   0  0  0  0  0  0  0  0  0  0  0  0
  -21.5195   -5.8881   23.9714 C   0  0  0  0  0  0  0  0  0  0  0  0
  -24.6046  -11.6752   20.6764 C   0  0  0  0  0  0  0  0  0  0  0  0
  -25.1585  -13.7865   20.4105 C   0  0  0  0  0  0  0  0  0  0  0  0
  -26.5039  -21.7687   16.4334 C   0  0  0  0  0  0  0  0  0  0  0  0
  -27.6516  -22.3449   16.8083 C   0  0  0  0  0  0  0  0  0  0  0  0
  -22.8438  -13.4464   21.2908 C   0  0  0  0  0  0  0  0  0  0  0  0
  -34.7084  -29.7111   22.8286 C   0  0  0  0  0  0  0  0  0  0  0  0
  -37.3633  -28.3252   21.5824 C   0  0  0  0  0  0  0  0  0  0  0  0
  -30.4434  -22.6047   18.5062 C   0  0  0  0  0  0  0  0  0  0  0  0
  -38.7073  -25.8406   19.6673 C   0  0  0  0  0  0  0  0  0  0  0  0
  -30.7442  -14.7721   20.7928 C   0  0  0  0  0  0  0  0  0  0  0  0
  -33.6169  -33.0023   26.5748 C   0  0  0  0  0  0  0  0  0  0  0  0
  -34.3889  -27.3058   23.5129 C   0  0  0  0  0  0  0  0  0  0  0  0
  -35.1465  -27.5452   20.6645 C   0  0  0  0  0  0  0  0  0  0  0  0
  -34.8304  -32.7127   25.6952 C   0  0  0  0  0  0  0  0  0  0  0  0
  -29.4704  -12.6456   18.0438 C   0  0  0  0  0  0  0  0  0  0  0  0
  -34.4197  -32.6334   24.2283 C   0  0  0  0  0  0  0  0  0  0  0  0
  -28.0778  -12.2592   18.5394 C   0  0  0  0  0  0  0  0  0  0  0  0
  -30.4296  -12.9136   19.1996 C   0  0  0  0  0  0  0  0  0  0  0  0
  -28.5407  -13.5383   20.6679 C   0  0  0  0  0  0  0  0  0  0  0  0
  -33.4218  -31.4925   23.9957 C   0  0  1  0  0  0  0  0  0  0  0  0
  -35.3643  -28.3741   23.0283 C   0  0  1  0  0  0  0  0  0  0  0  0
  -27.5372  -13.3068   19.5282 C   0  0  2  0  0  0  0  0  0  0  0  0
  -40.9038  -24.9904   18.8014 C   0  0  0  0  0  0  0  0  0  0  0  0
  -37.4215  -30.5779   19.5253 C   0  0  0  0  0  0  0  0  0  0  0  0
  -38.9985  -29.1949   18.1583 C   0  0  0  0  0  0  0  0  0  0  0  0
  -39.6602  -29.9455   20.4434 C   0  0  0  0  0  0  0  0  0  0  0  0
  -31.0984  -16.9948   21.7995 C   0  0  0  0  0  0  0  0  0  0  0  0
  -38.3832  -23.2474   21.0563 C   0  0  0  0  0  0  0  0  0  0  0  0
  -28.9648  -16.5645   20.6384 C   0  0  0  0  0  0  0  0  0  0  0  0
  -28.9946  -21.7136   16.6395 C   0  0  0  0  0  0  0  0  0  0  0  0
  -30.6627  -23.8296   17.6178 C   0  0  0  0  0  0  0  0  0  0  0  0
  -31.5500  -24.8887   18.2615 C   0  0  0  0  0  0  0  0  0  1  0  0
  -37.9160  -28.1328   20.1908 C   0  0  1  0  0  0  0  0  0  0  0  0
  -39.8705  -24.8967   19.9132 C   0  0  2  0  0  0  0  0  0  0  0  0
  -38.4735  -29.4526   19.5869 C   0  0  0  0  0  0  0  0  0  0  0  0
  -25.8545  -11.6366   20.2071 N   0  0  0  0  0  0  0  0  0  0  0  0
  -26.1635  -12.9356   20.0552 N   0  0  0  0  0  0  0  0  0  0  0  0
  -36.0066  -28.0200   21.7610 N   0  0  0  0  0  0  0  0  0  0  0  0
  -29.8727  -13.8801   20.1466 N   0  0  0  0  0  0  0  0  0  0  0  0
  -25.3013  -15.1258   20.3205 N   0  0  0  0  0  0  0  0  0  0  0  0
  -21.8915  -12.4926   21.6751 N   0  0  0  0  0  0  0  0  0  0  0  0
  -34.1084  -30.2189   23.9650 N   0  0  0  0  0  0  0  0  0  0  0  0
  -38.8977  -27.0579   20.2864 N   0  0  0  0  0  0  0  0  0  0  0  0
  -29.6275  -21.5876   17.9617 N   0  0  0  0  0  0  0  0  0  0  0  0
  -30.2302  -16.0311   21.1382 N   0  0  0  0  0  0  0  0  0  0  0  0
  -39.3880  -23.4887   19.9889 N   0  3  0  0  0  0  0  0  0  0  0  0
  -22.5510  -14.6647   21.3500 O   0  0  0  0  0  0  0  0  0  0  0  0
  -34.7454  -30.2434   21.7254 O   0  0  0  0  0  0  0  0  0  0  0  0
  -38.1098  -28.7245   22.4796 O   0  0  0  0  0  0  0  0  0  0  0  0
  -30.9963  -22.5495   19.6075 O   0  0  0  0  0  0  0  0  0  0  0  0
  -37.7294  -25.5305   18.9905 O   0  0  0  0  0  0  0  0  0  0  0  0
  -31.9177  -14.4643   21.0380 O   0  0  0  0  0  0  0  0  0  0  0  0
  -21.8914   -6.9238   21.8295 O   0  0  0  0  0  0  0  0  0  0  0  0
  -30.9401  -25.3530   19.4651 O   0  0  0  0  0  0  0  0  0  1  0  0
  -19.1029   -6.6605   26.5791 F   0  0  0  0  0  0  0  0  0  0  0  0
  -28.5515  -21.4089   20.5454 F   0  0  0  0  0  0  0  0  0  0  0  0
  -22.5126   -5.0199   23.7353 F   0  0  0  0  0  0  0  0  0  0  0  0
  1  2  1  0  0  0  0
  1  5  2  0  0  0  0
  2  6  2  0  0  0  0
  3 10  2  0  0  0  0
  3 18  1  0  0  0  0
  4 11  1  0  0  0  0
  4 18  2  0  0  0  0
  5 20  1  0  0  0  0
  6 22  1  0  0  0  0
  7 12  2  0  0  0  0
  7 21  1  0  0  0  0
  8  9  2  0  0  0  0
  8 24  1  0  0  0  0
  9 25  1  0  0  0  0
 10 26  1  0  0  0  0
 11 26  2  0  0  0  0
 12 27  1  0  0  0  0
 13 14  2  0  0  0  0
 13 28  1  0  0  0  0
 14 29  1  0  0  0  0
 15 23  1  0  0  0  0
 15 27  2  0  0  0  0
 16 24  2  0  0  0  0
 16 30  1  0  0  0  0
 17 29  2  0  0  0  0
 17 31  1  0  0  0  0
 18 32  1  0  0  0  0
 19 32  1  0  0  0  0
 19 33  2  0  0  0  0
 19 36  1  0  0  0  0
 20 22  2  0  0  0  0
 20 42  1  0  0  0  0
 21 23  2  0  0  0  0
 21 43  1  0  0  0  0
 22 51  1  0  0  0  0
 23 44  1  0  0  0  0
 24 60  1  0  0  0  0
 25 30  2  0  0  0  0
 25 75  1  0  0  0  0
 26 84  1  0  0  0  0
 27 85  1  0  0  0  0
 28 31  2  0  0  0  0
 28 84  1  0  0  0  0
 29 86  1  0  0  0  0
 30 87  1  0  0  0  0
 31 88  1  0  0  0  0
 32 67  2  0  0  0  0
 33 68  1  0  0  0  0
 33 71  1  0  0  0  0
 34 35  2  0  0  0  0
 35 61  1  0  0  0  0
 36 72  1  0  0  0  0
 36 78  2  0  0  0  0
 37 52  1  0  0  0  0
 37 73  1  0  0  0  0
 37 79  2  0  0  0  0
 38 64  1  0  0  0  0
 38 69  1  0  0  0  0
 38 80  2  0  0  0  0
 39 62  1  0  0  0  0
 39 75  1  0  0  0  0
 39 81  2  0  0  0  0
 40 65  1  0  0  0  0
 40 74  1  0  0  0  0
 40 82  2  0  0  0  0
 41 70  1  0  0  0  0
 41 76  1  0  0  0  0
 41 83  2  0  0  0  0
 42 45  1  0  0  0  0
 43 52  1  0  0  0  0
 44 69  1  0  0  0  0
 45 47  1  0  0  0  0
 46 48  1  0  0  0  0
 46 49  1  0  0  0  0
 47 51  1  0  0  0  0
 48 53  1  0  0  0  0
 49 70  1  0  0  0  0
 50 53  1  0  0  0  0
 50 70  1  0  0  0  0
 51 73  1  0  0  0  0
 52 69  1  0  0  0  0
 53 68  1  0  0  0  0
 54 65  1  0  0  0  0
 55 66  1  0  0  0  0
 56 66  1  0  0  0  0
 57 66  1  0  0  0  0
 58 76  1  0  0  0  0
 59 77  1  0  0  0  0
 60 76  1  0  0  0  0
 61 75  1  0  0  0  0
 62 63  1  0  0  0  0
 63 85  1  0  0  0  0
 64 66  1  0  0  0  0
 64 74  1  0  0  0  0
 65 77  1  0  0  0  0
 67 68  1  0  0  0  0
M  CHG  1  77   1
M  ISO  4  41 100  63 101  76 100  85 101
M  END
> <Batch ID>
0020

> <Smiles>
C=CCN(C(=O)C[101CH2:1][101O:1]c1ccc2c(c1)CN(C(=O)C(NC(=O)C(C)NC)C(C)(C)C)C(C(=O)NC1CCCc3ccccc31)C2)c1ccc(C[100N:0](C)[100C:0](=O)N2CCCC(n3nc(-c4ccc(Oc5ccc(F)cc5F)cc4)c(C(N)=O)c3N)C2)cc1F

> <Shape>
0.246

> <Color>
0.200

> <Negative vol penalty>
0.000

$$$$

  -OEChem-04042321083D

 86 95  0     1  0  0  0  0  0999 V2000
  -16.9935  -29.0320   24.3191 C   0  0  0  0  0  0  0  0  0  0  0  0
  -17.6128  -28.0502   23.5523 C   0  0  0  0  0  0  0  0  0  0  0  0
  -28.5638  -19.6673   18.8488 C   0  0  0  0  0  0  0  0  0  0  0  0
  -29.2903  -20.1186   21.1084 C   0  0  0  0  0  0  0  0  0  0  0  0
  -17.4272  -30.3546   24.2386 C   0  0  0  0  0  0  0  0  0  0  0  0
  -18.6654  -28.3908   22.7035 C   0  0  0  0  0  0  0  0  0  0  0  0
  -22.5361  -25.1395   23.0079 C   0  0  0  0  0  0  0  0  0  0  0  0
  -22.8992  -15.1062   20.6872 C   0  0  0  0  0  0  0  0  0  0  0  0
  -23.8088  -14.0593   20.5381 C   0  0  0  0  0  0  0  0  0  0  0  0
  -28.1677  -20.9975   18.7105 C   0  0  0  0  0  0  0  0  0  0  0  0
  -28.8942  -21.4489   20.9700 C   0  0  0  0  0  0  0  0  0  0  0  0
  -22.4002  -23.9235   22.3396 C   0  0  0  0  0  0  0  0  0  0  0  0
  -29.6363  -23.9854   18.1205 C   0  0  0  0  0  0  0  0  0  0  0  0
  -29.9866  -24.6470   16.9436 C   0  0  0  0  0  0  0  0  0  0  0  0
  -23.7420  -24.7772   20.5258 C   0  0  0  0  0  0  0  0  0  0  0  0
  -23.4431  -15.8948   18.4693 C   0  0  0  0  0  0  0  0  0  0  0  0
  -27.6496  -25.0237   16.4599 C   0  0  0  0  0  0  0  0  0  0  0  0
  -29.1251  -19.2278   20.0478 C   0  0  0  0  0  0  0  0  0  0  0  0
  -30.7969  -17.3070   19.8949 C   0  0  0  0  0  0  0  0  0  0  0  0
  -18.4920  -30.7099   23.3956 C   0  0  0  0  0  0  0  0  0  0  0  0
  -23.2680  -26.1891   22.4342 C   0  0  0  0  0  0  0  0  0  0  0  0
  -19.1129  -29.7196   22.6106 C   0  0  0  0  0  0  0  0  0  0  0  0
  -23.8878  -26.0047   21.1900 C   0  0  0  0  0  0  0  0  0  0  0  0
  -22.7163  -16.0239   19.6528 C   0  0  0  0  0  0  0  0  0  0  0  0
  -24.5356  -13.9302   19.3546 C   0  0  0  0  0  0  0  0  0  0  0  0
  -28.3329  -21.8883   19.7710 C   0  0  0  0  0  0  0  0  0  0  0  0
  -23.0008  -23.7432   21.0971 C   0  0  0  0  0  0  0  0  0  0  0  0
  -28.2927  -23.8429   18.4671 C   0  0  0  0  0  0  0  0  0  0  0  0
  -28.9933  -25.1662   16.1133 C   0  0  0  0  0  0  0  0  0  0  0  0
  -24.3528  -14.8479   18.3201 C   0  0  0  0  0  0  0  0  0  0  0  0
  -27.2994  -24.3621   17.6368 C   0  0  0  0  0  0  0  0  0  0  0  0
  -29.5340  -17.8536   20.1916 C   0  0  0  0  0  0  0  0  0  0  0  0
  -30.6746  -15.9738   20.2014 C   0  0  0  0  0  0  0  0  0  0  0  0
  -22.3823  -19.5870   19.4092 C   0  0  0  0  0  0  0  0  0  0  0  0
  -31.9753  -17.9472   19.3877 C   0  0  0  0  0  0  0  0  0  0  0  0
  -22.5820  -29.1417   21.4776 C   0  0  0  0  0  0  0  0  0  0  0  0
  -25.7881  -29.3194   21.0171 C   0  0  0  0  0  0  0  0  0  0  0  0
  -28.7291  -27.6828   20.4527 C   0  0  0  0  0  0  0  0  0  0  0  0
  -26.1542  -12.3036   20.3166 C   0  0  0  0  0  0  0  0  0  0  0  0
  -18.8946  -32.1607   23.3067 C   0  0  0  0  0  0  0  0  0  0  0  0
  -23.4275  -27.4855   23.1800 C   0  0  0  0  0  0  0  0  0  0  0  0
  -24.7012  -27.0931   20.5402 C   0  0  0  0  0  0  0  0  0  0  0  0
  -20.2623  -32.3749   22.6636 C   0  0  0  0  0  0  0  0  0  0  0  0
  -28.2965  -12.9861   23.0712 C   0  0  0  0  0  0  0  0  0  0  0  0
  -20.3900  -31.5437   21.3910 C   0  0  0  0  0  0  0  0  0  0  0  0
  -28.9766  -14.2762   22.6143 C   0  0  0  0  0  0  0  0  0  0  0  0
  -26.8164  -12.9528   22.6886 C   0  0  0  0  0  0  0  0  0  0  0  0
  -23.2068  -18.8205   21.1836 C   0  0  0  0  0  0  0  0  0  0  0  0
  -27.2424  -14.4846   20.7922 C   0  0  0  0  0  0  0  0  0  0  0  0
  -20.2742  -30.0455   21.6967 C   0  0  1  0  0  0  0  0  0  0  0  0
  -23.3017  -20.2059   20.4887 C   0  0  2  0  0  0  0  0  0  0  0  0
  -23.7657  -28.6613   22.2687 C   0  0  1  0  0  0  0  0  0  0  0  0
  -28.7448  -14.5207   21.1128 C   0  0  1  0  0  0  0  0  0  0  0  0
  -31.1760  -28.0995   20.0837 C   0  0  0  0  0  0  0  0  0  0  0  0
  -25.2019  -30.2165   18.1603 C   0  0  0  0  0  0  0  0  0  0  0  0
  -27.5829  -29.6999   17.5837 C   0  0  0  0  0  0  0  0  0  0  0  0
  -27.0646  -31.4533   19.2807 C   0  0  0  0  0  0  0  0  0  0  0  0
  -25.5417  -12.1503   17.9131 C   0  0  0  0  0  0  0  0  0  0  0  0
  -29.4741  -26.1432   22.8680 C   0  0  0  0  0  0  0  0  0  0  0  0
  -21.7381  -17.1515   19.8136 C   0  0  0  0  0  0  0  0  0  0  0  0
  -22.7215  -21.3859   21.2438 C   0  0  0  0  0  0  0  0  0  1  0  0
  -26.7216  -29.0186   19.8695 C   0  0  1  0  0  0  0  0  0  0  0  0
  -30.0923  -27.8056   21.1093 C   0  0  2  0  0  0  0  0  0  0  0  0
  -26.6259  -30.0770   18.7346 C   0  0  0  0  0  0  0  0  0  0  0  0
  -28.6726  -16.9421   20.6511 N   0  0  0  0  0  0  0  0  0  0  0  0
  -29.3956  -15.8092   20.6454 N   0  0  0  0  0  0  0  0  0  0  0  0
  -22.3946  -18.3995   20.0544 N   0  0  0  0  0  0  0  0  0  0  0  0
  -24.8226  -28.3446   21.3060 N   0  0  0  0  0  0  0  0  0  0  0  0
  -26.6422  -13.2314   21.2561 N   0  0  0  0  0  0  0  0  0  0  0  0
  -31.5374  -14.9379   20.1317 N   0  0  0  0  0  0  0  0  0  0  0  0
  -31.9283  -19.3235   19.1271 N   0  0  0  0  0  0  0  0  0  0  0  0
  -21.5130  -29.5462   22.2541 N   0  0  0  0  0  0  0  0  0  0  0  0
  -28.0530  -28.8845   20.4508 N   0  0  0  0  0  0  0  0  0  0  0  0
  -25.4770  -12.8457   19.2031 N   0  0  0  0  0  0  0  0  0  0  0  0
  -30.4434  -26.5406   21.8146 N   0  3  0  0  0  0  0  0  0  0  0  0
  -21.8432  -19.9697   18.3964 O   0  0  0  0  0  0  0  0  0  0  0  0
  -33.0334  -17.3144   19.1564 O   0  0  0  0  0  0  0  0  0  0  0  0
  -22.6353  -29.1464   20.2533 O   0  0  0  0  0  0  0  0  0  0  0  0
  -25.9155  -30.3771   21.6391 O   0  0  0  0  0  0  0  0  0  0  0  0
  -28.3078  -26.6273   19.9847 O   0  0  0  0  0  0  0  0  0  0  0  0
  -26.3326  -11.0867   20.4485 O   0  0  0  0  0  0  0  0  0  0  0  0
  -27.9466  -23.1865   19.6363 O   0  0  0  0  0  0  0  0  0  0  0  0
  -22.8692  -22.5574   20.4424 O   0  0  0  0  0  0  0  0  0  1  0  0
  -29.3298  -25.8029   14.9839 F   0  0  0  0  0  0  0  0  0  0  0  0
  -25.0470  -14.7344   17.1788 F   0  0  0  0  0  0  0  0  0  0  0  0
  -26.0070  -24.2293   17.9651 F   0  0  0  0  0  0  0  0  0  0  0  0
  1  2  1  0  0  0  0
  1  5  2  0  0  0  0
  2  6  2  0  0  0  0
  3 10  2  0  0  0  0
  3 18  1  0  0  0  0
  4 11  1  0  0  0  0
  4 18  2  0  0  0  0
  5 20  1  0  0  0  0
  6 22  1  0  0  0  0
  7 12  2  0  0  0  0
  7 21  1  0  0  0  0
  8  9  2  0  0  0  0
  8 24  1  0  0  0  0
  9 25  1  0  0  0  0
 10 26  1  0  0  0  0
 11 26  2  0  0  0  0
 12 27  1  0  0  0  0
 13 14  2  0  0  0  0
 13 28  1  0  0  0  0
 14 29  1  0  0  0  0
 15 23  1  0  0  0  0
 15 27  2  0  0  0  0
 16 24  2  0  0  0  0
 16 30  1  0  0  0  0
 17 29  2  0  0  0  0
 17 31  1  0  0  0  0
 18 32  1  0  0  0  0
 19 32  1  0  0  0  0
 19 33  2  0  0  0  0
 19 35  1  0  0  0  0
 20 22  2  0  0  0  0
 20 40  1  0  0  0  0
 21 23  2  0  0  0  0
 21 41  1  0  0  0  0
 22 50  1  0  0  0  0
 23 42  1  0  0  0  0
 24 60  1  0  0  0  0
 25 30  2  0  0  0  0
 25 74  1  0  0  0  0
 26 82  1  0  0  0  0
 27 83  1  0  0  0  0
 28 31  2  0  0  0  0
 28 82  1  0  0  0  0
 29 84  1  0  0  0  0
 30 85  1  0  0  0  0
 31 86  1  0  0  0  0
 32 65  2  0  0  0  0
 33 66  1  0  0  0  0
 33 70  1  0  0  0  0
 34 51  1  0  0  0  0
 34 67  1  0  0  0  0
 34 76  2  0  0  0  0
 35 71  1  0  0  0  0
 35 77  2  0  0  0  0
 36 52  1  0  0  0  0
 36 72  1  0  0  0  0
 36 78  2  0  0  0  0
 37 62  1  0  0  0  0
 37 68  1  0  0  0  0
 37 79  2  0  0  0  0
 38 63  1  0  0  0  0
 38 73  1  0  0  0  0
 38 80  2  0  0  0  0
 39 69  1  0  0  0  0
 39 74  1  0  0  0  0
 39 81  2  0  0  0  0
 40 43  1  0  0  0  0
 41 52  1  0  0  0  0
 42 68  1  0  0  0  0
 43 45  1  0  0  0  0
 44 46  1  0  0  0  0
 44 47  1  0  0  0  0
 45 50  1  0  0  0  0
 46 53  1  0  0  0  0
 47 69  1  0  0  0  0
 48 51  1  0  0  0  0
 48 67  1  0  0  0  0
 49 53  1  0  0  0  0
 49 69  1  0  0  0  0
 50 72  1  0  0  0  0
 51 61  1  0  0  0  0
 52 68  1  0  0  0  0
 53 66  1  0  0  0  0
 54 63  1  0  0  0  0
 55 64  1  0  0  0  0
 56 64  1  0  0  0  0
 57 64  1  0  0  0  0
 58 74  1  0  0  0  0
 59 75  1  0  0  0  0
 60 67  1  0  0  0  0
 61 83  1  0  0  0  0
 62 64  1  0  0  0  0
 62 73  1  0  0  0  0
 63 75  1  0  0  0  0
 65 66  1  0  0  0  0
M  CHG  1  75   1
M  ISO  4  39 100  61 101  74 100  83 101
M  END
> <Batch ID>
0020

> <Smiles>
CNC(C)C(=O)NC(C(=O)N1Cc2cc([101O:1][101CH2:1]C3CN(Cc4ccc([100N:0](C)[100C:0](=O)N5CCCC(n6nc(-c7ccc(Oc8ccc(F)cc8F)cc7)c(C(N)=O)c6N)C5)c(F)c4)C3=O)ccc2CC1C(=O)NC1CCCc2ccccc21)C(C)(C)C

> <Shape>
0.242

> <Color>
0.090

> <Negative vol penalty>
0.000

$$$$

  -OEChem-04042321083D

 85 93  0     1  0  0  0  0  0999 V2000
  -22.3864   -7.4257   19.6822 C   0  0  0  0  0  0  0  0  0  0  0  0
  -22.8959   -8.4896   18.9446 C   0  0  0  0  0  0  0  0  0  0  0  0
  -22.6772  -29.7764   21.0694 C   0  0  0  0  0  0  0  0  0  0  0  0
  -23.9234  -29.6073   23.1322 C   0  0  0  0  0  0  0  0  0  0  0  0
  -28.7196  -20.1083   16.3229 C   0  0  0  0  0  0  0  0  0  0  0  0
  -21.6429   -7.6715   20.8358 C   0  0  0  0  0  0  0  0  0  0  0  0
  -22.6612   -9.8000   19.3596 C   0  0  0  0  0  0  0  0  0  0  0  0
  -26.8172  -12.6843   19.1297 C   0  0  0  0  0  0  0  0  0  0  0  0
  -29.2128  -21.1730   17.0771 C   0  0  0  0  0  0  0  0  0  0  0  0
  -21.5722  -30.2512   21.7758 C   0  0  0  0  0  0  0  0  0  0  0  0
  -22.8184  -30.0822   23.8387 C   0  0  0  0  0  0  0  0  0  0  0  0
  -27.1953  -13.1574   17.8739 C   0  0  0  0  0  0  0  0  0  0  0  0
  -18.3043  -31.1677   23.0813 C   0  0  0  0  0  0  0  0  0  0  0  0
  -17.0545  -30.6326   22.7695 C   0  0  0  0  0  0  0  0  0  0  0  0
  -26.1914  -15.2912   18.3823 C   0  0  0  0  0  0  0  0  0  0  0  0
  -30.5610  -19.6363   18.3649 C   0  0  0  0  0  0  0  0  0  0  0  0
  -17.8455  -28.4318   23.3757 C   0  0  0  0  0  0  0  0  0  0  0  0
  -23.8528  -29.4544   21.7476 C   0  0  0  0  0  0  0  0  0  0  0  0
  -29.1470  -18.8076   16.5898 C   0  0  0  0  0  0  0  0  0  0  0  0
  -26.0342  -29.7255   20.4531 C   0  0  0  0  0  0  0  0  0  0  0  0
  -21.4072   -8.9853   21.2704 C   0  0  0  0  0  0  0  0  0  0  0  0
  -26.1127  -13.5090   20.0185 C   0  0  0  0  0  0  0  0  0  0  0  0
  -21.9127  -10.0636   20.5194 C   0  0  0  0  0  0  0  0  0  0  0  0
  -25.8079  -14.8270   19.6497 C   0  0  0  0  0  0  0  0  0  0  0  0
  -30.1335  -20.9370   18.0981 C   0  0  0  0  0  0  0  0  0  0  0  0
  -21.6428  -30.4042   23.1605 C   0  0  0  0  0  0  0  0  0  0  0  0
  -26.8799  -14.4600   17.4989 C   0  0  0  0  0  0  0  0  0  0  0  0
  -19.3248  -30.3348   23.5402 C   0  0  0  0  0  0  0  0  0  0  0  0
  -16.8251  -29.2647   22.9167 C   0  0  0  0  0  0  0  0  0  0  0  0
  -30.0677  -18.5716   17.6107 C   0  0  0  0  0  0  0  0  0  0  0  0
  -19.0954  -28.9669   23.6875 C   0  0  0  0  0  0  0  0  0  0  0  0
  -24.9944  -28.9633   21.0185 C   0  0  0  0  0  0  0  0  0  0  0  0
  -26.8657  -28.7972   19.8757 C   0  0  0  0  0  0  0  0  0  0  0  0
  -28.6199  -17.6758   15.7846 C   0  0  0  0  0  0  0  0  0  0  0  0
  -26.2309  -31.1457   20.4501 C   0  0  0  0  0  0  0  0  0  0  0  0
  -23.2472  -13.3974   21.3897 C   0  0  0  0  0  0  0  0  0  0  0  0
  -24.3350  -16.0099   22.9753 C   0  0  0  0  0  0  0  0  0  0  0  0
  -26.4709  -18.6704   23.0536 C   0  0  0  0  0  0  0  0  0  0  0  0
  -29.3088  -23.9137   19.8364 C   0  0  0  0  0  0  0  0  0  0  0  0
  -20.5578   -9.2025   22.4976 C   0  0  0  0  0  0  0  0  0  0  0  0
  -25.7356  -12.9923   21.3798 C   0  0  0  0  0  0  0  0  0  0  0  0
  -25.0708  -15.7591   20.5751 C   0  0  0  0  0  0  0  0  0  0  0  0
  -20.6715  -10.6108   23.0757 C   0  0  0  0  0  0  0  0  0  0  0  0
  -25.6076  -24.0926   20.4431 C   0  0  0  0  0  0  0  0  0  0  0  0
  -20.5628  -11.6532   21.9673 C   0  0  0  0  0  0  0  0  0  0  0  0
  -25.6877  -25.2049   19.3975 C   0  0  0  0  0  0  0  0  0  0  0  0
  -26.9486  -23.3689   20.6099 C   0  0  0  0  0  0  0  0  0  0  0  0
  -27.8238  -25.6790   20.7241 C   0  0  0  0  0  0  0  0  0  0  0  0
  -21.7006  -11.4985   20.9509 C   0  0  1  0  0  0  0  0  0  0  0  0
  -24.5707  -13.7528   22.0060 C   0  0  1  0  0  0  0  0  0  0  0  0
  -26.8160  -26.2208   19.6952 C   0  0  2  0  0  0  0  0  0  0  0  0
  -27.1005  -20.6504   24.4609 C   0  0  0  0  0  0  0  0  0  0  0  0
  -21.8173  -17.4646   22.0505 C   0  0  0  0  0  0  0  0  0  0  0  0
  -22.9300  -19.6258   22.6501 C   0  0  0  0  0  0  0  0  0  0  0  0
  -22.4780  -17.9251   24.4182 C   0  0  0  0  0  0  0  0  0  0  0  0
  -29.3650  -21.6423   20.9571 C   0  0  0  0  0  0  0  0  0  0  0  0
  -29.2434  -17.6928   23.3949 C   0  0  0  0  0  0  0  0  0  0  0  0
  -30.6608  -22.0756   18.9042 C   0  0  0  0  0  0  0  0  0  0  0  0
  -29.1169  -15.4319   14.8498 C   0  0  0  0  0  0  0  0  0  0  0  0
  -28.4333  -14.3760   15.7001 C   0  0  0  0  0  0  0  0  0  1  0  0
  -24.3087  -17.4988   22.7274 C   0  0  1  0  0  0  0  0  0  0  0  0
  -27.3908  -19.1919   24.1428 C   0  0  2  0  0  0  0  0  0  0  0  0
  -22.8957  -18.1107   22.9431 C   0  0  0  0  0  0  0  0  0  0  0  0
  -25.1489  -27.6517   20.8182 N   0  0  0  0  0  0  0  0  0  0  0  0
  -26.2954  -27.5827   20.1205 N   0  0  0  0  0  0  0  0  0  0  0  0
  -24.7180  -15.2053   21.8929 N   0  0  0  0  0  0  0  0  0  0  0  0
  -28.1030  -24.2677   20.4649 N   0  0  0  0  0  0  0  0  0  0  0  0
  -28.0216  -28.9096   19.1874 N   0  0  0  0  0  0  0  0  0  0  0  0
  -25.2804  -31.9532   21.0896 N   0  0  0  0  0  0  0  0  0  0  0  0
  -29.4738  -16.5921   15.6224 N   0  0  0  0  0  0  0  0  0  0  0  0
  -22.9279  -12.0558   21.4775 N   0  0  0  0  0  0  0  0  0  0  0  0
  -25.3448  -18.0728   23.5790 N   0  0  0  0  0  0  0  0  0  0  0  0
  -29.6895  -22.5646   19.8732 N   0  0  0  0  0  0  0  0  0  0  0  0
  -28.8144  -19.0782   23.7168 N   0  3  0  0  0  0  0  0  0  0  0  0
  -27.4953  -17.7584   15.2976 O   0  0  0  0  0  0  0  0  0  0  0  0
  -27.2116  -31.6840   19.8827 O   0  0  0  0  0  0  0  0  0  0  0  0
  -22.5655  -14.2756   20.8742 O   0  0  0  0  0  0  0  0  0  0  0  0
  -24.0338  -15.5772   24.0905 O   0  0  0  0  0  0  0  0  0  0  0  0
  -26.7240  -18.7853   21.8564 O   0  0  0  0  0  0  0  0  0  0  0  0
  -30.0036  -24.7589   19.2565 O   0  0  0  0  0  0  0  0  0  0  0  0
  -20.5648  -30.8677   23.8501 O   0  0  0  0  0  0  0  0  0  0  0  0
  -27.2471  -14.9241   16.2735 O   0  0  0  0  0  0  0  0  0  1  0  0
  -15.6243  -28.7512   22.6188 F   0  0  0  0  0  0  0  0  0  0  0  0
  -30.4855  -17.3256   17.8753 F   0  0  0  0  0  0  0  0  0  0  0  0
  -20.0715  -28.1619   24.1291 F   0  0  0  0  0  0  0  0  0  0  0  0
  1  2  1  0  0  0  0
  1  6  2  0  0  0  0
  2  7  2  0  0  0  0
  3 10  2  0  0  0  0
  3 18  1  0  0  0  0
  4 11  1  0  0  0  0
  4 18  2  0  0  0  0
  5  9  2  0  0  0  0
  5 19  1  0  0  0  0
  6 21  1  0  0  0  0
  7 23  1  0  0  0  0
  8 12  2  0  0  0  0
  8 22  1  0  0  0  0
  9 25  1  0  0  0  0
 10 26  1  0  0  0  0
 11 26  2  0  0  0  0
 12 27  1  0  0  0  0
 13 14  2  0  0  0  0
 13 28  1  0  0  0  0
 14 29  1  0  0  0  0
 15 24  1  0  0  0  0
 15 27  2  0  0  0  0
 16 25  2  0  0  0  0
 16 30  1  0  0  0  0
 17 29  2  0  0  0  0
 17 31  1  0  0  0  0
 18 32  1  0  0  0  0
 19 30  2  0  0  0  0
 19 34  1  0  0  0  0
 20 32  1  0  0  0  0
 20 33  2  0  0  0  0
 20 35  1  0  0  0  0
 21 23  2  0  0  0  0
 21 40  1  0  0  0  0
 22 24  2  0  0  0  0
 22 41  1  0  0  0  0
 23 49  1  0  0  0  0
 24 42  1  0  0  0  0
 25 58  1  0  0  0  0
 26 81  1  0  0  0  0
 27 82  1  0  0  0  0
 28 31  2  0  0  0  0
 28 81  1  0  0  0  0
 29 83  1  0  0  0  0
 30 84  1  0  0  0  0
 31 85  1  0  0  0  0
 32 64  2  0  0  0  0
 33 65  1  0  0  0  0
 33 68  1  0  0  0  0
 34 70  1  0  0  0  0
 34 75  2  0  0  0  0
 35 69  1  0  0  0  0
 35 76  2  0  0  0  0
 36 50  1  0  0  0  0
 36 71  1  0  0  0  0
 36 77  2  0  0  0  0
 37 61  1  0  0  0  0
 37 66  1  0  0  0  0
 37 78  2  0  0  0  0
 38 62  1  0  0  0  0
 38 72  1  0  0  0  0
 38 79  2  0  0  0  0
 39 67  1  0  0  0  0
 39 73  1  0  0  0  0
 39 80  2  0  0  0  0
 40 43  1  0  0  0  0
 41 50  1  0  0  0  0
 42 66  1  0  0  0  0
 43 45  1  0  0  0  0
 44 46  1  0  0  0  0
 44 47  1  0  0  0  0
 45 49  1  0  0  0  0
 46 51  1  0  0  0  0
 47 67  1  0  0  0  0
 48 51  1  0  0  0  0
 48 67  1  0  0  0  0
 49 71  1  0  0  0  0
 50 66  1  0  0  0  0
 51 65  1  0  0  0  0
 52 62  1  0  0  0  0
 53 63  1  0  0  0  0
 54 63  1  0  0  0  0
 55 63  1  0  0  0  0
 56 73  1  0  0  0  0
 57 74  1  0  0  0  0
 58 73  1  0  0  0  0
 59 60  1  0  0  0  0
 59 70  1  0  0  0  0
 60 82  1  0  0  0  0
 61 63  1  0  0  0  0
 61 72  1  0  0  0  0
 62 74  1  0  0  0  0
 64 65  1  0  0  0  0
M  CHG  1  74   1
M  ISO  4  39 100  60 101  73 100  82 101
M  END
> <Batch ID>
0020

> <Smiles>
CNC(C)C(=O)NC(C(=O)N1Cc2cc([101O:1][101CH2:1]CNC(=O)c3ccc(C[100N:0](C)[100C:0](=O)N4CCCC(n5nc(-c6ccc(Oc7ccc(F)cc7F)cc6)c(C(N)=O)c5N)C4)cc3F)ccc2CC1C(=O)NC1CCCc2ccccc21)C(C)(C)C

> <Shape>
0.240

> <Color>
0.061

> <Negative vol penalty>
0.000

$$$$

  -OEChem-04042321083D

 87 95  0     1  0  0  0  0  0999 V2000
  -30.1152  -12.7260   19.6726 C   0  0  0  0  0  0  0  0  0  0  0  0
  -29.9461  -14.0268   20.1361 C   0  0  0  0  0  0  0  0  0  0  0  0
  -18.0645  -28.4349   22.5248 C   0  0  0  0  0  0  0  0  0  0  0  0
  -29.0228  -21.7007   22.8714 C   0  0  0  0  0  0  0  0  0  0  0  0
  -27.3734  -21.2902   21.1545 C   0  0  0  0  0  0  0  0  0  0  0  0
  -29.0585  -12.0680   19.0446 C   0  0  0  0  0  0  0  0  0  0  0  0
  -28.7204  -14.6708   19.9707 C   0  0  0  0  0  0  0  0  0  0  0  0
  -24.4455  -19.4447   23.1724 C   0  0  0  0  0  0  0  0  0  0  0  0
  -19.2512  -29.0315   22.9507 C   0  0  0  0  0  0  0  0  0  0  0  0
  -18.0704  -27.1155   22.0722 C   0  0  0  0  0  0  0  0  0  0  0  0
  -29.1222  -20.3290   23.1039 C   0  0  0  0  0  0  0  0  0  0  0  0
  -27.4728  -19.9184   21.3869 C   0  0  0  0  0  0  0  0  0  0  0  0
  -23.7636  -20.6306   22.9035 C   0  0  0  0  0  0  0  0  0  0  0  0
  -30.0753  -16.9125   23.9004 C   0  0  0  0  0  0  0  0  0  0  0  0
  -31.3526  -16.3682   24.0337 C   0  0  0  0  0  0  0  0  0  0  0  0
  -21.9847  -19.3674   21.8744 C   0  0  0  0  0  0  0  0  0  0  0  0
  -20.4499  -26.9893   22.4713 C   0  0  0  0  0  0  0  0  0  0  0  0
  -31.9043  -17.1165   21.8037 C   0  0  0  0  0  0  0  0  0  0  0  0
  -28.1483  -22.1813   21.8967 C   0  0  0  0  0  0  0  0  0  0  0  0
  -28.7998  -24.3638   20.7479 C   0  0  0  0  0  0  0  0  0  0  0  0
  -27.8163  -12.7009   18.8800 C   0  0  0  0  0  0  0  0  0  0  0  0
  -23.9064  -18.2099   22.7840 C   0  0  0  0  0  0  0  0  0  0  0  0
  -27.6465  -14.0212   19.3386 C   0  0  0  0  0  0  0  0  0  0  0  0
  -22.6606  -18.1670   22.1419 C   0  0  0  0  0  0  0  0  0  0  0  0
  -20.4439  -28.3087   22.9240 C   0  0  0  0  0  0  0  0  0  0  0  0
  -19.2631  -26.3927   22.0455 C   0  0  0  0  0  0  0  0  0  0  0  0
  -28.3472  -19.4378   22.3617 C   0  0  0  0  0  0  0  0  0  0  0  0
  -22.5344  -20.5923   22.2518 C   0  0  0  0  0  0  0  0  0  0  0  0
  -29.7124  -17.5587   22.7187 C   0  0  0  0  0  0  0  0  0  0  0  0
  -32.2671  -16.4702   22.9854 C   0  0  0  0  0  0  0  0  0  0  0  0
  -30.6269  -17.6607   21.6704 C   0  0  0  0  0  0  0  0  0  0  0  0
  -28.0448  -23.5982   21.6565 C   0  0  0  0  0  0  0  0  0  0  0  0
  -28.3236  -25.6433   20.8983 C   0  0  0  0  0  0  0  0  0  0  0  0
  -29.8386  -23.9549   19.8483 C   0  0  0  0  0  0  0  0  0  0  0  0
  -24.8197  -15.8805   20.8235 C   0  0  0  0  0  0  0  0  0  0  0  0
  -22.2181  -14.3695   22.0363 C   0  0  0  0  0  0  0  0  0  0  0  0
  -18.8262  -15.2476   22.8976 C   0  0  0  0  0  0  0  0  0  0  0  0
  -23.5937  -28.4977   21.7465 C   0  0  0  0  0  0  0  0  0  0  0  0
  -26.7181  -11.9664   18.1527 C   0  0  0  0  0  0  0  0  0  0  0  0
  -24.6418  -16.9377   23.1053 C   0  0  0  0  0  0  0  0  0  0  0  0
  -22.0290  -16.8657   21.7223 C   0  0  0  0  0  0  0  0  0  0  0  0
  -25.3365  -12.5845   18.3514 C   0  0  0  0  0  0  0  0  0  0  0  0
  -25.8594  -28.0653   24.4208 C   0  0  0  0  0  0  0  0  0  0  0  0
  -25.3967  -14.0972   18.1647 C   0  0  0  0  0  0  0  0  0  0  0  0
  -26.7346  -26.9284   23.8952 C   0  0  0  0  0  0  0  0  0  0  0  0
  -24.3835  -27.8621   24.0733 C   0  0  0  0  0  0  0  0  0  0  0  0
  -25.0095  -26.4980   22.1061 C   0  0  0  0  0  0  0  0  0  0  0  0
  -26.3245  -14.7444   19.2000 C   0  0  1  0  0  0  0  0  0  0  0  0
  -24.2411  -15.7724   22.2059 C   0  0  1  0  0  0  0  0  0  0  0  0
  -26.5049  -26.7081   22.3899 C   0  0  2  0  0  0  0  0  0  0  0  0
  -17.2576  -14.2427   24.5789 C   0  0  0  0  0  0  0  0  0  0  0  0
  -23.8757  -31.9967   22.5733 C   0  0  0  0  0  0  0  0  0  0  0  0
  -22.8045  -32.6430   20.4030 C   0  0  0  0  0  0  0  0  0  0  0  0
  -21.2178  -12.7091   19.6799 C   0  0  0  0  0  0  0  0  0  0  0  0
  -18.8959  -12.9520   20.5842 C   0  0  0  0  0  0  0  0  0  0  0  0
  -20.6403  -11.7815   21.9294 C   0  0  0  0  0  0  0  0  0  0  0  0
  -18.0224  -24.4410   21.1446 C   0  0  0  0  0  0  0  0  0  0  0  0
  -18.3941  -17.8566   24.2262 C   0  0  0  0  0  0  0  0  0  0  0  0
  -21.7125  -28.9471   23.3787 C   0  0  0  0  0  0  0  0  0  0  0  0
  -20.8081  -23.6980   22.9024 C   0  0  0  0  0  0  0  0  0  0  0  0
  -20.4867  -24.2940   21.5372 C   0  0  0  0  0  0  0  0  0  0  0  0
  -22.1519  -30.4820   21.4980 C   0  0  0  0  0  0  0  0  0  0  0  0
  -22.0632  -22.8333   22.8936 C   0  0  0  0  0  0  0  0  0  1  0  0
  -20.7566  -14.2933   21.6657 C   0  0  1  0  0  0  0  0  0  0  0  0
  -18.2446  -15.3643   24.2949 C   0  0  2  0  0  0  0  0  0  0  0  0
  -23.2955  -31.4738   21.2573 C   0  0  0  0  0  0  0  0  0  0  0  0
  -20.3934  -12.9570   20.9588 C   0  0  0  0  0  0  0  0  0  0  0  0
  -27.1565  -24.3303   22.3341 N   0  0  0  0  0  0  0  0  0  0  0  0
  -27.3504  -25.5693   21.8510 N   0  0  0  0  0  0  0  0  0  0  0  0
  -22.7899  -15.6495   22.0531 N   0  0  0  0  0  0  0  0  0  0  0  0
  -24.2140  -27.6081   22.6361 N   0  0  0  0  0  0  0  0  0  0  0  0
  -28.6466  -26.8132   20.3072 N   0  0  0  0  0  0  0  0  0  0  0  0
  -30.2048  -22.6023   19.8210 N   0  0  0  0  0  0  0  0  0  0  0  0
  -25.6619  -14.8392   20.4831 N   0  0  0  0  0  0  0  0  0  0  0  0
  -20.0105  -14.5413   22.8946 N   0  0  0  0  0  0  0  0  0  0  0  0
  -19.2689  -25.0662   21.5909 N   0  0  3  0  0  0  0  0  0  0  0  0
  -22.5793  -29.3184   22.2620 N   0  0  0  0  0  0  0  0  0  0  0  0
  -17.5359  -16.6655   24.4540 N   0  3  0  0  0  0  0  0  0  0  0  0
  -30.4362  -24.7679   19.1029 O   0  0  0  0  0  0  0  0  0  0  0  0
  -24.5228  -16.8370   20.1173 O   0  0  0  0  0  0  0  0  0  0  0  0
  -22.8279  -13.3323   22.3080 O   0  0  0  0  0  0  0  0  0  0  0  0
  -18.2824  -15.7312   21.9072 O   0  0  0  0  0  0  0  0  0  0  0  0
  -23.9218  -28.5510   20.5542 O   0  0  0  0  0  0  0  0  0  0  0  0
  -28.4441  -18.0992   22.5881 O   0  0  0  0  0  0  0  0  0  0  0  0
  -21.8670  -21.7485   21.9875 O   0  0  0  0  0  0  0  0  0  1  0  0
  -33.4942  -15.9489   23.1142 F   0  0  0  0  0  0  0  0  0  0  0  0
  -30.2844  -18.2814   20.5331 F   0  0  0  0  0  0  0  0  0  0  0  0
  1  2  1  0  0  0  0
  1  6  2  0  0  0  0
  2  7  2  0  0  0  0
  3  9  1  0  0  0  0
  3 10  2  0  0  0  0
  4 11  2  0  0  0  0
  4 19  1  0  0  0  0
  5 12  1  0  0  0  0
  5 19  2  0  0  0  0
  6 21  1  0  0  0  0
  7 23  1  0  0  0  0
  8 13  2  0  0  0  0
  8 22  1  0  0  0  0
  9 25  2  0  0  0  0
 10 26  1  0  0  0  0
 11 27  1  0  0  0  0
 12 27  2  0  0  0  0
 13 28  1  0  0  0  0
 14 15  2  0  0  0  0
 14 29  1  0  0  0  0
 15 30  1  0  0  0  0
 16 24  1  0  0  0  0
 16 28  2  0  0  0  0
 17 25  1  0  0  0  0
 17 26  2  0  0  0  0
 18 30  2  0  0  0  0
 18 31  1  0  0  0  0
 19 32  1  0  0  0  0
 20 32  1  0  0  0  0
 20 33  2  0  0  0  0
 20 34  1  0  0  0  0
 21 23  2  0  0  0  0
 21 39  1  0  0  0  0
 22 24  2  0  0  0  0
 22 40  1  0  0  0  0
 23 48  1  0  0  0  0
 24 41  1  0  0  0  0
 25 59  1  0  0  0  0
 26 76  1  0  0  0  0
 27 84  1  0  0  0  0
 28 85  1  0  0  0  0
 29 31  2  0  0  0  0
 29 84  1  0  0  0  0
 30 86  1  0  0  0  0
 31 87  1  0  0  0  0
 32 68  2  0  0  0  0
 33 69  1  0  0  0  0
 33 72  1  0  0  0  0
 34 73  1  0  0  0  0
 34 79  2  0  0  0  0
 35 49  1  0  0  0  0
 35 74  1  0  0  0  0
 35 80  2  0  0  0  0
 36 64  1  0  0  0  0
 36 70  1  0  0  0  0
 36 81  2  0  0  0  0
 37 65  1  0  0  0  0
 37 75  1  0  0  0  0
 37 82  2  0  0  0  0
 38 71  1  0  0  0  0
 38 77  1  0  0  0  0
 38 83  2  0  0  0  0
 39 42  1  0  0  0  0
 40 49  1  0  0  0  0
 41 70  1  0  0  0  0
 42 44  1  0  0  0  0
 43 45  1  0  0  0  0
 43 46  1  0  0  0  0
 44 48  1  0  0  0  0
 45 50  1  0  0  0  0
 46 71  1  0  0  0  0
 47 50  1  0  0  0  0
 47 71  1  0  0  0  0
 48 74  1  0  0  0  0
 49 70  1  0  0  0  0
 50 69  1  0  0  0  0
 51 65  1  0  0  0  0
 52 66  1  0  0  0  0
 53 66  1  0  0  0  0
 54 67  1  0  0  0  0
 55 67  1  0  0  0  0
 56 67  1  0  0  0  0
 57 76  1  0  0  0  0
 58 78  1  0  0  0  0
 59 77  1  0  0  0  0
 60 61  1  0  0  0  0
 60 63  1  0  0  0  0
 61 76  1  0  0  0  0
 62 66  1  0  0  0  0
 62 77  1  0  0  0  0
 63 85  1  0  0  0  0
 64 67  1  0  0  0  0
 64 75  1  0  0  0  0
 65 78  1  0  0  0  0
 68 69  1  0  0  0  0
M  CHG  1  78   1
M  ISO  4  38 100  63 101  77 100  85 101
M  END
> <Batch ID>
0020

> <Smiles>
CNC(C)C(=O)NC(C(=O)N1Cc2cc([101O:1][101CH2:1]CCN(C)c3cccc(C[100N:0](CC(C)C)[100C:0](=O)N4CCCC(n5nc(-c6ccc(Oc7ccc(F)cc7F)cc6)c(C(N)=O)c5N)C4)c3)ccc2CC1C(=O)NC1CCCc2ccccc21)C(C)(C)C

> <Shape>
0.230

> <Color>
0.079

> <Negative vol penalty>
0.000

$$$$

  -OEChem-04042321083D

 87 96  0     1  0  0  0  0  0999 V2000
  -22.0113   -8.7614   20.6088 C   0  0  0  0  0  0  0  0  0  0  0  0
  -21.9715  -10.0904   21.0182 C   0  0  0  0  0  0  0  0  0  0  0  0
  -28.7883  -26.6451   20.4144 C   0  0  0  0  0  0  0  0  0  0  0  0
  -26.8918  -25.3313   21.1315 C   0  0  0  0  0  0  0  0  0  0  0  0
  -23.4978  -25.0289   23.2145 C   0  0  0  0  0  0  0  0  0  0  0  0
  -23.1784   -8.0168   20.7744 C   0  0  0  0  0  0  0  0  0  0  0  0
  -23.0985  -10.6753   21.5946 C   0  0  0  0  0  0  0  0  0  0  0  0
  -24.0418  -15.2993   19.7578 C   0  0  0  0  0  0  0  0  0  0  0  0
  -22.9447  -26.2969   23.0361 C   0  0  0  0  0  0  0  0  0  0  0  0
  -29.6392  -25.5822   20.7172 C   0  0  0  0  0  0  0  0  0  0  0  0
  -27.7427  -24.2683   21.4342 C   0  0  0  0  0  0  0  0  0  0  0  0
  -23.2597  -16.3478   20.2403 C   0  0  0  0  0  0  0  0  0  0  0  0
  -29.3686  -21.8259   19.7575 C   0  0  0  0  0  0  0  0  0  0  0  0
  -28.9830  -20.5509   19.3437 C   0  0  0  0  0  0  0  0  0  0  0  0
  -25.0431  -16.9816   21.7360 C   0  0  0  0  0  0  0  0  0  0  0  0
  -21.2687  -25.3595   21.5699 C   0  0  0  0  0  0  0  0  0  0  0  0
  -28.9886  -19.8035   21.6412 C   0  0  0  0  0  0  0  0  0  0  0  0
  -27.4146  -26.5197   20.6216 C   0  0  0  0  0  0  0  0  0  0  0  0
  -22.9364  -23.9262   22.5706 C   0  0  0  0  0  0  0  0  0  0  0  0
  -26.3514  -28.2295   19.0551 C   0  0  0  0  0  0  0  0  0  0  0  0
  -24.3233   -8.5957   21.3443 C   0  0  0  0  0  0  0  0  0  0  0  0
  -25.3284  -15.0770   20.2694 C   0  0  0  0  0  0  0  0  0  0  0  0
  -24.2816   -9.9373   21.7693 C   0  0  0  0  0  0  0  0  0  0  0  0
  -25.8404  -15.9312   21.2565 C   0  0  0  0  0  0  0  0  0  0  0  0
  -21.8301  -26.4622   22.2138 C   0  0  0  0  0  0  0  0  0  0  0  0
  -29.1164  -24.3938   21.2271 C   0  0  0  0  0  0  0  0  0  0  0  0
  -23.7592  -17.1874   21.2316 C   0  0  0  0  0  0  0  0  0  0  0  0
  -29.5643  -22.0897   21.1132 C   0  0  0  0  0  0  0  0  0  0  0  0
  -28.7929  -19.5397   20.2855 C   0  0  0  0  0  0  0  0  0  0  0  0
  -21.8219  -24.0915   21.7483 C   0  0  0  0  0  0  0  0  0  0  0  0
  -29.3743  -21.0786   22.0550 C   0  0  0  0  0  0  0  0  0  0  0  0
  -26.5351  -27.6176   20.3095 C   0  0  0  0  0  0  0  0  0  0  0  0
  -25.4196  -29.2120   19.2855 C   0  0  0  0  0  0  0  0  0  0  0  0
  -23.5873  -22.0560   23.9998 C   0  0  0  0  0  0  0  0  0  0  0  0
  -23.5272  -22.5826   22.7631 C   0  0  0  0  0  0  0  0  0  0  0  0
  -26.9678  -27.9360   17.7943 C   0  0  0  0  0  0  0  0  0  0  0  0
  -26.7436  -12.6920   21.8227 C   0  0  0  0  0  0  0  0  0  0  0  0
  -29.3921  -14.5222   21.4251 C   0  0  0  0  0  0  0  0  0  0  0  0
  -31.5377  -16.6317   20.4994 C   0  0  0  0  0  0  0  0  0  0  0  0
  -21.3275  -29.5880   23.8299 C   0  0  0  0  0  0  0  0  0  0  0  0
  -25.5469   -7.7373   21.5462 C   0  0  0  0  0  0  0  0  0  0  0  0
  -26.1695  -13.9580   19.7194 C   0  0  0  0  0  0  0  0  0  0  0  0
  -27.2232  -15.7476   21.8245 C   0  0  0  0  0  0  0  0  0  0  0  0
  -24.1280  -20.6973   24.3295 C   0  0  0  0  0  0  0  0  0  0  0  0
  -24.0058  -21.8447   21.5372 C   0  0  0  0  0  0  0  0  0  0  0  0
  -26.8154   -8.5403   21.8227 C   0  0  0  0  0  0  0  0  0  0  0  0
  -23.3721  -19.5541   23.6570 C   0  0  0  0  0  0  0  0  0  0  0  0
  -23.2575  -20.5381   21.2737 C   0  0  0  0  0  0  0  0  0  0  0  0
  -23.7915  -32.1150   22.7143 C   0  0  0  0  0  0  0  0  0  0  0  0
  -26.5477   -9.6180   22.8685 C   0  0  0  0  0  0  0  0  0  0  0  0
  -24.7945  -31.2761   21.9242 C   0  0  0  0  0  0  0  0  0  0  0  0
  -23.1056  -31.2995   23.8062 C   0  0  0  0  0  0  0  0  0  0  0  0
  -23.4584  -29.2170   22.5205 C   0  0  0  0  0  0  0  0  0  0  0  0
  -25.4913  -10.6145   22.3760 C   0  0  1  0  0  0  0  0  0  0  0  0
  -27.2692  -13.5105   20.6774 C   0  0  1  0  0  0  0  0  0  0  0  0
  -24.1333  -29.9969   21.3822 C   0  0  2  0  0  0  0  0  0  0  0  0
  -23.6876  -19.3747   22.1700 C   0  0  2  0  0  0  0  0  0  1  0  0
  -33.5070  -18.1146   20.0299 C   0  0  0  0  0  0  0  0  0  0  0  0
  -28.7238  -15.0601   24.3532 C   0  0  0  0  0  0  0  0  0  0  0  0
  -30.7903  -16.4665   24.4942 C   0  0  0  0  0  0  0  0  0  0  0  0
  -30.9721  -14.0350   23.9677 C   0  0  0  0  0  0  0  0  0  0  0  0
  -19.5491  -27.8801   23.8212 C   0  0  0  0  0  0  0  0  0  0  0  0
  -32.6833  -14.6968   18.5750 C   0  0  0  0  0  0  0  0  0  0  0  0
  -21.2379  -27.8179   22.0240 C   0  0  0  0  0  0  0  0  0  0  0  0
  -30.0636  -15.6176   22.2178 C   0  0  1  0  0  0  0  0  0  0  0  0
  -32.9885  -16.6852   20.0556 C   0  0  2  0  0  0  0  0  0  0  0  0
  -30.1173  -15.3006   23.7390 C   0  0  0  0  0  0  0  0  0  0  0  0
  -25.7808  -28.1655   21.2660 N   0  0  0  0  0  0  0  0  0  0  0  0
  -25.1141  -29.1321   20.6124 N   0  0  0  0  0  0  0  0  0  0  0  0
  -28.0046  -14.6355   21.2587 N   0  0  0  0  0  0  0  0  0  0  0  0
  -22.5233  -30.0683   23.2712 N   0  0  0  0  0  0  0  0  0  0  0  0
  -24.8402  -30.1278   18.4806 N   0  0  0  0  0  0  0  0  0  0  0  0
  -27.9033  -26.8942   17.7344 N   0  0  0  0  0  0  0  0  0  0  0  0
  -26.0753  -11.5463   21.4352 N   0  0  0  0  0  0  0  0  0  0  0  0
  -31.3709  -15.8231   21.6038 N   0  0  0  0  0  0  0  0  0  0  0  0
  -20.7936  -28.4112   23.2833 N   0  0  0  0  0  0  0  0  0  0  0  0
  -33.1339  -16.1078   18.6894 N   0  3  0  0  0  0  0  0  0  0  0  0
  -26.7091  -28.5893   16.7552 O   0  0  0  0  0  0  0  0  0  0  0  0
  -26.9319  -13.0711   22.9727 O   0  0  0  0  0  0  0  0  0  0  0  0
  -30.0747  -13.6039   20.9642 O   0  0  0  0  0  0  0  0  0  0  0  0
  -30.6426  -17.2486   19.9261 O   0  0  0  0  0  0  0  0  0  0  0  0
  -20.7639  -30.1826   24.7577 O   0  0  0  0  0  0  0  0  0  0  0  0
  -29.9464  -23.3562   21.5225 O   0  0  0  0  0  0  0  0  0  0  0  0
  -22.9977  -18.2111   21.7048 O   0  0  0  0  0  0  0  0  0  1  0  0
  -28.4211  -18.3158   19.8882 F   0  0  0  0  0  0  0  0  0  0  0  0
  -21.2703  -23.0407   21.1238 F   0  0  0  0  0  0  0  0  0  0  0  0
  -29.5596  -21.3263   23.3589 F   0  0  0  0  0  0  0  0  0  0  0  0
  1  2  1  0  0  0  0
  1  6  2  0  0  0  0
  2  7  2  0  0  0  0
  3 10  2  0  0  0  0
  3 18  1  0  0  0  0
  4 11  1  0  0  0  0
  4 18  2  0  0  0  0
  5  9  2  0  0  0  0
  5 19  1  0  0  0  0
  6 21  1  0  0  0  0
  7 23  1  0  0  0  0
  8 12  2  0  0  0  0
  8 22  1  0  0  0  0
  9 25  1  0  0  0  0
 10 26  1  0  0  0  0
 11 26  2  0  0  0  0
 12 27  1  0  0  0  0
 13 14  2  0  0  0  0
 13 28  1  0  0  0  0
 14 29  1  0  0  0  0
 15 24  1  0  0  0  0
 15 27  2  0  0  0  0
 16 25  2  0  0  0  0
 16 30  1  0  0  0  0
 17 29  2  0  0  0  0
 17 31  1  0  0  0  0
 18 32  1  0  0  0  0
 19 30  2  0  0  0  0
 19 35  1  0  0  0  0
 20 32  1  0  0  0  0
 20 33  2  0  0  0  0
 20 36  1  0  0  0  0
 21 23  2  0  0  0  0
 21 41  1  0  0  0  0
 22 24  2  0  0  0  0
 22 42  1  0  0  0  0
 23 54  1  0  0  0  0
 24 43  1  0  0  0  0
 25 64  1  0  0  0  0
 26 83  1  0  0  0  0
 27 84  1  0  0  0  0
 28 31  2  0  0  0  0
 28 83  1  0  0  0  0
 29 85  1  0  0  0  0
 30 86  1  0  0  0  0
 31 87  1  0  0  0  0
 32 68  2  0  0  0  0
 33 69  1  0  0  0  0
 33 72  1  0  0  0  0
 34 35  2  0  0  0  0
 34 44  1  0  0  0  0
 35 45  1  0  0  0  0
 36 73  1  0  0  0  0
 36 78  2  0  0  0  0
 37 55  1  0  0  0  0
 37 74  1  0  0  0  0
 37 79  2  0  0  0  0
 38 65  1  0  0  0  0
 38 70  1  0  0  0  0
 38 80  2  0  0  0  0
 39 66  1  0  0  0  0
 39 75  1  0  0  0  0
 39 81  2  0  0  0  0
 40 71  1  0  0  0  0
 40 76  1  0  0  0  0
 40 82  2  0  0  0  0
 41 46  1  0  0  0  0
 42 55  1  0  0  0  0
 43 70  1  0  0  0  0
 44 47  1  0  0  0  0
 45 48  1  0  0  0  0
 46 50  1  0  0  0  0
 47 57  1  0  0  0  0
 48 57  1  0  0  0  0
 49 51  1  0  0  0  0
 49 52  1  0  0  0  0
 50 54  1  0  0  0  0
 51 56  1  0  0  0  0
 52 71  1  0  0  0  0
 53 56  1  0  0  0  0
 53 71  1  0  0  0  0
 54 74  1  0  0  0  0
 55 70  1  0  0  0  0
 56 69  1  0  0  0  0
 57 84  1  0  0  0  0
 58 66  1  0  0  0  0
 59 67  1  0  0  0  0
 60 67  1  0  0  0  0
 61 67  1  0  0  0  0
 62 76  1  0  0  0  0
 63 77  1  0  0  0  0
 64 76  1  0  0  0  0
 65 67  1  0  0  0  0
 65 75  1  0  0  0  0
 66 77  1  0  0  0  0
 68 69  1  0  0  0  0
M  CHG  1  77   1
M  ISO  4  40 100  57 101  76 100  84 101
M  END
> <Batch ID>
0020

> <Smiles>
CNC(C)C(=O)NC(C(=O)N1Cc2cc([101O:1][101CH:1]3CCC=C(c4ccc(C[100N:0](C)[100C:0](=O)N5CCCC(n6nc(-c7ccc(Oc8ccc(F)cc8F)cc7)c(C(N)=O)c6N)C5)cc4F)CC3)ccc2CC1C(=O)NC1CCCc2ccccc21)C(C)(C)C

> <Shape>
0.258

> <Color>
0.052

> <Negative vol penalty>
0.000

$$$$

  -OEChem-04042321083D

 89 97  0     1  0  0  0  0  0999 V2000
  -21.8872  -11.8556   19.1972 C   0  0  0  0  0  0  0  0  0  0  0  0
  -21.6135  -13.1661   19.5755 C   0  0  0  0  0  0  0  0  0  0  0  0
  -29.5479  -26.4799   17.7877 C   0  0  0  0  0  0  0  0  0  0  0  0
  -30.0573  -25.7426   20.0314 C   0  0  0  0  0  0  0  0  0  0  0  0
  -23.1352  -11.2981   19.4721 C   0  0  0  0  0  0  0  0  0  0  0  0
  -22.5874  -13.9195   20.2299 C   0  0  0  0  0  0  0  0  0  0  0  0
  -23.5644  -19.9409   19.6877 C   0  0  0  0  0  0  0  0  0  0  0  0
  -26.3814  -27.6567   25.9135 C   0  0  0  0  0  0  0  0  0  0  0  0
  -26.3137  -26.2638   25.9371 C   0  0  0  0  0  0  0  0  0  0  0  0
  -30.8831  -26.3013   17.4258 C   0  0  0  0  0  0  0  0  0  0  0  0
  -31.3925  -25.5639   19.6695 C   0  0  0  0  0  0  0  0  0  0  0  0
  -23.1803  -21.0279   20.4718 C   0  0  0  0  0  0  0  0  0  0  0  0
  -34.1271  -27.4964   19.2022 C   0  0  0  0  0  0  0  0  0  0  0  0
  -35.1046  -27.9725   20.0759 C   0  0  0  0  0  0  0  0  0  0  0  0
  -25.3157  -20.9665   21.5922 C   0  0  0  0  0  0  0  0  0  0  0  0
  -23.9049  -26.3784   25.7887 C   0  0  0  0  0  0  0  0  0  0  0  0
  -35.9859  -25.7351   20.3092 C   0  0  0  0  0  0  0  0  0  0  0  0
  -29.1350  -26.2007   19.0905 C   0  0  0  0  0  0  0  0  0  0  0  0
  -26.7196  -25.4359   19.3885 C   0  0  0  0  0  0  0  0  0  0  0  0
  -24.1282  -12.0482   20.1216 C   0  0  0  0  0  0  0  0  0  0  0  0
  -24.8250  -19.3507   19.8578 C   0  0  0  0  0  0  0  0  0  0  0  0
  -23.8494  -13.3711   20.5149 C   0  0  0  0  0  0  0  0  0  0  0  0
  -25.7144  -19.8738   20.8073 C   0  0  0  0  0  0  0  0  0  0  0  0
  -25.2109  -28.4106   25.8276 C   0  0  0  0  0  0  0  0  0  0  0  0
  -25.0755  -25.6246   25.8746 C   0  0  0  0  0  0  0  0  0  0  0  0
  -31.8054  -25.8432   18.3667 C   0  0  0  0  0  0  0  0  0  0  0  0
  -24.0548  -21.5390   21.4262 C   0  0  0  0  0  0  0  0  0  0  0  0
  -34.0789  -26.1396   18.8820 C   0  0  0  0  0  0  0  0  0  0  0  0
  -36.0341  -27.0919   20.6293 C   0  0  0  0  0  0  0  0  0  0  0  0
  -23.9727  -27.7714   25.7651 C   0  0  0  0  0  0  0  0  0  0  0  0
  -35.0083  -25.2589   19.4355 C   0  0  0  0  0  0  0  0  0  0  0  0
  -27.7560  -26.3856   19.4651 C   0  0  0  0  0  0  0  0  0  0  0  0
  -25.6118  -26.0980   19.8585 C   0  0  0  0  0  0  0  0  0  0  0  0
  -26.7552  -24.0768   18.9333 C   0  0  0  0  0  0  0  0  0  0  0  0
  -25.8551  -16.4680   20.7135 C   0  0  0  0  0  0  0  0  0  0  0  0
  -28.7571  -17.7126   19.9710 C   0  0  0  0  0  0  0  0  0  0  0  0
  -30.7089  -20.4864   19.5918 C   0  0  0  0  0  0  0  0  0  0  0  0
  -24.7783  -30.6437   23.5079 C   0  0  0  0  0  0  0  0  0  0  0  0
  -25.4460  -11.3871   20.4394 C   0  0  0  0  0  0  0  0  0  0  0  0
  -25.2345  -18.1957   18.9856 C   0  0  0  0  0  0  0  0  0  0  0  0
  -27.0868  -19.2891   21.0150 C   0  0  0  0  0  0  0  0  0  0  0  0
  -26.5514  -12.3754   20.8021 C   0  0  0  0  0  0  0  0  0  0  0  0
  -23.7187  -30.4684   20.2106 C   0  0  0  0  0  0  0  0  0  0  0  0
  -26.0381  -13.4076   21.8010 C   0  0  0  0  0  0  0  0  0  0  0  0
  -24.5295  -29.3131   19.6250 C   0  0  0  0  0  0  0  0  0  0  0  0
  -24.5775  -31.3221   21.1360 C   0  0  0  0  0  0  0  0  0  0  0  0
  -26.0228  -29.3903   21.6843 C   0  0  0  0  0  0  0  0  0  0  0  0
  -24.8884  -14.2285   21.2044 C   0  0  1  0  0  0  0  0  0  0  0  0
  -26.3451  -17.3483   19.5988 C   0  0  1  0  0  0  0  0  0  0  0  0
  -25.2007  -28.4906   20.7388 C   0  0  2  0  0  0  0  0  0  0  0  0
  -32.7332  -21.8458   18.9987 C   0  0  0  0  0  0  0  0  0  0  0  0
  -29.6921  -16.8651   22.7490 C   0  0  0  0  0  0  0  0  0  0  0  0
  -31.6581  -18.3912   22.4767 C   0  0  0  0  0  0  0  0  0  0  0  0
  -31.3524  -16.4644   20.9222 C   0  0  0  0  0  0  0  0  0  0  0  0
  -26.2377  -23.4344   25.9879 C   0  0  0  0  0  0  0  0  0  0  0  0
  -29.8203  -20.7989   16.7862 C   0  0  0  0  0  0  0  0  0  0  0  0
  -25.2869  -29.8999   25.8027 C   0  0  0  0  0  0  0  0  0  0  0  0
  -23.2517  -23.4073   24.4117 C   0  0  0  0  0  0  0  0  0  0  0  0
  -23.7437  -23.5303   25.8487 C   0  0  0  0  0  0  0  0  0  0  0  0
  -27.1047  -30.9028   24.4699 C   0  0  0  0  0  0  0  0  0  0  0  0
  -24.2371  -22.6786   23.5056 C   0  0  0  0  0  0  0  0  0  1  0  0
  -29.8222  -18.4677   20.7289 C   0  0  1  0  0  0  0  0  0  0  0  0
  -31.6522  -20.9100   18.4804 C   0  0  2  0  0  0  0  0  0  0  0  0
  -30.6047  -17.5571   21.7169 C   0  0  0  0  0  0  0  0  0  0  0  0
  -27.2324  -32.2648   25.1047 C   0  0  0  0  0  0  0  0  0  0  0  0
  -27.3434  -27.5615   19.9457 N   0  0  0  0  0  0  0  0  0  0  0  0
  -26.0354  -27.3551   20.1753 N   0  0  0  0  0  0  0  0  0  0  0  0
  -27.4383  -18.1568   20.1422 N   0  0  0  0  0  0  0  0  0  0  0  0
  -25.2036  -30.5079   22.1781 N   0  0  0  0  0  0  0  0  0  0  0  0
  -24.3264  -25.7217   20.0274 N   0  0  0  0  0  0  0  0  0  0  0  0
  -27.9756  -23.5544   18.4838 N   0  0  0  0  0  0  0  0  0  0  0  0
  -25.4018  -15.2312   20.2959 N   0  0  0  0  0  0  0  0  0  0  0  0
  -30.6578  -19.1148   19.7232 N   0  0  0  0  0  0  0  0  0  0  0  0
  -25.0080  -24.2241   25.8980 N   0  0  3  0  0  0  0  0  0  0  0  0
  -25.7292  -30.4101   24.5127 N   0  0  0  0  0  0  0  0  0  0  0  0
  -30.9002  -21.6121   17.4022 N   0  3  0  0  0  0  0  0  0  0  0  0
  -25.7314  -23.3523   18.9101 O   0  0  0  0  0  0  0  0  0  0  0  0
  -25.8875  -16.8797   21.8673 O   0  0  0  0  0  0  0  0  0  0  0  0
  -29.0841  -16.7682   19.2479 O   0  0  0  0  0  0  0  0  0  0  0  0
  -30.0830  -21.2918   20.2775 O   0  0  0  0  0  0  0  0  0  0  0  0
  -23.6148  -30.9638   23.7838 O   0  0  0  0  0  0  0  0  0  0  0  0
  -33.1083  -25.6685   18.0139 O   0  0  0  0  0  0  0  0  0  0  0  0
  -23.6822  -22.5994   22.1933 O   0  0  0  0  0  0  0  0  0  1  0  0
  -36.9737  -27.5495   21.4671 F   0  0  0  0  0  0  0  0  0  0  0  0
  -22.8424  -28.4873   25.6836 F   0  0  0  0  0  0  0  0  0  0  0  0
  -34.9678  -23.9546   19.1308 F   0  0  0  0  0  0  0  0  0  0  0  0
  -28.5059  -32.7105   25.0633 F   0  0  0  0  0  0  0  0  0  0  0  0
  -26.4498  -33.1729   24.4842 F   0  0  0  0  0  0  0  0  0  0  0  0
  -26.8566  -32.2188   26.4021 F   0  0  0  0  0  0  0  0  0  0  0  0
  1  2  1  0  0  0  0
  1  5  2  0  0  0  0
  2  6  2  0  0  0  0
  3 10  2  0  0  0  0
  3 18  1  0  0  0  0
  4 11  1  0  0  0  0
  4 18  2  0  0  0  0
  5 20  1  0  0  0  0
  6 22  1  0  0  0  0
  7 12  2  0  0  0  0
  7 21  1  0  0  0  0
  8  9  2  0  0  0  0
  8 24  1  0  0  0  0
  9 25  1  0  0  0  0
 10 26  1  0  0  0  0
 11 26  2  0  0  0  0
 12 27  1  0  0  0  0
 13 14  2  0  0  0  0
 13 28  1  0  0  0  0
 14 29  1  0  0  0  0
 15 23  1  0  0  0  0
 15 27  2  0  0  0  0
 16 25  2  0  0  0  0
 16 30  1  0  0  0  0
 17 29  2  0  0  0  0
 17 31  1  0  0  0  0
 18 32  1  0  0  0  0
 19 32  1  0  0  0  0
 19 33  2  0  0  0  0
 19 34  1  0  0  0  0
 20 22  2  0  0  0  0
 20 39  1  0  0  0  0
 21 23  2  0  0  0  0
 21 40  1  0  0  0  0
 22 48  1  0  0  0  0
 23 41  1  0  0  0  0
 24 30  2  0  0  0  0
 24 57  1  0  0  0  0
 25 74  1  0  0  0  0
 26 82  1  0  0  0  0
 27 83  1  0  0  0  0
 28 31  2  0  0  0  0
 28 82  1  0  0  0  0
 29 84  1  0  0  0  0
 30 85  1  0  0  0  0
 31 86  1  0  0  0  0
 32 66  2  0  0  0  0
 33 67  1  0  0  0  0
 33 70  1  0  0  0  0
 34 71  1  0  0  0  0
 34 77  2  0  0  0  0
 35 49  1  0  0  0  0
 35 72  1  0  0  0  0
 35 78  2  0  0  0  0
 36 62  1  0  0  0  0
 36 68  1  0  0  0  0
 36 79  2  0  0  0  0
 37 63  1  0  0  0  0
 37 73  1  0  0  0  0
 37 80  2  0  0  0  0
 38 69  1  0  0  0  0
 38 75  1  0  0  0  0
 38 81  2  0  0  0  0
 39 42  1  0  0  0  0
 40 49  1  0  0  0  0
 41 68  1  0  0  0  0
 42 44  1  0  0  0  0
 43 45  1  0  0  0  0
 43 46  1  0  0  0  0
 44 48  1  0  0  0  0
 45 50  1  0  0  0  0
 46 69  1  0  0  0  0
 47 50  1  0  0  0  0
 47 69  1  0  0  0  0
 48 72  1  0  0  0  0
 49 68  1  0  0  0  0
 50 67  1  0  0  0  0
 51 63  1  0  0  0  0
 52 64  1  0  0  0  0
 53 64  1  0  0  0  0
 54 64  1  0  0  0  0
 55 74  1  0  0  0  0
 56 76  1  0  0  0  0
 57 75  1  0  0  0  0
 58 59  1  0  0  0  0
 58 61  1  0  0  0  0
 59 74  1  0  0  0  0
 60 65  1  0  0  0  0
 60 75  1  0  0  0  0
 61 83  1  0  0  0  0
 62 64  1  0  0  0  0
 62 73  1  0  0  0  0
 63 76  1  0  0  0  0
 65 87  1  0  0  0  0
 65 88  1  0  0  0  0
 65 89  1  0  0  0  0
 66 67  1  0  0  0  0
M  CHG  1  76   1
M  ISO  4  38 100  61 101  75 100  83 101
M  END
> <Batch ID>
0020

> <Smiles>
CNC(C)C(=O)NC(C(=O)N1Cc2cc([101O:1][101CH2:1]CCN(C)c3ccc(C[100N:0](CC(F)(F)F)[100C:0](=O)N4CCCC(n5nc(-c6ccc(Oc7ccc(F)cc7F)cc6)c(C(N)=O)c5N)C4)c(F)c3)ccc2CC1C(=O)NC1CCCc2ccccc21)C(C)(C)C

> <Shape>
0.234

> <Color>
0.074

> <Negative vol penalty>
0.000

$$$$

  -OEChem-04042321083D

 85 93  0     1  0  0  0  0  0999 V2000
  -24.0427  -35.5219   20.9579 C   0  0  0  0  0  0  0  0  0  0  0  0
  -24.9203  -34.4433   21.0005 C   0  0  0  0  0  0  0  0  0  0  0  0
  -22.0458  -10.0137   22.6705 C   0  0  0  0  0  0  0  0  0  0  0  0
  -23.6856   -9.8292   20.9058 C   0  0  0  0  0  0  0  0  0  0  0  0
  -22.8163  -35.4478   21.6170 C   0  0  0  0  0  0  0  0  0  0  0  0
  -24.5724  -33.2902   21.7033 C   0  0  0  0  0  0  0  0  0  0  0  0
  -25.5975  -29.0570   19.1199 C   0  0  0  0  0  0  0  0  0  0  0  0
  -27.2874  -21.3951   19.6319 C   0  0  0  0  0  0  0  0  0  0  0  0
  -26.2847  -20.4259   19.6037 C   0  0  0  0  0  0  0  0  0  0  0  0
  -21.6686   -8.6876   22.4586 C   0  0  0  0  0  0  0  0  0  0  0  0
  -23.3084   -8.5031   20.6939 C   0  0  0  0  0  0  0  0  0  0  0  0
  -26.9252  -28.6323   19.0946 C   0  0  0  0  0  0  0  0  0  0  0  0
  -20.5227   -5.2417   22.6251 C   0  0  0  0  0  0  0  0  0  0  0  0
  -20.3494   -4.4298   23.7459 C   0  0  0  0  0  0  0  0  0  0  0  0
  -26.4360  -27.0197   20.8207 C   0  0  0  0  0  0  0  0  0  0  0  0
  -28.8220  -19.7803   20.5670 C   0  0  0  0  0  0  0  0  0  0  0  0
  -22.6543   -4.7981   24.3692 C   0  0  0  0  0  0  0  0  0  0  0  0
  -23.0543  -10.5845   21.8941 C   0  0  0  0  0  0  0  0  0  0  0  0
  -24.4401  -12.4257   22.9882 C   0  0  0  0  0  0  0  0  0  0  0  0
  -22.4491  -34.2896   22.3201 C   0  0  0  0  0  0  0  0  0  0  0  0
  -24.6801  -28.4727   20.0050 C   0  0  0  0  0  0  0  0  0  0  0  0
  -23.3405  -33.2011   22.3736 C   0  0  0  0  0  0  0  0  0  0  0  0
  -25.0966  -27.4370   20.8535 C   0  0  0  0  0  0  0  0  0  0  0  0
  -28.5561  -21.0723   20.1136 C   0  0  0  0  0  0  0  0  0  0  0  0
  -26.5506  -19.1339   20.0571 C   0  0  0  0  0  0  0  0  0  0  0  0
  -22.2999   -7.9324   21.4703 C   0  0  0  0  0  0  0  0  0  0  0  0
  -27.3453  -27.6155   19.9471 C   0  0  0  0  0  0  0  0  0  0  0  0
  -21.7619   -5.8318   22.3762 C   0  0  0  0  0  0  0  0  0  0  0  0
  -21.4151   -4.2080   24.6180 C   0  0  0  0  0  0  0  0  0  0  0  0
  -27.8193  -18.8110   20.5388 C   0  0  0  0  0  0  0  0  0  0  0  0
  -22.8277   -5.6100   23.2483 C   0  0  0  0  0  0  0  0  0  0  0  0
  -23.4441  -11.9544   22.1121 C   0  0  0  0  0  0  0  0  0  0  0  0
  -24.4216  -13.7896   22.8272 C   0  0  0  0  0  0  0  0  0  0  0  0
  -25.3049  -11.6959   23.8686 C   0  0  0  0  0  0  0  0  0  0  0  0
  -22.9123  -29.5314   22.4253 C   0  0  0  0  0  0  0  0  0  0  0  0
  -21.6906  -26.5277   22.3369 C   0  0  0  0  0  0  0  0  0  0  0  0
  -22.1090  -23.2543   21.4671 C   0  0  0  0  0  0  0  0  0  0  0  0
  -24.2185  -18.3089   19.5810 C   0  0  0  0  0  0  0  0  0  0  0  0
  -21.1330  -34.2741   23.0565 C   0  0  0  0  0  0  0  0  0  0  0  0
  -23.2452  -28.9238   20.0013 C   0  0  0  0  0  0  0  0  0  0  0  0
  -24.1462  -26.7632   21.8081 C   0  0  0  0  0  0  0  0  0  0  0  0
  -20.6807  -32.8748   23.4660 C   0  0  0  0  0  0  0  0  0  0  0  0
  -21.1167  -16.7785   20.4259 C   0  0  0  0  0  0  0  0  0  0  0  0
  -21.8351  -32.1045   24.0989 C   0  0  0  0  0  0  0  0  0  0  0  0
  -21.5276  -15.4258   21.0120 C   0  0  0  0  0  0  0  0  0  0  0  0
  -22.0209  -17.1923   19.2663 C   0  0  0  0  0  0  0  0  0  0  0  0
  -23.8697  -15.8250   20.1504 C   0  0  0  0  0  0  0  0  0  0  0  0
  -22.9885  -31.9237   23.1047 C   0  0  1  0  0  0  0  0  0  0  0  0
  -22.5172  -28.6113   21.3050 C   0  0  1  0  0  0  0  0  0  0  0  0
  -23.0280  -15.3962   21.3634 C   0  0  2  0  0  0  0  0  0  0  0  0
  -20.9525  -21.0290   21.5564 C   0  0  0  0  0  0  0  0  0  0  0  0
  -22.3524  -26.3056   25.3071 C   0  0  0  0  0  0  0  0  0  0  0  0
  -22.0750  -23.8251   25.1122 C   0  0  0  0  0  0  0  0  0  0  0  0
  -20.1420  -25.3342   24.6554 C   0  0  0  0  0  0  0  0  0  0  0  0
  -22.0939  -23.0134   18.5174 C   0  0  0  0  0  0  0  0  0  0  0  0
  -31.1216  -21.2997   18.3218 C   0  0  0  0  0  0  0  0  0  0  0  0
  -29.6345  -22.1149   20.1451 C   0  0  0  0  0  0  0  0  0  0  0  0
  -29.7803  -24.8208   18.7347 C   0  0  0  0  0  0  0  0  0  0  0  0
  -30.3955  -26.2134   18.6185 C   0  0  0  0  0  0  0  0  0  0  0  0
  -30.8557  -23.7448   18.7124 C   0  0  0  0  0  0  0  0  0  0  0  0
  -29.3351  -27.3035   18.6825 C   0  0  0  0  0  0  0  0  0  1  0  0
  -22.0397  -25.2119   22.9894 C   0  0  1  0  0  0  0  0  0  0  0  0
  -21.2019  -22.2832   20.7332 C   0  0  2  0  0  0  0  0  0  0  0  0
  -21.6709  -25.1830   24.4995 C   0  0  0  0  0  0  0  0  0  0  0  0
  -22.8369  -12.9389   21.4442 N   0  0  0  0  0  0  0  0  0  0  0  0
  -23.4530  -14.0425   21.9009 N   0  0  0  0  0  0  0  0  0  0  0  0
  -22.7551  -27.2438   21.7715 N   0  0  0  0  0  0  0  0  0  0  0  0
  -23.4267  -17.1447   19.6740 N   0  0  0  0  0  0  0  0  0  0  0  0
  -25.1394  -14.7853   23.3892 N   0  0  0  0  0  0  0  0  0  0  0  0
  -25.1917  -10.2996   23.9104 N   0  0  0  0  0  0  0  0  0  0  0  0
  -25.5300  -18.1514   20.0277 N   0  0  0  0  0  0  0  0  0  0  0  0
  -22.6830  -30.8685   22.1626 N   0  0  0  0  0  0  0  0  0  0  0  0
  -21.3874  -24.1766   22.1951 N   0  0  0  0  0  0  0  0  0  0  0  0
  -21.8159  -21.8799   19.4366 N   0  3  0  0  0  0  0  0  0  0  0  0
  -30.2104  -22.4116   18.7818 N   0  3  1  0  0  0  0  0  0  0  0  0
  -26.1416  -12.2664   24.6089 O   0  0  0  0  0  0  0  0  0  0  0  0
  -23.3883  -29.0627   23.4526 O   0  0  0  0  0  0  0  0  0  0  0  0
  -20.5155  -26.9028   22.3228 O   0  0  0  0  0  0  0  0  0  0  0  0
  -23.3351  -23.1979   21.4041 O   0  0  0  0  0  0  0  0  0  0  0  0
  -23.7587  -19.3747   19.1632 O   0  0  0  0  0  0  0  0  0  0  0  0
  -21.9322   -6.6383   21.2635 O   0  0  0  0  0  0  0  0  0  0  0  0
  -28.6408  -27.1995   19.9249 O   0  0  0  0  0  0  0  0  0  1  0  0
  -21.2481   -3.4295   25.6951 F   0  0  0  0  0  0  0  0  0  0  0  0
  -28.0857  -17.5728   20.9785 F   0  0  0  0  0  0  0  0  0  0  0  0
  -24.0202   -6.1752   23.0152 F   0  0  0  0  0  0  0  0  0  0  0  0
  1  2  1  0  0  0  0
  1  5  2  0  0  0  0
  2  6  2  0  0  0  0
  3 10  2  0  0  0  0
  3 18  1  0  0  0  0
  4 11  1  0  0  0  0
  4 18  2  0  0  0  0
  5 20  1  0  0  0  0
  6 22  1  0  0  0  0
  7 12  2  0  0  0  0
  7 21  1  0  0  0  0
  8  9  2  0  0  0  0
  8 24  1  0  0  0  0
  9 25  1  0  0  0  0
 10 26  1  0  0  0  0
 11 26  2  0  0  0  0
 12 27  1  0  0  0  0
 13 14  2  0  0  0  0
 13 28  1  0  0  0  0
 14 29  1  0  0  0  0
 15 23  1  0  0  0  0
 15 27  2  0  0  0  0
 16 24  2  0  0  0  0
 16 30  1  0  0  0  0
 17 29  2  0  0  0  0
 17 31  1  0  0  0  0
 18 32  1  0  0  0  0
 19 32  1  0  0  0  0
 19 33  2  0  0  0  0
 19 34  1  0  0  0  0
 20 22  2  0  0  0  0
 20 39  1  0  0  0  0
 21 23  2  0  0  0  0
 21 40  1  0  0  0  0
 22 48  1  0  0  0  0
 23 41  1  0  0  0  0
 24 57  1  0  0  0  0
 25 30  2  0  0  0  0
 25 71  1  0  0  0  0
 26 81  1  0  0  0  0
 27 82  1  0  0  0  0
 28 31  2  0  0  0  0
 28 81  1  0  0  0  0
 29 83  1  0  0  0  0
 30 84  1  0  0  0  0
 31 85  1  0  0  0  0
 32 65  2  0  0  0  0
 33 66  1  0  0  0  0
 33 69  1  0  0  0  0
 34 70  1  0  0  0  0
 34 76  2  0  0  0  0
 35 49  1  0  0  0  0
 35 72  1  0  0  0  0
 35 77  2  0  0  0  0
 36 62  1  0  0  0  0
 36 67  1  0  0  0  0
 36 78  2  0  0  0  0
 37 63  1  0  0  0  0
 37 73  1  0  0  0  0
 37 79  2  0  0  0  0
 38 68  1  0  0  0  0
 38 71  1  0  0  0  0
 38 80  2  0  0  0  0
 39 42  1  0  0  0  0
 40 49  1  0  0  0  0
 41 67  1  0  0  0  0
 42 44  1  0  0  0  0
 43 45  1  0  0  0  0
 43 46  1  0  0  0  0
 44 48  1  0  0  0  0
 45 50  1  0  0  0  0
 46 68  1  0  0  0  0
 47 50  1  0  0  0  0
 47 68  1  0  0  0  0
 48 72  1  0  0  0  0
 49 67  1  0  0  0  0
 50 66  1  0  0  0  0
 51 63  1  0  0  0  0
 52 64  1  0  0  0  0
 53 64  1  0  0  0  0
 54 64  1  0  0  0  0
 55 74  1  0  0  0  0
 56 75  1  0  0  0  0
 57 75  1  0  0  0  0
 58 59  1  0  0  0  0
 58 60  1  0  0  0  0
 59 61  1  0  0  0  0
 60 75  1  0  0  0  0
 61 82  1  0  0  0  0
 62 64  1  0  0  0  0
 62 73  1  0  0  0  0
 63 74  1  0  0  0  0
 65 66  1  0  0  0  0
M  CHG  2  74   1  75   1
M  ISO  4  38 100  61 101  71 100  82 101
M  END
> <Batch ID>
0020

> <Smiles>
CNC(C)C(=O)NC(C(=O)N1Cc2cc([101O:1][101CH2:1]CCCN(C)Cc3ccc([100NH:0][100C:0](=O)N4CCCC(n5nc(-c6ccc(Oc7ccc(F)cc7F)cc6)c(C(N)=O)c5N)C4)c(F)c3)ccc2CC1C(=O)NC1CCCc2ccccc21)C(C)(C)C

> <Shape>
0.228

> <Color>
0.100

> <Negative vol penalty>
0.000

$$$$

  -OEChem-04042321083D

 89 97  0     1  0  0  0  0  0999 V2000
  -27.5309  -12.6238   17.2319 C   0  0  0  0  0  0  0  0  0  0  0  0
  -26.7083  -13.7209   16.9970 C   0  0  0  0  0  0  0  0  0  0  0  0
  -29.1183  -22.7158   20.1308 C   0  0  0  0  0  0  0  0  0  0  0  0
  -27.3429  -22.0312   21.6196 C   0  0  0  0  0  0  0  0  0  0  0  0
  -27.3985  -11.8949   18.4131 C   0  0  0  0  0  0  0  0  0  0  0  0
  -25.7521  -14.0891   17.9428 C   0  0  0  0  0  0  0  0  0  0  0  0
  -23.9227  -19.7719   19.3085 C   0  0  0  0  0  0  0  0  0  0  0  0
  -29.9827  -21.8095   20.7448 C   0  0  0  0  0  0  0  0  0  0  0  0
  -28.2073  -21.1248   22.2335 C   0  0  0  0  0  0  0  0  0  0  0  0
  -22.8169  -20.5222   18.9111 C   0  0  0  0  0  0  0  0  0  0  0  0
  -29.4593  -18.0524   21.5904 C   0  0  0  0  0  0  0  0  0  0  0  0
  -28.9771  -16.7680   21.8419 C   0  0  0  0  0  0  0  0  0  0  0  0
  -21.6543  -19.8607   20.9186 C   0  0  0  0  0  0  0  0  0  0  0  0
  -20.0656  -27.3775   23.7706 C   0  0  0  0  0  0  0  0  0  0  0  0
  -19.4133  -27.5587   21.0642 C   0  0  0  0  0  0  0  0  0  0  0  0
  -29.3615  -17.0866   24.2058 C   0  0  0  0  0  0  0  0  0  0  0  0
  -27.7984  -22.8267   20.5683 C   0  0  0  0  0  0  0  0  0  0  0  0
  -26.0687  -23.5246   18.8279 C   0  0  0  0  0  0  0  0  0  0  0  0
  -26.4467  -12.2602   19.3781 C   0  0  0  0  0  0  0  0  0  0  0  0
  -23.8985  -19.0503   20.5106 C   0  0  0  0  0  0  0  0  0  0  0  0
  -25.6060  -13.3636   19.1374 C   0  0  0  0  0  0  0  0  0  0  0  0
  -22.7621  -19.1041   21.3302 C   0  0  0  0  0  0  0  0  0  0  0  0
  -20.8675  -28.1254   22.9085 C   0  0  0  0  0  0  0  0  0  0  0  0
  -18.6114  -26.8108   21.9263 C   0  0  0  0  0  0  0  0  0  0  0  0
  -29.5272  -21.0139   21.7961 C   0  0  0  0  0  0  0  0  0  0  0  0
  -21.6814  -20.5644   19.7148 C   0  0  0  0  0  0  0  0  0  0  0  0
  -29.8926  -18.8540   22.6466 C   0  0  0  0  0  0  0  0  0  0  0  0
  -28.9282  -16.2851   23.1496 C   0  0  0  0  0  0  0  0  0  0  0  0
  -20.5414  -28.2160   21.5554 C   0  0  0  0  0  0  0  0  0  0  0  0
  -18.9376  -26.7201   23.2795 C   0  0  0  0  0  0  0  0  0  0  0  0
  -29.8437  -18.3711   23.9542 C   0  0  0  0  0  0  0  0  0  0  0  0
  -26.9052  -23.7632   19.9348 C   0  0  0  0  0  0  0  0  0  0  0  0
  -25.4289  -24.7215   18.6167 C   0  0  0  0  0  0  0  0  0  0  0  0
  -25.8863  -22.3280   18.0594 C   0  0  0  0  0  0  0  0  0  0  0  0
  -24.1181  -15.9756   21.2861 C   0  0  0  0  0  0  0  0  0  0  0  0
  -24.1327  -17.1414   24.3131 C   0  0  0  0  0  0  0  0  0  0  0  0
  -23.3039  -19.6726   26.4469 C   0  0  0  0  0  0  0  0  0  0  0  0
  -24.0487  -29.3075   22.0432 C   0  0  0  0  0  0  0  0  0  0  0  0
  -26.3087  -11.4134   20.6185 C   0  0  0  0  0  0  0  0  0  0  0  0
  -25.1095  -18.2673   20.9380 C   0  0  0  0  0  0  0  0  0  0  0  0
  -22.6932  -18.3637   22.6400 C   0  0  0  0  0  0  0  0  0  0  0  0
  -25.5245  -12.0948   21.7370 C   0  0  0  0  0  0  0  0  0  0  0  0
  -25.9947  -29.4306   19.1754 C   0  0  0  0  0  0  0  0  0  0  0  0
  -24.2498  -12.7267   21.1870 C   0  0  0  0  0  0  0  0  0  0  0  0
  -26.3775  -27.9721   18.9281 C   0  0  0  0  0  0  0  0  0  0  0  0
  -26.0511  -29.7637   20.6616 C   0  0  0  0  0  0  0  0  0  0  0  0
  -25.5588  -27.4175   21.2731 C   0  0  0  0  0  0  0  0  0  0  0  0
  -24.5736  -13.8092   20.1502 C   0  0  1  0  0  0  0  0  0  0  0  0
  -24.7831  -17.1576   21.9328 C   0  0  1  0  0  0  0  0  0  0  0  0
  -25.5174  -27.0242   19.7822 C   0  0  2  0  0  0  0  0  0  0  0  0
  -23.9869  -24.6147   22.6146 C   0  0  0  0  0  0  0  0  0  0  0  0
  -23.1990  -20.9680   28.5936 C   0  0  0  0  0  0  0  0  0  0  0  0
  -21.8181  -15.2481   24.9199 C   0  0  0  0  0  0  0  0  0  0  0  0
  -21.3582  -16.5844   26.9865 C   0  0  0  0  0  0  0  0  0  0  0  0
  -23.5401  -15.4033   26.7269 C   0  0  0  0  0  0  0  0  0  0  0  0
  -25.8417  -21.0770   25.8586 C   0  0  0  0  0  0  0  0  0  0  0  0
  -16.5429  -24.8684   19.4107 C   0  0  0  0  0  0  0  0  0  0  0  0
  -22.0730  -28.8266   23.4371 C   0  0  0  0  0  0  0  0  0  0  0  0
  -17.3984  -26.1054   21.3953 C   0  0  0  0  0  0  0  0  0  0  0  0
  -23.4985  -25.9886   22.1771 C   0  0  0  0  0  0  0  0  0  0  0  0
  -19.1492  -23.1328   19.8505 C   0  0  0  0  0  0  0  0  0  0  0  0
  -23.7937  -27.0739   23.2055 C   0  0  0  0  0  0  0  0  0  0  0  0
  -18.2687  -23.8309   20.8759 C   0  0  0  0  0  0  0  0  0  0  0  0
  -19.7869  -21.8474   20.3634 C   0  0  0  0  0  0  0  0  0  1  0  0
  -23.0737  -17.4647   25.3393 C   0  0  1  0  0  0  0  0  0  0  0  0
  -24.1055  -20.3904   27.5178 C   0  0  2  0  0  0  0  0  0  0  0  0
  -22.4478  -16.1876   25.9676 C   0  0  0  0  0  0  0  0  0  0  0  0
  -26.8079  -25.0135   20.3946 N   0  0  0  0  0  0  0  0  0  0  0  0
  -25.9029  -25.5712   19.5725 N   0  0  0  0  0  0  0  0  0  0  0  0
  -23.9004  -17.6070   23.0112 N   0  0  0  0  0  0  0  0  0  0  0  0
  -25.2274  -28.8406   21.4428 N   0  0  0  0  0  0  0  0  0  0  0  0
  -24.5129  -25.1195   17.7085 N   0  0  0  0  0  0  0  0  0  0  0  0
  -26.6224  -21.1887   18.4121 N   0  0  0  0  0  0  0  0  0  0  0  0
  -25.0004  -15.0263   20.8067 N   0  0  0  0  0  0  0  0  0  0  0  0
  -23.7013  -18.3598   26.3054 N   0  0  0  0  0  0  0  0  0  0  0  0
  -23.2993  -28.3847   22.7885 N   0  0  0  0  0  0  0  0  0  0  0  0
  -24.8910  -21.5052   26.9168 N   0  3  0  0  0  0  0  0  0  0  0  0
  -17.7245  -25.0934   20.3233 N   0  3  1  0  0  0  0  0  0  0  0  0
  -25.1062  -22.2756   17.0785 O   0  0  0  0  0  0  0  0  0  0  0  0
  -22.8950  -15.9276   21.2278 O   0  0  0  0  0  0  0  0  0  0  0  0
  -25.1326  -16.5055   24.6557 O   0  0  0  0  0  0  0  0  0  0  0  0
  -22.4118  -20.2205   25.8032 O   0  0  0  0  0  0  0  0  0  0  0  0
  -23.6884  -30.4860   21.9269 O   0  0  0  0  0  0  0  0  0  0  0  0
  -30.3703  -20.1292   22.3953 O   0  0  0  0  0  0  0  0  0  0  0  0
  -20.6003  -21.2955   19.3290 O   0  0  0  0  0  0  0  0  0  1  0  0
  -28.4637  -15.0521   23.3911 F   0  0  0  0  0  0  0  0  0  0  0  0
  -21.3062  -28.9321   20.7193 F   0  0  0  0  0  0  0  0  0  0  0  0
  -18.1729  -26.0039   24.1155 F   0  0  0  0  0  0  0  0  0  0  0  0
  -30.2575  -19.1369   24.9731 F   0  0  0  0  0  0  0  0  0  0  0  0
  1  2  1  0  0  0  0
  1  5  2  0  0  0  0
  2  6  2  0  0  0  0
  3  8  2  0  0  0  0
  3 17  1  0  0  0  0
  4  9  1  0  0  0  0
  4 17  2  0  0  0  0
  5 19  1  0  0  0  0
  6 21  1  0  0  0  0
  7 10  2  0  0  0  0
  7 20  1  0  0  0  0
  8 25  1  0  0  0  0
  9 25  2  0  0  0  0
 10 26  1  0  0  0  0
 11 12  2  0  0  0  0
 11 27  1  0  0  0  0
 12 28  1  0  0  0  0
 13 22  1  0  0  0  0
 13 26  2  0  0  0  0
 14 23  1  0  0  0  0
 14 30  2  0  0  0  0
 15 24  2  0  0  0  0
 15 29  1  0  0  0  0
 16 28  2  0  0  0  0
 16 31  1  0  0  0  0
 17 32  1  0  0  0  0
 18 32  1  0  0  0  0
 18 33  2  0  0  0  0
 18 34  1  0  0  0  0
 19 21  2  0  0  0  0
 19 39  1  0  0  0  0
 20 22  2  0  0  0  0
 20 40  1  0  0  0  0
 21 48  1  0  0  0  0
 22 41  1  0  0  0  0
 23 29  2  0  0  0  0
 23 58  1  0  0  0  0
 24 30  1  0  0  0  0
 24 59  1  0  0  0  0
 25 84  1  0  0  0  0
 26 85  1  0  0  0  0
 27 31  2  0  0  0  0
 27 84  1  0  0  0  0
 28 86  1  0  0  0  0
 29 87  1  0  0  0  0
 30 88  1  0  0  0  0
 31 89  1  0  0  0  0
 32 68  2  0  0  0  0
 33 69  1  0  0  0  0
 33 72  1  0  0  0  0
 34 73  1  0  0  0  0
 34 79  2  0  0  0  0
 35 49  1  0  0  0  0
 35 74  1  0  0  0  0
 35 80  2  0  0  0  0
 36 65  1  0  0  0  0
 36 70  1  0  0  0  0
 36 81  2  0  0  0  0
 37 66  1  0  0  0  0
 37 75  1  0  0  0  0
 37 82  2  0  0  0  0
 38 71  1  0  0  0  0
 38 76  1  0  0  0  0
 38 83  2  0  0  0  0
 39 42  1  0  0  0  0
 40 49  1  0  0  0  0
 41 70  1  0  0  0  0
 42 44  1  0  0  0  0
 43 45  1  0  0  0  0
 43 46  1  0  0  0  0
 44 48  1  0  0  0  0
 45 50  1  0  0  0  0
 46 71  1  0  0  0  0
 47 50  1  0  0  0  0
 47 71  1  0  0  0  0
 48 74  1  0  0  0  0
 49 70  1  0  0  0  0
 50 69  1  0  0  0  0
 51 60  1  0  0  0  0
 52 66  1  0  0  0  0
 53 67  1  0  0  0  0
 54 67  1  0  0  0  0
 55 67  1  0  0  0  0
 56 77  1  0  0  0  0
 57 78  1  0  0  0  0
 58 76  1  0  0  0  0
 59 78  1  0  0  0  0
 60 62  1  0  0  0  0
 61 63  1  0  0  0  0
 61 64  1  0  0  0  0
 62 76  1  0  0  0  0
 63 78  1  0  0  0  0
 64 85  1  0  0  0  0
 65 67  1  0  0  0  0
 65 75  1  0  0  0  0
 66 77  1  0  0  0  0
 68 69  1  0  0  0  0
M  CHG  2  77   1  78   1
M  ISO  4  38 100  64 101  76 100  85 101
M  END
> <Batch ID>
0020

> <Smiles>
CCC[100N:0](Cc1cc(F)c(CN(C)CC[101CH2:1][101O:1]c2ccc3c(c2)CN(C(=O)C(NC(=O)C(C)NC)C(C)(C)C)C(C(=O)NC2CCCc4ccccc42)C3)cc1F)[100C:0](=O)N1CCCC(n2nc(-c3ccc(Oc4ccc(F)cc4F)cc3)c(C(N)=O)c2N)C1

> <Shape>
0.177

> <Color>
0.065

> <Negative vol penalty>
0.000

$$$$

  -OEChem-04042321082D

  0  0  0     0  0  0  0  0  0999 V2000
M  END
$$$$

  -OEChem-04042321083D

 88 97  0     1  0  0  0  0  0999 V2000
  -24.8982  -34.7206   17.7515 C   0  0  0  0  0  0  0  0  0  0  0  0
  -25.5797  -33.6276   17.2259 C   0  0  0  0  0  0  0  0  0  0  0  0
  -31.9656  -18.6105   15.3939 C   0  0  0  0  0  0  0  0  0  0  0  0
  -29.3112  -17.4028   20.5952 C   0  0  0  0  0  0  0  0  0  0  0  0
  -23.1897   -9.8951   19.9041 C   0  0  0  0  0  0  0  0  0  0  0  0
  -23.6229   -9.9734   22.2796 C   0  0  0  0  0  0  0  0  0  0  0  0
  -31.3331  -19.8537   15.3799 C   0  0  0  0  0  0  0  0  0  0  0  0
  -24.7096  -34.8264   19.1289 C   0  0  0  0  0  0  0  0  0  0  0  0
  -26.0740  -32.6403   18.0776 C   0  0  0  0  0  0  0  0  0  0  0  0
  -26.4446  -26.6360   16.9296 C   0  0  0  0  0  0  0  0  0  0  0  0
  -31.2148  -17.4479   15.5684 C   0  0  0  0  0  0  0  0  0  0  0  0
  -29.6385  -16.5857   19.5133 C   0  0  0  0  0  0  0  0  0  0  0  0
  -22.4294   -8.7391   20.0808 C   0  0  0  0  0  0  0  0  0  0  0  0
  -22.8626   -8.8174   22.4564 C   0  0  0  0  0  0  0  0  0  0  0  0
  -27.4962  -25.8255   16.5044 C   0  0  0  0  0  0  0  0  0  0  0  0
  -23.2603   -5.4859   22.0389 C   0  0  0  0  0  0  0  0  0  0  0  0
  -28.1745  -18.2096   20.5411 C   0  0  0  0  0  0  0  0  0  0  0  0
  -23.7797   -4.4885   22.8641 C   0  0  0  0  0  0  0  0  0  0  0  0
  -29.1990  -18.7717   15.7149 C   0  0  0  0  0  0  0  0  0  0  0  0
  -27.9568  -25.2310   18.7964 C   0  0  0  0  0  0  0  0  0  0  0  0
  -27.6926  -17.3820   18.3231 C   0  0  0  0  0  0  0  0  0  0  0  0
  -21.8558   -4.6846   24.3122 C   0  0  0  0  0  0  0  0  0  0  0  0
  -23.7865  -10.5122   21.0035 C   0  0  0  0  0  0  0  0  0  0  0  0
  -29.9499  -19.9343   15.5404 C   0  0  0  0  0  0  0  0  0  0  0  0
  -24.1173  -13.0376   20.8608 C   0  0  0  0  0  0  0  0  0  0  0  0
  -25.1934  -33.8350   19.9971 C   0  0  0  0  0  0  0  0  0  0  0  0
  -26.1475  -26.7589   18.2945 C   0  0  0  0  0  0  0  0  0  0  0  0
  -25.8929  -32.7336   19.4679 C   0  0  0  0  0  0  0  0  0  0  0  0
  -26.8992  -26.0417   19.2362 C   0  0  0  0  0  0  0  0  0  0  0  0
  -29.8315  -17.5286   15.7289 C   0  0  0  0  0  0  0  0  0  0  0  0
  -28.8293  -16.5752   18.3772 C   0  0  0  0  0  0  0  0  0  0  0  0
  -22.2659   -8.2002   21.3570 C   0  0  0  0  0  0  0  0  0  0  0  0
  -28.2544  -25.1251   17.4380 C   0  0  0  0  0  0  0  0  0  0  0  0
  -22.0386   -6.0828   22.3505 C   0  0  0  0  0  0  0  0  0  0  0  0
  -27.3653  -18.1991   19.4051 C   0  0  0  0  0  0  0  0  0  0  0  0
  -23.0775   -4.0878   24.0007 C   0  0  0  0  0  0  0  0  0  0  0  0
  -21.3364   -5.6821   23.4871 C   0  0  0  0  0  0  0  0  0  0  0  0
  -24.5724  -11.7061   20.8215 C   0  0  0  0  0  0  0  0  0  0  0  0
  -25.2421  -13.7918   20.6316 C   0  0  0  0  0  0  0  0  0  0  0  0
  -29.2823  -21.2466   15.5264 C   0  0  0  0  0  0  0  0  0  0  0  0
  -29.8860  -22.4247   15.7479 C   0  0  0  0  0  0  0  0  0  0  0  0
  -22.7960  -13.5473   21.0845 C   0  0  0  0  0  0  0  0  0  0  0  0
  -26.1225  -29.1597   20.3775 C   0  0  0  0  0  0  0  0  0  0  0  0
  -24.8662  -26.9165   22.3555 C   0  0  0  0  0  0  0  0  0  0  0  0
  -24.5041  -23.6126   23.1299 C   0  0  0  0  0  0  0  0  0  0  0  0
  -29.8490  -14.5052   17.3942 C   0  0  0  0  0  0  0  0  0  0  0  0
  -25.0065  -34.0168   21.4826 C   0  0  0  0  0  0  0  0  0  0  0  0
  -24.9929  -27.6163   18.7350 C   0  0  0  0  0  0  0  0  0  0  0  0
  -26.6082  -26.1235   20.7117 C   0  0  0  0  0  0  0  0  0  0  0  0
  -25.2346  -32.7390   22.2860 C   0  0  0  0  0  0  0  0  0  0  0  0
  -30.1274  -12.5323   20.5124 C   0  0  0  0  0  0  0  0  0  0  0  0
  -26.5137  -32.0435   21.8310 C   0  0  0  0  0  0  0  0  0  0  0  0
  -28.6734  -12.1815   20.8229 C   0  0  0  0  0  0  0  0  0  0  0  0
  -30.3604  -12.7073   19.0148 C   0  0  0  0  0  0  0  0  0  0  0  0
  -27.9905  -13.3569   18.6937 C   0  0  0  0  0  0  0  0  0  0  0  0
  -26.4224  -31.6296   20.3573 C   0  0  1  0  0  0  0  0  0  0  0  0
  -25.1055  -28.0701   20.1872 C   0  0  1  0  0  0  0  0  0  0  0  0
  -27.7211  -13.2150   20.1992 C   0  0  1  0  0  0  0  0  0  0  0  0
  -23.4533  -22.0905   24.8259 C   0  0  0  0  0  0  0  0  0  0  0  0
  -27.0677  -27.6202   24.3475 C   0  0  0  0  0  0  0  0  0  0  0  0
  -26.5644  -25.4839   25.5520 C   0  0  0  0  0  0  0  0  0  0  0  0
  -24.8149  -27.2526   25.3692 C   0  0  0  0  0  0  0  0  0  0  0  0
  -22.8164  -22.3040   21.0809 C   0  0  0  0  0  0  0  0  0  0  0  0
  -29.0291  -16.2852   15.9141 C   0  0  0  0  0  0  0  0  0  0  0  0
  -29.1621  -23.7329   15.7369 C   0  0  0  0  0  0  0  0  0  1  0  0
  -25.4335  -25.9047   23.3216 C   0  0  1  0  0  0  0  0  0  0  0  0
  -23.2792  -22.7900   23.4868 C   0  0  2  0  0  0  0  0  0  0  0  0
  -25.9771  -26.5651   24.6200 C   0  0  0  0  0  0  0  0  0  0  0  0
  -25.8841  -11.6162   20.5857 N   0  0  0  0  0  0  0  0  0  0  0  0
  -26.2628  -12.9008   20.4748 N   0  0  0  0  0  0  0  0  0  0  0  0
  -25.4731  -26.9800   21.0931 N   0  0  0  0  0  0  0  0  0  0  0  0
  -29.4079  -13.6485   18.4236 N   0  0  0  0  0  0  0  0  0  0  0  0
  -25.4478  -15.1236   20.5509 N   0  0  0  0  0  0  0  0  0  0  0  0
  -21.7558  -12.6338   21.3036 N   0  0  0  0  0  0  0  0  0  0  0  0
  -25.6168  -30.4356   20.2167 N   0  0  0  0  0  0  0  0  0  0  0  0
  -24.3802  -24.9208   23.5475 N   0  0  0  0  0  0  0  0  0  0  0  0
  -29.1675  -15.7297   17.2585 N   0  0  0  0  0  0  0  0  0  0  0  0
  -23.0289  -21.7545   22.4447 N   0  3  0  0  0  0  0  0  0  0  0  0
  -22.5422  -14.7757   21.0737 O   0  0  0  0  0  0  0  0  0  0  0  0
  -27.2799  -28.8648   20.6516 O   0  0  0  0  0  0  0  0  0  0  0  0
  -23.9149  -27.6195   22.7053 O   0  0  0  0  0  0  0  0  0  0  0  0
  -25.4754  -23.1408   22.5429 O   0  0  0  0  0  0  0  0  0  0  0  0
  -30.7513  -14.1790   16.6131 O   0  0  0  0  0  0  0  0  0  0  0  0
  -21.5239   -7.0723   21.5298 O   0  0  0  0  0  0  0  0  0  0  0  0
  -29.2818  -24.3338   17.0257 O   0  0  0  0  0  0  0  0  0  1  0  0
  -26.2737  -18.9741   19.3540 F   0  0  0  0  0  0  0  0  0  0  0  0
  -23.5757   -3.1289   24.7921 F   0  0  0  0  0  0  0  0  0  0  0  0
  -20.1617   -6.2509   23.7909 F   0  0  0  0  0  0  0  0  0  0  0  0
  1  2  1  0  0  0  0
  1  8  2  0  0  0  0
  2  9  2  0  0  0  0
  3  7  2  0  0  0  0
  3 11  1  0  0  0  0
  4 12  2  0  0  0  0
  4 17  1  0  0  0  0
  5 13  2  0  0  0  0
  5 23  1  0  0  0  0
  6 14  1  0  0  0  0
  6 23  2  0  0  0  0
  7 24  1  0  0  0  0
  8 26  1  0  0  0  0
  9 28  1  0  0  0  0
 10 15  2  0  0  0  0
 10 27  1  0  0  0  0
 11 30  2  0  0  0  0
 12 31  1  0  0  0  0
 13 32  1  0  0  0  0
 14 32  2  0  0  0  0
 15 33  1  0  0  0  0
 16 18  2  0  0  0  0
 16 34  1  0  0  0  0
 17 35  2  0  0  0  0
 18 36  1  0  0  0  0
 19 24  2  0  0  0  0
 19 30  1  0  0  0  0
 20 29  1  0  0  0  0
 20 33  2  0  0  0  0
 21 31  2  0  0  0  0
 21 35  1  0  0  0  0
 22 36  2  0  0  0  0
 22 37  1  0  0  0  0
 23 38  1  0  0  0  0
 24 40  1  0  0  0  0
 25 38  1  0  0  0  0
 25 39  2  0  0  0  0
 25 42  1  0  0  0  0
 26 28  2  0  0  0  0
 26 47  1  0  0  0  0
 27 29  2  0  0  0  0
 27 48  1  0  0  0  0
 28 56  1  0  0  0  0
 29 49  1  0  0  0  0
 30 64  1  0  0  0  0
 31 77  1  0  0  0  0
 32 84  1  0  0  0  0
 33 85  1  0  0  0  0
 34 37  2  0  0  0  0
 34 84  1  0  0  0  0
 35 86  1  0  0  0  0
 36 87  1  0  0  0  0
 37 88  1  0  0  0  0
 38 69  2  0  0  0  0
 39 70  1  0  0  0  0
 39 73  1  0  0  0  0
 40 41  2  0  0  0  0
 41 65  1  0  0  0  0
 42 74  1  0  0  0  0
 42 79  2  0  0  0  0
 43 57  1  0  0  0  0
 43 75  1  0  0  0  0
 43 80  2  0  0  0  0
 44 66  1  0  0  0  0
 44 71  1  0  0  0  0
 44 81  2  0  0  0  0
 45 67  1  0  0  0  0
 45 76  1  0  0  0  0
 45 82  2  0  0  0  0
 46 72  1  0  0  0  0
 46 77  1  0  0  0  0
 46 83  2  0  0  0  0
 47 50  1  0  0  0  0
 48 57  1  0  0  0  0
 49 71  1  0  0  0  0
 50 52  1  0  0  0  0
 51 53  1  0  0  0  0
 51 54  1  0  0  0  0
 52 56  1  0  0  0  0
 53 58  1  0  0  0  0
 54 72  1  0  0  0  0
 55 58  1  0  0  0  0
 55 72  1  0  0  0  0
 56 75  1  0  0  0  0
 57 71  1  0  0  0  0
 58 70  1  0  0  0  0
 59 67  1  0  0  0  0
 60 68  1  0  0  0  0
 61 68  1  0  0  0  0
 62 68  1  0  0  0  0
 63 78  1  0  0  0  0
 64 77  1  0  0  0  0
 65 85  1  0  0  0  0
 66 68  1  0  0  0  0
 66 76  1  0  0  0  0
 67 78  1  0  0  0  0
 69 70  1  0  0  0  0
M  CHG  1  78   1
M  ISO  4  46 100  65 101  77 100  85 101
M  END
> <Batch ID>
0020

> <Smiles>
CNC(C)C(=O)NC(C(=O)N1Cc2cc([101O:1][101CH2:1]C=Cc3cccc(C[100N:0](c4cccc(F)c4)[100C:0](=O)N4CCCC(n5nc(-c6ccc(Oc7ccc(F)cc7F)cc6)c(C(N)=O)c5N)C4)c3)ccc2CC1C(=O)NC1CCCc2ccccc21)C(C)(C)C

> <Shape>
0.241

> <Color>
0.194

> <Negative vol penalty>
0.000

$$$$

  -OEChem-04042321083D

 87 96  0     1  0  0  0  0  0999 V2000
  -27.4247  -24.3065   16.7877 C   0  0  0  0  0  0  0  0  0  0  0  0
  -26.2761  -24.5952   17.5174 C   0  0  0  0  0  0  0  0  0  0  0  0
  -26.7985  -13.4323   20.7673 C   0  0  0  0  0  0  0  0  0  0  0  0
  -24.4378  -13.8558   20.4759 C   0  0  0  0  0  0  0  0  0  0  0  0
  -28.6675  -24.7436   17.2441 C   0  0  0  0  0  0  0  0  0  0  0  0
  -26.3697  -25.3204   18.7048 C   0  0  0  0  0  0  0  0  0  0  0  0
  -22.8398  -28.9344   19.0574 C   0  0  0  0  0  0  0  0  0  0  0  0
  -26.5041  -12.2193   21.3898 C   0  0  0  0  0  0  0  0  0  0  0  0
  -24.1434  -12.6427   21.0983 C   0  0  0  0  0  0  0  0  0  0  0  0
  -21.5521  -28.5343   19.4117 C   0  0  0  0  0  0  0  0  0  0  0  0
  -24.1133   -9.3653   20.2749 C   0  0  0  0  0  0  0  0  0  0  0  0
  -23.1469   -8.5524   19.6825 C   0  0  0  0  0  0  0  0  0  0  0  0
  -21.9663  -29.2335   21.6830 C   0  0  0  0  0  0  0  0  0  0  0  0
  -22.5082  -22.8781   22.6314 C   0  0  0  0  0  0  0  0  0  0  0  0
  -21.8116   -8.6755   21.6922 C   0  0  0  0  0  0  0  0  0  0  0  0
  -25.7653  -14.2506   20.3104 C   0  0  0  0  0  0  0  0  0  0  0  0
  -26.2781  -15.7261   18.2935 C   0  0  0  0  0  0  0  0  0  0  0  0
  -28.7753  -25.4827   18.4327 C   0  0  0  0  0  0  0  0  0  0  0  0
  -23.7057  -29.4779   20.0172 C   0  0  0  0  0  0  0  0  0  0  0  0
  -27.6152  -25.7666   19.1783 C   0  0  0  0  0  0  0  0  0  0  0  0
  -23.2636  -29.6421   21.3377 C   0  0  0  0  0  0  0  0  0  0  0  0
  -20.0924  -22.8638   22.6012 C   0  0  0  0  0  0  0  0  0  0  0  0
  -22.5261  -21.8588   21.6793 C   0  0  0  0  0  0  0  0  0  0  0  0
  -25.1766  -11.8245   21.5553 C   0  0  0  0  0  0  0  0  0  0  0  0
  -21.1162  -28.6812   20.7252 C   0  0  0  0  0  0  0  0  0  0  0  0
  -23.9289   -9.8332   21.5760 C   0  0  0  0  0  0  0  0  0  0  0  0
  -21.9960   -8.2075   20.3912 C   0  0  0  0  0  0  0  0  0  0  0  0
  -21.2913  -23.3805   23.0924 C   0  0  0  0  0  0  0  0  0  0  0  0
  -22.7780   -9.4883   22.2846 C   0  0  0  0  0  0  0  0  0  0  0  0
  -20.1103  -21.8445   21.6491 C   0  0  0  0  0  0  0  0  0  0  0  0
  -21.3272  -21.3421   21.1882 C   0  0  0  0  0  0  0  0  0  0  0  0
  -26.0688  -15.5041   19.6678 C   0  0  0  0  0  0  0  0  0  0  0  0
  -26.5306  -17.0728   18.1978 C   0  0  0  0  0  0  0  0  0  0  0  0
  -18.5106  -25.8794   23.6513 C   0  0  0  0  0  0  0  0  0  0  0  0
  -26.2469  -14.7980   17.2011 C   0  0  0  0  0  0  0  0  0  0  0  0
  -26.5205  -28.6371   21.2313 C   0  0  0  0  0  0  0  0  0  0  0  0
  -26.3018  -31.5140   22.7140 C   0  0  0  0  0  0  0  0  0  0  0  0
  -24.3110  -34.0310   23.8751 C   0  0  0  0  0  0  0  0  0  0  0  0
  -25.0419  -21.7568   21.5961 C   0  0  0  0  0  0  0  0  0  0  0  0
  -30.1457  -25.8931   18.9106 C   0  0  0  0  0  0  0  0  0  0  0  0
  -25.0824  -29.9293   19.6131 C   0  0  0  0  0  0  0  0  0  0  0  0
  -24.1473  -30.2388   22.4014 C   0  0  0  0  0  0  0  0  0  0  0  0
  -30.1168  -26.9782   19.9839 C   0  0  0  0  0  0  0  0  0  0  0  0
  -28.3336  -20.7322   20.7062 C   0  0  0  0  0  0  0  0  0  0  0  0
  -29.0839  -26.6422   21.0550 C   0  0  0  0  0  0  0  0  0  0  0  0
  -28.1445  -19.2975   20.2081 C   0  0  0  0  0  0  0  0  0  0  0  0
  -27.4080  -21.0522   21.8786 C   0  0  0  0  0  0  0  0  0  0  0  0
  -18.7546  -25.5364   21.5925 C   0  0  0  0  0  0  0  0  0  0  0  0
  -25.7967  -19.3402   21.1424 C   0  0  0  0  0  0  0  0  0  0  0  0
  -27.6731  -26.5721   20.4582 C   0  0  1  0  0  0  0  0  0  0  0  0
  -18.5406  -26.8271   22.4288 C   0  0  2  0  0  0  0  0  0  0  0  0
  -26.0575  -29.9950   20.7846 C   0  0  1  0  0  0  0  0  0  0  0  0
  -26.6616  -18.9919   19.9200 C   0  0  2  0  0  0  0  0  0  0  0  0
  -24.4174  -36.2325   25.0748 C   0  0  0  0  0  0  0  0  0  0  0  0
  -26.7836  -30.0522   25.3485 C   0  0  0  0  0  0  0  0  0  0  0  0
  -25.9466  -32.0839   26.5485 C   0  0  0  0  0  0  0  0  0  0  0  0
  -27.9920  -32.2306   25.1281 C   0  0  0  0  0  0  0  0  0  0  0  0
  -23.1117  -35.4695   21.5836 C   0  0  0  0  0  0  0  0  0  0  0  0
  -18.7827  -23.4034   23.0990 C   0  0  0  0  0  0  0  0  0  0  0  0
  -19.6683  -27.8408   22.4144 C   0  0  0  0  0  0  0  0  0  1  0  0
  -25.7295  -32.0011   24.0232 C   0  0  1  0  0  0  0  0  0  0  0  0
  -24.4010  -35.5386   23.7217 C   0  0  2  0  0  0  0  0  0  0  0  0
  -26.5967  -31.5789   25.2427 C   0  0  0  0  0  0  0  0  0  0  0  0
  -26.1790  -16.6202   20.3931 N   0  0  0  0  0  0  0  0  0  0  0  0
  -26.4603  -17.5566   19.4711 N   0  0  0  0  0  0  0  0  0  0  0  0
  -18.6494  -24.8047   22.8438 N   0  0  0  0  0  0  0  0  0  0  0  0
  -25.4869  -30.6591   21.9583 N   0  0  0  0  0  0  0  0  0  0  0  0
  -26.0196  -20.7416   21.5314 N   0  0  0  0  0  0  0  0  0  0  0  0
  -26.8038  -17.8784   17.1496 N   0  0  0  0  0  0  0  0  0  0  0  0
  -25.9722  -13.4514   17.4761 N   0  0  0  0  0  0  0  0  0  0  0  0
  -23.7640  -21.3520   21.2118 N   0  0  0  0  0  0  0  0  0  0  0  0
  -27.1486  -27.9036   20.2429 N   0  0  0  0  0  0  0  0  0  0  0  0
  -25.5583  -33.4431   23.8825 N   0  0  0  0  0  0  0  0  0  0  0  0
  -23.2366  -36.0506   22.9451 N   0  3  0  0  0  0  0  0  0  0  0  0
  -18.4146  -26.0029   24.8507 O   0  0  0  0  0  0  0  0  0  0  0  0
  -26.4727  -15.1494   16.0183 O   0  0  0  0  0  0  0  0  0  0  0  0
  -26.3237  -28.2818   22.3874 O   0  0  0  0  0  0  0  0  0  0  0  0
  -27.4273  -31.8841   22.3709 O   0  0  0  0  0  0  0  0  0  0  0  0
  -23.2415  -33.4349   23.9817 O   0  0  0  0  0  0  0  0  0  0  0  0
  -25.3234  -22.9079   21.9391 O   0  0  0  0  0  0  0  0  0  0  0  0
  -24.8889  -10.6407   22.1624 O   0  0  0  0  0  0  0  0  0  0  0  0
  -19.8600  -28.2909   21.0739 O   0  0  0  0  0  0  0  0  0  1  0  0
  -21.0673   -7.4282   19.8216 F   0  0  0  0  0  0  0  0  0  0  0  0
  -21.2836  -24.3592   24.0082 F   0  0  0  0  0  0  0  0  0  0  0  0
  -22.5947   -9.9358   23.5344 F   0  0  0  0  0  0  0  0  0  0  0  0
  -18.9634  -21.3406   21.1723 F   0  0  0  0  0  0  0  0  0  0  0  0
  -21.3323  -20.3622   20.2731 F   0  0  0  0  0  0  0  0  0  0  0  0
  1  2  1  0  0  0  0
  1  5  2  0  0  0  0
  2  6  2  0  0  0  0
  3  8  2  0  0  0  0
  3 16  1  0  0  0  0
  4  9  1  0  0  0  0
  4 16  2  0  0  0  0
  5 18  1  0  0  0  0
  6 20  1  0  0  0  0
  7 10  2  0  0  0  0
  7 19  1  0  0  0  0
  8 24  1  0  0  0  0
  9 24  2  0  0  0  0
 10 25  1  0  0  0  0
 11 12  2  0  0  0  0
 11 26  1  0  0  0  0
 12 27  1  0  0  0  0
 13 21  1  0  0  0  0
 13 25  2  0  0  0  0
 14 23  1  0  0  0  0
 14 28  2  0  0  0  0
 15 27  2  0  0  0  0
 15 29  1  0  0  0  0
 16 32  1  0  0  0  0
 17 32  1  0  0  0  0
 17 33  2  0  0  0  0
 17 35  1  0  0  0  0
 18 20  2  0  0  0  0
 18 40  1  0  0  0  0
 19 21  2  0  0  0  0
 19 41  1  0  0  0  0
 20 50  1  0  0  0  0
 21 42  1  0  0  0  0
 22 28  1  0  0  0  0
 22 30  2  0  0  0  0
 22 59  1  0  0  0  0
 23 31  2  0  0  0  0
 23 71  1  0  0  0  0
 24 81  1  0  0  0  0
 25 82  1  0  0  0  0
 26 29  2  0  0  0  0
 26 81  1  0  0  0  0
 27 83  1  0  0  0  0
 28 84  1  0  0  0  0
 29 85  1  0  0  0  0
 30 31  1  0  0  0  0
 30 86  1  0  0  0  0
 31 87  1  0  0  0  0
 32 64  2  0  0  0  0
 33 65  1  0  0  0  0
 33 69  1  0  0  0  0
 34 51  1  0  0  0  0
 34 66  1  0  0  0  0
 34 75  2  0  0  0  0
 35 70  1  0  0  0  0
 35 76  2  0  0  0  0
 36 52  1  0  0  0  0
 36 72  1  0  0  0  0
 36 77  2  0  0  0  0
 37 61  1  0  0  0  0
 37 67  1  0  0  0  0
 37 78  2  0  0  0  0
 38 62  1  0  0  0  0
 38 73  1  0  0  0  0
 38 79  2  0  0  0  0
 39 68  1  0  0  0  0
 39 71  1  0  0  0  0
 39 80  2  0  0  0  0
 40 43  1  0  0  0  0
 41 52  1  0  0  0  0
 42 67  1  0  0  0  0
 43 45  1  0  0  0  0
 44 46  1  0  0  0  0
 44 47  1  0  0  0  0
 45 50  1  0  0  0  0
 46 53  1  0  0  0  0
 47 68  1  0  0  0  0
 48 51  1  0  0  0  0
 48 66  1  0  0  0  0
 49 53  1  0  0  0  0
 49 68  1  0  0  0  0
 50 72  1  0  0  0  0
 51 60  1  0  0  0  0
 52 67  1  0  0  0  0
 53 65  1  0  0  0  0
 54 62  1  0  0  0  0
 55 63  1  0  0  0  0
 56 63  1  0  0  0  0
 57 63  1  0  0  0  0
 58 74  1  0  0  0  0
 59 66  1  0  0  0  0
 60 82  1  0  0  0  0
 61 63  1  0  0  0  0
 61 73  1  0  0  0  0
 62 74  1  0  0  0  0
 64 65  1  0  0  0  0
M  CHG  1  74   1
M  ISO  4  39 100  60 101  71 100  82 101
M  END
> <Batch ID>
0020

> <Smiles>
CNC(C)C(=O)NC(C(=O)N1Cc2cc([101O:1][101CH2:1]C3CN(Cc4c(F)cc([100NH:0][100C:0](=O)N5CCCC(n6nc(-c7ccc(Oc8ccc(F)cc8F)cc7)c(C(N)=O)c6N)C5)c(F)c4F)C3=O)ccc2CC1C(=O)NC1CCCc2ccccc21)C(C)(C)C

> <Shape>
0.297

> <Color>
0.088

> <Negative vol penalty>
0.000

$$$$

  -OEChem-04042321083D

 83 91  0     1  0  0  0  0  0999 V2000
  -30.0861  -20.7541   20.8935 C   0  0  0  0  0  0  0  0  0  0  0  0
  -28.8304  -21.1881   21.3060 C   0  0  0  0  0  0  0  0  0  0  0  0
  -30.1956  -26.0709   22.9891 C   0  0  0  0  0  0  0  0  0  0  0  0
  -28.0854  -25.2242   23.8057 C   0  0  0  0  0  0  0  0  0  0  0  0
  -30.2011  -19.6220   20.0878 C   0  0  0  0  0  0  0  0  0  0  0  0
  -27.6888  -20.4909   20.9121 C   0  0  0  0  0  0  0  0  0  0  0  0
  -22.5682  -19.6718   24.1701 C   0  0  0  0  0  0  0  0  0  0  0  0
  -30.8564  -25.4419   24.0442 C   0  0  0  0  0  0  0  0  0  0  0  0
  -28.7461  -24.5951   24.8609 C   0  0  0  0  0  0  0  0  0  0  0  0
  -21.3353  -20.3226   24.1591 C   0  0  0  0  0  0  0  0  0  0  0  0
  -29.9179  -22.4671   27.5658 C   0  0  0  0  0  0  0  0  0  0  0  0
  -29.5605  -21.1522   27.8639 C   0  0  0  0  0  0  0  0  0  0  0  0
  -20.4570  -18.6215   22.6915 C   0  0  0  0  0  0  0  0  0  0  0  0
  -19.7085  -28.7000   22.5610 C   0  0  0  0  0  0  0  0  0  0  0  0
  -18.2816  -26.8006   23.0007 C   0  0  0  0  0  0  0  0  0  0  0  0
  -30.2094  -20.4712   25.6385 C   0  0  0  0  0  0  0  0  0  0  0  0
  -28.8101  -25.9621   22.8699 C   0  0  0  0  0  0  0  0  0  0  0  0
  -28.3232  -26.3951   20.4035 C   0  0  0  0  0  0  0  0  0  0  0  0
  -29.0611  -18.9050   19.6918 C   0  0  0  0  0  0  0  0  0  0  0  0
  -22.7583  -18.4948   23.4318 C   0  0  0  0  0  0  0  0  0  0  0  0
  -27.7886  -19.3490   20.0993 C   0  0  0  0  0  0  0  0  0  0  0  0
  -21.6925  -17.9562   22.6968 C   0  0  0  0  0  0  0  0  0  0  0  0
  -20.6849  -27.8474   22.0461 C   0  0  0  0  0  0  0  0  0  0  0  0
  -19.2580  -25.9479   22.4857 C   0  0  0  0  0  0  0  0  0  0  0  0
  -30.1316  -24.7040   24.9801 C   0  0  0  0  0  0  0  0  0  0  0  0
  -20.2803  -19.7991   23.4175 C   0  0  0  0  0  0  0  0  0  0  0  0
  -30.4210  -22.7841   26.3039 C   0  0  0  0  0  0  0  0  0  0  0  0
  -29.7063  -20.1542   26.9004 C   0  0  0  0  0  0  0  0  0  0  0  0
  -18.5069  -28.1767   23.0384 C   0  0  0  0  0  0  0  0  0  0  0  0
  -30.5667  -21.7861   25.3404 C   0  0  0  0  0  0  0  0  0  0  0  0
  -20.4597  -26.4713   22.0084 C   0  0  0  0  0  0  0  0  0  0  0  0
  -28.1269  -26.6122   21.7805 C   0  0  0  0  0  0  0  0  0  0  0  0
  -27.4394  -27.2501   19.7916 C   0  0  0  0  0  0  0  0  0  0  0  0
  -29.2239  -25.5004   19.7370 C   0  0  0  0  0  0  0  0  0  0  0  0
  -24.6459  -17.6387   21.0219 C   0  0  0  0  0  0  0  0  0  0  0  0
  -23.3726  -14.7075   21.5779 C   0  0  0  0  0  0  0  0  0  0  0  0
  -20.7903  -12.8605   22.8297 C   0  0  0  0  0  0  0  0  0  0  0  0
  -22.2850  -29.7233   21.5295 C   0  0  0  0  0  0  0  0  0  0  0  0
  -29.2320  -17.7147   18.7815 C   0  0  0  0  0  0  0  0  0  0  0  0
  -24.0865  -17.7902   23.4754 C   0  0  0  0  0  0  0  0  0  0  0  0
  -21.8391  -16.6843   21.9035 C   0  0  0  0  0  0  0  0  0  0  0  0
  -28.0003  -16.8153   18.7171 C   0  0  0  0  0  0  0  0  0  0  0  0
  -25.2137  -31.4385   20.4533 C   0  0  0  0  0  0  0  0  0  0  0  0
  -26.7380  -17.6513   18.5309 C   0  0  0  0  0  0  0  0  0  0  0  0
  -26.3098  -30.3740   20.5404 C   0  0  0  0  0  0  0  0  0  0  0  0
  -24.2013  -31.3042   21.5894 C   0  0  0  0  0  0  0  0  0  0  0  0
  -24.7052  -28.9044   21.8258 C   0  0  0  0  0  0  0  0  0  0  0  0
  -26.5286  -18.6051   19.7132 C   0  0  1  0  0  0  0  0  0  0  0  0
  -24.3184  -16.8775   22.2752 C   0  0  1  0  0  0  0  0  0  0  0  0
  -25.7124  -28.9588   20.6655 C   0  0  2  0  0  0  0  0  0  0  0  0
  -20.0167  -10.4893   23.1056 C   0  0  0  0  0  0  0  0  0  0  0  0
  -22.6200  -14.6118   18.6225 C   0  0  0  0  0  0  0  0  0  0  0  0
  -21.0603  -12.7264   19.1524 C   0  0  0  0  0  0  0  0  0  0  0  0
  -23.5100  -12.4633   19.5425 C   0  0  0  0  0  0  0  0  0  0  0  0
  -20.7588  -13.0917   25.7801 C   0  0  0  0  0  0  0  0  0  0  0  0
  -17.9098  -22.4404   22.7978 C   0  0  0  0  0  0  0  0  0  0  0  0
  -17.8189  -23.9566   22.9209 C   0  0  0  0  0  0  0  0  0  0  0  0
  -19.0864  -21.8505   23.5664 C   0  0  0  0  0  0  0  0  0  1  0  0
  -22.1637  -13.9546   21.0772 C   0  0  1  0  0  0  0  0  0  0  0  0
  -20.7690  -11.6475   23.7422 C   0  0  2  0  0  0  0  0  0  0  0  0
  -22.3360  -13.4641   19.6119 C   0  0  0  0  0  0  0  0  0  0  0  0
  -27.1919  -27.5330   22.0291 N   0  0  0  0  0  0  0  0  0  0  0  0
  -26.7929  -27.9022   20.8001 N   0  0  0  0  0  0  0  0  0  0  0  0
  -23.1589  -16.0357   21.9729 N   0  0  0  0  0  0  0  0  0  0  0  0
  -23.6747  -29.9387   21.6442 N   0  0  0  0  0  0  0  0  0  0  0  0
  -27.1601  -27.5003   18.4948 N   0  0  0  0  0  0  0  0  0  0  0  0
  -28.7813  -24.2037   19.4422 N   0  0  0  0  0  0  0  0  0  0  0  0
  -21.9048  -28.3821   21.5627 N   0  0  0  0  0  0  0  0  0  0  0  0
  -19.0314  -24.5809   22.4492 N   0  0  0  0  0  0  0  0  0  0  0  0
  -25.9942  -17.8890   20.8517 N   0  0  0  0  0  0  0  0  0  0  0  0
  -21.9206  -12.8861   22.0404 N   0  0  0  0  0  0  0  0  0  0  0  0
  -20.1081  -11.9833   25.0350 N   0  3  0  0  0  0  0  0  0  0  0  0
  -30.3923  -25.8356   19.4272 O   0  0  0  0  0  0  0  0  0  0  0  0
  -23.7424  -17.9729   20.2644 O   0  0  0  0  0  0  0  0  0  0  0  0
  -24.4648  -14.1360   21.6237 O   0  0  0  0  0  0  0  0  0  0  0  0
  -19.8921  -13.6993   22.8157 O   0  0  0  0  0  0  0  0  0  0  0  0
  -21.4933  -30.6580   21.3832 O   0  0  0  0  0  0  0  0  0  0  0  0
  -30.7761  -24.0898   26.0097 O   0  0  0  0  0  0  0  0  0  0  0  0
  -19.0761  -20.4328   23.4045 O   0  0  0  0  0  0  0  0  0  1  0  0
  -29.3645  -18.8913   27.1873 F   0  0  0  0  0  0  0  0  0  0  0  0
  -17.5687  -28.9957   23.5317 F   0  0  0  0  0  0  0  0  0  0  0  0
  -31.0506  -22.0843   24.1268 F   0  0  0  0  0  0  0  0  0  0  0  0
  -21.3989  -25.6504   21.5137 F   0  0  0  0  0  0  0  0  0  0  0  0
  1  2  1  0  0  0  0
  1  5  2  0  0  0  0
  2  6  2  0  0  0  0
  3  8  2  0  0  0  0
  3 17  1  0  0  0  0
  4  9  1  0  0  0  0
  4 17  2  0  0  0  0
  5 19  1  0  0  0  0
  6 21  1  0  0  0  0
  7 10  2  0  0  0  0
  7 20  1  0  0  0  0
  8 25  1  0  0  0  0
  9 25  2  0  0  0  0
 10 26  1  0  0  0  0
 11 12  2  0  0  0  0
 11 27  1  0  0  0  0
 12 28  1  0  0  0  0
 13 22  1  0  0  0  0
 13 26  2  0  0  0  0
 14 23  2  0  0  0  0
 14 29  1  0  0  0  0
 15 24  1  0  0  0  0
 15 29  2  0  0  0  0
 16 28  2  0  0  0  0
 16 30  1  0  0  0  0
 17 32  1  0  0  0  0
 18 32  1  0  0  0  0
 18 33  2  0  0  0  0
 18 34  1  0  0  0  0
 19 21  2  0  0  0  0
 19 39  1  0  0  0  0
 20 22  2  0  0  0  0
 20 40  1  0  0  0  0
 21 48  1  0  0  0  0
 22 41  1  0  0  0  0
 23 31  1  0  0  0  0
 23 68  1  0  0  0  0
 24 31  2  0  0  0  0
 24 69  1  0  0  0  0
 25 78  1  0  0  0  0
 26 79  1  0  0  0  0
 27 30  2  0  0  0  0
 27 78  1  0  0  0  0
 28 80  1  0  0  0  0
 29 81  1  0  0  0  0
 30 82  1  0  0  0  0
 31 83  1  0  0  0  0
 32 62  2  0  0  0  0
 33 63  1  0  0  0  0
 33 66  1  0  0  0  0
 34 67  1  0  0  0  0
 34 73  2  0  0  0  0
 35 49  1  0  0  0  0
 35 70  1  0  0  0  0
 35 74  2  0  0  0  0
 36 59  1  0  0  0  0
 36 64  1  0  0  0  0
 36 75  2  0  0  0  0
 37 60  1  0  0  0  0
 37 71  1  0  0  0  0
 37 76  2  0  0  0  0
 38 65  1  0  0  0  0
 38 68  1  0  0  0  0
 38 77  2  0  0  0  0
 39 42  1  0  0  0  0
 40 49  1  0  0  0  0
 41 64  1  0  0  0  0
 42 44  1  0  0  0  0
 43 45  1  0  0  0  0
 43 46  1  0  0  0  0
 44 48  1  0  0  0  0
 45 50  1  0  0  0  0
 46 65  1  0  0  0  0
 47 50  1  0  0  0  0
 47 65  1  0  0  0  0
 48 70  1  0  0  0  0
 49 64  1  0  0  0  0
 50 63  1  0  0  0  0
 51 60  1  0  0  0  0
 52 61  1  0  0  0  0
 53 61  1  0  0  0  0
 54 61  1  0  0  0  0
 55 72  1  0  0  0  0
 56 57  1  0  0  0  0
 56 58  1  0  0  0  0
 57 69  1  0  0  0  0
 58 79  1  0  0  0  0
 59 61  1  0  0  0  0
 59 71  1  0  0  0  0
 60 72  1  0  0  0  0
 62 63  1  0  0  0  0
M  CHG  1  72   1
M  ISO  4  38 100  58 101  68 100  79 101
M  END
> <Batch ID>
0020

> <Smiles>
CNC(C)C(=O)NC(C(=O)N1Cc2cc([101O:1][101CH2:1]CCNc3cc(F)cc([100NH:0][100C:0](=O)N4CCCC(n5nc(-c6ccc(Oc7ccc(F)cc7F)cc6)c(C(N)=O)c5N)C4)c3F)ccc2CC1C(=O)NC1CCCc2ccccc21)C(C)(C)C

> <Shape>
0.199

> <Color>
0.072

> <Negative vol penalty>
0.000

$$$$

  -OEChem-04042321083D

 84 92  0     1  0  0  0  0  0999 V2000
  -29.8678   -2.0832   36.8256 C   0  0  0  0  0  0  0  0  0  0  0  0
  -29.8000   -2.9386   35.7306 C   0  0  0  0  0  0  0  0  0  0  0  0
  -23.2846   -9.7975   19.9080 C   0  0  0  0  0  0  0  0  0  0  0  0
  -23.7225   -9.9368   22.2799 C   0  0  0  0  0  0  0  0  0  0  0  0
  -28.6956   -1.5915   37.3984 C   0  0  0  0  0  0  0  0  0  0  0  0
  -28.5597   -3.3021   35.2070 C   0  0  0  0  0  0  0  0  0  0  0  0
  -27.0427   -8.6994   32.7426 C   0  0  0  0  0  0  0  0  0  0  0  0
  -28.4291  -11.5084   25.2454 C   0  0  0  0  0  0  0  0  0  0  0  0
  -28.4860  -10.3588   23.1212 C   0  0  0  0  0  0  0  0  0  0  0  0
  -27.7612  -10.4241   25.8143 C   0  0  0  0  0  0  0  0  0  0  0  0
  -27.8181   -9.2744   23.6902 C   0  0  0  0  0  0  0  0  0  0  0  0
  -22.5525   -8.6278   20.1119 C   0  0  0  0  0  0  0  0  0  0  0  0
  -22.9904   -8.7671   22.4838 C   0  0  0  0  0  0  0  0  0  0  0  0
  -26.9560   -9.1361   31.4214 C   0  0  0  0  0  0  0  0  0  0  0  0
  -19.7387   -7.8687   22.6830 C   0  0  0  0  0  0  0  0  0  0  0  0
  -18.8303   -7.8507   23.7413 C   0  0  0  0  0  0  0  0  0  0  0  0
  -24.5870   -8.6809   31.4327 C   0  0  0  0  0  0  0  0  0  0  0  0
  -20.0233   -5.9990   24.7339 C   0  0  0  0  0  0  0  0  0  0  0  0
  -23.8696  -10.4519   20.9921 C   0  0  0  0  0  0  0  0  0  0  0  0
  -24.1400  -12.9809   20.7945 C   0  0  0  0  0  0  0  0  0  0  0  0
  -27.4401   -1.9568   36.8876 C   0  0  0  0  0  0  0  0  0  0  0  0
  -25.9022   -8.2391   33.4164 C   0  0  0  0  0  0  0  0  0  0  0  0
  -27.3696   -2.8138   35.7726 C   0  0  0  0  0  0  0  0  0  0  0  0
  -24.6614   -8.2413   32.7633 C   0  0  0  0  0  0  0  0  0  0  0  0
  -28.7915  -11.4758   23.8987 C   0  0  0  0  0  0  0  0  0  0  0  0
  -27.4557   -9.3071   25.0368 C   0  0  0  0  0  0  0  0  0  0  0  0
  -22.4054   -8.1126   21.3998 C   0  0  0  0  0  0  0  0  0  0  0  0
  -25.7286   -9.1242   30.7653 C   0  0  0  0  0  0  0  0  0  0  0  0
  -20.7894   -6.9518   22.6500 C   0  0  0  0  0  0  0  0  0  0  0  0
  -18.9726   -6.9159   24.7667 C   0  0  0  0  0  0  0  0  0  0  0  0
  -20.9317   -6.0170   23.6755 C   0  0  0  0  0  0  0  0  0  0  0  0
  -24.6265  -11.6599   20.7821 C   0  0  0  0  0  0  0  0  0  0  0  0
  -25.2459  -13.7565   20.5456 C   0  0  0  0  0  0  0  0  0  0  0  0
  -22.8075  -13.4637   21.0117 C   0  0  0  0  0  0  0  0  0  0  0  0
  -25.0315   -5.4755   34.7233 C   0  0  0  0  0  0  0  0  0  0  0  0
  -22.4723   -7.2006   35.7218 C   0  0  0  0  0  0  0  0  0  0  0  0
  -20.4424   -9.9047   35.2594 C   0  0  0  0  0  0  0  0  0  0  0  0
  -31.1496  -12.3509   21.3872 C   0  0  0  0  0  0  0  0  0  0  0  0
  -26.2020   -1.3624   37.5107 C   0  0  0  0  0  0  0  0  0  0  0  0
  -26.0076   -7.7965   34.8501 C   0  0  0  0  0  0  0  0  0  0  0  0
  -23.4036   -7.7759   33.4487 C   0  0  0  0  0  0  0  0  0  0  0  0
  -24.9172   -2.0935   37.1297 C   0  0  0  0  0  0  0  0  0  0  0  0
  -29.4877  -13.6547   18.3475 C   0  0  0  0  0  0  0  0  0  0  0  0
  -24.8769   -2.3545   35.6274 C   0  0  0  0  0  0  0  0  0  0  0  0
  -28.0171  -13.3328   18.6079 C   0  0  0  0  0  0  0  0  0  0  0  0
  -30.4170  -12.6711   19.0522 C   0  0  0  0  0  0  0  0  0  0  0  0
  -28.6994  -12.2294   20.7753 C   0  0  0  0  0  0  0  0  0  0  0  0
  -26.0424   -3.2508   35.1916 C   0  0  1  0  0  0  0  0  0  0  0  0
  -24.8755   -6.8653   35.2727 C   0  0  1  0  0  0  0  0  0  0  0  0
  -27.7370  -13.2295   20.1172 C   0  0  2  0  0  0  0  0  0  0  0  0
  -18.4121  -11.0298   36.2130 C   0  0  0  0  0  0  0  0  0  0  0  0
  -20.6974   -5.0672   34.4536 C   0  0  0  0  0  0  0  0  0  0  0  0
  -18.7849   -6.6772   34.5889 C   0  0  0  0  0  0  0  0  0  0  0  0
  -19.9058   -5.8966   36.6762 C   0  0  0  0  0  0  0  0  0  0  0  0
  -26.4659   -7.0444   24.7913 C   0  0  0  0  0  0  0  0  0  0  0  0
  -31.8627  -12.0559   23.7290 C   0  0  0  0  0  0  0  0  0  0  0  0
  -21.9521  -12.3786   35.8592 C   0  0  0  0  0  0  0  0  0  0  0  0
  -29.5053  -12.6348   23.2894 C   0  0  0  0  0  0  0  0  0  0  0  0
  -25.1026   -8.9645   27.2113 C   0  0  0  0  0  0  0  0  0  0  0  0
  -26.4098   -8.2097   27.0020 C   0  0  0  0  0  0  0  0  0  0  0  0
  -24.6335   -8.9512   28.6614 C   0  0  0  0  0  0  0  0  0  1  0  0
  -21.1096   -7.5176   35.1547 C   0  0  1  0  0  0  0  0  0  0  0  0
  -19.9311  -10.9575   36.2262 C   0  0  2  0  0  0  0  0  0  0  0  0
  -20.1483   -6.2967   35.2045 C   0  0  0  0  0  0  0  0  0  0  0  0
  -25.9392  -11.5961   20.5439 N   0  0  0  0  0  0  0  0  0  0  0  0
  -26.2869  -12.8867   20.4044 N   0  0  0  0  0  0  0  0  0  0  0  0
  -23.5593   -7.3469   34.8484 N   0  0  0  0  0  0  0  0  0  0  0  0
  -30.1009  -12.5599   20.4766 N   0  0  0  0  0  0  0  0  0  0  0  0
  -25.4196  -15.0907   20.4359 N   0  0  0  0  0  0  0  0  0  0  0  0
  -21.7900  -12.5308   21.2536 N   0  0  0  0  0  0  0  0  0  0  0  0
  -25.7716   -4.6317   35.5293 N   0  0  0  0  0  0  0  0  0  0  0  0
  -20.6276   -8.6877   35.8806 N   0  0  0  0  0  0  0  0  0  0  0  0
  -26.7858   -8.2161   25.6089 N   0  0  3  0  0  0  0  0  0  0  0  0
  -30.8090  -12.2608   22.7454 N   0  0  0  0  0  0  0  0  0  0  0  0
  -20.4686  -12.2991   35.8629 N   0  3  0  0  0  0  0  0  0  0  0  0
  -22.5246  -14.6852   20.9756 O   0  0  0  0  0  0  0  0  0  0  0  0
  -24.5171   -5.1895   33.6485 O   0  0  0  0  0  0  0  0  0  0  0  0
  -22.5694   -6.8434   36.8985 O   0  0  0  0  0  0  0  0  0  0  0  0
  -20.6527  -10.1376   34.0711 O   0  0  0  0  0  0  0  0  0  0  0  0
  -32.3246  -12.2600   21.0088 O   0  0  0  0  0  0  0  0  0  0  0  0
  -21.6909   -6.9715   21.5991 O   0  0  0  0  0  0  0  0  0  0  0  0
  -25.6413   -9.5493   29.4756 O   0  0  0  0  0  0  0  0  0  1  0  0
  -18.1010   -6.8998   25.7838 F   0  0  0  0  0  0  0  0  0  0  0  0
  -21.9398   -5.1344   23.6500 F   0  0  0  0  0  0  0  0  0  0  0  0
  1  2  1  0  0  0  0
  1  5  2  0  0  0  0
  2  6  2  0  0  0  0
  3 12  2  0  0  0  0
  3 19  1  0  0  0  0
  4 13  1  0  0  0  0
  4 19  2  0  0  0  0
  5 21  1  0  0  0  0
  6 23  1  0  0  0  0
  7 14  2  0  0  0  0
  7 22  1  0  0  0  0
  8 10  2  0  0  0  0
  8 25  1  0  0  0  0
  9 11  1  0  0  0  0
  9 25  2  0  0  0  0
 10 26  1  0  0  0  0
 11 26  2  0  0  0  0
 12 27  1  0  0  0  0
 13 27  2  0  0  0  0
 14 28  1  0  0  0  0
 15 16  2  0  0  0  0
 15 29  1  0  0  0  0
 16 30  1  0  0  0  0
 17 24  1  0  0  0  0
 17 28  2  0  0  0  0
 18 30  2  0  0  0  0
 18 31  1  0  0  0  0
 19 32  1  0  0  0  0
 20 32  1  0  0  0  0
 20 33  2  0  0  0  0
 20 34  1  0  0  0  0
 21 23  2  0  0  0  0
 21 39  1  0  0  0  0
 22 24  2  0  0  0  0
 22 40  1  0  0  0  0
 23 48  1  0  0  0  0
 24 41  1  0  0  0  0
 25 58  1  0  0  0  0
 26 73  1  0  0  0  0
 27 81  1  0  0  0  0
 28 82  1  0  0  0  0
 29 31  2  0  0  0  0
 29 81  1  0  0  0  0
 30 83  1  0  0  0  0
 31 84  1  0  0  0  0
 32 65  2  0  0  0  0
 33 66  1  0  0  0  0
 33 69  1  0  0  0  0
 34 70  1  0  0  0  0
 34 76  2  0  0  0  0
 35 49  1  0  0  0  0
 35 71  1  0  0  0  0
 35 77  2  0  0  0  0
 36 62  1  0  0  0  0
 36 67  1  0  0  0  0
 36 78  2  0  0  0  0
 37 63  1  0  0  0  0
 37 72  1  0  0  0  0
 37 79  2  0  0  0  0
 38 68  1  0  0  0  0
 38 74  1  0  0  0  0
 38 80  2  0  0  0  0
 39 42  1  0  0  0  0
 40 49  1  0  0  0  0
 41 67  1  0  0  0  0
 42 44  1  0  0  0  0
 43 45  1  0  0  0  0
 43 46  1  0  0  0  0
 44 48  1  0  0  0  0
 45 50  1  0  0  0  0
 46 68  1  0  0  0  0
 47 50  1  0  0  0  0
 47 68  1  0  0  0  0
 48 71  1  0  0  0  0
 49 67  1  0  0  0  0
 50 66  1  0  0  0  0
 51 63  1  0  0  0  0
 52 64  1  0  0  0  0
 53 64  1  0  0  0  0
 54 64  1  0  0  0  0
 55 73  1  0  0  0  0
 56 74  1  0  0  0  0
 57 75  1  0  0  0  0
 58 74  1  0  0  0  0
 59 60  1  0  0  0  0
 59 61  1  0  0  0  0
 60 73  1  0  0  0  0
 61 82  1  0  0  0  0
 62 64  1  0  0  0  0
 62 72  1  0  0  0  0
 63 75  1  0  0  0  0
 65 66  1  0  0  0  0
M  CHG  1  75   1
M  ISO  4  38 100  61 101  74 100  82 101
M  END
> <Batch ID>
0020

> <Smiles>
CNC(C)C(=O)NC(C(=O)N1Cc2cc([101O:1][101CH2:1]CCN(C)c3ccc(C[100N:0](C)[100C:0](=O)N4CCCC(n5nc(-c6ccc(Oc7ccc(F)cc7F)cc6)c(C(N)=O)c5N)C4)cc3)ccc2CC1C(=O)NC1CCCc2ccccc21)C(C)(C)C

> <Shape>
0.132

> <Color>
0.185

> <Negative vol penalty>
0.000

$$$$

  -OEChem-04042321083D

 82 90  0     1  0  0  0  0  0999 V2000
  -39.3964  -28.9430   21.8906 C   0  0  0  0  0  0  0  0  0  0  0  0
  -38.3722  -28.2573   22.5358 C   0  0  0  0  0  0  0  0  0  0  0  0
  -23.0070   -9.8885   19.9649 C   0  0  0  0  0  0  0  0  0  0  0  0
  -23.7378   -9.9140   22.2676 C   0  0  0  0  0  0  0  0  0  0  0  0
  -39.2260  -29.3716   20.5748 C   0  0  0  0  0  0  0  0  0  0  0  0
  -37.1765  -28.0006   21.8658 C   0  0  0  0  0  0  0  0  0  0  0  0
  -35.5522  -23.2518   22.5407 C   0  0  0  0  0  0  0  0  0  0  0  0
  -32.6297  -17.4393   23.5072 C   0  0  0  0  0  0  0  0  0  0  0  0
  -32.0404  -16.5521   22.6065 C   0  0  0  0  0  0  0  0  0  0  0  0
  -22.2463   -8.7473   20.2189 C   0  0  0  0  0  0  0  0  0  0  0  0
  -22.9771   -8.7728   22.5216 C   0  0  0  0  0  0  0  0  0  0  0  0
  -34.9279  -22.9586   23.7523 C   0  0  0  0  0  0  0  0  0  0  0  0
  -23.2354   -5.4411   22.0073 C   0  0  0  0  0  0  0  0  0  0  0  0
  -23.8294   -4.4173   22.7451 C   0  0  0  0  0  0  0  0  0  0  0  0
  -32.7744  -23.1502   22.6822 C   0  0  0  0  0  0  0  0  0  0  0  0
  -30.4510  -18.3240   24.0615 C   0  0  0  0  0  0  0  0  0  0  0  0
  -22.1088   -4.6313   24.4275 C   0  0  0  0  0  0  0  0  0  0  0  0
  -23.7528  -10.4719   20.9892 C   0  0  0  0  0  0  0  0  0  0  0  0
  -24.1262  -12.9912   20.8438 C   0  0  0  0  0  0  0  0  0  0  0  0
  -38.0312  -29.1116   19.8852 C   0  0  0  0  0  0  0  0  0  0  0  0
  -34.7907  -23.5076   21.3912 C   0  0  0  0  0  0  0  0  0  0  0  0
  -36.9894  -28.4273   20.5400 C   0  0  0  0  0  0  0  0  0  0  0  0
  -33.3915  -23.4440   21.4566 C   0  0  0  0  0  0  0  0  0  0  0  0
  -31.8350  -18.3252   24.2348 C   0  0  0  0  0  0  0  0  0  0  0  0
  -30.6564  -16.5510   22.4332 C   0  0  0  0  0  0  0  0  0  0  0  0
  -22.2313   -8.1894   21.4972 C   0  0  0  0  0  0  0  0  0  0  0  0
  -33.5387  -22.9106   23.8238 C   0  0  0  0  0  0  0  0  0  0  0  0
  -22.0780   -6.0602   22.4796 C   0  0  0  0  0  0  0  0  0  0  0  0
  -23.2661   -4.0124   23.9552 C   0  0  0  0  0  0  0  0  0  0  0  0
  -29.8616  -17.4369   23.1607 C   0  0  0  0  0  0  0  0  0  0  0  0
  -21.5147   -5.6552   23.6897 C   0  0  0  0  0  0  0  0  0  0  0  0
  -24.5392  -11.6504   20.7273 C   0  0  0  0  0  0  0  0  0  0  0  0
  -25.2318  -13.7234   20.4857 C   0  0  0  0  0  0  0  0  0  0  0  0
  -22.8568  -13.5269   21.2403 C   0  0  0  0  0  0  0  0  0  0  0  0
  -34.4288  -25.9973   19.4485 C   0  0  0  0  0  0  0  0  0  0  0  0
  -32.6381  -23.9044   17.7352 C   0  0  0  0  0  0  0  0  0  0  0  0
  -30.7454  -21.0649   17.6969 C   0  0  0  0  0  0  0  0  0  0  0  0
  -30.7074  -14.7065   20.7181 C   0  0  0  0  0  0  0  0  0  0  0  0
  -37.8754  -29.6360   18.4797 C   0  0  0  0  0  0  0  0  0  0  0  0
  -35.4799  -23.7962   20.0858 C   0  0  0  0  0  0  0  0  0  0  0  0
  -32.5291  -23.6908   20.2468 C   0  0  0  0  0  0  0  0  0  0  0  0
  -36.7195  -28.9958   17.7154 C   0  0  0  0  0  0  0  0  0  0  0  0
  -29.5944  -12.2778   18.3644 C   0  0  0  0  0  0  0  0  0  0  0  0
  -35.4640  -28.9567   18.5808 C   0  0  0  0  0  0  0  0  0  0  0  0
  -28.1460  -12.0084   18.7789 C   0  0  0  0  0  0  0  0  0  0  0  0
  -30.4968  -12.5102   19.5749 C   0  0  0  0  0  0  0  0  0  0  0  0
  -28.5813  -13.2735   20.9229 C   0  0  0  0  0  0  0  0  0  0  0  0
  -35.6871  -28.1081   19.8385 C   0  0  1  0  0  0  0  0  0  0  0  0
  -34.5944  -24.5462   19.0956 C   0  0  1  0  0  0  0  0  0  0  0  0
  -27.6215  -13.0977   19.7349 C   0  0  2  0  0  0  0  0  0  0  0  0
  -29.3819  -19.6270   16.1572 C   0  0  0  0  0  0  0  0  0  0  0  0
  -30.3855  -25.9611   17.8133 C   0  0  0  0  0  0  0  0  0  0  0  0
  -28.8006  -24.1483   17.1275 C   0  0  0  0  0  0  0  0  0  0  0  0
  -30.6694  -24.8079   15.6124 C   0  0  0  0  0  0  0  0  0  0  0  0
  -32.4886  -18.7178   18.1566 C   0  0  0  0  0  0  0  0  0  0  0  0
  -32.6187  -21.0152   26.7581 C   0  0  0  0  0  0  0  0  0  0  0  0
  -31.6773  -20.1554   25.9232 C   0  0  0  0  0  0  0  0  0  0  0  0
  -33.6314  -21.7804   25.9143 C   0  0  0  0  0  0  0  0  0  1  0  0
  -31.1818  -23.5069   17.7188 C   0  0  1  0  0  0  0  0  0  0  0  0
  -30.7531  -19.8616   16.7714 C   0  0  2  0  0  0  0  0  0  0  0  0
  -30.2752  -24.6032   17.0914 C   0  0  0  0  0  0  0  0  0  0  0  0
  -25.8081  -11.5347   20.3264 N   0  0  0  0  0  0  0  0  0  0  0  0
  -26.2019  -12.8121   20.1878 N   0  0  0  0  0  0  0  0  0  0  0  0
  -33.2497  -23.9752   18.9949 N   0  0  0  0  0  0  0  0  0  0  0  0
  -29.9391  -13.5580   20.4328 N   0  0  0  0  0  0  0  0  0  0  0  0
  -25.4590  -15.0513   20.3997 N   0  0  0  0  0  0  0  0  0  0  0  0
  -21.8299  -12.6338   21.5753 N   0  0  0  0  0  0  0  0  0  0  0  0
  -30.0608  -15.6488   21.5171 N   0  0  0  0  0  0  0  0  0  0  0  0
  -32.4207  -19.2063   25.1303 N   0  0  0  0  0  0  0  0  0  0  0  0
  -35.6174  -26.6989   19.5163 N   0  0  0  0  0  0  0  0  0  0  0  0
  -31.1182  -22.2177   17.0388 N   0  0  0  0  0  0  0  0  0  0  0  0
  -31.1490  -18.6351   17.5197 N   0  3  0  0  0  0  0  0  0  0  0  0
  -22.6345  -14.7608   21.2800 O   0  0  0  0  0  0  0  0  0  0  0  0
  -33.3058  -26.4474   19.6433 O   0  0  0  0  0  0  0  0  0  0  0  0
  -33.2136  -24.1364   16.6691 O   0  0  0  0  0  0  0  0  0  0  0  0
  -30.4357  -20.9902   18.8839 O   0  0  0  0  0  0  0  0  0  0  0  0
  -31.8442  -14.8563   20.2630 O   0  0  0  0  0  0  0  0  0  0  0  0
  -21.4890   -7.0760   21.7455 O   0  0  0  0  0  0  0  0  0  0  0  0
  -32.9268  -22.6252   25.0054 O   0  0  0  0  0  0  0  0  0  1  0  0
  -23.8359   -3.0281   24.6629 F   0  0  0  0  0  0  0  0  0  0  0  0
  -28.5304  -17.4447   23.0017 F   0  0  0  0  0  0  0  0  0  0  0  0
  -20.4022   -6.2454   24.1480 F   0  0  0  0  0  0  0  0  0  0  0  0
  1  2  1  0  0  0  0
  1  5  2  0  0  0  0
  2  6  2  0  0  0  0
  3 10  2  0  0  0  0
  3 18  1  0  0  0  0
  4 11  1  0  0  0  0
  4 18  2  0  0  0  0
  5 20  1  0  0  0  0
  6 22  1  0  0  0  0
  7 12  2  0  0  0  0
  7 21  1  0  0  0  0
  8  9  2  0  0  0  0
  8 24  1  0  0  0  0
  9 25  1  0  0  0  0
 10 26  1  0  0  0  0
 11 26  2  0  0  0  0
 12 27  1  0  0  0  0
 13 14  2  0  0  0  0
 13 28  1  0  0  0  0
 14 29  1  0  0  0  0
 15 23  1  0  0  0  0
 15 27  2  0  0  0  0
 16 24  2  0  0  0  0
 16 30  1  0  0  0  0
 17 29  2  0  0  0  0
 17 31  1  0  0  0  0
 18 32  1  0  0  0  0
 19 32  1  0  0  0  0
 19 33  2  0  0  0  0
 19 34  1  0  0  0  0
 20 22  2  0  0  0  0
 20 39  1  0  0  0  0
 21 23  2  0  0  0  0
 21 40  1  0  0  0  0
 22 48  1  0  0  0  0
 23 41  1  0  0  0  0
 24 69  1  0  0  0  0
 25 30  2  0  0  0  0
 25 68  1  0  0  0  0
 26 78  1  0  0  0  0
 27 79  1  0  0  0  0
 28 31  2  0  0  0  0
 28 78  1  0  0  0  0
 29 80  1  0  0  0  0
 30 81  1  0  0  0  0
 31 82  1  0  0  0  0
 32 62  2  0  0  0  0
 33 63  1  0  0  0  0
 33 66  1  0  0  0  0
 34 67  1  0  0  0  0
 34 73  2  0  0  0  0
 35 49  1  0  0  0  0
 35 70  1  0  0  0  0
 35 74  2  0  0  0  0
 36 59  1  0  0  0  0
 36 64  1  0  0  0  0
 36 75  2  0  0  0  0
 37 60  1  0  0  0  0
 37 71  1  0  0  0  0
 37 76  2  0  0  0  0
 38 65  1  0  0  0  0
 38 68  1  0  0  0  0
 38 77  2  0  0  0  0
 39 42  1  0  0  0  0
 40 49  1  0  0  0  0
 41 64  1  0  0  0  0
 42 44  1  0  0  0  0
 43 45  1  0  0  0  0
 43 46  1  0  0  0  0
 44 48  1  0  0  0  0
 45 50  1  0  0  0  0
 46 65  1  0  0  0  0
 47 50  1  0  0  0  0
 47 65  1  0  0  0  0
 48 70  1  0  0  0  0
 49 64  1  0  0  0  0
 50 63  1  0  0  0  0
 51 60  1  0  0  0  0
 52 61  1  0  0  0  0
 53 61  1  0  0  0  0
 54 61  1  0  0  0  0
 55 72  1  0  0  0  0
 56 57  1  0  0  0  0
 56 58  1  0  0  0  0
 57 69  1  0  0  0  0
 58 79  1  0  0  0  0
 59 61  1  0  0  0  0
 59 71  1  0  0  0  0
 60 72  1  0  0  0  0
 62 63  1  0  0  0  0
M  CHG  1  72   1
M  ISO  4  38 100  58 101  68 100  79 101
M  END
> <Batch ID>
0020

> <Smiles>
CNC(C)C(=O)NC(C(=O)N1Cc2cc([101O:1][101CH2:1]CCNc3ccc([100NH:0][100C:0](=O)N4CCCC(n5nc(-c6ccc(Oc7ccc(F)cc7F)cc6)c(C(N)=O)c5N)C4)c(F)c3)ccc2CC1C(=O)NC1CCCc2ccccc21)C(C)(C)C

> <Shape>
0.207

> <Color>
0.204

> <Negative vol penalty>
0.000

$$$$

  -OEChem-04042321083D

 87 96  0     1  0  0  0  0  0999 V2000
  -29.7188   -8.6403   18.5055 C   0  0  0  0  0  0  0  0  0  0  0  0
  -28.6047   -9.2754   19.0447 C   0  0  0  0  0  0  0  0  0  0  0  0
  -25.4106  -28.6040   21.4736 C   0  0  0  0  0  0  0  0  0  0  0  0
  -24.3033  -29.9927   19.8357 C   0  0  0  0  0  0  0  0  0  0  0  0
  -30.9879   -9.1885   18.6867 C   0  0  0  0  0  0  0  0  0  0  0  0
  -28.7591  -10.4586   19.7663 C   0  0  0  0  0  0  0  0  0  0  0  0
  -25.3387  -13.9700   18.4951 C   0  0  0  0  0  0  0  0  0  0  0  0
  -20.3080  -17.7596   17.1823 C   0  0  0  0  0  0  0  0  0  0  0  0
  -20.0898  -16.7868   18.1578 C   0  0  0  0  0  0  0  0  0  0  0  0
  -25.1641  -29.5645   22.4546 C   0  0  0  0  0  0  0  0  0  0  0  0
  -24.0568  -30.9531   20.8167 C   0  0  0  0  0  0  0  0  0  0  0  0
  -24.0545  -13.8268   19.0186 C   0  0  0  0  0  0  0  0  0  0  0  0
  -26.4715  -32.5269   23.4237 C   0  0  0  0  0  0  0  0  0  0  0  0
  -27.5187  -32.8575   24.2836 C   0  0  0  0  0  0  0  0  0  0  0  0
  -24.5671  -15.4695   20.7091 C   0  0  0  0  0  0  0  0  0  0  0  0
  -20.8119  -18.3368   19.8647 C   0  0  0  0  0  0  0  0  0  0  0  0
  -26.1927  -32.1438   26.1729 C   0  0  0  0  0  0  0  0  0  0  0  0
  -24.9803  -28.8181   20.1642 C   0  0  0  0  0  0  0  0  0  0  0  0
  -26.4891  -27.3490   18.7244 C   0  0  0  0  0  0  0  0  0  0  0  0
  -31.1570  -10.3841   19.4026 C   0  0  0  0  0  0  0  0  0  0  0  0
  -26.2519  -14.8575   19.0823 C   0  0  0  0  0  0  0  0  0  0  0  0
  -30.0318  -11.0226   19.9583 C   0  0  0  0  0  0  0  0  0  0  0  0
  -25.8614  -15.6240   20.1896 C   0  0  0  0  0  0  0  0  0  0  0  0
  -20.7782  -19.0209   17.5479 C   0  0  0  0  0  0  0  0  0  0  0  0
  -20.3418  -17.0754   19.4991 C   0  0  0  0  0  0  0  0  0  0  0  0
  -24.4872  -30.7390   22.1262 C   0  0  0  0  0  0  0  0  0  0  0  0
  -23.6695  -14.5745   20.1275 C   0  0  0  0  0  0  0  0  0  0  0  0
  -25.2848  -32.0048   23.9383 C   0  0  0  0  0  0  0  0  0  0  0  0
  -27.3794  -32.6659   25.6582 C   0  0  0  0  0  0  0  0  0  0  0  0
  -21.0301  -19.3095   18.8891 C   0  0  0  0  0  0  0  0  0  0  0  0
  -25.1454  -31.8132   25.3129 C   0  0  0  0  0  0  0  0  0  0  0  0
  -25.2351  -27.8266   19.1502 C   0  0  0  0  0  0  0  0  0  0  0  0
  -26.1926  -26.4261   17.7514 C   0  0  0  0  0  0  0  0  0  0  0  0
  -27.8043  -27.7075   19.1687 C   0  0  0  0  0  0  0  0  0  0  0  0
  -29.0853  -14.5543   20.4907 C   0  0  0  0  0  0  0  0  0  0  0  0
  -21.3247  -23.1442   16.8524 C   0  0  0  0  0  0  0  0  0  0  0  0
  -28.9940  -17.7969   20.4960 C   0  0  0  0  0  0  0  0  0  0  0  0
  -27.1116  -20.6423   20.4152 C   0  0  0  0  0  0  0  0  0  0  0  0
  -32.5536  -10.9133   19.6125 C   0  0  0  0  0  0  0  0  0  0  0  0
  -27.6246  -15.0200   18.4893 C   0  0  0  0  0  0  0  0  0  0  0  0
  -26.7975  -16.6055   20.8445 C   0  0  0  0  0  0  0  0  0  0  0  0
  -32.5910  -12.3690   20.0704 C   0  0  0  0  0  0  0  0  0  0  0  0
  -22.8997  -25.3775   14.4527 C   0  0  0  0  0  0  0  0  0  0  0  0
  -19.0064  -15.2195   22.3264 C   0  0  0  0  0  0  0  0  0  0  0  0
  -31.5885  -12.6003   21.1966 C   0  0  0  0  0  0  0  0  0  0  0  0
  -23.7750  -26.2369   15.3638 C   0  0  0  0  0  0  0  0  0  0  0  0
  -19.7285  -14.0851   21.6212 C   0  0  0  0  0  0  0  0  0  0  0  0
  -19.7413  -16.4594   21.8318 C   0  0  0  0  0  0  0  0  0  0  0  0
  -21.5867  -24.9969   15.1317 C   0  0  0  0  0  0  0  0  0  0  0  0
  -22.6403  -25.1762   17.3638 C   0  0  0  0  0  0  0  0  0  0  0  0
  -30.1560  -12.3207   20.7261 C   0  0  1  0  0  0  0  0  0  0  0  0
  -28.6421  -15.5752   19.4812 C   0  0  1  0  0  0  0  0  0  0  0  0
  -23.9876  -25.5562   16.7273 C   0  0  2  0  0  0  0  0  0  0  0  0
  -20.0581  -14.6623   20.2335 C   0  0  2  0  0  0  0  0  0  0  0  0
  -27.3174  -23.1427   20.4718 C   0  0  0  0  0  0  0  0  0  0  0  0
  -29.5312  -17.6824   23.4974 C   0  0  0  0  0  0  0  0  0  0  0  0
  -28.7902  -20.0690   23.6505 C   0  0  0  0  0  0  0  0  0  0  0  0
  -30.7869  -19.4702   22.2804 C   0  0  0  0  0  0  0  0  0  0  0  0
  -25.8692  -20.9210   17.7436 C   0  0  0  0  0  0  0  0  0  0  0  0
  -18.6875  -20.6549   15.8308 C   0  0  0  0  0  0  0  0  0  0  0  0
  -21.0104  -20.0587   16.5022 C   0  0  0  0  0  0  0  0  0  0  0  0
  -20.4616  -22.4021   15.8634 C   0  0  0  0  0  0  0  0  0  0  0  0
  -21.3766  -14.0844   19.7296 C   0  0  0  0  0  0  0  0  0  1  0  0
  -28.4814  -18.8504   21.4481 C   0  0  1  0  0  0  0  0  0  0  0  0
  -27.2349  -21.9085   19.5870 C   0  0  2  0  0  0  0  0  0  0  0  0
  -29.3802  -18.9981   22.7082 C   0  0  0  0  0  0  0  0  0  0  0  0
  -24.2178  -27.2545   18.5008 N   0  0  0  0  0  0  0  0  0  0  0  0
  -24.8321  -26.4080   17.6570 N   0  0  0  0  0  0  0  0  0  0  0  0
  -20.1253  -16.1123   20.4644 N   0  0  3  0  0  0  0  0  0  0  0  0
  -28.1310  -16.7239   20.2318 N   0  0  0  0  0  0  0  0  0  0  0  0
  -21.8314  -24.3766   16.4393 N   0  0  0  0  0  0  0  0  0  0  0  0
  -26.9655  -25.6365   16.9758 N   0  0  0  0  0  0  0  0  0  0  0  0
  -28.4643  -28.7607   18.5211 N   0  0  0  0  0  0  0  0  0  0  0  0
  -29.6588  -13.4263   19.9356 N   0  0  0  0  0  0  0  0  0  0  0  0
  -28.3426  -20.0743   20.6663 N   0  0  0  0  0  0  0  0  0  0  0  0
  -26.0574  -22.0545   18.6853 N   0  3  0  0  0  0  0  0  0  0  0  0
  -19.9657  -21.1195   16.4801 N   0  3  1  0  0  0  0  0  0  0  0  0
  -28.3837  -27.1009   20.1013 O   0  0  0  0  0  0  0  0  0  0  0  0
  -28.9207  -14.7745   21.6849 O   0  0  0  0  0  0  0  0  0  0  0  0
  -21.5431  -22.6407   17.9573 O   0  0  0  0  0  0  0  0  0  0  0  0
  -30.1159  -17.9249   19.9994 O   0  0  0  0  0  0  0  0  0  0  0  0
  -26.0315  -20.2033   20.8040 O   0  0  0  0  0  0  0  0  0  0  0  0
  -24.2462  -31.6764   23.0832 O   0  0  0  0  0  0  0  0  0  0  0  0
  -22.4168  -14.4362   20.6409 O   0  0  0  0  0  0  0  0  0  1  0  0
  -28.3858  -32.9820   26.4837 F   0  0  0  0  0  0  0  0  0  0  0  0
  -21.4832  -20.5183   19.2500 F   0  0  0  0  0  0  0  0  0  0  0  0
  -24.0082  -31.3109   25.8131 F   0  0  0  0  0  0  0  0  0  0  0  0
  1  2  1  0  0  0  0
  1  5  2  0  0  0  0
  2  6  2  0  0  0  0
  3 10  2  0  0  0  0
  3 18  1  0  0  0  0
  4 11  1  0  0  0  0
  4 18  2  0  0  0  0
  5 20  1  0  0  0  0
  6 22  1  0  0  0  0
  7 12  2  0  0  0  0
  7 21  1  0  0  0  0
  8  9  2  0  0  0  0
  8 24  1  0  0  0  0
  9 25  1  0  0  0  0
 10 26  1  0  0  0  0
 11 26  2  0  0  0  0
 12 27  1  0  0  0  0
 13 14  2  0  0  0  0
 13 28  1  0  0  0  0
 14 29  1  0  0  0  0
 15 23  1  0  0  0  0
 15 27  2  0  0  0  0
 16 25  2  0  0  0  0
 16 30  1  0  0  0  0
 17 29  2  0  0  0  0
 17 31  1  0  0  0  0
 18 32  1  0  0  0  0
 19 32  1  0  0  0  0
 19 33  2  0  0  0  0
 19 34  1  0  0  0  0
 20 22  2  0  0  0  0
 20 39  1  0  0  0  0
 21 23  2  0  0  0  0
 21 40  1  0  0  0  0
 22 51  1  0  0  0  0
 23 41  1  0  0  0  0
 24 30  2  0  0  0  0
 24 61  1  0  0  0  0
 25 69  1  0  0  0  0
 26 83  1  0  0  0  0
 27 84  1  0  0  0  0
 28 31  2  0  0  0  0
 28 83  1  0  0  0  0
 29 85  1  0  0  0  0
 30 86  1  0  0  0  0
 31 87  1  0  0  0  0
 32 67  2  0  0  0  0
 33 68  1  0  0  0  0
 33 72  1  0  0  0  0
 34 73  1  0  0  0  0
 34 78  2  0  0  0  0
 35 52  1  0  0  0  0
 35 74  1  0  0  0  0
 35 79  2  0  0  0  0
 36 62  1  0  0  0  0
 36 71  1  0  0  0  0
 36 80  2  0  0  0  0
 37 64  1  0  0  0  0
 37 70  1  0  0  0  0
 37 81  2  0  0  0  0
 38 65  1  0  0  0  0
 38 75  1  0  0  0  0
 38 82  2  0  0  0  0
 39 42  1  0  0  0  0
 40 52  1  0  0  0  0
 41 70  1  0  0  0  0
 42 45  1  0  0  0  0
 43 46  1  0  0  0  0
 43 49  1  0  0  0  0
 44 47  1  0  0  0  0
 44 48  1  0  0  0  0
 45 51  1  0  0  0  0
 46 53  1  0  0  0  0
 47 54  1  0  0  0  0
 48 69  1  0  0  0  0
 49 71  1  0  0  0  0
 50 53  1  0  0  0  0
 50 71  1  0  0  0  0
 51 74  1  0  0  0  0
 52 70  1  0  0  0  0
 53 68  1  0  0  0  0
 54 63  1  0  0  0  0
 54 69  1  0  0  0  0
 55 65  1  0  0  0  0
 56 66  1  0  0  0  0
 57 66  1  0  0  0  0
 58 66  1  0  0  0  0
 59 76  1  0  0  0  0
 60 77  1  0  0  0  0
 61 77  1  0  0  0  0
 62 77  1  0  0  0  0
 63 84  1  0  0  0  0
 64 66  1  0  0  0  0
 64 75  1  0  0  0  0
 65 76  1  0  0  0  0
 67 68  1  0  0  0  0
M  CHG  2  76   1  77   1
M  ISO  4  36 100  62 100  63 101  84 101
M  END
> <Batch ID>
0020

> <Smiles>
CNC(C)C(=O)NC(C(=O)N1Cc2cc([101O:1][101CH2:1]C3CCCN3c3ccc(CN(C)[100CH2:0][100C:0](=O)N4CCCC(n5nc(-c6ccc(Oc7ccc(F)cc7F)cc6)c(C(N)=O)c5N)C4)c(F)c3)ccc2CC1C(=O)NC1CCCc2ccccc21)C(C)(C)C

> <Shape>
0.206

> <Color>
0.076

> <Negative vol penalty>
0.000

$$$$

  -OEChem-04042321083D

 82 90  0     1  0  0  0  0  0999 V2000
  -35.9988  -31.1237   19.9403 C   0  0  0  0  0  0  0  0  0  0  0  0
  -36.0788  -29.9648   20.7058 C   0  0  0  0  0  0  0  0  0  0  0  0
  -23.0526   -9.9486   19.8687 C   0  0  0  0  0  0  0  0  0  0  0  0
  -23.9092   -9.7524   22.1192 C   0  0  0  0  0  0  0  0  0  0  0  0
  -34.7718  -31.7647   19.7741 C   0  0  0  0  0  0  0  0  0  0  0  0
  -34.9319  -29.4469   21.3065 C   0  0  0  0  0  0  0  0  0  0  0  0
  -33.5884  -23.5379   22.1925 C   0  0  0  0  0  0  0  0  0  0  0  0
  -32.7763  -17.2562   23.6193 C   0  0  0  0  0  0  0  0  0  0  0  0
  -32.1226  -16.4650   22.6747 C   0  0  0  0  0  0  0  0  0  0  0  0
  -22.3237   -8.7723   20.0436 C   0  0  0  0  0  0  0  0  0  0  0  0
  -23.1802   -8.5761   22.2942 C   0  0  0  0  0  0  0  0  0  0  0  0
  -33.7114  -22.7044   23.3033 C   0  0  0  0  0  0  0  0  0  0  0  0
  -19.9831   -7.7042   22.9565 C   0  0  0  0  0  0  0  0  0  0  0  0
  -19.2766   -7.5527   24.1496 C   0  0  0  0  0  0  0  0  0  0  0  0
  -31.4042  -23.1258   23.8674 C   0  0  0  0  0  0  0  0  0  0  0  0
  -30.6442  -18.0670   24.4155 C   0  0  0  0  0  0  0  0  0  0  0  0
  -20.5543   -5.5651   24.6537 C   0  0  0  0  0  0  0  0  0  0  0  0
  -23.8454  -10.4386   20.9065 C   0  0  0  0  0  0  0  0  0  0  0  0
  -24.1738  -12.9666   21.0028 C   0  0  0  0  0  0  0  0  0  0  0  0
  -33.6076  -31.2490   20.3651 C   0  0  0  0  0  0  0  0  0  0  0  0
  -32.3734  -24.1814   21.9165 C   0  0  0  0  0  0  0  0  0  0  0  0
  -33.6885  -30.0824   21.1492 C   0  0  0  0  0  0  0  0  0  0  0  0
  -31.2677  -23.9650   22.7511 C   0  0  0  0  0  0  0  0  0  0  0  0
  -32.0370  -18.0572   24.4898 C   0  0  0  0  0  0  0  0  0  0  0  0
  -30.7298  -16.4748   22.6004 C   0  0  0  0  0  0  0  0  0  0  0  0
  -22.3874   -8.0861   21.2563 C   0  0  0  0  0  0  0  0  0  0  0  0
  -32.6201  -22.5004   24.1426 C   0  0  0  0  0  0  0  0  0  0  0  0
  -20.9751   -6.7861   22.6119 C   0  0  0  0  0  0  0  0  0  0  0  0
  -19.5623   -6.4832   24.9983 C   0  0  0  0  0  0  0  0  0  0  0  0
  -21.2607   -5.7166   23.4605 C   0  0  0  0  0  0  0  0  0  0  0  0
  -29.9905  -17.2758   23.4708 C   0  0  0  0  0  0  0  0  0  0  0  0
  -24.5991  -11.6534   20.7263 C   0  0  0  0  0  0  0  0  0  0  0  0
  -25.2472  -13.7536   20.6638 C   0  0  0  0  0  0  0  0  0  0  0  0
  -22.9206  -13.4333   21.5199 C   0  0  0  0  0  0  0  0  0  0  0  0
  -31.4336  -27.2116   21.7216 C   0  0  0  0  0  0  0  0  0  0  0  0
  -28.6524  -25.8772   20.7184 C   0  0  0  0  0  0  0  0  0  0  0  0
  -26.5957  -23.1542   20.6742 C   0  0  0  0  0  0  0  0  0  0  0  0
  -30.7125  -14.8174   20.7033 C   0  0  0  0  0  0  0  0  0  0  0  0
  -32.3125  -32.0031   20.1961 C   0  0  0  0  0  0  0  0  0  0  0  0
  -32.2495  -25.0563   20.6993 C   0  0  0  0  0  0  0  0  0  0  0  0
  -29.9355  -24.6163   22.4873 C   0  0  0  0  0  0  0  0  0  0  0  0
  -31.0777  -31.1814   20.5570 C   0  0  0  0  0  0  0  0  0  0  0  0
  -29.5062  -12.6210   18.1739 C   0  0  0  0  0  0  0  0  0  0  0  0
  -31.2871  -30.4573   21.8832 C   0  0  0  0  0  0  0  0  0  0  0  0
  -28.0870  -12.2815   18.6352 C   0  0  0  0  0  0  0  0  0  0  0  0
  -30.4708  -12.7461   19.3519 C   0  0  0  0  0  0  0  0  0  0  0  0
  -28.6219  -13.3286   20.8722 C   0  0  0  0  0  0  0  0  0  0  0  0
  -32.4622  -29.4760   21.7963 C   0  0  1  0  0  0  0  0  0  0  0  0
  -31.1113  -26.0668   20.8033 C   0  0  1  0  0  0  0  0  0  0  0  0
  -27.6005  -13.2563   19.7254 C   0  0  2  0  0  0  0  0  0  0  0  0
  -24.3738  -22.3777   19.8040 C   0  0  0  0  0  0  0  0  0  0  0  0
  -27.2410  -27.4880   22.8917 C   0  0  0  0  0  0  0  0  0  0  0  0
  -25.2526  -25.9928   22.6111 C   0  0  0  0  0  0  0  0  0  0  0  0
  -26.0304  -27.4016   20.7051 C   0  0  0  0  0  0  0  0  0  0  0  0
  -34.1554  -18.8442   25.5162 C   0  0  0  0  0  0  0  0  0  0  0  0
  -27.8454  -21.0070   19.0659 C   0  0  0  0  0  0  0  0  0  0  0  0
  -31.9594  -19.7039   26.3452 C   0  0  0  0  0  0  0  0  0  0  0  0
  -31.5634  -20.9967   25.6518 C   0  0  0  0  0  0  0  0  0  1  0  0
  -27.3952  -25.3888   21.3966 C   0  0  1  0  0  0  0  0  0  0  0  0
  -25.8687  -22.4593   19.5371 C   0  0  2  0  0  0  0  0  0  0  0  0
  -26.5053  -26.5569   21.9075 C   0  0  0  0  0  0  0  0  0  0  0  0
  -25.8453  -11.6048   20.2483 N   0  0  0  0  0  0  0  0  0  0  0  0
  -26.2124  -12.8974   20.2217 N   0  0  0  0  0  0  0  0  0  0  0  0
  -29.8662  -25.4679   21.2883 N   0  0  0  0  0  0  0  0  0  0  0  0
  -29.9463  -13.6890   20.3422 N   0  0  0  0  0  0  0  0  0  0  0  0
  -25.4501  -15.0877   20.7036 N   0  0  0  0  0  0  0  0  0  0  0  0
  -21.9268  -12.4901   21.8152 N   0  0  0  0  0  0  0  0  0  0  0  0
  -30.0976  -15.6596   21.6290 N   0  0  0  0  0  0  0  0  0  0  0  0
  -32.0646  -28.2718   21.0991 N   0  0  0  0  0  0  0  0  0  0  0  0
  -26.7329  -24.5064   20.4420 N   0  0  0  0  0  0  0  0  0  0  0  0
  -32.6943  -18.8526   25.4379 N   0  0  3  0  0  0  0  0  0  0  0  0
  -26.3904  -21.0749   19.3580 N   0  3  0  0  0  0  0  0  0  0  0  0
  -22.6831  -14.6519   21.6990 O   0  0  0  0  0  0  0  0  0  0  0  0
  -31.1309  -27.1391   22.9068 O   0  0  0  0  0  0  0  0  0  0  0  0
  -28.5608  -26.5897   19.7155 O   0  0  0  0  0  0  0  0  0  0  0  0
  -26.9981  -22.5578   21.6706 O   0  0  0  0  0  0  0  0  0  0  0  0
  -31.8202  -15.0358   20.2060 O   0  0  0  0  0  0  0  0  0  0  0  0
  -21.6761   -6.9384   21.4274 O   0  0  0  0  0  0  0  0  0  0  0  0
  -32.7376  -21.6878   25.2278 O   0  0  0  0  0  0  0  0  0  1  0  0
  -18.8849   -6.3387   26.1448 F   0  0  0  0  0  0  0  0  0  0  0  0
  -22.2135   -4.8321   23.1354 F   0  0  0  0  0  0  0  0  0  0  0  0
  -28.2642  -17.3183   23.4126 Cl  0  0  0  0  0  0  0  0  0  0  0  0
  1  2  1  0  0  0  0
  1  5  2  0  0  0  0
  2  6  2  0  0  0  0
  3 10  2  0  0  0  0
  3 18  1  0  0  0  0
  4 11  1  0  0  0  0
  4 18  2  0  0  0  0
  5 20  1  0  0  0  0
  6 22  1  0  0  0  0
  7 12  2  0  0  0  0
  7 21  1  0  0  0  0
  8  9  2  0  0  0  0
  8 24  1  0  0  0  0
  9 25  1  0  0  0  0
 10 26  1  0  0  0  0
 11 26  2  0  0  0  0
 12 27  1  0  0  0  0
 13 14  2  0  0  0  0
 13 28  1  0  0  0  0
 14 29  1  0  0  0  0
 15 23  1  0  0  0  0
 15 27  2  0  0  0  0
 16 24  2  0  0  0  0
 16 31  1  0  0  0  0
 17 29  2  0  0  0  0
 17 30  1  0  0  0  0
 18 32  1  0  0  0  0
 19 32  1  0  0  0  0
 19 33  2  0  0  0  0
 19 34  1  0  0  0  0
 20 22  2  0  0  0  0
 20 39  1  0  0  0  0
 21 23  2  0  0  0  0
 21 40  1  0  0  0  0
 22 48  1  0  0  0  0
 23 41  1  0  0  0  0
 24 71  1  0  0  0  0
 25 31  2  0  0  0  0
 25 68  1  0  0  0  0
 26 78  1  0  0  0  0
 27 79  1  0  0  0  0
 28 30  2  0  0  0  0
 28 78  1  0  0  0  0
 29 80  1  0  0  0  0
 30 81  1  0  0  0  0
 31 82  1  0  0  0  0
 32 62  2  0  0  0  0
 33 63  1  0  0  0  0
 33 66  1  0  0  0  0
 34 67  1  0  0  0  0
 34 73  2  0  0  0  0
 35 49  1  0  0  0  0
 35 69  1  0  0  0  0
 35 74  2  0  0  0  0
 36 59  1  0  0  0  0
 36 64  1  0  0  0  0
 36 75  2  0  0  0  0
 37 60  1  0  0  0  0
 37 70  1  0  0  0  0
 37 76  2  0  0  0  0
 38 65  1  0  0  0  0
 38 68  1  0  0  0  0
 38 77  2  0  0  0  0
 39 42  1  0  0  0  0
 40 49  1  0  0  0  0
 41 64  1  0  0  0  0
 42 44  1  0  0  0  0
 43 45  1  0  0  0  0
 43 46  1  0  0  0  0
 44 48  1  0  0  0  0
 45 50  1  0  0  0  0
 46 65  1  0  0  0  0
 47 50  1  0  0  0  0
 47 65  1  0  0  0  0
 48 69  1  0  0  0  0
 49 64  1  0  0  0  0
 50 63  1  0  0  0  0
 51 60  1  0  0  0  0
 52 61  1  0  0  0  0
 53 61  1  0  0  0  0
 54 61  1  0  0  0  0
 55 71  1  0  0  0  0
 56 72  1  0  0  0  0
 57 58  1  0  0  0  0
 57 71  1  0  0  0  0
 58 79  1  0  0  0  0
 59 61  1  0  0  0  0
 59 70  1  0  0  0  0
 60 72  1  0  0  0  0
 62 63  1  0  0  0  0
M  CHG  1  72   1
M  ISO  4  38 100  58 101  68 100  79 101
M  END
> <Batch ID>
0020

> <Smiles>
CNC(C)C(=O)NC(C(=O)N1Cc2cc([101O:1][101CH2:1]CN(C)c3ccc([100NH:0][100C:0](=O)N4CCCC(n5nc(-c6ccc(Oc7ccc(F)cc7F)cc6)c(C(N)=O)c5N)C4)c(Cl)c3)ccc2CC1C(=O)NC1CCCc2ccccc21)C(C)(C)C

> <Shape>
0.213

> <Color>
0.214

> <Negative vol penalty>
0.000

$$$$

  -OEChem-04042321083D

 83 91  0     1  0  0  0  0  0999 V2000
  -16.6032  -29.8790   23.7829 C   0  0  0  0  0  0  0  0  0  0  0  0
  -17.7199  -30.4868   24.3478 C   0  0  0  0  0  0  0  0  0  0  0  0
  -22.0993  -17.0041   21.4901 C   0  0  0  0  0  0  0  0  0  0  0  0
  -24.2108  -15.8672   21.7839 C   0  0  0  0  0  0  0  0  0  0  0  0
  -16.7551  -28.7376   22.9967 C   0  0  0  0  0  0  0  0  0  0  0  0
  -18.9891  -29.9529   24.1277 C   0  0  0  0  0  0  0  0  0  0  0  0
  -25.8281  -31.9439   23.3657 C   0  0  0  0  0  0  0  0  0  0  0  0
  -30.0704  -24.9611   21.1909 C   0  0  0  0  0  0  0  0  0  0  0  0
  -30.5952  -25.9986   21.9615 C   0  0  0  0  0  0  0  0  0  0  0  0
  -21.4563  -15.7741   21.3517 C   0  0  0  0  0  0  0  0  0  0  0  0
  -23.5677  -14.6372   21.6455 C   0  0  0  0  0  0  0  0  0  0  0  0
  -27.0946  -31.6645   23.8772 C   0  0  0  0  0  0  0  0  0  0  0  0
  -22.5399  -11.2092   21.0110 C   0  0  0  0  0  0  0  0  0  0  0  0
  -23.1396  -10.2527   20.1919 C   0  0  0  0  0  0  0  0  0  0  0  0
  -27.2441  -29.7353   22.4367 C   0  0  0  0  0  0  0  0  0  0  0  0
  -30.3341  -23.4446   23.0530 C   0  0  0  0  0  0  0  0  0  0  0  0
  -22.9753  -11.7601   18.3110 C   0  0  0  0  0  0  0  0  0  0  0  0
  -23.4766  -17.0507   21.7062 C   0  0  0  0  0  0  0  0  0  0  0  0
  -24.3612  -19.0365   23.0410 C   0  0  0  0  0  0  0  0  0  0  0  0
  -18.0278  -28.1950   22.7589 C   0  0  0  0  0  0  0  0  0  0  0  0
  -25.2545  -31.1135   22.3921 C   0  0  0  0  0  0  0  0  0  0  0  0
  -19.1580  -28.8024   23.3386 C   0  0  0  0  0  0  0  0  0  0  0  0
  -25.9712  -30.0078   21.9127 C   0  0  0  0  0  0  0  0  0  0  0  0
  -29.9398  -23.6841   21.7367 C   0  0  0  0  0  0  0  0  0  0  0  0
  -30.9895  -25.7591   23.2778 C   0  0  0  0  0  0  0  0  0  0  0  0
  -22.1905  -14.5907   21.4294 C   0  0  0  0  0  0  0  0  0  0  0  0
  -27.8016  -30.5584   23.4149 C   0  0  0  0  0  0  0  0  0  0  0  0
  -22.1578  -12.4413   20.4800 C   0  0  0  0  0  0  0  0  0  0  0  0
  -23.3574  -10.5281   18.8420 C   0  0  0  0  0  0  0  0  0  0  0  0
  -22.3756  -12.7167   19.1301 C   0  0  0  0  0  0  0  0  0  0  0  0
  -30.8590  -24.4820   23.8236 C   0  0  0  0  0  0  0  0  0  0  0  0
  -24.1416  -18.3210   21.8487 C   0  0  0  0  0  0  0  0  0  0  0  0
  -25.0276  -20.1698   22.6435 C   0  0  0  0  0  0  0  0  0  0  0  0
  -23.9955  -18.7063   24.3874 C   0  0  0  0  0  0  0  0  0  0  0  0
  -22.6542  -29.2911   22.2475 C   0  0  0  0  0  0  0  0  0  0  0  0
  -23.5534  -28.9310   19.1517 C   0  0  0  0  0  0  0  0  0  0  0  0
  -26.0586  -29.0028   16.8352 C   0  0  0  0  0  0  0  0  0  0  0  0
  -28.9689  -22.6988   19.6312 C   0  0  0  0  0  0  0  0  0  0  0  0
  -18.1375  -26.9325   21.9411 C   0  0  0  0  0  0  0  0  0  0  0  0
  -23.8986  -31.4438   21.8312 C   0  0  0  0  0  0  0  0  0  0  0  0
  -25.4085  -29.0966   20.8537 C   0  0  0  0  0  0  0  0  0  0  0  0
  -19.5539  -26.6470   21.4486 C   0  0  0  0  0  0  0  0  0  0  0  0
  -25.8620  -22.0490   18.0181 C   0  0  0  0  0  0  0  0  0  0  0  0
  -20.5592  -26.8251   22.5819 C   0  0  0  0  0  0  0  0  0  0  0  0
  -25.1555  -21.0800   18.9689 C   0  0  0  0  0  0  0  0  0  0  0  0
  -27.3669  -21.7923   17.9618 C   0  0  0  0  0  0  0  0  0  0  0  0
  -27.3354  -20.8002   20.2166 C   0  0  0  0  0  0  0  0  0  0  0  0
  -20.5538  -28.2674   23.1026 C   0  0  1  0  0  0  0  0  0  0  0  0
  -23.1971  -30.2376   21.2145 C   0  0  1  0  0  0  0  0  0  0  0  0
  -25.8269  -21.0618   20.3562 C   0  0  2  0  0  0  0  0  0  0  0  0
  -26.4943  -28.6272   14.3926 C   0  0  0  0  0  0  0  0  0  0  0  0
  -23.4183  -25.9150   19.5939 C   0  0  0  0  0  0  0  0  0  0  0  0
  -24.7463  -25.6176   17.4924 C   0  0  0  0  0  0  0  0  0  0  0  0
  -22.4961  -26.6904   17.4024 C   0  0  0  0  0  0  0  0  0  0  0  0
  -32.7230  -27.5108   23.5722 C   0  0  0  0  0  0  0  0  0  0  0  0
  -26.9557  -31.7963   16.4469 C   0  0  0  0  0  0  0  0  0  0  0  0
  -30.4076  -28.7135   25.1042 C   0  0  0  0  0  0  0  0  0  0  0  0
  -30.8793  -27.2711   25.2430 C   0  0  0  0  0  0  0  0  0  0  0  0
  -29.4325  -28.9122   23.9497 C   0  0  0  0  0  0  0  0  0  1  0  0
  -24.4378  -27.9651   18.4007 C   0  0  1  0  0  0  0  0  0  0  0  0
  -26.1443  -29.6482   15.4639 C   0  0  2  0  0  0  0  0  0  0  0  0
  -23.7847  -26.5629   18.2437 C   0  0  0  0  0  0  0  0  0  0  0  0
  -24.6288  -18.9473   20.7742 N   0  0  0  0  0  0  0  0  0  0  0  0
  -25.1612  -20.0683   21.2899 N   0  0  0  0  0  0  0  0  0  0  0  0
  -24.0765  -29.4578   20.3411 N   0  0  0  0  0  0  0  0  0  0  0  0
  -27.9350  -21.7935   19.3117 N   0  0  0  0  0  0  0  0  0  0  0  0
  -25.5065  -21.2333   23.3232 N   0  0  0  0  0  0  0  0  0  0  0  0
  -23.3147  -17.5033   24.6189 N   0  0  0  0  0  0  0  0  0  0  0  0
  -29.4071  -22.6304   20.9533 N   0  0  0  0  0  0  0  0  0  0  0  0
  -21.2823  -29.1332   22.2002 N   0  0  0  0  0  0  0  0  0  0  0  0
  -24.7706  -28.6141   17.1372 N   0  0  0  0  0  0  0  0  0  0  0  0
  -31.5137  -26.8221   24.0272 N   0  0  3  0  0  0  0  0  0  0  0  0
  -27.1868  -30.7131   15.4568 N   0  3  0  0  0  0  0  0  0  0  0  0
  -24.2501  -19.4636   25.3545 O   0  0  0  0  0  0  0  0  0  0  0  0
  -23.4234  -28.7433   23.0286 O   0  0  0  0  0  0  0  0  0  0  0  0
  -22.4424  -29.2132   18.6960 O   0  0  0  0  0  0  0  0  0  0  0  0
  -27.0371  -28.8547   17.5640 O   0  0  0  0  0  0  0  0  0  0  0  0
  -29.4127  -23.4962   18.8011 O   0  0  0  0  0  0  0  0  0  0  0  0
  -21.5633  -13.3902   21.2947 O   0  0  0  0  0  0  0  0  0  0  0  0
  -29.0377  -30.2830   23.9129 O   0  0  0  0  0  0  0  0  0  1  0  0
  -23.9347   -9.6100   18.0559 F   0  0  0  0  0  0  0  0  0  0  0  0
  -22.0118  -13.8990   18.6146 F   0  0  0  0  0  0  0  0  0  0  0  0
  -31.3341  -24.1429   25.4495 Cl  0  0  0  0  0  0  0  0  0  0  0  0
  1  2  1  0  0  0  0
  1  5  2  0  0  0  0
  2  6  2  0  0  0  0
  3 10  2  0  0  0  0
  3 18  1  0  0  0  0
  4 11  1  0  0  0  0
  4 18  2  0  0  0  0
  5 20  1  0  0  0  0
  6 22  1  0  0  0  0
  7 12  2  0  0  0  0
  7 21  1  0  0  0  0
  8  9  2  0  0  0  0
  8 24  1  0  0  0  0
  9 25  1  0  0  0  0
 10 26  1  0  0  0  0
 11 26  2  0  0  0  0
 12 27  1  0  0  0  0
 13 14  2  0  0  0  0
 13 28  1  0  0  0  0
 14 29  1  0  0  0  0
 15 23  1  0  0  0  0
 15 27  2  0  0  0  0
 16 24  2  0  0  0  0
 16 31  1  0  0  0  0
 17 29  2  0  0  0  0
 17 30  1  0  0  0  0
 18 32  1  0  0  0  0
 19 32  1  0  0  0  0
 19 33  2  0  0  0  0
 19 34  1  0  0  0  0
 20 22  2  0  0  0  0
 20 39  1  0  0  0  0
 21 23  2  0  0  0  0
 21 40  1  0  0  0  0
 22 48  1  0  0  0  0
 23 41  1  0  0  0  0
 24 69  1  0  0  0  0
 25 31  2  0  0  0  0
 25 72  1  0  0  0  0
 26 79  1  0  0  0  0
 27 80  1  0  0  0  0
 28 30  2  0  0  0  0
 28 79  1  0  0  0  0
 29 81  1  0  0  0  0
 30 82  1  0  0  0  0
 31 83  1  0  0  0  0
 32 63  2  0  0  0  0
 33 64  1  0  0  0  0
 33 67  1  0  0  0  0
 34 68  1  0  0  0  0
 34 74  2  0  0  0  0
 35 49  1  0  0  0  0
 35 70  1  0  0  0  0
 35 75  2  0  0  0  0
 36 60  1  0  0  0  0
 36 65  1  0  0  0  0
 36 76  2  0  0  0  0
 37 61  1  0  0  0  0
 37 71  1  0  0  0  0
 37 77  2  0  0  0  0
 38 66  1  0  0  0  0
 38 69  1  0  0  0  0
 38 78  2  0  0  0  0
 39 42  1  0  0  0  0
 40 49  1  0  0  0  0
 41 65  1  0  0  0  0
 42 44  1  0  0  0  0
 43 45  1  0  0  0  0
 43 46  1  0  0  0  0
 44 48  1  0  0  0  0
 45 50  1  0  0  0  0
 46 66  1  0  0  0  0
 47 50  1  0  0  0  0
 47 66  1  0  0  0  0
 48 70  1  0  0  0  0
 49 65  1  0  0  0  0
 50 64  1  0  0  0  0
 51 61  1  0  0  0  0
 52 62  1  0  0  0  0
 53 62  1  0  0  0  0
 54 62  1  0  0  0  0
 55 72  1  0  0  0  0
 56 73  1  0  0  0  0
 57 58  1  0  0  0  0
 57 59  1  0  0  0  0
 58 72  1  0  0  0  0
 59 80  1  0  0  0  0
 60 62  1  0  0  0  0
 60 71  1  0  0  0  0
 61 73  1  0  0  0  0
 63 64  1  0  0  0  0
M  CHG  1  73   1
M  ISO  4  38 100  59 101  69 100  80 101
M  END
> <Batch ID>
0020

> <Smiles>
CNC(C)C(=O)NC(C(=O)N1Cc2cc([101O:1][101CH2:1]CCN(C)c3ccc([100NH:0][100C:0](=O)N4CCCC(n5nc(-c6ccc(Oc7ccc(F)cc7F)cc6)c(C(N)=O)c5N)C4)cc3Cl)ccc2CC1C(=O)NC1CCCc2ccccc21)C(C)(C)C

> <Shape>
0.221

> <Color>
0.111

> <Negative vol penalty>
0.000

$$$$

  -OEChem-04042321083D

 88 97  0     1  0  0  0  0  0999 V2000
  -27.5978  -24.1907   17.0788 C   0  0  0  0  0  0  0  0  0  0  0  0
  -26.4127  -24.5406   17.7179 C   0  0  0  0  0  0  0  0  0  0  0  0
  -23.8770  -13.2967   20.5714 C   0  0  0  0  0  0  0  0  0  0  0  0
  -26.0299  -13.8772   21.5014 C   0  0  0  0  0  0  0  0  0  0  0  0
  -28.8218  -24.5828   17.6191 C   0  0  0  0  0  0  0  0  0  0  0  0
  -26.4509  -25.2820   18.8982 C   0  0  0  0  0  0  0  0  0  0  0  0
  -23.0653  -29.0478   18.9378 C   0  0  0  0  0  0  0  0  0  0  0  0
  -24.4154  -12.1149   20.0625 C   0  0  0  0  0  0  0  0  0  0  0  0
  -26.5684  -12.6954   20.9925 C   0  0  0  0  0  0  0  0  0  0  0  0
  -21.7390  -28.7088   19.2021 C   0  0  0  0  0  0  0  0  0  0  0  0
  -27.6663  -11.5391   18.0112 C   0  0  0  0  0  0  0  0  0  0  0  0
  -28.9022  -11.6139   17.3690 C   0  0  0  0  0  0  0  0  0  0  0  0
  -22.0166  -29.4299   21.4874 C   0  0  0  0  0  0  0  0  0  0  0  0
  -20.2330  -23.4104   24.9282 C   0  0  0  0  0  0  0  0  0  0  0  0
  -21.3462  -22.2278   22.6600 C   0  0  0  0  0  0  0  0  0  0  0  0
  -29.8352  -10.0802   18.9859 C   0  0  0  0  0  0  0  0  0  0  0  0
  -24.6842  -14.1779   21.2908 C   0  0  0  0  0  0  0  0  0  0  0  0
  -23.5330  -15.5883   23.0777 C   0  0  0  0  0  0  0  0  0  0  0  0
  -28.8748  -25.3376   18.8015 C   0  0  0  0  0  0  0  0  0  0  0  0
  -23.8817  -29.5710   19.9507 C   0  0  0  0  0  0  0  0  0  0  0  0
  -27.6769  -25.6834   19.4556 C   0  0  0  0  0  0  0  0  0  0  0  0
  -23.3521  -29.7770   21.2326 C   0  0  0  0  0  0  0  0  0  0  0  0
  -19.5393  -23.4328   23.7184 C   0  0  0  0  0  0  0  0  0  0  0  0
  -22.0399  -22.2054   23.8699 C   0  0  0  0  0  0  0  0  0  0  0  0
  -25.7611  -11.8142   20.2730 C   0  0  0  0  0  0  0  0  0  0  0  0
  -21.2153  -28.8972   20.4778 C   0  0  0  0  0  0  0  0  0  0  0  0
  -27.5148  -10.7349   19.1408 C   0  0  0  0  0  0  0  0  0  0  0  0
  -29.9867  -10.8844   17.8563 C   0  0  0  0  0  0  0  0  0  0  0  0
  -20.0959  -22.8415   22.5842 C   0  0  0  0  0  0  0  0  0  0  0  0
  -21.4833  -22.7967   25.0040 C   0  0  0  0  0  0  0  0  0  0  0  0
  -28.5992  -10.0054   19.6281 C   0  0  0  0  0  0  0  0  0  0  0  0
  -24.1287  -15.3991   21.8163 C   0  0  0  0  0  0  0  0  0  0  0  0
  -23.1709  -16.9132   23.0912 C   0  0  0  0  0  0  0  0  0  0  0  0
  -17.9907  -26.6257   23.3923 C   0  0  0  0  0  0  0  0  0  0  0  0
  -23.3256  -14.6504   24.1422 C   0  0  0  0  0  0  0  0  0  0  0  0
  -26.5613  -28.6334   21.3806 C   0  0  0  0  0  0  0  0  0  0  0  0
  -26.3605  -31.5426   22.8014 C   0  0  0  0  0  0  0  0  0  0  0  0
  -24.4017  -34.1617   23.7763 C   0  0  0  0  0  0  0  0  0  0  0  0
  -24.8438  -22.2366   22.0052 C   0  0  0  0  0  0  0  0  0  0  0  0
  -30.2232  -25.6979   19.3730 C   0  0  0  0  0  0  0  0  0  0  0  0
  -25.3025  -29.9565   19.6425 C   0  0  0  0  0  0  0  0  0  0  0  0
  -24.1811  -30.3545   22.3497 C   0  0  0  0  0  0  0  0  0  0  0  0
  -30.1634  -26.8020   20.4254 C   0  0  0  0  0  0  0  0  0  0  0  0
  -23.0326  -20.3446   19.3896 C   0  0  0  0  0  0  0  0  0  0  0  0
  -29.0416  -26.5291   21.4224 C   0  0  0  0  0  0  0  0  0  0  0  0
  -23.1753  -18.8996   19.8647 C   0  0  0  0  0  0  0  0  0  0  0  0
  -24.1983  -21.2122   19.8546 C   0  0  0  0  0  0  0  0  0  0  0  0
  -18.7762  -25.7090   21.6722 C   0  0  0  0  0  0  0  0  0  0  0  0
  -24.5696  -19.7315   21.7998 C   0  0  0  0  0  0  0  0  0  0  0  0
  -27.6763  -26.5081   20.7244 C   0  0  1  0  0  0  0  0  0  0  0  0
  -18.4464  -27.1851   22.0237 C   0  0  2  0  0  0  0  0  0  0  0  0
  -26.1916  -30.0016   20.8815 C   0  0  1  0  0  0  0  0  0  0  0  0
  -23.3877  -18.8412   21.3875 C   0  0  2  0  0  0  0  0  0  0  0  0
  -24.5160  -36.3776   24.9486 C   0  0  0  0  0  0  0  0  0  0  0  0
  -26.5850  -30.1085   25.4852 C   0  0  0  0  0  0  0  0  0  0  0  0
  -25.7519  -32.1946   26.5908 C   0  0  0  0  0  0  0  0  0  0  0  0
  -27.8998  -32.2296   25.3227 C   0  0  0  0  0  0  0  0  0  0  0  0
  -24.8497  -23.5198   24.1107 C   0  0  0  0  0  0  0  0  0  0  0  0
  -23.4363  -35.6091   21.3822 C   0  0  0  0  0  0  0  0  0  0  0  0
  -18.1938  -24.0945   23.6405 C   0  0  0  0  0  0  0  0  0  0  0  0
  -23.3763  -21.5479   23.9481 C   0  0  0  0  0  0  0  0  0  0  0  0
  -19.6130  -28.1487   22.0679 C   0  0  0  0  0  0  0  0  0  1  0  0
  -25.7160  -32.0766   24.0578 C   0  0  1  0  0  0  0  0  0  0  0  0
  -24.5681  -35.6612   23.6082 C   0  0  2  0  0  0  0  0  0  0  0  0
  -26.4729  -31.6396   25.3438 C   0  0  0  0  0  0  0  0  0  0  0  0
  -24.1458  -16.5144   21.0817 N   0  0  0  0  0  0  0  0  0  0  0  0
  -23.5564  -17.4172   21.8839 N   0  0  0  0  0  0  0  0  0  0  0  0
  -18.2591  -25.3649   22.9861 N   0  0  0  0  0  0  0  0  0  0  0  0
  -25.5664  -30.7098   22.0003 N   0  0  0  0  0  0  0  0  0  0  0  0
  -24.4051  -21.1044   21.2991 N   0  0  0  0  0  0  0  0  0  0  0  0
  -22.5634  -17.6845   24.0178 N   0  0  0  0  0  0  0  0  0  0  0  0
  -23.7585  -13.3296   23.9626 N   0  0  0  0  0  0  0  0  0  0  0  0
  -27.2273  -27.8567   20.4519 N   0  0  0  0  0  0  0  0  0  0  0  0
  -25.6184  -33.5218   23.8840 N   0  0  0  0  0  0  0  0  0  0  0  0
  -24.4302  -22.3576   23.3405 N   0  0  0  0  0  0  0  0  0  0  0  0
  -23.4868  -36.2083   22.7406 N   0  3  0  0  0  0  0  0  0  0  0  0
  -17.5706  -27.0864   24.4287 O   0  0  0  0  0  0  0  0  0  0  0  0
  -22.7580  -14.9701   25.2142 O   0  0  0  0  0  0  0  0  0  0  0  0
  -26.2655  -28.3072   22.5242 O   0  0  0  0  0  0  0  0  0  0  0  0
  -27.5231  -31.8588   22.5367 O   0  0  0  0  0  0  0  0  0  0  0  0
  -23.3024  -33.6134   23.8126 O   0  0  0  0  0  0  0  0  0  0  0  0
  -25.5563  -23.0954   21.4696 O   0  0  0  0  0  0  0  0  0  0  0  0
  -26.2869  -10.6610   19.7768 O   0  0  0  0  0  0  0  0  0  0  0  0
  -19.9213  -28.5666   20.7387 O   0  0  0  0  0  0  0  0  0  1  0  0
  -31.1731  -10.9552   17.2386 F   0  0  0  0  0  0  0  0  0  0  0  0
  -19.4368  -22.8584   21.4172 F   0  0  0  0  0  0  0  0  0  0  0  0
  -22.1424  -22.7800   26.1710 F   0  0  0  0  0  0  0  0  0  0  0  0
  -28.4595   -9.2302   20.7122 F   0  0  0  0  0  0  0  0  0  0  0  0
  1  2  1  0  0  0  0
  1  5  2  0  0  0  0
  2  6  2  0  0  0  0
  3  8  2  0  0  0  0
  3 17  1  0  0  0  0
  4  9  1  0  0  0  0
  4 17  2  0  0  0  0
  5 19  1  0  0  0  0
  6 21  1  0  0  0  0
  7 10  2  0  0  0  0
  7 20  1  0  0  0  0
  8 25  1  0  0  0  0
  9 25  2  0  0  0  0
 10 26  1  0  0  0  0
 11 12  2  0  0  0  0
 11 27  1  0  0  0  0
 12 28  1  0  0  0  0
 13 22  1  0  0  0  0
 13 26  2  0  0  0  0
 14 23  1  0  0  0  0
 14 30  2  0  0  0  0
 15 24  2  0  0  0  0
 15 29  1  0  0  0  0
 16 28  2  0  0  0  0
 16 31  1  0  0  0  0
 17 32  1  0  0  0  0
 18 32  1  0  0  0  0
 18 33  2  0  0  0  0
 18 35  1  0  0  0  0
 19 21  2  0  0  0  0
 19 40  1  0  0  0  0
 20 22  2  0  0  0  0
 20 41  1  0  0  0  0
 21 50  1  0  0  0  0
 22 42  1  0  0  0  0
 23 29  2  0  0  0  0
 23 60  1  0  0  0  0
 24 30  1  0  0  0  0
 24 61  1  0  0  0  0
 25 83  1  0  0  0  0
 26 84  1  0  0  0  0
 27 31  2  0  0  0  0
 27 83  1  0  0  0  0
 28 85  1  0  0  0  0
 29 86  1  0  0  0  0
 30 87  1  0  0  0  0
 31 88  1  0  0  0  0
 32 66  2  0  0  0  0
 33 67  1  0  0  0  0
 33 71  1  0  0  0  0
 34 51  1  0  0  0  0
 34 68  1  0  0  0  0
 34 77  2  0  0  0  0
 35 72  1  0  0  0  0
 35 78  2  0  0  0  0
 36 52  1  0  0  0  0
 36 73  1  0  0  0  0
 36 79  2  0  0  0  0
 37 63  1  0  0  0  0
 37 69  1  0  0  0  0
 37 80  2  0  0  0  0
 38 64  1  0  0  0  0
 38 74  1  0  0  0  0
 38 81  2  0  0  0  0
 39 70  1  0  0  0  0
 39 75  1  0  0  0  0
 39 82  2  0  0  0  0
 40 43  1  0  0  0  0
 41 52  1  0  0  0  0
 42 69  1  0  0  0  0
 43 45  1  0  0  0  0
 44 46  1  0  0  0  0
 44 47  1  0  0  0  0
 45 50  1  0  0  0  0
 46 53  1  0  0  0  0
 47 70  1  0  0  0  0
 48 51  1  0  0  0  0
 48 68  1  0  0  0  0
 49 53  1  0  0  0  0
 49 70  1  0  0  0  0
 50 73  1  0  0  0  0
 51 62  1  0  0  0  0
 52 69  1  0  0  0  0
 53 67  1  0  0  0  0
 54 64  1  0  0  0  0
 55 65  1  0  0  0  0
 56 65  1  0  0  0  0
 57 65  1  0  0  0  0
 58 75  1  0  0  0  0
 59 76  1  0  0  0  0
 60 68  1  0  0  0  0
 61 75  1  0  0  0  0
 62 84  1  0  0  0  0
 63 65  1  0  0  0  0
 63 74  1  0  0  0  0
 64 76  1  0  0  0  0
 66 67  1  0  0  0  0
M  CHG  1  76   1
M  ISO  4  39 100  62 101  75 100  84 101
M  END
> <Batch ID>
0020

> <Smiles>
CNC(C)C(=O)NC(C(=O)N1Cc2cc([101O:1][101CH2:1]C3CN(Cc4cc(F)c(C[100N:0](C)[100C:0](=O)N5CCCC(n6nc(-c7ccc(Oc8ccc(F)cc8F)cc7)c(C(N)=O)c6N)C5)cc4F)C3=O)ccc2CC1C(=O)NC1CCCc2ccccc21)C(C)(C)C

> <Shape>
0.254

> <Color>
0.076

> <Negative vol penalty>
0.000

$$$$

  -OEChem-04042321083D

 84 92  0     1  0  0  0  0  0999 V2000
  -21.1272  -20.5637   25.1399 C   0  0  0  0  0  0  0  0  0  0  0  0
  -22.4346  -20.6386   24.6702 C   0  0  0  0  0  0  0  0  0  0  0  0
  -24.4870   -9.3083   20.0187 C   0  0  0  0  0  0  0  0  0  0  0  0
  -24.4576   -9.7765   22.3887 C   0  0  0  0  0  0  0  0  0  0  0  0
  -20.1861  -21.5082   24.7321 C   0  0  0  0  0  0  0  0  0  0  0  0
  -22.8014  -21.6574   23.7916 C   0  0  0  0  0  0  0  0  0  0  0  0
  -28.2135  -24.5102   23.5160 C   0  0  0  0  0  0  0  0  0  0  0  0
  -29.1758  -19.1773   19.5501 C   0  0  0  0  0  0  0  0  0  0  0  0
  -24.2165   -7.9653   20.2806 C   0  0  0  0  0  0  0  0  0  0  0  0
  -24.1870   -8.4335   22.6507 C   0  0  0  0  0  0  0  0  0  0  0  0
  -29.3233  -24.3385   22.6899 C   0  0  0  0  0  0  0  0  0  0  0  0
  -29.7595  -20.2664   18.9031 C   0  0  0  0  0  0  0  0  0  0  0  0
  -23.1313   -5.1966   23.9259 C   0  0  0  0  0  0  0  0  0  0  0  0
  -22.1393   -4.9047   24.8620 C   0  0  0  0  0  0  0  0  0  0  0  0
  -28.5232  -26.1069   21.2575 C   0  0  0  0  0  0  0  0  0  0  0  0
  -27.4312  -20.6168   20.3993 C   0  0  0  0  0  0  0  0  0  0  0  0
  -20.5174   -6.0777   23.5089 C   0  0  0  0  0  0  0  0  0  0  0  0
  -24.6076  -10.2140   21.0727 C   0  0  0  0  0  0  0  0  0  0  0  0
  -23.9522  -12.6312   20.5880 C   0  0  0  0  0  0  0  0  0  0  0  0
  -20.5439  -22.5447   23.8557 C   0  0  0  0  0  0  0  0  0  0  0  0
  -27.2429  -25.4758   23.2126 C   0  0  0  0  0  0  0  0  0  0  0  0
  -21.8638  -22.6158   23.3707 C   0  0  0  0  0  0  0  0  0  0  0  0
  -27.4033  -26.2906   22.0828 C   0  0  0  0  0  0  0  0  0  0  0  0
  -28.0116  -19.3525   20.2982 C   0  0  0  0  0  0  0  0  0  0  0  0
  -24.0665   -7.5278   21.5966 C   0  0  0  0  0  0  0  0  0  0  0  0
  -29.4769  -25.1349   21.5589 C   0  0  0  0  0  0  0  0  0  0  0  0
  -22.8164   -5.9291   22.7813 C   0  0  0  0  0  0  0  0  0  0  0  0
  -29.1791  -21.5307   19.0042 C   0  0  0  0  0  0  0  0  0  0  0  0
  -20.8323   -5.3452   24.6535 C   0  0  0  0  0  0  0  0  0  0  0  0
  -28.0149  -21.7060   19.7523 C   0  0  0  0  0  0  0  0  0  0  0  0
  -21.5095   -6.3696   22.5729 C   0  0  0  0  0  0  0  0  0  0  0  0
  -24.8876  -11.6014   20.8028 C   0  0  0  0  0  0  0  0  0  0  0  0
  -24.7177  -13.7519   20.3770 C   0  0  0  0  0  0  0  0  0  0  0  0
  -22.5194  -12.5795   20.5800 C   0  0  0  0  0  0  0  0  0  0  0  0
  -24.1413  -25.3987   22.5214 C   0  0  0  0  0  0  0  0  0  0  0  0
  -24.4294  -28.6270   22.6539 C   0  0  0  0  0  0  0  0  0  0  0  0
  -26.4489  -31.3677   22.4153 C   0  0  0  0  0  0  0  0  0  0  0  0
  -29.1301  -16.8250   22.2221 C   0  0  0  0  0  0  0  0  0  0  0  0
  -19.4802  -23.5147   23.4059 C   0  0  0  0  0  0  0  0  0  0  0  0
  -26.0652  -25.6667   24.1285 C   0  0  0  0  0  0  0  0  0  0  0  0
  -26.4002  -27.3553   21.7241 C   0  0  0  0  0  0  0  0  0  0  0  0
  -20.0424  -24.7821   22.7672 C   0  0  0  0  0  0  0  0  0  0  0  0
  -29.6793  -14.2728   19.5980 C   0  0  0  0  0  0  0  0  0  0  0  0
  -21.1305  -24.4332   21.7567 C   0  0  0  0  0  0  0  0  0  0  0  0
  -28.4320  -13.3986   19.7173 C   0  0  0  0  0  0  0  0  0  0  0  0
  -30.0394  -14.9315   20.9262 C   0  0  0  0  0  0  0  0  0  0  0  0
  -27.6782  -14.8344   21.6540 C   0  0  0  0  0  0  0  0  0  0  0  0
  -22.3062  -23.7206   22.4359 C   0  0  1  0  0  0  0  0  0  0  0  0
  -24.8760  -26.3316   23.4421 C   0  0  1  0  0  0  0  0  0  0  0  0
  -27.2613  -14.1929   20.3220 C   0  0  2  0  0  0  0  0  0  0  0  0
  -26.3909  -33.8737   22.5338 C   0  0  0  0  0  0  0  0  0  0  0  0
  -23.1824  -28.7273   19.8710 C   0  0  0  0  0  0  0  0  0  0  0  0
  -24.0114  -31.0802   19.6604 C   0  0  0  0  0  0  0  0  0  0  0  0
  -22.3683  -30.4936   21.4432 C   0  0  0  0  0  0  0  0  0  0  0  0
  -27.9635  -18.6890   23.3375 C   0  0  0  0  0  0  0  0  0  0  0  0
  -28.3104  -31.4178   24.7156 C   0  0  0  0  0  0  0  0  0  0  0  0
  -27.3895  -18.1879   20.9912 C   0  0  0  0  0  0  0  0  0  0  0  0
  -31.3293  -24.4144   18.5322 C   0  0  0  0  0  0  0  0  0  0  0  0
  -30.3872  -25.2687   19.3658 C   0  0  0  0  0  0  0  0  0  1  0  0
  -31.0855  -22.9281   18.7421 C   0  0  0  0  0  0  0  0  0  0  0  0
  -24.7631  -29.7123   21.6590 C   0  0  1  0  0  0  0  0  0  0  0  0
  -26.6064  -32.5839   23.3101 C   0  0  2  0  0  0  0  0  0  0  0  0
  -23.5994  -29.9821   20.6638 C   0  0  0  0  0  0  0  0  0  0  0  0
  -26.1509  -12.0297   20.7344 N   0  0  0  0  0  0  0  0  0  0  0  0
  -26.0147  -13.3411   20.4741 N   0  0  0  0  0  0  0  0  0  0  0  0
  -25.2625  -27.4992   22.6474 N   0  0  0  0  0  0  0  0  0  0  0  0
  -28.8967  -15.6432   21.4998 N   0  0  0  0  0  0  0  0  0  0  0  0
  -24.4013  -15.0388   20.1196 N   0  0  0  0  0  0  0  0  0  0  0  0
  -21.8940  -11.3474   20.8149 N   0  0  0  0  0  0  0  0  0  0  0  0
  -23.1384  -24.6746   23.1373 N   0  0  0  0  0  0  0  0  0  0  0  0
  -25.1608  -30.8765   22.4431 N   0  0  0  0  0  0  0  0  0  0  0  0
  -28.1223  -17.8009   22.1947 N   0  0  0  0  0  0  0  0  0  0  0  0
  -27.9725  -32.6159   23.9048 N   0  3  0  0  0  0  0  0  0  0  0  0
  -21.8148  -13.5925   20.3545 O   0  0  0  0  0  0  0  0  0  0  0  0
  -24.4598  -25.3413   21.3395 O   0  0  0  0  0  0  0  0  0  0  0  0
  -23.4695  -28.7775   23.4139 O   0  0  0  0  0  0  0  0  0  0  0  0
  -27.3750  -30.9024   21.7547 O   0  0  0  0  0  0  0  0  0  0  0  0
  -30.1833  -17.0018   22.8476 O   0  0  0  0  0  0  0  0  0  0  0  0
  -23.8022   -6.2174   21.8525 O   0  0  0  0  0  0  0  0  0  0  0  0
  -30.5589  -24.9689   20.7504 O   0  0  0  0  0  0  0  0  0  1  0  0
  -29.7541  -22.6002   18.3684 O   0  0  0  0  0  0  0  0  0  0  0  0
  -19.8795   -5.0635   25.5518 F   0  0  0  0  0  0  0  0  0  0  0  0
  -27.4529  -22.9183   19.8534 F   0  0  0  0  0  0  0  0  0  0  0  0
  -21.2006   -7.0727   21.4746 F   0  0  0  0  0  0  0  0  0  0  0  0
  1  2  1  0  0  0  0
  1  5  2  0  0  0  0
  2  6  2  0  0  0  0
  3  9  2  0  0  0  0
  3 18  1  0  0  0  0
  4 10  1  0  0  0  0
  4 18  2  0  0  0  0
  5 20  1  0  0  0  0
  6 22  1  0  0  0  0
  7 11  2  0  0  0  0
  7 21  1  0  0  0  0
  8 12  2  0  0  0  0
  8 24  1  0  0  0  0
  9 25  1  0  0  0  0
 10 25  2  0  0  0  0
 11 26  1  0  0  0  0
 12 28  1  0  0  0  0
 13 14  2  0  0  0  0
 13 27  1  0  0  0  0
 14 29  1  0  0  0  0
 15 23  1  0  0  0  0
 15 26  2  0  0  0  0
 16 24  2  0  0  0  0
 16 30  1  0  0  0  0
 17 29  2  0  0  0  0
 17 31  1  0  0  0  0
 18 32  1  0  0  0  0
 19 32  1  0  0  0  0
 19 33  2  0  0  0  0
 19 34  1  0  0  0  0
 20 22  2  0  0  0  0
 20 39  1  0  0  0  0
 21 23  2  0  0  0  0
 21 40  1  0  0  0  0
 22 48  1  0  0  0  0
 23 41  1  0  0  0  0
 24 57  1  0  0  0  0
 25 79  1  0  0  0  0
 26 80  1  0  0  0  0
 27 31  2  0  0  0  0
 27 79  1  0  0  0  0
 28 30  2  0  0  0  0
 28 81  1  0  0  0  0
 29 82  1  0  0  0  0
 30 83  1  0  0  0  0
 31 84  1  0  0  0  0
 32 64  2  0  0  0  0
 33 65  1  0  0  0  0
 33 68  1  0  0  0  0
 34 69  1  0  0  0  0
 34 74  2  0  0  0  0
 35 49  1  0  0  0  0
 35 70  1  0  0  0  0
 35 75  2  0  0  0  0
 36 61  1  0  0  0  0
 36 66  1  0  0  0  0
 36 76  2  0  0  0  0
 37 62  1  0  0  0  0
 37 71  1  0  0  0  0
 37 77  2  0  0  0  0
 38 67  1  0  0  0  0
 38 72  1  0  0  0  0
 38 78  2  0  0  0  0
 39 42  1  0  0  0  0
 40 49  1  0  0  0  0
 41 66  1  0  0  0  0
 42 44  1  0  0  0  0
 43 45  1  0  0  0  0
 43 46  1  0  0  0  0
 44 48  1  0  0  0  0
 45 50  1  0  0  0  0
 46 67  1  0  0  0  0
 47 50  1  0  0  0  0
 47 67  1  0  0  0  0
 48 70  1  0  0  0  0
 49 66  1  0  0  0  0
 50 65  1  0  0  0  0
 51 62  1  0  0  0  0
 52 63  1  0  0  0  0
 53 63  1  0  0  0  0
 54 63  1  0  0  0  0
 55 72  1  0  0  0  0
 56 73  1  0  0  0  0
 57 72  1  0  0  0  0
 58 59  1  0  0  0  0
 58 60  1  0  0  0  0
 59 80  1  0  0  0  0
 60 81  1  0  0  0  0
 61 63  1  0  0  0  0
 61 71  1  0  0  0  0
 62 73  1  0  0  0  0
 64 65  1  0  0  0  0
M  CHG  1  73   1
M  ISO  4  38 100  59 101  72 100  80 101
M  END
> <Batch ID>
0020

> <Smiles>
CNC(C)C(=O)NC(C(=O)N1Cc2cc([101O:1][101CH2:1]CCOc3ccc(C[100N:0](C)[100C:0](=O)N4CCCC(n5nc(-c6ccc(Oc7ccc(F)cc7F)cc6)c(C(N)=O)c5N)C4)cc3F)ccc2CC1C(=O)NC1CCCc2ccccc21)C(C)(C)C

> <Shape>
0.289

> <Color>
0.108

> <Negative vol penalty>
0.000

$$$$

  -OEChem-04042321083D

 85 94  0     1  0  0  0  0  0999 V2000
  -17.3631  -26.0007   22.0550 C   0  0  0  0  0  0  0  0  0  0  0  0
  -18.6410  -25.8061   21.5408 C   0  0  0  0  0  0  0  0  0  0  0  0
  -30.8884  -22.2431   22.1123 C   0  0  0  0  0  0  0  0  0  0  0  0
  -26.8104  -11.4397   20.9608 C   0  0  0  0  0  0  0  0  0  0  0  0
  -25.7817  -13.4451   20.0906 C   0  0  0  0  0  0  0  0  0  0  0  0
  -16.9221  -27.2890   22.3545 C   0  0  0  0  0  0  0  0  0  0  0  0
  -19.4784  -26.8999   21.3247 C   0  0  0  0  0  0  0  0  0  0  0  0
  -24.2019  -26.0831   22.9576 C   0  0  0  0  0  0  0  0  0  0  0  0
  -29.8574  -22.7595   21.3276 C   0  0  0  0  0  0  0  0  0  0  0  0
  -31.2947  -20.9190   21.9469 C   0  0  0  0  0  0  0  0  0  0  0  0
  -25.5748  -11.0194   21.4529 C   0  0  0  0  0  0  0  0  0  0  0  0
  -24.5460  -13.0247   20.5826 C   0  0  0  0  0  0  0  0  0  0  0  0
  -25.0278  -25.3008   22.1517 C   0  0  0  0  0  0  0  0  0  0  0  0
  -22.7643   -9.5884   20.2338 C   0  0  0  0  0  0  0  0  0  0  0  0
  -22.4001   -8.2589   20.0210 C   0  0  0  0  0  0  0  0  0  0  0  0
  -26.0671  -27.2989   21.2875 C   0  0  0  0  0  0  0  0  0  0  0  0
  -22.2587   -7.9154   22.4083 C   0  0  0  0  0  0  0  0  0  0  0  0
  -26.9139  -12.6526   20.2797 C   0  0  0  0  0  0  0  0  0  0  0  0
  -28.7368  -12.8178   18.5028 C   0  0  0  0  0  0  0  0  0  0  0  0
  -17.7580  -28.3983   22.1510 C   0  0  0  0  0  0  0  0  0  0  0  0
  -24.2950  -27.4820   22.9264 C   0  0  0  0  0  0  0  0  0  0  0  0
  -19.0477  -28.2044   21.6204 C   0  0  0  0  0  0  0  0  0  0  0  0
  -25.2429  -28.0966   22.0959 C   0  0  0  0  0  0  0  0  0  0  0  0
  -29.2324  -21.9518   20.3775 C   0  0  0  0  0  0  0  0  0  0  0  0
  -29.6386  -20.6276   20.2121 C   0  0  0  0  0  0  0  0  0  0  0  0
  -30.6697  -20.1112   20.9969 C   0  0  0  0  0  0  0  0  0  0  0  0
  -24.4426  -11.8118   21.2638 C   0  0  0  0  0  0  0  0  0  0  0  0
  -25.9586  -25.9087   21.3143 C   0  0  0  0  0  0  0  0  0  0  0  0
  -22.8758  -10.0814   21.5339 C   0  0  0  0  0  0  0  0  0  0  0  0
  -22.1473   -7.4224   21.1082 C   0  0  0  0  0  0  0  0  0  0  0  0
  -22.6229   -9.2449   22.6211 C   0  0  0  0  0  0  0  0  0  0  0  0
  -28.1901  -13.0877   19.7717 C   0  0  0  0  0  0  0  0  0  0  0  0
  -29.9566  -13.4490   18.5131 C   0  0  0  0  0  0  0  0  0  0  0  0
  -28.1908  -12.0639   17.4123 C   0  0  0  0  0  0  0  0  0  0  0  0
  -22.3158  -29.8451   22.1503 C   0  0  0  0  0  0  0  0  0  0  0  0
  -24.7341  -31.7084   23.2469 C   0  0  0  0  0  0  0  0  0  0  0  0
  -28.0677  -32.0434   23.8963 C   0  0  0  0  0  0  0  0  0  0  0  0
  -32.1099  -18.1206   21.5535 C   0  0  0  0  0  0  0  0  0  0  0  0
  -17.2201  -29.7762   22.4452 C   0  0  0  0  0  0  0  0  0  0  0  0
  -23.4152  -28.3108   23.8216 C   0  0  0  0  0  0  0  0  0  0  0  0
  -25.3966  -29.5939   22.0404 C   0  0  0  0  0  0  0  0  0  0  0  0
  -18.3048  -30.8463   22.5387 C   0  0  0  0  0  0  0  0  0  0  0  0
  -33.4394  -14.8181   21.5014 C   0  0  0  0  0  0  0  0  0  0  0  0
  -28.5471  -23.8822   16.3269 C   0  0  0  0  0  0  0  0  0  0  0  0
  -19.2807  -30.7205   21.3731 C   0  0  0  0  0  0  0  0  0  0  0  0
  -32.2960  -13.9760   20.9307 C   0  0  0  0  0  0  0  0  0  0  0  0
  -27.8621  -25.0997   16.9152 C   0  0  0  0  0  0  0  0  0  0  0  0
  -32.9239  -15.9340   22.4085 C   0  0  0  0  0  0  0  0  0  0  0  0
  -30.7564  -15.9564   21.2378 C   0  0  0  0  0  0  0  0  0  0  0  0
  -29.3512  -23.3279   17.4871 C   0  0  0  0  0  0  0  0  0  0  0  0
  -19.9944  -29.3634   21.3953 C   0  0  1  0  0  0  0  0  0  0  0  0
  -23.2425  -29.7442   23.3288 C   0  0  1  0  0  0  0  0  0  0  0  0
  -31.2224  -14.8598   20.2662 C   0  0  2  0  0  0  0  0  0  0  0  0
  -27.4141  -24.6045   18.2823 C   0  0  2  0  0  0  0  0  0  0  0  0
  -28.9652  -19.7648   19.1914 C   0  0  0  0  0  0  0  0  0  0  0  0
  -29.7513  -33.6949   24.7539 C   0  0  0  0  0  0  0  0  0  0  0  0
  -24.6298  -33.1940   20.5838 C   0  0  0  0  0  0  0  0  0  0  0  0
  -26.8833  -34.1504   21.1086 C   0  0  0  0  0  0  0  0  0  0  0  0
  -24.9388  -34.6611   22.5854 C   0  0  0  0  0  0  0  0  0  0  0  0
  -28.8068  -30.2889   26.1622 C   0  0  0  0  0  0  0  0  0  0  0  0
  -28.1262  -22.5324   19.5468 C   0  0  0  0  0  0  0  0  0  0  0  0
  -27.1908  -25.7178   19.2892 C   0  0  0  0  0  0  0  0  0  1  0  0
  -25.9556  -32.3468   22.6309 C   0  0  1  0  0  0  0  0  0  0  0  0
  -28.8094  -32.5574   25.1170 C   0  0  2  0  0  0  0  0  0  0  0  0
  -25.5979  -33.5599   21.7265 C   0  0  0  0  0  0  0  0  0  0  0  0
  -28.9966  -13.8323   20.5328 N   0  0  0  0  0  0  0  0  0  0  0  0
  -30.0624  -14.0355   19.7399 N   0  0  0  0  0  0  0  0  0  0  0  0
  -24.5092  -30.3612   22.9299 N   0  0  0  0  0  0  0  0  0  0  0  0
  -31.9136  -16.7323   21.7107 N   0  0  0  0  0  0  0  0  0  0  0  0
  -30.9383  -13.5539   17.5924 N   0  0  0  0  0  0  0  0  0  0  0  0
  -26.9254  -11.4821   17.5696 N   0  0  0  0  0  0  0  0  0  0  0  0
  -31.0988  -18.7693   20.8453 N   0  0  0  0  0  0  0  0  0  0  0  0
  -21.0443  -29.3607   22.3914 N   0  0  0  0  0  0  0  0  0  0  0  0
  -26.8495  -32.6696   23.7377 N   0  0  0  0  0  0  0  0  0  0  0  0
  -28.5622  -23.7093   18.7284 N   0  3  1  0  0  0  0  0  0  0  0  0
  -29.6103  -31.4632   25.7353 N   0  3  0  0  0  0  0  0  0  0  0  0
  -28.8138  -11.8970   16.3364 O   0  0  0  0  0  0  0  0  0  0  0  0
  -22.7237  -30.3280   21.1005 O   0  0  0  0  0  0  0  0  0  0  0  0
  -24.0103  -32.3782   23.9878 O   0  0  0  0  0  0  0  0  0  0  0  0
  -28.5250  -31.1760   23.1553 O   0  0  0  0  0  0  0  0  0  0  0  0
  -33.1151  -18.6874   21.9897 O   0  0  0  0  0  0  0  0  0  0  0  0
  -23.2367  -11.4018   21.7436 O   0  0  0  0  0  0  0  0  0  0  0  0
  -26.7656  -25.1474   20.5262 O   0  0  0  0  0  0  0  0  0  1  0  0
  -21.7960   -6.1461   20.9036 F   0  0  0  0  0  0  0  0  0  0  0  0
  -22.7273   -9.7132   23.8724 F   0  0  0  0  0  0  0  0  0  0  0  0
  1  2  1  0  0  0  0
  1  6  2  0  0  0  0
  2  7  2  0  0  0  0
  3  9  2  0  0  0  0
  3 10  1  0  0  0  0
  4 11  2  0  0  0  0
  4 18  1  0  0  0  0
  5 12  1  0  0  0  0
  5 18  2  0  0  0  0
  6 20  1  0  0  0  0
  7 22  1  0  0  0  0
  8 13  2  0  0  0  0
  8 21  1  0  0  0  0
  9 24  1  0  0  0  0
 10 26  2  0  0  0  0
 11 27  1  0  0  0  0
 12 27  2  0  0  0  0
 13 28  1  0  0  0  0
 14 15  2  0  0  0  0
 14 29  1  0  0  0  0
 15 30  1  0  0  0  0
 16 23  1  0  0  0  0
 16 28  2  0  0  0  0
 17 30  2  0  0  0  0
 17 31  1  0  0  0  0
 18 32  1  0  0  0  0
 19 32  1  0  0  0  0
 19 33  2  0  0  0  0
 19 34  1  0  0  0  0
 20 22  2  0  0  0  0
 20 39  1  0  0  0  0
 21 23  2  0  0  0  0
 21 40  1  0  0  0  0
 22 51  1  0  0  0  0
 23 41  1  0  0  0  0
 24 25  2  0  0  0  0
 24 61  1  0  0  0  0
 25 26  1  0  0  0  0
 25 55  1  0  0  0  0
 26 72  1  0  0  0  0
 27 82  1  0  0  0  0
 28 83  1  0  0  0  0
 29 31  2  0  0  0  0
 29 82  1  0  0  0  0
 30 84  1  0  0  0  0
 31 85  1  0  0  0  0
 32 66  2  0  0  0  0
 33 67  1  0  0  0  0
 33 70  1  0  0  0  0
 34 71  1  0  0  0  0
 34 77  2  0  0  0  0
 35 52  1  0  0  0  0
 35 73  1  0  0  0  0
 35 78  2  0  0  0  0
 36 63  1  0  0  0  0
 36 68  1  0  0  0  0
 36 79  2  0  0  0  0
 37 64  1  0  0  0  0
 37 74  1  0  0  0  0
 37 80  2  0  0  0  0
 38 69  1  0  0  0  0
 38 72  1  0  0  0  0
 38 81  2  0  0  0  0
 39 42  1  0  0  0  0
 40 52  1  0  0  0  0
 41 68  1  0  0  0  0
 42 45  1  0  0  0  0
 43 46  1  0  0  0  0
 43 48  1  0  0  0  0
 44 47  1  0  0  0  0
 44 50  1  0  0  0  0
 45 51  1  0  0  0  0
 46 53  1  0  0  0  0
 47 54  1  0  0  0  0
 48 69  1  0  0  0  0
 49 53  1  0  0  0  0
 49 69  1  0  0  0  0
 50 75  1  0  0  0  0
 51 73  1  0  0  0  0
 52 68  1  0  0  0  0
 53 67  1  0  0  0  0
 54 62  1  0  0  0  0
 54 75  1  0  0  0  0
 56 64  1  0  0  0  0
 57 65  1  0  0  0  0
 58 65  1  0  0  0  0
 59 65  1  0  0  0  0
 60 76  1  0  0  0  0
 61 75  1  0  0  0  0
 62 83  1  0  0  0  0
 63 65  1  0  0  0  0
 63 74  1  0  0  0  0
 64 76  1  0  0  0  0
 66 67  1  0  0  0  0
M  CHG  2  75   1  76   1
M  ISO  4  38 100  62 101  72 100  83 101
M  END
> <Batch ID>
0020

> <Smiles>
CNC(C)C(=O)NC(C(=O)N1Cc2cc([101O:1][101CH2:1]C3CCCN3Cc3cccc([100NH:0][100C:0](=O)N4CCCC(n5nc(-c6ccc(Oc7ccc(F)cc7F)cc6)c(C(N)=O)c5N)C4)c3C)ccc2CC1C(=O)NC1CCCc2ccccc21)C(C)(C)C

> <Shape>
0.329

> <Color>
0.068

> <Negative vol penalty>
0.000

$$$$

  -OEChem-04042321083D

 83 91  0     1  0  0  0  0  0999 V2000
  -32.8735  -33.9195   19.2329 C   0  0  0  0  0  0  0  0  0  0  0  0
  -33.1366  -32.9024   20.1449 C   0  0  0  0  0  0  0  0  0  0  0  0
  -23.0906   -9.8935   19.9052 C   0  0  0  0  0  0  0  0  0  0  0  0
  -23.8691   -9.8451   22.1918 C   0  0  0  0  0  0  0  0  0  0  0  0
  -31.7076  -33.8850   18.4691 C   0  0  0  0  0  0  0  0  0  0  0  0
  -32.2333  -31.8506   20.2943 C   0  0  0  0  0  0  0  0  0  0  0  0
  -33.5651  -25.9999   21.5194 C   0  0  0  0  0  0  0  0  0  0  0  0
  -29.8297  -17.4714   23.2622 C   0  0  0  0  0  0  0  0  0  0  0  0
  -32.0189  -16.6664   22.6324 C   0  0  0  0  0  0  0  0  0  0  0  0
  -22.3624   -8.7250   20.1284 C   0  0  0  0  0  0  0  0  0  0  0  0
  -23.1409   -8.6765   22.4150 C   0  0  0  0  0  0  0  0  0  0  0  0
  -33.5571  -25.2642   22.7036 C   0  0  0  0  0  0  0  0  0  0  0  0
  -19.4357   -7.8526   21.5798 C   0  0  0  0  0  0  0  0  0  0  0  0
  -18.1256   -7.8043   21.1037 C   0  0  0  0  0  0  0  0  0  0  0  0
  -30.4140  -18.3368   24.1870 C   0  0  0  0  0  0  0  0  0  0  0  0
  -32.6032  -17.5318   23.5573 C   0  0  0  0  0  0  0  0  0  0  0  0
  -31.3427  -24.4615   22.1829 C   0  0  0  0  0  0  0  0  0  0  0  0
  -18.6972   -5.9061   19.7227 C   0  0  0  0  0  0  0  0  0  0  0  0
  -23.8440  -10.4536   20.9370 C   0  0  0  0  0  0  0  0  0  0  0  0
  -24.1551  -12.9850   20.8856 C   0  0  0  0  0  0  0  0  0  0  0  0
  -30.7943  -32.8273   18.6023 C   0  0  0  0  0  0  0  0  0  0  0  0
  -32.4558  -25.9804   20.6619 C   0  0  0  0  0  0  0  0  0  0  0  0
  -31.0534  -31.8026   19.5325 C   0  0  0  0  0  0  0  0  0  0  0  0
  -31.3402  -25.1957   20.9871 C   0  0  0  0  0  0  0  0  0  0  0  0
  -30.6322  -16.6361   22.4849 C   0  0  0  0  0  0  0  0  0  0  0  0
  -22.3875   -8.1165   21.3833 C   0  0  0  0  0  0  0  0  0  0  0  0
  -32.4446  -24.4971   23.0370 C   0  0  0  0  0  0  0  0  0  0  0  0
  -20.3767   -6.9276   21.1273 C   0  0  0  0  0  0  0  0  0  0  0  0
  -17.7563   -6.8311   20.1752 C   0  0  0  0  0  0  0  0  0  0  0  0
  -20.0074   -5.9544   20.1988 C   0  0  0  0  0  0  0  0  0  0  0  0
  -31.8007  -18.3670   24.3346 C   0  0  0  0  0  0  0  0  0  0  0  0
  -24.5969  -11.6604   20.7069 C   0  0  0  0  0  0  0  0  0  0  0  0
  -25.2354  -13.7575   20.5351 C   0  0  0  0  0  0  0  0  0  0  0  0
  -22.8821  -13.4736   21.3289 C   0  0  0  0  0  0  0  0  0  0  0  0
  -30.4095  -28.1646   19.5915 C   0  0  0  0  0  0  0  0  0  0  0  0
  -29.3422  -25.7050   17.7657 C   0  0  0  0  0  0  0  0  0  0  0  0
  -29.0537  -22.3325   17.3303 C   0  0  0  0  0  0  0  0  0  0  0  0
  -30.6901  -14.8632   20.6962 C   0  0  0  0  0  0  0  0  0  0  0  0
  -29.5246  -32.8577   17.7888 C   0  0  0  0  0  0  0  0  0  0  0  0
  -32.4908  -26.7585   19.3750 C   0  0  0  0  0  0  0  0  0  0  0  0
  -30.1319  -25.1249   20.0906 C   0  0  0  0  0  0  0  0  0  0  0  0
  -28.8014  -31.5144   17.7380 C   0  0  0  0  0  0  0  0  0  0  0  0
  -29.5848  -12.5038   18.2695 C   0  0  0  0  0  0  0  0  0  0  0  0
  -28.7135  -30.9023   19.1325 C   0  0  0  0  0  0  0  0  0  0  0  0
  -28.1522  -12.1830   18.7020 C   0  0  0  0  0  0  0  0  0  0  0  0
  -30.5070  -12.7096   19.4699 C   0  0  0  0  0  0  0  0  0  0  0  0
  -28.6030  -13.3720   20.8860 C   0  0  0  0  0  0  0  0  0  0  0  0
  -30.1100  -30.6321   19.7054 C   0  0  1  0  0  0  0  0  0  0  0  0
  -31.1015  -27.0711   18.8279 C   0  0  1  0  0  0  0  0  0  0  0  0
  -27.6227  -13.2203   19.7115 C   0  0  2  0  0  0  0  0  0  0  0  0
  -28.0965  -20.6234   15.7618 C   0  0  0  0  0  0  0  0  0  0  0  0
  -26.5495  -26.2713   18.8567 C   0  0  0  0  0  0  0  0  0  0  0  0
  -25.8457  -24.0144   18.0326 C   0  0  0  0  0  0  0  0  0  0  0  0
  -26.6278  -25.7434   16.4135 C   0  0  0  0  0  0  0  0  0  0  0  0
  -31.7228  -21.1842   16.7677 C   0  0  0  0  0  0  0  0  0  0  0  0
  -33.4642  -22.0169   25.4530 C   0  0  0  0  0  0  0  0  0  0  0  0
  -33.6906  -23.3034   24.6737 C   0  0  0  0  0  0  0  0  0  1  0  0
  -32.8218  -20.9450   24.5901 C   0  0  0  0  0  0  0  0  0  0  0  0
  -28.3064  -24.6197   17.9339 C   0  0  1  0  0  0  0  0  0  0  0  0
  -29.3225  -21.4454   16.1281 C   0  0  2  0  0  0  0  0  0  0  0  0
  -26.8542  -25.1649   17.8272 C   0  0  0  0  0  0  0  0  0  0  0  0
  -25.8593  -11.5915   20.2761 N   0  0  0  0  0  0  0  0  0  0  0  0
  -26.2200  -12.8826   20.1811 N   0  0  0  0  0  0  0  0  0  0  0  0
  -30.2117  -25.9083   18.8467 N   0  0  0  0  0  0  0  0  0  0  0  0
  -29.9431  -13.7086   20.3804 N   0  0  0  0  0  0  0  0  0  0  0  0
  -25.4295  -15.0929   20.4980 N   0  0  0  0  0  0  0  0  0  0  0  0
  -21.8838  -12.5432   21.6483 N   0  0  0  0  0  0  0  0  0  0  0  0
  -30.0387  -15.7570   21.5454 N   0  0  0  0  0  0  0  0  0  0  0  0
  -30.6743  -29.4357   19.1183 N   0  0  0  0  0  0  0  0  0  0  0  0
  -28.6315  -23.5897   16.9532 N   0  0  0  0  0  0  0  0  0  0  0  0
  -30.4466  -20.5101   16.4155 N   0  3  0  0  0  0  0  0  0  0  0  0
  -22.6319  -14.6992   21.4229 O   0  0  0  0  0  0  0  0  0  0  0  0
  -29.6876  -27.8765   20.5388 O   0  0  0  0  0  0  0  0  0  0  0  0
  -29.3830  -26.3438   16.7113 O   0  0  0  0  0  0  0  0  0  0  0  0
  -29.1999  -21.9473   18.4883 O   0  0  0  0  0  0  0  0  0  0  0  0
  -31.8133  -15.0585   20.2246 O   0  0  0  0  0  0  0  0  0  0  0  0
  -31.5427  -19.7284   26.5288 O   0  0  0  0  0  0  0  0  0  0  0  0
  -33.8361  -18.9166   25.8750 O   0  0  0  0  0  0  0  0  0  0  0  0
  -21.6769   -6.9763   21.6014 O   0  0  0  0  0  0  0  0  0  0  0  0
  -32.4339  -23.7786   24.1926 O   0  0  0  0  0  0  0  0  0  1  0  0
  -16.4977   -6.7840   19.7193 F   0  0  0  0  0  0  0  0  0  0  0  0
  -20.9067   -5.0623   19.7613 F   0  0  0  0  0  0  0  0  0  0  0  0
  -32.5413  -19.4638   25.5072 S   0  0  0  0  0  0  0  0  0  0  0  0
  1  2  1  0  0  0  0
  1  5  2  0  0  0  0
  2  6  2  0  0  0  0
  3 10  2  0  0  0  0
  3 19  1  0  0  0  0
  4 11  1  0  0  0  0
  4 19  2  0  0  0  0
  5 21  1  0  0  0  0
  6 23  1  0  0  0  0
  7 12  2  0  0  0  0
  7 22  1  0  0  0  0
  8 15  2  0  0  0  0
  8 25  1  0  0  0  0
  9 16  1  0  0  0  0
  9 25  2  0  0  0  0
 10 26  1  0  0  0  0
 11 26  2  0  0  0  0
 12 27  1  0  0  0  0
 13 14  2  0  0  0  0
 13 28  1  0  0  0  0
 14 29  1  0  0  0  0
 15 31  1  0  0  0  0
 16 31  2  0  0  0  0
 17 24  1  0  0  0  0
 17 27  2  0  0  0  0
 18 29  2  0  0  0  0
 18 30  1  0  0  0  0
 19 32  1  0  0  0  0
 20 32  1  0  0  0  0
 20 33  2  0  0  0  0
 20 34  1  0  0  0  0
 21 23  2  0  0  0  0
 21 39  1  0  0  0  0
 22 24  2  0  0  0  0
 22 40  1  0  0  0  0
 23 48  1  0  0  0  0
 24 41  1  0  0  0  0
 25 68  1  0  0  0  0
 26 79  1  0  0  0  0
 27 80  1  0  0  0  0
 28 30  2  0  0  0  0
 28 79  1  0  0  0  0
 29 81  1  0  0  0  0
 30 82  1  0  0  0  0
 31 83  1  0  0  0  0
 32 62  2  0  0  0  0
 33 63  1  0  0  0  0
 33 66  1  0  0  0  0
 34 67  1  0  0  0  0
 34 72  2  0  0  0  0
 35 49  1  0  0  0  0
 35 69  1  0  0  0  0
 35 73  2  0  0  0  0
 36 59  1  0  0  0  0
 36 64  1  0  0  0  0
 36 74  2  0  0  0  0
 37 60  1  0  0  0  0
 37 70  1  0  0  0  0
 37 75  2  0  0  0  0
 38 65  1  0  0  0  0
 38 68  1  0  0  0  0
 38 76  2  0  0  0  0
 39 42  1  0  0  0  0
 40 49  1  0  0  0  0
 41 64  1  0  0  0  0
 42 44  1  0  0  0  0
 43 45  1  0  0  0  0
 43 46  1  0  0  0  0
 44 48  1  0  0  0  0
 45 50  1  0  0  0  0
 46 65  1  0  0  0  0
 47 50  1  0  0  0  0
 47 65  1  0  0  0  0
 48 69  1  0  0  0  0
 49 64  1  0  0  0  0
 50 63  1  0  0  0  0
 51 60  1  0  0  0  0
 52 61  1  0  0  0  0
 53 61  1  0  0  0  0
 54 61  1  0  0  0  0
 55 71  1  0  0  0  0
 56 57  1  0  0  0  0
 56 58  1  0  0  0  0
 57 80  1  0  0  0  0
 58 83  1  0  0  0  0
 59 61  1  0  0  0  0
 59 70  1  0  0  0  0
 60 71  1  0  0  0  0
 62 63  1  0  0  0  0
 77 83  2  0  0  0  0
 78 83  2  0  0  0  0
M  CHG  1  71   1
M  ISO  4  38 100  57 101  68 100  80 101
M  END
> <Batch ID>
0020

> <Smiles>
CNC(C)C(=O)NC(C(=O)N1Cc2cc([101O:1][101CH2:1]CCS(=O)(=O)c3ccc([100NH:0][100C:0](=O)N4CCCC(n5nc(-c6ccc(Oc7ccc(F)cc7F)cc6)c(C(N)=O)c5N)C4)cc3)ccc2CC1C(=O)NC1CCCc2ccccc21)C(C)(C)C

> <Shape>
0.213

> <Color>
0.198

> <Negative vol penalty>
0.000

$$$$

  -OEChem-04042321083D

 87 96  0     1  0  0  0  0  0999 V2000
  -24.6861  -28.2807   27.6398 C   0  0  0  0  0  0  0  0  0  0  0  0
  -25.5383  -27.6869   26.7143 C   0  0  0  0  0  0  0  0  0  0  0  0
  -23.8548   -9.6949   22.2575 C   0  0  0  0  0  0  0  0  0  0  0  0
  -23.3750   -9.8020   19.8921 C   0  0  0  0  0  0  0  0  0  0  0  0
  -23.3900  -28.6333   27.2661 C   0  0  0  0  0  0  0  0  0  0  0  0
  -25.0945  -27.4443   25.4148 C   0  0  0  0  0  0  0  0  0  0  0  0
  -28.4162  -27.7253   20.2774 C   0  0  0  0  0  0  0  0  0  0  0  0
  -28.9693  -17.2975   18.9222 C   0  0  0  0  0  0  0  0  0  0  0  0
  -28.8798  -18.4049   18.0789 C   0  0  0  0  0  0  0  0  0  0  0  0
  -23.1831   -8.4752   22.3386 C   0  0  0  0  0  0  0  0  0  0  0  0
  -22.7033   -8.5822   19.9731 C   0  0  0  0  0  0  0  0  0  0  0  0
  -29.0416  -26.7436   19.5099 C   0  0  0  0  0  0  0  0  0  0  0  0
  -19.9820   -7.3998   22.4831 C   0  0  0  0  0  0  0  0  0  0  0  0
  -19.0972   -7.2174   23.5459 C   0  0  0  0  0  0  0  0  0  0  0  0
  -27.1229  -26.6718   18.0495 C   0  0  0  0  0  0  0  0  0  0  0  0
  -29.1168  -19.8736   19.9826 C   0  0  0  0  0  0  0  0  0  0  0  0
  -20.3967   -5.3267   24.3032 C   0  0  0  0  0  0  0  0  0  0  0  0
  -23.9507  -10.3584   21.0343 C   0  0  0  0  0  0  0  0  0  0  0  0
  -24.3348  -12.8067   21.6390 C   0  0  0  0  0  0  0  0  0  0  0  0
  -22.9332  -28.4038   25.9587 C   0  0  0  0  0  0  0  0  0  0  0  0
  -27.1329  -28.1805   19.9425 C   0  0  0  0  0  0  0  0  0  0  0  0
  -23.7906  -27.7930   25.0237 C   0  0  0  0  0  0  0  0  0  0  0  0
  -26.4845  -27.6612   18.8129 C   0  0  0  0  0  0  0  0  0  0  0  0
  -29.1325  -17.4780   20.2957 C   0  0  0  0  0  0  0  0  0  0  0  0
  -28.9536  -19.6930   18.6091 C   0  0  0  0  0  0  0  0  0  0  0  0
  -22.6073   -7.9188   21.1964 C   0  0  0  0  0  0  0  0  0  0  0  0
  -28.3937  -26.2147   18.3974 C   0  0  0  0  0  0  0  0  0  0  0  0
  -21.0741   -6.5456   22.3302 C   0  0  0  0  0  0  0  0  0  0  0  0
  -19.3046   -6.1809   24.4559 C   0  0  0  0  0  0  0  0  0  0  0  0
  -29.2063  -18.7661   20.8259 C   0  0  0  0  0  0  0  0  0  0  0  0
  -21.2815   -5.5091   23.2403 C   0  0  0  0  0  0  0  0  0  0  0  0
  -24.6440  -11.6187   20.9500 C   0  0  0  0  0  0  0  0  0  0  0  0
  -25.2835  -13.7055   21.2165 C   0  0  0  0  0  0  0  0  0  0  0  0
  -28.9167  -22.1824   18.1288 C   0  0  0  0  0  0  0  0  0  0  0  0
  -23.2839  -13.0739   22.5771 C   0  0  0  0  0  0  0  0  0  0  0  0
  -24.2992  -28.1611   21.3824 C   0  0  0  0  0  0  0  0  0  0  0  0
  -23.4226  -29.9531   18.8246 C   0  0  0  0  0  0  0  0  0  0  0  0
  -23.9954  -30.8489   15.5817 C   0  0  0  0  0  0  0  0  0  0  0  0
  -30.8192  -14.5638   20.2486 C   0  0  0  0  0  0  0  0  0  0  0  0
  -21.5084  -28.7589   25.6147 C   0  0  0  0  0  0  0  0  0  0  0  0
  -26.4830  -29.2591   20.7651 C   0  0  0  0  0  0  0  0  0  0  0  0
  -25.1145  -28.1306   18.3991 C   0  0  0  0  0  0  0  0  0  0  0  0
  -21.2390  -28.8100   24.1130 C   0  0  0  0  0  0  0  0  0  0  0  0
  -28.6522  -13.4442   17.4643 C   0  0  0  0  0  0  0  0  0  0  0  0
  -21.8314  -27.5858   23.4224 C   0  0  0  0  0  0  0  0  0  0  0  0
  -27.4241  -12.9037   18.1947 C   0  0  0  0  0  0  0  0  0  0  0  0
  -28.2749  -22.0551   15.8405 C   0  0  0  0  0  0  0  0  0  0  0  0
  -29.9142  -13.3275   18.3137 C   0  0  0  0  0  0  0  0  0  0  0  0
  -28.7442  -20.6914   16.3065 C   0  0  0  0  0  0  0  0  0  0  0  0
  -28.5692  -13.4186   20.3865 C   0  0  0  0  0  0  0  0  0  0  0  0
  -23.3540  -27.5363   23.5977 C   0  0  1  0  0  0  0  0  0  0  0  0
  -28.9078  -23.0028   16.8491 C   0  0  1  0  0  0  0  0  0  0  0  0
  -24.9635  -29.2795   20.6305 C   0  0  1  0  0  0  0  0  0  0  0  0
  -27.2725  -13.5641   19.5761 C   0  0  2  0  0  0  0  0  0  0  0  0
  -23.0887  -32.3064   13.7511 C   0  0  0  0  0  0  0  0  0  0  0  0
  -21.1598  -27.9594   18.3613 C   0  0  0  0  0  0  0  0  0  0  0  0
  -20.9009  -28.8957   16.0538 C   0  0  0  0  0  0  0  0  0  0  0  0
  -20.5208  -30.3559   18.0403 C   0  0  0  0  0  0  0  0  0  0  0  0
  -31.6309  -16.3369   21.7576 C   0  0  0  0  0  0  0  0  0  0  0  0
  -26.5044  -32.4106   15.4239 C   0  0  0  0  0  0  0  0  0  0  0  0
  -29.2297  -16.2910   21.1937 C   0  0  0  0  0  0  0  0  0  0  0  0
  -28.1562  -24.3132   16.9889 C   0  0  0  0  0  0  0  0  0  1  0  0
  -22.8774  -29.6572   17.4483 C   0  0  1  0  0  0  0  0  0  0  0  0
  -24.0685  -32.2083   14.9101 C   0  0  2  0  0  0  0  0  0  0  0  0
  -21.3897  -29.2066   17.4846 C   0  0  0  0  0  0  0  0  0  0  0  0
  -25.7061  -11.7479   20.1504 N   0  0  0  0  0  0  0  0  0  0  0  0
  -26.0724  -13.0277   20.3342 N   0  0  0  0  0  0  0  0  0  0  0  0
  -28.8600  -20.8262   17.7466 N   0  0  0  0  0  0  0  0  0  0  0  0
  -24.5180  -29.1823   19.2390 N   0  0  0  0  0  0  0  0  0  0  0  0
  -29.7284  -13.9249   19.6365 N   0  0  0  0  0  0  0  0  0  0  0  0
  -25.5115  -15.0017   21.5173 N   0  0  0  0  0  0  0  0  0  0  0  0
  -22.0563  -13.5426   22.0896 N   0  0  0  0  0  0  0  0  0  0  0  0
  -23.9971  -28.4675   22.6956 N   0  0  0  0  0  0  0  0  0  0  0  0
  -23.1204  -30.8521   16.6474 N   0  0  0  0  0  0  0  0  0  0  0  0
  -30.5328  -15.6352   21.1082 N   0  0  0  0  0  0  0  0  0  0  0  0
  -25.4419  -32.4542   14.3865 N   0  3  0  0  0  0  0  0  0  0  0  0
  -29.0209  -22.6784   19.2413 O   0  0  0  0  0  0  0  0  0  0  0  0
  -23.4346  -12.9178   23.8126 O   0  0  0  0  0  0  0  0  0  0  0  0
  -24.0758  -27.0993   20.8130 O   0  0  0  0  0  0  0  0  0  0  0  0
  -22.9006  -30.8406   19.5040 O   0  0  0  0  0  0  0  0  0  0  0  0
  -24.6464  -29.8800   15.1970 O   0  0  0  0  0  0  0  0  0  0  0  0
  -31.9833  -14.2037   20.0313 O   0  0  0  0  0  0  0  0  0  0  0  0
  -21.9520   -6.7285   21.2750 O   0  0  0  0  0  0  0  0  0  0  0  0
  -29.0015  -25.2559   17.6469 O   0  0  0  0  0  0  0  0  0  1  0  0
  -18.4558   -6.0068   25.4774 F   0  0  0  0  0  0  0  0  0  0  0  0
  -29.3631  -18.9496   22.1442 F   0  0  0  0  0  0  0  0  0  0  0  0
  -22.3295   -4.6860   23.0994 F   0  0  0  0  0  0  0  0  0  0  0  0
  1  2  1  0  0  0  0
  1  5  2  0  0  0  0
  2  6  2  0  0  0  0
  3 10  2  0  0  0  0
  3 18  1  0  0  0  0
  4 11  1  0  0  0  0
  4 18  2  0  0  0  0
  5 20  1  0  0  0  0
  6 22  1  0  0  0  0
  7 12  2  0  0  0  0
  7 21  1  0  0  0  0
  8  9  2  0  0  0  0
  8 24  1  0  0  0  0
  9 25  1  0  0  0  0
 10 26  1  0  0  0  0
 11 26  2  0  0  0  0
 12 27  1  0  0  0  0
 13 14  2  0  0  0  0
 13 28  1  0  0  0  0
 14 29  1  0  0  0  0
 15 23  1  0  0  0  0
 15 27  2  0  0  0  0
 16 25  2  0  0  0  0
 16 30  1  0  0  0  0
 17 29  2  0  0  0  0
 17 31  1  0  0  0  0
 18 32  1  0  0  0  0
 19 32  1  0  0  0  0
 19 33  2  0  0  0  0
 19 35  1  0  0  0  0
 20 22  2  0  0  0  0
 20 40  1  0  0  0  0
 21 23  2  0  0  0  0
 21 41  1  0  0  0  0
 22 51  1  0  0  0  0
 23 42  1  0  0  0  0
 24 30  2  0  0  0  0
 24 61  1  0  0  0  0
 25 68  1  0  0  0  0
 26 83  1  0  0  0  0
 27 84  1  0  0  0  0
 28 31  2  0  0  0  0
 28 83  1  0  0  0  0
 29 85  1  0  0  0  0
 30 86  1  0  0  0  0
 31 87  1  0  0  0  0
 32 66  2  0  0  0  0
 33 67  1  0  0  0  0
 33 71  1  0  0  0  0
 34 52  1  0  0  0  0
 34 68  1  0  0  0  0
 34 77  2  0  0  0  0
 35 72  1  0  0  0  0
 35 78  2  0  0  0  0
 36 53  1  0  0  0  0
 36 73  1  0  0  0  0
 36 79  2  0  0  0  0
 37 63  1  0  0  0  0
 37 69  1  0  0  0  0
 37 80  2  0  0  0  0
 38 64  1  0  0  0  0
 38 74  1  0  0  0  0
 38 81  2  0  0  0  0
 39 70  1  0  0  0  0
 39 75  1  0  0  0  0
 39 82  2  0  0  0  0
 40 43  1  0  0  0  0
 41 53  1  0  0  0  0
 42 69  1  0  0  0  0
 43 45  1  0  0  0  0
 44 46  1  0  0  0  0
 44 48  1  0  0  0  0
 45 51  1  0  0  0  0
 46 54  1  0  0  0  0
 47 49  1  0  0  0  0
 47 52  1  0  0  0  0
 48 70  1  0  0  0  0
 49 68  1  0  0  0  0
 50 54  1  0  0  0  0
 50 70  1  0  0  0  0
 51 73  1  0  0  0  0
 52 62  1  0  0  0  0
 53 69  1  0  0  0  0
 54 67  1  0  0  0  0
 55 64  1  0  0  0  0
 56 65  1  0  0  0  0
 57 65  1  0  0  0  0
 58 65  1  0  0  0  0
 59 75  1  0  0  0  0
 60 76  1  0  0  0  0
 61 75  1  0  0  0  0
 62 84  1  0  0  0  0
 63 65  1  0  0  0  0
 63 74  1  0  0  0  0
 64 76  1  0  0  0  0
 66 67  1  0  0  0  0
M  CHG  1  76   1
M  ISO  4  39 100  62 101  75 100  84 101
M  END
> <Batch ID>
0020

> <Smiles>
CNC(C)C(=O)NC(C(=O)N1Cc2cc([101O:1][101CH2:1]C3CCN(c4ccc(C[100N:0](C)[100C:0](=O)N5CCCC(n6nc(-c7ccc(Oc8ccc(F)cc8F)cc7)c(C(N)=O)c6N)C5)c(F)c4)C3=O)ccc2CC1C(=O)NC1CCCc2ccccc21)C(C)(C)C

> <Shape>
0.292

> <Color>
0.153

> <Negative vol penalty>
0.000

$$$$

  -OEChem-04042321083D

 89 97  0     1  0  0  0  0  0999 V2000
  -27.8161  -33.1148   26.6704 C   0  0  0  0  0  0  0  0  0  0  0  0
  -28.0003  -31.9673   25.9056 C   0  0  0  0  0  0  0  0  0  0  0  0
  -22.9137  -10.8035   20.1721 C   0  0  0  0  0  0  0  0  0  0  0  0
  -23.6379  -12.0663   18.2439 C   0  0  0  0  0  0  0  0  0  0  0  0
  -26.5275  -33.5269   27.0076 C   0  0  0  0  0  0  0  0  0  0  0  0
  -26.8961  -31.2307   25.4785 C   0  0  0  0  0  0  0  0  0  0  0  0
  -27.2384  -29.8594   20.6156 C   0  0  0  0  0  0  0  0  0  0  0  0
  -30.6537  -18.7016   21.4524 C   0  0  0  0  0  0  0  0  0  0  0  0
  -30.3397  -20.0571   21.5512 C   0  0  0  0  0  0  0  0  0  0  0  0
  -21.5843  -10.9810   19.7891 C   0  0  0  0  0  0  0  0  0  0  0  0
  -22.3084  -12.2438   17.8608 C   0  0  0  0  0  0  0  0  0  0  0  0
  -28.0663  -28.7785   20.3157 C   0  0  0  0  0  0  0  0  0  0  0  0
  -19.2506  -13.4207   19.9508 C   0  0  0  0  0  0  0  0  0  0  0  0
  -18.3353  -13.7839   20.9387 C   0  0  0  0  0  0  0  0  0  0  0  0
  -26.1346  -27.3381   20.2022 C   0  0  0  0  0  0  0  0  0  0  0  0
  -17.0679  -11.7735   20.5035 C   0  0  0  0  0  0  0  0  0  0  0  0
  -23.9405  -11.3462   19.3995 C   0  0  0  0  0  0  0  0  0  0  0  0
  -26.1718  -10.1098   19.4268 C   0  0  0  0  0  0  0  0  0  0  0  0
  -25.4065  -32.8003   26.5763 C   0  0  0  0  0  0  0  0  0  0  0  0
  -25.8510  -29.6852   20.7221 C   0  0  0  0  0  0  0  0  0  0  0  0
  -25.5914  -31.6328   25.8114 C   0  0  0  0  0  0  0  0  0  0  0  0
  -25.2910  -28.4189   20.5011 C   0  0  0  0  0  0  0  0  0  0  0  0
  -30.5894  -18.0592   20.2159 C   0  0  0  0  0  0  0  0  0  0  0  0
  -29.9614  -20.7701   20.4136 C   0  0  0  0  0  0  0  0  0  0  0  0
  -21.2816  -11.7011   18.6335 C   0  0  0  0  0  0  0  0  0  0  0  0
  -27.5148  -27.5171   20.1117 C   0  0  0  0  0  0  0  0  0  0  0  0
  -19.0745  -12.2339   19.2392 C   0  0  0  0  0  0  0  0  0  0  0  0
  -17.2440  -12.9603   21.2151 C   0  0  0  0  0  0  0  0  0  0  0  0
  -17.9832  -11.4103   19.5156 C   0  0  0  0  0  0  0  0  0  0  0  0
  -30.2111  -18.7721   19.0783 C   0  0  0  0  0  0  0  0  0  0  0  0
  -29.8971  -20.1276   19.1771 C   0  0  0  0  0  0  0  0  0  0  0  0
  -25.3140  -11.1636   19.7950 C   0  0  0  0  0  0  0  0  0  0  0  0
  -27.3575  -10.3957   20.0582 C   0  0  0  0  0  0  0  0  0  0  0  0
  -25.9193   -8.9742   18.5888 C   0  0  0  0  0  0  0  0  0  0  0  0
  -23.7167  -30.0486   23.0493 C   0  0  0  0  0  0  0  0  0  0  0  0
  -21.5994  -29.4032   20.6781 C   0  0  0  0  0  0  0  0  0  0  0  0
  -20.9998  -27.9662   17.6413 C   0  0  0  0  0  0  0  0  0  0  0  0
  -29.9091  -15.3463   21.9706 C   0  0  0  0  0  0  0  0  0  0  0  0
  -24.0353  -33.2586   27.0056 C   0  0  0  0  0  0  0  0  0  0  0  0
  -24.9691  -30.8667   21.0200 C   0  0  0  0  0  0  0  0  0  0  0  0
  -23.8057  -28.1832   20.5839 C   0  0  0  0  0  0  0  0  0  0  0  0
  -22.9025  -32.6305   26.1978 C   0  0  0  0  0  0  0  0  0  0  0  0
  -29.1228  -12.5863   23.9174 C   0  0  0  0  0  0  0  0  0  0  0  0
  -23.1159  -31.1265   26.0592 C   0  0  0  0  0  0  0  0  0  0  0  0
  -28.1366  -11.7982   23.0564 C   0  0  0  0  0  0  0  0  0  0  0  0
  -28.8549  -14.0835   23.8200 C   0  0  0  0  0  0  0  0  0  0  0  0
  -27.9150  -13.8338   21.5450 C   0  0  0  0  0  0  0  0  0  0  0  0
  -24.4175  -30.8208   25.3084 C   0  0  1  0  0  0  0  0  0  0  0  0
  -23.6193  -30.4709   21.6106 C   0  0  1  0  0  0  0  0  0  0  0  0
  -28.1415  -12.3091   21.6050 C   0  0  2  0  0  0  0  0  0  0  0  0
  -19.1632  -27.5692   15.9780 C   0  0  0  0  0  0  0  0  0  0  0  0
  -29.8755  -14.1223   18.1209 C   0  0  0  0  0  0  0  0  0  0  0  0
  -27.3724  -14.1956   18.1904 C   0  0  0  0  0  0  0  0  0  0  0  0
  -20.4614  -27.2056   22.4628 C   0  0  0  0  0  0  0  0  0  0  0  0
  -19.3224  -26.2542   20.4464 C   0  0  0  0  0  0  0  0  0  0  0  0
  -18.7438  -28.5482   21.2374 C   0  0  0  0  0  0  0  0  0  0  0  0
  -22.4175  -29.4907   15.5376 C   0  0  0  0  0  0  0  0  0  0  0  0
  -30.9258  -16.6097   20.1138 C   0  0  0  0  0  0  0  0  0  0  0  0
  -29.2368  -24.3002   21.5411 C   0  0  0  0  0  0  0  0  0  0  0  0
  -30.1417  -25.0647   20.5737 C   0  0  0  0  0  0  0  0  0  0  0  0
  -29.6898  -22.8579   21.7526 C   0  0  0  0  0  0  0  0  0  0  0  0
  -28.6866  -15.6318   19.7732 C   0  0  0  0  0  0  0  0  0  0  0  0
  -29.6454  -26.4875   20.3493 C   0  0  0  0  0  0  0  0  0  1  0  0
  -20.9740  -28.1499   20.1151 C   0  0  1  0  0  0  0  0  0  0  0  0
  -20.2984  -28.4887   16.4005 C   0  0  2  0  0  0  0  0  0  0  0  0
  -28.6512  -14.2959   19.0227 C   0  0  0  0  0  0  0  0  0  0  0  0
  -19.9036  -27.5432   21.0657 C   0  0  0  0  0  0  0  0  0  0  0  0
  -25.9045  -12.0525   20.5982 N   0  0  0  0  0  0  0  0  0  0  0  0
  -27.1460  -11.5579   20.7400 N   0  0  0  0  0  0  0  0  0  0  0  0
  -22.9858  -29.3686   20.8841 N   0  0  0  0  0  0  0  0  0  0  0  0
  -28.8615  -14.5331   22.4276 N   0  0  0  0  0  0  0  0  0  0  0  0
  -28.5500   -9.7638   20.0913 N   0  0  0  0  0  0  0  0  0  0  0  0
  -24.6463   -8.8337   18.0196 N   0  0  0  0  0  0  0  0  0  0  0  0
  -29.6497  -22.1166   20.5145 N   0  0  0  0  0  0  0  0  0  0  0  0
  -24.2384  -31.0170   23.8858 N   0  0  0  0  0  0  0  0  0  0  0  0
  -20.4675  -28.5044   18.7937 N   0  0  0  0  0  0  0  0  0  0  0  0
  -29.8642  -15.7574   20.6299 N   0  0  0  0  0  0  0  0  0  0  0  0
  -21.2613  -28.5975   15.2683 N   0  3  0  0  0  0  0  0  0  0  0  0
  -26.7917   -8.1010   18.3650 O   0  0  0  0  0  0  0  0  0  0  0  0
  -23.3445  -28.9279   23.3766 O   0  0  0  0  0  0  0  0  0  0  0  0
  -20.8852  -30.3797   20.9192 O   0  0  0  0  0  0  0  0  0  0  0  0
  -21.9248  -27.1583   17.5931 O   0  0  0  0  0  0  0  0  0  0  0  0
  -30.8308  -15.6933   22.7204 O   0  0  0  0  0  0  0  0  0  0  0  0
  -19.9845  -11.8743   18.2593 O   0  0  0  0  0  0  0  0  0  0  0  0
  -28.3207  -26.4602   19.8195 O   0  0  0  0  0  0  0  0  0  1  0  0
  -16.3659  -13.3084   22.1648 F   0  0  0  0  0  0  0  0  0  0  0  0
  -17.8094  -10.2684   18.8361 F   0  0  0  0  0  0  0  0  0  0  0  0
  -30.1466  -18.1633   17.8860 F   0  0  0  0  0  0  0  0  0  0  0  0
  -29.5352  -20.8034   18.0773 F   0  0  0  0  0  0  0  0  0  0  0  0
  1  2  1  0  0  0  0
  1  5  2  0  0  0  0
  2  6  2  0  0  0  0
  3 10  2  0  0  0  0
  3 17  1  0  0  0  0
  4 11  1  0  0  0  0
  4 17  2  0  0  0  0
  5 19  1  0  0  0  0
  6 21  1  0  0  0  0
  7 12  2  0  0  0  0
  7 20  1  0  0  0  0
  8  9  2  0  0  0  0
  8 23  1  0  0  0  0
  9 24  1  0  0  0  0
 10 25  1  0  0  0  0
 11 25  2  0  0  0  0
 12 26  1  0  0  0  0
 13 14  2  0  0  0  0
 13 27  1  0  0  0  0
 14 28  1  0  0  0  0
 15 22  1  0  0  0  0
 15 26  2  0  0  0  0
 16 28  2  0  0  0  0
 16 29  1  0  0  0  0
 17 32  1  0  0  0  0
 18 32  1  0  0  0  0
 18 33  2  0  0  0  0
 18 34  1  0  0  0  0
 19 21  2  0  0  0  0
 19 39  1  0  0  0  0
 20 22  2  0  0  0  0
 20 40  1  0  0  0  0
 21 48  1  0  0  0  0
 22 41  1  0  0  0  0
 23 30  2  0  0  0  0
 23 58  1  0  0  0  0
 24 31  2  0  0  0  0
 24 74  1  0  0  0  0
 25 84  1  0  0  0  0
 26 85  1  0  0  0  0
 27 29  2  0  0  0  0
 27 84  1  0  0  0  0
 28 86  1  0  0  0  0
 29 87  1  0  0  0  0
 30 31  1  0  0  0  0
 30 88  1  0  0  0  0
 31 89  1  0  0  0  0
 32 68  2  0  0  0  0
 33 69  1  0  0  0  0
 33 72  1  0  0  0  0
 34 73  1  0  0  0  0
 34 79  2  0  0  0  0
 35 49  1  0  0  0  0
 35 75  1  0  0  0  0
 35 80  2  0  0  0  0
 36 64  1  0  0  0  0
 36 70  1  0  0  0  0
 36 81  2  0  0  0  0
 37 65  1  0  0  0  0
 37 76  1  0  0  0  0
 37 82  2  0  0  0  0
 38 71  1  0  0  0  0
 38 77  1  0  0  0  0
 38 83  2  0  0  0  0
 39 42  1  0  0  0  0
 40 49  1  0  0  0  0
 41 70  1  0  0  0  0
 42 44  1  0  0  0  0
 43 45  1  0  0  0  0
 43 46  1  0  0  0  0
 44 48  1  0  0  0  0
 45 50  1  0  0  0  0
 46 71  1  0  0  0  0
 47 50  1  0  0  0  0
 47 71  1  0  0  0  0
 48 75  1  0  0  0  0
 49 70  1  0  0  0  0
 50 69  1  0  0  0  0
 51 65  1  0  0  0  0
 52 66  1  0  0  0  0
 53 66  1  0  0  0  0
 54 67  1  0  0  0  0
 55 67  1  0  0  0  0
 56 67  1  0  0  0  0
 57 78  1  0  0  0  0
 58 77  1  0  0  0  0
 59 60  1  0  0  0  0
 59 61  1  0  0  0  0
 60 63  1  0  0  0  0
 61 74  1  0  0  0  0
 62 66  1  0  0  0  0
 62 77  1  0  0  0  0
 63 85  1  0  0  0  0
 64 67  1  0  0  0  0
 64 76  1  0  0  0  0
 65 78  1  0  0  0  0
 68 69  1  0  0  0  0
M  CHG  1  78   1
M  ISO  4  38 100  63 101  77 100  85 101
M  END
> <Batch ID>
0020

> <Smiles>
CNC(C)C(=O)NC(C(=O)N1Cc2cc([101O:1][101CH2:1]CCCNc3ccc(C[100N:0](CC(C)C)[100C:0](=O)N4CCCC(n5nc(-c6ccc(Oc7ccc(F)cc7F)cc6)c(C(N)=O)c5N)C4)c(F)c3F)ccc2CC1C(=O)NC1CCCc2ccccc21)C(C)(C)C

> <Shape>
0.269

> <Color>
0.076

> <Negative vol penalty>
0.000

$$$$

  -OEChem-04042321083D

 84 92  0     1  0  0  0  0  0999 V2000
  -25.6609  -37.3923   17.8261 C   0  0  0  0  0  0  0  0  0  0  0  0
  -26.2530  -36.1400   17.6973 C   0  0  0  0  0  0  0  0  0  0  0  0
  -23.4470  -16.1052   22.7603 C   0  0  0  0  0  0  0  0  0  0  0  0
  -22.5048  -16.0906   20.5357 C   0  0  0  0  0  0  0  0  0  0  0  0
  -25.1335  -37.7897   19.0540 C   0  0  0  0  0  0  0  0  0  0  0  0
  -26.3191  -35.2848   18.7968 C   0  0  0  0  0  0  0  0  0  0  0  0
  -25.9122  -29.1745   18.7379 C   0  0  0  0  0  0  0  0  0  0  0  0
  -29.2731  -18.6558   23.1077 C   0  0  0  0  0  0  0  0  0  0  0  0
  -29.7436  -17.3491   22.9782 C   0  0  0  0  0  0  0  0  0  0  0  0
  -22.5035  -17.0541   23.1538 C   0  0  0  0  0  0  0  0  0  0  0  0
  -21.5612  -17.0395   20.9292 C   0  0  0  0  0  0  0  0  0  0  0  0
  -26.8783  -28.1697   18.7697 C   0  0  0  0  0  0  0  0  0  0  0  0
  -20.5685  -19.7475   24.6455 C   0  0  0  0  0  0  0  0  0  0  0  0
  -21.0141  -20.8340   25.3982 C   0  0  0  0  0  0  0  0  0  0  0  0
  -26.5976  -27.9838   21.1584 C   0  0  0  0  0  0  0  0  0  0  0  0
  -30.0311  -19.1507   20.8677 C   0  0  0  0  0  0  0  0  0  0  0  0
  -22.4897  -21.4771   23.5964 C   0  0  0  0  0  0  0  0  0  0  0  0
  -23.4477  -15.6234   21.4513 C   0  0  0  0  0  0  0  0  0  0  0  0
  -24.2970  -13.2428   21.1062 C   0  0  0  0  0  0  0  0  0  0  0  0
  -25.1844  -36.9352   20.1666 C   0  0  0  0  0  0  0  0  0  0  0  0
  -25.2884  -29.5997   19.9196 C   0  0  0  0  0  0  0  0  0  0  0  0
  -25.7930  -35.6718   20.0411 C   0  0  0  0  0  0  0  0  0  0  0  0
  -25.6221  -28.9924   21.1385 C   0  0  0  0  0  0  0  0  0  0  0  0
  -29.4169  -19.5566   22.0524 C   0  0  0  0  0  0  0  0  0  0  0  0
  -30.3578  -16.9432   21.7935 C   0  0  0  0  0  0  0  0  0  0  0  0
  -21.5605  -17.5213   22.2382 C   0  0  0  0  0  0  0  0  0  0  0  0
  -27.2232  -27.5762   19.9804 C   0  0  0  0  0  0  0  0  0  0  0  0
  -21.0835  -19.5257   23.3682 C   0  0  0  0  0  0  0  0  0  0  0  0
  -21.9747  -21.6988   24.8737 C   0  0  0  0  0  0  0  0  0  0  0  0
  -30.5016  -17.8440   20.7382 C   0  0  0  0  0  0  0  0  0  0  0  0
  -22.0441  -20.3905   22.8437 C   0  0  0  0  0  0  0  0  0  0  0  0
  -24.4225  -14.6436   21.0441 C   0  0  0  0  0  0  0  0  0  0  0  0
  -25.4849  -12.7691   20.6052 C   0  0  0  0  0  0  0  0  0  0  0  0
  -23.2042  -12.4415   21.5747 C   0  0  0  0  0  0  0  0  0  0  0  0
  -25.1344  -32.3466   21.5116 C   0  0  0  0  0  0  0  0  0  0  0  0
  -23.0189  -30.7133   23.3499 C   0  0  0  0  0  0  0  0  0  0  0  0
  -21.8837  -27.6990   24.4776 C   0  0  0  0  0  0  0  0  0  0  0  0
  -30.8837  -14.9443   20.4082 C   0  0  0  0  0  0  0  0  0  0  0  0
  -24.6432  -37.4275   21.4854 C   0  0  0  0  0  0  0  0  0  0  0  0
  -24.2290  -30.6661   19.8647 C   0  0  0  0  0  0  0  0  0  0  0  0
  -24.9672  -29.3987   22.4325 C   0  0  0  0  0  0  0  0  0  0  0  0
  -24.4185  -36.3142   22.5054 C   0  0  0  0  0  0  0  0  0  0  0  0
  -28.9998  -13.9059   17.5769 C   0  0  0  0  0  0  0  0  0  0  0  0
  -25.6283  -35.3867   22.5585 C   0  0  0  0  0  0  0  0  0  0  0  0
  -27.5866  -13.8516   18.1561 C   0  0  0  0  0  0  0  0  0  0  0  0
  -29.7924  -15.0989   18.1121 C   0  0  0  0  0  0  0  0  0  0  0  0
  -28.4184  -15.1254   20.1702 C   0  0  0  0  0  0  0  0  0  0  0  0
  -25.8617  -34.7062   21.2043 C   0  0  1  0  0  0  0  0  0  0  0  0
  -24.0287  -31.3785   21.1988 C   0  0  1  0  0  0  0  0  0  0  0  0
  -27.6176  -13.9034   19.6938 C   0  0  1  0  0  0  0  0  0  0  0  0
  -20.1660  -26.6854   26.0005 C   0  0  0  0  0  0  0  0  0  0  0  0
  -24.6977  -31.5104   25.7699 C   0  0  0  0  0  0  0  0  0  0  0  0
  -23.5209  -29.7337   27.0840 C   0  0  0  0  0  0  0  0  0  0  0  0
  -22.2257  -31.6389   26.1270 C   0  0  0  0  0  0  0  0  0  0  0  0
  -31.5240  -14.9768   22.8090 C   0  0  0  0  0  0  0  0  0  0  0  0
  -20.5998  -26.2375   22.2472 C   0  0  0  0  0  0  0  0  0  0  0  0
  -28.4999  -23.1932   21.6132 C   0  0  0  0  0  0  0  0  0  0  0  0
  -28.6351  -24.2892   20.5552 C   0  0  0  0  0  0  0  0  0  0  0  0
  -29.0552  -21.8515   21.1422 C   0  0  0  0  0  0  0  0  0  0  0  0
  -28.0381  -25.6064   21.0347 C   0  0  0  0  0  0  0  0  0  1  0  0
  -23.1192  -29.8477   24.5826 C   0  0  1  0  0  0  0  0  0  0  0  0
  -20.4823  -27.1244   24.5793 C   0  0  2  0  0  0  0  0  0  0  0  0
  -23.4048  -30.6761   25.8670 C   0  0  0  0  0  0  0  0  0  0  0  0
  -25.5975  -15.0343   20.5433 N   0  0  0  0  0  0  0  0  0  0  0  0
  -26.2212  -13.8719   20.2863 N   0  0  0  0  0  0  0  0  0  0  0  0
  -23.9419  -30.4501   22.3278 N   0  0  0  0  0  0  0  0  0  0  0  0
  -29.7596  -15.1294   19.5812 N   0  0  0  0  0  0  0  0  0  0  0  0
  -25.9610  -11.5209   20.4110 N   0  0  0  0  0  0  0  0  0  0  0  0
  -22.0588  -13.0897   22.0565 N   0  0  0  0  0  0  0  0  0  0  0  0
  -28.9489  -20.8547   22.1810 N   0  0  0  0  0  0  0  0  0  0  0  0
  -24.9244  -33.6196   21.0165 N   0  0  0  0  0  0  0  0  0  0  0  0
  -21.8868  -29.0687   24.6358 N   0  0  0  0  0  0  0  0  0  0  0  0
  -30.8441  -15.5898   21.6628 N   0  0  0  0  0  0  0  0  0  0  0  0
  -20.3398  -25.9444   23.6802 N   0  3  0  0  0  0  0  0  0  0  0  0
  -23.2489  -11.1879   21.5817 O   0  0  0  0  0  0  0  0  0  0  0  0
  -26.1054  -31.9673   22.1557 O   0  0  0  0  0  0  0  0  0  0  0  0
  -22.1490  -31.5860   23.2929 O   0  0  0  0  0  0  0  0  0  0  0  0
  -22.8768  -27.0019   24.2815 O   0  0  0  0  0  0  0  0  0  0  0  0
  -31.8373  -14.2359   20.0635 O   0  0  0  0  0  0  0  0  0  0  0  0
  -20.6395  -18.4471   22.6219 O   0  0  0  0  0  0  0  0  0  0  0  0
  -28.1663  -26.5958   20.0144 O   0  0  0  0  0  0  0  0  0  1  0  0
  -22.4014  -22.7430   25.5960 F   0  0  0  0  0  0  0  0  0  0  0  0
  -31.0908  -17.4647   19.5952 F   0  0  0  0  0  0  0  0  0  0  0  0
  -22.5417  -20.1833   21.6168 F   0  0  0  0  0  0  0  0  0  0  0  0
  1  2  1  0  0  0  0
  1  5  2  0  0  0  0
  2  6  2  0  0  0  0
  3 10  2  0  0  0  0
  3 18  1  0  0  0  0
  4 11  1  0  0  0  0
  4 18  2  0  0  0  0
  5 20  1  0  0  0  0
  6 22  1  0  0  0  0
  7 12  2  0  0  0  0
  7 21  1  0  0  0  0
  8  9  2  0  0  0  0
  8 24  1  0  0  0  0
  9 25  1  0  0  0  0
 10 26  1  0  0  0  0
 11 26  2  0  0  0  0
 12 27  1  0  0  0  0
 13 14  2  0  0  0  0
 13 28  1  0  0  0  0
 14 29  1  0  0  0  0
 15 23  1  0  0  0  0
 15 27  2  0  0  0  0
 16 24  2  0  0  0  0
 16 30  1  0  0  0  0
 17 29  2  0  0  0  0
 17 31  1  0  0  0  0
 18 32  1  0  0  0  0
 19 32  1  0  0  0  0
 19 33  2  0  0  0  0
 19 34  1  0  0  0  0
 20 22  2  0  0  0  0
 20 39  1  0  0  0  0
 21 23  2  0  0  0  0
 21 40  1  0  0  0  0
 22 48  1  0  0  0  0
 23 41  1  0  0  0  0
 24 70  1  0  0  0  0
 25 30  2  0  0  0  0
 25 73  1  0  0  0  0
 26 80  1  0  0  0  0
 27 81  1  0  0  0  0
 28 31  2  0  0  0  0
 28 80  1  0  0  0  0
 29 82  1  0  0  0  0
 30 83  1  0  0  0  0
 31 84  1  0  0  0  0
 32 64  2  0  0  0  0
 33 65  1  0  0  0  0
 33 68  1  0  0  0  0
 34 69  1  0  0  0  0
 34 75  2  0  0  0  0
 35 49  1  0  0  0  0
 35 71  1  0  0  0  0
 35 76  2  0  0  0  0
 36 61  1  0  0  0  0
 36 66  1  0  0  0  0
 36 77  2  0  0  0  0
 37 62  1  0  0  0  0
 37 72  1  0  0  0  0
 37 78  2  0  0  0  0
 38 67  1  0  0  0  0
 38 73  1  0  0  0  0
 38 79  2  0  0  0  0
 39 42  1  0  0  0  0
 40 49  1  0  0  0  0
 41 66  1  0  0  0  0
 42 44  1  0  0  0  0
 43 45  1  0  0  0  0
 43 46  1  0  0  0  0
 44 48  1  0  0  0  0
 45 50  1  0  0  0  0
 46 67  1  0  0  0  0
 47 50  1  0  0  0  0
 47 67  1  0  0  0  0
 48 71  1  0  0  0  0
 49 66  1  0  0  0  0
 50 65  1  0  0  0  0
 51 62  1  0  0  0  0
 52 63  1  0  0  0  0
 53 63  1  0  0  0  0
 54 63  1  0  0  0  0
 55 73  1  0  0  0  0
 56 74  1  0  0  0  0
 57 58  1  0  0  0  0
 57 59  1  0  0  0  0
 58 60  1  0  0  0  0
 59 70  1  0  0  0  0
 60 81  1  0  0  0  0
 61 63  1  0  0  0  0
 61 72  1  0  0  0  0
 62 74  1  0  0  0  0
 64 65  1  0  0  0  0
M  CHG  1  74   1
M  ISO  4  38 100  60 101  73 100  81 101
M  END
> <Batch ID>
0020

> <Smiles>
CNC(C)C(=O)NC(C(=O)N1Cc2cc([101O:1][101CH2:1]CCCNc3ccc([100N:0](C)[100C:0](=O)N4CCCC(n5nc(-c6ccc(Oc7ccc(F)cc7F)cc6)c(C(N)=O)c5N)C4)c(F)c3)ccc2CC1C(=O)NC1CCCc2ccccc21)C(C)(C)C

> <Shape>
0.247

> <Color>
0.141

> <Negative vol penalty>
0.000

$$$$

  -OEChem-04042321083D

 86 95  0     1  0  0  0  0  0999 V2000
  -25.8972  -30.1264   24.8217 C   0  0  0  0  0  0  0  0  0  0  0  0
  -26.6584  -29.0211   24.4551 C   0  0  0  0  0  0  0  0  0  0  0  0
  -22.9764   -9.9179   20.0317 C   0  0  0  0  0  0  0  0  0  0  0  0
  -24.2266   -9.5844   22.0720 C   0  0  0  0  0  0  0  0  0  0  0  0
  -25.0741  -30.7469   23.8829 C   0  0  0  0  0  0  0  0  0  0  0  0
  -26.5962  -28.5352   23.1496 C   0  0  0  0  0  0  0  0  0  0  0  0
  -31.1691  -27.4681   21.2537 C   0  0  0  0  0  0  0  0  0  0  0  0
  -30.1732  -16.2326   21.8547 C   0  0  0  0  0  0  0  0  0  0  0  0
  -30.5354  -17.5716   21.7086 C   0  0  0  0  0  0  0  0  0  0  0  0
  -22.3080   -8.7122   20.2442 C   0  0  0  0  0  0  0  0  0  0  0  0
  -23.5582   -8.3787   22.2845 C   0  0  0  0  0  0  0  0  0  0  0  0
  -31.7650  -26.2755   21.6616 C   0  0  0  0  0  0  0  0  0  0  0  0
  -20.5454   -7.3727   23.4385 C   0  0  0  0  0  0  0  0  0  0  0  0
  -20.0674   -7.1162   24.7235 C   0  0  0  0  0  0  0  0  0  0  0  0
  -31.0745  -25.2321   19.5991 C   0  0  0  0  0  0  0  0  0  0  0  0
  -30.5108  -17.8400   24.1096 C   0  0  0  0  0  0  0  0  0  0  0  0
  -21.4437   -5.1339   24.8397 C   0  0  0  0  0  0  0  0  0  0  0  0
  -23.9358  -10.3539   20.9456 C   0  0  0  0  0  0  0  0  0  0  0  0
  -24.0559  -12.8815   20.6218 C   0  0  0  0  0  0  0  0  0  0  0  0
  -25.0091  -30.2742   22.5627 C   0  0  0  0  0  0  0  0  0  0  0  0
  -30.5109  -27.5487   20.0181 C   0  0  0  0  0  0  0  0  0  0  0  0
  -25.7704  -29.1492   22.1926 C   0  0  0  0  0  0  0  0  0  0  0  0
  -30.4733  -26.4276   19.1767 C   0  0  0  0  0  0  0  0  0  0  0  0
  -29.9797  -15.6972   23.1281 C   0  0  0  0  0  0  0  0  0  0  0  0
  -30.7042  -18.3753   22.8361 C   0  0  0  0  0  0  0  0  0  0  0  0
  -22.5988   -7.9426   21.3706 C   0  0  0  0  0  0  0  0  0  0  0  0
  -31.7153  -25.1564   20.8355 C   0  0  0  0  0  0  0  0  0  0  0  0
  -21.4724   -6.5097   22.8540 C   0  0  0  0  0  0  0  0  0  0  0  0
  -20.5166   -5.9968   25.4241 C   0  0  0  0  0  0  0  0  0  0  0  0
  -30.1485  -16.5010   24.2556 C   0  0  0  0  0  0  0  0  0  0  0  0
  -21.9216   -5.3904   23.5546 C   0  0  0  0  0  0  0  0  0  0  0  0
  -24.6270  -11.5990   20.7263 C   0  0  0  0  0  0  0  0  0  0  0  0
  -25.1257  -13.7182   20.4174 C   0  0  0  0  0  0  0  0  0  0  0  0
  -22.6812  -13.2807   20.7024 C   0  0  0  0  0  0  0  0  0  0  0  0
  -27.5253  -28.1399   19.1015 C   0  0  0  0  0  0  0  0  0  0  0  0
  -28.8353  -28.0684   16.1348 C   0  0  0  0  0  0  0  0  0  0  0  0
  -31.3569  -26.9847   14.1066 C   0  0  0  0  0  0  0  0  0  0  0  0
  -31.0169  -12.7762   21.8121 C   0  0  0  0  0  0  0  0  0  0  0  0
  -24.0689  -30.9490   21.5955 C   0  0  0  0  0  0  0  0  0  0  0  0
  -29.8963  -28.8501   19.5811 C   0  0  0  0  0  0  0  0  0  0  0  0
  -29.7966  -26.4679   17.8318 C   0  0  0  0  0  0  0  0  0  0  0  0
  -24.3449  -30.6013   20.1349 C   0  0  0  0  0  0  0  0  0  0  0  0
  -29.5351  -13.7966   18.5772 C   0  0  0  0  0  0  0  0  0  0  0  0
  -24.5407  -29.0973   19.9720 C   0  0  0  0  0  0  0  0  0  0  0  0
  -28.0720  -13.3869   18.7370 C   0  0  0  0  0  0  0  0  0  0  0  0
  -31.3491  -21.9918   23.1446 C   0  0  0  0  0  0  0  0  0  0  0  0
  -30.4641  -12.9194   19.4110 C   0  0  0  0  0  0  0  0  0  0  0  0
  -31.2629  -20.6188   23.8079 C   0  0  0  0  0  0  0  0  0  0  0  0
  -31.2799  -20.3526   21.4025 C   0  0  0  0  0  0  0  0  0  0  0  0
  -28.6401  -12.4510   21.0134 C   0  0  0  0  0  0  0  0  0  0  0  0
  -25.7488  -28.6076   20.7796 C   0  0  1  0  0  0  0  0  0  0  0  0
  -28.8075  -28.6726   18.5272 C   0  0  1  0  0  0  0  0  0  0  0  0
  -31.9479  -21.6807   21.7760 C   0  0  1  0  0  0  0  0  0  0  0  0
  -27.6732  -13.3449   20.2224 C   0  0  2  0  0  0  0  0  0  0  0  0
  -32.1348  -27.0547   11.7217 C   0  0  0  0  0  0  0  0  0  0  0  0
  -26.7188  -26.0020   15.3863 C   0  0  0  0  0  0  0  0  0  0  0  0
  -28.0946  -25.4234   13.3762 C   0  0  0  0  0  0  0  0  0  0  0  0
  -27.1635  -27.7239   13.6279 C   0  0  0  0  0  0  0  0  0  0  0  0
  -31.7040  -13.3050   24.1203 C   0  0  0  0  0  0  0  0  0  0  0  0
  -33.8704  -28.3615   14.8452 C   0  0  0  0  0  0  0  0  0  0  0  0
  -29.5924  -14.2650   23.2807 C   0  0  0  0  0  0  0  0  0  0  0  0
  -31.7109  -22.7796   20.7548 C   0  0  0  0  0  0  0  0  0  1  0  0
  -29.0845  -26.9962   15.1017 C   0  0  1  0  0  0  0  0  0  0  0  0
  -32.2158  -27.7144   13.0896 C   0  0  2  0  0  0  0  0  0  0  0  0
  -27.7765  -26.5347   14.3991 C   0  0  0  0  0  0  0  0  0  0  0  0
  -25.9565  -11.6147   20.5987 N   0  0  0  0  0  0  0  0  0  0  0  0
  -26.2296  -12.9172   20.4117 N   0  0  0  0  0  0  0  0  0  0  0  0
  -31.0626  -19.6988   22.6912 N   0  0  3  0  0  0  0  0  0  0  0  0
  -29.2049  -27.7614   17.4520 N   0  0  0  0  0  0  0  0  0  0  0  0
  -30.0371  -12.8625   20.8094 N   0  0  0  0  0  0  0  0  0  0  0  0
  -25.2205  -15.0536   20.2436 N   0  0  0  0  0  0  0  0  0  0  0  0
  -22.1556  -13.6172   21.9574 N   0  0  0  0  0  0  0  0  0  0  0  0
  -26.9808  -28.9329   20.0935 N   0  0  0  0  0  0  0  0  0  0  0  0
  -30.0938  -27.5307   14.1940 N   0  0  0  0  0  0  0  0  0  0  0  0
  -30.7155  -13.3585   23.0526 N   0  0  0  0  0  0  0  0  0  0  0  0
  -33.6411  -27.7207   13.5247 N   0  3  0  0  0  0  0  0  0  0  0  0
  -21.9363  -13.3216   19.6939 O   0  0  0  0  0  0  0  0  0  0  0  0
  -27.0632  -27.0881   18.6750 O   0  0  0  0  0  0  0  0  0  0  0  0
  -28.3379  -29.1415   15.7847 O   0  0  0  0  0  0  0  0  0  0  0  0
  -31.7645  -26.0239   14.7556 O   0  0  0  0  0  0  0  0  0  0  0  0
  -32.1030  -12.2193   21.6071 O   0  0  0  0  0  0  0  0  0  0  0  0
  -21.9466   -6.7662   21.5784 O   0  0  0  0  0  0  0  0  0  0  0  0
  -32.2956  -23.9909   21.2314 O   0  0  0  0  0  0  0  0  0  1  0  0
  -20.0587   -5.7514   26.6588 F   0  0  0  0  0  0  0  0  0  0  0  0
  -29.9637  -15.9958   25.4833 F   0  0  0  0  0  0  0  0  0  0  0  0
  -22.8130   -4.5584   22.9988 F   0  0  0  0  0  0  0  0  0  0  0  0
  1  2  1  0  0  0  0
  1  5  2  0  0  0  0
  2  6  2  0  0  0  0
  3 10  2  0  0  0  0
  3 18  1  0  0  0  0
  4 11  1  0  0  0  0
  4 18  2  0  0  0  0
  5 20  1  0  0  0  0
  6 22  1  0  0  0  0
  7 12  2  0  0  0  0
  7 21  1  0  0  0  0
  8  9  2  0  0  0  0
  8 24  1  0  0  0  0
  9 25  1  0  0  0  0
 10 26  1  0  0  0  0
 11 26  2  0  0  0  0
 12 27  1  0  0  0  0
 13 14  2  0  0  0  0
 13 28  1  0  0  0  0
 14 29  1  0  0  0  0
 15 23  1  0  0  0  0
 15 27  2  0  0  0  0
 16 25  2  0  0  0  0
 16 30  1  0  0  0  0
 17 29  2  0  0  0  0
 17 31  1  0  0  0  0
 18 32  1  0  0  0  0
 19 32  1  0  0  0  0
 19 33  2  0  0  0  0
 19 34  1  0  0  0  0
 20 22  2  0  0  0  0
 20 39  1  0  0  0  0
 21 23  2  0  0  0  0
 21 40  1  0  0  0  0
 22 51  1  0  0  0  0
 23 41  1  0  0  0  0
 24 30  2  0  0  0  0
 24 61  1  0  0  0  0
 25 68  1  0  0  0  0
 26 82  1  0  0  0  0
 27 83  1  0  0  0  0
 28 31  2  0  0  0  0
 28 82  1  0  0  0  0
 29 84  1  0  0  0  0
 30 85  1  0  0  0  0
 31 86  1  0  0  0  0
 32 66  2  0  0  0  0
 33 67  1  0  0  0  0
 33 71  1  0  0  0  0
 34 72  1  0  0  0  0
 34 77  2  0  0  0  0
 35 52  1  0  0  0  0
 35 73  1  0  0  0  0
 35 78  2  0  0  0  0
 36 63  1  0  0  0  0
 36 69  1  0  0  0  0
 36 79  2  0  0  0  0
 37 64  1  0  0  0  0
 37 74  1  0  0  0  0
 37 80  2  0  0  0  0
 38 70  1  0  0  0  0
 38 75  1  0  0  0  0
 38 81  2  0  0  0  0
 39 42  1  0  0  0  0
 40 52  1  0  0  0  0
 41 69  1  0  0  0  0
 42 44  1  0  0  0  0
 43 45  1  0  0  0  0
 43 47  1  0  0  0  0
 44 51  1  0  0  0  0
 45 54  1  0  0  0  0
 46 48  1  0  0  0  0
 46 53  1  0  0  0  0
 47 70  1  0  0  0  0
 48 68  1  0  0  0  0
 49 53  1  0  0  0  0
 49 68  1  0  0  0  0
 50 54  1  0  0  0  0
 50 70  1  0  0  0  0
 51 73  1  0  0  0  0
 52 69  1  0  0  0  0
 53 62  1  0  0  0  0
 54 67  1  0  0  0  0
 55 64  1  0  0  0  0
 56 65  1  0  0  0  0
 57 65  1  0  0  0  0
 58 65  1  0  0  0  0
 59 75  1  0  0  0  0
 60 76  1  0  0  0  0
 61 75  1  0  0  0  0
 62 83  1  0  0  0  0
 63 65  1  0  0  0  0
 63 74  1  0  0  0  0
 64 76  1  0  0  0  0
 66 67  1  0  0  0  0
M  CHG  1  76   1
M  ISO  4  38 100  62 101  75 100  83 101
M  END
> <Batch ID>
0020

> <Smiles>
CNC(C)C(=O)NC(C(=O)N1Cc2cc([101O:1][101CH2:1]C3CCN(c4ccc(C[100N:0](C)[100C:0](=O)N5CCCC(n6nc(-c7ccc(Oc8ccc(F)cc8F)cc7)c(C(N)=O)c6N)C5)c(F)c4)C3)ccc2CC1C(=O)NC1CCCc2ccccc21)C(C)(C)C

> <Shape>
0.280

> <Color>
0.177

> <Negative vol penalty>
0.000

$$$$

  -OEChem-04042321083D

 84 92  0     1  0  0  0  0  0999 V2000
  -23.9413  -29.7750   22.5406 C   0  0  0  0  0  0  0  0  0  0  0  0
  -23.5241  -28.4871   22.2202 C   0  0  0  0  0  0  0  0  0  0  0  0
  -28.0420  -14.1253   20.2109 C   0  0  0  0  0  0  0  0  0  0  0  0
  -28.9275  -12.1776   19.0888 C   0  0  0  0  0  0  0  0  0  0  0  0
  -25.0027  -30.3554   21.8473 C   0  0  0  0  0  0  0  0  0  0  0  0
  -24.1674  -27.7792   21.2056 C   0  0  0  0  0  0  0  0  0  0  0  0
  -25.1791  -21.7426   20.9993 C   0  0  0  0  0  0  0  0  0  0  0  0
  -24.1628  -14.4097   22.6665 C   0  0  0  0  0  0  0  0  0  0  0  0
  -23.8337  -13.4118   23.5837 C   0  0  0  0  0  0  0  0  0  0  0  0
  -29.3383  -14.6006   20.4090 C   0  0  0  0  0  0  0  0  0  0  0  0
  -30.2239  -12.6529   19.2868 C   0  0  0  0  0  0  0  0  0  0  0  0
  -24.5103  -20.7008   20.3580 C   0  0  0  0  0  0  0  0  0  0  0  0
  -32.4319  -16.1508   21.5272 C   0  0  0  0  0  0  0  0  0  0  0  0
  -32.7540  -16.6547   22.7873 C   0  0  0  0  0  0  0  0  0  0  0  0
  -26.0670  -20.8408   18.5205 C   0  0  0  0  0  0  0  0  0  0  0  0
  -22.2990  -13.7486   21.2785 C   0  0  0  0  0  0  0  0  0  0  0  0
  -32.2387  -14.5114   23.7762 C   0  0  0  0  0  0  0  0  0  0  0  0
  -27.8366  -12.9137   19.5509 C   0  0  0  0  0  0  0  0  0  0  0  0
  -25.6582  -12.6745   18.2451 C   0  0  0  0  0  0  0  0  0  0  0  0
  -25.6656  -29.6505   20.8302 C   0  0  0  0  0  0  0  0  0  0  0  0
  -26.2921  -22.3496   20.4000 C   0  0  0  0  0  0  0  0  0  0  0  0
  -25.2377  -28.3511   20.4972 C   0  0  0  0  0  0  0  0  0  0  0  0
  -26.7496  -21.8883   19.1575 C   0  0  0  0  0  0  0  0  0  0  0  0
  -23.3954  -14.5781   21.5138 C   0  0  0  0  0  0  0  0  0  0  0  0
  -22.7373  -12.5822   23.3484 C   0  0  0  0  0  0  0  0  0  0  0  0
  -30.4292  -13.8645   19.9469 C   0  0  0  0  0  0  0  0  0  0  0  0
  -24.9525  -20.2517   19.1171 C   0  0  0  0  0  0  0  0  0  0  0  0
  -32.0131  -14.8271   21.3916 C   0  0  0  0  0  0  0  0  0  0  0  0
  -32.6575  -15.8350   23.9118 C   0  0  0  0  0  0  0  0  0  0  0  0
  -21.9699  -12.7506   22.1958 C   0  0  0  0  0  0  0  0  0  0  0  0
  -31.9165  -14.0075   22.5160 C   0  0  0  0  0  0  0  0  0  0  0  0
  -26.4978  -12.4219   19.3465 C   0  0  0  0  0  0  0  0  0  0  0  0
  -24.5041  -11.9857   18.5280 C   0  0  0  0  0  0  0  0  0  0  0  0
  -25.9000  -13.4614   17.0712 C   0  0  0  0  0  0  0  0  0  0  0  0
  -26.9704  -25.2837   19.3829 C   0  0  0  0  0  0  0  0  0  0  0  0
  -29.9178  -24.0161   18.9051 C   0  0  0  0  0  0  0  0  0  0  0  0
  -31.8234  -21.2372   18.3636 C   0  0  0  0  0  0  0  0  0  0  0  0
  -22.3672  -10.1814   23.9734 C   0  0  0  0  0  0  0  0  0  0  0  0
  -26.7770  -30.3373   20.0768 C   0  0  0  0  0  0  0  0  0  0  0  0
  -27.0186  -23.4543   21.1170 C   0  0  0  0  0  0  0  0  0  0  0  0
  -27.9519  -22.4927   18.4809 C   0  0  0  0  0  0  0  0  0  0  0  0
  -27.6482  -29.3787   19.2690 C   0  0  0  0  0  0  0  0  0  0  0  0
  -22.8789   -8.1725   20.9082 C   0  0  0  0  0  0  0  0  0  0  0  0
  -26.7797  -28.4033   18.4809 C   0  0  0  0  0  0  0  0  0  0  0  0
  -23.8620   -9.0225   20.1056 C   0  0  0  0  0  0  0  0  0  0  0  0
  -23.0405   -8.3861   22.4102 C   0  0  0  0  0  0  0  0  0  0  0  0
  -23.9175  -10.6706   22.0193 C   0  0  0  0  0  0  0  0  0  0  0  0
  -25.9264  -27.5419   19.4197 C   0  0  1  0  0  0  0  0  0  0  0  0
  -27.8299  -24.3430   20.1792 C   0  0  1  0  0  0  0  0  0  0  0  0
  -23.7475  -10.5038   20.5019 C   0  0  1  0  0  0  0  0  0  0  0  0
  -20.3477  -12.2955   25.4402 C   0  0  0  0  0  0  0  0  0  0  0  0
  -33.8997  -19.8582   18.0721 C   0  0  0  0  0  0  0  0  0  0  0  0
  -29.7509  -25.0299   16.0321 C   0  0  0  0  0  0  0  0  0  0  0  0
  -31.6497  -23.5029   15.4567 C   0  0  0  0  0  0  0  0  0  0  0  0
  -31.9834  -25.3339   17.1176 C   0  0  0  0  0  0  0  0  0  0  0  0
  -32.0523  -20.7561   21.2748 C   0  0  0  0  0  0  0  0  0  0  0  0
  -23.6362  -16.9313   18.5775 C   0  0  0  0  0  0  0  0  0  0  0  0
  -21.8192  -11.9602   25.5757 C   0  0  0  0  0  0  0  0  0  0  0  0
  -22.9857  -15.8155   19.3863 C   0  0  0  0  0  0  0  0  0  0  0  0
  -23.6611  -18.2645   19.3158 C   0  0  0  0  0  0  0  0  0  1  0  0
  -30.6065  -23.3131   17.7603 C   0  0  1  0  0  0  0  0  0  0  0  0
  -33.1089  -20.7554   19.0115 C   0  0  2  0  0  0  0  0  0  0  0  0
  -30.9738  -24.2846   16.6033 C   0  0  0  0  0  0  0  0  0  0  0  0
  -25.9256  -11.6343   20.2610 N   0  0  0  0  0  0  0  0  0  0  0  0
  -24.7142  -11.3861   19.7348 N   0  0  0  0  0  0  0  0  0  0  0  0
  -28.6247  -23.5744   19.2190 N   0  0  0  0  0  0  0  0  0  0  0  0
  -22.9894   -9.8052   22.7653 N   0  0  0  0  0  0  0  0  0  0  0  0
  -23.3401  -11.8407   17.8597 N   0  0  0  0  0  0  0  0  0  0  0  0
  -27.1398  -14.1017   16.9397 N   0  0  0  0  0  0  0  0  0  0  0  0
  -23.7222  -15.5703   20.6026 N   0  0  0  0  0  0  0  0  0  0  0  0
  -26.7279  -26.4911   20.0096 N   0  0  0  0  0  0  0  0  0  0  0  0
  -31.7488  -22.6138   18.3387 N   0  0  0  0  0  0  0  0  0  0  0  0
  -22.3999  -11.5509   24.2988 N   0  0  0  0  0  0  0  0  0  0  0  0
  -32.8072  -19.9870   20.2523 N   0  3  0  0  0  0  0  0  0  0  0  0
  -25.0361  -13.6061   16.1733 O   0  0  0  0  0  0  0  0  0  0  0  0
  -26.5591  -24.9401   18.2809 O   0  0  0  0  0  0  0  0  0  0  0  0
  -30.5083  -24.9187   19.5036 O   0  0  0  0  0  0  0  0  0  0  0  0
  -30.9724  -20.4692   17.9203 O   0  0  0  0  0  0  0  0  0  0  0  0
  -21.8654   -9.3484   24.7382 O   0  0  0  0  0  0  0  0  0  0  0  0
  -31.6943  -14.3281   20.1398 O   0  0  0  0  0  0  0  0  0  0  0  0
  -24.3011  -19.2354   18.4887 O   0  0  0  0  0  0  0  0  0  1  0  0
  -32.9684  -16.3186   25.1216 F   0  0  0  0  0  0  0  0  0  0  0  0
  -20.9143  -11.9587   21.9594 F   0  0  0  0  0  0  0  0  0  0  0  0
  -31.5159  -12.7347   22.3919 F   0  0  0  0  0  0  0  0  0  0  0  0
  1  2  1  0  0  0  0
  1  5  2  0  0  0  0
  2  6  2  0  0  0  0
  3 10  2  0  0  0  0
  3 18  1  0  0  0  0
  4 11  1  0  0  0  0
  4 18  2  0  0  0  0
  5 20  1  0  0  0  0
  6 22  1  0  0  0  0
  7 12  2  0  0  0  0
  7 21  1  0  0  0  0
  8  9  2  0  0  0  0
  8 24  1  0  0  0  0
  9 25  1  0  0  0  0
 10 26  1  0  0  0  0
 11 26  2  0  0  0  0
 12 27  1  0  0  0  0
 13 14  2  0  0  0  0
 13 28  1  0  0  0  0
 14 29  1  0  0  0  0
 15 23  1  0  0  0  0
 15 27  2  0  0  0  0
 16 24  2  0  0  0  0
 16 30  1  0  0  0  0
 17 29  2  0  0  0  0
 17 31  1  0  0  0  0
 18 32  1  0  0  0  0
 19 32  1  0  0  0  0
 19 33  2  0  0  0  0
 19 34  1  0  0  0  0
 20 22  2  0  0  0  0
 20 39  1  0  0  0  0
 21 23  2  0  0  0  0
 21 40  1  0  0  0  0
 22 48  1  0  0  0  0
 23 41  1  0  0  0  0
 24 70  1  0  0  0  0
 25 30  2  0  0  0  0
 25 73  1  0  0  0  0
 26 80  1  0  0  0  0
 27 81  1  0  0  0  0
 28 31  2  0  0  0  0
 28 80  1  0  0  0  0
 29 82  1  0  0  0  0
 30 83  1  0  0  0  0
 31 84  1  0  0  0  0
 32 64  2  0  0  0  0
 33 65  1  0  0  0  0
 33 68  1  0  0  0  0
 34 69  1  0  0  0  0
 34 75  2  0  0  0  0
 35 49  1  0  0  0  0
 35 71  1  0  0  0  0
 35 76  2  0  0  0  0
 36 61  1  0  0  0  0
 36 66  1  0  0  0  0
 36 77  2  0  0  0  0
 37 62  1  0  0  0  0
 37 72  1  0  0  0  0
 37 78  2  0  0  0  0
 38 67  1  0  0  0  0
 38 73  1  0  0  0  0
 38 79  2  0  0  0  0
 39 42  1  0  0  0  0
 40 49  1  0  0  0  0
 41 66  1  0  0  0  0
 42 44  1  0  0  0  0
 43 45  1  0  0  0  0
 43 46  1  0  0  0  0
 44 48  1  0  0  0  0
 45 50  1  0  0  0  0
 46 67  1  0  0  0  0
 47 50  1  0  0  0  0
 47 67  1  0  0  0  0
 48 71  1  0  0  0  0
 49 66  1  0  0  0  0
 50 65  1  0  0  0  0
 51 58  1  0  0  0  0
 52 62  1  0  0  0  0
 53 63  1  0  0  0  0
 54 63  1  0  0  0  0
 55 63  1  0  0  0  0
 56 74  1  0  0  0  0
 57 59  1  0  0  0  0
 57 60  1  0  0  0  0
 58 73  1  0  0  0  0
 59 70  1  0  0  0  0
 60 81  1  0  0  0  0
 61 63  1  0  0  0  0
 61 72  1  0  0  0  0
 62 74  1  0  0  0  0
 64 65  1  0  0  0  0
M  CHG  1  74   1
M  ISO  4  38 100  60 101  73 100  81 101
M  END
> <Batch ID>
0020

> <Smiles>
CC[100N:0](c1ccc(NCC[101CH2:1][101O:1]c2ccc3c(c2)CN(C(=O)C(NC(=O)C(C)NC)C(C)(C)C)C(C(=O)NC2CCCc4ccccc42)C3)cc1F)[100C:0](=O)N1CCCC(n2nc(-c3ccc(Oc4ccc(F)cc4F)cc3)c(C(N)=O)c2N)C1

> <Shape>
0.210

> <Color>
0.101

> <Negative vol penalty>
0.000

$$$$

  -OEChem-04042321083D

 85 93  0     1  0  0  0  0  0999 V2000
  -23.1975  -17.7017   17.4864 C   0  0  0  0  0  0  0  0  0  0  0  0
  -23.0209  -19.0773   17.5967 C   0  0  0  0  0  0  0  0  0  0  0  0
  -29.2509  -17.3585   19.0722 C   0  0  0  0  0  0  0  0  0  0  0  0
  -30.2009  -17.9160   21.2225 C   0  0  0  0  0  0  0  0  0  0  0  0
  -24.1995  -17.1927   16.6613 C   0  0  0  0  0  0  0  0  0  0  0  0
  -23.8470  -19.9446   16.8827 C   0  0  0  0  0  0  0  0  0  0  0  0
  -22.2831  -25.3338   14.4298 C   0  0  0  0  0  0  0  0  0  0  0  0
  -25.8584  -27.4391   21.2229 C   0  0  0  0  0  0  0  0  0  0  0  0
  -24.6991  -27.8729   20.5797 C   0  0  0  0  0  0  0  0  0  0  0  0
  -29.8284  -16.0910   19.1456 C   0  0  0  0  0  0  0  0  0  0  0  0
  -30.7784  -16.6484   21.2960 C   0  0  0  0  0  0  0  0  0  0  0  0
  -22.4445  -26.6468   14.8699 C   0  0  0  0  0  0  0  0  0  0  0  0
  -30.7531  -12.5818   18.9320 C   0  0  0  0  0  0  0  0  0  0  0  0
  -29.9618  -11.4875   18.5829 C   0  0  0  0  0  0  0  0  0  0  0  0
  -24.4551  -26.8355   13.5503 C   0  0  0  0  0  0  0  0  0  0  0  0
  -25.9638  -29.6062   19.4692 C   0  0  0  0  0  0  0  0  0  0  0  0
  -28.4028  -12.0545   20.3394 C   0  0  0  0  0  0  0  0  0  0  0  0
  -29.4372  -18.2711   20.1106 C   0  0  0  0  0  0  0  0  0  0  0  0
  -27.5684  -19.9637   20.4985 C   0  0  0  0  0  0  0  0  0  0  0  0
  -25.0320  -18.0539   15.9294 C   0  0  0  0  0  0  0  0  0  0  0  0
  -23.2140  -24.7572   13.5538 C   0  0  0  0  0  0  0  0  0  0  0  0
  -24.8619  -19.4466   16.0481 C   0  0  0  0  0  0  0  0  0  0  0  0
  -24.3018  -25.5158   13.0986 C   0  0  0  0  0  0  0  0  0  0  0  0
  -27.0703  -28.0890   20.9892 C   0  0  0  0  0  0  0  0  0  0  0  0
  -24.7518  -28.9564   19.7029 C   0  0  0  0  0  0  0  0  0  0  0  0
  -30.5921  -15.7359   20.2575 C   0  0  0  0  0  0  0  0  0  0  0  0
  -23.5322  -27.3969   14.4324 C   0  0  0  0  0  0  0  0  0  0  0  0
  -30.3693  -13.4125   19.9848 C   0  0  0  0  0  0  0  0  0  0  0  0
  -28.7867  -11.2238   19.2866 C   0  0  0  0  0  0  0  0  0  0  0  0
  -27.1230  -29.1725   20.1124 C   0  0  0  0  0  0  0  0  0  0  0  0
  -29.1942  -13.1488   20.6885 C   0  0  0  0  0  0  0  0  0  0  0  0
  -28.8414  -19.5808   20.0350 C   0  0  0  0  0  0  0  0  0  0  0  0
  -27.4791  -21.2997   20.1925 C   0  0  0  0  0  0  0  0  0  0  0  0
  -26.5571  -19.1816   21.1475 C   0  0  0  0  0  0  0  0  0  0  0  0
  -25.2054  -22.2844   13.7068 C   0  0  0  0  0  0  0  0  0  0  0  0
  -25.7201  -23.0049   10.5862 C   0  0  0  0  0  0  0  0  0  0  0  0
  -25.6477  -25.3447    8.1029 C   0  0  0  0  0  0  0  0  0  0  0  0
  -29.7078  -26.4134   20.0241 C   0  0  0  0  0  0  0  0  0  0  0  0
  -26.1320  -17.4580   15.0871 C   0  0  0  0  0  0  0  0  0  0  0  0
  -23.0111  -23.3484   13.0674 C   0  0  0  0  0  0  0  0  0  0  0  0
  -25.3183  -24.9500   12.1421 C   0  0  0  0  0  0  0  0  0  0  0  0
  -26.7215  -18.4363   14.0743 C   0  0  0  0  0  0  0  0  0  0  0  0
  -30.4381  -24.2229   17.3140 C   0  0  0  0  0  0  0  0  0  0  0  0
  -27.0093  -19.7804   14.7355 C   0  0  0  0  0  0  0  0  0  0  0  0
  -29.9888  -22.8513   17.8209 C   0  0  0  0  0  0  0  0  0  0  0  0
  -31.0455  -25.0667   18.4325 C   0  0  0  0  0  0  0  0  0  0  0  0
  -29.7434  -23.8476   20.1331 C   0  0  0  0  0  0  0  0  0  0  0  0
  -25.7219  -20.4191   15.2703 C   0  0  1  0  0  0  0  0  0  0  0  0
  -24.2996  -22.6932   12.5798 C   0  0  1  0  0  0  0  0  0  0  0  0
  -29.0731  -22.9813   19.0530 C   0  0  2  0  0  0  0  0  0  0  0  0
  -21.6982  -29.1637   20.5811 C   0  0  0  0  0  0  0  0  0  0  0  0
  -26.1625  -25.6470    5.6655 C   0  0  0  0  0  0  0  0  0  0  0  0
  -28.7008  -23.1063   11.2308 C   0  0  0  0  0  0  0  0  0  0  0  0
  -29.0567  -24.3134    9.0665 C   0  0  0  0  0  0  0  0  0  0  0  0
  -28.1396  -21.9936    9.0625 C   0  0  0  0  0  0  0  0  0  0  0  0
  -22.8359  -26.0208    7.4738 C   0  0  0  0  0  0  0  0  0  0  0  0
  -28.3080  -27.6227   21.6786 C   0  0  0  0  0  0  0  0  0  0  0  0
  -24.0640  -30.0897   16.7660 C   0  0  0  0  0  0  0  0  0  0  0  0
  -22.3150  -28.7083   19.3025 C   0  0  0  0  0  0  0  0  0  0  0  0
  -23.6015  -30.5175   18.1536 C   0  0  0  0  0  0  0  0  0  0  0  0
  -23.1923  -28.9968   16.1589 C   0  0  0  0  0  0  0  0  0  1  0  0
  -26.6768  -23.9034    9.8401 C   0  0  1  0  0  0  0  0  0  0  0  0
  -25.0945  -25.2973    6.6901 C   0  0  2  0  0  0  0  0  0  0  0  0
  -28.1256  -23.3395    9.8195 C   0  0  0  0  0  0  0  0  0  0  0  0
  -29.5125  -20.5919   19.4770 N   0  0  0  0  0  0  0  0  0  0  0  0
  -28.6580  -21.6232   19.5876 N   0  0  0  0  0  0  0  0  0  0  0  0
  -25.0798  -23.5660   11.7002 N   0  0  0  0  0  0  0  0  0  0  0  0
  -30.1266  -25.1518   19.5701 N   0  0  0  0  0  0  0  0  0  0  0  0
  -26.5080  -22.2175   20.3844 N   0  0  0  0  0  0  0  0  0  0  0  0
  -26.8125  -17.8243   21.3858 N   0  0  0  0  0  0  0  0  0  0  0  0
  -24.9647  -21.0119   14.1888 N   0  0  0  0  0  0  0  0  0  0  0  0
  -26.0966  -24.1086    8.5174 N   0  0  0  0  0  0  0  0  0  0  0  0
  -28.8320  -26.4042   21.1028 N   0  0  0  0  0  0  0  0  0  0  0  0
  -23.5862  -29.3918   19.0563 N   0  0  3  0  0  0  0  0  0  0  0  0
  -23.9678  -26.2616    6.5423 N   0  3  0  0  0  0  0  0  0  0  0  0
  -25.4531  -19.6681   21.4909 O   0  0  0  0  0  0  0  0  0  0  0  0
  -26.0604  -23.0651   14.1083 O   0  0  0  0  0  0  0  0  0  0  0  0
  -25.5421  -21.8501   10.1908 O   0  0  0  0  0  0  0  0  0  0  0  0
  -25.6819  -26.3760    8.7706 O   0  0  0  0  0  0  0  0  0  0  0  0
  -30.0822  -27.4695   19.5031 O   0  0  0  0  0  0  0  0  0  0  0  0
  -31.1556  -14.4990   20.3296 O   0  0  0  0  0  0  0  0  0  0  0  0
  -23.6925  -28.6786   14.8609 O   0  0  0  0  0  0  0  0  0  1  0  0
  -28.0261  -10.1738   18.9503 F   0  0  0  0  0  0  0  0  0  0  0  0
  -28.2828  -29.8040   19.8825 F   0  0  0  0  0  0  0  0  0  0  0  0
  -28.8197  -13.9440   21.7001 F   0  0  0  0  0  0  0  0  0  0  0  0
  1  2  1  0  0  0  0
  1  5  2  0  0  0  0
  2  6  2  0  0  0  0
  3 10  2  0  0  0  0
  3 18  1  0  0  0  0
  4 11  1  0  0  0  0
  4 18  2  0  0  0  0
  5 20  1  0  0  0  0
  6 22  1  0  0  0  0
  7 12  2  0  0  0  0
  7 21  1  0  0  0  0
  8  9  2  0  0  0  0
  8 24  1  0  0  0  0
  9 25  1  0  0  0  0
 10 26  1  0  0  0  0
 11 26  2  0  0  0  0
 12 27  1  0  0  0  0
 13 14  2  0  0  0  0
 13 28  1  0  0  0  0
 14 29  1  0  0  0  0
 15 23  1  0  0  0  0
 15 27  2  0  0  0  0
 16 25  2  0  0  0  0
 16 30  1  0  0  0  0
 17 29  2  0  0  0  0
 17 31  1  0  0  0  0
 18 32  1  0  0  0  0
 19 32  1  0  0  0  0
 19 33  2  0  0  0  0
 19 34  1  0  0  0  0
 20 22  2  0  0  0  0
 20 39  1  0  0  0  0
 21 23  2  0  0  0  0
 21 40  1  0  0  0  0
 22 48  1  0  0  0  0
 23 41  1  0  0  0  0
 24 30  2  0  0  0  0
 24 57  1  0  0  0  0
 25 74  1  0  0  0  0
 26 81  1  0  0  0  0
 27 82  1  0  0  0  0
 28 31  2  0  0  0  0
 28 81  1  0  0  0  0
 29 83  1  0  0  0  0
 30 84  1  0  0  0  0
 31 85  1  0  0  0  0
 32 65  2  0  0  0  0
 33 66  1  0  0  0  0
 33 69  1  0  0  0  0
 34 70  1  0  0  0  0
 34 76  2  0  0  0  0
 35 49  1  0  0  0  0
 35 71  1  0  0  0  0
 35 77  2  0  0  0  0
 36 62  1  0  0  0  0
 36 67  1  0  0  0  0
 36 78  2  0  0  0  0
 37 63  1  0  0  0  0
 37 72  1  0  0  0  0
 37 79  2  0  0  0  0
 38 68  1  0  0  0  0
 38 73  1  0  0  0  0
 38 80  2  0  0  0  0
 39 42  1  0  0  0  0
 40 49  1  0  0  0  0
 41 67  1  0  0  0  0
 42 44  1  0  0  0  0
 43 45  1  0  0  0  0
 43 46  1  0  0  0  0
 44 48  1  0  0  0  0
 45 50  1  0  0  0  0
 46 68  1  0  0  0  0
 47 50  1  0  0  0  0
 47 68  1  0  0  0  0
 48 71  1  0  0  0  0
 49 67  1  0  0  0  0
 50 66  1  0  0  0  0
 51 59  1  0  0  0  0
 52 63  1  0  0  0  0
 53 64  1  0  0  0  0
 54 64  1  0  0  0  0
 55 64  1  0  0  0  0
 56 75  1  0  0  0  0
 57 73  1  0  0  0  0
 58 60  1  0  0  0  0
 58 61  1  0  0  0  0
 59 74  1  0  0  0  0
 60 74  1  0  0  0  0
 61 82  1  0  0  0  0
 62 64  1  0  0  0  0
 62 72  1  0  0  0  0
 63 75  1  0  0  0  0
 65 66  1  0  0  0  0
M  CHG  1  75   1
M  ISO  4  38 100  61 101  73 100  82 101
M  END
> <Batch ID>
0020

> <Smiles>
CCN(CC[101CH2:1][101O:1]c1ccc2c(c1)CN(C(=O)C(NC(=O)C(C)NC)C(C)(C)C)C(C(=O)NC1CCCc3ccccc31)C2)c1ccc(C[100NH:0][100C:0](=O)N2CCCC(n3nc(-c4ccc(Oc5ccc(F)cc5F)cc4)c(C(N)=O)c3N)C2)c(F)c1

> <Shape>
0.196

> <Color>
0.057

> <Negative vol penalty>
0.000

$$$$

  -OEChem-04042321083D

 85 93  0     1  0  0  0  0  0999 V2000
  -23.8077   -6.8910   24.4429 C   0  0  0  0  0  0  0  0  0  0  0  0
  -24.8830   -7.7658   24.5593 C   0  0  0  0  0  0  0  0  0  0  0  0
  -23.7707  -28.7789   23.3586 C   0  0  0  0  0  0  0  0  0  0  0  0
  -22.9694  -29.7805   21.3111 C   0  0  0  0  0  0  0  0  0  0  0  0
  -22.9827   -6.9476   23.3204 C   0  0  0  0  0  0  0  0  0  0  0  0
  -25.1348   -8.6972   23.5525 C   0  0  0  0  0  0  0  0  0  0  0  0
  -27.3464  -14.3653   24.2500 C   0  0  0  0  0  0  0  0  0  0  0  0
  -29.5439  -19.8693   22.8144 C   0  0  0  0  0  0  0  0  0  0  0  0
  -28.4948  -20.3697   22.0434 C   0  0  0  0  0  0  0  0  0  0  0  0
  -24.0008  -30.0481   23.8894 C   0  0  0  0  0  0  0  0  0  0  0  0
  -23.1995  -31.0497   21.8420 C   0  0  0  0  0  0  0  0  0  0  0  0
  -28.6280  -14.8960   24.1098 C   0  0  0  0  0  0  0  0  0  0  0  0
  -25.1365  -33.0211   25.6487 C   0  0  0  0  0  0  0  0  0  0  0  0
  -26.3432  -33.2386   26.3135 C   0  0  0  0  0  0  0  0  0  0  0  0
  -28.0931  -15.5775   21.8584 C   0  0  0  0  0  0  0  0  0  0  0  0
  -30.4525  -22.0981   23.0246 C   0  0  0  0  0  0  0  0  0  0  0  0
  -27.5538  -32.6881   24.2964 C   0  0  0  0  0  0  0  0  0  0  0  0
  -23.2550  -28.6451   22.0694 C   0  0  0  0  0  0  0  0  0  0  0  0
  -21.8352  -26.5757   21.6117 C   0  0  0  0  0  0  0  0  0  0  0  0
  -23.2187   -7.8865   22.3038 C   0  0  0  0  0  0  0  0  0  0  0  0
  -26.4306  -14.4272   23.1899 C   0  0  0  0  0  0  0  0  0  0  0  0
  -24.3130   -8.7655   22.4146 C   0  0  0  0  0  0  0  0  0  0  0  0
  -26.7996  -15.0492   21.9886 C   0  0  0  0  0  0  0  0  0  0  0  0
  -30.5227  -20.7335   23.3051 C   0  0  0  0  0  0  0  0  0  0  0  0
  -28.4245  -21.7343   21.7628 C   0  0  0  0  0  0  0  0  0  0  0  0
  -23.7152  -31.1835   23.1311 C   0  0  0  0  0  0  0  0  0  0  0  0
  -29.0025  -15.4996   22.9129 C   0  0  0  0  0  0  0  0  0  0  0  0
  -25.1384  -32.6370   24.3077 C   0  0  0  0  0  0  0  0  0  0  0  0
  -27.5519  -33.0721   25.6374 C   0  0  0  0  0  0  0  0  0  0  0  0
  -26.3470  -32.4705   23.6316 C   0  0  0  0  0  0  0  0  0  0  0  0
  -29.4034  -22.5985   22.2535 C   0  0  0  0  0  0  0  0  0  0  0  0
  -23.0176  -27.3343   21.5203 C   0  0  0  0  0  0  0  0  0  0  0  0
  -22.1181  -25.4158   20.9326 C   0  0  0  0  0  0  0  0  0  0  0  0
  -20.5923  -26.8914   22.2530 C   0  0  0  0  0  0  0  0  0  0  0  0
  -24.8977  -12.2762   21.4215 C   0  0  0  0  0  0  0  0  0  0  0  0
  -23.4124  -14.8972   20.2187 C   0  0  0  0  0  0  0  0  0  0  0  0
  -23.4921  -18.2579   19.6302 C   0  0  0  0  0  0  0  0  0  0  0  0
  -27.5482  -22.8772   19.7328 C   0  0  0  0  0  0  0  0  0  0  0  0
  -22.3278   -7.8783   21.0869 C   0  0  0  0  0  0  0  0  0  0  0  0
  -25.0431  -13.8739   23.3663 C   0  0  0  0  0  0  0  0  0  0  0  0
  -25.8468  -15.1593   20.8273 C   0  0  0  0  0  0  0  0  0  0  0  0
  -22.4399   -9.1444   20.2414 C   0  0  0  0  0  0  0  0  0  0  0  0
  -24.8247  -23.7047   17.3859 C   0  0  0  0  0  0  0  0  0  0  0  0
  -23.9040   -9.5124   20.0228 C   0  0  0  0  0  0  0  0  0  0  0  0
  -23.9920  -24.7150   18.1732 C   0  0  0  0  0  0  0  0  0  0  0  0
  -26.2974  -23.7527   17.7820 C   0  0  0  0  0  0  0  0  0  0  0  0
  -25.6986  -24.5926   20.0328 C   0  0  0  0  0  0  0  0  0  0  0  0
  -24.6038   -9.8064   21.3553 C   0  0  1  0  0  0  0  0  0  0  0  0
  -24.3624  -13.5348   22.0438 C   0  0  1  0  0  0  0  0  0  0  0  0
  -24.2028  -24.5387   19.6870 C   0  0  1  0  0  0  0  0  0  0  0  0
  -22.6623  -20.5184   18.9239 C   0  0  0  0  0  0  0  0  0  0  0  0
  -24.2130  -13.9217   17.4407 C   0  0  0  0  0  0  0  0  0  0  0  0
  -23.7073  -16.2127   16.5667 C   0  0  0  0  0  0  0  0  0  0  0  0
  -21.8931  -14.8433   17.5944 C   0  0  0  0  0  0  0  0  0  0  0  0
  -25.9643  -21.8039   21.3168 C   0  0  0  0  0  0  0  0  0  0  0  0
  -32.6049  -21.1365   24.5944 C   0  0  0  0  0  0  0  0  0  0  0  0
  -22.3707  -18.8126   22.3123 C   0  0  0  0  0  0  0  0  0  0  0  0
  -32.3086  -18.0459   23.2499 C   0  0  0  0  0  0  0  0  0  0  0  0
  -32.4690  -16.5583   23.5668 C   0  0  0  0  0  0  0  0  0  0  0  0
  -31.6732  -18.8252   24.3983 C   0  0  0  0  0  0  0  0  0  0  0  0
  -31.1303  -15.9083   23.8933 C   0  0  0  0  0  0  0  0  0  1  0  0
  -23.6790  -15.8470   19.0760 C   0  0  1  0  0  0  0  0  0  0  0  0
  -22.4641  -19.3479   19.8744 C   0  0  2  0  0  0  0  0  0  0  0  0
  -23.3919  -15.2026   17.6905 C   0  0  0  0  0  0  0  0  0  0  0  0
  -23.9800  -26.7089   20.8372 N   0  0  0  0  0  0  0  0  0  0  0  0
  -23.4028  -25.5450   20.4932 N   0  0  0  0  0  0  0  0  0  0  0  0
  -24.5037  -14.5977   21.0465 N   0  0  0  0  0  0  0  0  0  0  0  0
  -26.4669  -23.6286   19.2303 N   0  0  0  0  0  0  0  0  0  0  0  0
  -21.3908  -24.3082   20.6746 N   0  0  0  0  0  0  0  0  0  0  0  0
  -20.4716  -28.1261   22.9051 N   0  0  0  0  0  0  0  0  0  0  0  0
  -24.2501  -11.1264   21.8315 N   0  0  0  0  0  0  0  0  0  0  0  0
  -22.8955  -17.0465   19.3510 N   0  0  0  0  0  0  0  0  0  0  0  0
  -27.3254  -22.2184   20.9614 N   0  0  0  0  0  0  0  0  0  0  0  0
  -31.5775  -20.2298   24.0793 N   0  0  3  0  0  0  0  0  0  0  0  0
  -22.5684  -19.8546   21.2720 N   0  3  0  0  0  0  0  0  0  0  0  0
  -19.6232  -26.0950   22.2619 O   0  0  0  0  0  0  0  0  0  0  0  0
  -25.8283  -12.3434   20.6271 O   0  0  0  0  0  0  0  0  0  0  0  0
  -22.2761  -14.4436   20.3755 O   0  0  0  0  0  0  0  0  0  0  0  0
  -24.7032  -18.4616   19.6784 O   0  0  0  0  0  0  0  0  0  0  0  0
  -28.6165  -22.7790   19.1174 O   0  0  0  0  0  0  0  0  0  0  0  0
  -23.9394  -32.4222   23.6489 O   0  0  0  0  0  0  0  0  0  0  0  0
  -30.2531  -16.0177   22.7732 O   0  0  0  0  0  0  0  0  0  1  0  0
  -28.7106  -33.2826   26.2756 F   0  0  0  0  0  0  0  0  0  0  0  0
  -26.3551  -32.1028   22.3430 F   0  0  0  0  0  0  0  0  0  0  0  0
  -29.3548  -24.2950   21.9294 Cl  0  0  0  0  0  0  0  0  0  0  0  0
  1  2  1  0  0  0  0
  1  5  2  0  0  0  0
  2  6  2  0  0  0  0
  3 10  2  0  0  0  0
  3 18  1  0  0  0  0
  4 11  1  0  0  0  0
  4 18  2  0  0  0  0
  5 20  1  0  0  0  0
  6 22  1  0  0  0  0
  7 12  2  0  0  0  0
  7 21  1  0  0  0  0
  8  9  2  0  0  0  0
  8 24  1  0  0  0  0
  9 25  1  0  0  0  0
 10 26  1  0  0  0  0
 11 26  2  0  0  0  0
 12 27  1  0  0  0  0
 13 14  2  0  0  0  0
 13 28  1  0  0  0  0
 14 29  1  0  0  0  0
 15 23  1  0  0  0  0
 15 27  2  0  0  0  0
 16 24  2  0  0  0  0
 16 31  1  0  0  0  0
 17 29  2  0  0  0  0
 17 30  1  0  0  0  0
 18 32  1  0  0  0  0
 19 32  1  0  0  0  0
 19 33  2  0  0  0  0
 19 34  1  0  0  0  0
 20 22  2  0  0  0  0
 20 39  1  0  0  0  0
 21 23  2  0  0  0  0
 21 40  1  0  0  0  0
 22 48  1  0  0  0  0
 23 41  1  0  0  0  0
 24 74  1  0  0  0  0
 25 31  2  0  0  0  0
 25 73  1  0  0  0  0
 26 81  1  0  0  0  0
 27 82  1  0  0  0  0
 28 30  2  0  0  0  0
 28 81  1  0  0  0  0
 29 83  1  0  0  0  0
 30 84  1  0  0  0  0
 31 85  1  0  0  0  0
 32 65  2  0  0  0  0
 33 66  1  0  0  0  0
 33 69  1  0  0  0  0
 34 70  1  0  0  0  0
 34 76  2  0  0  0  0
 35 49  1  0  0  0  0
 35 71  1  0  0  0  0
 35 77  2  0  0  0  0
 36 62  1  0  0  0  0
 36 67  1  0  0  0  0
 36 78  2  0  0  0  0
 37 63  1  0  0  0  0
 37 72  1  0  0  0  0
 37 79  2  0  0  0  0
 38 68  1  0  0  0  0
 38 73  1  0  0  0  0
 38 80  2  0  0  0  0
 39 42  1  0  0  0  0
 40 49  1  0  0  0  0
 41 67  1  0  0  0  0
 42 44  1  0  0  0  0
 43 45  1  0  0  0  0
 43 46  1  0  0  0  0
 44 48  1  0  0  0  0
 45 50  1  0  0  0  0
 46 68  1  0  0  0  0
 47 50  1  0  0  0  0
 47 68  1  0  0  0  0
 48 71  1  0  0  0  0
 49 67  1  0  0  0  0
 50 66  1  0  0  0  0
 51 63  1  0  0  0  0
 52 64  1  0  0  0  0
 53 64  1  0  0  0  0
 54 64  1  0  0  0  0
 55 73  1  0  0  0  0
 56 74  1  0  0  0  0
 57 75  1  0  0  0  0
 58 59  1  0  0  0  0
 58 60  1  0  0  0  0
 59 61  1  0  0  0  0
 60 74  1  0  0  0  0
 61 82  1  0  0  0  0
 62 64  1  0  0  0  0
 62 72  1  0  0  0  0
 63 75  1  0  0  0  0
 65 66  1  0  0  0  0
M  CHG  1  75   1
M  ISO  4  38 100  61 101  73 100  82 101
M  END
> <Batch ID>
0020

> <Smiles>
CNC(C)C(=O)NC(C(=O)N1Cc2cc([101O:1][101CH2:1]CCCN(C)c3ccc([100N:0](C)[100C:0](=O)N4CCCC(n5nc(-c6ccc(Oc7ccc(F)cc7F)cc6)c(C(N)=O)c5N)C4)c(Cl)c3)ccc2CC1C(=O)NC1CCCc2ccccc21)C(C)(C)C

> <Shape>
0.218

> <Color>
0.081

> <Negative vol penalty>
0.000

$$$$

  -OEChem-04042321083D

 83 92  0     1  0  0  0  0  0999 V2000
  -17.2094  -26.5772   22.4604 C   0  0  0  0  0  0  0  0  0  0  0  0
  -18.4735  -26.0631   22.1902 C   0  0  0  0  0  0  0  0  0  0  0  0
  -22.9572  -12.5181   21.7167 C   0  0  0  0  0  0  0  0  0  0  0  0
  -22.1494  -14.4588   20.5257 C   0  0  0  0  0  0  0  0  0  0  0  0
  -16.9688  -27.9432   22.3189 C   0  0  0  0  0  0  0  0  0  0  0  0
  -19.4976  -26.9146   21.7772 C   0  0  0  0  0  0  0  0  0  0  0  0
  -25.4542  -26.4282   23.1148 C   0  0  0  0  0  0  0  0  0  0  0  0
  -29.6595  -22.0455   18.4861 C   0  0  0  0  0  0  0  0  0  0  0  0
  -27.3960  -21.8319   17.6689 C   0  0  0  0  0  0  0  0  0  0  0  0
  -29.5640  -20.7870   19.0799 C   0  0  0  0  0  0  0  0  0  0  0  0
  -27.3004  -20.5733   18.2627 C   0  0  0  0  0  0  0  0  0  0  0  0
  -21.7468  -12.4368   22.4052 C   0  0  0  0  0  0  0  0  0  0  0  0
  -20.9390  -14.3775   21.2142 C   0  0  0  0  0  0  0  0  0  0  0  0
  -26.5355  -25.9083   22.4048 C   0  0  0  0  0  0  0  0  0  0  0  0
  -18.1037  -12.5455   21.0562 C   0  0  0  0  0  0  0  0  0  0  0  0
  -16.9290  -12.6908   20.3182 C   0  0  0  0  0  0  0  0  0  0  0  0
  -27.0787  -28.1242   21.6213 C   0  0  0  0  0  0  0  0  0  0  0  0
  -16.3261  -14.6102   21.6559 C   0  0  0  0  0  0  0  0  0  0  0  0
  -23.1585  -13.5291   20.7770 C   0  0  0  0  0  0  0  0  0  0  0  0
  -24.7343  -12.9987   18.8422 C   0  0  0  0  0  0  0  0  0  0  0  0
  -17.9931  -28.8134   21.9133 C   0  0  0  0  0  0  0  0  0  0  0  0
  -25.1700  -27.8008   23.0745 C   0  0  0  0  0  0  0  0  0  0  0  0
  -19.2702  -28.2933   21.6289 C   0  0  0  0  0  0  0  0  0  0  0  0
  -25.9946  -28.6594   22.3337 C   0  0  0  0  0  0  0  0  0  0  0  0
  -28.5755  -22.5680   17.7806 C   0  0  0  0  0  0  0  0  0  0  0  0
  -28.3844  -20.0509   18.9682 C   0  0  0  0  0  0  0  0  0  0  0  0
  -20.7378  -13.3665   22.1539 C   0  0  0  0  0  0  0  0  0  0  0  0
  -27.3462  -26.7559   21.6555 C   0  0  0  0  0  0  0  0  0  0  0  0
  -18.3895  -13.4325   22.0941 C   0  0  0  0  0  0  0  0  0  0  0  0
  -16.0402  -13.7232   20.6180 C   0  0  0  0  0  0  0  0  0  0  0  0
  -17.5007  -14.4648   22.3939 C   0  0  0  0  0  0  0  0  0  0  0  0
  -24.4088  -13.6140   20.0659 C   0  0  0  0  0  0  0  0  0  0  0  0
  -26.0284  -13.3873   18.5960 C   0  0  0  0  0  0  0  0  0  0  0  0
  -29.5121  -25.6599   18.8144 C   0  0  0  0  0  0  0  0  0  0  0  0
  -23.9379  -12.1517   18.0031 C   0  0  0  0  0  0  0  0  0  0  0  0
  -22.7144  -29.5547   22.0757 C   0  0  0  0  0  0  0  0  0  0  0  0
  -24.4215  -31.9845   23.3811 C   0  0  0  0  0  0  0  0  0  0  0  0
  -27.4609  -33.1952   24.3522 C   0  0  0  0  0  0  0  0  0  0  0  0
  -29.2686  -18.1078   20.3057 C   0  0  0  0  0  0  0  0  0  0  0  0
  -17.6728  -30.2756   21.7288 C   0  0  0  0  0  0  0  0  0  0  0  0
  -24.0157  -28.3497   23.8675 C   0  0  0  0  0  0  0  0  0  0  0  0
  -25.7443  -30.1434   22.2740 C   0  0  0  0  0  0  0  0  0  0  0  0
  -18.9109  -31.1648   21.6480 C   0  0  0  0  0  0  0  0  0  0  0  0
  -30.0460  -14.6778   20.8605 C   0  0  0  0  0  0  0  0  0  0  0  0
  -19.9423  -30.5591   20.7013 C   0  0  0  0  0  0  0  0  0  0  0  0
  -28.7197  -13.9591   20.6024 C   0  0  0  0  0  0  0  0  0  0  0  0
  -29.8358  -16.0285   21.5426 C   0  0  0  0  0  0  0  0  0  0  0  0
  -27.4171  -25.5680   18.7291 C   0  0  0  0  0  0  0  0  0  0  0  0
  -27.5633  -16.2063   20.6081 C   0  0  0  0  0  0  0  0  0  0  0  0
  -20.4134  -29.1886   21.2026 C   0  0  1  0  0  0  0  0  0  0  0  0
  -28.3993  -26.4403   19.5467 C   0  0  1  0  0  0  0  0  0  1  0  0
  -23.5131  -29.6904   23.3411 C   0  0  1  0  0  0  0  0  0  0  0  0
  -27.7196  -14.8701   19.8639 C   0  0  2  0  0  0  0  0  0  0  0  0
  -28.5447  -35.2267   25.3501 C   0  0  0  0  0  0  0  0  0  0  0  0
  -24.1845  -33.4243   20.7014 C   0  0  0  0  0  0  0  0  0  0  0  0
  -26.0342  -34.9444   21.4336 C   0  0  0  0  0  0  0  0  0  0  0  0
  -23.8882  -34.8924   22.7042 C   0  0  0  0  0  0  0  0  0  0  0  0
  -28.4177  -31.6728   26.7029 C   0  0  0  0  0  0  0  0  0  0  0  0
  -28.6785  -23.9227   17.1415 C   0  0  0  0  0  0  0  0  0  0  0  0
  -25.4806  -32.9366   22.8804 C   0  0  1  0  0  0  0  0  0  0  0  0
  -27.9127  -33.8727   25.6333 C   0  0  2  0  0  0  0  0  0  0  0  0
  -24.9007  -34.0212   21.9293 C   0  0  0  0  0  0  0  0  0  0  0  0
  -25.4151  -14.3383   20.5626 N   0  0  0  0  0  0  0  0  0  0  0  0
  -26.3857  -14.1805   19.6464 N   0  0  0  0  0  0  0  0  0  0  0  0
  -28.5874  -24.9769   18.1041 N   0  0  0  0  0  0  0  0  0  0  0  0
  -24.5998  -30.6311   23.0613 N   0  0  0  0  0  0  0  0  0  0  0  0
  -28.8799  -16.8389   20.7847 N   0  0  0  0  0  0  0  0  0  0  0  0
  -26.8843  -13.1244   17.5857 N   0  0  0  0  0  0  0  0  0  0  0  0
  -22.6290  -11.8529   18.4053 N   0  0  0  0  0  0  0  0  0  0  0  0
  -28.2871  -18.7723   19.5710 N   0  0  0  0  0  0  0  0  0  0  0  0
  -21.3643  -29.3448   22.2823 N   0  0  0  0  0  0  0  0  0  0  0  0
  -26.1409  -33.4726   24.0658 N   0  0  0  0  0  0  0  0  0  0  0  0
  -28.9135  -33.0259   26.3420 N   0  3  0  0  0  0  0  0  0  0  0  0
  -30.7209  -25.6308   18.8404 O   0  0  0  0  0  0  0  0  0  0  0  0
  -24.3797  -11.6608   16.9366 O   0  0  0  0  0  0  0  0  0  0  0  0
  -23.2808  -29.6358   20.9921 O   0  0  0  0  0  0  0  0  0  0  0  0
  -23.4746  -32.4244   24.0381 O   0  0  0  0  0  0  0  0  0  0  0  0
  -28.2055  -32.4933   23.6715 O   0  0  0  0  0  0  0  0  0  0  0  0
  -30.3988  -18.5593   20.5076 O   0  0  0  0  0  0  0  0  0  0  0  0
  -19.5565  -13.2873   22.8254 O   0  0  0  0  0  0  0  0  0  0  0  0
  -28.4020  -26.2510   20.9611 O   0  0  0  0  0  0  0  0  0  1  0  0
  -14.9130  -13.8636   19.9082 F   0  0  0  0  0  0  0  0  0  0  0  0
  -17.7704  -15.3208   23.3891 F   0  0  0  0  0  0  0  0  0  0  0  0
  1  2  1  0  0  0  0
  1  5  2  0  0  0  0
  2  6  2  0  0  0  0
  3 12  2  0  0  0  0
  3 19  1  0  0  0  0
  4 13  1  0  0  0  0
  4 19  2  0  0  0  0
  5 21  1  0  0  0  0
  6 23  1  0  0  0  0
  7 14  2  0  0  0  0
  7 22  1  0  0  0  0
  8 10  2  0  0  0  0
  8 25  1  0  0  0  0
  9 11  1  0  0  0  0
  9 25  2  0  0  0  0
 10 26  1  0  0  0  0
 11 26  2  0  0  0  0
 12 27  1  0  0  0  0
 13 27  2  0  0  0  0
 14 28  1  0  0  0  0
 15 16  2  0  0  0  0
 15 29  1  0  0  0  0
 16 30  1  0  0  0  0
 17 24  1  0  0  0  0
 17 28  2  0  0  0  0
 18 30  2  0  0  0  0
 18 31  1  0  0  0  0
 19 32  1  0  0  0  0
 20 32  1  0  0  0  0
 20 33  2  0  0  0  0
 20 35  1  0  0  0  0
 21 23  2  0  0  0  0
 21 40  1  0  0  0  0
 22 24  2  0  0  0  0
 22 41  1  0  0  0  0
 23 50  1  0  0  0  0
 24 42  1  0  0  0  0
 25 59  1  0  0  0  0
 26 70  1  0  0  0  0
 27 80  1  0  0  0  0
 28 81  1  0  0  0  0
 29 31  2  0  0  0  0
 29 80  1  0  0  0  0
 30 82  1  0  0  0  0
 31 83  1  0  0  0  0
 32 63  2  0  0  0  0
 33 64  1  0  0  0  0
 33 68  1  0  0  0  0
 34 51  1  0  0  0  0
 34 65  1  0  0  0  0
 34 74  2  0  0  0  0
 35 69  1  0  0  0  0
 35 75  2  0  0  0  0
 36 52  1  0  0  0  0
 36 71  1  0  0  0  0
 36 76  2  0  0  0  0
 37 60  1  0  0  0  0
 37 66  1  0  0  0  0
 37 77  2  0  0  0  0
 38 61  1  0  0  0  0
 38 72  1  0  0  0  0
 38 78  2  0  0  0  0
 39 67  1  0  0  0  0
 39 70  1  0  0  0  0
 39 79  2  0  0  0  0
 40 43  1  0  0  0  0
 41 52  1  0  0  0  0
 42 66  1  0  0  0  0
 43 45  1  0  0  0  0
 44 46  1  0  0  0  0
 44 47  1  0  0  0  0
 45 50  1  0  0  0  0
 46 53  1  0  0  0  0
 47 67  1  0  0  0  0
 48 51  1  0  0  0  0
 48 65  1  0  0  0  0
 49 53  1  0  0  0  0
 49 67  1  0  0  0  0
 50 71  1  0  0  0  0
 51 81  1  0  0  0  0
 52 66  1  0  0  0  0
 53 64  1  0  0  0  0
 54 61  1  0  0  0  0
 55 62  1  0  0  0  0
 56 62  1  0  0  0  0
 57 62  1  0  0  0  0
 58 73  1  0  0  0  0
 59 65  1  0  0  0  0
 60 62  1  0  0  0  0
 60 72  1  0  0  0  0
 61 73  1  0  0  0  0
 63 64  1  0  0  0  0
M  CHG  1  73   1
M  ISO  4  39 100  51 101  70 100  81 101
M  END
> <Batch ID>
0020

> <Smiles>
CNC(C)C(=O)NC(C(=O)N1Cc2cc([101O:1][101CH:1]3CN(Cc4ccc([100NH:0][100C:0](=O)N5CCCC(n6nc(-c7ccc(Oc8ccc(F)cc8F)cc7)c(C(N)=O)c6N)C5)cc4)C3=O)ccc2CC1C(=O)NC1CCCc2ccccc21)C(C)(C)C

> <Shape>
0.282

> <Color>
0.088

> <Negative vol penalty>
0.000

$$$$

  -OEChem-04042321083D

 85 93  0     1  0  0  0  0  0999 V2000
  -28.9220  -24.5097   24.2884 C   0  0  0  0  0  0  0  0  0  0  0  0
  -27.6302  -24.2447   23.8452 C   0  0  0  0  0  0  0  0  0  0  0  0
  -26.1716  -22.7207   18.2055 C   0  0  0  0  0  0  0  0  0  0  0  0
  -26.6525  -24.0640   16.2557 C   0  0  0  0  0  0  0  0  0  0  0  0
  -29.9961  -23.7827   23.7769 C   0  0  0  0  0  0  0  0  0  0  0  0
  -27.4118  -23.2532   22.8893 C   0  0  0  0  0  0  0  0  0  0  0  0
  -23.4814  -20.2753   24.0419 C   0  0  0  0  0  0  0  0  0  0  0  0
  -21.9343  -25.3357   22.2613 C   0  0  0  0  0  0  0  0  0  0  0  0
  -21.0400  -24.6142   21.4706 C   0  0  0  0  0  0  0  0  0  0  0  0
  -25.8251  -21.6496   17.3821 C   0  0  0  0  0  0  0  0  0  0  0  0
  -26.3060  -22.9928   15.4323 C   0  0  0  0  0  0  0  0  0  0  0  0
  -22.2057  -20.7817   23.7975 C   0  0  0  0  0  0  0  0  0  0  0  0
  -27.7242  -20.1205   14.3555 C   0  0  0  0  0  0  0  0  0  0  0  0
  -28.5665  -19.8314   13.2820 C   0  0  0  0  0  0  0  0  0  0  0  0
  -22.0977  -19.5063   21.7528 C   0  0  0  0  0  0  0  0  0  0  0  0
  -21.1251  -27.3972   21.2957 C   0  0  0  0  0  0  0  0  0  0  0  0
  -26.7390  -20.2071   11.7470 C   0  0  0  0  0  0  0  0  0  0  0  0
  -26.5853  -23.9280   17.6423 C   0  0  0  0  0  0  0  0  0  0  0  0
  -28.2176  -25.3317   19.0108 C   0  0  0  0  0  0  0  0  0  0  0  0
  -29.7897  -22.7752   22.8214 C   0  0  0  0  0  0  0  0  0  0  0  0
  -24.0803  -19.3875   23.1366 C   0  0  0  0  0  0  0  0  0  0  0  0
  -28.4844  -22.5129   22.3635 C   0  0  0  0  0  0  0  0  0  0  0  0
  -23.3801  -18.9880   21.9893 C   0  0  0  0  0  0  0  0  0  0  0  0
  -21.9769  -26.7272   22.1739 C   0  0  0  0  0  0  0  0  0  0  0  0
  -20.1883  -25.2842   20.5924 C   0  0  0  0  0  0  0  0  0  0  0  0
  -25.8923  -21.7855   15.9955 C   0  0  0  0  0  0  0  0  0  0  0  0
  -21.5148  -20.3995   22.6513 C   0  0  0  0  0  0  0  0  0  0  0  0
  -26.3892  -20.4528   14.1248 C   0  0  0  0  0  0  0  0  0  0  0  0
  -28.0739  -19.8747   11.9777 C   0  0  0  0  0  0  0  0  0  0  0  0
  -20.2308  -26.6757   20.5050 C   0  0  0  0  0  0  0  0  0  0  0  0
  -25.8967  -20.4962   12.8206 C   0  0  0  0  0  0  0  0  0  0  0  0
  -26.9428  -25.0351   18.4924 C   0  0  0  0  0  0  0  0  0  0  0  0
  -28.0302  -26.4738   19.7504 C   0  0  0  0  0  0  0  0  0  0  0  0
  -29.4600  -24.6370   18.8392 C   0  0  0  0  0  0  0  0  0  0  0  0
  -26.6929  -19.4520   21.3272 C   0  0  0  0  0  0  0  0  0  0  0  0
  -25.8628  -16.3793   20.7012 C   0  0  0  0  0  0  0  0  0  0  0  0
  -23.4079  -14.0128   20.5597 C   0  0  0  0  0  0  0  0  0  0  0  0
  -23.4392  -28.7040   22.5550 C   0  0  0  0  0  0  0  0  0  0  0  0
  -30.9873  -22.0481   22.2628 C   0  0  0  0  0  0  0  0  0  0  0  0
  -25.4463  -18.8294   23.4282 C   0  0  0  0  0  0  0  0  0  0  0  0
  -23.9705  -18.0218   20.9962 C   0  0  0  0  0  0  0  0  0  0  0  0
  -30.6291  -20.7586   21.5287 C   0  0  0  0  0  0  0  0  0  0  0  0
  -25.2769  -30.3688   20.0066 C   0  0  0  0  0  0  0  0  0  0  0  0
  -29.4586  -20.9925   20.5789 C   0  0  0  0  0  0  0  0  0  0  0  0
  -26.0342  -29.2047   19.3688 C   0  0  0  0  0  0  0  0  0  0  0  0
  -23.8483  -29.9811   20.3898 C   0  0  0  0  0  0  0  0  0  0  0  0
  -24.5192  -27.6088   20.6053 C   0  0  0  0  0  0  0  0  0  0  0  0
  -28.2044  -21.4283   21.3460 C   0  0  1  0  0  0  0  0  0  0  0  0
  -26.1674  -18.3316   22.1794 C   0  0  1  0  0  0  0  0  0  0  0  0
  -25.9770  -27.9530   20.2623 C   0  0  1  0  0  0  0  0  0  0  0  0
  -23.0271  -11.6019   19.9765 C   0  0  0  0  0  0  0  0  0  0  0  0
  -26.0045  -17.0771   17.7342 C   0  0  0  0  0  0  0  0  0  0  0  0
  -24.7238  -14.9806   17.2513 C   0  0  0  0  0  0  0  0  0  0  0  0
  -26.9697  -14.8479   18.3289 C   0  0  0  0  0  0  0  0  0  0  0  0
  -23.0946  -27.0607   24.3870 C   0  0  0  0  0  0  0  0  0  0  0  0
  -18.3960  -25.2572   18.8757 C   0  0  0  0  0  0  0  0  0  0  0  0
  -22.5044  -13.3713   23.3040 C   0  0  0  0  0  0  0  0  0  0  0  0
  -18.3777  -22.6487   21.0304 C   0  0  0  0  0  0  0  0  0  0  0  0
  -18.2544  -21.1259   21.0997 C   0  0  0  0  0  0  0  0  0  0  0  0
  -19.2331  -23.1152   19.8553 C   0  0  0  0  0  0  0  0  0  0  0  0
  -19.6192  -20.4587   21.2164 C   0  0  0  0  0  0  0  0  0  1  0  0
  -25.0000  -15.6940   19.6692 C   0  0  1  0  0  0  0  0  0  0  0  0
  -23.3484  -12.5904   21.0867 C   0  0  2  0  0  0  0  0  0  0  0  0
  -25.6639  -15.6697   18.2634 C   0  0  0  0  0  0  0  0  0  0  0  0
  -26.0142  -25.9175   18.8706 N   0  0  0  0  0  0  0  0  0  0  0  0
  -26.7062  -26.7798   19.6348 N   0  0  0  0  0  0  0  0  0  0  0  0
  -25.3113  -17.5087   21.3226 N   0  0  0  0  0  0  0  0  0  0  0  0
  -23.8414  -28.7596   21.2072 N   0  0  0  0  0  0  0  0  0  0  0  0
  -28.8706  -27.2361   20.4819 N   0  0  0  0  0  0  0  0  0  0  0  0
  -29.4751  -23.4807   18.0473 N   0  0  0  0  0  0  0  0  0  0  0  0
  -27.5781  -20.2882   21.9803 N   0  0  0  0  0  0  0  0  0  0  0  0
  -24.6912  -14.3735   20.2071 N   0  0  0  0  0  0  0  0  0  0  0  0
  -22.9032  -27.4737   22.9925 N   0  0  0  0  0  0  0  0  0  0  0  0
  -19.2909  -24.5565   19.7982 N   0  0  3  0  0  0  0  0  0  0  0  0
  -22.3005  -12.4715   22.1396 N   0  3  0  0  0  0  0  0  0  0  0  0
  -30.5219  -25.0207   19.3857 O   0  0  0  0  0  0  0  0  0  0  0  0
  -26.3237  -19.5497   20.1628 O   0  0  0  0  0  0  0  0  0  0  0  0
  -26.9818  -15.9249   20.9520 O   0  0  0  0  0  0  0  0  0  0  0  0
  -22.4147  -14.7306   20.4664 O   0  0  0  0  0  0  0  0  0  0  0  0
  -23.5727  -29.6701   23.3158 O   0  0  0  0  0  0  0  0  0  0  0  0
  -25.5545  -20.7404   15.1917 O   0  0  0  0  0  0  0  0  0  0  0  0
  -20.2697  -20.8928   22.4100 O   0  0  0  0  0  0  0  0  0  1  0  0
  -28.8833  -19.5985   10.9468 F   0  0  0  0  0  0  0  0  0  0  0  0
  -19.4178  -27.3295   19.6630 F   0  0  0  0  0  0  0  0  0  0  0  0
  -24.6154  -20.8160   12.5926 F   0  0  0  0  0  0  0  0  0  0  0  0
  1  2  1  0  0  0  0
  1  5  2  0  0  0  0
  2  6  2  0  0  0  0
  3 10  2  0  0  0  0
  3 18  1  0  0  0  0
  4 11  1  0  0  0  0
  4 18  2  0  0  0  0
  5 20  1  0  0  0  0
  6 22  1  0  0  0  0
  7 12  2  0  0  0  0
  7 21  1  0  0  0  0
  8  9  2  0  0  0  0
  8 24  1  0  0  0  0
  9 25  1  0  0  0  0
 10 26  1  0  0  0  0
 11 26  2  0  0  0  0
 12 27  1  0  0  0  0
 13 14  2  0  0  0  0
 13 28  1  0  0  0  0
 14 29  1  0  0  0  0
 15 23  1  0  0  0  0
 15 27  2  0  0  0  0
 16 24  2  0  0  0  0
 16 30  1  0  0  0  0
 17 29  2  0  0  0  0
 17 31  1  0  0  0  0
 18 32  1  0  0  0  0
 19 32  1  0  0  0  0
 19 33  2  0  0  0  0
 19 34  1  0  0  0  0
 20 22  2  0  0  0  0
 20 39  1  0  0  0  0
 21 23  2  0  0  0  0
 21 40  1  0  0  0  0
 22 48  1  0  0  0  0
 23 41  1  0  0  0  0
 24 73  1  0  0  0  0
 25 30  2  0  0  0  0
 25 74  1  0  0  0  0
 26 81  1  0  0  0  0
 27 82  1  0  0  0  0
 28 31  2  0  0  0  0
 28 81  1  0  0  0  0
 29 83  1  0  0  0  0
 30 84  1  0  0  0  0
 31 85  1  0  0  0  0
 32 65  2  0  0  0  0
 33 66  1  0  0  0  0
 33 69  1  0  0  0  0
 34 70  1  0  0  0  0
 34 76  2  0  0  0  0
 35 49  1  0  0  0  0
 35 71  1  0  0  0  0
 35 77  2  0  0  0  0
 36 62  1  0  0  0  0
 36 67  1  0  0  0  0
 36 78  2  0  0  0  0
 37 63  1  0  0  0  0
 37 72  1  0  0  0  0
 37 79  2  0  0  0  0
 38 68  1  0  0  0  0
 38 73  1  0  0  0  0
 38 80  2  0  0  0  0
 39 42  1  0  0  0  0
 40 49  1  0  0  0  0
 41 67  1  0  0  0  0
 42 44  1  0  0  0  0
 43 45  1  0  0  0  0
 43 46  1  0  0  0  0
 44 48  1  0  0  0  0
 45 50  1  0  0  0  0
 46 68  1  0  0  0  0
 47 50  1  0  0  0  0
 47 68  1  0  0  0  0
 48 71  1  0  0  0  0
 49 67  1  0  0  0  0
 50 66  1  0  0  0  0
 51 63  1  0  0  0  0
 52 64  1  0  0  0  0
 53 64  1  0  0  0  0
 54 64  1  0  0  0  0
 55 73  1  0  0  0  0
 56 74  1  0  0  0  0
 57 75  1  0  0  0  0
 58 59  1  0  0  0  0
 58 60  1  0  0  0  0
 59 61  1  0  0  0  0
 60 74  1  0  0  0  0
 61 82  1  0  0  0  0
 62 64  1  0  0  0  0
 62 72  1  0  0  0  0
 63 75  1  0  0  0  0
 65 66  1  0  0  0  0
M  CHG  1  75   1
M  ISO  4  38 100  61 101  73 100  82 101
M  END
> <Batch ID>
0020

> <Smiles>
CNC(C)C(=O)NC(C(=O)N1Cc2cc([101O:1][101CH2:1]CCCN(C)c3ccc([100N:0](C)[100C:0](=O)N4CCCC(n5nc(-c6ccc(Oc7ccc(F)cc7F)cc6)c(C(N)=O)c5N)C4)cc3F)ccc2CC1C(=O)NC1CCCc2ccccc21)C(C)(C)C

> <Shape>
0.160

> <Color>
0.087

> <Negative vol penalty>
0.000

$$$$

  -OEChem-04042321083D

 85 94  0     1  0  0  0  0  0999 V2000
  -20.6613  -28.1466   10.9607 C   0  0  0  0  0  0  0  0  0  0  0  0
  -21.6950  -27.8557   11.8451 C   0  0  0  0  0  0  0  0  0  0  0  0
  -23.0687   -9.8879   19.9363 C   0  0  0  0  0  0  0  0  0  0  0  0
  -23.8380   -9.8778   22.2265 C   0  0  0  0  0  0  0  0  0  0  0  0
  -19.3749  -28.3787   11.4458 C   0  0  0  0  0  0  0  0  0  0  0  0
  -21.4431  -27.7979   13.2154 C   0  0  0  0  0  0  0  0  0  0  0  0
  -23.6081  -23.7862   15.4209 C   0  0  0  0  0  0  0  0  0  0  0  0
  -29.3263  -18.6560   21.0203 C   0  0  0  0  0  0  0  0  0  0  0  0
  -31.5347  -18.4138   20.0710 C   0  0  0  0  0  0  0  0  0  0  0  0
  -29.0680  -19.7145   20.1495 C   0  0  0  0  0  0  0  0  0  0  0  0
  -31.2765  -19.4723   19.2002 C   0  0  0  0  0  0  0  0  0  0  0  0
  -22.3220   -8.7357   20.1820 C   0  0  0  0  0  0  0  0  0  0  0  0
  -23.0912   -8.7256   22.4723 C   0  0  0  0  0  0  0  0  0  0  0  0
  -24.9753  -23.8642   15.6828 C   0  0  0  0  0  0  0  0  0  0  0  0
  -19.8629   -7.9347   23.0831 C   0  0  0  0  0  0  0  0  0  0  0  0
  -19.1107   -7.8899   24.2568 C   0  0  0  0  0  0  0  0  0  0  0  0
  -24.4973  -24.4064   17.9842 C   0  0  0  0  0  0  0  0  0  0  0  0
  -20.3486   -5.9437   24.9758 C   0  0  0  0  0  0  0  0  0  0  0  0
  -23.8267  -10.4590   20.9585 C   0  0  0  0  0  0  0  0  0  0  0  0
  -24.1765  -12.9837   20.8530 C   0  0  0  0  0  0  0  0  0  0  0  0
  -19.1052  -28.3142   12.8219 C   0  0  0  0  0  0  0  0  0  0  0  0
  -22.6736  -24.0288   16.4379 C   0  0  0  0  0  0  0  0  0  0  0  0
  -20.1522  -28.0307   13.7195 C   0  0  0  0  0  0  0  0  0  0  0  0
  -23.1189  -24.3283   17.7333 C   0  0  0  0  0  0  0  0  0  0  0  0
  -30.5597  -18.0056   20.9812 C   0  0  0  0  0  0  0  0  0  0  0  0
  -30.0431  -20.1227   19.2394 C   0  0  0  0  0  0  0  0  0  0  0  0
  -22.3332   -8.1545   21.4500 C   0  0  0  0  0  0  0  0  0  0  0  0
  -25.4200  -24.1772   16.9639 C   0  0  0  0  0  0  0  0  0  0  0  0
  -20.8580   -6.9840   22.8556 C   0  0  0  0  0  0  0  0  0  0  0  0
  -19.3535   -6.8944   25.2032 C   0  0  0  0  0  0  0  0  0  0  0  0
  -21.1008   -5.9885   23.8020 C   0  0  0  0  0  0  0  0  0  0  0  0
  -24.5987  -11.6489   20.7051 C   0  0  0  0  0  0  0  0  0  0  0  0
  -25.2697  -13.7318   20.4900 C   0  0  0  0  0  0  0  0  0  0  0  0
  -28.5892  -21.9580   18.2664 C   0  0  0  0  0  0  0  0  0  0  0  0
  -22.9095  -13.5010   21.2804 C   0  0  0  0  0  0  0  0  0  0  0  0
  -20.3715  -26.1703   16.9045 C   0  0  0  0  0  0  0  0  0  0  0  0
  -19.7271  -24.3357   19.5009 C   0  0  0  0  0  0  0  0  0  0  0  0
  -20.8512  -22.0933   21.8150 C   0  0  0  0  0  0  0  0  0  0  0  0
  -30.7576  -14.7314   20.6621 C   0  0  0  0  0  0  0  0  0  0  0  0
  -17.7086  -28.6191   13.3030 C   0  0  0  0  0  0  0  0  0  0  0  0
  -21.2026  -23.9144   16.1454 C   0  0  0  0  0  0  0  0  0  0  0  0
  -22.1566  -24.5776   18.8648 C   0  0  0  0  0  0  0  0  0  0  0  0
  -17.4472  -28.1698   14.7383 C   0  0  0  0  0  0  0  0  0  0  0  0
  -29.6022  -12.3658   18.2651 C   0  0  0  0  0  0  0  0  0  0  0  0
  -18.5978  -28.5902   15.6473 C   0  0  0  0  0  0  0  0  0  0  0  0
  -28.1655  -12.0741   18.7021 C   0  0  0  0  0  0  0  0  0  0  0  0
  -29.9894  -22.5324   16.4296 C   0  0  0  0  0  0  0  0  0  0  0  0
  -30.5250  -12.5760   19.4635 C   0  0  0  0  0  0  0  0  0  0  0  0
  -30.7794  -21.7037   17.4226 C   0  0  0  0  0  0  0  0  0  0  0  0
  -28.6314  -13.3046   20.8626 C   0  0  0  0  0  0  0  0  0  0  0  0
  -19.9135  -27.9346   15.2108 C   0  0  1  0  0  0  0  0  0  0  0  0
  -28.8411  -23.0759   17.2675 C   0  0  1  0  0  0  0  0  0  0  0  0
  -20.3349  -24.6860   17.1350 C   0  0  1  0  0  0  0  0  0  0  0  0
  -27.6518  -13.1407   19.6879 C   0  0  2  0  0  0  0  0  0  0  0  0
  -20.1043  -20.8057   23.8352 C   0  0  0  0  0  0  0  0  0  0  0  0
  -19.9164  -26.8730   21.1850 C   0  0  0  0  0  0  0  0  0  0  0  0
  -20.1144  -25.4253   23.2180 C   0  0  0  0  0  0  0  0  0  0  0  0
  -18.0495  -25.3354   21.8213 C   0  0  0  0  0  0  0  0  0  0  0  0
  -21.3674  -19.4958   20.4939 C   0  0  0  0  0  0  0  0  0  0  0  0
  -30.8357  -16.8738   21.9123 C   0  0  0  0  0  0  0  0  0  0  0  0
  -27.6153  -23.4243   16.4444 C   0  0  0  0  0  0  0  0  0  1  0  0
  -20.1886  -24.3174   20.9381 C   0  0  1  0  0  0  0  0  0  0  0  0
  -20.2628  -20.7894   22.3228 C   0  0  2  0  0  0  0  0  0  0  0  0
  -19.5856  -25.4850   21.7691 C   0  0  0  0  0  0  0  0  0  0  0  0
  -25.8615  -11.5515   20.2810 N   0  0  0  0  0  0  0  0  0  0  0  0
  -26.2422  -12.8346   20.1593 N   0  0  0  0  0  0  0  0  0  0  0  0
  -29.7790  -21.2056   18.3481 N   0  0  0  0  0  0  0  0  0  0  0  0
  -20.7284  -24.4603   18.5273 N   0  0  0  0  0  0  0  0  0  0  0  0
  -29.9815  -13.6007   20.3583 N   0  0  0  0  0  0  0  0  0  0  0  0
  -25.4843  -15.0630   20.4245 N   0  0  0  0  0  0  0  0  0  0  0  0
  -21.8960  -12.5931   21.6161 N   0  0  0  0  0  0  0  0  0  0  0  0
  -19.9581  -26.5541   15.6430 N   0  0  0  0  0  0  0  0  0  0  0  0
  -19.8686  -22.9903   21.4527 N   0  0  0  0  0  0  0  0  0  0  0  0
  -30.1650  -15.6568   21.5125 N   0  0  0  0  0  0  0  0  0  0  0  0
  -21.1441  -19.6453   21.9549 N   0  3  0  0  0  0  0  0  0  0  0  0
  -27.5441  -21.8400   18.8895 O   0  0  0  0  0  0  0  0  0  0  0  0
  -22.6776  -14.7320   21.3465 O   0  0  0  0  0  0  0  0  0  0  0  0
  -20.7455  -26.9126   17.8049 O   0  0  0  0  0  0  0  0  0  0  0  0
  -18.5233  -24.2356   19.2509 O   0  0  0  0  0  0  0  0  0  0  0  0
  -22.0615  -22.2973   21.7499 O   0  0  0  0  0  0  0  0  0  0  0  0
  -31.8922  -14.9059   20.2050 O   0  0  0  0  0  0  0  0  0  0  0  0
  -21.6045   -7.0303   21.6902 O   0  0  0  0  0  0  0  0  0  0  0  0
  -26.7539  -24.2547   17.2221 O   0  0  0  0  0  0  0  0  0  1  0  0
  -18.6321   -6.8524   26.3310 F   0  0  0  0  0  0  0  0  0  0  0  0
  -22.0562   -5.0732   23.5897 F   0  0  0  0  0  0  0  0  0  0  0  0
  1  2  1  0  0  0  0
  1  5  2  0  0  0  0
  2  6  2  0  0  0  0
  3 12  2  0  0  0  0
  3 19  1  0  0  0  0
  4 13  1  0  0  0  0
  4 19  2  0  0  0  0
  5 21  1  0  0  0  0
  6 23  1  0  0  0  0
  7 14  2  0  0  0  0
  7 22  1  0  0  0  0
  8 10  2  0  0  0  0
  8 25  1  0  0  0  0
  9 11  1  0  0  0  0
  9 25  2  0  0  0  0
 10 26  1  0  0  0  0
 11 26  2  0  0  0  0
 12 27  1  0  0  0  0
 13 27  2  0  0  0  0
 14 28  1  0  0  0  0
 15 16  2  0  0  0  0
 15 29  1  0  0  0  0
 16 30  1  0  0  0  0
 17 24  1  0  0  0  0
 17 28  2  0  0  0  0
 18 30  2  0  0  0  0
 18 31  1  0  0  0  0
 19 32  1  0  0  0  0
 20 32  1  0  0  0  0
 20 33  2  0  0  0  0
 20 35  1  0  0  0  0
 21 23  2  0  0  0  0
 21 40  1  0  0  0  0
 22 24  2  0  0  0  0
 22 41  1  0  0  0  0
 23 51  1  0  0  0  0
 24 42  1  0  0  0  0
 25 60  1  0  0  0  0
 26 67  1  0  0  0  0
 27 82  1  0  0  0  0
 28 83  1  0  0  0  0
 29 31  2  0  0  0  0
 29 82  1  0  0  0  0
 30 84  1  0  0  0  0
 31 85  1  0  0  0  0
 32 65  2  0  0  0  0
 33 66  1  0  0  0  0
 33 70  1  0  0  0  0
 34 52  1  0  0  0  0
 34 67  1  0  0  0  0
 34 76  2  0  0  0  0
 35 71  1  0  0  0  0
 35 77  2  0  0  0  0
 36 53  1  0  0  0  0
 36 72  1  0  0  0  0
 36 78  2  0  0  0  0
 37 62  1  0  0  0  0
 37 68  1  0  0  0  0
 37 79  2  0  0  0  0
 38 63  1  0  0  0  0
 38 73  1  0  0  0  0
 38 80  2  0  0  0  0
 39 69  1  0  0  0  0
 39 74  1  0  0  0  0
 39 81  2  0  0  0  0
 40 43  1  0  0  0  0
 41 53  1  0  0  0  0
 42 68  1  0  0  0  0
 43 45  1  0  0  0  0
 44 46  1  0  0  0  0
 44 48  1  0  0  0  0
 45 51  1  0  0  0  0
 46 54  1  0  0  0  0
 47 49  1  0  0  0  0
 47 52  1  0  0  0  0
 48 69  1  0  0  0  0
 49 67  1  0  0  0  0
 50 54  1  0  0  0  0
 50 69  1  0  0  0  0
 51 72  1  0  0  0  0
 52 61  1  0  0  0  0
 53 68  1  0  0  0  0
 54 66  1  0  0  0  0
 55 63  1  0  0  0  0
 56 64  1  0  0  0  0
 57 64  1  0  0  0  0
 58 64  1  0  0  0  0
 59 75  1  0  0  0  0
 60 74  1  0  0  0  0
 61 83  1  0  0  0  0
 62 64  1  0  0  0  0
 62 73  1  0  0  0  0
 63 75  1  0  0  0  0
 65 66  1  0  0  0  0
M  CHG  1  75   1
M  ISO  4  39 100  61 101  74 100  83 101
M  END
> <Batch ID>
0020

> <Smiles>
CNC(C)C(=O)NC(C(=O)N1Cc2cc([101O:1][101CH2:1]C3CCN(c4ccc(C[100NH:0][100C:0](=O)N5CCCC(n6nc(-c7ccc(Oc8ccc(F)cc8F)cc7)c(C(N)=O)c6N)C5)cc4)C3=O)ccc2CC1C(=O)NC1CCCc2ccccc21)C(C)(C)C

> <Shape>
0.224

> <Color>
0.192

> <Negative vol penalty>
0.000

$$$$

  -OEChem-04042321083D

 85 94  0     1  0  0  0  0  0999 V2000
  -19.9190  -27.3796   25.9308 C   0  0  0  0  0  0  0  0  0  0  0  0
  -21.2634  -27.0248   25.9790 C   0  0  0  0  0  0  0  0  0  0  0  0
  -23.1759   -9.8181   21.4044 C   0  0  0  0  0  0  0  0  0  0  0  0
  -23.8423  -10.7970   23.5103 C   0  0  0  0  0  0  0  0  0  0  0  0
  -19.2636  -27.4580   24.7027 C   0  0  0  0  0  0  0  0  0  0  0  0
  -21.9528  -26.7472   24.7992 C   0  0  0  0  0  0  0  0  0  0  0  0
  -28.4678  -27.3129   21.8749 C   0  0  0  0  0  0  0  0  0  0  0  0
  -29.4326  -19.6527   19.9230 C   0  0  0  0  0  0  0  0  0  0  0  0
  -29.3020  -18.3814   20.4818 C   0  0  0  0  0  0  0  0  0  0  0  0
  -22.4533   -8.8400   22.0878 C   0  0  0  0  0  0  0  0  0  0  0  0
  -23.1197   -9.8190   24.1936 C   0  0  0  0  0  0  0  0  0  0  0  0
  -29.4273  -26.5384   21.2244 C   0  0  0  0  0  0  0  0  0  0  0  0
  -19.8922   -9.2084   24.9876 C   0  0  0  0  0  0  0  0  0  0  0  0
  -19.0900   -9.6220   26.0511 C   0  0  0  0  0  0  0  0  0  0  0  0
  -28.2128  -26.7830   19.1545 C   0  0  0  0  0  0  0  0  0  0  0  0
  -31.0076  -17.5490   18.9868 C   0  0  0  0  0  0  0  0  0  0  0  0
  -20.3516   -8.2100   27.5518 C   0  0  0  0  0  0  0  0  0  0  0  0
  -23.8704  -10.7965   22.1157 C   0  0  0  0  0  0  0  0  0  0  0  0
  -24.1499  -13.0613   20.9754 C   0  0  0  0  0  0  0  0  0  0  0  0
  -19.9478  -27.1906   23.5065 C   0  0  0  0  0  0  0  0  0  0  0  0
  -27.3659  -27.8200   21.1712 C   0  0  0  0  0  0  0  0  0  0  0  0
  -21.3056  -26.8208   23.5541 C   0  0  0  0  0  0  0  0  0  0  0  0
  -27.2420  -27.5658   19.7978 C   0  0  0  0  0  0  0  0  0  0  0  0
  -30.3506  -19.8721   18.8959 C   0  0  0  0  0  0  0  0  0  0  0  0
  -30.0895  -17.3295   20.0138 C   0  0  0  0  0  0  0  0  0  0  0  0
  -22.4252   -8.8405   23.4823 C   0  0  0  0  0  0  0  0  0  0  0  0
  -29.2984  -26.2709   19.8646 C   0  0  0  0  0  0  0  0  0  0  0  0
  -20.9240   -8.2955   25.2062 C   0  0  0  0  0  0  0  0  0  0  0  0
  -19.3197   -9.1229   27.3332 C   0  0  0  0  0  0  0  0  0  0  0  0
  -31.1381  -18.8203   18.4279 C   0  0  0  0  0  0  0  0  0  0  0  0
  -21.1537   -7.7964   26.4883 C   0  0  0  0  0  0  0  0  0  0  0  0
  -24.6175  -11.8068   21.4104 C   0  0  0  0  0  0  0  0  0  0  0  0
  -25.2356  -13.6393   20.3641 C   0  0  0  0  0  0  0  0  0  0  0  0
  -30.2649  -22.4049   18.9787 C   0  0  0  0  0  0  0  0  0  0  0  0
  -22.8504  -13.6515   21.1118 C   0  0  0  0  0  0  0  0  0  0  0  0
  -24.2154  -27.4450   21.3640 C   0  0  0  0  0  0  0  0  0  0  0  0
  -24.1922  -29.7647   19.0968 C   0  0  0  0  0  0  0  0  0  0  0  0
  -25.8490  -31.3823   16.5897 C   0  0  0  0  0  0  0  0  0  0  0  0
  -30.6607  -14.8858   20.2338 C   0  0  0  0  0  0  0  0  0  0  0  0
  -19.1848  -27.2423   22.2066 C   0  0  0  0  0  0  0  0  0  0  0  0
  -26.3537  -28.6761   21.8818 C   0  0  0  0  0  0  0  0  0  0  0  0
  -26.0885  -28.1039   18.9926 C   0  0  0  0  0  0  0  0  0  0  0  0
  -20.0840  -27.2975   20.9743 C   0  0  0  0  0  0  0  0  0  0  0  0
  -29.7069  -11.6693   19.0417 C   0  0  0  0  0  0  0  0  0  0  0  0
  -21.1986  -26.2615   21.0799 C   0  0  0  0  0  0  0  0  0  0  0  0
  -28.2593  -11.5215   19.5159 C   0  0  0  0  0  0  0  0  0  0  0  0
  -30.5420  -22.8086   16.6497 C   0  0  0  0  0  0  0  0  0  0  0  0
  -30.5665  -12.4084   20.0657 C   0  0  0  0  0  0  0  0  0  0  0  0
  -30.9272  -21.3760   16.9597 C   0  0  0  0  0  0  0  0  0  0  0  0
  -28.5869  -13.5579   20.9763 C   0  0  0  0  0  0  0  0  0  0  0  0
  -22.0940  -26.5363   22.2941 C   0  0  1  0  0  0  0  0  0  0  0  0
  -30.6597  -23.4994   18.0005 C   0  0  1  0  0  0  0  0  0  0  0  0
  -25.0012  -28.7119   21.1768 C   0  0  1  0  0  0  0  0  0  0  0  0
  -27.6672  -12.8768   19.9497 C   0  0  2  0  0  0  0  0  0  0  0  0
  -25.5579  -33.2101   14.8951 C   0  0  0  0  0  0  0  0  0  0  0  0
  -22.4732  -27.9074   17.3923 C   0  0  0  0  0  0  0  0  0  0  0  0
  -23.0086  -29.3429   15.4122 C   0  0  0  0  0  0  0  0  0  0  0  0
  -21.7717  -30.3075   17.3518 C   0  0  0  0  0  0  0  0  0  0  0  0
  -28.0698  -32.9631   17.7421 C   0  0  0  0  0  0  0  0  0  0  0  0
  -29.7920  -24.7387   18.1140 C   0  0  0  0  0  0  0  0  0  1  0  0
  -24.2341  -29.7853   17.5879 C   0  0  1  0  0  0  0  0  0  0  0  0
  -26.0362  -32.8597   16.2955 C   0  0  2  0  0  0  0  0  0  0  0  0
  -22.8927  -29.3239   16.9514 C   0  0  0  0  0  0  0  0  0  0  0  0
  -25.9003  -11.5992   21.1015 N   0  0  0  0  0  0  0  0  0  0  0  0
  -26.2480  -12.7310   20.4658 N   0  0  0  0  0  0  0  0  0  0  0  0
  -30.4820  -21.1739   18.3259 N   0  0  0  0  0  0  0  0  0  0  0  0
  -25.1216  -28.9304   19.7339 N   0  0  0  0  0  0  0  0  0  0  0  0
  -29.9455  -13.6849   20.4260 N   0  0  0  0  0  0  0  0  0  0  0  0
  -25.4135  -14.8307   19.7547 N   0  0  0  0  0  0  0  0  0  0  0  0
  -21.8501  -12.9207   21.7673 N   0  0  0  0  0  0  0  0  0  0  0  0
  -29.9567  -16.0382   20.5817 N   0  0  0  0  0  0  0  0  0  0  0  0
  -23.0081  -27.6224   22.0125 N   0  0  0  0  0  0  0  0  0  0  0  0
  -24.6425  -31.1338   17.2092 N   0  0  0  0  0  0  0  0  0  0  0  0
  -27.4749  -33.2320   16.4076 N   0  3  0  0  0  0  0  0  0  0  0  0
  -29.8980  -22.6300   20.1229 O   0  0  0  0  0  0  0  0  0  0  0  0
  -22.5795  -14.7864   20.6512 O   0  0  0  0  0  0  0  0  0  0  0  0
  -24.6700  -26.3852   20.9495 O   0  0  0  0  0  0  0  0  0  0  0  0
  -23.3700  -30.4686   19.6885 O   0  0  0  0  0  0  0  0  0  0  0  0
  -26.6875  -30.5331   16.2958 O   0  0  0  0  0  0  0  0  0  0  0  0
  -31.8029  -14.8934   19.7675 O   0  0  0  0  0  0  0  0  0  0  0  0
  -21.7200   -7.8864   24.1495 O   0  0  0  0  0  0  0  0  0  0  0  0
  -30.2332  -25.5147   19.2274 O   0  0  0  0  0  0  0  0  0  1  0  0
  -18.5503   -9.5213   28.3547 F   0  0  0  0  0  0  0  0  0  0  0  0
  -32.0234  -19.0194   17.4407 F   0  0  0  0  0  0  0  0  0  0  0  0
  -22.1442   -6.9201   26.7046 F   0  0  0  0  0  0  0  0  0  0  0  0
  1  2  1  0  0  0  0
  1  5  2  0  0  0  0
  2  6  2  0  0  0  0
  3 10  2  0  0  0  0
  3 18  1  0  0  0  0
  4 11  1  0  0  0  0
  4 18  2  0  0  0  0
  5 20  1  0  0  0  0
  6 22  1  0  0  0  0
  7 12  2  0  0  0  0
  7 21  1  0  0  0  0
  8  9  2  0  0  0  0
  8 24  1  0  0  0  0
  9 25  1  0  0  0  0
 10 26  1  0  0  0  0
 11 26  2  0  0  0  0
 12 27  1  0  0  0  0
 13 14  2  0  0  0  0
 13 28  1  0  0  0  0
 14 29  1  0  0  0  0
 15 23  1  0  0  0  0
 15 27  2  0  0  0  0
 16 25  2  0  0  0  0
 16 30  1  0  0  0  0
 17 29  2  0  0  0  0
 17 31  1  0  0  0  0
 18 32  1  0  0  0  0
 19 32  1  0  0  0  0
 19 33  2  0  0  0  0
 19 35  1  0  0  0  0
 20 22  2  0  0  0  0
 20 40  1  0  0  0  0
 21 23  2  0  0  0  0
 21 41  1  0  0  0  0
 22 51  1  0  0  0  0
 23 42  1  0  0  0  0
 24 30  2  0  0  0  0
 24 66  1  0  0  0  0
 25 71  1  0  0  0  0
 26 81  1  0  0  0  0
 27 82  1  0  0  0  0
 28 31  2  0  0  0  0
 28 81  1  0  0  0  0
 29 83  1  0  0  0  0
 30 84  1  0  0  0  0
 31 85  1  0  0  0  0
 32 64  2  0  0  0  0
 33 65  1  0  0  0  0
 33 69  1  0  0  0  0
 34 52  1  0  0  0  0
 34 66  1  0  0  0  0
 34 75  2  0  0  0  0
 35 70  1  0  0  0  0
 35 76  2  0  0  0  0
 36 53  1  0  0  0  0
 36 72  1  0  0  0  0
 36 77  2  0  0  0  0
 37 61  1  0  0  0  0
 37 67  1  0  0  0  0
 37 78  2  0  0  0  0
 38 62  1  0  0  0  0
 38 73  1  0  0  0  0
 38 79  2  0  0  0  0
 39 68  1  0  0  0  0
 39 71  1  0  0  0  0
 39 80  2  0  0  0  0
 40 43  1  0  0  0  0
 41 53  1  0  0  0  0
 42 67  1  0  0  0  0
 43 45  1  0  0  0  0
 44 46  1  0  0  0  0
 44 48  1  0  0  0  0
 45 51  1  0  0  0  0
 46 54  1  0  0  0  0
 47 49  1  0  0  0  0
 47 52  1  0  0  0  0
 48 68  1  0  0  0  0
 49 66  1  0  0  0  0
 50 54  1  0  0  0  0
 50 68  1  0  0  0  0
 51 72  1  0  0  0  0
 52 60  1  0  0  0  0
 53 67  1  0  0  0  0
 54 65  1  0  0  0  0
 55 62  1  0  0  0  0
 56 63  1  0  0  0  0
 57 63  1  0  0  0  0
 58 63  1  0  0  0  0
 59 74  1  0  0  0  0
 60 82  1  0  0  0  0
 61 63  1  0  0  0  0
 61 73  1  0  0  0  0
 62 74  1  0  0  0  0
 64 65  1  0  0  0  0
M  CHG  1  74   1
M  ISO  4  39 100  60 101  71 100  82 101
M  END
> <Batch ID>
0020

> <Smiles>
CNC(C)C(=O)NC(C(=O)N1Cc2cc([101O:1][101CH2:1]C3CCN(c4ccc([100NH:0][100C:0](=O)N5CCCC(n6nc(-c7ccc(Oc8ccc(F)cc8F)cc7)c(C(N)=O)c6N)C5)cc4F)C3=O)ccc2CC1C(=O)NC1CCCc2ccccc21)C(C)(C)C

> <Shape>
0.287

> <Color>
0.171

> <Negative vol penalty>
0.000

$$$$

  -OEChem-04042321083D

 83 91  0     1  0  0  0  0  0999 V2000
  -32.8735  -33.9195   19.2329 C   0  0  0  0  0  0  0  0  0  0  0  0
  -33.1366  -32.9024   20.1449 C   0  0  0  0  0  0  0  0  0  0  0  0
  -23.0906   -9.8935   19.9052 C   0  0  0  0  0  0  0  0  0  0  0  0
  -23.8691   -9.8451   22.1918 C   0  0  0  0  0  0  0  0  0  0  0  0
  -31.7076  -33.8850   18.4691 C   0  0  0  0  0  0  0  0  0  0  0  0
  -32.2333  -31.8506   20.2943 C   0  0  0  0  0  0  0  0  0  0  0  0
  -33.5651  -25.9999   21.5194 C   0  0  0  0  0  0  0  0  0  0  0  0
  -29.8297  -17.4714   23.2622 C   0  0  0  0  0  0  0  0  0  0  0  0
  -32.0189  -16.6664   22.6324 C   0  0  0  0  0  0  0  0  0  0  0  0
  -22.3624   -8.7250   20.1284 C   0  0  0  0  0  0  0  0  0  0  0  0
  -23.1409   -8.6765   22.4150 C   0  0  0  0  0  0  0  0  0  0  0  0
  -33.5571  -25.2642   22.7036 C   0  0  0  0  0  0  0  0  0  0  0  0
  -19.4357   -7.8526   21.5798 C   0  0  0  0  0  0  0  0  0  0  0  0
  -18.1256   -7.8043   21.1037 C   0  0  0  0  0  0  0  0  0  0  0  0
  -30.4140  -18.3368   24.1870 C   0  0  0  0  0  0  0  0  0  0  0  0
  -32.6032  -17.5318   23.5573 C   0  0  0  0  0  0  0  0  0  0  0  0
  -31.3427  -24.4615   22.1829 C   0  0  0  0  0  0  0  0  0  0  0  0
  -18.6972   -5.9061   19.7227 C   0  0  0  0  0  0  0  0  0  0  0  0
  -23.8440  -10.4536   20.9370 C   0  0  0  0  0  0  0  0  0  0  0  0
  -24.1551  -12.9850   20.8856 C   0  0  0  0  0  0  0  0  0  0  0  0
  -30.7943  -32.8273   18.6023 C   0  0  0  0  0  0  0  0  0  0  0  0
  -32.4558  -25.9804   20.6619 C   0  0  0  0  0  0  0  0  0  0  0  0
  -31.0534  -31.8026   19.5325 C   0  0  0  0  0  0  0  0  0  0  0  0
  -31.3402  -25.1957   20.9871 C   0  0  0  0  0  0  0  0  0  0  0  0
  -30.6322  -16.6361   22.4849 C   0  0  0  0  0  0  0  0  0  0  0  0
  -22.3875   -8.1165   21.3833 C   0  0  0  0  0  0  0  0  0  0  0  0
  -32.4446  -24.4971   23.0370 C   0  0  0  0  0  0  0  0  0  0  0  0
  -20.3767   -6.9276   21.1273 C   0  0  0  0  0  0  0  0  0  0  0  0
  -17.7563   -6.8311   20.1752 C   0  0  0  0  0  0  0  0  0  0  0  0
  -20.0074   -5.9544   20.1988 C   0  0  0  0  0  0  0  0  0  0  0  0
  -31.8007  -18.3670   24.3346 C   0  0  0  0  0  0  0  0  0  0  0  0
  -24.5969  -11.6604   20.7069 C   0  0  0  0  0  0  0  0  0  0  0  0
  -25.2354  -13.7575   20.5351 C   0  0  0  0  0  0  0  0  0  0  0  0
  -22.8821  -13.4736   21.3289 C   0  0  0  0  0  0  0  0  0  0  0  0
  -30.4095  -28.1646   19.5915 C   0  0  0  0  0  0  0  0  0  0  0  0
  -29.3422  -25.7050   17.7657 C   0  0  0  0  0  0  0  0  0  0  0  0
  -29.0537  -22.3325   17.3303 C   0  0  0  0  0  0  0  0  0  0  0  0
  -30.6901  -14.8632   20.6962 C   0  0  0  0  0  0  0  0  0  0  0  0
  -29.5246  -32.8577   17.7888 C   0  0  0  0  0  0  0  0  0  0  0  0
  -32.4908  -26.7585   19.3750 C   0  0  0  0  0  0  0  0  0  0  0  0
  -30.1319  -25.1249   20.0906 C   0  0  0  0  0  0  0  0  0  0  0  0
  -28.8014  -31.5144   17.7380 C   0  0  0  0  0  0  0  0  0  0  0  0
  -29.5848  -12.5038   18.2695 C   0  0  0  0  0  0  0  0  0  0  0  0
  -28.7135  -30.9023   19.1325 C   0  0  0  0  0  0  0  0  0  0  0  0
  -28.1522  -12.1830   18.7020 C   0  0  0  0  0  0  0  0  0  0  0  0
  -30.5070  -12.7096   19.4699 C   0  0  0  0  0  0  0  0  0  0  0  0
  -28.6030  -13.3720   20.8860 C   0  0  0  0  0  0  0  0  0  0  0  0
  -30.1100  -30.6321   19.7054 C   0  0  1  0  0  0  0  0  0  0  0  0
  -31.1015  -27.0711   18.8279 C   0  0  1  0  0  0  0  0  0  0  0  0
  -27.6227  -13.2203   19.7115 C   0  0  2  0  0  0  0  0  0  0  0  0
  -28.0965  -20.6234   15.7618 C   0  0  0  0  0  0  0  0  0  0  0  0
  -26.5495  -26.2713   18.8567 C   0  0  0  0  0  0  0  0  0  0  0  0
  -25.8457  -24.0144   18.0326 C   0  0  0  0  0  0  0  0  0  0  0  0
  -26.6278  -25.7434   16.4135 C   0  0  0  0  0  0  0  0  0  0  0  0
  -31.7228  -21.1842   16.7677 C   0  0  0  0  0  0  0  0  0  0  0  0
  -33.4642  -22.0169   25.4530 C   0  0  0  0  0  0  0  0  0  0  0  0
  -33.6906  -23.3034   24.6737 C   0  0  0  0  0  0  0  0  0  1  0  0
  -32.8218  -20.9450   24.5901 C   0  0  0  0  0  0  0  0  0  0  0  0
  -28.3064  -24.6197   17.9339 C   0  0  1  0  0  0  0  0  0  0  0  0
  -29.3225  -21.4454   16.1281 C   0  0  2  0  0  0  0  0  0  0  0  0
  -26.8542  -25.1649   17.8272 C   0  0  0  0  0  0  0  0  0  0  0  0
  -25.8593  -11.5915   20.2761 N   0  0  0  0  0  0  0  0  0  0  0  0
  -26.2200  -12.8826   20.1811 N   0  0  0  0  0  0  0  0  0  0  0  0
  -30.2117  -25.9083   18.8467 N   0  0  0  0  0  0  0  0  0  0  0  0
  -29.9431  -13.7086   20.3804 N   0  0  0  0  0  0  0  0  0  0  0  0
  -25.4295  -15.0929   20.4980 N   0  0  0  0  0  0  0  0  0  0  0  0
  -21.8838  -12.5432   21.6483 N   0  0  0  0  0  0  0  0  0  0  0  0
  -30.0387  -15.7570   21.5454 N   0  0  0  0  0  0  0  0  0  0  0  0
  -30.6743  -29.4357   19.1183 N   0  0  0  0  0  0  0  0  0  0  0  0
  -28.6315  -23.5897   16.9532 N   0  0  0  0  0  0  0  0  0  0  0  0
  -30.4466  -20.5101   16.4155 N   0  3  0  0  0  0  0  0  0  0  0  0
  -22.6319  -14.6992   21.4229 O   0  0  0  0  0  0  0  0  0  0  0  0
  -29.6876  -27.8765   20.5388 O   0  0  0  0  0  0  0  0  0  0  0  0
  -29.3830  -26.3438   16.7113 O   0  0  0  0  0  0  0  0  0  0  0  0
  -29.1999  -21.9473   18.4883 O   0  0  0  0  0  0  0  0  0  0  0  0
  -31.8133  -15.0585   20.2246 O   0  0  0  0  0  0  0  0  0  0  0  0
  -31.5427  -19.7284   26.5288 O   0  0  0  0  0  0  0  0  0  0  0  0
  -33.8361  -18.9166   25.8750 O   0  0  0  0  0  0  0  0  0  0  0  0
  -21.6769   -6.9763   21.6014 O   0  0  0  0  0  0  0  0  0  0  0  0
  -32.4339  -23.7786   24.1926 O   0  0  0  0  0  0  0  0  0  1  0  0
  -16.4977   -6.7840   19.7193 F   0  0  0  0  0  0  0  0  0  0  0  0
  -20.9067   -5.0623   19.7613 F   0  0  0  0  0  0  0  0  0  0  0  0
  -32.5413  -19.4638   25.5072 S   0  0  0  0  0  0  0  0  0  0  0  0
  1  2  1  0  0  0  0
  1  5  2  0  0  0  0
  2  6  2  0  0  0  0
  3 10  2  0  0  0  0
  3 19  1  0  0  0  0
  4 11  1  0  0  0  0
  4 19  2  0  0  0  0
  5 21  1  0  0  0  0
  6 23  1  0  0  0  0
  7 12  2  0  0  0  0
  7 22  1  0  0  0  0
  8 15  2  0  0  0  0
  8 25  1  0  0  0  0
  9 16  1  0  0  0  0
  9 25  2  0  0  0  0
 10 26  1  0  0  0  0
 11 26  2  0  0  0  0
 12 27  1  0  0  0  0
 13 14  2  0  0  0  0
 13 28  1  0  0  0  0
 14 29  1  0  0  0  0
 15 31  1  0  0  0  0
 16 31  2  0  0  0  0
 17 24  1  0  0  0  0
 17 27  2  0  0  0  0
 18 29  2  0  0  0  0
 18 30  1  0  0  0  0
 19 32  1  0  0  0  0
 20 32  1  0  0  0  0
 20 33  2  0  0  0  0
 20 34  1  0  0  0  0
 21 23  2  0  0  0  0
 21 39  1  0  0  0  0
 22 24  2  0  0  0  0
 22 40  1  0  0  0  0
 23 48  1  0  0  0  0
 24 41  1  0  0  0  0
 25 68  1  0  0  0  0
 26 79  1  0  0  0  0
 27 80  1  0  0  0  0
 28 30  2  0  0  0  0
 28 79  1  0  0  0  0
 29 81  1  0  0  0  0
 30 82  1  0  0  0  0
 31 83  1  0  0  0  0
 32 62  2  0  0  0  0
 33 63  1  0  0  0  0
 33 66  1  0  0  0  0
 34 67  1  0  0  0  0
 34 72  2  0  0  0  0
 35 49  1  0  0  0  0
 35 69  1  0  0  0  0
 35 73  2  0  0  0  0
 36 59  1  0  0  0  0
 36 64  1  0  0  0  0
 36 74  2  0  0  0  0
 37 60  1  0  0  0  0
 37 70  1  0  0  0  0
 37 75  2  0  0  0  0
 38 65  1  0  0  0  0
 38 68  1  0  0  0  0
 38 76  2  0  0  0  0
 39 42  1  0  0  0  0
 40 49  1  0  0  0  0
 41 64  1  0  0  0  0
 42 44  1  0  0  0  0
 43 45  1  0  0  0  0
 43 46  1  0  0  0  0
 44 48  1  0  0  0  0
 45 50  1  0  0  0  0
 46 65  1  0  0  0  0
 47 50  1  0  0  0  0
 47 65  1  0  0  0  0
 48 69  1  0  0  0  0
 49 64  1  0  0  0  0
 50 63  1  0  0  0  0
 51 60  1  0  0  0  0
 52 61  1  0  0  0  0
 53 61  1  0  0  0  0
 54 61  1  0  0  0  0
 55 71  1  0  0  0  0
 56 57  1  0  0  0  0
 56 58  1  0  0  0  0
 57 80  1  0  0  0  0
 58 83  1  0  0  0  0
 59 61  1  0  0  0  0
 59 70  1  0  0  0  0
 60 71  1  0  0  0  0
 62 63  1  0  0  0  0
 77 83  2  0  0  0  0
 78 83  2  0  0  0  0
M  CHG  1  71   1
M  ISO  4  38 100  57 101  68 100  80 101
M  END
> <Batch ID>
0020

> <Smiles>
CNC(C)C(=O)NC(C(=O)N1Cc2cc([101O:1][101CH2:1]CCS(=O)(=O)c3ccc([100NH:0][100C:0](=O)N4CCCC(n5nc(-c6ccc(Oc7ccc(F)cc7F)cc6)c(C(N)=O)c5N)C4)cc3)ccc2CC1C(=O)NC1CCCc2ccccc21)C(C)(C)C

> <Shape>
0.213

> <Color>
0.198

> <Negative vol penalty>
0.000

$$$$

  -OEChem-04042321083D

 90100  0     1  0  0  0  0  0999 V2000
  -23.3758  -17.0440   23.2171 C   0  0  0  0  0  0  0  0  0  0  0  0
  -24.3179  -18.0543   23.0522 C   0  0  0  0  0  0  0  0  0  0  0  0
  -33.2828  -26.5229   22.5143 C   0  0  0  0  0  0  0  0  0  0  0  0
  -32.5761  -26.9779   23.6275 C   0  0  0  0  0  0  0  0  0  0  0  0
  -24.0546   -9.7674   21.8287 C   0  0  0  0  0  0  0  0  0  0  0  0
  -24.4239  -11.0804   23.8229 C   0  0  0  0  0  0  0  0  0  0  0  0
  -22.0646  -17.2377   22.7843 C   0  0  0  0  0  0  0  0  0  0  0  0
  -23.9496  -19.2585   22.4534 C   0  0  0  0  0  0  0  0  0  0  0  0
  -30.6116  -20.6212   19.4127 C   0  0  0  0  0  0  0  0  0  0  0  0
  -25.7444  -23.2911   24.9358 C   0  0  0  0  0  0  0  0  0  0  0  0
  -32.6072  -25.8940   21.4684 C   0  0  0  0  0  0  0  0  0  0  0  0
  -31.1938  -26.8038   23.6949 C   0  0  0  0  0  0  0  0  0  0  0  0
  -30.4671  -19.2493   19.6300 C   0  0  0  0  0  0  0  0  0  0  0  0
  -23.5762   -8.7155   22.6098 C   0  0  0  0  0  0  0  0  0  0  0  0
  -23.9454  -10.0285   24.6041 C   0  0  0  0  0  0  0  0  0  0  0  0
  -27.0869  -23.6131   24.7410 C   0  0  0  0  0  0  0  0  0  0  0  0
  -20.7121   -7.9073   24.2152 C   0  0  0  0  0  0  0  0  0  0  0  0
  -19.5457   -7.2673   23.7963 C   0  0  0  0  0  0  0  0  0  0  0  0
  -26.4416  -25.3285   23.1725 C   0  0  0  0  0  0  0  0  0  0  0  0
  -20.7498   -5.1790   23.6342 C   0  0  0  0  0  0  0  0  0  0  0  0
  -24.4786  -10.9498   22.4352 C   0  0  0  0  0  0  0  0  0  0  0  0
  -24.2256  -13.0917   21.0729 C   0  0  0  0  0  0  0  0  0  0  0  0
  -21.6777  -18.4486   22.1887 C   0  0  0  0  0  0  0  0  0  0  0  0
  -24.7394  -23.9792   24.2410 C   0  0  0  0  0  0  0  0  0  0  0  0
  -22.6324  -19.4682   22.0111 C   0  0  0  0  0  0  0  0  0  0  0  0
  -29.5387  -21.4482   19.7012 C   0  0  0  0  0  0  0  0  0  0  0  0
  -25.0870  -25.0150   23.3622 C   0  0  0  0  0  0  0  0  0  0  0  0
  -28.3398  -20.9262   20.2043 C   0  0  0  0  0  0  0  0  0  0  0  0
  -31.2249  -25.7200   21.5359 C   0  0  0  0  0  0  0  0  0  0  0  0
  -30.5182  -26.1749   22.6491 C   0  0  0  0  0  0  0  0  0  0  0  0
  -29.2667  -18.7270   20.1376 C   0  0  0  0  0  0  0  0  0  0  0  0
  -23.5215   -8.8460   23.9975 C   0  0  0  0  0  0  0  0  0  0  0  0
  -27.4358  -24.6300   23.8571 C   0  0  0  0  0  0  0  0  0  0  0  0
  -21.8975   -7.1832   24.3434 C   0  0  0  0  0  0  0  0  0  0  0  0
  -19.5646   -5.9031   23.5059 C   0  0  0  0  0  0  0  0  0  0  0  0
  -21.9163   -5.8190   24.0529 C   0  0  0  0  0  0  0  0  0  0  0  0
  -28.1925  -19.5688   20.4343 C   0  0  0  0  0  0  0  0  0  0  0  0
  -24.9735  -12.0365   21.6289 C   0  0  0  0  0  0  0  0  0  0  0  0
  -25.1515  -13.8523   20.4016 C   0  0  0  0  0  0  0  0  0  0  0  0
  -22.8196  -13.3603   21.1558 C   0  0  0  0  0  0  0  0  0  0  0  0
  -22.5020  -23.1587   22.1376 C   0  0  0  0  0  0  0  0  0  0  0  0
  -21.5624  -26.2396   22.5218 C   0  0  0  0  0  0  0  0  0  0  0  0
  -22.3892  -29.4330   23.3965 C   0  0  0  0  0  0  0  0  0  0  0  0
  -30.1171  -16.3558   20.1212 C   0  0  0  0  0  0  0  0  0  0  0  0
  -20.2604  -18.5940   21.6940 C   0  0  0  0  0  0  0  0  0  0  0  0
  -23.2945  -23.6378   24.4824 C   0  0  0  0  0  0  0  0  0  0  0  0
  -27.3530  -22.0186   20.4764 C   0  0  0  0  0  0  0  0  0  0  0  0
  -24.0450  -25.7978   22.6073 C   0  0  0  0  0  0  0  0  0  0  0  0
  -19.8600  -20.0392   21.4090 C   0  0  0  0  0  0  0  0  0  0  0  0
  -27.9412  -23.1668   19.6383 C   0  0  0  0  0  0  0  0  0  0  0  0
  -29.9909  -12.9030   19.2612 C   0  0  0  0  0  0  0  0  0  0  0  0
  -20.9475  -20.7461   20.6062 C   0  0  0  0  0  0  0  0  0  0  0  0
  -28.6128  -12.4566   19.7548 C   0  0  0  0  0  0  0  0  0  0  0  0
  -30.6266  -13.9250   20.2021 C   0  0  0  0  0  0  0  0  0  0  0  0
  -28.4108  -14.6449   21.0028 C   0  0  0  0  0  0  0  0  0  0  0  0
  -22.2653  -20.7978   21.3886 C   0  0  1  0  0  0  0  0  0  0  0  0
  -29.4625  -22.9384   19.5824 C   0  0  1  0  0  0  0  0  0  0  0  0
  -22.3814  -24.0584   23.3349 C   0  0  1  0  0  0  0  0  0  0  0  0
  -27.7029  -13.6642   20.0538 C   0  0  2  0  0  0  0  0  0  0  0  0
  -21.4198  -31.7409   23.5727 C   0  0  0  0  0  0  0  0  0  0  0  0
  -21.7204  -26.5348   19.4890 C   0  0  0  0  0  0  0  0  0  0  0  0
  -21.6835  -29.0189   19.7987 C   0  0  0  0  0  0  0  0  0  0  0  0
  -19.7412  -27.6420   20.5433 C   0  0  0  0  0  0  0  0  0  0  0  0
  -22.9005  -29.5512   26.3092 C   0  0  0  0  0  0  0  0  0  0  0  0
  -30.5224  -25.0450   20.4038 C   0  0  0  0  0  0  0  0  0  0  0  0
  -29.0312  -25.9985   22.7445 C   0  0  0  0  0  0  0  0  0  1  0  0
  -21.9004  -27.5514   21.8555 C   0  0  1  0  0  0  0  0  0  0  0  0
  -21.7038  -30.4383   24.3043 C   0  0  2  0  0  0  0  0  0  0  0  0
  -21.2813  -27.6709   20.4342 C   0  0  0  0  0  0  0  0  0  0  0  0
  -26.2742  -12.1163   21.3361 N   0  0  0  0  0  0  0  0  0  0  0  0
  -26.3509  -13.2306   20.5887 N   0  0  0  0  0  0  0  0  0  0  0  0
  -22.6463  -25.4223   22.8726 N   0  0  0  0  0  0  0  0  0  0  0  0
  -29.7091  -15.0423   20.4360 N   0  0  0  0  0  0  0  0  0  0  0  0
  -25.0485  -14.9856   19.6754 N   0  0  0  0  0  0  0  0  0  0  0  0
  -22.0126  -12.4771   21.8859 N   0  0  0  0  0  0  0  0  0  0  0  0
  -29.1492  -17.3319   20.3555 N   0  0  0  0  0  0  0  0  0  0  0  0
  -22.2131  -21.8328   22.3987 N   0  0  0  0  0  0  0  0  0  0  0  0
  -21.4807  -28.5989   22.7801 N   0  0  0  0  0  0  0  0  0  0  0  0
  -30.1125  -23.6484   20.7141 N   0  3  0  0  0  0  0  0  0  0  0  0
  -22.5620  -30.7398   25.4847 N   0  3  0  0  0  0  0  0  0  0  0  0
  -22.2920  -14.3450   20.5854 O   0  0  0  0  0  0  0  0  0  0  0  0
  -22.8312  -23.6325   21.0565 O   0  0  0  0  0  0  0  0  0  0  0  0
  -20.3806  -25.9539   22.7301 O   0  0  0  0  0  0  0  0  0  0  0  0
  -23.6084  -29.3942   23.2462 O   0  0  0  0  0  0  0  0  0  0  0  0
  -31.2325  -16.5938   19.6510 O   0  0  0  0  0  0  0  0  0  0  0  0
  -23.0545   -7.8199   24.7600 O   0  0  0  0  0  0  0  0  0  0  0  0
  -28.7454  -24.9458   23.6646 O   0  0  0  0  0  0  0  0  0  1  0  0
  -18.4440   -5.2883   23.1052 F   0  0  0  0  0  0  0  0  0  0  0  0
  -23.0517   -5.1179   24.1754 F   0  0  0  0  0  0  0  0  0  0  0  0
  -27.0474  -19.0818   20.9302 F   0  0  0  0  0  0  0  0  0  0  0  0
  1  2  1  0  0  0  0
  1  7  2  0  0  0  0
  2  8  2  0  0  0  0
  3  4  1  0  0  0  0
  3 11  2  0  0  0  0
  4 12  2  0  0  0  0
  5 14  2  0  0  0  0
  5 21  1  0  0  0  0
  6 15  1  0  0  0  0
  6 21  2  0  0  0  0
  7 23  1  0  0  0  0
  8 25  1  0  0  0  0
  9 13  1  0  0  0  0
  9 26  2  0  0  0  0
 10 16  2  0  0  0  0
 10 24  1  0  0  0  0
 11 29  1  0  0  0  0
 12 30  1  0  0  0  0
 13 31  2  0  0  0  0
 14 32  1  0  0  0  0
 15 32  2  0  0  0  0
 16 33  1  0  0  0  0
 17 18  2  0  0  0  0
 17 34  1  0  0  0  0
 18 35  1  0  0  0  0
 19 27  1  0  0  0  0
 19 33  2  0  0  0  0
 20 35  2  0  0  0  0
 20 36  1  0  0  0  0
 21 38  1  0  0  0  0
 22 38  1  0  0  0  0
 22 39  2  0  0  0  0
 22 40  1  0  0  0  0
 23 25  2  0  0  0  0
 23 45  1  0  0  0  0
 24 27  2  0  0  0  0
 24 46  1  0  0  0  0
 25 56  1  0  0  0  0
 26 28  1  0  0  0  0
 26 57  1  0  0  0  0
 27 48  1  0  0  0  0
 28 37  2  0  0  0  0
 28 47  1  0  0  0  0
 29 30  2  0  0  0  0
 29 65  1  0  0  0  0
 30 66  1  0  0  0  0
 31 37  1  0  0  0  0
 31 76  1  0  0  0  0
 32 86  1  0  0  0  0
 33 87  1  0  0  0  0
 34 36  2  0  0  0  0
 34 86  1  0  0  0  0
 35 88  1  0  0  0  0
 36 89  1  0  0  0  0
 37 90  1  0  0  0  0
 38 70  2  0  0  0  0
 39 71  1  0  0  0  0
 39 74  1  0  0  0  0
 40 75  1  0  0  0  0
 40 81  2  0  0  0  0
 41 58  1  0  0  0  0
 41 77  1  0  0  0  0
 41 82  2  0  0  0  0
 42 67  1  0  0  0  0
 42 72  1  0  0  0  0
 42 83  2  0  0  0  0
 43 68  1  0  0  0  0
 43 78  1  0  0  0  0
 43 84  2  0  0  0  0
 44 73  1  0  0  0  0
 44 76  1  0  0  0  0
 44 85  2  0  0  0  0
 45 49  1  0  0  0  0
 46 58  1  0  0  0  0
 47 50  1  0  0  0  0
 48 72  1  0  0  0  0
 49 52  1  0  0  0  0
 50 57  1  0  0  0  0
 51 53  1  0  0  0  0
 51 54  1  0  0  0  0
 52 56  1  0  0  0  0
 53 59  1  0  0  0  0
 54 73  1  0  0  0  0
 55 59  1  0  0  0  0
 55 73  1  0  0  0  0
 56 77  1  0  0  0  0
 57 79  1  0  0  0  0
 58 72  1  0  0  0  0
 59 71  1  0  0  0  0
 60 68  1  0  0  0  0
 61 69  1  0  0  0  0
 62 69  1  0  0  0  0
 63 69  1  0  0  0  0
 64 80  1  0  0  0  0
 65 79  1  0  0  0  0
 66 87  1  0  0  0  0
 67 69  1  0  0  0  0
 67 78  1  0  0  0  0
 68 80  1  0  0  0  0
 70 71  1  0  0  0  0
M  CHG  2  79   1  80   1
M  ISO  4  44 100  66 101  76 100  87 101
M  END
> <Batch ID>
0020

> <Smiles>
CNC(C)C(=O)NC(C(=O)N1Cc2cc([101O:1][101CH2:1]c3ccccc3CNC3CCc4c3ccc([100NH:0][100C:0](=O)N3CCCC(n5nc(-c6ccc(Oc7ccc(F)cc7F)cc6)c(C(N)=O)c5N)C3)c4F)ccc2CC1C(=O)NC1CCCc2ccccc21)C(C)(C)C

> <Shape>
0.228

> <Color>
0.109

> <Negative vol penalty>
0.000

$$$$

  -OEChem-04042321083D

 85 93  0     1  0  0  0  0  0999 V2000
  -23.3359  -24.1509   19.5209 C   0  0  0  0  0  0  0  0  0  0  0  0
  -24.4561  -23.3828   19.8219 C   0  0  0  0  0  0  0  0  0  0  0  0
  -21.1769  -28.2686   21.0924 C   0  0  0  0  0  0  0  0  0  0  0  0
  -22.5373  -27.0340   22.6613 C   0  0  0  0  0  0  0  0  0  0  0  0
  -22.0683  -23.7112   19.8998 C   0  0  0  0  0  0  0  0  0  0  0  0
  -24.3093  -22.1749   20.5031 C   0  0  0  0  0  0  0  0  0  0  0  0
  -27.0823  -18.4528   18.4779 C   0  0  0  0  0  0  0  0  0  0  0  0
  -20.0863  -27.4542   21.3970 C   0  0  0  0  0  0  0  0  0  0  0  0
  -21.4467  -26.2195   22.9661 C   0  0  0  0  0  0  0  0  0  0  0  0
  -28.4455  -18.4434   18.7698 C   0  0  0  0  0  0  0  0  0  0  0  0
  -17.7910  -27.1850   23.8653 C   0  0  0  0  0  0  0  0  0  0  0  0
  -16.5592  -27.8038   24.0779 C   0  0  0  0  0  0  0  0  0  0  0  0
  -28.0689  -16.7497   20.4457 C   0  0  0  0  0  0  0  0  0  0  0  0
  -31.3753  -23.8713   19.1800 C   0  0  0  0  0  0  0  0  0  0  0  0
  -31.7313  -24.7335   21.4086 C   0  0  0  0  0  0  0  0  0  0  0  0
  -15.6127  -26.5504   22.2421 C   0  0  0  0  0  0  0  0  0  0  0  0
  -22.4024  -28.0585   21.7245 C   0  0  0  0  0  0  0  0  0  0  0  0
  -23.8945  -30.1033   22.0411 C   0  0  0  0  0  0  0  0  0  0  0  0
  -21.9049  -22.4927   20.5775 C   0  0  0  0  0  0  0  0  0  0  0  0
  -26.1990  -17.6172   19.1765 C   0  0  0  0  0  0  0  0  0  0  0  0
  -23.0384  -21.7192   20.8927 C   0  0  0  0  0  0  0  0  0  0  0  0
  -26.6953  -16.7486   20.1590 C   0  0  0  0  0  0  0  0  0  0  0  0
  -31.9740  -23.7643   20.4352 C   0  0  0  0  0  0  0  0  0  0  0  0
  -30.2910  -25.9166   19.8715 C   0  0  0  0  0  0  0  0  0  0  0  0
  -20.2212  -26.4296   22.3339 C   0  0  0  0  0  0  0  0  0  0  0  0
  -28.9387  -17.5939   19.7558 C   0  0  0  0  0  0  0  0  0  0  0  0
  -17.9337  -26.2489   22.8410 C   0  0  0  0  0  0  0  0  0  0  0  0
  -15.4700  -27.4865   23.2664 C   0  0  0  0  0  0  0  0  0  0  0  0
  -30.5338  -24.9475   18.8981 C   0  0  0  0  0  0  0  0  0  0  0  0
  -16.8445  -25.9316   22.0295 C   0  0  0  0  0  0  0  0  0  0  0  0
  -30.8898  -25.8096   21.1267 C   0  0  0  0  0  0  0  0  0  0  0  0
  -23.5295  -28.8992   21.4097 C   0  0  0  0  0  0  0  0  0  0  0  0
  -25.0275  -30.5086   21.3789 C   0  0  0  0  0  0  0  0  0  0  0  0
  -23.2656  -30.7937   23.1290 C   0  0  0  0  0  0  0  0  0  0  0  0
  -23.6981  -18.0885   21.0810 C   0  0  0  0  0  0  0  0  0  0  0  0
  -23.4584  -14.8577   20.9177 C   0  0  0  0  0  0  0  0  0  0  0  0
  -24.9987  -11.8623   20.3684 C   0  0  0  0  0  0  0  0  0  0  0  0
  -29.2270  -27.5754   18.3022 C   0  0  0  0  0  0  0  0  0  0  0  0
  -20.5192  -22.0818   21.0084 C   0  0  0  0  0  0  0  0  0  0  0  0
  -24.7351  -17.6200   18.8313 C   0  0  0  0  0  0  0  0  0  0  0  0
  -25.7917  -15.8173   20.9238 C   0  0  0  0  0  0  0  0  0  0  0  0
  -20.4137  -20.6093   21.3967 C   0  0  0  0  0  0  0  0  0  0  0  0
  -27.1711  -30.2248   17.1058 C   0  0  0  0  0  0  0  0  0  0  0  0
  -21.5672  -20.2150   22.3136 C   0  0  0  0  0  0  0  0  0  0  0  0
  -26.0404  -30.2991   18.1345 C   0  0  0  0  0  0  0  0  0  0  0  0
  -27.6123  -28.7845   16.8511 C   0  0  0  0  0  0  0  0  0  0  0  0
  -26.8322  -28.0948   19.0838 C   0  0  0  0  0  0  0  0  0  0  0  0
  -22.9175  -20.3914   21.6085 C   0  0  1  0  0  0  0  0  0  0  0  0
  -23.8536  -17.0981   19.9618 C   0  0  1  0  0  0  0  0  0  0  0  0
  -26.3981  -29.5305   19.4217 C   0  0  2  0  0  0  0  0  0  0  0  0
  -24.5523   -9.3930   20.3433 C   0  0  0  0  0  0  0  0  0  0  0  0
  -23.4636  -14.8282   23.9688 C   0  0  0  0  0  0  0  0  0  0  0  0
  -23.9730  -12.3787   23.8748 C   0  0  0  0  0  0  0  0  0  0  0  0
  -21.8407  -13.2452   22.9130 C   0  0  0  0  0  0  0  0  0  0  0  0
  -25.7248  -11.6426   17.5077 C   0  0  0  0  0  0  0  0  0  0  0  0
  -31.4583  -21.3079   22.3156 C   0  0  0  0  0  0  0  0  0  0  0  0
  -32.8797  -22.6068   20.7367 C   0  0  0  0  0  0  0  0  0  0  0  0
  -32.1457  -18.8489   20.8357 C   0  0  0  0  0  0  0  0  0  0  0  0
  -32.9782  -20.1187   20.7415 C   0  0  0  0  0  0  0  0  0  0  0  0
  -30.9848  -18.8023   19.8498 C   0  0  0  0  0  0  0  0  0  1  0  0
  -24.0181  -13.7026   21.7123 C   0  0  1  0  0  0  0  0  0  0  0  0
  -24.6055  -10.6686   19.5170 C   0  0  2  0  0  0  0  0  0  0  0  0
  -23.3409  -13.5575   23.1043 C   0  0  0  0  0  0  0  0  0  0  0  0
  -24.3630  -28.5616   20.4221 N   0  0  0  0  0  0  0  0  0  0  0  0
  -25.2629  -29.5597   20.4279 N   0  0  0  0  0  0  0  0  0  0  0  0
  -24.3673  -15.8615   20.5542 N   0  0  0  0  0  0  0  0  0  0  0  0
  -27.9391  -28.1205   18.1149 N   0  0  0  0  0  0  0  0  0  0  0  0
  -25.8353  -31.5805   21.5230 N   0  0  0  0  0  0  0  0  0  0  0  0
  -22.1092  -30.2384   23.6936 N   0  0  0  0  0  0  0  0  0  0  0  0
  -29.4321  -26.9982   19.5549 N   0  0  0  0  0  0  0  0  0  0  0  0
  -23.1551  -19.2978   20.6909 N   0  0  0  0  0  0  0  0  0  0  0  0
  -23.8941  -12.5238   20.8617 N   0  0  0  0  0  0  0  0  0  0  0  0
  -25.5880  -10.4732   18.4136 N   0  3  0  0  0  0  0  0  0  0  0  0
  -32.1326  -21.3148   20.9647 N   0  3  1  0  0  0  0  0  0  0  0  0
  -23.7065  -31.8797   23.5762 O   0  0  0  0  0  0  0  0  0  0  0  0
  -24.0438  -17.7780   22.2149 O   0  0  0  0  0  0  0  0  0  0  0  0
  -22.2604  -14.8654   20.6240 O   0  0  0  0  0  0  0  0  0  0  0  0
  -26.1689  -12.1743   20.5782 O   0  0  0  0  0  0  0  0  0  0  0  0
  -30.0934  -27.6417   17.4265 O   0  0  0  0  0  0  0  0  0  0  0  0
  -19.1571  -25.6348   22.6317 O   0  0  0  0  0  0  0  0  0  0  0  0
  -30.2688  -17.5831   20.0430 O   0  0  0  0  0  0  0  0  0  1  0  0
  -14.2867  -28.0797   23.4717 F   0  0  0  0  0  0  0  0  0  0  0  0
  -29.9649  -25.0388   17.6873 F   0  0  0  0  0  0  0  0  0  0  0  0
  -16.9752  -25.0323   21.0446 F   0  0  0  0  0  0  0  0  0  0  0  0
  -30.6178  -26.9879   22.3609 Cl  0  0  0  0  0  0  0  0  0  0  0  0
  1  2  1  0  0  0  0
  1  5  2  0  0  0  0
  2  6  2  0  0  0  0
  3  8  2  0  0  0  0
  3 17  1  0  0  0  0
  4  9  1  0  0  0  0
  4 17  2  0  0  0  0
  5 19  1  0  0  0  0
  6 21  1  0  0  0  0
  7 10  2  0  0  0  0
  7 20  1  0  0  0  0
  8 25  1  0  0  0  0
  9 25  2  0  0  0  0
 10 26  1  0  0  0  0
 11 12  2  0  0  0  0
 11 27  1  0  0  0  0
 12 28  1  0  0  0  0
 13 22  1  0  0  0  0
 13 26  2  0  0  0  0
 14 23  1  0  0  0  0
 14 29  2  0  0  0  0
 15 23  2  0  0  0  0
 15 31  1  0  0  0  0
 16 28  2  0  0  0  0
 16 30  1  0  0  0  0
 17 32  1  0  0  0  0
 18 32  1  0  0  0  0
 18 33  2  0  0  0  0
 18 34  1  0  0  0  0
 19 21  2  0  0  0  0
 19 39  1  0  0  0  0
 20 22  2  0  0  0  0
 20 40  1  0  0  0  0
 21 48  1  0  0  0  0
 22 41  1  0  0  0  0
 23 57  1  0  0  0  0
 24 29  1  0  0  0  0
 24 31  2  0  0  0  0
 24 70  1  0  0  0  0
 25 80  1  0  0  0  0
 26 81  1  0  0  0  0
 27 30  2  0  0  0  0
 27 80  1  0  0  0  0
 28 82  1  0  0  0  0
 29 83  1  0  0  0  0
 30 84  1  0  0  0  0
 31 85  1  0  0  0  0
 32 64  2  0  0  0  0
 33 65  1  0  0  0  0
 33 68  1  0  0  0  0
 34 69  1  0  0  0  0
 34 75  2  0  0  0  0
 35 49  1  0  0  0  0
 35 71  1  0  0  0  0
 35 76  2  0  0  0  0
 36 61  1  0  0  0  0
 36 66  1  0  0  0  0
 36 77  2  0  0  0  0
 37 62  1  0  0  0  0
 37 72  1  0  0  0  0
 37 78  2  0  0  0  0
 38 67  1  0  0  0  0
 38 70  1  0  0  0  0
 38 79  2  0  0  0  0
 39 42  1  0  0  0  0
 40 49  1  0  0  0  0
 41 66  1  0  0  0  0
 42 44  1  0  0  0  0
 43 45  1  0  0  0  0
 43 46  1  0  0  0  0
 44 48  1  0  0  0  0
 45 50  1  0  0  0  0
 46 67  1  0  0  0  0
 47 50  1  0  0  0  0
 47 67  1  0  0  0  0
 48 71  1  0  0  0  0
 49 66  1  0  0  0  0
 50 65  1  0  0  0  0
 51 62  1  0  0  0  0
 52 63  1  0  0  0  0
 53 63  1  0  0  0  0
 54 63  1  0  0  0  0
 55 73  1  0  0  0  0
 56 74  1  0  0  0  0
 57 74  1  0  0  0  0
 58 59  1  0  0  0  0
 58 60  1  0  0  0  0
 59 74  1  0  0  0  0
 60 81  1  0  0  0  0
 61 63  1  0  0  0  0
 61 72  1  0  0  0  0
 62 73  1  0  0  0  0
 64 65  1  0  0  0  0
M  CHG  2  73   1  74   1
M  ISO  4  38 100  60 101  70 100  81 101
M  END
> <Batch ID>
0020

> <Smiles>
CNC(C)C(=O)NC(C(=O)N1Cc2cc([101O:1][101CH2:1]CCN(C)Cc3cc(F)c([100NH:0][100C:0](=O)N4CCCC(n5nc(-c6ccc(Oc7ccc(F)cc7F)cc6)c(C(N)=O)c5N)C4)c(Cl)c3)ccc2CC1C(=O)NC1CCCc2ccccc21)C(C)(C)C

> <Shape>
0.222

> <Color>
0.081

> <Negative vol penalty>
0.000

$$$$

  -OEChem-04042321083D

 88 96  0     1  0  0  0  0  0999 V2000
  -32.6431  -27.6827   25.8673 C   0  0  0  0  0  0  0  0  0  0  0  0
  -31.7408  -27.1679   24.9419 C   0  0  0  0  0  0  0  0  0  0  0  0
  -25.7493  -13.9264   21.0739 C   0  0  0  0  0  0  0  0  0  0  0  0
  -26.3632  -12.1600   19.5441 C   0  0  0  0  0  0  0  0  0  0  0  0
  -32.2388  -28.6816   26.7520 C   0  0  0  0  0  0  0  0  0  0  0  0
  -30.4334  -27.6511   24.9014 C   0  0  0  0  0  0  0  0  0  0  0  0
  -28.8356  -28.5383   20.1786 C   0  0  0  0  0  0  0  0  0  0  0  0
  -24.5408  -13.2807   21.3345 C   0  0  0  0  0  0  0  0  0  0  0  0
  -25.1546  -11.5142   19.8049 C   0  0  0  0  0  0  0  0  0  0  0  0
  -28.4438  -27.4352   19.4212 C   0  0  0  0  0  0  0  0  0  0  0  0
  -22.3876   -9.2176   20.3409 C   0  0  0  0  0  0  0  0  0  0  0  0
  -22.4219   -7.8412   20.5641 C   0  0  0  0  0  0  0  0  0  0  0  0
  -26.1330  -27.9338   19.9016 C   0  0  0  0  0  0  0  0  0  0  0  0
  -29.7189  -20.1503   20.2065 C   0  0  0  0  0  0  0  0  0  0  0  0
  -29.2229  -19.4958   22.4786 C   0  0  0  0  0  0  0  0  0  0  0  0
  -31.2679  -18.7547   21.4271 C   0  0  0  0  0  0  0  0  0  0  0  0
  -23.8808   -8.1847   22.4590 C   0  0  0  0  0  0  0  0  0  0  0  0
  -26.6605  -13.3661   20.1786 C   0  0  0  0  0  0  0  0  0  0  0  0
  -29.1280  -13.8645   20.5920 C   0  0  0  0  0  0  0  0  0  0  0  0
  -30.9285  -29.1840   26.7159 C   0  0  0  0  0  0  0  0  0  0  0  0
  -27.8779  -29.3423   20.8132 C   0  0  0  0  0  0  0  0  0  0  0  0
  -30.0108  -28.6567   25.7873 C   0  0  0  0  0  0  0  0  0  0  0  0
  -26.5151  -29.0479   20.6643 C   0  0  0  0  0  0  0  0  0  0  0  0
  -28.8719  -20.1791   21.3144 C   0  0  0  0  0  0  0  0  0  0  0  0
  -30.9169  -19.4380   20.2628 C   0  0  0  0  0  0  0  0  0  0  0  0
  -24.2434  -12.0746   20.7001 C   0  0  0  0  0  0  0  0  0  0  0  0
  -27.0925  -27.1312   19.2850 C   0  0  0  0  0  0  0  0  0  0  0  0
  -23.1000  -10.0777   21.1768 C   0  0  0  0  0  0  0  0  0  0  0  0
  -23.1685   -7.3247   21.6231 C   0  0  0  0  0  0  0  0  0  0  0  0
  -30.4210  -18.7836   22.5350 C   0  0  0  0  0  0  0  0  0  0  0  0
  -23.8465   -9.5612   22.2358 C   0  0  0  0  0  0  0  0  0  0  0  0
  -27.9089  -14.0330   19.9085 C   0  0  0  0  0  0  0  0  0  0  0  0
  -29.9984  -14.7161   19.9566 C   0  0  0  0  0  0  0  0  0  0  0  0
  -29.4453  -13.0142   21.7019 C   0  0  0  0  0  0  0  0  0  0  0  0
  -27.2240  -30.0929   23.8319 C   0  0  0  0  0  0  0  0  0  0  0  0
  -25.0845  -32.1077   22.4587 C   0  0  0  0  0  0  0  0  0  0  0  0
  -23.1411  -32.8681   19.7584 C   0  0  0  0  0  0  0  0  0  0  0  0
  -31.2850  -19.5035   17.8028 C   0  0  0  0  0  0  0  0  0  0  0  0
  -30.5243  -30.2306   27.7238 C   0  0  0  0  0  0  0  0  0  0  0  0
  -28.3155  -30.5442   21.6046 C   0  0  0  0  0  0  0  0  0  0  0  0
  -25.4466  -29.8914   21.3087 C   0  0  0  0  0  0  0  0  0  0  0  0
  -29.2274  -30.9520   27.3660 C   0  0  0  0  0  0  0  0  0  0  0  0
  -29.5359  -17.2914   15.6371 C   0  0  0  0  0  0  0  0  0  0  0  0
  -28.1576  -29.9496   26.9448 C   0  0  0  0  0  0  0  0  0  0  0  0
  -29.0436  -16.2302   16.6205 C   0  0  0  0  0  0  0  0  0  0  0  0
  -29.4532  -18.7000   16.2262 C   0  0  0  0  0  0  0  0  0  0  0  0
  -29.6418  -17.7841   18.5175 C   0  0  0  0  0  0  0  0  0  0  0  0
  -28.5910  -29.1724   25.6960 C   0  0  1  0  0  0  0  0  0  0  0  0
  -27.2797  -30.9936   22.6305 C   0  0  1  0  0  0  0  0  0  0  0  0
  -29.7673  -16.3526   17.9731 C   0  0  1  0  0  0  0  0  0  0  0  0
  -33.6594  -20.9571   19.5749 C   0  0  0  0  0  0  0  0  0  0  0  0
  -21.4720  -34.5564   18.9455 C   0  0  0  0  0  0  0  0  0  0  0  0
  -25.7112  -23.7758   17.0226 C   0  0  0  0  0  0  0  0  0  0  0  0
  -22.9450  -30.8399   24.2264 C   0  0  0  0  0  0  0  0  0  0  0  0
  -21.2096  -31.8551   22.7344 C   0  0  0  0  0  0  0  0  0  0  0  0
  -22.7756  -33.3250   24.0032 C   0  0  0  0  0  0  0  0  0  0  0  0
  -24.8744  -33.6640   17.4954 C   0  0  0  0  0  0  0  0  0  0  0  0
  -28.1161  -22.8585   22.7570 C   0  0  0  0  0  0  0  0  0  0  0  0
  -27.5835  -20.9455   21.2545 C   0  0  0  0  0  0  0  0  0  0  0  0
  -26.6411  -23.1183   19.2563 C   0  0  0  0  0  0  0  0  0  0  0  0
  -33.2395  -19.5206   19.3373 C   0  0  0  0  0  0  0  0  0  0  0  0
  -26.6419  -23.2013   20.7793 C   0  0  0  0  0  0  0  0  0  0  0  0
  -25.4996  -25.4005   18.9336 C   0  0  0  0  0  0  0  0  0  1  0  0
  -23.6411  -32.0034   22.0292 C   0  0  1  0  0  0  0  0  0  0  0  0
  -22.9406  -34.1647   18.9948 C   0  0  2  0  0  0  0  0  0  0  0  0
  -25.5321  -23.9182   18.5394 C   0  0  1  0  0  0  0  0  0  0  0  0
  -22.6628  -31.9886   23.2377 C   0  0  0  0  0  0  0  0  0  0  0  0
  -27.9933  -14.9219   18.9151 N   0  0  0  0  0  0  0  0  0  0  0  0
  -29.2758  -15.3196   18.9698 N   0  0  0  0  0  0  0  0  0  0  0  0
  -25.9251  -31.0522   22.0776 N   0  0  0  0  0  0  0  0  0  0  0  0
  -30.1217  -18.7579   17.5339 N   0  0  0  0  0  0  0  0  0  0  0  0
  -31.3037  -15.0001   20.1514 N   0  0  0  0  0  0  0  0  0  0  0  0
  -28.4331  -12.2033   22.2331 N   0  0  0  0  0  0  0  0  0  0  0  0
  -28.4228  -29.9857   24.5108 N   0  0  0  0  0  0  0  0  0  0  0  0
  -23.4145  -33.0968   21.0904 N   0  0  0  0  0  0  0  0  0  0  0  0
  -31.7938  -19.4077   19.1159 N   0  0  0  0  0  0  0  0  0  0  0  0
  -23.4368  -34.0245   17.5966 N   0  3  0  0  0  0  0  0  0  0  0  0
  -27.7792  -22.4401   21.3457 N   0  3  1  0  0  0  0  0  0  0  0  0
  -30.5882  -12.9867   22.2181 O   0  0  0  0  0  0  0  0  0  0  0  0
  -26.1709  -29.5376   24.1224 O   0  0  0  0  0  0  0  0  0  0  0  0
  -25.4543  -33.0929   23.1023 O   0  0  0  0  0  0  0  0  0  0  0  0
  -23.0595  -31.7628   19.2272 O   0  0  0  0  0  0  0  0  0  0  0  0
  -31.8411  -20.1816   16.9306 O   0  0  0  0  0  0  0  0  0  0  0  0
  -23.0643  -11.4440   20.9544 O   0  0  0  0  0  0  0  0  0  0  0  0
  -26.7074  -26.0547   18.5468 O   0  0  0  0  0  0  0  0  0  1  0  0
  -23.2000   -6.0030   21.8382 F   0  0  0  0  0  0  0  0  0  0  0  0
  -30.7580  -18.1275   23.6531 F   0  0  0  0  0  0  0  0  0  0  0  0
  -24.5320  -10.3825   23.0429 F   0  0  0  0  0  0  0  0  0  0  0  0
  1  2  1  0  0  0  0
  1  5  2  0  0  0  0
  2  6  2  0  0  0  0
  3  8  2  0  0  0  0
  3 18  1  0  0  0  0
  4  9  1  0  0  0  0
  4 18  2  0  0  0  0
  5 20  1  0  0  0  0
  6 22  1  0  0  0  0
  7 10  2  0  0  0  0
  7 21  1  0  0  0  0
  8 26  1  0  0  0  0
  9 26  2  0  0  0  0
 10 27  1  0  0  0  0
 11 12  2  0  0  0  0
 11 28  1  0  0  0  0
 12 29  1  0  0  0  0
 13 23  1  0  0  0  0
 13 27  2  0  0  0  0
 14 24  1  0  0  0  0
 14 25  2  0  0  0  0
 15 24  2  0  0  0  0
 15 30  1  0  0  0  0
 16 25  1  0  0  0  0
 16 30  2  0  0  0  0
 17 29  2  0  0  0  0
 17 31  1  0  0  0  0
 18 32  1  0  0  0  0
 19 32  1  0  0  0  0
 19 33  2  0  0  0  0
 19 34  1  0  0  0  0
 20 22  2  0  0  0  0
 20 39  1  0  0  0  0
 21 23  2  0  0  0  0
 21 40  1  0  0  0  0
 22 48  1  0  0  0  0
 23 41  1  0  0  0  0
 24 59  1  0  0  0  0
 25 76  1  0  0  0  0
 26 84  1  0  0  0  0
 27 85  1  0  0  0  0
 28 31  2  0  0  0  0
 28 84  1  0  0  0  0
 29 86  1  0  0  0  0
 30 87  1  0  0  0  0
 31 88  1  0  0  0  0
 32 68  2  0  0  0  0
 33 69  1  0  0  0  0
 33 72  1  0  0  0  0
 34 73  1  0  0  0  0
 34 79  2  0  0  0  0
 35 49  1  0  0  0  0
 35 74  1  0  0  0  0
 35 80  2  0  0  0  0
 36 64  1  0  0  0  0
 36 70  1  0  0  0  0
 36 81  2  0  0  0  0
 37 65  1  0  0  0  0
 37 75  1  0  0  0  0
 37 82  2  0  0  0  0
 38 71  1  0  0  0  0
 38 76  1  0  0  0  0
 38 83  2  0  0  0  0
 39 42  1  0  0  0  0
 40 49  1  0  0  0  0
 41 70  1  0  0  0  0
 42 44  1  0  0  0  0
 43 45  1  0  0  0  0
 43 46  1  0  0  0  0
 44 48  1  0  0  0  0
 45 50  1  0  0  0  0
 46 71  1  0  0  0  0
 47 50  1  0  0  0  0
 47 71  1  0  0  0  0
 48 74  1  0  0  0  0
 49 70  1  0  0  0  0
 50 69  1  0  0  0  0
 51 61  1  0  0  0  0
 52 65  1  0  0  0  0
 53 66  1  0  0  0  0
 54 67  1  0  0  0  0
 55 67  1  0  0  0  0
 56 67  1  0  0  0  0
 57 77  1  0  0  0  0
 58 78  1  0  0  0  0
 59 78  1  0  0  0  0
 60 62  1  0  0  0  0
 60 66  1  0  0  0  0
 61 76  1  0  0  0  0
 62 78  1  0  0  0  0
 63 66  1  0  0  0  0
 63 85  1  0  0  0  0
 64 67  1  0  0  0  0
 64 75  1  0  0  0  0
 65 77  1  0  0  0  0
 68 69  1  0  0  0  0
M  CHG  2  77   1  78   1
M  ISO  4  38 100  63 101  76 100  85 101
M  END
> <Batch ID>
0020

> <Smiles>
CC[100N:0](c1cc(F)cc(CN(C)CCC(C)[101CH2:1][101O:1]c2ccc3c(c2)CN(C(=O)C(NC(=O)C(C)NC)C(C)(C)C)C(C(=O)NC2CCCc4ccccc42)C3)c1)[100C:0](=O)N1CCCC(n2nc(-c3ccc(Oc4ccc(F)cc4F)cc3)c(C(N)=O)c2N)C1

> <Shape>
0.248

> <Color>
0.047

> <Negative vol penalty>
0.000

$$$$

  -OEChem-04042321083D

 82 90  0     1  0  0  0  0  0999 V2000
  -18.3382  -31.6604   22.6600 C   0  0  0  0  0  0  0  0  0  0  0  0
  -19.7287  -31.6167   22.6476 C   0  0  0  0  0  0  0  0  0  0  0  0
  -28.2394  -12.5737   21.8464 C   0  0  0  0  0  0  0  0  0  0  0  0
  -26.6518  -13.1062   20.1048 C   0  0  0  0  0  0  0  0  0  0  0  0
  -17.6046  -30.4748   22.6587 C   0  0  0  0  0  0  0  0  0  0  0  0
  -20.3863  -30.3871   22.6349 C   0  0  0  0  0  0  0  0  0  0  0  0
  -25.6546  -29.0589   19.8087 C   0  0  0  0  0  0  0  0  0  0  0  0
  -27.7076  -11.2874   21.9379 C   0  0  0  0  0  0  0  0  0  0  0  0
  -26.1200  -11.8199   20.1963 C   0  0  0  0  0  0  0  0  0  0  0  0
  -26.9695  -28.9784   20.2651 C   0  0  0  0  0  0  0  0  0  0  0  0
  -24.1075   -8.7935   20.2207 C   0  0  0  0  0  0  0  0  0  0  0  0
  -22.7187   -8.6656   20.2343 C   0  0  0  0  0  0  0  0  0  0  0  0
  -26.7235  -26.5939   20.5346 C   0  0  0  0  0  0  0  0  0  0  0  0
  -29.0627  -23.6692   20.0692 C   0  0  0  0  0  0  0  0  0  0  0  0
  -29.1004  -22.3886   18.0210 C   0  0  0  0  0  0  0  0  0  0  0  0
  -30.3572  -24.4456   18.1828 C   0  0  0  0  0  0  0  0  0  0  0  0
  -22.6146  -10.0083   22.2402 C   0  0  0  0  0  0  0  0  0  0  0  0
  -27.7114  -13.4831   20.9299 C   0  0  0  0  0  0  0  0  0  0  0  0
  -29.3136  -15.2399   20.0054 C   0  0  0  0  0  0  0  0  0  0  0  0
  -18.2534  -29.2302   22.6362 C   0  0  0  0  0  0  0  0  0  0  0  0
  -24.8594  -27.9071   19.7220 C   0  0  0  0  0  0  0  0  0  0  0  0
  -19.6607  -29.1837   22.6346 C   0  0  0  0  0  0  0  0  0  0  0  0
  -25.3996  -26.6621   20.0744 C   0  0  0  0  0  0  0  0  0  0  0  0
  -28.6563  -22.5567   19.3325 C   0  0  0  0  0  0  0  0  0  0  0  0
  -29.9131  -24.6137   19.4944 C   0  0  0  0  0  0  0  0  0  0  0  0
  -26.6479  -10.9105   21.1128 C   0  0  0  0  0  0  0  0  0  0  0  0
  -27.5032  -27.7462   20.6309 C   0  0  0  0  0  0  0  0  0  0  0  0
  -24.7500   -9.5287   21.2169 C   0  0  0  0  0  0  0  0  0  0  0  0
  -21.9722   -9.2730   21.2440 C   0  0  0  0  0  0  0  0  0  0  0  0
  -24.0036  -10.1361   22.2266 C   0  0  0  0  0  0  0  0  0  0  0  0
  -29.9508  -23.3330   17.4461 C   0  0  0  0  0  0  0  0  0  0  0  0
  -28.2600  -14.8121   20.8353 C   0  0  0  0  0  0  0  0  0  0  0  0
  -29.4515  -16.5770   20.2874 C   0  0  0  0  0  0  0  0  0  0  0  0
  -30.0974  -14.4951   19.0638 C   0  0  0  0  0  0  0  0  0  0  0  0
  -22.1542  -26.9413   21.0832 C   0  0  0  0  0  0  0  0  0  0  0  0
  -22.4574  -24.4587   19.0177 C   0  0  0  0  0  0  0  0  0  0  0  0
  -24.5064  -22.5306   17.0860 C   0  0  0  0  0  0  0  0  0  0  0  0
  -27.2605  -21.6128   21.2053 C   0  0  0  0  0  0  0  0  0  0  0  0
  -17.4183  -27.9752   22.6833 C   0  0  0  0  0  0  0  0  0  0  0  0
  -23.4514  -28.0071   19.2024 C   0  0  0  0  0  0  0  0  0  0  0  0
  -24.5941  -25.3929   19.9806 C   0  0  0  0  0  0  0  0  0  0  0  0
  -18.1877  -26.7165   22.2908 C   0  0  0  0  0  0  0  0  0  0  0  0
  -27.4349  -19.3898   23.9810 C   0  0  0  0  0  0  0  0  0  0  0  0
  -19.5384  -26.6741   22.9985 C   0  0  0  0  0  0  0  0  0  0  0  0
  -27.7518  -18.0359   23.3418 C   0  0  0  0  0  0  0  0  0  0  0  0
  -26.4903  -20.2195   23.1133 C   0  0  0  0  0  0  0  0  0  0  0  0
  -27.2387  -19.0438   21.0818 C   0  0  0  0  0  0  0  0  0  0  0  0
  -20.4101  -27.8696   22.5956 C   0  0  1  0  0  0  0  0  0  0  0  0
  -22.5683  -26.8434   19.6422 C   0  0  1  0  0  0  0  0  0  0  0  0
  -28.2382  -18.1989   21.8884 C   0  0  2  0  0  0  0  0  0  0  0  0
  -24.4705  -20.5529   15.5417 C   0  0  0  0  0  0  0  0  0  0  0  0
  -22.1931  -22.5927   21.4173 C   0  0  0  0  0  0  0  0  0  0  0  0
  -23.0994  -20.7447   19.9919 C   0  0  0  0  0  0  0  0  0  0  0  0
  -20.9500  -21.8517   19.3777 C   0  0  0  0  0  0  0  0  0  0  0  0
  -25.5126  -24.1392   14.8147 C   0  0  0  0  0  0  0  0  0  0  0  0
  -31.1056  -28.0052   20.5640 C   0  0  0  0  0  0  0  0  0  0  0  0
  -31.1932  -26.7443   19.7127 C   0  0  0  0  0  0  0  0  0  0  0  0
  -29.7127  -28.6239   20.5693 C   0  0  0  0  0  0  0  0  0  1  0  0
  -23.1234  -23.1046   19.0639 C   0  0  1  0  0  0  0  0  0  0  0  0
  -24.3902  -22.0681   15.6448 C   0  0  2  0  0  0  0  0  0  0  0  0
  -22.3563  -22.0974   19.9664 C   0  0  0  0  0  0  0  0  0  0  0  0
  -27.7639  -15.7976   21.5882 N   0  0  0  0  0  0  0  0  0  0  0  0
  -28.5091  -16.8579   21.2325 N   0  0  0  0  0  0  0  0  0  0  0  0
  -23.2204  -25.5434   19.4727 N   0  0  0  0  0  0  0  0  0  0  0  0
  -27.0179  -20.3349   21.7520 N   0  0  0  0  0  0  0  0  0  0  0  0
  -30.2859  -17.5281   19.8166 N   0  0  0  0  0  0  0  0  0  0  0  0
  -29.8233  -13.1307   18.8975 N   0  0  0  0  0  0  0  0  0  0  0  0
  -27.7926  -21.5971   19.9164 N   0  0  0  0  0  0  0  0  0  0  0  0
  -30.3168  -25.7194   20.2264 N   0  0  0  0  0  0  0  0  0  0  0  0
  -20.9885  -27.6550   21.2865 N   0  0  0  0  0  0  0  0  0  0  0  0
  -23.2692  -22.6739   17.6777 N   0  0  0  0  0  0  0  0  0  0  0  0
  -25.4865  -22.6539   14.8228 N   0  3  0  0  0  0  0  0  0  0  0  0
  -31.0245  -15.0202   18.4019 O   0  0  0  0  0  0  0  0  0  0  0  0
  -22.8407  -26.4076   21.9467 O   0  0  0  0  0  0  0  0  0  0  0  0
  -21.3053  -24.5515   18.5868 O   0  0  0  0  0  0  0  0  0  0  0  0
  -25.5867  -22.7401   17.6333 O   0  0  0  0  0  0  0  0  0  0  0  0
  -27.0397  -22.6447   21.8445 O   0  0  0  0  0  0  0  0  0  0  0  0
  -26.1289   -9.6554   21.2016 O   0  0  0  0  0  0  0  0  0  0  0  0
  -28.7862  -27.6648   21.0773 O   0  0  0  0  0  0  0  0  0  1  0  0
  -20.6383   -9.1514   21.2560 F   0  0  0  0  0  0  0  0  0  0  0  0
  -24.6151  -10.8447   23.1857 F   0  0  0  0  0  0  0  0  0  0  0  0
  -30.4990  -23.1255   15.8280 Cl  0  0  0  0  0  0  0  0  0  0  0  0
  1  2  1  0  0  0  0
  1  5  2  0  0  0  0
  2  6  2  0  0  0  0
  3  8  2  0  0  0  0
  3 18  1  0  0  0  0
  4  9  1  0  0  0  0
  4 18  2  0  0  0  0
  5 20  1  0  0  0  0
  6 22  1  0  0  0  0
  7 10  2  0  0  0  0
  7 21  1  0  0  0  0
  8 26  1  0  0  0  0
  9 26  2  0  0  0  0
 10 27  1  0  0  0  0
 11 12  2  0  0  0  0
 11 28  1  0  0  0  0
 12 29  1  0  0  0  0
 13 23  1  0  0  0  0
 13 27  2  0  0  0  0
 14 24  1  0  0  0  0
 14 25  2  0  0  0  0
 15 24  2  0  0  0  0
 15 31  1  0  0  0  0
 16 25  1  0  0  0  0
 16 31  2  0  0  0  0
 17 29  2  0  0  0  0
 17 30  1  0  0  0  0
 18 32  1  0  0  0  0
 19 32  1  0  0  0  0
 19 33  2  0  0  0  0
 19 34  1  0  0  0  0
 20 22  2  0  0  0  0
 20 39  1  0  0  0  0
 21 23  2  0  0  0  0
 21 40  1  0  0  0  0
 22 48  1  0  0  0  0
 23 41  1  0  0  0  0
 24 68  1  0  0  0  0
 25 69  1  0  0  0  0
 26 78  1  0  0  0  0
 27 79  1  0  0  0  0
 28 30  2  0  0  0  0
 28 78  1  0  0  0  0
 29 80  1  0  0  0  0
 30 81  1  0  0  0  0
 31 82  1  0  0  0  0
 32 62  2  0  0  0  0
 33 63  1  0  0  0  0
 33 66  1  0  0  0  0
 34 67  1  0  0  0  0
 34 73  2  0  0  0  0
 35 49  1  0  0  0  0
 35 70  1  0  0  0  0
 35 74  2  0  0  0  0
 36 59  1  0  0  0  0
 36 64  1  0  0  0  0
 36 75  2  0  0  0  0
 37 60  1  0  0  0  0
 37 71  1  0  0  0  0
 37 76  2  0  0  0  0
 38 65  1  0  0  0  0
 38 68  1  0  0  0  0
 38 77  2  0  0  0  0
 39 42  1  0  0  0  0
 40 49  1  0  0  0  0
 41 64  1  0  0  0  0
 42 44  1  0  0  0  0
 43 45  1  0  0  0  0
 43 46  1  0  0  0  0
 44 48  1  0  0  0  0
 45 50  1  0  0  0  0
 46 65  1  0  0  0  0
 47 50  1  0  0  0  0
 47 65  1  0  0  0  0
 48 70  1  0  0  0  0
 49 64  1  0  0  0  0
 50 63  1  0  0  0  0
 51 60  1  0  0  0  0
 52 61  1  0  0  0  0
 53 61  1  0  0  0  0
 54 61  1  0  0  0  0
 55 72  1  0  0  0  0
 56 57  1  0  0  0  0
 56 58  1  0  0  0  0
 57 69  1  0  0  0  0
 58 79  1  0  0  0  0
 59 61  1  0  0  0  0
 59 71  1  0  0  0  0
 60 72  1  0  0  0  0
 62 63  1  0  0  0  0
M  CHG  1  72   1
M  ISO  4  38 100  58 101  68 100  79 101
M  END
> <Batch ID>
0020

> <Smiles>
CNC(C)C(=O)NC(C(=O)N1Cc2cc([101O:1][101CH2:1]CCNc3cc(Cl)cc([100NH:0][100C:0](=O)N4CCCC(n5nc(-c6ccc(Oc7ccc(F)cc7F)cc6)c(C(N)=O)c5N)C4)c3)ccc2CC1C(=O)NC1CCCc2ccccc21)C(C)(C)C

> <Shape>
0.265

> <Color>
0.072

> <Negative vol penalty>
0.000

$$$$

  -OEChem-04042321083D

 86 95  0     1  0  0  0  0  0999 V2000
  -28.0671  -24.8448   16.7863 C   0  0  0  0  0  0  0  0  0  0  0  0
  -26.8898  -25.0345   17.5030 C   0  0  0  0  0  0  0  0  0  0  0  0
  -27.0318  -16.6388   20.7393 C   0  0  0  0  0  0  0  0  0  0  0  0
  -25.0078  -16.3689   19.4480 C   0  0  0  0  0  0  0  0  0  0  0  0
  -29.2674  -25.3639   17.2697 C   0  0  0  0  0  0  0  0  0  0  0  0
  -26.9125  -25.7425   18.7041 C   0  0  0  0  0  0  0  0  0  0  0  0
  -23.1199  -29.0789   19.0641 C   0  0  0  0  0  0  0  0  0  0  0  0
  -20.6446  -25.9916   24.4873 C   0  0  0  0  0  0  0  0  0  0  0  0
  -21.9027  -25.7211   25.0255 C   0  0  0  0  0  0  0  0  0  0  0  0
  -27.2259  -15.2576   20.7238 C   0  0  0  0  0  0  0  0  0  0  0  0
  -25.2019  -14.9877   19.4325 C   0  0  0  0  0  0  0  0  0  0  0  0
  -21.8605  -28.5784   19.3913 C   0  0  0  0  0  0  0  0  0  0  0  0
  -28.3811  -12.9287   18.5618 C   0  0  0  0  0  0  0  0  0  0  0  0
  -29.6635  -12.4574   18.2812 C   0  0  0  0  0  0  0  0  0  0  0  0
  -22.1892  -29.2643   21.6806 C   0  0  0  0  0  0  0  0  0  0  0  0
  -21.5055  -25.5795   22.2678 C   0  0  0  0  0  0  0  0  0  0  0  0
  -29.7316  -11.3613   20.4332 C   0  0  0  0  0  0  0  0  0  0  0  0
  -25.9227  -17.1944   20.1015 C   0  0  0  0  0  0  0  0  0  0  0  0
  -26.1951  -19.5572   19.1790 C   0  0  0  0  0  0  0  0  0  0  0  0
  -29.3031  -26.0870   18.4724 C   0  0  0  0  0  0  0  0  0  0  0  0
  -23.9293  -29.6671   20.0467 C   0  0  0  0  0  0  0  0  0  0  0  0
  -28.1146  -26.2706   19.2046 C   0  0  0  0  0  0  0  0  0  0  0  0
  -23.4575  -29.7738   21.3628 C   0  0  0  0  0  0  0  0  0  0  0  0
  -20.4460  -25.9208   23.1084 C   0  0  0  0  0  0  0  0  0  0  0  0
  -22.9622  -25.3798   24.1849 C   0  0  0  0  0  0  0  0  0  0  0  0
  -26.3110  -14.4321   20.0704 C   0  0  0  0  0  0  0  0  0  0  0  0
  -21.3961  -28.6684   20.7002 C   0  0  0  0  0  0  0  0  0  0  0  0
  -27.7738  -12.6163   19.7781 C   0  0  0  0  0  0  0  0  0  0  0  0
  -30.3388  -11.6737   19.2169 C   0  0  0  0  0  0  0  0  0  0  0  0
  -22.7636  -25.3090   22.8060 C   0  0  0  0  0  0  0  0  0  0  0  0
  -28.4491  -11.8326   20.7138 C   0  0  0  0  0  0  0  0  0  0  0  0
  -25.7213  -18.6211   20.1177 C   0  0  0  0  0  0  0  0  0  0  0  0
  -25.7383  -20.7675   19.6405 C   0  0  0  0  0  0  0  0  0  0  0  0
  -26.9780  -19.3511   17.9957 C   0  0  0  0  0  0  0  0  0  0  0  0
  -26.7810  -29.0141   21.2898 C   0  0  0  0  0  0  0  0  0  0  0  0
  -26.3286  -31.8391   22.8186 C   0  0  0  0  0  0  0  0  0  0  0  0
  -24.1405  -34.1804   23.9920 C   0  0  0  0  0  0  0  0  0  0  0  0
  -25.1515  -24.1975   24.1222 C   0  0  0  0  0  0  0  0  0  0  0  0
  -30.6324  -26.5884   18.9787 C   0  0  0  0  0  0  0  0  0  0  0  0
  -25.2745  -30.2262   19.6720 C   0  0  0  0  0  0  0  0  0  0  0  0
  -24.2793  -30.4144   22.4503 C   0  0  0  0  0  0  0  0  0  0  0  0
  -30.5078  -27.6484   20.0701 C   0  0  0  0  0  0  0  0  0  0  0  0
  -22.4083  -21.8833   23.2682 C   0  0  0  0  0  0  0  0  0  0  0  0
  -16.8425  -26.4965   22.5658 C   0  0  0  0  0  0  0  0  0  0  0  0
  -29.4875  -27.2175   21.1189 C   0  0  0  0  0  0  0  0  0  0  0  0
  -23.0901  -20.8718   22.3483 C   0  0  0  0  0  0  0  0  0  0  0  0
  -17.3910  -26.8967   21.2101 C   0  0  0  0  0  0  0  0  0  0  0  0
  -18.0752  -26.5487   23.4549 C   0  0  0  0  0  0  0  0  0  0  0  0
  -23.3822  -22.4713   24.2849 C   0  0  0  0  0  0  0  0  0  0  0  0
  -25.2819  -22.0633   22.7503 C   0  0  0  0  0  0  0  0  0  0  0  0
  -28.0944  -27.0544   20.4990 C   0  0  1  0  0  0  0  0  0  0  0  0
  -26.2252  -30.3421   20.8595 C   0  0  1  0  0  0  0  0  0  0  0  0
  -24.3364  -21.4848   21.6867 C   0  0  1  0  0  0  0  0  0  0  0  0
  -18.7826  -26.2117   21.1490 C   0  0  1  0  0  0  0  0  0  0  0  0
  -18.6202  -24.7896   20.5924 C   0  0  0  0  0  0  0  0  0  0  0  0
  -24.0663  -36.3613   25.2313 C   0  0  0  0  0  0  0  0  0  0  0  0
  -26.8798  -30.3684   25.4346 C   0  0  0  0  0  0  0  0  0  0  0  0
  -25.8775  -32.3103   26.6564 C   0  0  0  0  0  0  0  0  0  0  0  0
  -27.9264  -32.6338   25.2709 C   0  0  0  0  0  0  0  0  0  0  0  0
  -24.7516  -25.9491   25.8372 C   0  0  0  0  0  0  0  0  0  0  0  0
  -22.8707  -35.5685   21.7073 C   0  0  0  0  0  0  0  0  0  0  0  0
  -19.6894  -27.0712   20.2620 C   0  0  0  0  0  0  0  0  0  1  0  0
  -25.7032  -32.2584   24.1270 C   0  0  1  0  0  0  0  0  0  0  0  0
  -24.1207  -35.6931   23.8662 C   0  0  2  0  0  0  0  0  0  0  0  0
  -26.5818  -31.8789   25.3524 C   0  0  0  0  0  0  0  0  0  0  0  0
  -25.0176  -19.1880   21.1012 N   0  0  0  0  0  0  0  0  0  0  0  0
  -25.0459  -20.4935   20.7832 N   0  0  0  0  0  0  0  0  0  0  0  0
  -19.1966  -26.1889   22.5741 N   0  0  3  0  0  0  0  0  0  0  0  0
  -25.5903  -30.9405   22.0356 N   0  0  0  0  0  0  0  0  0  0  0  0
  -24.5785  -23.0062   23.6335 N   0  0  0  0  0  0  0  0  0  0  0  0
  -25.8654  -22.0287   19.1763 N   0  0  0  0  0  0  0  0  0  0  0  0
  -27.3623  -18.0437   17.6681 N   0  0  0  0  0  0  0  0  0  0  0  0
  -27.4758  -28.3473   20.2988 N   0  0  0  0  0  0  0  0  0  0  0  0
  -25.4276  -33.6862   24.0086 N   0  0  0  0  0  0  0  0  0  0  0  0
  -24.2633  -25.1008   24.7451 N   0  0  0  0  0  0  0  0  0  0  0  0
  -22.9328  -36.1320   23.0805 N   0  3  0  0  0  0  0  0  0  0  0  0
  -27.3404  -20.3001   17.2598 O   0  0  0  0  0  0  0  0  0  0  0  0
  -26.5946  -28.6240   22.4364 O   0  0  0  0  0  0  0  0  0  0  0  0
  -27.4285  -32.2976   22.4996 O   0  0  0  0  0  0  0  0  0  0  0  0
  -23.1167  -33.5051   24.0715 O   0  0  0  0  0  0  0  0  0  0  0  0
  -26.3647  -24.4216   24.0350 O   0  0  0  0  0  0  0  0  0  0  0  0
  -26.5002  -13.0843   20.0549 O   0  0  0  0  0  0  0  0  0  0  0  0
  -20.1675  -28.1801   21.0224 O   0  0  0  0  0  0  0  0  0  1  0  0
  -31.5697  -11.2199   18.9466 F   0  0  0  0  0  0  0  0  0  0  0  0
  -23.7749  -24.9824   21.9887 F   0  0  0  0  0  0  0  0  0  0  0  0
  -27.8704  -11.5282   21.8835 F   0  0  0  0  0  0  0  0  0  0  0  0
  1  2  1  0  0  0  0
  1  5  2  0  0  0  0
  2  6  2  0  0  0  0
  3 10  2  0  0  0  0
  3 18  1  0  0  0  0
  4 11  1  0  0  0  0
  4 18  2  0  0  0  0
  5 20  1  0  0  0  0
  6 22  1  0  0  0  0
  7 12  2  0  0  0  0
  7 21  1  0  0  0  0
  8  9  2  0  0  0  0
  8 24  1  0  0  0  0
  9 25  1  0  0  0  0
 10 26  1  0  0  0  0
 11 26  2  0  0  0  0
 12 27  1  0  0  0  0
 13 14  2  0  0  0  0
 13 28  1  0  0  0  0
 14 29  1  0  0  0  0
 15 23  1  0  0  0  0
 15 27  2  0  0  0  0
 16 24  2  0  0  0  0
 16 30  1  0  0  0  0
 17 29  2  0  0  0  0
 17 31  1  0  0  0  0
 18 32  1  0  0  0  0
 19 32  1  0  0  0  0
 19 33  2  0  0  0  0
 19 34  1  0  0  0  0
 20 22  2  0  0  0  0
 20 39  1  0  0  0  0
 21 23  2  0  0  0  0
 21 40  1  0  0  0  0
 22 51  1  0  0  0  0
 23 41  1  0  0  0  0
 24 68  1  0  0  0  0
 25 30  2  0  0  0  0
 25 75  1  0  0  0  0
 26 82  1  0  0  0  0
 27 83  1  0  0  0  0
 28 31  2  0  0  0  0
 28 82  1  0  0  0  0
 29 84  1  0  0  0  0
 30 85  1  0  0  0  0
 31 86  1  0  0  0  0
 32 66  2  0  0  0  0
 33 67  1  0  0  0  0
 33 71  1  0  0  0  0
 34 72  1  0  0  0  0
 34 77  2  0  0  0  0
 35 52  1  0  0  0  0
 35 73  1  0  0  0  0
 35 78  2  0  0  0  0
 36 63  1  0  0  0  0
 36 69  1  0  0  0  0
 36 79  2  0  0  0  0
 37 64  1  0  0  0  0
 37 74  1  0  0  0  0
 37 80  2  0  0  0  0
 38 70  1  0  0  0  0
 38 75  1  0  0  0  0
 38 81  2  0  0  0  0
 39 42  1  0  0  0  0
 40 52  1  0  0  0  0
 41 69  1  0  0  0  0
 42 45  1  0  0  0  0
 43 46  1  0  0  0  0
 43 49  1  0  0  0  0
 44 47  1  0  0  0  0
 44 48  1  0  0  0  0
 45 51  1  0  0  0  0
 46 53  1  0  0  0  0
 47 54  1  0  0  0  0
 48 68  1  0  0  0  0
 49 70  1  0  0  0  0
 50 53  1  0  0  0  0
 50 70  1  0  0  0  0
 51 73  1  0  0  0  0
 52 69  1  0  0  0  0
 53 67  1  0  0  0  0
 54 55  1  0  0  0  0
 54 62  1  0  0  0  0
 54 68  1  0  0  0  0
 56 64  1  0  0  0  0
 57 65  1  0  0  0  0
 58 65  1  0  0  0  0
 59 65  1  0  0  0  0
 60 75  1  0  0  0  0
 61 76  1  0  0  0  0
 62 83  1  0  0  0  0
 63 65  1  0  0  0  0
 63 74  1  0  0  0  0
 64 76  1  0  0  0  0
 66 67  1  0  0  0  0
M  CHG  1  76   1
M  ISO  4  38 100  62 101  75 100  83 101
M  END
> <Batch ID>
0020

> <Smiles>
CNC(C)C(=O)NC(C(=O)N1Cc2cc([101O:1][101CH2:1]C3(C)CCCN3c3ccc([100N:0](C)[100C:0](=O)N4CCCC(n5nc(-c6ccc(Oc7ccc(F)cc7F)cc6)c(C(N)=O)c5N)C4)c(F)c3)ccc2CC1C(=O)NC1CCCc2ccccc21)C(C)(C)C

> <Shape>
0.300

> <Color>
0.071

> <Negative vol penalty>
0.000

$$$$

  -OEChem-04042321083D

 83 92  0     1  0  0  0  0  0999 V2000
  -26.5894  -37.1224   25.0791 C   0  0  0  0  0  0  0  0  0  0  0  0
  -27.5370  -36.2130   24.6206 C   0  0  0  0  0  0  0  0  0  0  0  0
  -22.7971  -10.2862   20.2388 C   0  0  0  0  0  0  0  0  0  0  0  0
  -24.5634   -9.2301   21.5043 C   0  0  0  0  0  0  0  0  0  0  0  0
  -25.4234  -36.6637   25.6906 C   0  0  0  0  0  0  0  0  0  0  0  0
  -27.3197  -34.8442   24.7742 C   0  0  0  0  0  0  0  0  0  0  0  0
  -27.2062  -29.1650   19.4113 C   0  0  0  0  0  0  0  0  0  0  0  0
  -25.7538  -19.6294   19.0661 C   0  0  0  0  0  0  0  0  0  0  0  0
  -28.0683  -20.2157   19.4351 C   0  0  0  0  0  0  0  0  0  0  0  0
  -26.0604  -18.2854   19.2783 C   0  0  0  0  0  0  0  0  0  0  0  0
  -28.3749  -18.8716   19.6473 C   0  0  0  0  0  0  0  0  0  0  0  0
  -21.8498   -9.7389   21.1040 C   0  0  0  0  0  0  0  0  0  0  0  0
  -23.6162   -8.6828   22.3697 C   0  0  0  0  0  0  0  0  0  0  0  0
  -27.0052  -28.0981   18.5353 C   0  0  0  0  0  0  0  0  0  0  0  0
  -21.4503   -6.0866   22.3724 C   0  0  0  0  0  0  0  0  0  0  0  0
  -21.5905   -4.7433   22.7207 C   0  0  0  0  0  0  0  0  0  0  0  0
  -25.5498  -27.0346   20.1475 C   0  0  0  0  0  0  0  0  0  0  0  0
  -21.7805   -5.3664   25.0473 C   0  0  0  0  0  0  0  0  0  0  0  0
  -24.1539  -10.0318   20.4389 C   0  0  0  0  0  0  0  0  0  0  0  0
  -25.2365  -10.3882   18.1567 C   0  0  0  0  0  0  0  0  0  0  0  0
  -25.1871  -35.2884   25.8431 C   0  0  0  0  0  0  0  0  0  0  0  0
  -26.5668  -29.1782   20.6540 C   0  0  0  0  0  0  0  0  0  0  0  0
  -26.1500  -34.3667   25.3895 C   0  0  0  0  0  0  0  0  0  0  0  0
  -25.7375  -28.1066   21.0240 C   0  0  0  0  0  0  0  0  0  0  0  0
  -26.7578  -20.5946   19.1445 C   0  0  0  0  0  0  0  0  0  0  0  0
  -27.3709  -17.9064   19.5689 C   0  0  0  0  0  0  0  0  0  0  0  0
  -22.2594   -8.9372   22.1695 C   0  0  0  0  0  0  0  0  0  0  0  0
  -26.1793  -27.0354   18.9026 C   0  0  0  0  0  0  0  0  0  0  0  0
  -21.4754   -7.0699   23.3615 C   0  0  0  0  0  0  0  0  0  0  0  0
  -21.7555   -4.3831   24.0582 C   0  0  0  0  0  0  0  0  0  0  0  0
  -21.6404   -6.7097   24.6989 C   0  0  0  0  0  0  0  0  0  0  0  0
  -25.1329  -10.5965   19.5451 C   0  0  0  0  0  0  0  0  0  0  0  0
  -26.3211  -11.1404   17.7767 C   0  0  0  0  0  0  0  0  0  0  0  0
  -24.4249   -9.5866   17.2881 C   0  0  0  0  0  0  0  0  0  0  0  0
  -25.9702  -30.9990   23.8797 C   0  0  0  0  0  0  0  0  0  0  0  0
  -23.2787  -29.8048   23.0196 C   0  0  0  0  0  0  0  0  0  0  0  0
  -20.4324  -28.6839   21.5098 C   0  0  0  0  0  0  0  0  0  0  0  0
  -28.9309  -15.9961   20.0824 C   0  0  0  0  0  0  0  0  0  0  0  0
  -23.9337  -34.8414   26.5529 C   0  0  0  0  0  0  0  0  0  0  0  0
  -26.8028  -30.2771   21.6543 C   0  0  0  0  0  0  0  0  0  0  0  0
  -25.0976  -28.1469   22.3849 C   0  0  0  0  0  0  0  0  0  0  0  0
  -23.6067  -33.3655   26.3404 C   0  0  0  0  0  0  0  0  0  0  0  0
  -30.4687  -12.8465   19.4563 C   0  0  0  0  0  0  0  0  0  0  0  0
  -24.8537  -32.5090   26.5359 C   0  0  0  0  0  0  0  0  0  0  0  0
  -29.2843  -11.8943   19.2756 C   0  0  0  0  0  0  0  0  0  0  0  0
  -25.5203  -23.7138   17.4900 C   0  0  0  0  0  0  0  0  0  0  0  0
  -26.9107  -24.3019   19.4820 C   0  0  0  0  0  0  0  0  0  0  0  0
  -30.1907  -13.9007   20.5264 C   0  0  0  0  0  0  0  0  0  0  0  0
  -25.3497  -22.2946   18.0248 C   0  0  0  0  0  0  0  0  0  0  0  0
  -26.7376  -22.8854   20.0213 C   0  0  0  0  0  0  0  0  0  0  0  0
  -27.7620  -13.7064   20.1621 C   0  0  0  0  0  0  0  0  0  0  0  0
  -25.9389  -32.8735   25.5156 C   0  0  1  0  0  0  0  0  0  0  0  0
  -25.5547  -30.6094   22.4915 C   0  0  1  0  0  0  0  0  0  0  0  0
  -27.9698  -12.6665   19.0489 C   0  0  2  0  0  0  0  0  0  0  0  0
  -25.7309  -24.7215   18.6128 C   0  0  0  0  0  0  0  0  0  1  0  0
  -17.9491  -28.5451   21.8437 C   0  0  0  0  0  0  0  0  0  0  0  0
  -23.6773  -27.5280   25.0099 C   0  0  0  0  0  0  0  0  0  0  0  0
  -21.3128  -26.8289   24.5753 C   0  0  0  0  0  0  0  0  0  0  0  0
  -21.7878  -29.0728   25.5561 C   0  0  0  0  0  0  0  0  0  0  0  0
  -19.8998  -30.3050   19.0917 C   0  0  0  0  0  0  0  0  0  0  0  0
  -22.3184  -28.6469   23.1211 C   0  0  1  0  0  0  0  0  0  0  0  0
  -19.0946  -29.3553   21.2569 C   0  0  2  0  0  0  0  0  0  0  0  0
  -22.2927  -28.0212   24.5442 C   0  0  0  0  0  0  0  0  0  0  0  0
  -26.0764  -11.4166   20.0153 N   0  0  0  0  0  0  0  0  0  0  0  0
  -26.7833  -11.7302   18.9162 N   0  0  0  0  0  0  0  0  0  0  0  0
  -26.4504  -21.9442   18.9296 N   0  0  0  0  0  0  0  0  0  0  0  0
  -24.5992  -29.5023   22.6658 N   0  0  0  0  0  0  0  0  0  0  0  0
  -28.9323  -14.5944   20.2436 N   0  0  0  0  0  0  0  0  0  0  0  0
  -26.9150  -11.3482   16.5823 N   0  0  0  0  0  0  0  0  0  0  0  0
  -23.3503   -8.8784   17.8430 N   0  0  0  0  0  0  0  0  0  0  0  0
  -27.6823  -16.5410   19.7844 N   0  0  0  0  0  0  0  0  0  0  0  0
  -25.6342  -32.2942   24.2249 N   0  0  0  0  0  0  0  0  0  0  0  0
  -21.0260  -29.1471   22.6649 N   0  0  0  0  0  0  0  0  0  0  0  0
  -18.8604  -29.5085   19.7932 N   0  3  0  0  0  0  0  0  0  0  0  0
  -24.6561   -9.4879   16.0591 O   0  0  0  0  0  0  0  0  0  0  0  0
  -26.5518  -30.1849   24.5872 O   0  0  0  0  0  0  0  0  0  0  0  0
  -22.8731  -30.9470   23.2528 O   0  0  0  0  0  0  0  0  0  0  0  0
  -20.9020  -27.8310   20.7598 O   0  0  0  0  0  0  0  0  0  0  0  0
  -29.9663  -16.6608   20.1730 O   0  0  0  0  0  0  0  0  0  0  0  0
  -21.3353   -8.4031   23.0142 O   0  0  0  0  0  0  0  0  0  0  0  0
  -25.9839  -25.9992   18.0408 O   0  0  0  0  0  0  0  0  0  1  0  0
  -21.8885   -3.0929   24.3927 F   0  0  0  0  0  0  0  0  0  0  0  0
  -21.6641   -7.6498   25.6537 F   0  0  0  0  0  0  0  0  0  0  0  0
  1  2  1  0  0  0  0
  1  5  2  0  0  0  0
  2  6  2  0  0  0  0
  3 12  2  0  0  0  0
  3 19  1  0  0  0  0
  4 13  1  0  0  0  0
  4 19  2  0  0  0  0
  5 21  1  0  0  0  0
  6 23  1  0  0  0  0
  7 14  2  0  0  0  0
  7 22  1  0  0  0  0
  8 10  2  0  0  0  0
  8 25  1  0  0  0  0
  9 11  1  0  0  0  0
  9 25  2  0  0  0  0
 10 26  1  0  0  0  0
 11 26  2  0  0  0  0
 12 27  1  0  0  0  0
 13 27  2  0  0  0  0
 14 28  1  0  0  0  0
 15 16  2  0  0  0  0
 15 29  1  0  0  0  0
 16 30  1  0  0  0  0
 17 24  1  0  0  0  0
 17 28  2  0  0  0  0
 18 30  2  0  0  0  0
 18 31  1  0  0  0  0
 19 32  1  0  0  0  0
 20 32  1  0  0  0  0
 20 33  2  0  0  0  0
 20 34  1  0  0  0  0
 21 23  2  0  0  0  0
 21 39  1  0  0  0  0
 22 24  2  0  0  0  0
 22 40  1  0  0  0  0
 23 52  1  0  0  0  0
 24 41  1  0  0  0  0
 25 66  1  0  0  0  0
 26 71  1  0  0  0  0
 27 80  1  0  0  0  0
 28 81  1  0  0  0  0
 29 31  2  0  0  0  0
 29 80  1  0  0  0  0
 30 82  1  0  0  0  0
 31 83  1  0  0  0  0
 32 64  2  0  0  0  0
 33 65  1  0  0  0  0
 33 69  1  0  0  0  0
 34 70  1  0  0  0  0
 34 75  2  0  0  0  0
 35 53  1  0  0  0  0
 35 72  1  0  0  0  0
 35 76  2  0  0  0  0
 36 61  1  0  0  0  0
 36 67  1  0  0  0  0
 36 77  2  0  0  0  0
 37 62  1  0  0  0  0
 37 73  1  0  0  0  0
 37 78  2  0  0  0  0
 38 68  1  0  0  0  0
 38 71  1  0  0  0  0
 38 79  2  0  0  0  0
 39 42  1  0  0  0  0
 40 53  1  0  0  0  0
 41 67  1  0  0  0  0
 42 44  1  0  0  0  0
 43 45  1  0  0  0  0
 43 48  1  0  0  0  0
 44 52  1  0  0  0  0
 45 54  1  0  0  0  0
 46 49  1  0  0  0  0
 46 55  1  0  0  0  0
 47 50  1  0  0  0  0
 47 55  1  0  0  0  0
 48 68  1  0  0  0  0
 49 66  1  0  0  0  0
 50 66  1  0  0  0  0
 51 54  1  0  0  0  0
 51 68  1  0  0  0  0
 52 72  1  0  0  0  0
 53 67  1  0  0  0  0
 54 65  1  0  0  0  0
 55 81  1  0  0  0  0
 56 62  1  0  0  0  0
 57 63  1  0  0  0  0
 58 63  1  0  0  0  0
 59 63  1  0  0  0  0
 60 74  1  0  0  0  0
 61 63  1  0  0  0  0
 61 73  1  0  0  0  0
 62 74  1  0  0  0  0
 64 65  1  0  0  0  0
M  CHG  1  74   1
M  ISO  4  38 100  55 101  71 100  81 101
M  END
> <Batch ID>
0020

> <Smiles>
CNC(C)C(=O)NC(C(=O)N1Cc2cc([101O:1][101CH:1]3CCN(c4ccc([100NH:0][100C:0](=O)N5CCCC(n6nc(-c7ccc(Oc8ccc(F)cc8F)cc7)c(C(N)=O)c6N)C5)cc4)CC3)ccc2CC1C(=O)NC1CCCc2ccccc21)C(C)(C)C

> <Shape>
0.309

> <Color>
0.105

> <Negative vol penalty>
0.000

$$$$

  -OEChem-04042321083D

 86 95  0     1  0  0  0  0  0999 V2000
  -20.3693  -30.2004   27.3096 C   0  0  0  0  0  0  0  0  0  0  0  0
  -21.5741  -29.7042   26.8223 C   0  0  0  0  0  0  0  0  0  0  0  0
  -24.7330   -7.9045   19.7884 C   0  0  0  0  0  0  0  0  0  0  0  0
  -24.3758   -8.9152   21.9536 C   0  0  0  0  0  0  0  0  0  0  0  0
  -19.2401  -30.2128   26.4919 C   0  0  0  0  0  0  0  0  0  0  0  0
  -21.6502  -29.2191   25.5172 C   0  0  0  0  0  0  0  0  0  0  0  0
  -26.4336  -29.6187   21.7139 C   0  0  0  0  0  0  0  0  0  0  0  0
  -26.4280  -20.3827   19.4140 C   0  0  0  0  0  0  0  0  0  0  0  0
  -28.3163  -19.1877   20.3323 C   0  0  0  0  0  0  0  0  0  0  0  0
  -27.0466  -21.5950   19.7192 C   0  0  0  0  0  0  0  0  0  0  0  0
  -28.9350  -20.4000   20.6375 C   0  0  0  0  0  0  0  0  0  0  0  0
  -23.5834   -7.1331   19.9589 C   0  0  0  0  0  0  0  0  0  0  0  0
  -23.2262   -8.1438   22.1241 C   0  0  0  0  0  0  0  0  0  0  0  0
  -27.4399  -28.7155   21.3742 C   0  0  0  0  0  0  0  0  0  0  0  0
  -20.3970   -6.1802   23.2856 C   0  0  0  0  0  0  0  0  0  0  0  0
  -20.2100   -5.5593   24.5206 C   0  0  0  0  0  0  0  0  0  0  0  0
  -26.1793  -28.0523   19.4274 C   0  0  0  0  0  0  0  0  0  0  0  0
  -22.2763   -4.3434   24.2221 C   0  0  0  0  0  0  0  0  0  0  0  0
  -25.1292   -8.7955   20.7858 C   0  0  0  0  0  0  0  0  0  0  0  0
  -27.6318   -9.1273   20.4191 C   0  0  0  0  0  0  0  0  0  0  0  0
  -19.3047  -29.7365   25.1730 C   0  0  0  0  0  0  0  0  0  0  0  0
  -25.2856  -29.7379   20.9174 C   0  0  0  0  0  0  0  0  0  0  0  0
  -20.5204  -29.2239   24.6815 C   0  0  0  0  0  0  0  0  0  0  0  0
  -25.1610  -28.9596   19.7577 C   0  0  0  0  0  0  0  0  0  0  0  0
  -27.0628  -19.1790   19.7205 C   0  0  0  0  0  0  0  0  0  0  0  0
  -28.3002  -21.6036   20.3310 C   0  0  0  0  0  0  0  0  0  0  0  0
  -22.8300   -7.2528   21.1267 C   0  0  0  0  0  0  0  0  0  0  0  0
  -27.3115  -27.9300   20.2324 C   0  0  0  0  0  0  0  0  0  0  0  0
  -21.5235   -5.8826   22.5188 C   0  0  0  0  0  0  0  0  0  0  0  0
  -21.1497   -4.6410   24.9889 C   0  0  0  0  0  0  0  0  0  0  0  0
  -22.4632   -4.9642   22.9871 C   0  0  0  0  0  0  0  0  0  0  0  0
  -26.3169   -9.5923   20.6106 C   0  0  0  0  0  0  0  0  0  0  0  0
  -28.3867  -10.2692   20.3063 C   0  0  0  0  0  0  0  0  0  0  0  0
  -28.1266   -7.7835   20.3493 C   0  0  0  0  0  0  0  0  0  0  0  0
  -22.1764  -29.2647   21.3787 C   0  0  0  0  0  0  0  0  0  0  0  0
  -21.9412  -30.5069   18.3914 C   0  0  0  0  0  0  0  0  0  0  0  0
  -23.4311  -31.1195   15.3828 C   0  0  0  0  0  0  0  0  0  0  0  0
  -27.2324  -15.6601   18.5138 C   0  0  0  0  0  0  0  0  0  0  0  0
  -18.0459  -29.7266   24.3423 C   0  0  0  0  0  0  0  0  0  0  0  0
  -24.2214  -30.7360   21.2829 C   0  0  0  0  0  0  0  0  0  0  0  0
  -23.9576  -29.0641   18.8580 C   0  0  0  0  0  0  0  0  0  0  0  0
  -18.3030  -29.5404   22.8491 C   0  0  0  0  0  0  0  0  0  0  0  0
  -28.5168  -14.8361   21.6986 C   0  0  0  0  0  0  0  0  0  0  0  0
  -19.2935  -28.4041   22.6156 C   0  0  0  0  0  0  0  0  0  0  0  0
  -28.2165  -13.3394   21.7680 C   0  0  0  0  0  0  0  0  0  0  0  0
  -30.3227  -24.3893   21.6498 C   0  0  0  0  0  0  0  0  0  0  0  0
  -27.3768  -15.6213   21.0474 C   0  0  0  0  0  0  0  0  0  0  0  0
  -30.2217  -22.9135   21.2700 C   0  0  0  0  0  0  0  0  0  0  0  0
  -28.3283  -24.1126   20.3566 C   0  0  0  0  0  0  0  0  0  0  0  0
  -26.6789  -13.6095   19.7870 C   0  0  0  0  0  0  0  0  0  0  0  0
  -20.6489  -28.7118   23.2633 C   0  0  1  0  0  0  0  0  0  0  0  0
  -22.8598  -30.4056   20.6795 C   0  0  1  0  0  0  0  0  0  0  0  0
  -29.4942  -25.0839   20.5729 C   0  0  1  0  0  0  0  0  0  0  0  0
  -27.8341  -12.7902   20.3827 C   0  0  2  0  0  0  0  0  0  0  0  0
  -26.7212  -17.9942   16.2638 C   0  0  0  0  0  0  0  0  0  0  0  0
  -22.9751  -32.1165   13.1255 C   0  0  0  0  0  0  0  0  0  0  0  0
  -20.3444  -28.0238   17.6200 C   0  0  0  0  0  0  0  0  0  0  0  0
  -20.7383  -28.6026   15.2162 C   0  0  0  0  0  0  0  0  0  0  0  0
  -19.4602  -30.1663   16.6805 C   0  0  0  0  0  0  0  0  0  0  0  0
  -25.5411  -33.1653   15.7316 C   0  0  0  0  0  0  0  0  0  0  0  0
  -26.4019  -17.8824   19.3949 C   0  0  0  0  0  0  0  0  0  0  0  0
  -29.0466  -26.4799   20.9691 C   0  0  0  0  0  0  0  0  0  1  0  0
  -27.7622  -17.7626   17.3403 C   0  0  0  0  0  0  0  0  0  0  0  0
  -21.9587  -29.9387   16.9928 C   0  0  1  0  0  0  0  0  0  0  0  0
  -23.4999  -32.3732   14.5295 C   0  0  2  0  0  0  0  0  0  0  0  0
  -20.6473  -29.1793   16.6452 C   0  0  0  0  0  0  0  0  0  0  0  0
  -26.2376  -10.9255   20.6197 N   0  0  0  0  0  0  0  0  0  0  0  0
  -27.5122  -11.3082   20.4326 N   0  0  0  0  0  0  0  0  0  0  0  0
  -28.9129  -22.8017   20.6312 N   0  0  3  0  0  0  0  0  0  0  0  0
  -22.9413  -30.0500   19.2613 N   0  0  0  0  0  0  0  0  0  0  0  0
  -27.0117  -15.0357   19.7502 N   0  0  0  0  0  0  0  0  0  0  0  0
  -29.7066  -10.4759   20.1126 N   0  0  0  0  0  0  0  0  0  0  0  0
  -28.5355   -7.1595   21.5358 N   0  0  0  0  0  0  0  0  0  0  0  0
  -21.3956  -29.6491   22.4519 N   0  0  0  0  0  0  0  0  0  0  0  0
  -22.2566  -31.0553   16.1023 N   0  0  0  0  0  0  0  0  0  0  0  0
  -27.2031  -17.0625   18.4882 N   0  0  0  0  0  0  0  0  0  0  0  0
  -24.9073  -32.8520   14.4250 N   0  3  0  0  0  0  0  0  0  0  0  0
  -28.2192   -7.1603   19.2645 O   0  0  0  0  0  0  0  0  0  0  0  0
  -22.3439  -28.1204   20.9734 O   0  0  0  0  0  0  0  0  0  0  0  0
  -21.0763  -31.3311   18.6984 O   0  0  0  0  0  0  0  0  0  0  0  0
  -24.3278  -30.2793   15.4056 O   0  0  0  0  0  0  0  0  0  0  0  0
  -27.4366  -15.0013   17.4859 O   0  0  0  0  0  0  0  0  0  0  0  0
  -21.7081   -6.5004   21.2933 O   0  0  0  0  0  0  0  0  0  0  0  0
  -28.2920  -27.0472   19.8990 O   0  0  0  0  0  0  0  0  0  1  0  0
  -20.9708   -4.0460   26.1755 F   0  0  0  0  0  0  0  0  0  0  0  0
  -23.5481   -4.6752   22.2554 F   0  0  0  0  0  0  0  0  0  0  0  0
  1  2  1  0  0  0  0
  1  5  2  0  0  0  0
  2  6  2  0  0  0  0
  3 12  2  0  0  0  0
  3 19  1  0  0  0  0
  4 13  1  0  0  0  0
  4 19  2  0  0  0  0
  5 21  1  0  0  0  0
  6 23  1  0  0  0  0
  7 14  2  0  0  0  0
  7 22  1  0  0  0  0
  8 10  2  0  0  0  0
  8 25  1  0  0  0  0
  9 11  1  0  0  0  0
  9 25  2  0  0  0  0
 10 26  1  0  0  0  0
 11 26  2  0  0  0  0
 12 27  1  0  0  0  0
 13 27  2  0  0  0  0
 14 28  1  0  0  0  0
 15 16  2  0  0  0  0
 15 29  1  0  0  0  0
 16 30  1  0  0  0  0
 17 24  1  0  0  0  0
 17 28  2  0  0  0  0
 18 30  2  0  0  0  0
 18 31  1  0  0  0  0
 19 32  1  0  0  0  0
 20 32  1  0  0  0  0
 20 33  2  0  0  0  0
 20 34  1  0  0  0  0
 21 23  2  0  0  0  0
 21 39  1  0  0  0  0
 22 24  2  0  0  0  0
 22 40  1  0  0  0  0
 23 51  1  0  0  0  0
 24 41  1  0  0  0  0
 25 61  1  0  0  0  0
 26 69  1  0  0  0  0
 27 83  1  0  0  0  0
 28 84  1  0  0  0  0
 29 31  2  0  0  0  0
 29 83  1  0  0  0  0
 30 85  1  0  0  0  0
 31 86  1  0  0  0  0
 32 67  2  0  0  0  0
 33 68  1  0  0  0  0
 33 72  1  0  0  0  0
 34 73  1  0  0  0  0
 34 78  2  0  0  0  0
 35 52  1  0  0  0  0
 35 74  1  0  0  0  0
 35 79  2  0  0  0  0
 36 64  1  0  0  0  0
 36 70  1  0  0  0  0
 36 80  2  0  0  0  0
 37 65  1  0  0  0  0
 37 75  1  0  0  0  0
 37 81  2  0  0  0  0
 38 71  1  0  0  0  0
 38 76  1  0  0  0  0
 38 82  2  0  0  0  0
 39 42  1  0  0  0  0
 40 52  1  0  0  0  0
 41 70  1  0  0  0  0
 42 44  1  0  0  0  0
 43 45  1  0  0  0  0
 43 47  1  0  0  0  0
 44 51  1  0  0  0  0
 45 54  1  0  0  0  0
 46 48  1  0  0  0  0
 46 53  1  0  0  0  0
 47 71  1  0  0  0  0
 48 69  1  0  0  0  0
 49 53  1  0  0  0  0
 49 69  1  0  0  0  0
 50 54  1  0  0  0  0
 50 71  1  0  0  0  0
 51 74  1  0  0  0  0
 52 70  1  0  0  0  0
 53 62  1  0  0  0  0
 54 68  1  0  0  0  0
 55 63  1  0  0  0  0
 56 65  1  0  0  0  0
 57 66  1  0  0  0  0
 58 66  1  0  0  0  0
 59 66  1  0  0  0  0
 60 77  1  0  0  0  0
 61 76  1  0  0  0  0
 62 84  1  0  0  0  0
 63 76  1  0  0  0  0
 64 66  1  0  0  0  0
 64 75  1  0  0  0  0
 65 77  1  0  0  0  0
 67 68  1  0  0  0  0
M  CHG  1  77   1
M  ISO  4  38 100  62 101  76 100  84 101
M  END
> <Batch ID>
0020

> <Smiles>
CC[100N:0](Cc1ccc(N2CCC([101CH2:1][101O:1]c3ccc4c(c3)CN(C(=O)C(NC(=O)C(C)NC)C(C)(C)C)C(C(=O)NC3CCCc5ccccc53)C4)C2)cc1)[100C:0](=O)N1CCCC(n2nc(-c3ccc(Oc4ccc(F)cc4F)cc3)c(C(N)=O)c2N)C1

> <Shape>
0.256

> <Color>
0.104

> <Negative vol penalty>
0.000

$$$$

  -OEChem-04042321083D

 85 94  0     1  0  0  0  0  0999 V2000
  -16.6367  -30.3162   23.1380 C   0  0  0  0  0  0  0  0  0  0  0  0
  -17.6575  -30.6485   22.2531 C   0  0  0  0  0  0  0  0  0  0  0  0
  -26.8477  -12.8161   20.0542 C   0  0  0  0  0  0  0  0  0  0  0  0
  -26.8828  -13.7834   22.2678 C   0  0  0  0  0  0  0  0  0  0  0  0
  -16.9337  -29.6418   24.3215 C   0  0  0  0  0  0  0  0  0  0  0  0
  -18.9761  -30.3074   22.5518 C   0  0  0  0  0  0  0  0  0  0  0  0
  -25.0984  -28.3714   19.3759 C   0  0  0  0  0  0  0  0  0  0  0  0
  -32.2245  -23.8827   18.6767 C   0  0  0  0  0  0  0  0  0  0  0  0
  -32.3828  -22.5885   19.1721 C   0  0  0  0  0  0  0  0  0  0  0  0
  -26.3454  -11.6267   20.5819 C   0  0  0  0  0  0  0  0  0  0  0  0
  -26.3804  -12.5940   22.7955 C   0  0  0  0  0  0  0  0  0  0  0  0
  -26.4465  -28.7237   19.3306 C   0  0  0  0  0  0  0  0  0  0  0  0
  -23.3633  -10.4341   21.6393 C   0  0  0  0  0  0  0  0  0  0  0  0
  -22.3012   -9.8258   20.9705 C   0  0  0  0  0  0  0  0  0  0  0  0
  -26.8314  -27.4892   21.3670 C   0  0  0  0  0  0  0  0  0  0  0  0
  -30.1482  -24.0947   19.8937 C   0  0  0  0  0  0  0  0  0  0  0  0
  -23.6482   -7.8495   20.6289 C   0  0  0  0  0  0  0  0  0  0  0  0
  -27.1165  -13.8945   20.8971 C   0  0  0  0  0  0  0  0  0  0  0  0
  -26.8960  -16.2249   19.8832 C   0  0  0  0  0  0  0  0  0  0  0  0
  -18.2555  -29.2838   24.6304 C   0  0  0  0  0  0  0  0  0  0  0  0
  -24.6036  -27.5830   20.4248 C   0  0  0  0  0  0  0  0  0  0  0  0
  -19.2913  -29.6288   23.7413 C   0  0  0  0  0  0  0  0  0  0  0  0
  -25.4771  -27.1261   21.4220 C   0  0  0  0  0  0  0  0  0  0  0  0
  -31.1073  -24.6359   19.0375 C   0  0  0  0  0  0  0  0  0  0  0  0
  -31.4237  -22.0473   20.0282 C   0  0  0  0  0  0  0  0  0  0  0  0
  -26.1117  -11.5156   21.9525 C   0  0  0  0  0  0  0  0  0  0  0  0
  -27.3127  -28.2851   20.3278 C   0  0  0  0  0  0  0  0  0  0  0  0
  -24.5680   -9.7502   21.8029 C   0  0  0  0  0  0  0  0  0  0  0  0
  -22.4436   -8.5335   20.4653 C   0  0  0  0  0  0  0  0  0  0  0  0
  -30.3064  -22.8004   20.3890 C   0  0  0  0  0  0  0  0  0  0  0  0
  -24.7104   -8.4578   21.2977 C   0  0  0  0  0  0  0  0  0  0  0  0
  -27.6360  -15.1232   20.3527 C   0  0  0  0  0  0  0  0  0  0  0  0
  -27.8466  -17.1280   19.4744 C   0  0  0  0  0  0  0  0  0  0  0  0
  -25.4761  -16.4150   19.8222 C   0  0  0  0  0  0  0  0  0  0  0  0
  -22.4508  -28.0046   22.7251 C   0  0  0  0  0  0  0  0  0  0  0  0
  -23.0350  -24.8679   23.3102 C   0  0  0  0  0  0  0  0  0  0  0  0
  -25.1773  -22.2235   23.0566 C   0  0  0  0  0  0  0  0  0  0  0  0
  -32.6371  -19.8527   20.2685 C   0  0  0  0  0  0  0  0  0  0  0  0
  -18.5336  -28.5972   25.9441 C   0  0  0  0  0  0  0  0  0  0  0  0
  -23.1520  -27.1894   20.4448 C   0  0  0  0  0  0  0  0  0  0  0  0
  -24.9999  -26.2608   22.5586 C   0  0  0  0  0  0  0  0  0  0  0  0
  -19.9102  -27.9407   26.0089 C   0  0  0  0  0  0  0  0  0  0  0  0
  -32.8408  -16.5955   18.8449 C   0  0  0  0  0  0  0  0  0  0  0  0
  -32.6768  -28.4673   20.3441 C   0  0  0  0  0  0  0  0  0  0  0  0
  -20.9811  -28.8937   25.4877 C   0  0  0  0  0  0  0  0  0  0  0  0
  -31.4440  -16.0128   19.0716 C   0  0  0  0  0  0  0  0  0  0  0  0
  -31.4697  -29.3337   20.0441 C   0  0  0  0  0  0  0  0  0  0  0  0
  -33.2884  -17.4679   20.0164 C   0  0  0  0  0  0  0  0  0  0  0  0
  -30.9490  -17.9448   20.6237 C   0  0  0  0  0  0  0  0  0  0  0  0
  -32.0919  -27.0757   20.4895 C   0  0  0  0  0  0  0  0  0  0  0  0
  -20.7311  -29.2541   24.0183 C   0  0  1  0  0  0  0  0  0  0  0  0
  -22.6549  -26.8103   21.8364 C   0  0  1  0  0  0  0  0  0  0  0  0
  -30.4282  -17.1114   19.4414 C   0  0  2  0  0  0  0  0  0  0  0  0
  -30.6832  -28.4831   19.0578 C   0  0  2  0  0  0  0  0  0  0  0  0
  -25.3921  -19.7974   23.6610 C   0  0  0  0  0  0  0  0  0  0  0  0
  -23.5961  -25.6419   26.2078 C   0  0  0  0  0  0  0  0  0  0  0  0
  -24.7001  -23.4160   26.5155 C   0  0  0  0  0  0  0  0  0  0  0  0
  -22.2788  -23.5346   25.9273 C   0  0  0  0  0  0  0  0  0  0  0  0
  -25.4090  -21.4174   20.2184 C   0  0  0  0  0  0  0  0  0  0  0  0
  -30.9363  -26.0277   18.5040 C   0  0  0  0  0  0  0  0  0  0  0  0
  -29.2071  -28.8303   18.9975 C   0  0  0  0  0  0  0  0  0  1  0  0
  -24.0096  -24.1051   24.1748 C   0  0  1  0  0  0  0  0  0  0  0  0
  -24.9620  -20.7934   22.5953 C   0  0  2  0  0  0  0  0  0  0  0  0
  -23.6551  -24.1923   25.6861 C   0  0  0  0  0  0  0  0  0  0  0  0
  -28.9550  -15.3074   20.2518 N   0  0  0  0  0  0  0  0  0  0  0  0
  -29.0513  -16.5353   19.7142 N   0  0  0  0  0  0  0  0  0  0  0  0
  -23.5706  -25.9080   22.5374 N   0  0  0  0  0  0  0  0  0  0  0  0
  -32.2790  -18.4884   20.3067 N   0  0  0  0  0  0  0  0  0  0  0  0
  -27.7612  -18.3633   18.9367 N   0  0  0  0  0  0  0  0  0  0  0  0
  -24.6439  -15.3862   20.2841 N   0  0  0  0  0  0  0  0  0  0  0  0
  -31.5868  -20.7320   20.5295 N   0  0  0  0  0  0  0  0  0  0  0  0
  -21.1478  -28.1705   23.1542 N   0  0  0  0  0  0  0  0  0  0  0  0
  -24.0458  -22.7455   23.6470 N   0  0  0  0  0  0  0  0  0  0  0  0
  -30.8730  -27.0662   19.5822 N   0  3  1  0  0  0  0  0  0  0  0  0
  -25.7466  -20.5249   21.3570 N   0  3  0  0  0  0  0  0  0  0  0  0
  -24.9606  -17.4593   19.3562 O   0  0  0  0  0  0  0  0  0  0  0  0
  -23.4052  -28.7216   23.0023 O   0  0  0  0  0  0  0  0  0  0  0  0
  -21.8437  -24.5480   23.3149 O   0  0  0  0  0  0  0  0  0  0  0  0
  -26.2438  -22.8168   22.9115 O   0  0  0  0  0  0  0  0  0  0  0  0
  -33.7844  -20.2150   19.9956 O   0  0  0  0  0  0  0  0  0  0  0  0
  -25.6213  -10.3552   22.4678 O   0  0  0  0  0  0  0  0  0  0  0  0
  -28.6290  -28.6281   20.2863 O   0  0  0  0  0  0  0  0  0  1  0  0
  -21.4230   -7.9488   19.8244 F   0  0  0  0  0  0  0  0  0  0  0  0
  -29.3776  -22.2898   21.2100 F   0  0  0  0  0  0  0  0  0  0  0  0
  -25.8648   -7.7953   21.4528 F   0  0  0  0  0  0  0  0  0  0  0  0
  1  2  1  0  0  0  0
  1  5  2  0  0  0  0
  2  6  2  0  0  0  0
  3 10  2  0  0  0  0
  3 18  1  0  0  0  0
  4 11  1  0  0  0  0
  4 18  2  0  0  0  0
  5 20  1  0  0  0  0
  6 22  1  0  0  0  0
  7 12  2  0  0  0  0
  7 21  1  0  0  0  0
  8  9  2  0  0  0  0
  8 24  1  0  0  0  0
  9 25  1  0  0  0  0
 10 26  1  0  0  0  0
 11 26  2  0  0  0  0
 12 27  1  0  0  0  0
 13 14  2  0  0  0  0
 13 28  1  0  0  0  0
 14 29  1  0  0  0  0
 15 23  1  0  0  0  0
 15 27  2  0  0  0  0
 16 24  2  0  0  0  0
 16 30  1  0  0  0  0
 17 29  2  0  0  0  0
 17 31  1  0  0  0  0
 18 32  1  0  0  0  0
 19 32  1  0  0  0  0
 19 33  2  0  0  0  0
 19 34  1  0  0  0  0
 20 22  2  0  0  0  0
 20 39  1  0  0  0  0
 21 23  2  0  0  0  0
 21 40  1  0  0  0  0
 22 51  1  0  0  0  0
 23 41  1  0  0  0  0
 24 60  1  0  0  0  0
 25 30  2  0  0  0  0
 25 71  1  0  0  0  0
 26 81  1  0  0  0  0
 27 82  1  0  0  0  0
 28 31  2  0  0  0  0
 28 81  1  0  0  0  0
 29 83  1  0  0  0  0
 30 84  1  0  0  0  0
 31 85  1  0  0  0  0
 32 65  2  0  0  0  0
 33 66  1  0  0  0  0
 33 69  1  0  0  0  0
 34 70  1  0  0  0  0
 34 76  2  0  0  0  0
 35 52  1  0  0  0  0
 35 72  1  0  0  0  0
 35 77  2  0  0  0  0
 36 62  1  0  0  0  0
 36 67  1  0  0  0  0
 36 78  2  0  0  0  0
 37 63  1  0  0  0  0
 37 73  1  0  0  0  0
 37 79  2  0  0  0  0
 38 68  1  0  0  0  0
 38 71  1  0  0  0  0
 38 80  2  0  0  0  0
 39 42  1  0  0  0  0
 40 52  1  0  0  0  0
 41 67  1  0  0  0  0
 42 45  1  0  0  0  0
 43 46  1  0  0  0  0
 43 48  1  0  0  0  0
 44 47  1  0  0  0  0
 44 50  1  0  0  0  0
 45 51  1  0  0  0  0
 46 53  1  0  0  0  0
 47 54  1  0  0  0  0
 48 68  1  0  0  0  0
 49 53  1  0  0  0  0
 49 68  1  0  0  0  0
 50 74  1  0  0  0  0
 51 72  1  0  0  0  0
 52 67  1  0  0  0  0
 53 66  1  0  0  0  0
 54 61  1  0  0  0  0
 54 74  1  0  0  0  0
 55 63  1  0  0  0  0
 56 64  1  0  0  0  0
 57 64  1  0  0  0  0
 58 64  1  0  0  0  0
 59 75  1  0  0  0  0
 60 74  1  0  0  0  0
 61 82  1  0  0  0  0
 62 64  1  0  0  0  0
 62 73  1  0  0  0  0
 63 75  1  0  0  0  0
 65 66  1  0  0  0  0
M  CHG  2  74   1  75   1
M  ISO  4  38 100  61 101  71 100  82 101
M  END
> <Batch ID>
0020

> <Smiles>
CNC(C)C(=O)NC(C(=O)N1Cc2cc([101O:1][101CH2:1]C3CCCN3Cc3ccc([100NH:0][100C:0](=O)N4CCCC(n5nc(-c6ccc(Oc7ccc(F)cc7F)cc6)c(C(N)=O)c5N)C4)c(F)c3)ccc2CC1C(=O)NC1CCCc2ccccc21)C(C)(C)C

> <Shape>
0.219

> <Color>
0.078

> <Negative vol penalty>
0.000

$$$$

  -OEChem-04042321083D

 85 94  0     1  0  0  0  0  0999 V2000
  -17.8618  -29.9267   19.6587 C   0  0  0  0  0  0  0  0  0  0  0  0
  -19.2288  -29.8456   19.4134 C   0  0  0  0  0  0  0  0  0  0  0  0
  -31.5931  -18.1695   20.5110 C   0  0  0  0  0  0  0  0  0  0  0  0
  -30.3975  -17.0840   22.3081 C   0  0  0  0  0  0  0  0  0  0  0  0
  -34.0408  -25.5646   24.7106 C   0  0  0  0  0  0  0  0  0  0  0  0
  -17.3224  -29.3291   20.7970 C   0  0  0  0  0  0  0  0  0  0  0  0
  -20.0573  -29.1676   20.3068 C   0  0  0  0  0  0  0  0  0  0  0  0
  -25.0439  -25.8863   18.9384 C   0  0  0  0  0  0  0  0  0  0  0  0
  -33.9399  -26.4504   23.6379 C   0  0  0  0  0  0  0  0  0  0  0  0
  -31.7966  -16.9326   19.8993 C   0  0  0  0  0  0  0  0  0  0  0  0
  -30.6011  -15.8471   21.6964 C   0  0  0  0  0  0  0  0  0  0  0  0
  -26.4047  -26.1874   18.9772 C   0  0  0  0  0  0  0  0  0  0  0  0
  -29.2643  -14.0832   19.1424 C   0  0  0  0  0  0  0  0  0  0  0  0
  -28.1773  -13.2124   19.0673 C   0  0  0  0  0  0  0  0  0  0  0  0
  -26.5603  -25.1749   21.1612 C   0  0  0  0  0  0  0  0  0  0  0  0
  -31.6005  -26.7885   24.1371 C   0  0  0  0  0  0  0  0  0  0  0  0
  -29.4031  -11.5717   20.3490 C   0  0  0  0  0  0  0  0  0  0  0  0
  -30.8936  -18.2452   21.7155 C   0  0  0  0  0  0  0  0  0  0  0  0
  -32.9216  -25.2907   25.4967 C   0  0  0  0  0  0  0  0  0  0  0  0
  -30.0047  -20.6343   21.8142 C   0  0  0  0  0  0  0  0  0  0  0  0
  -18.1433  -28.6352   21.6999 C   0  0  0  0  0  0  0  0  0  0  0  0
  -24.4278  -25.2359   20.0172 C   0  0  0  0  0  0  0  0  0  0  0  0
  -19.5286  -28.5613   21.4590 C   0  0  0  0  0  0  0  0  0  0  0  0
  -25.1921  -24.8644   21.1326 C   0  0  0  0  0  0  0  0  0  0  0  0
  -32.7197  -27.0623   23.3512 C   0  0  0  0  0  0  0  0  0  0  0  0
  -31.3006  -15.7714   20.4919 C   0  0  0  0  0  0  0  0  0  0  0  0
  -27.1625  -25.8343   20.0900 C   0  0  0  0  0  0  0  0  0  0  0  0
  -30.4208  -13.6983   19.8208 C   0  0  0  0  0  0  0  0  0  0  0  0
  -28.2467  -11.9566   19.6706 C   0  0  0  0  0  0  0  0  0  0  0  0
  -31.7014  -25.9026   25.2099 C   0  0  0  0  0  0  0  0  0  0  0  0
  -30.4902  -12.4425   20.4241 C   0  0  0  0  0  0  0  0  0  0  0  0
  -30.6835  -19.5225   22.3482 C   0  0  0  0  0  0  0  0  0  0  0  0
  -30.0815  -21.5888   22.7988 C   0  0  0  0  0  0  0  0  0  0  0  0
  -30.7783  -27.9136   20.4624 C   0  0  0  0  0  0  0  0  0  0  0  0
  -33.0320  -24.3573   26.6251 C   0  0  0  0  0  0  0  0  0  0  0  0
  -29.3622  -20.7902   20.5420 C   0  0  0  0  0  0  0  0  0  0  0  0
  -22.1046  -25.9803   22.0550 C   0  0  0  0  0  0  0  0  0  0  0  0
  -22.5033  -22.9107   23.0251 C   0  0  0  0  0  0  0  0  0  0  0  0
  -24.5458  -20.1862   23.2525 C   0  0  0  0  0  0  0  0  0  0  0  0
  -17.5214  -28.0458   22.9411 C   0  0  0  0  0  0  0  0  0  0  0  0
  -22.9646  -24.8943   19.9485 C   0  0  0  0  0  0  0  0  0  0  0  0
  -24.5826  -24.1467   22.3081 C   0  0  0  0  0  0  0  0  0  0  0  0
  -18.4135  -27.0256   23.6437 C   0  0  0  0  0  0  0  0  0  0  0  0
  -31.5747  -21.2541   27.6191 C   0  0  0  0  0  0  0  0  0  0  0  0
  -19.8368  -27.5592   23.7713 C   0  0  0  0  0  0  0  0  0  0  0  0
  -31.1736  -20.6066   26.2925 C   0  0  0  0  0  0  0  0  0  0  0  0
  -31.3023  -25.7700   19.5558 C   0  0  0  0  0  0  0  0  0  0  0  0
  -32.8728  -22.0470   27.4895 C   0  0  0  0  0  0  0  0  0  0  0  0
  -32.4718  -26.2628   20.3871 C   0  0  0  0  0  0  0  0  0  0  0  0
  -32.4676  -22.4106   25.0794 C   0  0  0  0  0  0  0  0  0  0  0  0
  -20.4563  -27.8134   22.3918 C   0  0  1  0  0  0  0  0  0  0  0  0
  -30.5186  -27.0469   19.2429 C   0  0  1  0  0  0  0  0  0  0  0  0
  -22.3339  -24.6887   21.3223 C   0  0  1  0  0  0  0  0  0  0  0  0
  -31.1372  -21.6436   25.1542 C   0  0  1  0  0  0  0  0  0  0  0  0
  -25.2277  -17.8218   23.7446 C   0  0  0  0  0  0  0  0  0  0  0  0
  -22.8449  -23.9832   25.8612 C   0  0  0  0  0  0  0  0  0  0  0  0
  -23.8233  -21.7705   26.5054 C   0  0  0  0  0  0  0  0  0  0  0  0
  -21.4689  -21.9018   25.6917 C   0  0  0  0  0  0  0  0  0  0  0  0
  -23.7103  -19.2637   20.5673 C   0  0  0  0  0  0  0  0  0  0  0  0
  -32.6106  -28.0155   22.1963 C   0  0  0  0  0  0  0  0  0  0  0  0
  -29.0427  -26.7983   18.9986 C   0  0  0  0  0  0  0  0  0  1  0  0
  -23.3667  -22.2174   24.0513 C   0  0  1  0  0  0  0  0  0  0  0  0
  -24.3108  -18.7214   22.9304 C   0  0  2  0  0  0  0  0  0  0  0  0
  -22.8873  -22.4835   25.5062 C   0  0  0  0  0  0  0  0  0  0  0  0
  -31.1567  -19.7485   23.5766 N   0  0  0  0  0  0  0  0  0  0  0  0
  -30.7749  -21.0133   23.8227 N   0  0  0  0  0  0  0  0  0  0  0  0
  -31.9345  -27.4196   21.0645 N   0  0  0  0  0  0  0  0  0  0  0  0
  -32.7872  -23.0029   26.3860 N   0  0  0  0  0  0  0  0  0  0  0  0
  -23.1469  -23.8405   22.1962 N   0  0  0  0  0  0  0  0  0  0  0  0
  -29.6230  -22.8560   22.8800 N   0  0  0  0  0  0  0  0  0  0  0  0
  -28.0070  -20.4501   20.4318 N   0  0  0  0  0  0  0  0  0  0  0  0
  -20.8818  -26.5672   21.7914 N   0  0  0  0  0  0  0  0  0  0  0  0
  -23.3908  -20.8071   23.6786 N   0  0  0  0  0  0  0  0  0  0  0  0
  -24.5612  -18.4624   21.4843 N   0  3  0  0  0  0  0  0  0  0  0  0
  -30.1121  -28.8822   20.7957 O   0  0  0  0  0  0  0  0  0  0  0  0
  -33.3246  -24.8518   27.7128 O   0  0  0  0  0  0  0  0  0  0  0  0
  -29.9760  -21.2029   19.5289 O   0  0  0  0  0  0  0  0  0  0  0  0
  -22.9724  -26.4116   22.8051 O   0  0  0  0  0  0  0  0  0  0  0  0
  -21.3036  -22.6322   22.9567 O   0  0  0  0  0  0  0  0  0  0  0  0
  -25.6450  -20.7247   23.1410 O   0  0  0  0  0  0  0  0  0  0  0  0
  -31.4988  -14.5643   19.8951 O   0  0  0  0  0  0  0  0  0  0  0  0
  -28.4907  -26.1276   20.1307 O   0  0  0  0  0  0  0  0  0  1  0  0
  -27.2022  -11.1211   19.5997 F   0  0  0  0  0  0  0  0  0  0  0  0
  -30.6194  -25.6477   25.9594 F   0  0  0  0  0  0  0  0  0  0  0  0
  -31.5981  -12.0676   21.0782 F   0  0  0  0  0  0  0  0  0  0  0  0
  1  2  1  0  0  0  0
  1  6  2  0  0  0  0
  2  7  2  0  0  0  0
  3 10  2  0  0  0  0
  3 18  1  0  0  0  0
  4 11  1  0  0  0  0
  4 18  2  0  0  0  0
  5  9  2  0  0  0  0
  5 19  1  0  0  0  0
  6 21  1  0  0  0  0
  7 23  1  0  0  0  0
  8 12  2  0  0  0  0
  8 22  1  0  0  0  0
  9 25  1  0  0  0  0
 10 26  1  0  0  0  0
 11 26  2  0  0  0  0
 12 27  1  0  0  0  0
 13 14  2  0  0  0  0
 13 28  1  0  0  0  0
 14 29  1  0  0  0  0
 15 24  1  0  0  0  0
 15 27  2  0  0  0  0
 16 25  2  0  0  0  0
 16 30  1  0  0  0  0
 17 29  2  0  0  0  0
 17 31  1  0  0  0  0
 18 32  1  0  0  0  0
 19 30  2  0  0  0  0
 19 35  1  0  0  0  0
 20 32  1  0  0  0  0
 20 33  2  0  0  0  0
 20 36  1  0  0  0  0
 21 23  2  0  0  0  0
 21 40  1  0  0  0  0
 22 24  2  0  0  0  0
 22 41  1  0  0  0  0
 23 51  1  0  0  0  0
 24 42  1  0  0  0  0
 25 60  1  0  0  0  0
 26 81  1  0  0  0  0
 27 82  1  0  0  0  0
 28 31  2  0  0  0  0
 28 81  1  0  0  0  0
 29 83  1  0  0  0  0
 30 84  1  0  0  0  0
 31 85  1  0  0  0  0
 32 65  2  0  0  0  0
 33 66  1  0  0  0  0
 33 70  1  0  0  0  0
 34 52  1  0  0  0  0
 34 67  1  0  0  0  0
 34 75  2  0  0  0  0
 35 68  1  0  0  0  0
 35 76  2  0  0  0  0
 36 71  1  0  0  0  0
 36 77  2  0  0  0  0
 37 53  1  0  0  0  0
 37 72  1  0  0  0  0
 37 78  2  0  0  0  0
 38 62  1  0  0  0  0
 38 69  1  0  0  0  0
 38 79  2  0  0  0  0
 39 63  1  0  0  0  0
 39 73  1  0  0  0  0
 39 80  2  0  0  0  0
 40 43  1  0  0  0  0
 41 53  1  0  0  0  0
 42 69  1  0  0  0  0
 43 45  1  0  0  0  0
 44 46  1  0  0  0  0
 44 48  1  0  0  0  0
 45 51  1  0  0  0  0
 46 54  1  0  0  0  0
 47 49  1  0  0  0  0
 47 52  1  0  0  0  0
 48 68  1  0  0  0  0
 49 67  1  0  0  0  0
 50 54  1  0  0  0  0
 50 68  1  0  0  0  0
 51 72  1  0  0  0  0
 52 61  1  0  0  0  0
 53 69  1  0  0  0  0
 54 66  1  0  0  0  0
 55 63  1  0  0  0  0
 56 64  1  0  0  0  0
 57 64  1  0  0  0  0
 58 64  1  0  0  0  0
 59 74  1  0  0  0  0
 60 67  1  0  0  0  0
 61 82  1  0  0  0  0
 62 64  1  0  0  0  0
 62 73  1  0  0  0  0
 63 74  1  0  0  0  0
 65 66  1  0  0  0  0
M  CHG  1  74   1
M  ISO  4  19 100  35 100  61 101  82 101
M  END
> <Batch ID>
0020

> <Smiles>
CNC(C)C(=O)NC(C(=O)N1Cc2cc([101O:1][101CH2:1]C3CCN(Cc4cc[100c:0]([100C:0](=O)N5CCCC(n6nc(-c7ccc(Oc8ccc(F)cc8F)cc7)c(C(N)=O)c6N)C5)c(F)c4)C3=O)ccc2CC1C(=O)NC1CCCc2ccccc21)C(C)(C)C

> <Shape>
0.166

> <Color>
0.070

> <Negative vol penalty>
0.000

$$$$

  -OEChem-04042321083D

 85 93  0     1  0  0  0  0  0999 V2000
  -18.8471  -28.5665   16.6182 C   0  0  0  0  0  0  0  0  0  0  0  0
  -20.2285  -28.4066   16.6579 C   0  0  0  0  0  0  0  0  0  0  0  0
  -23.3913   -9.3224   20.4449 C   0  0  0  0  0  0  0  0  0  0  0  0
  -23.2304  -11.0541   22.1220 C   0  0  0  0  0  0  0  0  0  0  0  0
  -18.2589  -29.6853   17.2066 C   0  0  0  0  0  0  0  0  0  0  0  0
  -21.0226  -29.3660   17.2850 C   0  0  0  0  0  0  0  0  0  0  0  0
  -24.5764  -27.3103   20.2497 C   0  0  0  0  0  0  0  0  0  0  0  0
  -31.7640  -18.9166   20.5181 C   0  0  0  0  0  0  0  0  0  0  0  0
  -31.4614  -17.5622   20.3786 C   0  0  0  0  0  0  0  0  0  0  0  0
  -22.4793   -8.5457   21.1594 C   0  0  0  0  0  0  0  0  0  0  0  0
  -22.3184  -10.2774   22.8365 C   0  0  0  0  0  0  0  0  0  0  0  0
  -25.7090  -26.7940   19.6217 C   0  0  0  0  0  0  0  0  0  0  0  0
  -22.5105   -6.5383   23.8785 C   0  0  0  0  0  0  0  0  0  0  0  0
  -22.8044   -5.1851   24.0464 C   0  0  0  0  0  0  0  0  0  0  0  0
  -26.9267  -28.7995   20.1820 C   0  0  0  0  0  0  0  0  0  0  0  0
  -29.3296  -18.1393   19.3990 C   0  0  0  0  0  0  0  0  0  0  0  0
  -20.7628   -4.5989   22.8951 C   0  0  0  0  0  0  0  0  0  0  0  0
  -23.7669  -10.5766   20.9262 C   0  0  0  0  0  0  0  0  0  0  0  0
  -24.4200  -12.3239   19.1860 C   0  0  0  0  0  0  0  0  0  0  0  0
  -19.0453  -30.6541   17.8497 C   0  0  0  0  0  0  0  0  0  0  0  0
  -24.6074  -28.5819   20.8401 C   0  0  0  0  0  0  0  0  0  0  0  0
  -20.4444  -30.4995   17.8814 C   0  0  0  0  0  0  0  0  0  0  0  0
  -25.7940  -29.3287   20.8191 C   0  0  0  0  0  0  0  0  0  0  0  0
  -30.8494  -19.8825   20.0981 C   0  0  0  0  0  0  0  0  0  0  0  0
  -30.2442  -17.1735   19.8191 C   0  0  0  0  0  0  0  0  0  0  0  0
  -21.9428   -9.0232   22.3552 C   0  0  0  0  0  0  0  0  0  0  0  0
  -26.8835  -27.5398   19.5852 C   0  0  0  0  0  0  0  0  0  0  0  0
  -21.3427   -6.9218   23.2191 C   0  0  0  0  0  0  0  0  0  0  0  0
  -21.9305   -4.2154   23.5546 C   0  0  0  0  0  0  0  0  0  0  0  0
  -29.6322  -19.4938   19.5386 C   0  0  0  0  0  0  0  0  0  0  0  0
  -20.4689   -5.9521   22.7273 C   0  0  0  0  0  0  0  0  0  0  0  0
  -24.7094  -11.3792   20.1889 C   0  0  0  0  0  0  0  0  0  0  0  0
  -25.6479  -12.8077   18.8054 C   0  0  0  0  0  0  0  0  0  0  0  0
  -23.1545  -12.7279   18.6467 C   0  0  0  0  0  0  0  0  0  0  0  0
  -23.0630  -31.3177   20.3565 C   0  0  0  0  0  0  0  0  0  0  0  0
  -24.6596  -32.2397   23.0255 C   0  0  0  0  0  0  0  0  0  0  0  0
  -27.3461  -31.8140   25.0866 C   0  0  0  0  0  0  0  0  0  0  0  0
  -30.7308  -14.7122   20.0464 C   0  0  0  0  0  0  0  0  0  0  0  0
  -18.3682  -31.8703   18.4301 C   0  0  0  0  0  0  0  0  0  0  0  0
  -23.3850  -29.1135   21.5370 C   0  0  0  0  0  0  0  0  0  0  0  0
  -25.8852  -30.6906   21.4558 C   0  0  0  0  0  0  0  0  0  0  0  0
  -19.2487  -32.6522   19.4016 C   0  0  0  0  0  0  0  0  0  0  0  0
  -30.3137  -11.1792   19.9008 C   0  0  0  0  0  0  0  0  0  0  0  0
  -20.6431  -32.8517   18.8161 C   0  0  0  0  0  0  0  0  0  0  0  0
  -28.7947  -10.9940   19.8803 C   0  0  0  0  0  0  0  0  0  0  0  0
  -30.7310  -12.3435   20.7975 C   0  0  0  0  0  0  0  0  0  0  0  0
  -28.5434  -13.4338   20.4898 C   0  0  0  0  0  0  0  0  0  0  0  0
  -21.3374  -31.5060   18.5739 C   0  0  1  0  0  0  0  0  0  0  0  0
  -23.3794  -30.6343   21.6567 C   0  0  1  0  0  0  0  0  0  0  0  0
  -28.0705  -12.3136   19.5489 C   0  0  2  0  0  0  0  0  0  0  0  0
  -28.3994  -32.7415   27.1670 C   0  0  0  0  0  0  0  0  0  0  0  0
  -25.6690  -34.6432   21.4399 C   0  0  0  0  0  0  0  0  0  0  0  0
  -27.4127  -34.9863   23.2035 C   0  0  0  0  0  0  0  0  0  0  0  0
  -24.9947  -35.1545   23.7933 C   0  0  0  0  0  0  0  0  0  0  0  0
  -27.0936  -29.2295   26.5062 C   0  0  0  0  0  0  0  0  0  0  0  0
  -32.9393  -21.5969   18.5054 C   0  0  0  0  0  0  0  0  0  0  0  0
  -31.1796  -21.3383   20.2482 C   0  0  0  0  0  0  0  0  0  0  0  0
  -29.8758  -23.7823   18.9600 C   0  0  0  0  0  0  0  0  0  0  0  0
  -29.6330  -25.2896   18.9435 C   0  0  0  0  0  0  0  0  0  0  0  0
  -31.3645  -23.4687   18.9724 C   0  0  0  0  0  0  0  0  0  0  0  0
  -28.1475  -25.6201   18.9744 C   0  0  0  0  0  0  0  0  0  1  0  0
  -25.9958  -32.8854   23.3025 C   0  0  1  0  0  0  0  0  0  0  0  0
  -27.4489  -31.7002   26.5969 C   0  0  2  0  0  0  0  0  0  0  0  0
  -26.0161  -34.3925   22.9210 C   0  0  0  0  0  0  0  0  0  0  0  0
  -26.0184  -11.2679   20.4301 N   0  0  0  0  0  0  0  0  0  0  0  0
  -26.5625  -12.1488   19.5733 N   0  0  0  0  0  0  0  0  0  0  0  0
  -24.6614  -31.1696   22.1195 N   0  0  0  0  0  0  0  0  0  0  0  0
  -30.0077  -13.5605   20.4224 N   0  0  0  0  0  0  0  0  0  0  0  0
  -26.0237  -13.7280   17.8921 N   0  0  0  0  0  0  0  0  0  0  0  0
  -21.9916  -12.1301   19.1514 N   0  0  0  0  0  0  0  0  0  0  0  0
  -29.9360  -15.7976   19.6792 N   0  0  0  0  0  0  0  0  0  0  0  0
  -21.8399  -30.9653   19.8188 N   0  0  0  0  0  0  0  0  0  0  0  0
  -26.2943  -32.6201   24.7057 N   0  0  0  0  0  0  0  0  0  0  0  0
  -27.9464  -30.3491   26.9818 N   0  3  0  0  0  0  0  0  0  0  0  0
  -31.5514  -21.9981   18.9425 N   0  3  1  0  0  0  0  0  0  0  0  0
  -23.0589  -13.5816   17.7326 O   0  0  0  0  0  0  0  0  0  0  0  0
  -23.8683  -32.1075   19.8775 O   0  0  0  0  0  0  0  0  0  0  0  0
  -23.6526  -32.6643   23.5974 O   0  0  0  0  0  0  0  0  0  0  0  0
  -28.1236  -31.2478   24.3215 O   0  0  0  0  0  0  0  0  0  0  0  0
  -31.9642  -14.7255   20.0238 O   0  0  0  0  0  0  0  0  0  0  0  0
  -21.0527   -8.2656   23.0525 O   0  0  0  0  0  0  0  0  0  0  0  0
  -27.9902  -27.0384   18.9722 O   0  0  0  0  0  0  0  0  0  1  0  0
  -22.2137   -2.9160   23.7145 F   0  0  0  0  0  0  0  0  0  0  0  0
  -28.7471  -20.4145   19.1320 F   0  0  0  0  0  0  0  0  0  0  0  0
  -19.3460   -6.3144   22.0919 F   0  0  0  0  0  0  0  0  0  0  0  0
  1  2  1  0  0  0  0
  1  5  2  0  0  0  0
  2  6  2  0  0  0  0
  3 10  2  0  0  0  0
  3 18  1  0  0  0  0
  4 11  1  0  0  0  0
  4 18  2  0  0  0  0
  5 20  1  0  0  0  0
  6 22  1  0  0  0  0
  7 12  2  0  0  0  0
  7 21  1  0  0  0  0
  8  9  2  0  0  0  0
  8 24  1  0  0  0  0
  9 25  1  0  0  0  0
 10 26  1  0  0  0  0
 11 26  2  0  0  0  0
 12 27  1  0  0  0  0
 13 14  2  0  0  0  0
 13 28  1  0  0  0  0
 14 29  1  0  0  0  0
 15 23  1  0  0  0  0
 15 27  2  0  0  0  0
 16 25  2  0  0  0  0
 16 30  1  0  0  0  0
 17 29  2  0  0  0  0
 17 31  1  0  0  0  0
 18 32  1  0  0  0  0
 19 32  1  0  0  0  0
 19 33  2  0  0  0  0
 19 34  1  0  0  0  0
 20 22  2  0  0  0  0
 20 39  1  0  0  0  0
 21 23  2  0  0  0  0
 21 40  1  0  0  0  0
 22 48  1  0  0  0  0
 23 41  1  0  0  0  0
 24 30  2  0  0  0  0
 24 57  1  0  0  0  0
 25 71  1  0  0  0  0
 26 81  1  0  0  0  0
 27 82  1  0  0  0  0
 28 31  2  0  0  0  0
 28 81  1  0  0  0  0
 29 83  1  0  0  0  0
 30 84  1  0  0  0  0
 31 85  1  0  0  0  0
 32 65  2  0  0  0  0
 33 66  1  0  0  0  0
 33 69  1  0  0  0  0
 34 70  1  0  0  0  0
 34 76  2  0  0  0  0
 35 49  1  0  0  0  0
 35 72  1  0  0  0  0
 35 77  2  0  0  0  0
 36 62  1  0  0  0  0
 36 67  1  0  0  0  0
 36 78  2  0  0  0  0
 37 63  1  0  0  0  0
 37 73  1  0  0  0  0
 37 79  2  0  0  0  0
 38 68  1  0  0  0  0
 38 71  1  0  0  0  0
 38 80  2  0  0  0  0
 39 42  1  0  0  0  0
 40 49  1  0  0  0  0
 41 67  1  0  0  0  0
 42 44  1  0  0  0  0
 43 45  1  0  0  0  0
 43 46  1  0  0  0  0
 44 48  1  0  0  0  0
 45 50  1  0  0  0  0
 46 68  1  0  0  0  0
 47 50  1  0  0  0  0
 47 68  1  0  0  0  0
 48 72  1  0  0  0  0
 49 67  1  0  0  0  0
 50 66  1  0  0  0  0
 51 63  1  0  0  0  0
 52 64  1  0  0  0  0
 53 64  1  0  0  0  0
 54 64  1  0  0  0  0
 55 74  1  0  0  0  0
 56 75  1  0  0  0  0
 57 75  1  0  0  0  0
 58 59  1  0  0  0  0
 58 60  1  0  0  0  0
 59 61  1  0  0  0  0
 60 75  1  0  0  0  0
 61 82  1  0  0  0  0
 62 64  1  0  0  0  0
 62 73  1  0  0  0  0
 63 74  1  0  0  0  0
 65 66  1  0  0  0  0
M  CHG  2  74   1  75   1
M  ISO  4  38 100  61 101  71 100  82 101
M  END
> <Batch ID>
0020

> <Smiles>
CNC(C)C(=O)NC(C(=O)N1Cc2cc([101O:1][101CH2:1]CCCN(C)Cc3ccc([100NH:0][100C:0](=O)N4CCCC(n5nc(-c6ccc(Oc7ccc(F)cc7F)cc6)c(C(N)=O)c5N)C4)cc3F)ccc2CC1C(=O)NC1CCCc2ccccc21)C(C)(C)C

> <Shape>
0.325

> <Color>
0.134

> <Negative vol penalty>
0.000

$$$$

  -OEChem-04042321083D

 86 95  0     1  0  0  0  0  0999 V2000
  -18.5008  -27.6705   26.1156 C   0  0  0  0  0  0  0  0  0  0  0  0
  -19.8526  -27.3489   26.1833 C   0  0  0  0  0  0  0  0  0  0  0  0
  -22.6154  -10.3560   20.2582 C   0  0  0  0  0  0  0  0  0  0  0  0
  -24.4711   -9.5866   21.6003 C   0  0  0  0  0  0  0  0  0  0  0  0
  -17.8701  -27.7695   24.8761 C   0  0  0  0  0  0  0  0  0  0  0  0
  -20.5743  -27.1250   25.0113 C   0  0  0  0  0  0  0  0  0  0  0  0
  -27.1337  -27.9456   22.2512 C   0  0  0  0  0  0  0  0  0  0  0  0
  -29.4643  -18.2583   18.8053 C   0  0  0  0  0  0  0  0  0  0  0  0
  -28.7642  -19.1662   20.9319 C   0  0  0  0  0  0  0  0  0  0  0  0
  -29.5711  -19.5497   18.2891 C   0  0  0  0  0  0  0  0  0  0  0  0
  -28.8710  -20.4577   20.4157 C   0  0  0  0  0  0  0  0  0  0  0  0
  -21.9576   -9.1450   20.4733 C   0  0  0  0  0  0  0  0  0  0  0  0
  -23.8133   -8.3756   21.8155 C   0  0  0  0  0  0  0  0  0  0  0  0
  -28.1269  -27.2159   21.5995 C   0  0  0  0  0  0  0  0  0  0  0  0
  -21.3260   -7.2094   23.7837 C   0  0  0  0  0  0  0  0  0  0  0  0
  -21.3130   -6.7027   25.0832 C   0  0  0  0  0  0  0  0  0  0  0  0
  -26.9513  -27.4923   19.5112 C   0  0  0  0  0  0  0  0  0  0  0  0
  -22.4522   -4.7138   24.3191 C   0  0  0  0  0  0  0  0  0  0  0  0
  -23.8722  -10.5768   20.8216 C   0  0  0  0  0  0  0  0  0  0  0  0
  -24.1021  -13.1142   20.9501 C   0  0  0  0  0  0  0  0  0  0  0  0
  -18.5867  -27.5562   23.6880 C   0  0  0  0  0  0  0  0  0  0  0  0
  -26.0343  -28.4456   21.5386 C   0  0  0  0  0  0  0  0  0  0  0  0
  -19.9523  -27.2199   23.7548 C   0  0  0  0  0  0  0  0  0  0  0  0
  -25.9467  -28.2302   20.1558 C   0  0  0  0  0  0  0  0  0  0  0  0
  -29.0608  -18.0665   20.1267 C   0  0  0  0  0  0  0  0  0  0  0  0
  -29.2745  -20.6494   19.0942 C   0  0  0  0  0  0  0  0  0  0  0  0
  -22.5565   -8.1548   21.2520 C   0  0  0  0  0  0  0  0  0  0  0  0
  -28.0344  -26.9868   20.2298 C   0  0  0  0  0  0  0  0  0  0  0  0
  -21.9020   -6.4683   22.7519 C   0  0  0  0  0  0  0  0  0  0  0  0
  -21.8761   -5.4549   25.3509 C   0  0  0  0  0  0  0  0  0  0  0  0
  -22.4651   -5.2205   23.0196 C   0  0  0  0  0  0  0  0  0  0  0  0
  -24.5524  -11.8274   20.5992 C   0  0  0  0  0  0  0  0  0  0  0  0
  -25.1023  -13.9552   20.5272 C   0  0  0  0  0  0  0  0  0  0  0  0
  -29.1207  -23.1754   19.2507 C   0  0  0  0  0  0  0  0  0  0  0  0
  -22.8882  -13.5136   21.6002 C   0  0  0  0  0  0  0  0  0  0  0  0
  -22.8913  -27.9845   21.6498 C   0  0  0  0  0  0  0  0  0  0  0  0
  -22.8561  -30.3708   19.4529 C   0  0  0  0  0  0  0  0  0  0  0  0
  -24.5236  -32.1056   17.0328 C   0  0  0  0  0  0  0  0  0  0  0  0
  -30.7094  -14.8873   20.4322 C   0  0  0  0  0  0  0  0  0  0  0  0
  -17.8507  -27.6279   22.3735 C   0  0  0  0  0  0  0  0  0  0  0  0
  -24.9849  -29.2535   22.2516 C   0  0  0  0  0  0  0  0  0  0  0  0
  -24.7971  -28.7628   19.3415 C   0  0  0  0  0  0  0  0  0  0  0  0
  -18.7745  -27.7435   21.1638 C   0  0  0  0  0  0  0  0  0  0  0  0
  -29.1280  -13.1020   17.6013 C   0  0  0  0  0  0  0  0  0  0  0  0
  -19.9134  -26.7335   21.2633 C   0  0  0  0  0  0  0  0  0  0  0  0
  -27.7902  -12.6599   18.1919 C   0  0  0  0  0  0  0  0  0  0  0  0
  -29.4371  -23.6567   16.9415 C   0  0  0  0  0  0  0  0  0  0  0  0
  -30.2062  -13.2308   18.6730 C   0  0  0  0  0  0  0  0  0  0  0  0
  -29.8531  -22.2256   17.2172 C   0  0  0  0  0  0  0  0  0  0  0  0
  -28.4894  -13.6775   20.3956 C   0  0  0  0  0  0  0  0  0  0  0  0
  -20.7749  -26.9941   22.5048 C   0  0  1  0  0  0  0  0  0  0  0  0
  -29.5077  -24.3089   18.3146 C   0  0  1  0  0  0  0  0  0  0  0  0
  -23.6475  -29.2762   21.5181 C   0  0  1  0  0  0  0  0  0  0  0  0
  -27.3694  -13.5830   19.3487 C   0  0  2  0  0  0  0  0  0  0  0  0
  -24.2212  -33.9761   15.3874 C   0  0  0  0  0  0  0  0  0  0  0  0
  -21.2234  -28.5228   17.6558 C   0  0  0  0  0  0  0  0  0  0  0  0
  -21.7636  -30.0310   15.7319 C   0  0  0  0  0  0  0  0  0  0  0  0
  -20.4603  -30.9044   17.6713 C   0  0  0  0  0  0  0  0  0  0  0  0
  -31.1953  -16.9749   21.6509 C   0  0  0  0  0  0  0  0  0  0  0  0
  -26.6769  -33.7069   18.2811 C   0  0  0  0  0  0  0  0  0  0  0  0
  -28.9466  -16.6857   20.6785 C   0  0  0  0  0  0  0  0  0  0  0  0
  -28.6056  -25.5216   18.4457 C   0  0  0  0  0  0  0  0  0  1  0  0
  -22.9300  -30.4383   17.9466 C   0  0  1  0  0  0  0  0  0  0  0  0
  -24.6783  -33.5956   16.7871 C   0  0  2  0  0  0  0  0  0  0  0  0
  -21.6151  -29.9623   17.2668 C   0  0  0  0  0  0  0  0  0  0  0  0
  -25.7458  -11.8444   19.9995 N   0  0  0  0  0  0  0  0  0  0  0  0
  -26.0537  -13.1523   19.9701 N   0  0  0  0  0  0  0  0  0  0  0  0
  -29.3840  -21.9708   18.5664 N   0  0  0  0  0  0  0  0  0  0  0  0
  -23.7931  -29.5414   20.0854 N   0  0  0  0  0  0  0  0  0  0  0  0
  -29.7638  -14.0784   19.7807 N   0  0  0  0  0  0  0  0  0  0  0  0
  -25.2519  -15.2957   20.5811 N   0  0  0  0  0  0  0  0  0  0  0  0
  -22.8749  -13.5942   22.9993 N   0  0  0  0  0  0  0  0  0  0  0  0
  -21.6661  -28.1112   22.2762 N   0  0  0  0  0  0  0  0  0  0  0  0
  -23.3109  -31.8076   17.6175 N   0  0  0  0  0  0  0  0  0  0  0  0
  -30.2504  -16.0966   20.9758 N   0  0  0  0  0  0  0  0  0  0  0  0
  -26.1040  -34.0009   16.9423 N   0  3  0  0  0  0  0  0  0  0  0  0
  -28.7235  -23.3562   20.3926 O   0  0  0  0  0  0  0  0  0  0  0  0
  -21.8415  -13.7750   20.9602 O   0  0  0  0  0  0  0  0  0  0  0  0
  -23.3823  -26.9497   21.2141 O   0  0  0  0  0  0  0  0  0  0  0  0
  -22.0032  -31.0351   20.0469 O   0  0  0  0  0  0  0  0  0  0  0  0
  -25.3901  -31.2874   16.7324 O   0  0  0  0  0  0  0  0  0  0  0  0
  -31.8981  -14.5524   20.5143 O   0  0  0  0  0  0  0  0  0  0  0  0
  -21.9148   -6.9730   21.4624 O   0  0  0  0  0  0  0  0  0  0  0  0
  -29.0022  -26.2744   19.5913 O   0  0  0  0  0  0  0  0  0  1  0  0
  -21.8649   -4.9691   26.5991 F   0  0  0  0  0  0  0  0  0  0  0  0
  -23.0210   -4.5045   22.0326 F   0  0  0  0  0  0  0  0  0  0  0  0
  1  2  1  0  0  0  0
  1  5  2  0  0  0  0
  2  6  2  0  0  0  0
  3 12  2  0  0  0  0
  3 19  1  0  0  0  0
  4 13  1  0  0  0  0
  4 19  2  0  0  0  0
  5 21  1  0  0  0  0
  6 23  1  0  0  0  0
  7 14  2  0  0  0  0
  7 22  1  0  0  0  0
  8 10  2  0  0  0  0
  8 25  1  0  0  0  0
  9 11  1  0  0  0  0
  9 25  2  0  0  0  0
 10 26  1  0  0  0  0
 11 26  2  0  0  0  0
 12 27  1  0  0  0  0
 13 27  2  0  0  0  0
 14 28  1  0  0  0  0
 15 16  2  0  0  0  0
 15 29  1  0  0  0  0
 16 30  1  0  0  0  0
 17 24  1  0  0  0  0
 17 28  2  0  0  0  0
 18 30  2  0  0  0  0
 18 31  1  0  0  0  0
 19 32  1  0  0  0  0
 20 32  1  0  0  0  0
 20 33  2  0  0  0  0
 20 35  1  0  0  0  0
 21 23  2  0  0  0  0
 21 40  1  0  0  0  0
 22 24  2  0  0  0  0
 22 41  1  0  0  0  0
 23 51  1  0  0  0  0
 24 42  1  0  0  0  0
 25 61  1  0  0  0  0
 26 68  1  0  0  0  0
 27 83  1  0  0  0  0
 28 84  1  0  0  0  0
 29 31  2  0  0  0  0
 29 83  1  0  0  0  0
 30 85  1  0  0  0  0
 31 86  1  0  0  0  0
 32 66  2  0  0  0  0
 33 67  1  0  0  0  0
 33 71  1  0  0  0  0
 34 52  1  0  0  0  0
 34 68  1  0  0  0  0
 34 77  2  0  0  0  0
 35 72  1  0  0  0  0
 35 78  2  0  0  0  0
 36 53  1  0  0  0  0
 36 73  1  0  0  0  0
 36 79  2  0  0  0  0
 37 63  1  0  0  0  0
 37 69  1  0  0  0  0
 37 80  2  0  0  0  0
 38 64  1  0  0  0  0
 38 74  1  0  0  0  0
 38 81  2  0  0  0  0
 39 70  1  0  0  0  0
 39 75  1  0  0  0  0
 39 82  2  0  0  0  0
 40 43  1  0  0  0  0
 41 53  1  0  0  0  0
 42 69  1  0  0  0  0
 43 45  1  0  0  0  0
 44 46  1  0  0  0  0
 44 48  1  0  0  0  0
 45 51  1  0  0  0  0
 46 54  1  0  0  0  0
 47 49  1  0  0  0  0
 47 52  1  0  0  0  0
 48 70  1  0  0  0  0
 49 68  1  0  0  0  0
 50 54  1  0  0  0  0
 50 70  1  0  0  0  0
 51 73  1  0  0  0  0
 52 62  1  0  0  0  0
 53 69  1  0  0  0  0
 54 67  1  0  0  0  0
 55 64  1  0  0  0  0
 56 65  1  0  0  0  0
 57 65  1  0  0  0  0
 58 65  1  0  0  0  0
 59 75  1  0  0  0  0
 60 76  1  0  0  0  0
 61 75  1  0  0  0  0
 62 84  1  0  0  0  0
 63 65  1  0  0  0  0
 63 74  1  0  0  0  0
 64 76  1  0  0  0  0
 66 67  1  0  0  0  0
M  CHG  1  76   1
M  ISO  4  39 100  62 101  75 100  84 101
M  END
> <Batch ID>
0020

> <Smiles>
CNC(C)C(=O)NC(C(=O)N1Cc2cc([101O:1][101CH2:1]C3CCN(c4ccc(C[100N:0](C)[100C:0](=O)N5CCCC(n6nc(-c7ccc(Oc8ccc(F)cc8F)cc7)c(C(N)=O)c6N)C5)cc4)C3=O)ccc2CC1C(=O)NC1CCCc2ccccc21)C(C)(C)C

> <Shape>
0.389

> <Color>
0.211

> <Negative vol penalty>
0.000

$$$$

  -OEChem-04042321083D

 84 92  0     1  0  0  0  0  0999 V2000
  -29.9897  -24.1972   16.4503 C   0  0  0  0  0  0  0  0  0  0  0  0
  -28.7305  -24.2190   17.0413 C   0  0  0  0  0  0  0  0  0  0  0  0
  -24.4668   -9.2988   21.5182 C   0  0  0  0  0  0  0  0  0  0  0  0
  -22.5734  -10.4340   20.5366 C   0  0  0  0  0  0  0  0  0  0  0  0
  -31.0679  -24.8108   17.0867 C   0  0  0  0  0  0  0  0  0  0  0  0
  -28.5489  -24.8534   18.2697 C   0  0  0  0  0  0  0  0  0  0  0  0
  -24.3919  -27.7438   18.3679 C   0  0  0  0  0  0  0  0  0  0  0  0
  -19.8867  -19.0334   22.1624 C   0  0  0  0  0  0  0  0  0  0  0  0
  -20.6593  -19.9086   24.2776 C   0  0  0  0  0  0  0  0  0  0  0  0
  -21.0558  -18.2816   22.0464 C   0  0  0  0  0  0  0  0  0  0  0  0
  -21.8285  -19.1568   24.1617 C   0  0  0  0  0  0  0  0  0  0  0  0
  -23.7014   -8.1408   21.6553 C   0  0  0  0  0  0  0  0  0  0  0  0
  -21.8080   -9.2760   20.6737 C   0  0  0  0  0  0  0  0  0  0  0  0
  -23.1688  -27.0947   18.5305 C   0  0  0  0  0  0  0  0  0  0  0  0
  -21.3325   -6.9555   23.7548 C   0  0  0  0  0  0  0  0  0  0  0  0
  -21.4068   -6.2703   24.9674 C   0  0  0  0  0  0  0  0  0  0  0  0
  -23.1789  -27.6752   20.8719 C   0  0  0  0  0  0  0  0  0  0  0  0
  -22.2136   -4.3091   23.8097 C   0  0  0  0  0  0  0  0  0  0  0  0
  -23.9028  -10.4454   20.9589 C   0  0  0  0  0  0  0  0  0  0  0  0
  -25.4859  -12.0118   19.7146 C   0  0  0  0  0  0  0  0  0  0  0  0
  -30.8974  -25.4613   18.3189 C   0  0  0  0  0  0  0  0  0  0  0  0
  -25.0240  -28.3551   19.4602 C   0  0  0  0  0  0  0  0  0  0  0  0
  -29.6261  -25.4750   18.9238 C   0  0  0  0  0  0  0  0  0  0  0  0
  -24.4087  -28.3336   20.7200 C   0  0  0  0  0  0  0  0  0  0  0  0
  -19.6884  -19.8470   23.2780 C   0  0  0  0  0  0  0  0  0  0  0  0
  -22.0267  -18.3433   23.0460 C   0  0  0  0  0  0  0  0  0  0  0  0
  -22.3720   -8.1294   21.2331 C   0  0  0  0  0  0  0  0  0  0  0  0
  -22.5635  -27.0578   19.7833 C   0  0  0  0  0  0  0  0  0  0  0  0
  -21.6986   -6.3176   22.5696 C   0  0  0  0  0  0  0  0  0  0  0  0
  -21.8474   -4.9471   24.9949 C   0  0  0  0  0  0  0  0  0  0  0  0
  -22.1391   -4.9944   22.5970 C   0  0  0  0  0  0  0  0  0  0  0  0
  -24.6928  -11.6421   20.8174 C   0  0  0  0  0  0  0  0  0  0  0  0
  -26.0263  -13.2231   20.0711 C   0  0  0  0  0  0  0  0  0  0  0  0
  -25.7136  -11.3219   18.4785 C   0  0  0  0  0  0  0  0  0  0  0  0
  -27.7856  -27.9346   20.9771 C   0  0  0  0  0  0  0  0  0  0  0  0
  -26.8649  -30.6009   22.5788 C   0  0  0  0  0  0  0  0  0  0  0  0
  -24.3195  -32.6249   23.6139 C   0  0  0  0  0  0  0  0  0  0  0  0
  -24.2771  -17.5261   23.8299 C   0  0  0  0  0  0  0  0  0  0  0  0
  -32.1026  -26.0696   18.9915 C   0  0  0  0  0  0  0  0  0  0  0  0
  -26.3303  -29.0742   19.2626 C   0  0  0  0  0  0  0  0  0  0  0  0
  -25.0363  -28.9920   21.9204 C   0  0  0  0  0  0  0  0  0  0  0  0
  -31.7479  -27.0443   20.1115 C   0  0  0  0  0  0  0  0  0  0  0  0
  -27.3574  -15.7427   23.9200 C   0  0  0  0  0  0  0  0  0  0  0  0
  -30.6781  -26.4469   21.0201 C   0  0  0  0  0  0  0  0  0  0  0  0
  -27.0978  -14.5256   23.0293 C   0  0  0  0  0  0  0  0  0  0  0  0
  -26.1211  -16.1256   24.7316 C   0  0  0  0  0  0  0  0  0  0  0  0
  -24.6369  -15.1006   23.0536 C   0  0  0  0  0  0  0  0  0  0  0  0
  -29.3841  -26.1745   20.2438 C   0  0  1  0  0  0  0  0  0  0  0  0
  -27.1332  -29.2195   20.5516 C   0  0  1  0  0  0  0  0  0  0  0  0
  -25.8338  -14.7167   22.1683 C   0  0  2  0  0  0  0  0  0  0  0  0
  -23.8744  -34.7088   24.9393 C   0  0  0  0  0  0  0  0  0  0  0  0
  -27.3007  -29.0449   25.1670 C   0  0  0  0  0  0  0  0  0  0  0  0
  -25.9668  -30.7947   26.3617 C   0  0  0  0  0  0  0  0  0  0  0  0
  -28.1001  -31.4138   25.2267 C   0  0  0  0  0  0  0  0  0  0  0  0
  -23.1481  -34.0035   21.2717 C   0  0  0  0  0  0  0  0  0  0  0  0
  -17.5626  -22.8489   24.2005 C   0  0  0  0  0  0  0  0  0  0  0  0
  -18.4308  -20.6557   23.4027 C   0  0  0  0  0  0  0  0  0  0  0  0
  -19.8825  -23.9625   22.3708 C   0  0  0  0  0  0  0  0  0  0  0  0
  -20.1900  -24.6449   21.0400 C   0  0  0  0  0  0  0  0  0  0  0  0
  -18.9968  -22.7424   22.1674 C   0  0  0  0  0  0  0  0  0  0  0  0
  -21.1109  -25.8431   21.2222 C   0  0  0  0  0  0  0  0  0  1  0  0
  -26.0638  -30.8740   23.8289 C   0  0  1  0  0  0  0  0  0  0  0  0
  -24.1447  -34.1318   23.5584 C   0  0  2  0  0  0  0  0  0  0  0  0
  -26.8467  -30.5177   25.1241 C   0  0  0  0  0  0  0  0  0  0  0  0
  -24.7239  -12.5454   21.8008 N   0  0  0  0  0  0  0  0  0  0  0  0
  -25.5432  -13.4946   21.3173 N   0  0  0  0  0  0  0  0  0  0  0  0
  -26.3167  -29.6771   21.6777 N   0  0  0  0  0  0  0  0  0  0  0  0
  -24.9643  -16.2940   23.8494 N   0  0  0  0  0  0  0  0  0  0  0  0
  -26.8630  -14.0718   19.4370 N   0  0  0  0  0  0  0  0  0  0  0  0
  -25.0802  -10.0883   18.2754 N   0  0  0  0  0  0  0  0  0  0  0  0
  -23.2143  -17.5794   22.9286 N   0  0  0  0  0  0  0  0  0  0  0  0
  -28.6497  -27.4045   20.0381 N   0  0  0  0  0  0  0  0  0  0  0  0
  -25.6449  -32.2691   23.7486 N   0  0  0  0  0  0  0  0  0  0  0  0
  -23.0037  -34.4884   22.6684 N   0  3  0  0  0  0  0  0  0  0  0  0
  -18.6885  -22.1406   23.4870 N   0  3  1  0  0  0  0  0  0  0  0  0
  -26.4697  -11.7779   17.5876 O   0  0  0  0  0  0  0  0  0  0  0  0
  -27.5253  -27.4600   22.0765 O   0  0  0  0  0  0  0  0  0  0  0  0
  -27.9340  -31.1910   22.4047 O   0  0  0  0  0  0  0  0  0  0  0  0
  -23.3745  -31.8418   23.5483 O   0  0  0  0  0  0  0  0  0  0  0  0
  -24.6239  -18.4740   24.5394 O   0  0  0  0  0  0  0  0  0  0  0  0
  -21.6249   -6.9995   21.3666 O   0  0  0  0  0  0  0  0  0  0  0  0
  -21.3700  -26.4244   19.9449 O   0  0  0  0  0  0  0  0  0  1  0  0
  -21.9202   -4.2897   26.1596 F   0  0  0  0  0  0  0  0  0  0  0  0
  -22.4933   -4.3767   21.4618 F   0  0  0  0  0  0  0  0  0  0  0  0
  1  2  1  0  0  0  0
  1  5  2  0  0  0  0
  2  6  2  0  0  0  0
  3 12  2  0  0  0  0
  3 19  1  0  0  0  0
  4 13  1  0  0  0  0
  4 19  2  0  0  0  0
  5 21  1  0  0  0  0
  6 23  1  0  0  0  0
  7 14  2  0  0  0  0
  7 22  1  0  0  0  0
  8 10  2  0  0  0  0
  8 25  1  0  0  0  0
  9 11  1  0  0  0  0
  9 25  2  0  0  0  0
 10 26  1  0  0  0  0
 11 26  2  0  0  0  0
 12 27  1  0  0  0  0
 13 27  2  0  0  0  0
 14 28  1  0  0  0  0
 15 16  2  0  0  0  0
 15 29  1  0  0  0  0
 16 30  1  0  0  0  0
 17 24  1  0  0  0  0
 17 28  2  0  0  0  0
 18 30  2  0  0  0  0
 18 31  1  0  0  0  0
 19 32  1  0  0  0  0
 20 32  1  0  0  0  0
 20 33  2  0  0  0  0
 20 34  1  0  0  0  0
 21 23  2  0  0  0  0
 21 39  1  0  0  0  0
 22 24  2  0  0  0  0
 22 40  1  0  0  0  0
 23 48  1  0  0  0  0
 24 41  1  0  0  0  0
 25 57  1  0  0  0  0
 26 71  1  0  0  0  0
 27 81  1  0  0  0  0
 28 82  1  0  0  0  0
 29 31  2  0  0  0  0
 29 81  1  0  0  0  0
 30 83  1  0  0  0  0
 31 84  1  0  0  0  0
 32 65  2  0  0  0  0
 33 66  1  0  0  0  0
 33 69  1  0  0  0  0
 34 70  1  0  0  0  0
 34 76  2  0  0  0  0
 35 49  1  0  0  0  0
 35 72  1  0  0  0  0
 35 77  2  0  0  0  0
 36 62  1  0  0  0  0
 36 67  1  0  0  0  0
 36 78  2  0  0  0  0
 37 63  1  0  0  0  0
 37 73  1  0  0  0  0
 37 79  2  0  0  0  0
 38 68  1  0  0  0  0
 38 71  1  0  0  0  0
 38 80  2  0  0  0  0
 39 42  1  0  0  0  0
 40 49  1  0  0  0  0
 41 67  1  0  0  0  0
 42 44  1  0  0  0  0
 43 45  1  0  0  0  0
 43 46  1  0  0  0  0
 44 48  1  0  0  0  0
 45 50  1  0  0  0  0
 46 68  1  0  0  0  0
 47 50  1  0  0  0  0
 47 68  1  0  0  0  0
 48 72  1  0  0  0  0
 49 67  1  0  0  0  0
 50 66  1  0  0  0  0
 51 63  1  0  0  0  0
 52 64  1  0  0  0  0
 53 64  1  0  0  0  0
 54 64  1  0  0  0  0
 55 74  1  0  0  0  0
 56 75  1  0  0  0  0
 57 75  1  0  0  0  0
 58 59  1  0  0  0  0
 58 60  1  0  0  0  0
 59 61  1  0  0  0  0
 60 75  1  0  0  0  0
 61 82  1  0  0  0  0
 62 64  1  0  0  0  0
 62 73  1  0  0  0  0
 63 74  1  0  0  0  0
 65 66  1  0  0  0  0
M  CHG  2  74   1  75   1
M  ISO  4  38 100  61 101  71 100  82 101
M  END
> <Batch ID>
0020

> <Smiles>
CNC(C)C(=O)NC(C(=O)N1Cc2cc([101O:1][101CH2:1]CCCN(C)Cc3ccc([100NH:0][100C:0](=O)N4CCCC(n5nc(-c6ccc(Oc7ccc(F)cc7F)cc6)c(C(N)=O)c5N)C4)cc3)ccc2CC1C(=O)NC1CCCc2ccccc21)C(C)(C)C

> <Shape>
0.283

> <Color>
0.110

> <Negative vol penalty>
0.000

$$$$

  -OEChem-04042321083D

 85 93  0     1  0  0  0  0  0999 V2000
  -21.5706  -16.7801   24.4460 C   0  0  0  0  0  0  0  0  0  0  0  0
  -22.8315  -17.3680   24.4467 C   0  0  0  0  0  0  0  0  0  0  0  0
  -22.5274  -10.3271   20.7784 C   0  0  0  0  0  0  0  0  0  0  0  0
  -24.4511   -9.1502   21.6450 C   0  0  0  0  0  0  0  0  0  0  0  0
  -20.6365  -17.1379   23.4747 C   0  0  0  0  0  0  0  0  0  0  0  0
  -23.1594  -18.3132   23.4754 C   0  0  0  0  0  0  0  0  0  0  0  0
  -25.5233  -22.3507   25.4134 C   0  0  0  0  0  0  0  0  0  0  0  0
  -30.4709  -17.8641   21.9064 C   0  0  0  0  0  0  0  0  0  0  0  0
  -29.8642  -17.2032   24.1496 C   0  0  0  0  0  0  0  0  0  0  0  0
  -30.8400  -19.1241   22.3774 C   0  0  0  0  0  0  0  0  0  0  0  0
  -30.2333  -18.4632   24.6206 C   0  0  0  0  0  0  0  0  0  0  0  0
  -21.7847   -9.1473   20.8248 C   0  0  0  0  0  0  0  0  0  0  0  0
  -23.7085   -7.9704   21.6915 C   0  0  0  0  0  0  0  0  0  0  0  0
  -26.8756  -22.2094   25.7221 C   0  0  0  0  0  0  0  0  0  0  0  0
  -22.2148   -4.7277   22.3784 C   0  0  0  0  0  0  0  0  0  0  0  0
  -22.3144   -3.9427   23.5270 C   0  0  0  0  0  0  0  0  0  0  0  0
  -27.4559  -23.3209   23.6613 C   0  0  0  0  0  0  0  0  0  0  0  0
  -21.4840   -5.7816   24.8559 C   0  0  0  0  0  0  0  0  0  0  0  0
  -23.8606  -10.3286   21.1884 C   0  0  0  0  0  0  0  0  0  0  0  0
  -24.3559  -12.7509   21.8167 C   0  0  0  0  0  0  0  0  0  0  0  0
  -20.9498  -18.0950   22.4968 C   0  0  0  0  0  0  0  0  0  0  0  0
  -25.1268  -22.9694   24.2191 C   0  0  0  0  0  0  0  0  0  0  0  0
  -22.2291  -18.6831   22.4893 C   0  0  0  0  0  0  0  0  0  0  0  0
  -26.0980  -23.4711   23.3410 C   0  0  0  0  0  0  0  0  0  0  0  0
  -29.9829  -16.9037   22.7925 C   0  0  0  0  0  0  0  0  0  0  0  0
  -30.7212  -19.4236   23.7345 C   0  0  0  0  0  0  0  0  0  0  0  0
  -22.3752   -7.9690   21.2814 C   0  0  0  0  0  0  0  0  0  0  0  0
  -27.8421  -22.6919   24.8446 C   0  0  0  0  0  0  0  0  0  0  0  0
  -21.7498   -6.0398   22.4685 C   0  0  0  0  0  0  0  0  0  0  0  0
  -21.9490   -4.4696   24.7658 C   0  0  0  0  0  0  0  0  0  0  0  0
  -21.3844   -6.5667   23.7073 C   0  0  0  0  0  0  0  0  0  0  0  0
  -24.6285  -11.5468   21.1401 C   0  0  0  0  0  0  0  0  0  0  0  0
  -25.3737  -13.5934   21.4417 C   0  0  0  0  0  0  0  0  0  0  0  0
  -23.2790  -13.0784   22.7048 C   0  0  0  0  0  0  0  0  0  0  0  0
  -23.5041  -22.0471   21.6462 C   0  0  0  0  0  0  0  0  0  0  0  0
  -23.7606  -25.1789   20.8413 C   0  0  0  0  0  0  0  0  0  0  0  0
  -25.4482  -28.1267   21.1728 C   0  0  0  0  0  0  0  0  0  0  0  0
  -30.9892  -14.1312   20.7382 C   0  0  0  0  0  0  0  0  0  0  0  0
  -19.9236  -18.4147   21.4388 C   0  0  0  0  0  0  0  0  0  0  0  0
  -23.6637  -23.1379   23.9135 C   0  0  0  0  0  0  0  0  0  0  0  0
  -25.7242  -24.1613   22.0556 C   0  0  0  0  0  0  0  0  0  0  0  0
  -20.2209  -19.6997   20.6703 C   0  0  0  0  0  0  0  0  0  0  0  0
  -28.8953  -13.1376   17.8520 C   0  0  0  0  0  0  0  0  0  0  0  0
  -21.6856  -19.7414   20.2464 C   0  0  0  0  0  0  0  0  0  0  0  0
  -27.6050  -12.6689   18.5223 C   0  0  0  0  0  0  0  0  0  0  0  0
  -30.1070  -12.9486   18.7597 C   0  0  0  0  0  0  0  0  0  0  0  0
  -28.6730  -13.1175   20.7670 C   0  0  0  0  0  0  0  0  0  0  0  0
  -22.6137  -19.7306   21.4671 C   0  0  1  0  0  0  0  0  0  0  0  0
  -23.3818  -23.3256   22.4259 C   0  0  1  0  0  0  0  0  0  0  0  0
  -27.4265  -13.3372   19.8966 C   0  0  2  0  0  0  0  0  0  0  0  0
  -33.6660  -22.6761   22.1692 C   0  0  0  0  0  0  0  0  0  0  0  0
  -25.4433  -30.5014   20.3616 C   0  0  0  0  0  0  0  0  0  0  0  0
  -24.9376  -24.2688   18.1774 C   0  0  0  0  0  0  0  0  0  0  0  0
  -25.7717  -26.6034   17.8278 C   0  0  0  0  0  0  0  0  0  0  0  0
  -23.3217  -26.1702   18.0088 C   0  0  0  0  0  0  0  0  0  0  0  0
  -31.8075  -14.7346   22.9845 C   0  0  0  0  0  0  0  0  0  0  0  0
  -25.0501  -29.1826   23.9087 C   0  0  0  0  0  0  0  0  0  0  0  0
  -29.5877  -15.5564   22.2897 C   0  0  0  0  0  0  0  0  0  0  0  0
  -33.1203  -21.6162   23.1155 C   0  0  0  0  0  0  0  0  0  0  0  0
  -31.6075  -21.6972   23.2812 C   0  0  0  0  0  0  0  0  0  0  0  0
  -30.9701  -21.0350   25.6058 C   0  0  0  0  0  0  0  0  0  0  0  0
  -29.5370  -21.4235   25.9284 C   0  0  0  0  0  0  0  0  0  1  0  0
  -24.7653  -26.0078   20.0780 C   0  0  1  0  0  0  0  0  0  0  0  0
  -24.9635  -29.5405   21.4383 C   0  0  2  0  0  0  0  0  0  0  0  0
  -24.7065  -25.7479   18.5462 C   0  0  0  0  0  0  0  0  0  0  0  0
  -25.7328  -11.6144   20.3918 N   0  0  0  0  0  0  0  0  0  0  0  0
  -26.1631  -12.8711   20.5959 N   0  0  0  0  0  0  0  0  0  0  0  0
  -24.2808  -24.2962   21.7984 N   0  0  0  0  0  0  0  0  0  0  0  0
  -29.8936  -13.5560   20.0737 N   0  0  0  0  0  0  0  0  0  0  0  0
  -25.6615  -14.8744   21.7561 N   0  0  0  0  0  0  0  0  0  0  0  0
  -22.1048  -13.6169   22.1611 N   0  0  0  0  0  0  0  0  0  0  0  0
  -22.6604  -21.0416   22.0782 N   0  0  0  0  0  0  0  0  0  0  0  0
  -24.5230  -27.3952   20.4584 N   0  0  0  0  0  0  0  0  0  0  0  0
  -31.0936  -20.6886   24.2083 N   0  0  3  0  0  0  0  0  0  0  0  0
  -30.7435  -14.7138   21.9908 N   0  0  0  0  0  0  0  0  0  0  0  0
  -25.4668  -30.0218   22.7559 N   0  3  0  0  0  0  0  0  0  0  0  0
  -23.3619  -12.9141   23.9457 O   0  0  0  0  0  0  0  0  0  0  0  0
  -24.3037  -21.9783   20.7201 O   0  0  0  0  0  0  0  0  0  0  0  0
  -22.5581  -25.3151   20.6024 O   0  0  0  0  0  0  0  0  0  0  0  0
  -26.5401  -27.7136   21.5572 O   0  0  0  0  0  0  0  0  0  0  0  0
  -32.1204  -14.1329   20.2360 O   0  0  0  0  0  0  0  0  0  0  0  0
  -21.6507   -6.8177   21.3271 O   0  0  0  0  0  0  0  0  0  0  0  0
  -29.1627  -22.5547   25.1431 O   0  0  0  0  0  0  0  0  0  1  0  0
  -22.0432   -3.7150   25.8685 F   0  0  0  0  0  0  0  0  0  0  0  0
  -20.9359   -7.8261   23.8000 F   0  0  0  0  0  0  0  0  0  0  0  0
  1  2  1  0  0  0  0
  1  5  2  0  0  0  0
  2  6  2  0  0  0  0
  3 12  2  0  0  0  0
  3 19  1  0  0  0  0
  4 13  1  0  0  0  0
  4 19  2  0  0  0  0
  5 21  1  0  0  0  0
  6 23  1  0  0  0  0
  7 14  2  0  0  0  0
  7 22  1  0  0  0  0
  8 10  2  0  0  0  0
  8 25  1  0  0  0  0
  9 11  1  0  0  0  0
  9 25  2  0  0  0  0
 10 26  1  0  0  0  0
 11 26  2  0  0  0  0
 12 27  1  0  0  0  0
 13 27  2  0  0  0  0
 14 28  1  0  0  0  0
 15 16  2  0  0  0  0
 15 29  1  0  0  0  0
 16 30  1  0  0  0  0
 17 24  1  0  0  0  0
 17 28  2  0  0  0  0
 18 30  2  0  0  0  0
 18 31  1  0  0  0  0
 19 32  1  0  0  0  0
 20 32  1  0  0  0  0
 20 33  2  0  0  0  0
 20 34  1  0  0  0  0
 21 23  2  0  0  0  0
 21 39  1  0  0  0  0
 22 24  2  0  0  0  0
 22 40  1  0  0  0  0
 23 48  1  0  0  0  0
 24 41  1  0  0  0  0
 25 58  1  0  0  0  0
 26 74  1  0  0  0  0
 27 82  1  0  0  0  0
 28 83  1  0  0  0  0
 29 31  2  0  0  0  0
 29 82  1  0  0  0  0
 30 84  1  0  0  0  0
 31 85  1  0  0  0  0
 32 66  2  0  0  0  0
 33 67  1  0  0  0  0
 33 70  1  0  0  0  0
 34 71  1  0  0  0  0
 34 77  2  0  0  0  0
 35 49  1  0  0  0  0
 35 72  1  0  0  0  0
 35 78  2  0  0  0  0
 36 63  1  0  0  0  0
 36 68  1  0  0  0  0
 36 79  2  0  0  0  0
 37 64  1  0  0  0  0
 37 73  1  0  0  0  0
 37 80  2  0  0  0  0
 38 69  1  0  0  0  0
 38 75  1  0  0  0  0
 38 81  2  0  0  0  0
 39 42  1  0  0  0  0
 40 49  1  0  0  0  0
 41 68  1  0  0  0  0
 42 44  1  0  0  0  0
 43 45  1  0  0  0  0
 43 46  1  0  0  0  0
 44 48  1  0  0  0  0
 45 50  1  0  0  0  0
 46 69  1  0  0  0  0
 47 50  1  0  0  0  0
 47 69  1  0  0  0  0
 48 72  1  0  0  0  0
 49 68  1  0  0  0  0
 50 67  1  0  0  0  0
 51 59  1  0  0  0  0
 52 64  1  0  0  0  0
 53 65  1  0  0  0  0
 54 65  1  0  0  0  0
 55 65  1  0  0  0  0
 56 75  1  0  0  0  0
 57 76  1  0  0  0  0
 58 75  1  0  0  0  0
 59 60  1  0  0  0  0
 60 74  1  0  0  0  0
 61 62  1  0  0  0  0
 61 74  1  0  0  0  0
 62 83  1  0  0  0  0
 63 65  1  0  0  0  0
 63 73  1  0  0  0  0
 64 76  1  0  0  0  0
 66 67  1  0  0  0  0
M  CHG  1  76   1
M  ISO  4  38 100  62 101  75 100  83 101
M  END
> <Batch ID>
0020

> <Smiles>
CCCN(C[101CH2:1][101O:1]c1ccc2c(c1)CN(C(=O)C(NC(=O)C(C)NC)C(C)(C)C)C(C(=O)NC1CCCc3ccccc31)C2)c1ccc(C[100N:0](C)[100C:0](=O)N2CCCC(n3nc(-c4ccc(Oc5ccc(F)cc5F)cc4)c(C(N)=O)c3N)C2)cc1

> <Shape>
0.216

> <Color>
0.145

> <Negative vol penalty>
0.000

$$$$

  -OEChem-04042321083D

 83 91  0     1  0  0  0  0  0999 V2000
  -27.5614  -32.3243   28.1608 C   0  0  0  0  0  0  0  0  0  0  0  0
  -27.8530  -31.3651   27.1963 C   0  0  0  0  0  0  0  0  0  0  0  0
  -25.1113   -7.0274   21.6739 C   0  0  0  0  0  0  0  0  0  0  0  0
  -24.6067   -8.7939   23.2429 C   0  0  0  0  0  0  0  0  0  0  0  0
  -26.2433  -32.7333   28.3594 C   0  0  0  0  0  0  0  0  0  0  0  0
  -26.8265  -30.8135   26.4304 C   0  0  0  0  0  0  0  0  0  0  0  0
  -27.1369  -29.0684   20.5684 C   0  0  0  0  0  0  0  0  0  0  0  0
  -30.5344  -18.4664   20.3284 C   0  0  0  0  0  0  0  0  0  0  0  0
  -30.5866  -17.0728   20.3001 C   0  0  0  0  0  0  0  0  0  0  0  0
  -24.5043   -6.1010   22.5217 C   0  0  0  0  0  0  0  0  0  0  0  0
  -23.9997   -7.8675   24.0908 C   0  0  0  0  0  0  0  0  0  0  0  0
  -27.3201  -27.8231   19.9689 C   0  0  0  0  0  0  0  0  0  0  0  0
  -21.3630   -5.1232   23.3024 C   0  0  0  0  0  0  0  0  0  0  0  0
  -20.4968   -4.1914   22.7305 C   0  0  0  0  0  0  0  0  0  0  0  0
  -24.9312  -27.5981   19.7201 C   0  0  0  0  0  0  0  0  0  0  0  0
  -28.2573  -18.3974   19.5239 C   0  0  0  0  0  0  0  0  0  0  0  0
  -21.8989   -2.3952   23.5334 C   0  0  0  0  0  0  0  0  0  0  0  0
  -25.1626   -8.3739   22.0345 C   0  0  0  0  0  0  0  0  0  0  0  0
  -25.1776  -10.0710   20.1300 C   0  0  0  0  0  0  0  0  0  0  0  0
  -25.2014  -32.1935   27.5889 C   0  0  0  0  0  0  0  0  0  0  0  0
  -25.8467  -29.5840   20.7584 C   0  0  0  0  0  0  0  0  0  0  0  0
  -25.4931  -31.2147   26.6198 C   0  0  0  0  0  0  0  0  0  0  0  0
  -24.7345  -28.8513   20.3200 C   0  0  0  0  0  0  0  0  0  0  0  0
  -28.3096  -17.0038   19.4955 C   0  0  0  0  0  0  0  0  0  0  0  0
  -29.3697  -19.1287   19.9404 C   0  0  0  0  0  0  0  0  0  0  0  0
  -29.4743  -16.3415   19.8836 C   0  0  0  0  0  0  0  0  0  0  0  0
  -23.9485   -6.5210   23.7301 C   0  0  0  0  0  0  0  0  0  0  0  0
  -26.2171  -27.0865   19.5472 C   0  0  0  0  0  0  0  0  0  0  0  0
  -22.4973   -4.6910   23.9897 C   0  0  0  0  0  0  0  0  0  0  0  0
  -20.7647   -2.8274   22.8461 C   0  0  0  0  0  0  0  0  0  0  0  0
  -22.7652   -3.3270   24.1053 C   0  0  0  0  0  0  0  0  0  0  0  0
  -25.7900   -9.3313   21.1594 C   0  0  0  0  0  0  0  0  0  0  0  0
  -26.1930  -10.8308   19.6024 C   0  0  0  0  0  0  0  0  0  0  0  0
  -23.8130  -10.0714   19.6900 C   0  0  0  0  0  0  0  0  0  0  0  0
  -24.1096  -30.4043   23.2908 C   0  0  0  0  0  0  0  0  0  0  0  0
  -22.0311  -31.4606   21.0355 C   0  0  0  0  0  0  0  0  0  0  0  0
  -20.8888  -31.2574   17.8260 C   0  0  0  0  0  0  0  0  0  0  0  0
  -30.6344  -14.1311   20.2220 C   0  0  0  0  0  0  0  0  0  0  0  0
  -23.7865  -32.6323   27.8722 C   0  0  0  0  0  0  0  0  0  0  0  0
  -25.6674  -30.9407   21.3825 C   0  0  0  0  0  0  0  0  0  0  0  0
  -23.3296  -29.3693   20.4825 C   0  0  0  0  0  0  0  0  0  0  0  0
  -22.8032  -32.2724   26.7615 C   0  0  0  0  0  0  0  0  0  0  0  0
  -31.1952  -10.6173   20.3465 C   0  0  0  0  0  0  0  0  0  0  0  0
  -23.0022  -30.8258   26.3204 C   0  0  0  0  0  0  0  0  0  0  0  0
  -29.7886  -10.0303   20.4844 C   0  0  0  0  0  0  0  0  0  0  0  0
  -31.3423  -11.9255   21.1215 C   0  0  0  0  0  0  0  0  0  0  0  0
  -28.9226  -12.3573   20.9559 C   0  0  0  0  0  0  0  0  0  0  0  0
  -24.4102  -30.6111   25.7521 C   0  0  1  0  0  0  0  0  0  0  0  0
  -24.2831  -31.1397   21.9921 C   0  0  1  0  0  0  0  0  0  0  0  0
  -28.7067  -11.0725   20.1394 C   0  0  2  0  0  0  0  0  0  0  0  0
  -27.1025  -16.2459   19.0464 C   0  0  0  0  0  0  0  0  0  0  0  0
  -19.1549  -32.2188   16.2876 C   0  0  0  0  0  0  0  0  0  0  0  0
  -19.8880  -29.7687   22.3974 C   0  0  0  0  0  0  0  0  0  0  0  0
  -18.4905  -30.0026   20.3334 C   0  0  0  0  0  0  0  0  0  0  0  0
  -19.1156  -32.0269   21.6502 C   0  0  0  0  0  0  0  0  0  0  0  0
  -22.9461  -32.3210   15.9834 C   0  0  0  0  0  0  0  0  0  0  0  0
  -28.4368  -22.7778   19.6726 C   0  0  0  0  0  0  0  0  0  0  0  0
  -27.2433  -23.6260   19.2309 C   0  0  0  0  0  0  0  0  0  0  0  0
  -28.1562  -21.2798   19.5857 C   0  0  0  0  0  0  0  0  0  0  0  0
  -27.5351  -25.1153   19.3648 C   0  0  0  0  0  0  0  0  0  1  0  0
  -20.8797  -30.8504   20.2732 C   0  0  1  0  0  0  0  0  0  0  0  0
  -20.5841  -32.3296   16.7955 C   0  0  2  0  0  0  0  0  0  0  0  0
  -19.6197  -30.6512   21.1621 C   0  0  0  0  0  0  0  0  0  0  0  0
  -27.0934   -9.5970   21.2801 N   0  0  0  0  0  0  0  0  0  0  0  0
  -27.3084  -10.5121   20.3196 N   0  0  0  0  0  0  0  0  0  0  0  0
  -23.2057  -30.6981   21.1041 N   0  0  0  0  0  0  0  0  0  0  0  0
  -30.2863  -12.8656   20.7397 N   0  0  0  0  0  0  0  0  0  0  0  0
  -26.2316  -11.7336   18.5994 N   0  0  0  0  0  0  0  0  0  0  0  0
  -22.9006   -9.2307   20.3420 N   0  0  0  0  0  0  0  0  0  0  0  0
  -29.5466  -14.9266   19.8635 N   0  0  0  0  0  0  0  0  0  0  0  0
  -29.3178  -20.5133   19.9691 N   0  0  0  0  0  0  0  0  0  0  0  0
  -24.4950  -31.1281   24.4030 N   0  0  0  0  0  0  0  0  0  0  0  0
  -20.6618  -31.7043   19.1105 N   0  0  0  0  0  0  0  0  0  0  0  0
  -21.5072  -32.2071   15.6320 N   0  3  0  0  0  0  0  0  0  0  0  0
  -23.4180  -10.7837   18.7360 O   0  0  0  0  0  0  0  0  0  0  0  0
  -23.6580  -29.2651   23.2845 O   0  0  0  0  0  0  0  0  0  0  0  0
  -21.8957  -32.5757   21.5450 O   0  0  0  0  0  0  0  0  0  0  0  0
  -21.2848  -30.1344   17.5217 O   0  0  0  0  0  0  0  0  0  0  0  0
  -31.8113  -14.4727   20.0799 O   0  0  0  0  0  0  0  0  0  0  0  0
  -23.3558   -5.6173   24.5576 O   0  0  0  0  0  0  0  0  0  0  0  0
  -26.3930  -25.8704   18.9624 O   0  0  0  0  0  0  0  0  0  1  0  0
  -19.9320   -1.9327   22.2982 F   0  0  0  0  0  0  0  0  0  0  0  0
  -23.8526   -2.9057   24.7654 F   0  0  0  0  0  0  0  0  0  0  0  0
  1  2  1  0  0  0  0
  1  5  2  0  0  0  0
  2  6  2  0  0  0  0
  3 10  2  0  0  0  0
  3 18  1  0  0  0  0
  4 11  1  0  0  0  0
  4 18  2  0  0  0  0
  5 20  1  0  0  0  0
  6 22  1  0  0  0  0
  7 12  2  0  0  0  0
  7 21  1  0  0  0  0
  8  9  2  0  0  0  0
  8 25  1  0  0  0  0
  9 26  1  0  0  0  0
 10 27  1  0  0  0  0
 11 27  2  0  0  0  0
 12 28  1  0  0  0  0
 13 14  2  0  0  0  0
 13 29  1  0  0  0  0
 14 30  1  0  0  0  0
 15 23  1  0  0  0  0
 15 28  2  0  0  0  0
 16 24  1  0  0  0  0
 16 25  2  0  0  0  0
 17 30  2  0  0  0  0
 17 31  1  0  0  0  0
 18 32  1  0  0  0  0
 19 32  1  0  0  0  0
 19 33  2  0  0  0  0
 19 34  1  0  0  0  0
 20 22  2  0  0  0  0
 20 39  1  0  0  0  0
 21 23  2  0  0  0  0
 21 40  1  0  0  0  0
 22 48  1  0  0  0  0
 23 41  1  0  0  0  0
 24 26  2  0  0  0  0
 24 51  1  0  0  0  0
 25 71  1  0  0  0  0
 26 70  1  0  0  0  0
 27 80  1  0  0  0  0
 28 81  1  0  0  0  0
 29 31  2  0  0  0  0
 29 80  1  0  0  0  0
 30 82  1  0  0  0  0
 31 83  1  0  0  0  0
 32 64  2  0  0  0  0
 33 65  1  0  0  0  0
 33 68  1  0  0  0  0
 34 69  1  0  0  0  0
 34 75  2  0  0  0  0
 35 49  1  0  0  0  0
 35 72  1  0  0  0  0
 35 76  2  0  0  0  0
 36 61  1  0  0  0  0
 36 66  1  0  0  0  0
 36 77  2  0  0  0  0
 37 62  1  0  0  0  0
 37 73  1  0  0  0  0
 37 78  2  0  0  0  0
 38 67  1  0  0  0  0
 38 70  1  0  0  0  0
 38 79  2  0  0  0  0
 39 42  1  0  0  0  0
 40 49  1  0  0  0  0
 41 66  1  0  0  0  0
 42 44  1  0  0  0  0
 43 45  1  0  0  0  0
 43 46  1  0  0  0  0
 44 48  1  0  0  0  0
 45 50  1  0  0  0  0
 46 67  1  0  0  0  0
 47 50  1  0  0  0  0
 47 67  1  0  0  0  0
 48 72  1  0  0  0  0
 49 66  1  0  0  0  0
 50 65  1  0  0  0  0
 52 62  1  0  0  0  0
 53 63  1  0  0  0  0
 54 63  1  0  0  0  0
 55 63  1  0  0  0  0
 56 74  1  0  0  0  0
 57 58  1  0  0  0  0
 57 59  1  0  0  0  0
 58 60  1  0  0  0  0
 59 71  1  0  0  0  0
 60 81  1  0  0  0  0
 61 63  1  0  0  0  0
 61 73  1  0  0  0  0
 62 74  1  0  0  0  0
 64 65  1  0  0  0  0
M  CHG  1  74   1
M  ISO  4  38 100  60 101  70 100  81 101
M  END
> <Batch ID>
0020

> <Smiles>
CNC(C)C(=O)NC(C(=O)N1Cc2cc([101O:1][101CH2:1]CCCNc3ccc([100NH:0][100C:0](=O)N4CCCC(n5nc(-c6ccc(Oc7ccc(F)cc7F)cc6)c(C(N)=O)c5N)C4)c(C)c3)ccc2CC1C(=O)NC1CCCc2ccccc21)C(C)(C)C

> <Shape>
0.263

> <Color>
0.075

> <Negative vol penalty>
0.000

$$$$

  -OEChem-04042321083D

 87 95  0     1  0  0  0  0  0999 V2000
  -37.8472  -25.3119   21.1023 C   0  0  0  0  0  0  0  0  0  0  0  0
  -36.8541  -24.4413   20.6653 C   0  0  0  0  0  0  0  0  0  0  0  0
  -23.2124   -9.7584   20.0312 C   0  0  0  0  0  0  0  0  0  0  0  0
  -23.7908   -9.9765   22.3667 C   0  0  0  0  0  0  0  0  0  0  0  0
  -37.5044  -26.5787   21.5732 C   0  0  0  0  0  0  0  0  0  0  0  0
  -35.5173  -24.8365   20.7000 C   0  0  0  0  0  0  0  0  0  0  0  0
  -33.0311  -23.6549   16.4494 C   0  0  0  0  0  0  0  0  0  0  0  0
  -29.7803  -17.7408   23.0729 C   0  0  0  0  0  0  0  0  0  0  0  0
  -22.4899   -8.6003   20.3183 C   0  0  0  0  0  0  0  0  0  0  0  0
  -23.0682   -8.8185   22.6539 C   0  0  0  0  0  0  0  0  0  0  0  0
  -32.6276  -22.3292   16.2953 C   0  0  0  0  0  0  0  0  0  0  0  0
  -20.1937   -5.7873   20.4915 C   0  0  0  0  0  0  0  0  0  0  0  0
  -30.1568  -19.0791   22.9602 C   0  0  0  0  0  0  0  0  0  0  0  0
  -18.9323   -5.6497   19.9123 C   0  0  0  0  0  0  0  0  0  0  0  0
  -30.3985  -22.9329   16.9924 C   0  0  0  0  0  0  0  0  0  0  0  0
  -30.5639  -17.3309   20.8245 C   0  0  0  0  0  0  0  0  0  0  0  0
  -18.2022   -7.6673   21.0229 C   0  0  0  0  0  0  0  0  0  0  0  0
  -23.8630  -10.4464   21.0554 C   0  0  0  0  0  0  0  0  0  0  0  0
  -24.1295  -12.9656   20.7550 C   0  0  0  0  0  0  0  0  0  0  0  0
  -36.1636  -26.9932   21.6047 C   0  0  0  0  0  0  0  0  0  0  0  0
  -32.1225  -24.6291   16.8874 C   0  0  0  0  0  0  0  0  0  0  0  0
  -35.1561  -26.1095   21.1731 C   0  0  0  0  0  0  0  0  0  0  0  0
  -30.7923  -24.2707   17.1488 C   0  0  0  0  0  0  0  0  0  0  0  0
  -29.9839  -16.8666   22.0051 C   0  0  0  0  0  0  0  0  0  0  0  0
  -30.9404  -18.6693   20.7118 C   0  0  0  0  0  0  0  0  0  0  0  0
  -22.4177   -8.1304   21.6296 C   0  0  0  0  0  0  0  0  0  0  0  0
  -31.3120  -21.9675   16.5696 C   0  0  0  0  0  0  0  0  0  0  0  0
  -20.4594   -6.8649   21.3365 C   0  0  0  0  0  0  0  0  0  0  0  0
  -17.9366   -6.5897   20.1780 C   0  0  0  0  0  0  0  0  0  0  0  0
  -30.7368  -19.5434   21.7796 C   0  0  0  0  0  0  0  0  0  0  0  0
  -19.4637   -7.8049   21.6022 C   0  0  0  0  0  0  0  0  0  0  0  0
  -24.6100  -11.6424   20.7594 C   0  0  0  0  0  0  0  0  0  0  0  0
  -25.2213  -13.7263   20.4144 C   0  0  0  0  0  0  0  0  0  0  0  0
  -22.8140  -13.4628   21.0339 C   0  0  0  0  0  0  0  0  0  0  0  0
  -31.9361  -26.5480   19.4145 C   0  0  0  0  0  0  0  0  0  0  0  0
  -29.3929  -27.7678   17.8125 C   0  0  0  0  0  0  0  0  0  0  0  0
  -26.9372  -27.3008   15.4891 C   0  0  0  0  0  0  0  0  0  0  0  0
  -31.0412  -13.4709   21.4855 C   0  0  0  0  0  0  0  0  0  0  0  0
  -35.8376  -28.3544   22.1665 C   0  0  0  0  0  0  0  0  0  0  0  0
  -32.5666  -26.0597   17.0229 C   0  0  0  0  0  0  0  0  0  0  0  0
  -29.7728  -25.2825   17.6021 C   0  0  0  0  0  0  0  0  0  0  0  0
  -34.4309  -28.8353   21.8200 C   0  0  0  0  0  0  0  0  0  0  0  0
  -29.5273  -12.8586   18.1636 C   0  0  0  0  0  0  0  0  0  0  0  0
  -33.4124  -27.7260   22.0631 C   0  0  0  0  0  0  0  0  0  0  0  0
  -28.0757  -12.5356   18.5136 C   0  0  0  0  0  0  0  0  0  0  0  0
  -30.4803  -12.4832   19.2943 C   0  0  0  0  0  0  0  0  0  0  0  0
  -28.6721  -12.7625   20.9576 C   0  0  0  0  0  0  0  0  0  0  0  0
  -33.6970  -26.5109   21.1720 C   0  0  1  0  0  0  0  0  0  0  0  0
  -31.6868  -26.8715   17.9686 C   0  0  1  0  0  0  0  0  0  0  0  0
  -27.6809  -13.1716   19.8578 C   0  0  2  0  0  0  0  0  0  0  0  0
  -24.9865  -28.4653   14.4233 C   0  0  0  0  0  0  0  0  0  0  0  0
  -27.7394  -27.3006   20.3339 C   0  0  0  0  0  0  0  0  0  0  0  0
  -25.6737  -27.5701   18.9452 C   0  0  0  0  0  0  0  0  0  0  0  0
  -27.2790  -29.4662   19.1708 C   0  0  0  0  0  0  0  0  0  0  0  0
  -29.9924  -17.9071   16.2691 C   0  0  0  0  0  0  0  0  0  0  0  0
  -28.8535  -18.2529   18.4672 C   0  0  0  0  0  0  0  0  0  0  0  0
  -32.3064  -20.3693   19.5268 C   0  0  0  0  0  0  0  0  0  0  0  0
  -31.7187  -15.0157   23.2839 C   0  0  0  0  0  0  0  0  0  0  0  0
  -28.1542  -27.1248   12.7972 C   0  0  0  0  0  0  0  0  0  0  0  0
  -29.5812  -15.4358   22.1261 C   0  0  0  0  0  0  0  0  0  0  0  0
  -31.3809  -18.4083   18.2832 C   0  0  0  0  0  0  0  0  0  0  0  0
  -29.8685  -20.2134   17.2736 C   0  0  0  0  0  0  0  0  0  1  0  0
  -27.9149  -27.4645   17.7632 C   0  0  1  0  0  0  0  0  0  0  0  0
  -26.4732  -28.1604   14.3271 C   0  0  2  0  0  0  0  0  0  0  0  0
  -27.1712  -27.9307   19.0466 C   0  0  0  0  0  0  0  0  0  0  0  0
  -30.0316  -18.7091   17.5866 C   0  0  0  0  0  0  0  0  0  0  0  0
  -25.9061  -11.5635   20.4463 N   0  0  0  0  0  0  0  0  0  0  0  0
  -26.2493  -12.8466   20.2419 N   0  0  0  0  0  0  0  0  0  0  0  0
  -30.2573  -26.6672   17.7257 N   0  0  0  0  0  0  0  0  0  0  0  0
  -30.0576  -13.0653   20.5685 N   0  0  0  0  0  0  0  0  0  0  0  0
  -25.3927  -15.0550   20.2486 N   0  0  0  0  0  0  0  0  0  0  0  0
  -21.8094  -12.5442   21.3677 N   0  0  0  0  0  0  0  0  0  0  0  0
  -33.2402  -26.7568   19.8210 N   0  0  0  0  0  0  0  0  0  0  0  0
  -27.4155  -28.0661   16.5315 N   0  0  0  0  0  0  0  0  0  0  0  0
  -31.5230  -19.1335   19.5250 N   0  0  3  0  0  0  0  0  0  0  0  0
  -30.7271  -14.5509   22.3243 N   0  0  0  0  0  0  0  0  0  0  0  0
  -26.7275  -27.4644   13.0341 N   0  3  0  0  0  0  0  0  0  0  0  0
  -22.5334  -14.6839   20.9724 O   0  0  0  0  0  0  0  0  0  0  0  0
  -31.0133  -26.1406   20.1104 O   0  0  0  0  0  0  0  0  0  0  0  0
  -29.7669  -28.9386   17.9166 O   0  0  0  0  0  0  0  0  0  0  0  0
  -26.8774  -26.0732   15.4751 O   0  0  0  0  0  0  0  0  0  0  0  0
  -32.1411  -12.9063   21.5442 O   0  0  0  0  0  0  0  0  0  0  0  0
  -21.7125   -7.0006   21.9101 O   0  0  0  0  0  0  0  0  0  0  0  0
  -30.9157  -20.6742   16.4207 O   0  0  0  0  0  0  0  0  0  1  0  0
  -16.7258   -6.4583   19.6205 F   0  0  0  0  0  0  0  0  0  0  0  0
  -31.0951  -20.8316   21.6824 F   0  0  0  0  0  0  0  0  0  0  0  0
  -19.7133   -8.8429   22.4122 F   0  0  0  0  0  0  0  0  0  0  0  0
  1  2  1  0  0  0  0
  1  5  2  0  0  0  0
  2  6  2  0  0  0  0
  3  9  2  0  0  0  0
  3 18  1  0  0  0  0
  4 10  1  0  0  0  0
  4 18  2  0  0  0  0
  5 20  1  0  0  0  0
  6 22  1  0  0  0  0
  7 11  2  0  0  0  0
  7 21  1  0  0  0  0
  8 13  2  0  0  0  0
  8 24  1  0  0  0  0
  9 26  1  0  0  0  0
 10 26  2  0  0  0  0
 11 27  1  0  0  0  0
 12 14  2  0  0  0  0
 12 28  1  0  0  0  0
 13 30  1  0  0  0  0
 14 29  1  0  0  0  0
 15 23  1  0  0  0  0
 15 27  2  0  0  0  0
 16 24  2  0  0  0  0
 16 25  1  0  0  0  0
 17 29  2  0  0  0  0
 17 31  1  0  0  0  0
 18 32  1  0  0  0  0
 19 32  1  0  0  0  0
 19 33  2  0  0  0  0
 19 34  1  0  0  0  0
 20 22  2  0  0  0  0
 20 39  1  0  0  0  0
 21 23  2  0  0  0  0
 21 40  1  0  0  0  0
 22 48  1  0  0  0  0
 23 41  1  0  0  0  0
 24 60  1  0  0  0  0
 25 30  2  0  0  0  0
 25 75  1  0  0  0  0
 26 83  1  0  0  0  0
 27 84  1  0  0  0  0
 28 31  2  0  0  0  0
 28 83  1  0  0  0  0
 29 85  1  0  0  0  0
 30 86  1  0  0  0  0
 31 87  1  0  0  0  0
 32 67  2  0  0  0  0
 33 68  1  0  0  0  0
 33 71  1  0  0  0  0
 34 72  1  0  0  0  0
 34 78  2  0  0  0  0
 35 49  1  0  0  0  0
 35 73  1  0  0  0  0
 35 79  2  0  0  0  0
 36 63  1  0  0  0  0
 36 69  1  0  0  0  0
 36 80  2  0  0  0  0
 37 64  1  0  0  0  0
 37 74  1  0  0  0  0
 37 81  2  0  0  0  0
 38 70  1  0  0  0  0
 38 76  1  0  0  0  0
 38 82  2  0  0  0  0
 39 42  1  0  0  0  0
 40 49  1  0  0  0  0
 41 69  1  0  0  0  0
 42 44  1  0  0  0  0
 43 45  1  0  0  0  0
 43 46  1  0  0  0  0
 44 48  1  0  0  0  0
 45 50  1  0  0  0  0
 46 70  1  0  0  0  0
 47 50  1  0  0  0  0
 47 70  1  0  0  0  0
 48 73  1  0  0  0  0
 49 69  1  0  0  0  0
 50 68  1  0  0  0  0
 51 64  1  0  0  0  0
 52 65  1  0  0  0  0
 53 65  1  0  0  0  0
 54 65  1  0  0  0  0
 55 66  1  0  0  0  0
 56 66  1  0  0  0  0
 57 75  1  0  0  0  0
 58 76  1  0  0  0  0
 59 77  1  0  0  0  0
 60 76  1  0  0  0  0
 61 66  1  0  0  0  0
 61 75  1  0  0  0  0
 62 66  1  0  0  0  0
 62 84  1  0  0  0  0
 63 65  1  0  0  0  0
 63 74  1  0  0  0  0
 64 77  1  0  0  0  0
 67 68  1  0  0  0  0
M  CHG  1  77   1
M  ISO  4  38 100  62 101  76 100  84 101
M  END
> <Batch ID>
0020

> <Smiles>
CNC(C)C(=O)NC(C(=O)N1Cc2cc([101O:1][101CH2:1]C(C)(C)CN(C)c3cc(C[100N:0](C)[100C:0](=O)N4CCCC(n5nc(-c6ccc(Oc7ccc(F)cc7F)cc6)c(C(N)=O)c5N)C4)ccc3F)ccc2CC1C(=O)NC1CCCc2ccccc21)C(C)(C)C

> <Shape>
0.227

> <Color>
0.184

> <Negative vol penalty>
0.000

$$$$

  -OEChem-04042321083D

 84 93  0     1  0  0  0  0  0999 V2000
  -20.0404   -7.6338   19.1462 C   0  0  0  0  0  0  0  0  0  0  0  0
  -19.5905   -8.7811   19.7917 C   0  0  0  0  0  0  0  0  0  0  0  0
  -31.8569  -23.0134   18.5636 C   0  0  0  0  0  0  0  0  0  0  0  0
  -24.0316  -29.0396   23.9933 C   0  0  0  0  0  0  0  0  0  0  0  0
  -24.2848  -30.9928   22.5941 C   0  0  0  0  0  0  0  0  0  0  0  0
  -31.1662  -21.9999   19.2281 C   0  0  0  0  0  0  0  0  0  0  0  0
  -21.3212   -7.1470   19.4043 C   0  0  0  0  0  0  0  0  0  0  0  0
  -20.4207   -9.4417   20.6965 C   0  0  0  0  0  0  0  0  0  0  0  0
  -22.8071  -16.8797   20.7844 C   0  0  0  0  0  0  0  0  0  0  0  0
  -31.5054  -24.3476   18.7692 C   0  0  0  0  0  0  0  0  0  0  0  0
  -22.6444  -29.1597   23.9099 C   0  0  0  0  0  0  0  0  0  0  0  0
  -22.8977  -31.1129   22.5106 C   0  0  0  0  0  0  0  0  0  0  0  0
  -23.4226  -18.1312   20.8196 C   0  0  0  0  0  0  0  0  0  0  0  0
  -20.2108  -28.4308   21.6784 C   0  0  0  0  0  0  0  0  0  0  0  0
  -19.4735  -27.2725   21.4332 C   0  0  0  0  0  0  0  0  0  0  0  0
  -29.7726  -23.6547   20.3035 C   0  0  0  0  0  0  0  0  0  0  0  0
  -25.2974  -17.1873   22.0206 C   0  0  0  0  0  0  0  0  0  0  0  0
  -18.2976  -27.5791   23.5214 C   0  0  0  0  0  0  0  0  0  0  0  0
  -24.8518  -29.9562   23.3355 C   0  0  0  0  0  0  0  0  0  0  0  0
  -30.1241  -22.3206   20.0980 C   0  0  0  0  0  0  0  0  0  0  0  0
  -27.0728  -29.8729   24.5877 C   0  0  0  0  0  0  0  0  0  0  0  0
  -22.1711   -7.8075   20.3055 C   0  0  0  0  0  0  0  0  0  0  0  0
  -23.4423  -15.7729   21.3544 C   0  0  0  0  0  0  0  0  0  0  0  0
  -21.7135   -8.9626   20.9680 C   0  0  0  0  0  0  0  0  0  0  0  0
  -24.6914  -15.9288   21.9774 C   0  0  0  0  0  0  0  0  0  0  0  0
  -30.4633  -24.6682   19.6391 C   0  0  0  0  0  0  0  0  0  0  0  0
  -22.0774  -30.1963   23.1685 C   0  0  0  0  0  0  0  0  0  0  0  0
  -24.6645  -18.2846   21.4364 C   0  0  0  0  0  0  0  0  0  0  0  0
  -19.9916  -29.1633   22.8451 C   0  0  0  0  0  0  0  0  0  0  0  0
  -18.5169  -26.8466   22.3547 C   0  0  0  0  0  0  0  0  0  0  0  0
  -19.0349  -28.7375   23.7665 C   0  0  0  0  0  0  0  0  0  0  0  0
  -26.2848  -29.8331   23.4218 C   0  0  0  0  0  0  0  0  0  0  0  0
  -28.3603  -29.7113   24.1376 C   0  0  0  0  0  0  0  0  0  0  0  0
  -29.3853  -21.2183   22.1481 C   0  0  0  0  0  0  0  0  0  0  0  0
  -29.3922  -21.2441   20.8029 C   0  0  0  0  0  0  0  0  0  0  0  0
  -26.6763  -30.0407   25.9553 C   0  0  0  0  0  0  0  0  0  0  0  0
  -23.3284  -12.0940   22.0813 C   0  0  0  0  0  0  0  0  0  0  0  0
  -26.2109  -12.7518   21.2634 C   0  0  0  0  0  0  0  0  0  0  0  0
  -29.1579  -13.8101   19.9098 C   0  0  0  0  0  0  0  0  0  0  0  0
  -30.6915  -27.1495   19.2685 C   0  0  0  0  0  0  0  0  0  0  0  0
  -23.5298   -7.2168   20.5878 C   0  0  0  0  0  0  0  0  0  0  0  0
  -22.7885  -14.4183   21.3939 C   0  0  0  0  0  0  0  0  0  0  0  0
  -25.3216  -14.7170   22.6078 C   0  0  0  0  0  0  0  0  0  0  0  0
  -28.6596  -20.2076   22.9841 C   0  0  0  0  0  0  0  0  0  0  0  0
  -28.6481  -20.2356   19.9629 C   0  0  0  0  0  0  0  0  0  0  0  0
  -24.4844   -8.1875   21.2783 C   0  0  0  0  0  0  0  0  0  0  0  0
  -27.1478  -20.2046   22.7719 C   0  0  0  0  0  0  0  0  0  0  0  0
  -27.1367  -20.2396   20.1912 C   0  0  0  0  0  0  0  0  0  0  0  0
  -31.1191  -30.5276   20.3091 C   0  0  0  0  0  0  0  0  0  0  0  0
  -23.7840   -8.8926   22.4356 C   0  0  0  0  0  0  0  0  0  0  0  0
  -30.0034  -30.7346   21.3360 C   0  0  0  0  0  0  0  0  0  0  0  0
  -30.6696  -29.6319   19.1561 C   0  0  0  0  0  0  0  0  0  0  0  0
  -28.9818  -28.5480   20.5864 C   0  0  0  0  0  0  0  0  0  0  0  0
  -22.5937   -9.7211   21.9375 C   0  0  1  0  0  0  0  0  0  0  0  0
  -23.7924  -13.2595   21.2581 C   0  0  1  0  0  0  0  0  0  0  0  0
  -29.4077  -29.3908   21.7996 C   0  0  2  0  0  0  0  0  0  0  0  0
  -26.6920  -19.5334   21.4739 C   0  0  2  0  0  0  0  0  0  1  0  0
  -31.4427  -12.9877   19.2770 C   0  0  0  0  0  0  0  0  0  0  0  0
  -27.0220  -12.7541   24.2038 C   0  0  0  0  0  0  0  0  0  0  0  0
  -29.4127  -12.8790   23.4709 C   0  0  0  0  0  0  0  0  0  0  0  0
  -28.0203  -10.9054   22.8473 C   0  0  0  0  0  0  0  0  0  0  0  0
  -28.7409  -14.4914   17.0600 C   0  0  0  0  0  0  0  0  0  0  0  0
  -27.5997  -13.1265   21.7151 C   0  0  1  0  0  0  0  0  0  0  0  0
  -30.0203  -13.2366   18.7999 C   0  0  2  0  0  0  0  0  0  0  0  0
  -27.9949  -12.4360   23.0509 C   0  0  0  0  0  0  0  0  0  0  0  0
  -27.0111  -29.6601   22.3143 N   0  0  0  0  0  0  0  0  0  0  0  0
  -28.2689  -29.5897   22.7822 N   0  0  0  0  0  0  0  0  0  0  0  0
  -25.1581  -13.5501   21.7268 N   0  0  0  0  0  0  0  0  0  0  0  0
  -30.1206  -28.3755   19.6709 N   0  0  0  0  0  0  0  0  0  0  0  0
  -29.5505  -29.6630   24.7729 N   0  0  0  0  0  0  0  0  0  0  0  0
  -25.3128  -30.1933   26.2417 N   0  0  0  0  0  0  0  0  0  0  0  0
  -30.1074  -26.0237   19.8482 N   0  0  0  0  0  0  0  0  0  0  0  0
  -23.0524  -10.9586   21.3436 N   0  0  0  0  0  0  0  0  0  0  0  0
  -28.4882  -12.8213   20.5989 N   0  0  0  0  0  0  0  0  0  0  0  0
  -30.0699  -14.1764   17.6443 N   0  3  0  0  0  0  0  0  0  0  0  0
  -27.5080  -30.0713   26.8938 O   0  0  0  0  0  0  0  0  0  0  0  0
  -23.2290  -12.2141   23.2968 O   0  0  0  0  0  0  0  0  0  0  0  0
  -26.0600  -11.7749   20.5243 O   0  0  0  0  0  0  0  0  0  0  0  0
  -29.0883  -15.0145   20.1444 O   0  0  0  0  0  0  0  0  0  0  0  0
  -31.6471  -27.1033   18.4896 O   0  0  0  0  0  0  0  0  0  0  0  0
  -20.7239  -30.3136   23.0866 O   0  0  0  0  0  0  0  0  0  0  0  0
  -25.2618  -19.5082   21.4632 O   0  0  0  0  0  0  0  0  0  1  0  0
  -17.8078  -25.7351   22.1184 F   0  0  0  0  0  0  0  0  0  0  0  0
  -18.8190  -29.4377   24.8885 F   0  0  0  0  0  0  0  0  0  0  0  0
  1  2  1  0  0  0  0
  1  7  2  0  0  0  0
  2  8  2  0  0  0  0
  3  6  2  0  0  0  0
  3 10  1  0  0  0  0
  4 11  2  0  0  0  0
  4 19  1  0  0  0  0
  5 12  1  0  0  0  0
  5 19  2  0  0  0  0
  6 20  1  0  0  0  0
  7 22  1  0  0  0  0
  8 24  1  0  0  0  0
  9 13  2  0  0  0  0
  9 23  1  0  0  0  0
 10 26  2  0  0  0  0
 11 27  1  0  0  0  0
 12 27  2  0  0  0  0
 13 28  1  0  0  0  0
 14 15  2  0  0  0  0
 14 29  1  0  0  0  0
 15 30  1  0  0  0  0
 16 20  2  0  0  0  0
 16 26  1  0  0  0  0
 17 25  1  0  0  0  0
 17 28  2  0  0  0  0
 18 30  2  0  0  0  0
 18 31  1  0  0  0  0
 19 32  1  0  0  0  0
 20 35  1  0  0  0  0
 21 32  1  0  0  0  0
 21 33  2  0  0  0  0
 21 36  1  0  0  0  0
 22 24  2  0  0  0  0
 22 41  1  0  0  0  0
 23 25  2  0  0  0  0
 23 42  1  0  0  0  0
 24 54  1  0  0  0  0
 25 43  1  0  0  0  0
 26 72  1  0  0  0  0
 27 81  1  0  0  0  0
 28 82  1  0  0  0  0
 29 31  2  0  0  0  0
 29 81  1  0  0  0  0
 30 83  1  0  0  0  0
 31 84  1  0  0  0  0
 32 66  2  0  0  0  0
 33 67  1  0  0  0  0
 33 70  1  0  0  0  0
 34 35  2  0  0  0  0
 34 44  1  0  0  0  0
 35 45  1  0  0  0  0
 36 71  1  0  0  0  0
 36 76  2  0  0  0  0
 37 55  1  0  0  0  0
 37 73  1  0  0  0  0
 37 77  2  0  0  0  0
 38 63  1  0  0  0  0
 38 68  1  0  0  0  0
 38 78  2  0  0  0  0
 39 64  1  0  0  0  0
 39 74  1  0  0  0  0
 39 79  2  0  0  0  0
 40 69  1  0  0  0  0
 40 72  1  0  0  0  0
 40 80  2  0  0  0  0
 41 46  1  0  0  0  0
 42 55  1  0  0  0  0
 43 68  1  0  0  0  0
 44 47  1  0  0  0  0
 45 48  1  0  0  0  0
 46 50  1  0  0  0  0
 47 57  1  0  0  0  0
 48 57  1  0  0  0  0
 49 51  1  0  0  0  0
 49 52  1  0  0  0  0
 50 54  1  0  0  0  0
 51 56  1  0  0  0  0
 52 69  1  0  0  0  0
 53 56  1  0  0  0  0
 53 69  1  0  0  0  0
 54 73  1  0  0  0  0
 55 68  1  0  0  0  0
 56 67  1  0  0  0  0
 57 82  1  0  0  0  0
 58 64  1  0  0  0  0
 59 65  1  0  0  0  0
 60 65  1  0  0  0  0
 61 65  1  0  0  0  0
 62 75  1  0  0  0  0
 63 65  1  0  0  0  0
 63 74  1  0  0  0  0
 64 75  1  0  0  0  0
 66 67  1  0  0  0  0
M  CHG  1  75   1
M  ISO  4  40 100  57 101  72 100  82 101
M  END
> <Batch ID>
0020

> <Smiles>
CNC(C)C(=O)NC(C(=O)N1Cc2cc([101O:1][101CH:1]3CCC=C(c4cccc([100NH:0][100C:0](=O)N5CCCC(n6nc(-c7ccc(Oc8ccc(F)cc8F)cc7)c(C(N)=O)c6N)C5)c4)CC3)ccc2CC1C(=O)NC1CCCc2ccccc21)C(C)(C)C

> <Shape>
0.300

> <Color>
0.046

> <Negative vol penalty>
0.000

$$$$

  -OEChem-04042321083D

 87 95  0     1  0  0  0  0  0999 V2000
  -28.1429  -24.9020   13.6360 C   0  0  0  0  0  0  0  0  0  0  0  0
  -27.0791  -25.0012   14.5269 C   0  0  0  0  0  0  0  0  0  0  0  0
  -22.5943  -10.1246   22.1540 C   0  0  0  0  0  0  0  0  0  0  0  0
  -23.6958   -9.6108   20.0660 C   0  0  0  0  0  0  0  0  0  0  0  0
  -29.4527  -25.0143   14.1007 C   0  0  0  0  0  0  0  0  0  0  0  0
  -27.3244  -25.2117   15.8833 C   0  0  0  0  0  0  0  0  0  0  0  0
  -24.2924  -28.7419   17.8809 C   0  0  0  0  0  0  0  0  0  0  0  0
  -23.8885  -21.4659   18.8629 C   0  0  0  0  0  0  0  0  0  0  0  0
  -23.9408  -22.2001   16.5618 C   0  0  0  0  0  0  0  0  0  0  0  0
  -23.1157  -22.5771   19.1999 C   0  0  0  0  0  0  0  0  0  0  0  0
  -23.1680  -23.3113   16.8988 C   0  0  0  0  0  0  0  0  0  0  0  0
  -22.0615   -8.8361   22.1900 C   0  0  0  0  0  0  0  0  0  0  0  0
  -23.1630   -8.3222   20.1020 C   0  0  0  0  0  0  0  0  0  0  0  0
  -22.9857  -28.3616   18.1836 C   0  0  0  0  0  0  0  0  0  0  0  0
  -23.1166   -5.7258   22.9936 C   0  0  0  0  0  0  0  0  0  0  0  0
  -23.1747   -5.0338   24.2033 C   0  0  0  0  0  0  0  0  0  0  0  0
  -23.6028  -28.1084   20.5019 C   0  0  0  0  0  0  0  0  0  0  0  0
  -20.7642   -4.8720   24.2266 C   0  0  0  0  0  0  0  0  0  0  0  0
  -23.4115  -10.5120   21.0920 C   0  0  0  0  0  0  0  0  0  0  0  0
  -25.1885  -12.2716   21.5954 C   0  0  0  0  0  0  0  0  0  0  0  0
  -29.7138  -25.2360   15.4621 C   0  0  0  0  0  0  0  0  0  0  0  0
  -25.2684  -28.7978   18.8862 C   0  0  0  0  0  0  0  0  0  0  0  0
  -28.6389  -25.3258   16.3669 C   0  0  0  0  0  0  0  0  0  0  0  0
  -24.9206  -28.4921   20.2098 C   0  0  0  0  0  0  0  0  0  0  0  0
  -24.3011  -21.2774   17.5439 C   0  0  0  0  0  0  0  0  0  0  0  0
  -22.7555  -23.4998   18.2179 C   0  0  0  0  0  0  0  0  0  0  0  0
  -22.3458   -7.9349   21.1640 C   0  0  0  0  0  0  0  0  0  0  0  0
  -22.6414  -28.0420   19.4938 C   0  0  0  0  0  0  0  0  0  0  0  0
  -21.8822   -5.9909   22.4004 C   0  0  0  0  0  0  0  0  0  0  0  0
  -21.9986   -4.6069   24.8198 C   0  0  0  0  0  0  0  0  0  0  0  0
  -20.7061   -5.5640   23.0168 C   0  0  0  0  0  0  0  0  0  0  0  0
  -23.9618  -11.8431   21.0539 C   0  0  0  0  0  0  0  0  0  0  0  0
  -25.2470  -13.6108   21.2958 C   0  0  0  0  0  0  0  0  0  0  0  0
  -26.1860  -11.5259   22.3057 C   0  0  0  0  0  0  0  0  0  0  0  0
  -28.0179  -27.2979   19.4292 C   0  0  0  0  0  0  0  0  0  0  0  0
  -28.2356  -29.4083   21.8831 C   0  0  0  0  0  0  0  0  0  0  0  0
  -26.6358  -31.4767   24.0761 C   0  0  0  0  0  0  0  0  0  0  0  0
  -24.7125  -17.7779   17.9327 C   0  0  0  0  0  0  0  0  0  0  0  0
  -31.1478  -25.3034   15.9245 C   0  0  0  0  0  0  0  0  0  0  0  0
  -26.6671  -29.2357   18.5479 C   0  0  0  0  0  0  0  0  0  0  0  0
  -25.9264  -28.5562   21.3290 C   0  0  0  0  0  0  0  0  0  0  0  0
  -31.3102  -25.9002   17.3202 C   0  0  0  0  0  0  0  0  0  0  0  0
  -21.7229  -16.7541   19.5094 C   0  0  0  0  0  0  0  0  0  0  0  0
  -30.3019  -25.2841   18.2848 C   0  0  0  0  0  0  0  0  0  0  0  0
  -22.1362  -15.4045   20.0947 C   0  0  0  0  0  0  0  0  0  0  0  0
  -22.3101  -16.9798   18.1149 C   0  0  0  0  0  0  0  0  0  0  0  0
  -24.1928  -15.4609   18.6355 C   0  0  0  0  0  0  0  0  0  0  0  0
  -28.8636  -25.5787   17.8419 C   0  0  1  0  0  0  0  0  0  0  0  0
  -27.7035  -28.7612   19.5620 C   0  0  1  0  0  0  0  0  0  0  0  0
  -23.6650  -15.2352   20.0607 C   0  0  2  0  0  0  0  0  0  0  0  0
  -27.0770  -33.0411   25.9880 C   0  0  0  0  0  0  0  0  0  0  0  0
  -28.6716  -27.0210   23.7327 C   0  0  0  0  0  0  0  0  0  0  0  0
  -28.1571  -28.5184   25.6721 C   0  0  0  0  0  0  0  0  0  0  0  0
  -30.1269  -28.9962   24.2180 C   0  0  0  0  0  0  0  0  0  0  0  0
  -20.0144  -24.6728   21.5963 C   0  0  0  0  0  0  0  0  0  0  0  0
  -18.6920  -26.7482   21.1645 C   0  0  0  0  0  0  0  0  0  0  0  0
  -23.3917  -18.7779   16.0195 C   0  0  0  0  0  0  0  0  0  0  0  0
  -25.5040  -33.7810   22.6035 C   0  0  0  0  0  0  0  0  0  0  0  0
  -19.8812  -23.6329   17.6286 C   0  0  0  0  0  0  0  0  0  0  0  0
  -25.1273  -20.0896   17.1827 C   0  0  0  0  0  0  0  0  0  0  0  0
  -21.9228  -24.6939   18.5808 C   0  0  0  0  0  0  0  0  0  0  0  0
  -19.6682  -25.5307   19.2270 C   0  0  0  0  0  0  0  0  0  0  0  0
  -21.1921  -26.7672   20.8831 C   0  0  0  0  0  0  0  0  0  1  0  0
  -27.7981  -29.4167   23.3279 C   0  0  1  0  0  0  0  0  0  0  0  0
  -26.9033  -32.9147   24.4824 C   0  0  2  0  0  0  0  0  0  0  0  0
  -28.6697  -28.4849   24.2165 C   0  0  0  0  0  0  0  0  0  0  0  0
  -19.9114  -25.9224   20.7024 C   0  0  0  0  0  0  0  0  0  0  0  0
  -23.2893  -12.8301   20.4557 N   0  0  0  0  0  0  0  0  0  0  0  0
  -24.0964  -13.8921   20.6197 N   0  0  0  0  0  0  0  0  0  0  0  0
  -27.2824  -28.9836   20.9467 N   0  0  0  0  0  0  0  0  0  0  0  0
  -23.7631  -16.7619   18.1171 N   0  0  0  0  0  0  0  0  0  0  0  0
  -26.1699  -14.5634   21.5474 N   0  0  0  0  0  0  0  0  0  0  0  0
  -25.9670  -10.1594   22.5272 N   0  0  0  0  0  0  0  0  0  0  0  0
  -28.4972  -26.9361   18.1848 N   0  0  0  0  0  0  0  0  0  0  0  0
  -27.7993  -30.8142   23.7467 N   0  0  0  0  0  0  0  0  0  0  0  0
  -24.3416  -18.8649   17.1269 N   0  0  0  0  0  0  0  0  0  0  0  0
  -25.7718  -33.7900   24.0648 N   0  3  0  0  0  0  0  0  0  0  0  0
  -20.4714  -24.3533   18.8162 N   0  3  1  0  0  0  0  0  0  0  0  0
  -27.2328  -12.0591   22.7455 O   0  0  0  0  0  0  0  0  0  0  0  0
  -27.8402  -26.5526   20.3856 O   0  0  0  0  0  0  0  0  0  0  0  0
  -29.3785  -29.7721   21.5952 O   0  0  0  0  0  0  0  0  0  0  0  0
  -25.5079  -30.9888   24.0566 O   0  0  0  0  0  0  0  0  0  0  0  0
  -25.8340  -17.7147   18.4526 O   0  0  0  0  0  0  0  0  0  0  0  0
  -21.8262   -6.6773   21.1990 O   0  0  0  0  0  0  0  0  0  0  0  0
  -21.3668  -27.6700   19.7919 O   0  0  0  0  0  0  0  0  0  1  0  0
  -22.0546   -3.9411   25.9807 F   0  0  0  0  0  0  0  0  0  0  0  0
  -19.5174   -5.8148   22.4512 F   0  0  0  0  0  0  0  0  0  0  0  0
  1  2  1  0  0  0  0
  1  5  2  0  0  0  0
  2  6  2  0  0  0  0
  3 12  2  0  0  0  0
  3 19  1  0  0  0  0
  4 13  1  0  0  0  0
  4 19  2  0  0  0  0
  5 21  1  0  0  0  0
  6 23  1  0  0  0  0
  7 14  2  0  0  0  0
  7 22  1  0  0  0  0
  8 10  2  0  0  0  0
  8 25  1  0  0  0  0
  9 11  1  0  0  0  0
  9 25  2  0  0  0  0
 10 26  1  0  0  0  0
 11 26  2  0  0  0  0
 12 27  1  0  0  0  0
 13 27  2  0  0  0  0
 14 28  1  0  0  0  0
 15 16  2  0  0  0  0
 15 29  1  0  0  0  0
 16 30  1  0  0  0  0
 17 24  1  0  0  0  0
 17 28  2  0  0  0  0
 18 30  2  0  0  0  0
 18 31  1  0  0  0  0
 19 32  1  0  0  0  0
 20 32  1  0  0  0  0
 20 33  2  0  0  0  0
 20 34  1  0  0  0  0
 21 23  2  0  0  0  0
 21 39  1  0  0  0  0
 22 24  2  0  0  0  0
 22 40  1  0  0  0  0
 23 48  1  0  0  0  0
 24 41  1  0  0  0  0
 25 60  1  0  0  0  0
 26 61  1  0  0  0  0
 27 84  1  0  0  0  0
 28 85  1  0  0  0  0
 29 31  2  0  0  0  0
 29 84  1  0  0  0  0
 30 86  1  0  0  0  0
 31 87  1  0  0  0  0
 32 68  2  0  0  0  0
 33 69  1  0  0  0  0
 33 72  1  0  0  0  0
 34 73  1  0  0  0  0
 34 79  2  0  0  0  0
 35 49  1  0  0  0  0
 35 74  1  0  0  0  0
 35 80  2  0  0  0  0
 36 64  1  0  0  0  0
 36 70  1  0  0  0  0
 36 81  2  0  0  0  0
 37 65  1  0  0  0  0
 37 75  1  0  0  0  0
 37 82  2  0  0  0  0
 38 71  1  0  0  0  0
 38 76  1  0  0  0  0
 38 83  2  0  0  0  0
 39 42  1  0  0  0  0
 40 49  1  0  0  0  0
 41 70  1  0  0  0  0
 42 44  1  0  0  0  0
 43 45  1  0  0  0  0
 43 46  1  0  0  0  0
 44 48  1  0  0  0  0
 45 50  1  0  0  0  0
 46 71  1  0  0  0  0
 47 50  1  0  0  0  0
 47 71  1  0  0  0  0
 48 74  1  0  0  0  0
 49 70  1  0  0  0  0
 50 69  1  0  0  0  0
 51 65  1  0  0  0  0
 52 66  1  0  0  0  0
 53 66  1  0  0  0  0
 54 66  1  0  0  0  0
 55 67  1  0  0  0  0
 56 67  1  0  0  0  0
 57 76  1  0  0  0  0
 58 77  1  0  0  0  0
 59 78  1  0  0  0  0
 60 76  1  0  0  0  0
 61 78  1  0  0  0  0
 62 67  1  0  0  0  0
 62 78  1  0  0  0  0
 63 67  1  0  0  0  0
 63 85  1  0  0  0  0
 64 66  1  0  0  0  0
 64 75  1  0  0  0  0
 65 77  1  0  0  0  0
 68 69  1  0  0  0  0
M  CHG  2  77   1  78   1
M  ISO  4  38 100  63 101  76 100  85 101
M  END
> <Batch ID>
0020

> <Smiles>
CNC(C)C(=O)NC(C(=O)N1Cc2cc([101O:1][101CH2:1]C(C)(C)CN(C)Cc3ccc(C[100N:0](C)[100C:0](=O)N4CCCC(n5nc(-c6ccc(Oc7ccc(F)cc7F)cc6)c(C(N)=O)c5N)C4)cc3)ccc2CC1C(=O)NC1CCCc2ccccc21)C(C)(C)C

> <Shape>
0.225

> <Color>
0.109

> <Negative vol penalty>
0.000

$$$$

  -OEChem-04042321083D

 87 96  0     1  0  0  0  0  0999 V2000
  -30.3874  -26.2780   16.6453 C   0  0  0  0  0  0  0  0  0  0  0  0
  -29.0009  -26.2382   16.7525 C   0  0  0  0  0  0  0  0  0  0  0  0
  -23.8370  -13.1835   20.6602 C   0  0  0  0  0  0  0  0  0  0  0  0
  -26.0489  -14.1523   20.7372 C   0  0  0  0  0  0  0  0  0  0  0  0
  -31.1600  -26.6509   17.7443 C   0  0  0  0  0  0  0  0  0  0  0  0
  -28.3863  -26.5703   17.9593 C   0  0  0  0  0  0  0  0  0  0  0  0
  -23.0110  -29.4114   18.6937 C   0  0  0  0  0  0  0  0  0  0  0  0
  -24.3959  -11.9057   20.6845 C   0  0  0  0  0  0  0  0  0  0  0  0
  -26.6078  -12.8745   20.7615 C   0  0  0  0  0  0  0  0  0  0  0  0
  -21.7284  -28.9367   18.9649 C   0  0  0  0  0  0  0  0  0  0  0  0
  -25.2268   -8.3900   21.0905 C   0  0  0  0  0  0  0  0  0  0  0  0
  -24.6546   -7.4481   21.9454 C   0  0  0  0  0  0  0  0  0  0  0  0
  -22.0715  -29.3693   21.3132 C   0  0  0  0  0  0  0  0  0  0  0  0
  -20.6660  -24.5687   21.8121 C   0  0  0  0  0  0  0  0  0  0  0  0
  -20.4374  -24.3344   19.4185 C   0  0  0  0  0  0  0  0  0  0  0  0
  -25.1483   -8.8662   23.8382 C   0  0  0  0  0  0  0  0  0  0  0  0
  -24.6636  -14.3068   20.6865 C   0  0  0  0  0  0  0  0  0  0  0  0
  -23.1975  -16.1845   21.5988 C   0  0  0  0  0  0  0  0  0  0  0  0
  -30.5541  -26.9970   18.9624 C   0  0  0  0  0  0  0  0  0  0  0  0
  -23.8388  -29.8592   19.7332 C   0  0  0  0  0  0  0  0  0  0  0  0
  -29.1516  -26.9469   19.0761 C   0  0  0  0  0  0  0  0  0  0  0  0
  -23.3632  -29.8516   21.0522 C   0  0  0  0  0  0  0  0  0  0  0  0
  -22.1434  -23.0936   20.5961 C   0  0  0  0  0  0  0  0  0  0  0  0
  -20.0212  -24.9042   20.6217 C   0  0  0  0  0  0  0  0  0  0  0  0
  -25.7812  -11.7512   20.7352 C   0  0  0  0  0  0  0  0  0  0  0  0
  -21.2596  -28.9129   20.2752 C   0  0  0  0  0  0  0  0  0  0  0  0
  -25.7598   -9.5700   21.6093 C   0  0  0  0  0  0  0  0  0  0  0  0
  -24.6153   -7.6862   23.3193 C   0  0  0  0  0  0  0  0  0  0  0  0
  -21.7272  -23.6634   21.7994 C   0  0  0  0  0  0  0  0  0  0  0  0
  -25.7206   -9.8081   22.9832 C   0  0  0  0  0  0  0  0  0  0  0  0
  -21.4985  -23.4291   19.4057 C   0  0  0  0  0  0  0  0  0  0  0  0
  -24.0869  -15.6270   20.6608 C   0  0  0  0  0  0  0  0  0  0  0  0
  -22.9495  -17.4502   21.1266 C   0  0  0  0  0  0  0  0  0  0  0  0
  -22.6449  -15.6097   22.7904 C   0  0  0  0  0  0  0  0  0  0  0  0
  -26.6503  -28.9559   20.9092 C   0  0  0  0  0  0  0  0  0  0  0  0
  -26.3127  -31.6269   22.7187 C   0  0  0  0  0  0  0  0  0  0  0  0
  -24.2220  -33.9311   24.1211 C   0  0  0  0  0  0  0  0  0  0  0  0
  -25.2606  -22.2073   19.0419 C   0  0  0  0  0  0  0  0  0  0  0  0
  -31.4332  -27.3480   20.1366 C   0  0  0  0  0  0  0  0  0  0  0  0
  -25.2098  -30.3932   19.4209 C   0  0  0  0  0  0  0  0  0  0  0  0
  -24.2050  -30.3402   22.2016 C   0  0  0  0  0  0  0  0  0  0  0  0
  -30.6859  -28.0468   21.2695 C   0  0  0  0  0  0  0  0  0  0  0  0
  -24.0578  -19.6072   16.6979 C   0  0  0  0  0  0  0  0  0  0  0  0
  -16.7146  -26.3976   20.3819 C   0  0  0  0  0  0  0  0  0  0  0  0
  -29.3811  -27.3190   21.5770 C   0  0  0  0  0  0  0  0  0  0  0  0
  -23.9570  -18.3730   17.5926 C   0  0  0  0  0  0  0  0  0  0  0  0
  -17.3902  -27.4590   21.2320 C   0  0  0  0  0  0  0  0  0  0  0  0
  -17.8824  -25.7336   19.6628 C   0  0  0  0  0  0  0  0  0  0  0  0
  -25.1246  -20.5799   17.1913 C   0  0  0  0  0  0  0  0  0  0  0  0
  -24.8546  -19.7554   19.5068 C   0  0  0  0  0  0  0  0  0  0  0  0
  -28.4468  -27.3240   20.3611 C   0  0  1  0  0  0  0  0  0  0  0  0
  -26.1566  -30.3444   20.6162 C   0  0  1  0  0  0  0  0  0  0  0  0
  -23.7566  -18.7768   19.0637 C   0  0  2  0  0  0  0  0  0  0  0  0
  -18.6986  -26.7902   21.6881 C   0  0  2  0  0  0  0  0  0  0  0  0
  -24.2357  -35.9747   25.5774 C   0  0  0  0  0  0  0  0  0  0  0  0
  -26.7805  -29.8731   25.1713 C   0  0  0  0  0  0  0  0  0  0  0  0
  -25.8566  -31.7224   26.5836 C   0  0  0  0  0  0  0  0  0  0  0  0
  -27.9272  -32.0944   25.2431 C   0  0  0  0  0  0  0  0  0  0  0  0
  -24.8136  -24.0649   20.6004 C   0  0  0  0  0  0  0  0  0  0  0  0
  -23.0304  -35.6010   21.9880 C   0  0  0  0  0  0  0  0  0  0  0  0
  -23.2849  -22.1288   20.6209 C   0  0  0  0  0  0  0  0  0  0  0  0
  -19.8010  -27.8366   21.8147 C   0  0  0  0  0  0  0  0  0  1  0  0
  -25.6975  -31.9376   24.0618 C   0  0  1  0  0  0  0  0  0  0  0  0
  -24.2698  -35.4481   24.1511 C   0  0  2  0  0  0  0  0  0  0  0  0
  -26.5500  -31.3958   25.2438 C   0  0  0  0  0  0  0  0  0  0  0  0
  -24.3838  -16.4694   19.6677 N   0  0  0  0  0  0  0  0  0  0  0  0
  -23.6769  -17.5692   19.9791 N   0  0  0  0  0  0  0  0  0  0  0  0
  -18.9723  -25.8020   20.6351 N   0  0  3  0  0  0  0  0  0  0  0  0
  -25.5407  -30.8470   21.8460 N   0  0  0  0  0  0  0  0  0  0  0  0
  -24.9356  -20.9131   18.6036 N   0  0  0  0  0  0  0  0  0  0  0  0
  -22.1823  -18.4619   21.5852 N   0  0  0  0  0  0  0  0  0  0  0  0
  -23.3419  -15.7714   23.9955 N   0  0  0  0  0  0  0  0  0  0  0  0
  -27.8007  -28.6119   20.2253 N   0  0  0  0  0  0  0  0  0  0  0  0
  -25.4860  -33.3808   24.0899 N   0  0  0  0  0  0  0  0  0  0  0  0
  -24.5215  -22.7228   20.1174 N   0  0  0  0  0  0  0  0  0  0  0  0
  -23.1079  -36.0176   23.4118 N   0  3  0  0  0  0  0  0  0  0  0  0
  -21.5733  -14.9576   22.7837 O   0  0  0  0  0  0  0  0  0  0  0  0
  -26.0341  -28.2495   21.6985 O   0  0  0  0  0  0  0  0  0  0  0  0
  -27.4338  -32.0662   22.4509 O   0  0  0  0  0  0  0  0  0  0  0  0
  -23.1689  -33.2975   24.1286 O   0  0  0  0  0  0  0  0  0  0  0  0
  -26.1538  -22.8682   18.4965 O   0  0  0  0  0  0  0  0  0  0  0  0
  -26.3269  -10.5045   20.7591 O   0  0  0  0  0  0  0  0  0  0  0  0
  -20.0084  -28.4494   20.5428 O   0  0  0  0  0  0  0  0  0  1  0  0
  -24.0644   -6.7823   24.1400 F   0  0  0  0  0  0  0  0  0  0  0  0
  -22.3415  -23.3498   22.9488 F   0  0  0  0  0  0  0  0  0  0  0  0
  -26.2300  -10.9404   23.4874 F   0  0  0  0  0  0  0  0  0  0  0  0
  -21.9853  -22.7442   17.8978 Cl  0  0  0  0  0  0  0  0  0  0  0  0
  1  2  1  0  0  0  0
  1  5  2  0  0  0  0
  2  6  2  0  0  0  0
  3  8  2  0  0  0  0
  3 17  1  0  0  0  0
  4  9  1  0  0  0  0
  4 17  2  0  0  0  0
  5 19  1  0  0  0  0
  6 21  1  0  0  0  0
  7 10  2  0  0  0  0
  7 20  1  0  0  0  0
  8 25  1  0  0  0  0
  9 25  2  0  0  0  0
 10 26  1  0  0  0  0
 11 12  2  0  0  0  0
 11 27  1  0  0  0  0
 12 28  1  0  0  0  0
 13 22  1  0  0  0  0
 13 26  2  0  0  0  0
 14 24  1  0  0  0  0
 14 29  2  0  0  0  0
 15 24  2  0  0  0  0
 15 31  1  0  0  0  0
 16 28  2  0  0  0  0
 16 30  1  0  0  0  0
 17 32  1  0  0  0  0
 18 32  1  0  0  0  0
 18 33  2  0  0  0  0
 18 34  1  0  0  0  0
 19 21  2  0  0  0  0
 19 39  1  0  0  0  0
 20 22  2  0  0  0  0
 20 40  1  0  0  0  0
 21 51  1  0  0  0  0
 22 41  1  0  0  0  0
 23 29  1  0  0  0  0
 23 31  2  0  0  0  0
 23 61  1  0  0  0  0
 24 68  1  0  0  0  0
 25 82  1  0  0  0  0
 26 83  1  0  0  0  0
 27 30  2  0  0  0  0
 27 82  1  0  0  0  0
 28 84  1  0  0  0  0
 29 85  1  0  0  0  0
 30 86  1  0  0  0  0
 31 87  1  0  0  0  0
 32 66  2  0  0  0  0
 33 67  1  0  0  0  0
 33 71  1  0  0  0  0
 34 72  1  0  0  0  0
 34 77  2  0  0  0  0
 35 52  1  0  0  0  0
 35 73  1  0  0  0  0
 35 78  2  0  0  0  0
 36 63  1  0  0  0  0
 36 69  1  0  0  0  0
 36 79  2  0  0  0  0
 37 64  1  0  0  0  0
 37 74  1  0  0  0  0
 37 80  2  0  0  0  0
 38 70  1  0  0  0  0
 38 75  1  0  0  0  0
 38 81  2  0  0  0  0
 39 42  1  0  0  0  0
 40 52  1  0  0  0  0
 41 69  1  0  0  0  0
 42 45  1  0  0  0  0
 43 46  1  0  0  0  0
 43 49  1  0  0  0  0
 44 47  1  0  0  0  0
 44 48  1  0  0  0  0
 45 51  1  0  0  0  0
 46 53  1  0  0  0  0
 47 54  1  0  0  0  0
 48 68  1  0  0  0  0
 49 70  1  0  0  0  0
 50 53  1  0  0  0  0
 50 70  1  0  0  0  0
 51 73  1  0  0  0  0
 52 69  1  0  0  0  0
 53 67  1  0  0  0  0
 54 62  1  0  0  0  0
 54 68  1  0  0  0  0
 55 64  1  0  0  0  0
 56 65  1  0  0  0  0
 57 65  1  0  0  0  0
 58 65  1  0  0  0  0
 59 75  1  0  0  0  0
 60 76  1  0  0  0  0
 61 75  1  0  0  0  0
 62 83  1  0  0  0  0
 63 65  1  0  0  0  0
 63 74  1  0  0  0  0
 64 76  1  0  0  0  0
 66 67  1  0  0  0  0
M  CHG  1  76   1
M  ISO  4  38 100  62 101  75 100  83 101
M  END
> <Batch ID>
0020

> <Smiles>
CNC(C)C(=O)NC(C(=O)N1Cc2cc([101O:1][101CH2:1]C3CCCN3c3cc(F)c(C[100N:0](C)[100C:0](=O)N4CCCC(n5nc(-c6ccc(Oc7ccc(F)cc7F)cc6)c(C(N)=O)c5N)C4)c(Cl)c3)ccc2CC1C(=O)NC1CCCc2ccccc21)C(C)(C)C

> <Shape>
0.260

> <Color>
0.079

> <Negative vol penalty>
0.000

$$$$

  -OEChem-04042321083D

 85 94  0     1  0  0  0  0  0999 V2000
  -26.9449  -18.8625   16.4515 C   0  0  0  0  0  0  0  0  0  0  0  0
  -27.0431  -18.4774   17.7848 C   0  0  0  0  0  0  0  0  0  0  0  0
  -26.2642  -29.2340   19.5168 C   0  0  0  0  0  0  0  0  0  0  0  0
  -26.2965  -28.5542   21.8350 C   0  0  0  0  0  0  0  0  0  0  0  0
  -25.8171  -18.5164   15.7084 C   0  0  0  0  0  0  0  0  0  0  0  0
  -26.0129  -17.7470   18.3760 C   0  0  0  0  0  0  0  0  0  0  0  0
  -27.7235  -13.8688   21.1470 C   0  0  0  0  0  0  0  0  0  0  0  0
  -28.2208  -20.2119   25.0796 C   0  0  0  0  0  0  0  0  0  0  0  0
  -28.6022  -21.0758   24.0530 C   0  0  0  0  0  0  0  0  0  0  0  0
  -25.1090  -29.9795   19.7515 C   0  0  0  0  0  0  0  0  0  0  0  0
  -25.1413  -29.2998   22.0697 C   0  0  0  0  0  0  0  0  0  0  0  0
  -28.2299  -14.1645   22.4119 C   0  0  0  0  0  0  0  0  0  0  0  0
  -24.3296  -32.5424   22.5673 C   0  0  0  0  0  0  0  0  0  0  0  0
  -24.2958  -33.3392   23.7116 C   0  0  0  0  0  0  0  0  0  0  0  0
  -26.1429  -13.4711   23.4031 C   0  0  0  0  0  0  0  0  0  0  0  0
  -28.2732  -19.3060   22.4415 C   0  0  0  0  0  0  0  0  0  0  0  0
  -22.3725  -32.1132   24.5085 C   0  0  0  0  0  0  0  0  0  0  0  0
  -26.8580  -28.5213   20.5585 C   0  0  0  0  0  0  0  0  0  0  0  0
  -29.3840  -28.1898   20.4271 C   0  0  0  0  0  0  0  0  0  0  0  0
  -24.7769  -17.7731   16.2881 C   0  0  0  0  0  0  0  0  0  0  0  0
  -26.4168  -13.3815   20.9996 C   0  0  0  0  0  0  0  0  0  0  0  0
  -24.8695  -17.3918   17.6403 C   0  0  0  0  0  0  0  0  0  0  0  0
  -25.6231  -13.1676   22.1355 C   0  0  0  0  0  0  0  0  0  0  0  0
  -27.8656  -18.8950   24.7872 C   0  0  0  0  0  0  0  0  0  0  0  0
  -28.6283  -20.6229   22.7340 C   0  0  0  0  0  0  0  0  0  0  0  0
  -24.5475  -30.0125   21.0279 C   0  0  0  0  0  0  0  0  0  0  0  0
  -27.4387  -13.9684   23.5399 C   0  0  0  0  0  0  0  0  0  0  0  0
  -23.3849  -31.5309   22.3936 C   0  0  0  0  0  0  0  0  0  0  0  0
  -23.3173  -33.1247   24.6822 C   0  0  0  0  0  0  0  0  0  0  0  0
  -27.8918  -18.4421   23.4681 C   0  0  0  0  0  0  0  0  0  0  0  0
  -22.4064  -31.3163   23.3642 C   0  0  0  0  0  0  0  0  0  0  0  0
  -28.0511  -27.7505   20.3166 C   0  0  0  0  0  0  0  0  0  0  0  0
  -30.1367  -27.0900   20.0949 C   0  0  0  0  0  0  0  0  0  0  0  0
  -29.8959  -29.4770   20.7969 C   0  0  0  0  0  0  0  0  0  0  0  0
  -23.7854  -14.4207   19.5508 C   0  0  0  0  0  0  0  0  0  0  0  0
  -22.6290  -11.5175   20.4206 C   0  0  0  0  0  0  0  0  0  0  0  0
  -22.8084   -8.8410   22.5303 C   0  0  0  0  0  0  0  0  0  0  0  0
  -29.0978  -21.2103   20.3297 C   0  0  0  0  0  0  0  0  0  0  0  0
  -23.5563  -17.4632   15.4583 C   0  0  0  0  0  0  0  0  0  0  0  0
  -25.8947  -13.0421   19.6305 C   0  0  0  0  0  0  0  0  0  0  0  0
  -24.2209  -12.6273   22.0328 C   0  0  0  0  0  0  0  0  0  0  0  0
  -22.6776  -16.3659   16.0536 C   0  0  0  0  0  0  0  0  0  0  0  0
  -29.9765  -23.1039   17.4454 C   0  0  0  0  0  0  0  0  0  0  0  0
  -29.6900  -16.1415   27.9007 C   0  0  0  0  0  0  0  0  0  0  0  0
  -22.4565  -16.6084   17.5432 C   0  0  0  0  0  0  0  0  0  0  0  0
  -29.7095  -24.5509   17.8665 C   0  0  0  0  0  0  0  0  0  0  0  0
  -28.8555  -14.9496   27.4758 C   0  0  0  0  0  0  0  0  0  0  0  0
  -28.9437  -22.1429   18.0315 C   0  0  0  0  0  0  0  0  0  0  0  0
  -28.5035  -23.6770   19.9082 C   0  0  0  0  0  0  0  0  0  0  0  0
  -29.6678  -17.0465   26.6840 C   0  0  0  0  0  0  0  0  0  0  0  0
  -23.7840  -16.5775   18.3102 C   0  0  1  0  0  0  0  0  0  0  0  0
  -24.3709  -13.0369   19.5565 C   0  0  1  0  0  0  0  0  0  0  0  0
  -29.5556  -24.6736   19.3951 C   0  0  2  0  0  0  0  0  0  0  0  0
  -27.6885  -15.5997   26.7475 C   0  0  2  0  0  0  0  0  0  0  0  0
  -21.7069   -6.6395   23.0176 C   0  0  0  0  0  0  0  0  0  0  0  0
  -20.2900  -12.9793   21.7253 C   0  0  0  0  0  0  0  0  0  0  0  0
  -19.7620  -10.8747   22.9744 C   0  0  0  0  0  0  0  0  0  0  0  0
  -19.6597  -10.9028   20.4821 C   0  0  0  0  0  0  0  0  0  0  0  0
  -25.3061   -7.3431   22.0045 C   0  0  0  0  0  0  0  0  0  0  0  0
  -27.4541  -17.9697   25.8941 C   0  0  0  0  0  0  0  0  0  0  0  0
  -26.9923  -14.6744   25.7666 C   0  0  0  0  0  0  0  0  0  1  0  0
  -21.9107  -10.9717   21.6310 C   0  0  1  0  0  0  0  0  0  0  0  0
  -22.8218   -7.3467   22.2629 C   0  0  2  0  0  0  0  0  0  0  0  0
  -20.4313  -11.4442   21.7053 C   0  0  0  0  0  0  0  0  0  0  0  0
  -27.9591  -26.4713   19.9433 N   0  0  0  0  0  0  0  0  0  0  0  0
  -29.2436  -26.0975   19.8162 N   0  0  0  0  0  0  0  0  0  0  0  0
  -23.7533  -12.3166   20.6718 N   0  0  0  0  0  0  0  0  0  0  0  0
  -28.8556  -22.3130   19.4835 N   0  0  0  0  0  0  0  0  0  0  0  0
  -31.4687  -26.8847   20.0169 N   0  0  0  0  0  0  0  0  0  0  0  0
  -28.9838  -30.4948   21.1073 N   0  0  0  0  0  0  0  0  0  0  0  0
  -29.0177  -21.4999   21.6914 N   0  0  0  0  0  0  0  0  0  0  0  0
  -24.2229  -15.2124   18.5062 N   0  0  0  0  0  0  0  0  0  0  0  0
  -22.0736   -9.5227   21.5834 N   0  0  0  0  0  0  0  0  0  0  0  0
  -28.3359  -16.7637   26.0095 N   0  3  1  0  0  0  0  0  0  0  0  0
  -24.1233   -6.7566   22.6856 N   0  3  0  0  0  0  0  0  0  0  0  0
  -31.1256  -29.7221   20.8346 O   0  0  0  0  0  0  0  0  0  0  0  0
  -22.9940  -14.7455   20.4283 O   0  0  0  0  0  0  0  0  0  0  0  0
  -22.2122  -11.2390   19.2935 O   0  0  0  0  0  0  0  0  0  0  0  0
  -23.3884   -9.3519   23.4859 O   0  0  0  0  0  0  0  0  0  0  0  0
  -29.3840  -20.0977   19.8799 O   0  0  0  0  0  0  0  0  0  0  0  0
  -23.4203  -30.7401   21.2574 O   0  0  0  0  0  0  0  0  0  0  0  0
  -27.9303  -14.2569   24.7756 O   0  0  0  0  0  0  0  0  0  1  0  0
  -23.2858  -33.8890   25.7818 F   0  0  0  0  0  0  0  0  0  0  0  0
  -27.5522  -17.1786   23.1772 F   0  0  0  0  0  0  0  0  0  0  0  0
  -21.4969  -30.3454   23.2034 F   0  0  0  0  0  0  0  0  0  0  0  0
  1  2  1  0  0  0  0
  1  5  2  0  0  0  0
  2  6  2  0  0  0  0
  3 10  2  0  0  0  0
  3 18  1  0  0  0  0
  4 11  1  0  0  0  0
  4 18  2  0  0  0  0
  5 20  1  0  0  0  0
  6 22  1  0  0  0  0
  7 12  2  0  0  0  0
  7 21  1  0  0  0  0
  8  9  2  0  0  0  0
  8 24  1  0  0  0  0
  9 25  1  0  0  0  0
 10 26  1  0  0  0  0
 11 26  2  0  0  0  0
 12 27  1  0  0  0  0
 13 14  2  0  0  0  0
 13 28  1  0  0  0  0
 14 29  1  0  0  0  0
 15 23  1  0  0  0  0
 15 27  2  0  0  0  0
 16 25  2  0  0  0  0
 16 30  1  0  0  0  0
 17 29  2  0  0  0  0
 17 31  1  0  0  0  0
 18 32  1  0  0  0  0
 19 32  1  0  0  0  0
 19 33  2  0  0  0  0
 19 34  1  0  0  0  0
 20 22  2  0  0  0  0
 20 39  1  0  0  0  0
 21 23  2  0  0  0  0
 21 40  1  0  0  0  0
 22 51  1  0  0  0  0
 23 41  1  0  0  0  0
 24 30  2  0  0  0  0
 24 60  1  0  0  0  0
 25 71  1  0  0  0  0
 26 81  1  0  0  0  0
 27 82  1  0  0  0  0
 28 31  2  0  0  0  0
 28 81  1  0  0  0  0
 29 83  1  0  0  0  0
 30 84  1  0  0  0  0
 31 85  1  0  0  0  0
 32 65  2  0  0  0  0
 33 66  1  0  0  0  0
 33 69  1  0  0  0  0
 34 70  1  0  0  0  0
 34 76  2  0  0  0  0
 35 52  1  0  0  0  0
 35 72  1  0  0  0  0
 35 77  2  0  0  0  0
 36 62  1  0  0  0  0
 36 67  1  0  0  0  0
 36 78  2  0  0  0  0
 37 63  1  0  0  0  0
 37 73  1  0  0  0  0
 37 79  2  0  0  0  0
 38 68  1  0  0  0  0
 38 71  1  0  0  0  0
 38 80  2  0  0  0  0
 39 42  1  0  0  0  0
 40 52  1  0  0  0  0
 41 67  1  0  0  0  0
 42 45  1  0  0  0  0
 43 46  1  0  0  0  0
 43 48  1  0  0  0  0
 44 47  1  0  0  0  0
 44 50  1  0  0  0  0
 45 51  1  0  0  0  0
 46 53  1  0  0  0  0
 47 54  1  0  0  0  0
 48 68  1  0  0  0  0
 49 53  1  0  0  0  0
 49 68  1  0  0  0  0
 50 74  1  0  0  0  0
 51 72  1  0  0  0  0
 52 67  1  0  0  0  0
 53 66  1  0  0  0  0
 54 61  1  0  0  0  0
 54 74  1  0  0  0  0
 55 63  1  0  0  0  0
 56 64  1  0  0  0  0
 57 64  1  0  0  0  0
 58 64  1  0  0  0  0
 59 75  1  0  0  0  0
 60 74  1  0  0  0  0
 61 82  1  0  0  0  0
 62 64  1  0  0  0  0
 62 73  1  0  0  0  0
 63 75  1  0  0  0  0
 65 66  1  0  0  0  0
M  CHG  2  74   1  75   1
M  ISO  4  38 100  61 101  71 100  82 101
M  END
> <Batch ID>
0020

> <Smiles>
CNC(C)C(=O)NC(C(=O)N1Cc2cc([101O:1][101CH2:1]C3CCCN3Cc3ccc([100NH:0][100C:0](=O)N4CCCC(n5nc(-c6ccc(Oc7ccc(F)cc7F)cc6)c(C(N)=O)c5N)C4)cc3F)ccc2CC1C(=O)NC1CCCc2ccccc21)C(C)(C)C

> <Shape>
0.227

> <Color>
0.067

> <Negative vol penalty>
0.000

$$$$

  -OEChem-04042321083D

 85 93  0     1  0  0  0  0  0999 V2000
  -21.5706  -16.7801   24.4460 C   0  0  0  0  0  0  0  0  0  0  0  0
  -22.8315  -17.3680   24.4467 C   0  0  0  0  0  0  0  0  0  0  0  0
  -22.5274  -10.3271   20.7784 C   0  0  0  0  0  0  0  0  0  0  0  0
  -24.4511   -9.1502   21.6450 C   0  0  0  0  0  0  0  0  0  0  0  0
  -20.6365  -17.1379   23.4747 C   0  0  0  0  0  0  0  0  0  0  0  0
  -23.1594  -18.3132   23.4754 C   0  0  0  0  0  0  0  0  0  0  0  0
  -25.5233  -22.3507   25.4134 C   0  0  0  0  0  0  0  0  0  0  0  0
  -30.4709  -17.8641   21.9064 C   0  0  0  0  0  0  0  0  0  0  0  0
  -29.8642  -17.2032   24.1496 C   0  0  0  0  0  0  0  0  0  0  0  0
  -30.8400  -19.1241   22.3774 C   0  0  0  0  0  0  0  0  0  0  0  0
  -30.2333  -18.4632   24.6206 C   0  0  0  0  0  0  0  0  0  0  0  0
  -21.7847   -9.1473   20.8248 C   0  0  0  0  0  0  0  0  0  0  0  0
  -23.7085   -7.9704   21.6915 C   0  0  0  0  0  0  0  0  0  0  0  0
  -26.8756  -22.2094   25.7221 C   0  0  0  0  0  0  0  0  0  0  0  0
  -22.2148   -4.7277   22.3784 C   0  0  0  0  0  0  0  0  0  0  0  0
  -22.3144   -3.9427   23.5270 C   0  0  0  0  0  0  0  0  0  0  0  0
  -27.4559  -23.3209   23.6613 C   0  0  0  0  0  0  0  0  0  0  0  0
  -21.4840   -5.7816   24.8559 C   0  0  0  0  0  0  0  0  0  0  0  0
  -23.8606  -10.3286   21.1884 C   0  0  0  0  0  0  0  0  0  0  0  0
  -24.3559  -12.7509   21.8167 C   0  0  0  0  0  0  0  0  0  0  0  0
  -20.9498  -18.0950   22.4968 C   0  0  0  0  0  0  0  0  0  0  0  0
  -25.1268  -22.9694   24.2191 C   0  0  0  0  0  0  0  0  0  0  0  0
  -22.2291  -18.6831   22.4893 C   0  0  0  0  0  0  0  0  0  0  0  0
  -26.0980  -23.4711   23.3410 C   0  0  0  0  0  0  0  0  0  0  0  0
  -29.9829  -16.9037   22.7925 C   0  0  0  0  0  0  0  0  0  0  0  0
  -30.7212  -19.4236   23.7345 C   0  0  0  0  0  0  0  0  0  0  0  0
  -22.3752   -7.9690   21.2814 C   0  0  0  0  0  0  0  0  0  0  0  0
  -27.8421  -22.6919   24.8446 C   0  0  0  0  0  0  0  0  0  0  0  0
  -21.7498   -6.0398   22.4685 C   0  0  0  0  0  0  0  0  0  0  0  0
  -21.9490   -4.4696   24.7658 C   0  0  0  0  0  0  0  0  0  0  0  0
  -21.3844   -6.5667   23.7073 C   0  0  0  0  0  0  0  0  0  0  0  0
  -24.6285  -11.5468   21.1401 C   0  0  0  0  0  0  0  0  0  0  0  0
  -25.3737  -13.5934   21.4417 C   0  0  0  0  0  0  0  0  0  0  0  0
  -23.2790  -13.0784   22.7048 C   0  0  0  0  0  0  0  0  0  0  0  0
  -23.5041  -22.0471   21.6462 C   0  0  0  0  0  0  0  0  0  0  0  0
  -23.7606  -25.1789   20.8413 C   0  0  0  0  0  0  0  0  0  0  0  0
  -25.4482  -28.1267   21.1728 C   0  0  0  0  0  0  0  0  0  0  0  0
  -30.9892  -14.1312   20.7382 C   0  0  0  0  0  0  0  0  0  0  0  0
  -19.9236  -18.4147   21.4388 C   0  0  0  0  0  0  0  0  0  0  0  0
  -23.6637  -23.1379   23.9135 C   0  0  0  0  0  0  0  0  0  0  0  0
  -25.7242  -24.1613   22.0556 C   0  0  0  0  0  0  0  0  0  0  0  0
  -20.2209  -19.6997   20.6703 C   0  0  0  0  0  0  0  0  0  0  0  0
  -28.8953  -13.1376   17.8520 C   0  0  0  0  0  0  0  0  0  0  0  0
  -21.6856  -19.7414   20.2464 C   0  0  0  0  0  0  0  0  0  0  0  0
  -27.6050  -12.6689   18.5223 C   0  0  0  0  0  0  0  0  0  0  0  0
  -30.1070  -12.9486   18.7597 C   0  0  0  0  0  0  0  0  0  0  0  0
  -28.6730  -13.1175   20.7670 C   0  0  0  0  0  0  0  0  0  0  0  0
  -22.6137  -19.7306   21.4671 C   0  0  1  0  0  0  0  0  0  0  0  0
  -23.3818  -23.3256   22.4259 C   0  0  1  0  0  0  0  0  0  0  0  0
  -27.4265  -13.3372   19.8966 C   0  0  2  0  0  0  0  0  0  0  0  0
  -33.6660  -22.6761   22.1692 C   0  0  0  0  0  0  0  0  0  0  0  0
  -25.4433  -30.5014   20.3616 C   0  0  0  0  0  0  0  0  0  0  0  0
  -24.9376  -24.2688   18.1774 C   0  0  0  0  0  0  0  0  0  0  0  0
  -25.7717  -26.6034   17.8278 C   0  0  0  0  0  0  0  0  0  0  0  0
  -23.3217  -26.1702   18.0088 C   0  0  0  0  0  0  0  0  0  0  0  0
  -31.8075  -14.7346   22.9845 C   0  0  0  0  0  0  0  0  0  0  0  0
  -25.0501  -29.1826   23.9087 C   0  0  0  0  0  0  0  0  0  0  0  0
  -29.5877  -15.5564   22.2897 C   0  0  0  0  0  0  0  0  0  0  0  0
  -33.1203  -21.6162   23.1155 C   0  0  0  0  0  0  0  0  0  0  0  0
  -31.6075  -21.6972   23.2812 C   0  0  0  0  0  0  0  0  0  0  0  0
  -30.9701  -21.0350   25.6058 C   0  0  0  0  0  0  0  0  0  0  0  0
  -29.5370  -21.4235   25.9284 C   0  0  0  0  0  0  0  0  0  1  0  0
  -24.7653  -26.0078   20.0780 C   0  0  1  0  0  0  0  0  0  0  0  0
  -24.9635  -29.5405   21.4383 C   0  0  2  0  0  0  0  0  0  0  0  0
  -24.7065  -25.7479   18.5462 C   0  0  0  0  0  0  0  0  0  0  0  0
  -25.7328  -11.6144   20.3918 N   0  0  0  0  0  0  0  0  0  0  0  0
  -26.1631  -12.8711   20.5959 N   0  0  0  0  0  0  0  0  0  0  0  0
  -24.2808  -24.2962   21.7984 N   0  0  0  0  0  0  0  0  0  0  0  0
  -29.8936  -13.5560   20.0737 N   0  0  0  0  0  0  0  0  0  0  0  0
  -25.6615  -14.8744   21.7561 N   0  0  0  0  0  0  0  0  0  0  0  0
  -22.1048  -13.6169   22.1611 N   0  0  0  0  0  0  0  0  0  0  0  0
  -22.6604  -21.0416   22.0782 N   0  0  0  0  0  0  0  0  0  0  0  0
  -24.5230  -27.3952   20.4584 N   0  0  0  0  0  0  0  0  0  0  0  0
  -31.0936  -20.6886   24.2083 N   0  0  3  0  0  0  0  0  0  0  0  0
  -30.7435  -14.7138   21.9908 N   0  0  0  0  0  0  0  0  0  0  0  0
  -25.4668  -30.0218   22.7559 N   0  3  0  0  0  0  0  0  0  0  0  0
  -23.3619  -12.9141   23.9457 O   0  0  0  0  0  0  0  0  0  0  0  0
  -24.3037  -21.9783   20.7201 O   0  0  0  0  0  0  0  0  0  0  0  0
  -22.5581  -25.3151   20.6024 O   0  0  0  0  0  0  0  0  0  0  0  0
  -26.5401  -27.7136   21.5572 O   0  0  0  0  0  0  0  0  0  0  0  0
  -32.1204  -14.1329   20.2360 O   0  0  0  0  0  0  0  0  0  0  0  0
  -21.6507   -6.8177   21.3271 O   0  0  0  0  0  0  0  0  0  0  0  0
  -29.1627  -22.5547   25.1431 O   0  0  0  0  0  0  0  0  0  1  0  0
  -22.0432   -3.7150   25.8685 F   0  0  0  0  0  0  0  0  0  0  0  0
  -20.9359   -7.8261   23.8000 F   0  0  0  0  0  0  0  0  0  0  0  0
  1  2  1  0  0  0  0
  1  5  2  0  0  0  0
  2  6  2  0  0  0  0
  3 12  2  0  0  0  0
  3 19  1  0  0  0  0
  4 13  1  0  0  0  0
  4 19  2  0  0  0  0
  5 21  1  0  0  0  0
  6 23  1  0  0  0  0
  7 14  2  0  0  0  0
  7 22  1  0  0  0  0
  8 10  2  0  0  0  0
  8 25  1  0  0  0  0
  9 11  1  0  0  0  0
  9 25  2  0  0  0  0
 10 26  1  0  0  0  0
 11 26  2  0  0  0  0
 12 27  1  0  0  0  0
 13 27  2  0  0  0  0
 14 28  1  0  0  0  0
 15 16  2  0  0  0  0
 15 29  1  0  0  0  0
 16 30  1  0  0  0  0
 17 24  1  0  0  0  0
 17 28  2  0  0  0  0
 18 30  2  0  0  0  0
 18 31  1  0  0  0  0
 19 32  1  0  0  0  0
 20 32  1  0  0  0  0
 20 33  2  0  0  0  0
 20 34  1  0  0  0  0
 21 23  2  0  0  0  0
 21 39  1  0  0  0  0
 22 24  2  0  0  0  0
 22 40  1  0  0  0  0
 23 48  1  0  0  0  0
 24 41  1  0  0  0  0
 25 58  1  0  0  0  0
 26 74  1  0  0  0  0
 27 82  1  0  0  0  0
 28 83  1  0  0  0  0
 29 31  2  0  0  0  0
 29 82  1  0  0  0  0
 30 84  1  0  0  0  0
 31 85  1  0  0  0  0
 32 66  2  0  0  0  0
 33 67  1  0  0  0  0
 33 70  1  0  0  0  0
 34 71  1  0  0  0  0
 34 77  2  0  0  0  0
 35 49  1  0  0  0  0
 35 72  1  0  0  0  0
 35 78  2  0  0  0  0
 36 63  1  0  0  0  0
 36 68  1  0  0  0  0
 36 79  2  0  0  0  0
 37 64  1  0  0  0  0
 37 73  1  0  0  0  0
 37 80  2  0  0  0  0
 38 69  1  0  0  0  0
 38 75  1  0  0  0  0
 38 81  2  0  0  0  0
 39 42  1  0  0  0  0
 40 49  1  0  0  0  0
 41 68  1  0  0  0  0
 42 44  1  0  0  0  0
 43 45  1  0  0  0  0
 43 46  1  0  0  0  0
 44 48  1  0  0  0  0
 45 50  1  0  0  0  0
 46 69  1  0  0  0  0
 47 50  1  0  0  0  0
 47 69  1  0  0  0  0
 48 72  1  0  0  0  0
 49 68  1  0  0  0  0
 50 67  1  0  0  0  0
 51 59  1  0  0  0  0
 52 64  1  0  0  0  0
 53 65  1  0  0  0  0
 54 65  1  0  0  0  0
 55 65  1  0  0  0  0
 56 75  1  0  0  0  0
 57 76  1  0  0  0  0
 58 75  1  0  0  0  0
 59 60  1  0  0  0  0
 60 74  1  0  0  0  0
 61 62  1  0  0  0  0
 61 74  1  0  0  0  0
 62 83  1  0  0  0  0
 63 65  1  0  0  0  0
 63 73  1  0  0  0  0
 64 76  1  0  0  0  0
 66 67  1  0  0  0  0
M  CHG  1  76   1
M  ISO  4  38 100  62 101  75 100  83 101
M  END
> <Batch ID>
0020

> <Smiles>
CCCN(C[101CH2:1][101O:1]c1ccc2c(c1)CN(C(=O)C(NC(=O)C(C)NC)C(C)(C)C)C(C(=O)NC1CCCc3ccccc31)C2)c1ccc(C[100N:0](C)[100C:0](=O)N2CCCC(n3nc(-c4ccc(Oc5ccc(F)cc5F)cc4)c(C(N)=O)c3N)C2)cc1

> <Shape>
0.216

> <Color>
0.145

> <Negative vol penalty>
0.000

$$$$

  -OEChem-04042321083D

 84 92  0     1  0  0  0  0  0999 V2000
  -31.4236  -25.3022   17.9806 C   0  0  0  0  0  0  0  0  0  0  0  0
  -30.0554  -25.0846   18.1076 C   0  0  0  0  0  0  0  0  0  0  0  0
  -27.6019  -14.9096   19.6827 C   0  0  0  0  0  0  0  0  0  0  0  0
  -25.2173  -15.2028   19.4290 C   0  0  0  0  0  0  0  0  0  0  0  0
  -32.1076  -26.0220   18.9593 C   0  0  0  0  0  0  0  0  0  0  0  0
  -29.3706  -25.5858   19.2140 C   0  0  0  0  0  0  0  0  0  0  0  0
  -23.6239  -27.6992   19.3395 C   0  0  0  0  0  0  0  0  0  0  0  0
  -20.2889  -22.4991   21.9390 C   0  0  0  0  0  0  0  0  0  0  0  0
  -21.5442  -22.1818   21.4200 C   0  0  0  0  0  0  0  0  0  0  0  0
  -27.3979  -13.5855   20.0709 C   0  0  0  0  0  0  0  0  0  0  0  0
  -25.0132  -13.8787   19.8171 C   0  0  0  0  0  0  0  0  0  0  0  0
  -22.4178  -27.1148   19.7235 C   0  0  0  0  0  0  0  0  0  0  0  0
  -24.9422  -12.1095   22.6974 C   0  0  0  0  0  0  0  0  0  0  0  0
  -23.9289  -11.8538   23.6211 C   0  0  0  0  0  0  0  0  0  0  0  0
  -22.6385  -28.1101   21.9097 C   0  0  0  0  0  0  0  0  0  0  0  0
  -22.5923  -23.5189   23.1378 C   0  0  0  0  0  0  0  0  0  0  0  0
  -22.8248  -10.4263   22.0148 C   0  0  0  0  0  0  0  0  0  0  0  0
  -26.5116  -15.7183   19.3618 C   0  0  0  0  0  0  0  0  0  0  0  0
  -26.9200  -17.5684   17.6536 C   0  0  0  0  0  0  0  0  0  0  0  0
  -31.4290  -26.5406   20.0735 C   0  0  0  0  0  0  0  0  0  0  0  0
  -24.3531  -28.4858   20.2427 C   0  0  0  0  0  0  0  0  0  0  0  0
  -30.0464  -26.3121   20.2093 C   0  0  0  0  0  0  0  0  0  0  0  0
  -23.8524  -28.7055   21.5339 C   0  0  0  0  0  0  0  0  0  0  0  0
  -20.1854  -23.3264   23.0573 C   0  0  0  0  0  0  0  0  0  0  0  0
  -22.6959  -22.6917   22.0194 C   0  0  0  0  0  0  0  0  0  0  0  0
  -26.1035  -13.0700   20.1381 C   0  0  0  0  0  0  0  0  0  0  0  0
  -21.9263  -27.3178   21.0097 C   0  0  0  0  0  0  0  0  0  0  0  0
  -24.8968  -11.5237   21.4323 C   0  0  0  0  0  0  0  0  0  0  0  0
  -22.8702  -11.0122   23.2799 C   0  0  0  0  0  0  0  0  0  0  0  0
  -21.3370  -23.8363   23.6567 C   0  0  0  0  0  0  0  0  0  0  0  0
  -23.8381  -10.6820   21.0910 C   0  0  0  0  0  0  0  0  0  0  0  0
  -26.7217  -17.0864   18.9613 C   0  0  0  0  0  0  0  0  0  0  0  0
  -27.0696  -18.9251   17.8068 C   0  0  0  0  0  0  0  0  0  0  0  0
  -26.9647  -16.8538   16.4115 C   0  0  0  0  0  0  0  0  0  0  0  0
  -27.2372  -28.2928   21.5650 C   0  0  0  0  0  0  0  0  0  0  0  0
  -26.4726  -31.2233   22.7271 C   0  0  0  0  0  0  0  0  0  0  0  0
  -24.0370  -33.4516   23.5926 C   0  0  0  0  0  0  0  0  0  0  0  0
  -25.2124  -22.7931   21.9655 C   0  0  0  0  0  0  0  0  0  0  0  0
  -32.2197  -27.2719   21.1293 C   0  0  0  0  0  0  0  0  0  0  0  0
  -25.6392  -29.1311   19.8045 C   0  0  0  0  0  0  0  0  0  0  0  0
  -24.5868  -29.5583   22.5348 C   0  0  0  0  0  0  0  0  0  0  0  0
  -31.3522  -28.0903   22.0822 C   0  0  0  0  0  0  0  0  0  0  0  0
  -28.5768  -22.1933   20.9662 C   0  0  0  0  0  0  0  0  0  0  0  0
  -30.1598  -27.2670   22.5590 C   0  0  0  0  0  0  0  0  0  0  0  0
  -28.4999  -20.8625   20.2144 C   0  0  0  0  0  0  0  0  0  0  0  0
  -27.6240  -22.2261   22.1599 C   0  0  0  0  0  0  0  0  0  0  0  0
  -26.1513  -20.5612   21.0978 C   0  0  0  0  0  0  0  0  0  0  0  0
  -29.2639  -26.8611   21.3825 C   0  0  1  0  0  0  0  0  0  0  0  0
  -26.5543  -29.4920   20.9705 C   0  0  1  0  0  0  0  0  0  0  0  0
  -27.0459  -20.5050   19.8487 C   0  0  2  0  0  0  0  0  0  0  0  0
  -23.7193  -35.7498   24.5490 C   0  0  0  0  0  0  0  0  0  0  0  0
  -27.1315  -30.1544   25.5080 C   0  0  0  0  0  0  0  0  0  0  0  0
  -25.9157  -32.1180   26.4746 C   0  0  0  0  0  0  0  0  0  0  0  0
  -27.9417  -32.4785   25.0647 C   0  0  0  0  0  0  0  0  0  0  0  0
  -22.6667  -34.4053   21.1489 C   0  0  0  0  0  0  0  0  0  0  0  0
  -17.5366  -25.5063   24.6734 C   0  0  0  0  0  0  0  0  0  0  0  0
  -18.8333  -23.6636   23.6135 C   0  0  0  0  0  0  0  0  0  0  0  0
  -18.5027  -27.1272   22.1361 C   0  0  0  0  0  0  0  0  0  0  0  0
  -18.1654  -25.6497   22.2680 C   0  0  0  0  0  0  0  0  0  0  0  0
  -19.9758  -27.4426   22.3646 C   0  0  0  0  0  0  0  0  0  1  0  0
  -25.7871  -31.7345   23.9711 C   0  0  1  0  0  0  0  0  0  0  0  0
  -23.8634  -34.9266   23.2785 C   0  0  2  0  0  0  0  0  0  0  0  0
  -26.6809  -31.6037   25.2366 C   0  0  0  0  0  0  0  0  0  0  0  0
  -26.7432  -18.0578   19.8778 N   0  0  0  0  0  0  0  0  0  0  0  0
  -26.9567  -19.1639   19.1449 N   0  0  0  0  0  0  0  0  0  0  0  0
  -25.8429  -30.1624   22.0608 N   0  0  0  0  0  0  0  0  0  0  0  0
  -26.2649  -21.8816   21.7369 N   0  0  0  0  0  0  0  0  0  0  0  0
  -27.2855  -19.9252   16.9261 N   0  0  0  0  0  0  0  0  0  0  0  0
  -26.7921  -15.4631   16.4341 N   0  0  0  0  0  0  0  0  0  0  0  0
  -23.9709  -22.3710   21.4911 N   0  0  0  0  0  0  0  0  0  0  0  0
  -28.4412  -27.9763   20.9654 N   0  0  0  0  0  0  0  0  0  0  0  0
  -25.3678  -33.0999   23.6743 N   0  0  0  0  0  0  0  0  0  0  0  0
  -22.6491  -35.1384   22.4409 N   0  3  0  0  0  0  0  0  0  0  0  0
  -18.5446  -25.1456   23.6088 N   0  3  1  0  0  0  0  0  0  0  0  0
  -27.1686  -17.4293   15.3157 O   0  0  0  0  0  0  0  0  0  0  0  0
  -26.7114  -27.6996   22.4996 O   0  0  0  0  0  0  0  0  0  0  0  0
  -27.5242  -31.7506   22.3560 O   0  0  0  0  0  0  0  0  0  0  0  0
  -23.0871  -32.6885   23.7535 O   0  0  0  0  0  0  0  0  0  0  0  0
  -25.4038  -23.8807   22.5155 O   0  0  0  0  0  0  0  0  0  0  0  0
  -25.9040  -11.7779   20.5166 O   0  0  0  0  0  0  0  0  0  0  0  0
  -20.7496  -26.7481   21.3873 O   0  0  0  0  0  0  0  0  0  1  0  0
  -21.8979  -10.7655   24.1676 F   0  0  0  0  0  0  0  0  0  0  0  0
  -21.2477  -24.6318   24.7316 F   0  0  0  0  0  0  0  0  0  0  0  0
  -23.7897  -10.1154   19.8776 F   0  0  0  0  0  0  0  0  0  0  0  0
  1  2  1  0  0  0  0
  1  5  2  0  0  0  0
  2  6  2  0  0  0  0
  3 10  2  0  0  0  0
  3 18  1  0  0  0  0
  4 11  1  0  0  0  0
  4 18  2  0  0  0  0
  5 20  1  0  0  0  0
  6 22  1  0  0  0  0
  7 12  2  0  0  0  0
  7 21  1  0  0  0  0
  8  9  2  0  0  0  0
  8 24  1  0  0  0  0
  9 25  1  0  0  0  0
 10 26  1  0  0  0  0
 11 26  2  0  0  0  0
 12 27  1  0  0  0  0
 13 14  2  0  0  0  0
 13 28  1  0  0  0  0
 14 29  1  0  0  0  0
 15 23  1  0  0  0  0
 15 27  2  0  0  0  0
 16 25  2  0  0  0  0
 16 30  1  0  0  0  0
 17 29  2  0  0  0  0
 17 31  1  0  0  0  0
 18 32  1  0  0  0  0
 19 32  1  0  0  0  0
 19 33  2  0  0  0  0
 19 34  1  0  0  0  0
 20 22  2  0  0  0  0
 20 39  1  0  0  0  0
 21 23  2  0  0  0  0
 21 40  1  0  0  0  0
 22 48  1  0  0  0  0
 23 41  1  0  0  0  0
 24 30  2  0  0  0  0
 24 57  1  0  0  0  0
 25 70  1  0  0  0  0
 26 80  1  0  0  0  0
 27 81  1  0  0  0  0
 28 31  2  0  0  0  0
 28 80  1  0  0  0  0
 29 82  1  0  0  0  0
 30 83  1  0  0  0  0
 31 84  1  0  0  0  0
 32 64  2  0  0  0  0
 33 65  1  0  0  0  0
 33 68  1  0  0  0  0
 34 69  1  0  0  0  0
 34 75  2  0  0  0  0
 35 49  1  0  0  0  0
 35 71  1  0  0  0  0
 35 76  2  0  0  0  0
 36 61  1  0  0  0  0
 36 66  1  0  0  0  0
 36 77  2  0  0  0  0
 37 62  1  0  0  0  0
 37 72  1  0  0  0  0
 37 78  2  0  0  0  0
 38 67  1  0  0  0  0
 38 70  1  0  0  0  0
 38 79  2  0  0  0  0
 39 42  1  0  0  0  0
 40 49  1  0  0  0  0
 41 66  1  0  0  0  0
 42 44  1  0  0  0  0
 43 45  1  0  0  0  0
 43 46  1  0  0  0  0
 44 48  1  0  0  0  0
 45 50  1  0  0  0  0
 46 67  1  0  0  0  0
 47 50  1  0  0  0  0
 47 67  1  0  0  0  0
 48 71  1  0  0  0  0
 49 66  1  0  0  0  0
 50 65  1  0  0  0  0
 51 62  1  0  0  0  0
 52 63  1  0  0  0  0
 53 63  1  0  0  0  0
 54 63  1  0  0  0  0
 55 73  1  0  0  0  0
 56 74  1  0  0  0  0
 57 74  1  0  0  0  0
 58 59  1  0  0  0  0
 58 60  1  0  0  0  0
 59 74  1  0  0  0  0
 60 81  1  0  0  0  0
 61 63  1  0  0  0  0
 61 72  1  0  0  0  0
 62 73  1  0  0  0  0
 64 65  1  0  0  0  0
M  CHG  2  73   1  74   1
M  ISO  4  38 100  60 101  70 100  81 101
M  END
> <Batch ID>
0020

> <Smiles>
CNC(C)C(=O)NC(C(=O)N1Cc2cc([101O:1][101CH2:1]CCN(C)Cc3ccc([100NH:0][100C:0](=O)N4CCCC(n5nc(-c6ccc(Oc7ccc(F)cc7F)cc6)c(C(N)=O)c5N)C4)cc3F)ccc2CC1C(=O)NC1CCCc2ccccc21)C(C)(C)C

> <Shape>
0.275

> <Color>
0.062

> <Negative vol penalty>
0.000

$$$$

  -OEChem-04042321083D

 84 92  0     1  0  0  0  0  0999 V2000
  -28.8240  -24.1879   16.8043 C   0  0  0  0  0  0  0  0  0  0  0  0
  -27.6497  -24.2659   17.5462 C   0  0  0  0  0  0  0  0  0  0  0  0
  -27.0096  -13.4923   20.3034 C   0  0  0  0  0  0  0  0  0  0  0  0
  -24.6623  -14.0642   20.2923 C   0  0  0  0  0  0  0  0  0  0  0  0
  -29.9638  -24.8676   17.2319 C   0  0  0  0  0  0  0  0  0  0  0  0
  -27.6148  -25.0230   18.7167 C   0  0  0  0  0  0  0  0  0  0  0  0
  -23.4561  -27.8932   19.0508 C   0  0  0  0  0  0  0  0  0  0  0  0
  -22.1455  -21.7588   21.0770 C   0  0  0  0  0  0  0  0  0  0  0  0
  -21.0291  -22.3538   21.6645 C   0  0  0  0  0  0  0  0  0  0  0  0
  -26.7214  -12.3232   21.0074 C   0  0  0  0  0  0  0  0  0  0  0  0
  -24.3741  -12.8950   20.9963 C   0  0  0  0  0  0  0  0  0  0  0  0
  -22.2745  -27.2600   19.4337 C   0  0  0  0  0  0  0  0  0  0  0  0
  -22.9778   -9.8820   22.4761 C   0  0  0  0  0  0  0  0  0  0  0  0
  -21.8939   -9.1161   22.0470 C   0  0  0  0  0  0  0  0  0  0  0  0
  -22.5717  -28.0789   21.6832 C   0  0  0  0  0  0  0  0  0  0  0  0
  -23.5894  -23.2631   22.2975 C   0  0  0  0  0  0  0  0  0  0  0  0
  -22.9472   -8.8336   19.8910 C   0  0  0  0  0  0  0  0  0  0  0  0
  -25.9800  -14.3629   19.9459 C   0  0  0  0  0  0  0  0  0  0  0  0
  -26.3229  -15.7329   17.8214 C   0  0  0  0  0  0  0  0  0  0  0  0
  -29.9401  -25.6411   18.4031 C   0  0  0  0  0  0  0  0  0  0  0  0
  -24.2113  -28.6161   19.9853 C   0  0  0  0  0  0  0  0  0  0  0  0
  -28.7557  -25.7126   19.1610 C   0  0  0  0  0  0  0  0  0  0  0  0
  -23.7612  -28.7225   21.3090 C   0  0  0  0  0  0  0  0  0  0  0  0
  -23.4257  -22.2134   21.3935 C   0  0  0  0  0  0  0  0  0  0  0  0
  -21.1928  -23.4034   22.5684 C   0  0  0  0  0  0  0  0  0  0  0  0
  -25.4037  -12.0245   21.3538 C   0  0  0  0  0  0  0  0  0  0  0  0
  -21.8336  -27.3503   20.7507 C   0  0  0  0  0  0  0  0  0  0  0  0
  -24.0464  -10.1237   21.6128 C   0  0  0  0  0  0  0  0  0  0  0  0
  -21.8786   -8.5919   20.7544 C   0  0  0  0  0  0  0  0  0  0  0  0
  -22.4729  -23.8581   22.8849 C   0  0  0  0  0  0  0  0  0  0  0  0
  -24.0311   -9.5995   20.3202 C   0  0  0  0  0  0  0  0  0  0  0  0
  -26.2771  -15.5711   19.2191 C   0  0  0  0  0  0  0  0  0  0  0  0
  -26.6452  -17.0555   17.6393 C   0  0  0  0  0  0  0  0  0  0  0  0
  -26.0945  -14.7734   16.7808 C   0  0  0  0  0  0  0  0  0  0  0  0
  -27.1496  -28.3642   21.1716 C   0  0  0  0  0  0  0  0  0  0  0  0
  -26.3950  -31.1781   22.5979 C   0  0  0  0  0  0  0  0  0  0  0  0
  -23.9680  -33.2890   23.7384 C   0  0  0  0  0  0  0  0  0  0  0  0
  -25.8989  -21.9392   21.0005 C   0  0  0  0  0  0  0  0  0  0  0  0
  -31.2105  -26.3198   18.8506 C   0  0  0  0  0  0  0  0  0  0  0  0
  -25.4698  -29.3157   19.5502 C   0  0  0  0  0  0  0  0  0  0  0  0
  -24.5248  -29.5035   22.3460 C   0  0  0  0  0  0  0  0  0  0  0  0
  -30.9844  -27.4035   19.9017 C   0  0  0  0  0  0  0  0  0  0  0  0
  -28.9794  -20.6660   19.7490 C   0  0  0  0  0  0  0  0  0  0  0  0
  -30.0487  -26.8992   20.9957 C   0  0  0  0  0  0  0  0  0  0  0  0
  -28.6387  -19.2316   19.3382 C   0  0  0  0  0  0  0  0  0  0  0  0
  -28.2329  -21.0862   21.0138 C   0  0  0  0  0  0  0  0  0  0  0  0
  -26.4366  -19.4635   20.5563 C   0  0  0  0  0  0  0  0  0  0  0  0
  -28.6714  -26.5436   20.4230 C   0  0  1  0  0  0  0  0  0  0  0  0
  -26.4272  -29.5961   20.7044 C   0  0  1  0  0  0  0  0  0  0  0  0
  -27.1149  -19.0173   19.2508 C   0  0  2  0  0  0  0  0  0  0  0  0
  -19.8660  -22.5906   25.1351 C   0  0  0  0  0  0  0  0  0  0  0  0
  -23.6597  -35.4968   24.8907 C   0  0  0  0  0  0  0  0  0  0  0  0
  -27.1814  -29.8989   25.2541 C   0  0  0  0  0  0  0  0  0  0  0  0
  -25.9807  -31.7578   26.4251 C   0  0  0  0  0  0  0  0  0  0  0  0
  -27.9422  -32.2642   24.9696 C   0  0  0  0  0  0  0  0  0  0  0  0
  -22.4861  -34.4146   21.4371 C   0  0  0  0  0  0  0  0  0  0  0  0
  -18.9692  -26.1314   22.6981 C   0  0  0  0  0  0  0  0  0  0  0  0
  -19.9112  -23.9861   24.6125 C   0  0  0  0  0  0  0  0  0  0  0  0
  -19.0558  -24.6483   22.3590 C   0  0  0  0  0  0  0  0  0  0  0  0
  -20.2884  -26.8667   22.4926 C   0  0  0  0  0  0  0  0  0  1  0  0
  -25.7544  -31.5758   23.9058 C   0  0  1  0  0  0  0  0  0  0  0  0
  -23.7623  -34.7815   23.5526 C   0  0  2  0  0  0  0  0  0  0  0  0
  -26.7011  -31.3578   25.1198 C   0  0  0  0  0  0  0  0  0  0  0  0
  -26.5487  -16.7006   19.8782 N   0  0  0  0  0  0  0  0  0  0  0  0
  -26.7684  -17.5849   18.8902 N   0  0  0  0  0  0  0  0  0  0  0  0
  -25.7524  -30.1644   21.8731 N   0  0  0  0  0  0  0  0  0  0  0  0
  -26.7947  -20.8587   20.8561 N   0  0  0  0  0  0  0  0  0  0  0  0
  -26.8325  -17.8058   16.5328 N   0  0  0  0  0  0  0  0  0  0  0  0
  -25.7732  -13.4583   17.1434 N   0  0  0  0  0  0  0  0  0  0  0  0
  -24.5596  -21.6091   20.7962 N   0  0  0  0  0  0  0  0  0  0  0  0
  -27.8964  -27.7432   20.1887 N   0  0  0  0  0  0  0  0  0  0  0  0
  -25.3054  -32.9537   23.7381 N   0  0  0  0  0  0  0  0  0  0  0  0
  -20.0685  -24.0003   23.1569 N   0  0  3  0  0  0  0  0  0  0  0  0
  -22.5120  -35.0404   22.7842 N   0  3  0  0  0  0  0  0  0  0  0  0
  -26.1892  -15.0695   15.5655 O   0  0  0  0  0  0  0  0  0  0  0  0
  -27.0388  -28.0046   22.3378 O   0  0  0  0  0  0  0  0  0  0  0  0
  -27.4234  -31.7509   22.2295 O   0  0  0  0  0  0  0  0  0  0  0  0
  -23.0355  -32.4999   23.8743 O   0  0  0  0  0  0  0  0  0  0  0  0
  -26.2935  -23.0794   21.2578 O   0  0  0  0  0  0  0  0  0  0  0  0
  -25.1221  -10.8836   22.0406 O   0  0  0  0  0  0  0  0  0  0  0  0
  -20.6810  -26.7327   21.1272 O   0  0  0  0  0  0  0  0  0  1  0  0
  -20.8383   -7.8552   20.3430 F   0  0  0  0  0  0  0  0  0  0  0  0
  -22.6415  -24.8674   23.7512 F   0  0  0  0  0  0  0  0  0  0  0  0
  -25.0553   -9.8274   19.4866 F   0  0  0  0  0  0  0  0  0  0  0  0
  1  2  1  0  0  0  0
  1  5  2  0  0  0  0
  2  6  2  0  0  0  0
  3 10  2  0  0  0  0
  3 18  1  0  0  0  0
  4 11  1  0  0  0  0
  4 18  2  0  0  0  0
  5 20  1  0  0  0  0
  6 22  1  0  0  0  0
  7 12  2  0  0  0  0
  7 21  1  0  0  0  0
  8  9  2  0  0  0  0
  8 24  1  0  0  0  0
  9 25  1  0  0  0  0
 10 26  1  0  0  0  0
 11 26  2  0  0  0  0
 12 27  1  0  0  0  0
 13 14  2  0  0  0  0
 13 28  1  0  0  0  0
 14 29  1  0  0  0  0
 15 23  1  0  0  0  0
 15 27  2  0  0  0  0
 16 24  2  0  0  0  0
 16 30  1  0  0  0  0
 17 29  2  0  0  0  0
 17 31  1  0  0  0  0
 18 32  1  0  0  0  0
 19 32  1  0  0  0  0
 19 33  2  0  0  0  0
 19 34  1  0  0  0  0
 20 22  2  0  0  0  0
 20 39  1  0  0  0  0
 21 23  2  0  0  0  0
 21 40  1  0  0  0  0
 22 48  1  0  0  0  0
 23 41  1  0  0  0  0
 24 70  1  0  0  0  0
 25 30  2  0  0  0  0
 25 73  1  0  0  0  0
 26 80  1  0  0  0  0
 27 81  1  0  0  0  0
 28 31  2  0  0  0  0
 28 80  1  0  0  0  0
 29 82  1  0  0  0  0
 30 83  1  0  0  0  0
 31 84  1  0  0  0  0
 32 64  2  0  0  0  0
 33 65  1  0  0  0  0
 33 68  1  0  0  0  0
 34 69  1  0  0  0  0
 34 75  2  0  0  0  0
 35 49  1  0  0  0  0
 35 71  1  0  0  0  0
 35 76  2  0  0  0  0
 36 61  1  0  0  0  0
 36 66  1  0  0  0  0
 36 77  2  0  0  0  0
 37 62  1  0  0  0  0
 37 72  1  0  0  0  0
 37 78  2  0  0  0  0
 38 67  1  0  0  0  0
 38 70  1  0  0  0  0
 38 79  2  0  0  0  0
 39 42  1  0  0  0  0
 40 49  1  0  0  0  0
 41 66  1  0  0  0  0
 42 44  1  0  0  0  0
 43 45  1  0  0  0  0
 43 46  1  0  0  0  0
 44 48  1  0  0  0  0
 45 50  1  0  0  0  0
 46 67  1  0  0  0  0
 47 50  1  0  0  0  0
 47 67  1  0  0  0  0
 48 71  1  0  0  0  0
 49 66  1  0  0  0  0
 50 65  1  0  0  0  0
 51 58  1  0  0  0  0
 52 62  1  0  0  0  0
 53 63  1  0  0  0  0
 54 63  1  0  0  0  0
 55 63  1  0  0  0  0
 56 74  1  0  0  0  0
 57 59  1  0  0  0  0
 57 60  1  0  0  0  0
 58 73  1  0  0  0  0
 59 73  1  0  0  0  0
 60 81  1  0  0  0  0
 61 63  1  0  0  0  0
 61 72  1  0  0  0  0
 62 74  1  0  0  0  0
 64 65  1  0  0  0  0
M  CHG  1  74   1
M  ISO  4  38 100  60 101  70 100  81 101
M  END
> <Batch ID>
0020

> <Smiles>
CCN(CC[101CH2:1][101O:1]c1ccc2c(c1)CN(C(=O)C(NC(=O)C(C)NC)C(C)(C)C)C(C(=O)NC1CCCc3ccccc31)C2)c1ccc([100NH:0][100C:0](=O)N2CCCC(n3nc(-c4ccc(Oc5ccc(F)cc5F)cc4)c(C(N)=O)c3N)C2)cc1F

> <Shape>
0.293

> <Color>
0.080

> <Negative vol penalty>
0.000

$$$$

  -OEChem-04042321083D

 83 91  0     1  0  0  0  0  0999 V2000
  -26.3156  -33.0919   19.3559 C   0  0  0  0  0  0  0  0  0  0  0  0
  -27.3836  -32.4218   19.9439 C   0  0  0  0  0  0  0  0  0  0  0  0
  -23.0269   -9.9166   19.9634 C   0  0  0  0  0  0  0  0  0  0  0  0
  -23.7973   -9.9111   22.2533 C   0  0  0  0  0  0  0  0  0  0  0  0
  -25.0176  -32.6086   19.5161 C   0  0  0  0  0  0  0  0  0  0  0  0
  -27.1541  -31.2685   20.6934 C   0  0  0  0  0  0  0  0  0  0  0  0
  -30.7940  -26.3607   21.1056 C   0  0  0  0  0  0  0  0  0  0  0  0
  -32.8404  -17.2694   23.3861 C   0  0  0  0  0  0  0  0  0  0  0  0
  -32.2066  -16.4061   22.4925 C   0  0  0  0  0  0  0  0  0  0  0  0
  -22.2533   -8.7849   20.2210 C   0  0  0  0  0  0  0  0  0  0  0  0
  -23.0236   -8.7795   22.5109 C   0  0  0  0  0  0  0  0  0  0  0  0
  -31.7296  -25.9643   22.0603 C   0  0  0  0  0  0  0  0  0  0  0  0
  -19.7778   -8.0716   23.1309 C   0  0  0  0  0  0  0  0  0  0  0  0
  -19.0255   -8.0564   24.3054 C   0  0  0  0  0  0  0  0  0  0  0  0
  -30.0564  -24.5863   23.1190 C   0  0  0  0  0  0  0  0  0  0  0  0
  -30.6988  -18.2010   24.0049 C   0  0  0  0  0  0  0  0  0  0  0  0
  -20.2173   -6.0886   25.0433 C   0  0  0  0  0  0  0  0  0  0  0  0
  -23.7990  -10.4797   20.9796 C   0  0  0  0  0  0  0  0  0  0  0  0
  -24.2086  -12.9942   20.8487 C   0  0  0  0  0  0  0  0  0  0  0  0
  -24.7731  -31.4434   20.2599 C   0  0  0  0  0  0  0  0  0  0  0  0
  -29.4775  -25.8806   21.1570 C   0  0  0  0  0  0  0  0  0  0  0  0
  -25.8515  -30.7700   20.8648 C   0  0  0  0  0  0  0  0  0  0  0  0
  -29.1068  -24.9762   22.1623 C   0  0  0  0  0  0  0  0  0  0  0  0
  -32.0864  -18.1669   24.1424 C   0  0  0  0  0  0  0  0  0  0  0  0
  -30.0650  -17.3377   23.1112 C   0  0  0  0  0  0  0  0  0  0  0  0
  -30.8190  -16.4402   22.3550 C   0  0  0  0  0  0  0  0  0  0  0  0
  -22.2515   -8.2164   21.4947 C   0  0  0  0  0  0  0  0  0  0  0  0
  -31.3601  -25.0793   23.0689 C   0  0  0  0  0  0  0  0  0  0  0  0
  -20.7499   -7.0953   22.9126 C   0  0  0  0  0  0  0  0  0  0  0  0
  -19.2452   -7.0650   25.2616 C   0  0  0  0  0  0  0  0  0  0  0  0
  -20.9696   -6.1039   23.8688 C   0  0  0  0  0  0  0  0  0  0  0  0
  -24.5989  -11.6483   20.7140 C   0  0  0  0  0  0  0  0  0  0  0  0
  -25.3190  -13.7125   20.4778 C   0  0  0  0  0  0  0  0  0  0  0  0
  -22.9545  -13.5457   21.2715 C   0  0  0  0  0  0  0  0  0  0  0  0
  -26.6157  -27.2151   21.5218 C   0  0  0  0  0  0  0  0  0  0  0  0
  -25.5672  -24.2015   20.9377 C   0  0  0  0  0  0  0  0  0  0  0  0
  -26.2142  -20.8509   20.9736 C   0  0  0  0  0  0  0  0  0  0  0  0
  -30.8123  -14.6100   20.6239 C   0  0  0  0  0  0  0  0  0  0  0  0
  -23.3479  -30.9859   20.4447 C   0  0  0  0  0  0  0  0  0  0  0  0
  -28.4874  -26.2970   20.1041 C   0  0  0  0  0  0  0  0  0  0  0  0
  -27.7115  -24.4158   22.2498 C   0  0  0  0  0  0  0  0  0  0  0  0
  -23.2296  -29.5473   20.9416 C   0  0  0  0  0  0  0  0  0  0  0  0
  -29.6219  -12.2189   18.2696 C   0  0  0  0  0  0  0  0  0  0  0  0
  -24.1893  -29.3027   22.1018 C   0  0  0  0  0  0  0  0  0  0  0  0
  -28.1769  -11.9680   18.7067 C   0  0  0  0  0  0  0  0  0  0  0  0
  -30.5484  -12.4271   19.4663 C   0  0  0  0  0  0  0  0  0  0  0  0
  -28.6682  -13.2079   20.8534 C   0  0  0  0  0  0  0  0  0  0  0  0
  -25.6455  -29.5018   21.6646 C   0  0  1  0  0  0  0  0  0  0  0  0
  -27.0375  -26.1459   20.5541 C   0  0  1  0  0  0  0  0  0  0  0  0
  -27.6856  -13.0569   19.6807 C   0  0  2  0  0  0  0  0  0  0  0  0
  -28.5774  -17.3982   22.9822 C   0  0  0  0  0  0  0  0  0  0  0  0
  -25.1499  -18.6336   20.4752 C   0  0  0  0  0  0  0  0  0  0  0  0
  -23.9648  -24.3913   23.5273 C   0  0  0  0  0  0  0  0  0  0  0  0
  -23.7074  -21.9016   23.4687 C   0  0  0  0  0  0  0  0  0  0  0  0
  -22.7571  -23.2956   21.6312 C   0  0  0  0  0  0  0  0  0  0  0  0
  -28.2296  -20.2187   18.9005 C   0  0  0  0  0  0  0  0  0  0  0  0
  -32.7685  -19.0971   25.1018 C   0  0  0  0  0  0  0  0  0  0  0  0
  -33.4820  -22.8564   24.9618 C   0  0  0  0  0  0  0  0  0  0  0  0
  -33.4455  -21.4576   25.5586 C   0  0  0  0  0  0  0  0  0  0  0  0
  -32.1109  -23.3894   24.5644 C   0  0  0  0  0  0  0  0  0  1  0  0
  -25.2621  -22.9921   21.7880 C   0  0  1  0  0  0  0  0  0  0  0  0
  -25.9973  -19.7718   19.9281 C   0  0  2  0  0  0  0  0  0  0  0  0
  -23.9487  -23.1570   22.6036 C   0  0  0  0  0  0  0  0  0  0  0  0
  -25.8588  -11.5167   20.2904 N   0  0  0  0  0  0  0  0  0  0  0  0
  -26.2697  -12.7891   20.1556 N   0  0  0  0  0  0  0  0  0  0  0  0
  -26.7778  -24.8580   21.2009 N   0  0  0  0  0  0  0  0  0  0  0  0
  -30.0217  -13.4758   20.3423 N   0  0  0  0  0  0  0  0  0  0  0  0
  -25.5651  -15.0375   20.3989 N   0  0  0  0  0  0  0  0  0  0  0  0
  -21.9199  -12.6656   21.6167 N   0  0  0  0  0  0  0  0  0  0  0  0
  -30.1940  -15.5552   21.4418 N   0  0  0  0  0  0  0  0  0  0  0  0
  -26.1113  -28.3519   20.9195 N   0  0  0  0  0  0  0  0  0  0  0  0
  -25.2646  -21.8466   20.8845 N   0  0  0  0  0  0  0  0  0  0  0  0
  -27.3046  -19.2122   19.4823 N   0  3  0  0  0  0  0  0  0  0  0  0
  -32.8342  -20.5001   24.6072 N   0  3  0  0  0  0  0  0  0  0  0  0
  -22.7520  -14.7825   21.3254 O   0  0  0  0  0  0  0  0  0  0  0  0
  -26.7375  -27.0224   22.7259 O   0  0  0  0  0  0  0  0  0  0  0  0
  -24.7644  -24.5467   20.0671 O   0  0  0  0  0  0  0  0  0  0  0  0
  -27.1319  -20.8122   21.7902 O   0  0  0  0  0  0  0  0  0  0  0  0
  -31.9434  -14.7464   20.1506 O   0  0  0  0  0  0  0  0  0  0  0  0
  -21.4965   -7.1123   21.7465 O   0  0  0  0  0  0  0  0  0  0  0  0
  -32.2711  -24.6912   24.0023 O   0  0  0  0  0  0  0  0  0  1  0  0
  -18.5237   -7.0514   26.3901 F   0  0  0  0  0  0  0  0  0  0  0  0
  -21.9029   -5.1640   23.6652 F   0  0  0  0  0  0  0  0  0  0  0  0
  1  2  1  0  0  0  0
  1  5  2  0  0  0  0
  2  6  2  0  0  0  0
  3 10  2  0  0  0  0
  3 18  1  0  0  0  0
  4 11  1  0  0  0  0
  4 18  2  0  0  0  0
  5 20  1  0  0  0  0
  6 22  1  0  0  0  0
  7 12  2  0  0  0  0
  7 21  1  0  0  0  0
  8  9  2  0  0  0  0
  8 24  1  0  0  0  0
  9 26  1  0  0  0  0
 10 27  1  0  0  0  0
 11 27  2  0  0  0  0
 12 28  1  0  0  0  0
 13 14  2  0  0  0  0
 13 29  1  0  0  0  0
 14 30  1  0  0  0  0
 15 23  1  0  0  0  0
 15 28  2  0  0  0  0
 16 24  2  0  0  0  0
 16 25  1  0  0  0  0
 17 30  2  0  0  0  0
 17 31  1  0  0  0  0
 18 32  1  0  0  0  0
 19 32  1  0  0  0  0
 19 33  2  0  0  0  0
 19 34  1  0  0  0  0
 20 22  2  0  0  0  0
 20 39  1  0  0  0  0
 21 23  2  0  0  0  0
 21 40  1  0  0  0  0
 22 48  1  0  0  0  0
 23 41  1  0  0  0  0
 24 57  1  0  0  0  0
 25 26  2  0  0  0  0
 25 51  1  0  0  0  0
 26 70  1  0  0  0  0
 27 80  1  0  0  0  0
 28 81  1  0  0  0  0
 29 31  2  0  0  0  0
 29 80  1  0  0  0  0
 30 82  1  0  0  0  0
 31 83  1  0  0  0  0
 32 64  2  0  0  0  0
 33 65  1  0  0  0  0
 33 68  1  0  0  0  0
 34 69  1  0  0  0  0
 34 75  2  0  0  0  0
 35 49  1  0  0  0  0
 35 71  1  0  0  0  0
 35 76  2  0  0  0  0
 36 61  1  0  0  0  0
 36 66  1  0  0  0  0
 36 77  2  0  0  0  0
 37 62  1  0  0  0  0
 37 72  1  0  0  0  0
 37 78  2  0  0  0  0
 38 67  1  0  0  0  0
 38 70  1  0  0  0  0
 38 79  2  0  0  0  0
 39 42  1  0  0  0  0
 40 49  1  0  0  0  0
 41 66  1  0  0  0  0
 42 44  1  0  0  0  0
 43 45  1  0  0  0  0
 43 46  1  0  0  0  0
 44 48  1  0  0  0  0
 45 50  1  0  0  0  0
 46 67  1  0  0  0  0
 47 50  1  0  0  0  0
 47 67  1  0  0  0  0
 48 71  1  0  0  0  0
 49 66  1  0  0  0  0
 50 65  1  0  0  0  0
 52 62  1  0  0  0  0
 53 63  1  0  0  0  0
 54 63  1  0  0  0  0
 55 63  1  0  0  0  0
 56 73  1  0  0  0  0
 57 74  1  0  0  0  0
 58 59  1  0  0  0  0
 58 60  1  0  0  0  0
 59 74  1  0  0  0  0
 60 81  1  0  0  0  0
 61 63  1  0  0  0  0
 61 72  1  0  0  0  0
 62 73  1  0  0  0  0
 64 65  1  0  0  0  0
M  CHG  2  73   1  74   1
M  ISO  4  38 100  60 101  70 100  81 101
M  END
> <Batch ID>
0020

> <Smiles>
CNC(C)C(=O)NC(C(=O)N1Cc2cc([101O:1][101CH2:1]CCNCc3ccc([100NH:0][100C:0](=O)N4CCCC(n5nc(-c6ccc(Oc7ccc(F)cc7F)cc6)c(C(N)=O)c5N)C4)c(C)c3)ccc2CC1C(=O)NC1CCCc2ccccc21)C(C)(C)C

> <Shape>
0.262

> <Color>
0.213

> <Negative vol penalty>
0.000

$$$$

  -OEChem-04042321083D

 85 93  0     1  0  0  0  0  0999 V2000
  -20.8440  -33.9979   20.3923 C   0  0  0  0  0  0  0  0  0  0  0  0
  -22.1112  -33.4297   20.4741 C   0  0  0  0  0  0  0  0  0  0  0  0
  -26.1334  -13.3679   20.3989 C   0  0  0  0  0  0  0  0  0  0  0  0
  -24.3914  -14.9902   20.8121 C   0  0  0  0  0  0  0  0  0  0  0  0
  -19.7988  -33.4809   21.1566 C   0  0  0  0  0  0  0  0  0  0  0  0
  -22.3342  -32.3447   21.3212 C   0  0  0  0  0  0  0  0  0  0  0  0
  -25.0641  -28.6909   19.1207 C   0  0  0  0  0  0  0  0  0  0  0  0
  -25.3986  -12.4032   21.0881 C   0  0  0  0  0  0  0  0  0  0  0  0
  -23.6565  -14.0255   21.5013 C   0  0  0  0  0  0  0  0  0  0  0  0
  -26.4406  -28.8925   19.0284 C   0  0  0  0  0  0  0  0  0  0  0  0
  -23.8174   -9.4166   22.4279 C   0  0  0  0  0  0  0  0  0  0  0  0
  -23.7137   -8.1489   21.8554 C   0  0  0  0  0  0  0  0  0  0  0  0
  -26.7714  -27.4719   20.9498 C   0  0  0  0  0  0  0  0  0  0  0  0
  -28.9869  -24.0292   18.9006 C   0  0  0  0  0  0  0  0  0  0  0  0
  -26.6346  -23.5156   18.7016 C   0  0  0  0  0  0  0  0  0  0  0  0
  -27.5566  -25.4241   17.5420 C   0  0  0  0  0  0  0  0  0  0  0  0
  -22.6517   -9.1137   19.9115 C   0  0  0  0  0  0  0  0  0  0  0  0
  -25.6298  -14.6614   20.2610 C   0  0  0  0  0  0  0  0  0  0  0  0
  -26.3318  -15.9483   18.1732 C   0  0  0  0  0  0  0  0  0  0  0  0
  -20.0068  -32.3830   22.0062 C   0  0  0  0  0  0  0  0  0  0  0  0
  -24.5293  -27.8857   20.1366 C   0  0  0  0  0  0  0  0  0  0  0  0
  -21.2911  -31.8134   22.0986 C   0  0  0  0  0  0  0  0  0  0  0  0
  -25.3881  -27.2596   21.0513 C   0  0  0  0  0  0  0  0  0  0  0  0
  -27.8955  -23.2219   19.2208 C   0  0  0  0  0  0  0  0  0  0  0  0
  -28.8175  -25.1304   18.0612 C   0  0  0  0  0  0  0  0  0  0  0  0
  -24.1601  -12.7320   21.6393 C   0  0  0  0  0  0  0  0  0  0  0  0
  -27.2943  -28.2853   19.9447 C   0  0  0  0  0  0  0  0  0  0  0  0
  -23.3382  -10.5329   21.7423 C   0  0  0  0  0  0  0  0  0  0  0  0
  -23.1309   -7.9974   20.5972 C   0  0  0  0  0  0  0  0  0  0  0  0
  -26.4652  -24.6167   17.8621 C   0  0  0  0  0  0  0  0  0  0  0  0
  -22.7554  -10.3814   20.4841 C   0  0  0  0  0  0  0  0  0  0  0  0
  -26.3887  -15.6585   19.5496 C   0  0  0  0  0  0  0  0  0  0  0  0
  -27.2373  -16.9662   17.9989 C   0  0  0  0  0  0  0  0  0  0  0  0
  -25.5320  -15.3508   17.1442 C   0  0  0  0  0  0  0  0  0  0  0  0
  -22.5454  -28.3703   22.5724 C   0  0  0  0  0  0  0  0  0  0  0  0
  -22.7888  -25.1527   22.9041 C   0  0  0  0  0  0  0  0  0  0  0  0
  -24.5974  -22.3117   22.3517 C   0  0  0  0  0  0  0  0  0  0  0  0
  -29.2497  -21.6729   20.6744 C   0  0  0  0  0  0  0  0  0  0  0  0
  -18.8574  -31.8889   22.8485 C   0  0  0  0  0  0  0  0  0  0  0  0
  -23.0443  -27.6568   20.2064 C   0  0  0  0  0  0  0  0  0  0  0  0
  -24.8656  -26.3696   22.1482 C   0  0  0  0  0  0  0  0  0  0  0  0
  -19.0883  -30.5006   23.4397 C   0  0  0  0  0  0  0  0  0  0  0  0
  -31.1247  -18.6484   20.5567 C   0  0  0  0  0  0  0  0  0  0  0  0
  -20.4828  -30.4056   24.0506 C   0  0  0  0  0  0  0  0  0  0  0  0
  -30.0903  -17.5962   20.1504 C   0  0  0  0  0  0  0  0  0  0  0  0
  -30.5265  -19.7020   21.4871 C   0  0  0  0  0  0  0  0  0  0  0  0
  -28.2710  -19.2960   20.5833 C   0  0  0  0  0  0  0  0  0  0  0  0
  -21.5667  -30.6199   22.9873 C   0  0  1  0  0  0  0  0  0  0  0  0
  -22.5698  -27.2315   21.5925 C   0  0  1  0  0  0  0  0  0  0  0  0
  -28.8101  -18.2498   19.5942 C   0  0  2  0  0  0  0  0  0  0  0  0
  -30.6921  -24.7914   15.7389 C   0  0  0  0  0  0  0  0  0  0  0  0
  -25.1243  -19.8586   22.3077 C   0  0  0  0  0  0  0  0  0  0  0  0
  -32.0929  -26.1467   18.7665 C   0  0  0  0  0  0  0  0  0  0  0  0
  -23.5654  -25.6371   25.8148 C   0  0  0  0  0  0  0  0  0  0  0  0
  -24.4174  -23.2846   25.9062 C   0  0  0  0  0  0  0  0  0  0  0  0
  -22.0021  -23.7180   25.4577 C   0  0  0  0  0  0  0  0  0  0  0  0
  -23.3639  -21.9764   19.6824 C   0  0  0  0  0  0  0  0  0  0  0  0
  -30.5959  -28.1558   18.5065 C   0  0  0  0  0  0  0  0  0  0  0  0
  -30.3266  -26.1025   16.3472 C   0  0  0  0  0  0  0  0  0  0  0  0
  -29.1772  -28.7141   18.5567 C   0  0  0  0  0  0  0  0  0  1  0  0
  -23.7065  -24.2222   23.6597 C   0  0  1  0  0  0  0  0  0  0  0  0
  -24.1976  -20.9538   21.8033 C   0  0  2  0  0  0  0  0  0  0  0  0
  -30.6518  -26.6470   18.7651 C   0  0  1  0  0  0  0  0  0  0  0  0
  -23.4328  -24.2338   25.1902 C   0  0  0  0  0  0  0  0  0  0  0  0
  -27.2614  -16.4299   20.2033 N   0  0  0  0  0  0  0  0  0  0  0  0
  -27.7614  -17.2144   19.2334 N   0  0  0  0  0  0  0  0  0  0  0  0
  -23.4057  -26.1817   22.1787 N   0  0  0  0  0  0  0  0  0  0  0  0
  -29.3195  -20.2807   20.8928 N   0  0  0  0  0  0  0  0  0  0  0  0
  -27.6285  -17.6643   16.9117 N   0  0  0  0  0  0  0  0  0  0  0  0
  -24.6537  -14.3169   17.4963 N   0  0  0  0  0  0  0  0  0  0  0  0
  -28.0671  -22.1037   20.0740 N   0  0  0  0  0  0  0  0  0  0  0  0
  -21.7366  -29.4237   22.1906 N   0  0  0  0  0  0  0  0  0  0  0  0
  -23.5616  -22.9110   23.0367 N   0  0  0  0  0  0  0  0  0  0  0  0
  -29.9125  -25.9408   17.7397 N   0  0  3  0  0  0  0  0  0  0  0  0
  -24.2466  -20.9619   20.3138 N   0  3  0  0  0  0  0  0  0  0  0  0
  -25.6062  -15.7116   15.9451 O   0  0  0  0  0  0  0  0  0  0  0  0
  -23.2098  -28.2979   23.5995 O   0  0  0  0  0  0  0  0  0  0  0  0
  -21.5699  -24.9687   22.9498 O   0  0  0  0  0  0  0  0  0  0  0  0
  -25.7177  -22.7912   22.1918 O   0  0  0  0  0  0  0  0  0  0  0  0
  -30.1822  -22.4240   20.9715 O   0  0  0  0  0  0  0  0  0  0  0  0
  -23.4426  -11.7908   22.3116 O   0  0  0  0  0  0  0  0  0  0  0  0
  -28.6381  -28.4808   19.8572 O   0  0  0  0  0  0  0  0  0  1  0  0
  -23.0327   -6.7802   20.0469 F   0  0  0  0  0  0  0  0  0  0  0  0
  -25.2543  -24.8993   17.3638 F   0  0  0  0  0  0  0  0  0  0  0  0
  -22.2944  -11.4502   19.8201 F   0  0  0  0  0  0  0  0  0  0  0  0
  1  2  1  0  0  0  0
  1  5  2  0  0  0  0
  2  6  2  0  0  0  0
  3  8  2  0  0  0  0
  3 18  1  0  0  0  0
  4  9  1  0  0  0  0
  4 18  2  0  0  0  0
  5 20  1  0  0  0  0
  6 22  1  0  0  0  0
  7 10  2  0  0  0  0
  7 21  1  0  0  0  0
  8 26  1  0  0  0  0
  9 26  2  0  0  0  0
 10 27  1  0  0  0  0
 11 12  2  0  0  0  0
 11 28  1  0  0  0  0
 12 29  1  0  0  0  0
 13 23  1  0  0  0  0
 13 27  2  0  0  0  0
 14 24  1  0  0  0  0
 14 25  2  0  0  0  0
 15 24  2  0  0  0  0
 15 30  1  0  0  0  0
 16 25  1  0  0  0  0
 16 30  2  0  0  0  0
 17 29  2  0  0  0  0
 17 31  1  0  0  0  0
 18 32  1  0  0  0  0
 19 32  1  0  0  0  0
 19 33  2  0  0  0  0
 19 34  1  0  0  0  0
 20 22  2  0  0  0  0
 20 39  1  0  0  0  0
 21 23  2  0  0  0  0
 21 40  1  0  0  0  0
 22 48  1  0  0  0  0
 23 41  1  0  0  0  0
 24 71  1  0  0  0  0
 25 74  1  0  0  0  0
 26 81  1  0  0  0  0
 27 82  1  0  0  0  0
 28 31  2  0  0  0  0
 28 81  1  0  0  0  0
 29 83  1  0  0  0  0
 30 84  1  0  0  0  0
 31 85  1  0  0  0  0
 32 65  2  0  0  0  0
 33 66  1  0  0  0  0
 33 69  1  0  0  0  0
 34 70  1  0  0  0  0
 34 76  2  0  0  0  0
 35 49  1  0  0  0  0
 35 72  1  0  0  0  0
 35 77  2  0  0  0  0
 36 61  1  0  0  0  0
 36 67  1  0  0  0  0
 36 78  2  0  0  0  0
 37 62  1  0  0  0  0
 37 73  1  0  0  0  0
 37 79  2  0  0  0  0
 38 68  1  0  0  0  0
 38 71  1  0  0  0  0
 38 80  2  0  0  0  0
 39 42  1  0  0  0  0
 40 49  1  0  0  0  0
 41 67  1  0  0  0  0
 42 44  1  0  0  0  0
 43 45  1  0  0  0  0
 43 46  1  0  0  0  0
 44 48  1  0  0  0  0
 45 50  1  0  0  0  0
 46 68  1  0  0  0  0
 47 50  1  0  0  0  0
 47 68  1  0  0  0  0
 48 72  1  0  0  0  0
 49 67  1  0  0  0  0
 50 66  1  0  0  0  0
 51 59  1  0  0  0  0
 52 62  1  0  0  0  0
 53 63  1  0  0  0  0
 54 64  1  0  0  0  0
 55 64  1  0  0  0  0
 56 64  1  0  0  0  0
 57 75  1  0  0  0  0
 58 60  1  0  0  0  0
 58 63  1  0  0  0  0
 59 74  1  0  0  0  0
 60 82  1  0  0  0  0
 61 64  1  0  0  0  0
 61 73  1  0  0  0  0
 62 75  1  0  0  0  0
 63 74  1  0  0  0  0
 65 66  1  0  0  0  0
M  CHG  1  75   1
M  ISO  4  38 100  60 101  71 100  82 101
M  END
> <Batch ID>
0020

> <Smiles>
CCN(c1cc(F)cc([100NH:0][100C:0](=O)N2CCCC(n3nc(-c4ccc(Oc5ccc(F)cc5F)cc4)c(C(N)=O)c3N)C2)c1)C(C)C[101CH2:1][101O:1]c1ccc2c(c1)CN(C(=O)C(NC(=O)C(C)NC)C(C)(C)C)C(C(=O)NC1CCCc3ccccc31)C2

> <Shape>
0.226

> <Color>
0.076

> <Negative vol penalty>
0.000

$$$$

  -OEChem-04042321083D

 84 92  0     1  0  0  0  0  0999 V2000
  -20.4108   -9.0877   23.7645 C   0  0  0  0  0  0  0  0  0  0  0  0
  -21.2813  -10.0926   24.1741 C   0  0  0  0  0  0  0  0  0  0  0  0
  -23.9307  -30.1646   19.8410 C   0  0  0  0  0  0  0  0  0  0  0  0
  -24.3379  -28.7708   21.7720 C   0  0  0  0  0  0  0  0  0  0  0  0
  -20.6848   -8.3580   22.6085 C   0  0  0  0  0  0  0  0  0  0  0  0
  -22.4271  -10.3676   23.4285 C   0  0  0  0  0  0  0  0  0  0  0  0
  -23.1631  -15.3329   22.7581 C   0  0  0  0  0  0  0  0  0  0  0  0
  -29.5085  -21.2381   19.2604 C   0  0  0  0  0  0  0  0  0  0  0  0
  -22.6014  -30.3204   20.2338 C   0  0  0  0  0  0  0  0  0  0  0  0
  -23.0086  -28.9267   22.1648 C   0  0  0  0  0  0  0  0  0  0  0  0
  -23.6974  -16.0477   23.8293 C   0  0  0  0  0  0  0  0  0  0  0  0
  -19.9947  -27.6493   21.3190 C   0  0  0  0  0  0  0  0  0  0  0  0
  -19.3039  -26.5109   21.7342 C   0  0  0  0  0  0  0  0  0  0  0  0
  -29.5193  -19.9931   19.8892 C   0  0  0  0  0  0  0  0  0  0  0  0
  -25.8743  -15.9609   22.7936 C   0  0  0  0  0  0  0  0  0  0  0  0
  -29.2817  -22.3209   21.4082 C   0  0  0  0  0  0  0  0  0  0  0  0
  -18.9395  -27.5213   23.8983 C   0  0  0  0  0  0  0  0  0  0  0  0
  -24.7989  -29.3897   20.6101 C   0  0  0  0  0  0  0  0  0  0  0  0
  -27.2651  -30.0404   20.5607 C   0  0  0  0  0  0  0  0  0  0  0  0
  -21.8295   -8.6308   21.8430 C   0  0  0  0  0  0  0  0  0  0  0  0
  -23.9839  -14.9166   21.7001 C   0  0  0  0  0  0  0  0  0  0  0  0
  -22.7174   -9.6400   22.2619 C   0  0  0  0  0  0  0  0  0  0  0  0
  -25.3475  -15.2432   21.7089 C   0  0  0  0  0  0  0  0  0  0  0  0
  -29.2925  -21.0759   22.0370 C   0  0  0  0  0  0  0  0  0  0  0  0
  -29.3898  -22.4021   20.0199 C   0  0  0  0  0  0  0  0  0  0  0  0
  -22.1404  -29.7015   21.3958 C   0  0  0  0  0  0  0  0  0  0  0  0
  -25.0537  -16.3593   23.8485 C   0  0  0  0  0  0  0  0  0  0  0  0
  -20.1580  -28.7237   22.1935 C   0  0  0  0  0  0  0  0  0  0  0  0
  -18.7762  -26.4469   23.0238 C   0  0  0  0  0  0  0  0  0  0  0  0
  -19.6303  -28.6598   23.4831 C   0  0  0  0  0  0  0  0  0  0  0  0
  -29.4113  -19.9120   21.2775 C   0  0  0  0  0  0  0  0  0  0  0  0
  -26.1720  -29.2279   20.2045 C   0  0  0  0  0  0  0  0  0  0  0  0
  -28.3394  -29.4696   19.9232 C   0  0  0  0  0  0  0  0  0  0  0  0
  -27.3056  -31.2068   21.3935 C   0  0  0  0  0  0  0  0  0  0  0  0
  -24.8280  -12.1012   20.4897 C   0  0  0  0  0  0  0  0  0  0  0  0
  -26.2556  -13.9391   18.2300 C   0  0  0  0  0  0  0  0  0  0  0  0
  -27.6122  -16.9529   17.3793 C   0  0  0  0  0  0  0  0  0  0  0  0
  -29.4783  -23.9233   18.0138 C   0  0  0  0  0  0  0  0  0  0  0  0
  -22.1082   -7.7836   20.6267 C   0  0  0  0  0  0  0  0  0  0  0  0
  -23.3871  -14.1694   20.5391 C   0  0  0  0  0  0  0  0  0  0  0  0
  -26.2675  -14.8370   20.5877 C   0  0  0  0  0  0  0  0  0  0  0  0
  -23.1487   -8.3892   19.6881 C   0  0  0  0  0  0  0  0  0  0  0  0
  -29.4553  -26.8902   16.0456 C   0  0  0  0  0  0  0  0  0  0  0  0
  -24.3571   -8.8825   20.4776 C   0  0  0  0  0  0  0  0  0  0  0  0
  -28.7156  -27.9021   16.9237 C   0  0  0  0  0  0  0  0  0  0  0  0
  -28.8686  -25.4862   16.1807 C   0  0  0  0  0  0  0  0  0  0  0  0
  -28.0209  -26.0001   18.4360 C   0  0  0  0  0  0  0  0  0  0  0  0
  -23.9576   -9.9847   21.4662 C   0  0  1  0  0  0  0  0  0  0  0  0
  -24.4146  -13.3503   19.7640 C   0  0  1  0  0  0  0  0  0  0  0  0
  -28.6174  -27.4161   18.3831 C   0  0  2  0  0  0  0  0  0  0  0  0
  -28.7323  -18.1416   15.4741 C   0  0  0  0  0  0  0  0  0  0  0  0
  -28.8364  -12.4140   18.7988 C   0  0  0  0  0  0  0  0  0  0  0  0
  -30.0879  -14.2268   17.6090 C   0  0  0  0  0  0  0  0  0  0  0  0
  -28.4017  -12.8623   16.3771 C   0  0  0  0  0  0  0  0  0  0  0  0
  -25.4685  -18.9884   17.2367 C   0  0  0  0  0  0  0  0  0  0  0  0
  -26.7901  -21.6869   23.8260 C   0  0  0  0  0  0  0  0  0  0  0  0
  -29.1742  -21.0311   23.5320 C   0  0  0  0  0  0  0  0  0  0  0  0
  -26.6874  -19.0652   25.5909 C   0  0  0  0  0  0  0  0  0  0  0  0
  -27.8315  -20.0461   25.3833 C   0  0  0  0  0  0  0  0  0  0  0  0
  -26.7007  -17.8928   24.6177 C   0  0  0  0  0  0  0  0  0  1  0  0
  -27.6177  -14.5699   18.0687 C   0  0  1  0  0  0  0  0  0  0  0  0
  -27.4111  -17.8413   16.1648 C   0  0  2  0  0  0  0  0  0  0  0  0
  -28.7192  -13.5244   17.7356 C   0  0  0  0  0  0  0  0  0  0  0  0
  -26.5200  -28.2179   19.4027 N   0  0  0  0  0  0  0  0  0  0  0  0
  -27.8438  -28.3921   19.2498 N   0  0  0  0  0  0  0  0  0  0  0  0
  -25.6378  -14.1026   19.4779 N   0  0  0  0  0  0  0  0  0  0  0  0
  -28.8104  -25.0915   17.5898 N   0  0  0  0  0  0  0  0  0  0  0  0
  -29.6502  -29.7894   19.8784 N   0  0  0  0  0  0  0  0  0  0  0  0
  -26.1105  -31.6579   21.9703 N   0  0  0  0  0  0  0  0  0  0  0  0
  -29.3798  -23.6667   19.3809 N   0  0  0  0  0  0  0  0  0  0  0  0
  -23.7824  -11.2441   20.7751 N   0  0  0  0  0  0  0  0  0  0  0  0
  -27.4659  -15.6182   17.0656 N   0  0  0  0  0  0  0  0  0  0  0  0
  -26.7861  -19.1333   16.5659 N   0  3  0  0  0  0  0  0  0  0  0  0
  -27.8103  -20.5883   24.0045 N   0  3  1  0  0  0  0  0  0  0  0  0
  -28.3673  -31.8401   21.6063 O   0  0  0  0  0  0  0  0  0  0  0  0
  -26.0085  -11.9273   20.7686 O   0  0  0  0  0  0  0  0  0  0  0  0
  -25.7551  -13.3302   17.2812 O   0  0  0  0  0  0  0  0  0  0  0  0
  -27.8765  -17.3983   18.4939 O   0  0  0  0  0  0  0  0  0  0  0  0
  -30.1153  -23.2182   17.2270 O   0  0  0  0  0  0  0  0  0  0  0  0
  -20.8434  -29.8536   21.7795 O   0  0  0  0  0  0  0  0  0  0  0  0
  -25.5779  -17.0564   24.8932 O   0  0  0  0  0  0  0  0  0  1  0  0
  -18.1115  -25.3543   23.4219 F   0  0  0  0  0  0  0  0  0  0  0  0
  -19.7829  -29.6893   24.3273 F   0  0  0  0  0  0  0  0  0  0  0  0
  -29.4292  -18.3539   22.0200 Cl  0  0  0  0  0  0  0  0  0  0  0  0
  1  2  1  0  0  0  0
  1  5  2  0  0  0  0
  2  6  2  0  0  0  0
  3  9  2  0  0  0  0
  3 18  1  0  0  0  0
  4 10  1  0  0  0  0
  4 18  2  0  0  0  0
  5 20  1  0  0  0  0
  6 22  1  0  0  0  0
  7 11  2  0  0  0  0
  7 21  1  0  0  0  0
  8 14  2  0  0  0  0
  8 25  1  0  0  0  0
  9 26  1  0  0  0  0
 10 26  2  0  0  0  0
 11 27  1  0  0  0  0
 12 13  2  0  0  0  0
 12 28  1  0  0  0  0
 13 29  1  0  0  0  0
 14 31  1  0  0  0  0
 15 23  1  0  0  0  0
 15 27  2  0  0  0  0
 16 24  1  0  0  0  0
 16 25  2  0  0  0  0
 17 29  2  0  0  0  0
 17 30  1  0  0  0  0
 18 32  1  0  0  0  0
 19 32  1  0  0  0  0
 19 33  2  0  0  0  0
 19 34  1  0  0  0  0
 20 22  2  0  0  0  0
 20 39  1  0  0  0  0
 21 23  2  0  0  0  0
 21 40  1  0  0  0  0
 22 48  1  0  0  0  0
 23 41  1  0  0  0  0
 24 31  2  0  0  0  0
 24 57  1  0  0  0  0
 25 70  1  0  0  0  0
 26 80  1  0  0  0  0
 27 81  1  0  0  0  0
 28 30  2  0  0  0  0
 28 80  1  0  0  0  0
 29 82  1  0  0  0  0
 30 83  1  0  0  0  0
 31 84  1  0  0  0  0
 32 64  2  0  0  0  0
 33 65  1  0  0  0  0
 33 68  1  0  0  0  0
 34 69  1  0  0  0  0
 34 75  2  0  0  0  0
 35 49  1  0  0  0  0
 35 71  1  0  0  0  0
 35 76  2  0  0  0  0
 36 61  1  0  0  0  0
 36 66  1  0  0  0  0
 36 77  2  0  0  0  0
 37 62  1  0  0  0  0
 37 72  1  0  0  0  0
 37 78  2  0  0  0  0
 38 67  1  0  0  0  0
 38 70  1  0  0  0  0
 38 79  2  0  0  0  0
 39 42  1  0  0  0  0
 40 49  1  0  0  0  0
 41 66  1  0  0  0  0
 42 44  1  0  0  0  0
 43 45  1  0  0  0  0
 43 46  1  0  0  0  0
 44 48  1  0  0  0  0
 45 50  1  0  0  0  0
 46 67  1  0  0  0  0
 47 50  1  0  0  0  0
 47 67  1  0  0  0  0
 48 71  1  0  0  0  0
 49 66  1  0  0  0  0
 50 65  1  0  0  0  0
 51 62  1  0  0  0  0
 52 63  1  0  0  0  0
 53 63  1  0  0  0  0
 54 63  1  0  0  0  0
 55 73  1  0  0  0  0
 56 74  1  0  0  0  0
 57 74  1  0  0  0  0
 58 59  1  0  0  0  0
 58 60  1  0  0  0  0
 59 74  1  0  0  0  0
 60 81  1  0  0  0  0
 61 63  1  0  0  0  0
 61 72  1  0  0  0  0
 62 73  1  0  0  0  0
 64 65  1  0  0  0  0
M  CHG  2  73   1  74   1
M  ISO  4  38 100  60 101  70 100  81 101
M  END
> <Batch ID>
0020

> <Smiles>
CNC(C)C(=O)NC(C(=O)N1Cc2cc([101O:1][101CH2:1]CCN(C)Cc3cc([100NH:0][100C:0](=O)N4CCCC(n5nc(-c6ccc(Oc7ccc(F)cc7F)cc6)c(C(N)=O)c5N)C4)ccc3Cl)ccc2CC1C(=O)NC1CCCc2ccccc21)C(C)(C)C

> <Shape>
0.275

> <Color>
0.058

> <Negative vol penalty>
0.000

$$$$

  -OEChem-04042321083D

 85 94  0     1  0  0  0  0  0999 V2000
  -28.8171  -30.4922   13.5888 C   0  0  0  0  0  0  0  0  0  0  0  0
  -29.2559  -29.8637   14.7498 C   0  0  0  0  0  0  0  0  0  0  0  0
  -23.1399   -9.7782   20.8465 C   0  0  0  0  0  0  0  0  0  0  0  0
  -23.8252  -10.4393   23.0669 C   0  0  0  0  0  0  0  0  0  0  0  0
  -27.8671  -31.5098   13.6647 C   0  0  0  0  0  0  0  0  0  0  0  0
  -28.7455  -30.2533   15.9876 C   0  0  0  0  0  0  0  0  0  0  0  0
  -27.5370  -26.3057   18.9203 C   0  0  0  0  0  0  0  0  0  0  0  0
  -30.2471  -19.2425   22.6287 C   0  0  0  0  0  0  0  0  0  0  0  0
  -32.4633  -18.3200   22.3557 C   0  0  0  0  0  0  0  0  0  0  0  0
  -29.7044  -18.1279   21.9894 C   0  0  0  0  0  0  0  0  0  0  0  0
  -31.9206  -17.2053   21.7165 C   0  0  0  0  0  0  0  0  0  0  0  0
  -22.4084   -8.7208   21.3870 C   0  0  0  0  0  0  0  0  0  0  0  0
  -23.0936   -9.3818   23.6075 C   0  0  0  0  0  0  0  0  0  0  0  0
  -28.5831  -25.6487   19.5665 C   0  0  0  0  0  0  0  0  0  0  0  0
  -19.8620   -8.6999   24.3230 C   0  0  0  0  0  0  0  0  0  0  0  0
  -19.0684   -8.9664   25.4387 C   0  0  0  0  0  0  0  0  0  0  0  0
  -28.0699  -26.8429   21.5987 C   0  0  0  0  0  0  0  0  0  0  0  0
  -20.3187   -7.3409   26.7161 C   0  0  0  0  0  0  0  0  0  0  0  0
  -23.8484  -10.6375   21.6864 C   0  0  0  0  0  0  0  0  0  0  0  0
  -24.1503  -13.0385   20.8794 C   0  0  0  0  0  0  0  0  0  0  0  0
  -27.3377  -31.9055   14.9032 C   0  0  0  0  0  0  0  0  0  0  0  0
  -26.7550  -27.2459   19.6066 C   0  0  0  0  0  0  0  0  0  0  0  0
  -27.7885  -31.2781   16.0803 C   0  0  0  0  0  0  0  0  0  0  0  0
  -27.0127  -27.5086   20.9596 C   0  0  0  0  0  0  0  0  0  0  0  0
  -31.6266  -19.3386   22.8117 C   0  0  0  0  0  0  0  0  0  0  0  0
  -30.5411  -17.1092   21.5334 C   0  0  0  0  0  0  0  0  0  0  0  0
  -22.3852   -8.5225   22.7675 C   0  0  0  0  0  0  0  0  0  0  0  0
  -28.8516  -25.9193   20.9051 C   0  0  0  0  0  0  0  0  0  0  0  0
  -20.8838   -7.7538   24.4038 C   0  0  0  0  0  0  0  0  0  0  0  0
  -19.2968   -8.2869   26.6353 C   0  0  0  0  0  0  0  0  0  0  0  0
  -21.1122   -7.0744   25.6003 C   0  0  0  0  0  0  0  0  0  0  0  0
  -24.6047  -11.7296   21.1286 C   0  0  0  0  0  0  0  0  0  0  0  0
  -25.2405  -13.6858   20.3511 C   0  0  0  0  0  0  0  0  0  0  0  0
  -31.2127  -22.6614   22.5664 C   0  0  0  0  0  0  0  0  0  0  0  0
  -22.8582  -13.6176   21.1052 C   0  0  0  0  0  0  0  0  0  0  0  0
  -26.1796  -30.3544   19.2758 C   0  0  0  0  0  0  0  0  0  0  0  0
  -24.0421  -29.8150   21.6554 C   0  0  0  0  0  0  0  0  0  0  0  0
  -23.0782  -27.8883   24.3023 C   0  0  0  0  0  0  0  0  0  0  0  0
  -30.6793  -14.8780   20.3720 C   0  0  0  0  0  0  0  0  0  0  0  0
  -26.3476  -33.0426   14.9396 C   0  0  0  0  0  0  0  0  0  0  0  0
  -25.6131  -27.9263   18.9026 C   0  0  0  0  0  0  0  0  0  0  0  0
  -26.1898  -28.4942   21.7468 C   0  0  0  0  0  0  0  0  0  0  0  0
  -25.5801  -33.1401   16.2555 C   0  0  0  0  0  0  0  0  0  0  0  0
  -29.6837  -11.8752   18.7382 C   0  0  0  0  0  0  0  0  0  0  0  0
  -26.5333  -33.0165   17.4399 C   0  0  0  0  0  0  0  0  0  0  0  0
  -28.2362  -11.6774   19.1939 C   0  0  0  0  0  0  0  0  0  0  0  0
  -32.8174  -23.0497   20.8443 C   0  0  0  0  0  0  0  0  0  0  0  0
  -30.5555  -12.4511   19.8527 C   0  0  0  0  0  0  0  0  0  0  0  0
  -33.3648  -22.0232   21.8180 C   0  0  0  0  0  0  0  0  0  0  0  0
  -28.5928  -13.4807   20.9282 C   0  0  0  0  0  0  0  0  0  0  0  0
  -27.2403  -31.6557   17.4394 C   0  0  1  0  0  0  0  0  0  0  0  0
  -31.7194  -23.7556   21.6435 C   0  0  1  0  0  0  0  0  0  0  0  0
  -25.2077  -29.2435   19.5568 C   0  0  1  0  0  0  0  0  0  0  0  0
  -27.6616  -12.9634   19.8197 C   0  0  2  0  0  0  0  0  0  0  0  0
  -21.3104  -27.7192   26.0753 C   0  0  0  0  0  0  0  0  0  0  0  0
  -25.3744  -32.0862   23.1971 C   0  0  0  0  0  0  0  0  0  0  0  0
  -24.2349  -31.2568   25.2664 C   0  0  0  0  0  0  0  0  0  0  0  0
  -22.8773  -32.0573   23.3328 C   0  0  0  0  0  0  0  0  0  0  0  0
  -22.1783  -25.2469   23.3165 C   0  0  0  0  0  0  0  0  0  0  0  0
  -32.2107  -20.5384   23.4997 C   0  0  0  0  0  0  0  0  0  0  0  0
  -30.6281  -24.3440   20.7703 C   0  0  0  0  0  0  0  0  0  1  0  0
  -24.0912  -29.8460   23.1640 C   0  0  1  0  0  0  0  0  0  0  0  0
  -21.7332  -27.2931   24.6780 C   0  0  2  0  0  0  0  0  0  0  0  0
  -24.1614  -31.2944   23.7250 C   0  0  0  0  0  0  0  0  0  0  0  0
  -25.8839  -11.5541   20.7866 N   0  0  0  0  0  0  0  0  0  0  0  0
  -26.2425  -12.7611   20.3170 N   0  0  0  0  0  0  0  0  0  0  0  0
  -32.2220  -21.7028   22.6410 N   0  0  0  0  0  0  0  0  0  0  0  0
  -25.0884  -29.1385   21.0124 N   0  0  0  0  0  0  0  0  0  0  0  0
  -29.9508  -13.6699   20.3946 N   0  0  0  0  0  0  0  0  0  0  0  0
  -25.4301  -14.9499   19.9170 N   0  0  0  0  0  0  0  0  0  0  0  0
  -21.8518  -12.8118   21.6549 N   0  0  0  0  0  0  0  0  0  0  0  0
  -29.9900  -15.9767   20.8843 N   0  0  0  0  0  0  0  0  0  0  0  0
  -26.3521  -30.6245   17.9317 N   0  0  0  0  0  0  0  0  0  0  0  0
  -22.9376  -29.0816   23.6257 N   0  0  0  0  0  0  0  0  0  0  0  0
  -21.7965  -25.8047   24.6394 N   0  3  0  0  0  0  0  0  0  0  0  0
  -30.1421  -22.6734   23.1554 O   0  0  0  0  0  0  0  0  0  0  0  0
  -22.5990  -14.8095   20.8126 O   0  0  0  0  0  0  0  0  0  0  0  0
  -26.7310  -30.9253   20.2095 O   0  0  0  0  0  0  0  0  0  0  0  0
  -23.1060  -30.3645   21.0695 O   0  0  0  0  0  0  0  0  0  0  0  0
  -24.1468  -27.3506   24.5843 O   0  0  0  0  0  0  0  0  0  0  0  0
  -31.8198  -14.9394   19.9056 O   0  0  0  0  0  0  0  0  0  0  0  0
  -21.6713   -7.4909   23.2954 O   0  0  0  0  0  0  0  0  0  0  0  0
  -29.8726  -25.2799   21.5381 O   0  0  0  0  0  0  0  0  0  1  0  0
  -18.5357   -8.5441   27.7071 F   0  0  0  0  0  0  0  0  0  0  0  0
  -22.0932   -6.1653   25.6844 F   0  0  0  0  0  0  0  0  0  0  0  0
  1  2  1  0  0  0  0
  1  5  2  0  0  0  0
  2  6  2  0  0  0  0
  3 12  2  0  0  0  0
  3 19  1  0  0  0  0
  4 13  1  0  0  0  0
  4 19  2  0  0  0  0
  5 21  1  0  0  0  0
  6 23  1  0  0  0  0
  7 14  2  0  0  0  0
  7 22  1  0  0  0  0
  8 10  2  0  0  0  0
  8 25  1  0  0  0  0
  9 11  1  0  0  0  0
  9 25  2  0  0  0  0
 10 26  1  0  0  0  0
 11 26  2  0  0  0  0
 12 27  1  0  0  0  0
 13 27  2  0  0  0  0
 14 28  1  0  0  0  0
 15 16  2  0  0  0  0
 15 29  1  0  0  0  0
 16 30  1  0  0  0  0
 17 24  1  0  0  0  0
 17 28  2  0  0  0  0
 18 30  2  0  0  0  0
 18 31  1  0  0  0  0
 19 32  1  0  0  0  0
 20 32  1  0  0  0  0
 20 33  2  0  0  0  0
 20 35  1  0  0  0  0
 21 23  2  0  0  0  0
 21 40  1  0  0  0  0
 22 24  2  0  0  0  0
 22 41  1  0  0  0  0
 23 51  1  0  0  0  0
 24 42  1  0  0  0  0
 25 60  1  0  0  0  0
 26 72  1  0  0  0  0
 27 82  1  0  0  0  0
 28 83  1  0  0  0  0
 29 31  2  0  0  0  0
 29 82  1  0  0  0  0
 30 84  1  0  0  0  0
 31 85  1  0  0  0  0
 32 65  2  0  0  0  0
 33 66  1  0  0  0  0
 33 70  1  0  0  0  0
 34 52  1  0  0  0  0
 34 67  1  0  0  0  0
 34 76  2  0  0  0  0
 35 71  1  0  0  0  0
 35 77  2  0  0  0  0
 36 53  1  0  0  0  0
 36 73  1  0  0  0  0
 36 78  2  0  0  0  0
 37 62  1  0  0  0  0
 37 68  1  0  0  0  0
 37 79  2  0  0  0  0
 38 63  1  0  0  0  0
 38 74  1  0  0  0  0
 38 80  2  0  0  0  0
 39 69  1  0  0  0  0
 39 72  1  0  0  0  0
 39 81  2  0  0  0  0
 40 43  1  0  0  0  0
 41 53  1  0  0  0  0
 42 68  1  0  0  0  0
 43 45  1  0  0  0  0
 44 46  1  0  0  0  0
 44 48  1  0  0  0  0
 45 51  1  0  0  0  0
 46 54  1  0  0  0  0
 47 49  1  0  0  0  0
 47 52  1  0  0  0  0
 48 69  1  0  0  0  0
 49 67  1  0  0  0  0
 50 54  1  0  0  0  0
 50 69  1  0  0  0  0
 51 73  1  0  0  0  0
 52 61  1  0  0  0  0
 53 68  1  0  0  0  0
 54 66  1  0  0  0  0
 55 63  1  0  0  0  0
 56 64  1  0  0  0  0
 57 64  1  0  0  0  0
 58 64  1  0  0  0  0
 59 75  1  0  0  0  0
 60 67  1  0  0  0  0
 61 83  1  0  0  0  0
 62 64  1  0  0  0  0
 62 74  1  0  0  0  0
 63 75  1  0  0  0  0
 65 66  1  0  0  0  0
M  CHG  1  75   1
M  ISO  4  39 100  61 101  72 100  83 101
M  END
> <Batch ID>
0020

> <Smiles>
CNC(C)C(=O)NC(C(=O)N1Cc2cc([101O:1][101CH2:1]C3CCN(Cc4ccc([100NH:0][100C:0](=O)N5CCCC(n6nc(-c7ccc(Oc8ccc(F)cc8F)cc7)c(C(N)=O)c6N)C5)cc4)C3=O)ccc2CC1C(=O)NC1CCCc2ccccc21)C(C)(C)C

> <Shape>
0.263

> <Color>
0.175

> <Negative vol penalty>
0.000

$$$$

  -OEChem-04042321083D

 84 93  0     1  0  0  0  0  0999 V2000
  -21.5520  -28.5249   24.6176 C   0  0  0  0  0  0  0  0  0  0  0  0
  -21.5146  -27.2250   24.1233 C   0  0  0  0  0  0  0  0  0  0  0  0
  -23.1624   -9.9078   19.9033 C   0  0  0  0  0  0  0  0  0  0  0  0
  -23.8429   -9.8680   22.2212 C   0  0  0  0  0  0  0  0  0  0  0  0
  -20.5134  -29.4092   24.3293 C   0  0  0  0  0  0  0  0  0  0  0  0
  -20.4379  -26.8083   23.3414 C   0  0  0  0  0  0  0  0  0  0  0  0
  -21.8998  -24.2003   19.2540 C   0  0  0  0  0  0  0  0  0  0  0  0
  -25.3300  -15.4780   16.0953 C   0  0  0  0  0  0  0  0  0  0  0  0
  -26.8135  -16.5861   17.6472 C   0  0  0  0  0  0  0  0  0  0  0  0
  -26.3655  -14.6246   15.7147 C   0  0  0  0  0  0  0  0  0  0  0  0
  -27.8490  -15.7326   17.2667 C   0  0  0  0  0  0  0  0  0  0  0  0
  -22.4330   -8.7348   20.0973 C   0  0  0  0  0  0  0  0  0  0  0  0
  -23.1134   -8.6950   22.4152 C   0  0  0  0  0  0  0  0  0  0  0  0
  -22.2664  -22.8690   19.4457 C   0  0  0  0  0  0  0  0  0  0  0  0
  -19.4528   -7.8454   21.4239 C   0  0  0  0  0  0  0  0  0  0  0  0
  -18.1645   -7.7878   20.8924 C   0  0  0  0  0  0  0  0  0  0  0  0
  -20.0963  -22.1648   18.6624 C   0  0  0  0  0  0  0  0  0  0  0  0
  -18.8070   -5.8912   19.5405 C   0  0  0  0  0  0  0  0  0  0  0  0
  -23.8674  -10.4744   20.9653 C   0  0  0  0  0  0  0  0  0  0  0  0
  -24.1640  -13.0077   20.9227 C   0  0  0  0  0  0  0  0  0  0  0  0
  -19.4281  -29.0061   23.5353 C   0  0  0  0  0  0  0  0  0  0  0  0
  -20.6226  -24.5249   18.7745 C   0  0  0  0  0  0  0  0  0  0  0  0
  -19.3831  -27.6876   23.0433 C   0  0  0  0  0  0  0  0  0  0  0  0
  -19.7168  -23.5009   18.4630 C   0  0  0  0  0  0  0  0  0  0  0  0
  -25.5540  -16.4588   17.0615 C   0  0  0  0  0  0  0  0  0  0  0  0
  -27.6251  -14.7518   16.3004 C   0  0  0  0  0  0  0  0  0  0  0  0
  -22.4085   -8.1284   21.3532 C   0  0  0  0  0  0  0  0  0  0  0  0
  -21.3636  -21.8510   19.1527 C   0  0  0  0  0  0  0  0  0  0  0  0
  -20.4182   -6.9259   21.0137 C   0  0  0  0  0  0  0  0  0  0  0  0
  -17.8415   -6.8107   19.9507 C   0  0  0  0  0  0  0  0  0  0  0  0
  -20.0953   -5.9489   20.0720 C   0  0  0  0  0  0  0  0  0  0  0  0
  -24.6216  -11.6857   20.7654 C   0  0  0  0  0  0  0  0  0  0  0  0
  -25.2531  -13.7867   20.6172 C   0  0  0  0  0  0  0  0  0  0  0  0
  -22.8701  -13.4885   21.3103 C   0  0  0  0  0  0  0  0  0  0  0  0
  -18.1443  -26.1538   19.9183 C   0  0  0  0  0  0  0  0  0  0  0  0
  -16.9421  -25.6533   16.9473 C   0  0  0  0  0  0  0  0  0  0  0  0
  -16.9348  -23.7639   14.1053 C   0  0  0  0  0  0  0  0  0  0  0  0
  -29.7376  -13.4848   16.7726 C   0  0  0  0  0  0  0  0  0  0  0  0
  -18.3057  -29.9831   23.2899 C   0  0  0  0  0  0  0  0  0  0  0  0
  -20.2519  -25.9649   18.5478 C   0  0  0  0  0  0  0  0  0  0  0  0
  -18.3406  -23.7956   17.9266 C   0  0  0  0  0  0  0  0  0  0  0  0
  -17.3843  -29.5767   22.1427 C   0  0  0  0  0  0  0  0  0  0  0  0
  -30.1343  -13.0890   20.4303 C   0  0  0  0  0  0  0  0  0  0  0  0
  -17.0045  -28.1039   22.2593 C   0  0  0  0  0  0  0  0  0  0  0  0
  -28.7228  -12.7256   20.8874 C   0  0  0  0  0  0  0  0  0  0  0  0
  -22.5258  -18.5372   17.3782 C   0  0  0  0  0  0  0  0  0  0  0  0
  -30.4010  -12.6338   18.9988 C   0  0  0  0  0  0  0  0  0  0  0  0
  -23.1811  -17.2506   16.8807 C   0  0  0  0  0  0  0  0  0  0  0  0
  -24.6680  -18.3656   18.4310 C   0  0  0  0  0  0  0  0  0  0  0  0
  -27.9838  -12.7802   18.4723 C   0  0  0  0  0  0  0  0  0  0  0  0
  -18.2443  -27.2058   22.1709 C   0  0  1  0  0  0  0  0  0  0  0  0
  -18.7446  -26.2000   18.5416 C   0  0  1  0  0  0  0  0  0  0  0  0
  -23.2221  -18.7898   18.7123 C   0  0  1  0  0  0  0  0  0  0  0  0
  -27.6767  -13.2640   19.8974 C   0  0  1  0  0  0  0  0  0  0  0  0
  -15.8179  -23.5789   11.8657 C   0  0  0  0  0  0  0  0  0  0  0  0
  -14.4594  -24.4878   18.2844 C   0  0  0  0  0  0  0  0  0  0  0  0
  -13.8314  -23.4791   16.0807 C   0  0  0  0  0  0  0  0  0  0  0  0
  -13.9914  -25.9574   16.3157 C   0  0  0  0  0  0  0  0  0  0  0  0
  -28.8484  -13.5696   14.4849 C   0  0  0  0  0  0  0  0  0  0  0  0
  -19.4939  -24.1437   12.6682 C   0  0  0  0  0  0  0  0  0  0  0  0
  -23.1002  -20.2266   19.1888 C   0  0  0  0  0  0  0  0  0  1  0  0
  -16.1080  -24.5747   16.2993 C   0  0  1  0  0  0  0  0  0  0  0  0
  -16.9964  -24.1504   12.6386 C   0  0  2  0  0  0  0  0  0  0  0  0
  -14.6227  -24.6189   16.7569 C   0  0  0  0  0  0  0  0  0  0  0  0
  -25.9017  -11.6245   20.3891 N   0  0  0  0  0  0  0  0  0  0  0  0
  -26.2577  -12.9178   20.3073 N   0  0  0  0  0  0  0  0  0  0  0  0
  -24.5310  -17.3038   17.4363 N   0  0  3  0  0  0  0  0  0  0  0  0
  -18.0229  -25.2194   17.7280 N   0  0  0  0  0  0  0  0  0  0  0  0
  -29.3647  -13.1035   18.0779 N   0  0  0  0  0  0  0  0  0  0  0  0
  -25.4400  -15.1233   20.5861 N   0  0  0  0  0  0  0  0  0  0  0  0
  -21.8650  -12.5521   21.5885 N   0  0  0  0  0  0  0  0  0  0  0  0
  -18.6785  -27.0775   20.7963 N   0  0  0  0  0  0  0  0  0  0  0  0
  -16.2945  -24.7239   14.8601 N   0  0  0  0  0  0  0  0  0  0  0  0
  -28.6959  -13.8691   15.9069 N   0  0  0  0  0  0  0  0  0  0  0  0
  -18.2541  -23.6423   12.0214 N   0  3  0  0  0  0  0  0  0  0  0  0
  -22.6081  -14.7126   21.3913 O   0  0  0  0  0  0  0  0  0  0  0  0
  -17.2608  -25.3413   20.1652 O   0  0  0  0  0  0  0  0  0  0  0  0
  -16.6499  -26.8372   16.7617 O   0  0  0  0  0  0  0  0  0  0  0  0
  -17.4041  -22.7135   14.5377 O   0  0  0  0  0  0  0  0  0  0  0  0
  -30.9118  -13.4334   16.3862 O   0  0  0  0  0  0  0  0  0  0  0  0
  -21.6966   -6.9839   21.5428 O   0  0  0  0  0  0  0  0  0  0  0  0
  -21.7187  -20.5507   19.3396 O   0  0  0  0  0  0  0  0  0  1  0  0
  -16.6039   -6.7546   19.4416 F   0  0  0  0  0  0  0  0  0  0  0  0
  -21.0182   -5.0621   19.6749 F   0  0  0  0  0  0  0  0  0  0  0  0
  1  2  1  0  0  0  0
  1  5  2  0  0  0  0
  2  6  2  0  0  0  0
  3 12  2  0  0  0  0
  3 19  1  0  0  0  0
  4 13  1  0  0  0  0
  4 19  2  0  0  0  0
  5 21  1  0  0  0  0
  6 23  1  0  0  0  0
  7 14  2  0  0  0  0
  7 22  1  0  0  0  0
  8 10  2  0  0  0  0
  8 25  1  0  0  0  0
  9 11  1  0  0  0  0
  9 25  2  0  0  0  0
 10 26  1  0  0  0  0
 11 26  2  0  0  0  0
 12 27  1  0  0  0  0
 13 27  2  0  0  0  0
 14 28  1  0  0  0  0
 15 16  2  0  0  0  0
 15 29  1  0  0  0  0
 16 30  1  0  0  0  0
 17 24  1  0  0  0  0
 17 28  2  0  0  0  0
 18 30  2  0  0  0  0
 18 31  1  0  0  0  0
 19 32  1  0  0  0  0
 20 32  1  0  0  0  0
 20 33  2  0  0  0  0
 20 34  1  0  0  0  0
 21 23  2  0  0  0  0
 21 39  1  0  0  0  0
 22 24  2  0  0  0  0
 22 40  1  0  0  0  0
 23 51  1  0  0  0  0
 24 41  1  0  0  0  0
 25 67  1  0  0  0  0
 26 74  1  0  0  0  0
 27 81  1  0  0  0  0
 28 82  1  0  0  0  0
 29 31  2  0  0  0  0
 29 81  1  0  0  0  0
 30 83  1  0  0  0  0
 31 84  1  0  0  0  0
 32 65  2  0  0  0  0
 33 66  1  0  0  0  0
 33 70  1  0  0  0  0
 34 71  1  0  0  0  0
 34 76  2  0  0  0  0
 35 52  1  0  0  0  0
 35 72  1  0  0  0  0
 35 77  2  0  0  0  0
 36 62  1  0  0  0  0
 36 68  1  0  0  0  0
 36 78  2  0  0  0  0
 37 63  1  0  0  0  0
 37 73  1  0  0  0  0
 37 79  2  0  0  0  0
 38 69  1  0  0  0  0
 38 74  1  0  0  0  0
 38 80  2  0  0  0  0
 39 42  1  0  0  0  0
 40 52  1  0  0  0  0
 41 68  1  0  0  0  0
 42 44  1  0  0  0  0
 43 45  1  0  0  0  0
 43 47  1  0  0  0  0
 44 51  1  0  0  0  0
 45 54  1  0  0  0  0
 46 48  1  0  0  0  0
 46 53  1  0  0  0  0
 47 69  1  0  0  0  0
 48 67  1  0  0  0  0
 49 53  1  0  0  0  0
 49 67  1  0  0  0  0
 50 54  1  0  0  0  0
 50 69  1  0  0  0  0
 51 72  1  0  0  0  0
 52 68  1  0  0  0  0
 53 61  1  0  0  0  0
 54 66  1  0  0  0  0
 55 63  1  0  0  0  0
 56 64  1  0  0  0  0
 57 64  1  0  0  0  0
 58 64  1  0  0  0  0
 59 74  1  0  0  0  0
 60 75  1  0  0  0  0
 61 82  1  0  0  0  0
 62 64  1  0  0  0  0
 62 73  1  0  0  0  0
 63 75  1  0  0  0  0
 65 66  1  0  0  0  0
M  CHG  1  75   1
M  ISO  4  38 100  61 101  74 100  82 101
M  END
> <Batch ID>
0020

> <Smiles>
CNC(C)C(=O)NC(C(=O)N1Cc2cc([101O:1][101CH2:1]C3CCN(c4ccc([100N:0](C)[100C:0](=O)N5CCCC(n6nc(-c7ccc(Oc8ccc(F)cc8F)cc7)c(C(N)=O)c6N)C5)cc4)C3)ccc2CC1C(=O)NC1CCCc2ccccc21)C(C)(C)C

> <Shape>
0.181

> <Color>
0.188

> <Negative vol penalty>
0.000

$$$$

  -OEChem-04042321083D

 86 94  0     1  0  0  0  0  0999 V2000
  -38.3597  -30.6768   20.6150 C   0  0  0  0  0  0  0  0  0  0  0  0
  -37.4542  -29.7814   21.1751 C   0  0  0  0  0  0  0  0  0  0  0  0
  -23.0728   -9.8741   19.9326 C   0  0  0  0  0  0  0  0  0  0  0  0
  -23.8375   -9.8648   22.2244 C   0  0  0  0  0  0  0  0  0  0  0  0
  -37.9958  -31.4270   19.4975 C   0  0  0  0  0  0  0  0  0  0  0  0
  -36.1838  -29.6365   20.6187 C   0  0  0  0  0  0  0  0  0  0  0  0
  -34.7957  -24.7860   20.1823 C   0  0  0  0  0  0  0  0  0  0  0  0
  -32.6631  -17.4659   23.4755 C   0  0  0  0  0  0  0  0  0  0  0  0
  -32.0706  -16.5890   22.5670 C   0  0  0  0  0  0  0  0  0  0  0  0
  -22.3286   -8.7199   20.1761 C   0  0  0  0  0  0  0  0  0  0  0  0
  -23.0932   -8.7105   22.4680 C   0  0  0  0  0  0  0  0  0  0  0  0
  -34.3547  -24.1434   21.3384 C   0  0  0  0  0  0  0  0  0  0  0  0
  -19.8657   -7.9109   23.0717 C   0  0  0  0  0  0  0  0  0  0  0  0
  -19.1112   -7.8635   24.2438 C   0  0  0  0  0  0  0  0  0  0  0  0
  -32.0686  -24.4755   20.6437 C   0  0  0  0  0  0  0  0  0  0  0  0
  -30.4829  -18.3151   24.0778 C   0  0  0  0  0  0  0  0  0  0  0  0
  -20.3526   -5.9201   24.9644 C   0  0  0  0  0  0  0  0  0  0  0  0
  -23.8273  -10.4466   20.9567 C   0  0  0  0  0  0  0  0  0  0  0  0
  -24.1708  -12.9723   20.8533 C   0  0  0  0  0  0  0  0  0  0  0  0
  -36.7237  -31.2842   18.9213 C   0  0  0  0  0  0  0  0  0  0  0  0
  -33.8746  -25.2886   19.2520 C   0  0  0  0  0  0  0  0  0  0  0  0
  -35.8021  -30.3865   19.4933 C   0  0  0  0  0  0  0  0  0  0  0  0
  -32.5005  -25.1218   19.4754 C   0  0  0  0  0  0  0  0  0  0  0  0
  -31.8693  -18.3289   24.2310 C   0  0  0  0  0  0  0  0  0  0  0  0
  -30.6843  -16.5751   22.4137 C   0  0  0  0  0  0  0  0  0  0  0  0
  -22.3388   -8.1380   21.4438 C   0  0  0  0  0  0  0  0  0  0  0  0
  -32.9910  -23.9906   21.5706 C   0  0  0  0  0  0  0  0  0  0  0  0
  -20.8637   -6.9629   22.8458 C   0  0  0  0  0  0  0  0  0  0  0  0
  -19.3546   -6.8681   25.1902 C   0  0  0  0  0  0  0  0  0  0  0  0
  -29.8904  -17.4382   23.1691 C   0  0  0  0  0  0  0  0  0  0  0  0
  -21.1072   -5.9675   23.7921 C   0  0  0  0  0  0  0  0  0  0  0  0
  -24.5967  -11.6387   20.7056 C   0  0  0  0  0  0  0  0  0  0  0  0
  -25.2627  -13.7234   20.4930 C   0  0  0  0  0  0  0  0  0  0  0  0
  -22.9015  -13.4861   21.2784 C   0  0  0  0  0  0  0  0  0  0  0  0
  -33.1792  -28.1761   18.1195 C   0  0  0  0  0  0  0  0  0  0  0  0
  -31.2226  -26.5033   16.1457 C   0  0  0  0  0  0  0  0  0  0  0  0
  -29.4188  -23.6619   15.5806 C   0  0  0  0  0  0  0  0  0  0  0  0
  -30.7301  -14.7638   20.6635 C   0  0  0  0  0  0  0  0  0  0  0  0
  -36.3593  -32.1513   17.7424 C   0  0  0  0  0  0  0  0  0  0  0  0
  -34.3669  -25.9556   17.9969 C   0  0  0  0  0  0  0  0  0  0  0  0
  -31.4712  -25.6255   18.4980 C   0  0  0  0  0  0  0  0  0  0  0  0
  -35.1252  -31.6650   16.9869 C   0  0  0  0  0  0  0  0  0  0  0  0
  -29.6089  -12.3671   18.2810 C   0  0  0  0  0  0  0  0  0  0  0  0
  -34.0044  -31.3188   17.9620 C   0  0  0  0  0  0  0  0  0  0  0  0
  -28.1700  -12.0737   18.7115 C   0  0  0  0  0  0  0  0  0  0  0  0
  -30.5267  -12.5870   19.4823 C   0  0  0  0  0  0  0  0  0  0  0  0
  -28.6232  -13.3033   20.8725 C   0  0  0  0  0  0  0  0  0  0  0  0
  -34.4234  -30.1831   18.9034 C   0  0  1  0  0  0  0  0  0  0  0  0
  -33.3321  -26.8838   17.3683 C   0  0  1  0  0  0  0  0  0  0  0  0
  -27.6478  -13.1389   19.6955 C   0  0  2  0  0  0  0  0  0  0  0  0
  -27.8920  -22.6003   13.8955 C   0  0  0  0  0  0  0  0  0  0  0  0
  -28.9495  -28.3194   17.0648 C   0  0  0  0  0  0  0  0  0  0  0  0
  -27.3328  -26.6569   16.1210 C   0  0  0  0  0  0  0  0  0  0  0  0
  -28.9534  -27.8109   14.6162 C   0  0  0  0  0  0  0  0  0  0  0  0
  -31.2705  -21.3917   15.1608 C   0  0  0  0  0  0  0  0  0  0  0  0
  -32.5413  -21.3313   23.9679 C   0  0  0  0  0  0  0  0  0  0  0  0
  -33.4046  -22.3551   23.2469 C   0  0  0  0  0  0  0  0  0  1  0  0
  -32.5120  -19.2812   25.2161 C   0  0  1  0  0  0  0  0  0  0  0  0
  -29.7893  -26.0333   16.2079 C   0  0  1  0  0  0  0  0  0  0  0  0
  -29.3290  -22.7498   14.3704 C   0  0  2  0  0  0  0  0  0  0  0  0
  -28.7754  -27.1972   16.0220 C   0  0  0  0  0  0  0  0  0  0  0  0
  -33.2958  -18.5534   26.2982 C   0  0  0  0  0  0  0  0  0  0  0  0
  -25.8606  -11.5448   20.2840 N   0  0  0  0  0  0  0  0  0  0  0  0
  -26.2383  -12.8289   20.1637 N   0  0  0  0  0  0  0  0  0  0  0  0
  -32.0021  -26.2763   17.2888 N   0  0  0  0  0  0  0  0  0  0  0  0
  -29.9703  -13.6122   20.3679 N   0  0  0  0  0  0  0  0  0  0  0  0
  -25.4740  -15.0552   20.4287 N   0  0  0  0  0  0  0  0  0  0  0  0
  -21.8897  -12.5754   21.6115 N   0  0  0  0  0  0  0  0  0  0  0  0
  -30.0851  -15.6836   21.4896 N   0  0  0  0  0  0  0  0  0  0  0  0
  -34.3466  -28.9082   18.2229 N   0  0  0  0  0  0  0  0  0  0  0  0
  -29.6655  -24.9691   15.2177 N   0  0  0  0  0  0  0  0  0  0  0  0
  -33.3488  -20.2616   24.5372 N   0  0  0  0  0  0  0  0  0  0  0  0
  -29.8577  -21.3964   14.7015 N   0  3  0  0  0  0  0  0  0  0  0  0
  -22.6663  -14.7165   21.3447 O   0  0  0  0  0  0  0  0  0  0  0  0
  -32.0830  -28.4868   18.5705 O   0  0  0  0  0  0  0  0  0  0  0  0
  -31.6372  -27.0453   15.1182 O   0  0  0  0  0  0  0  0  0  0  0  0
  -29.2800  -23.2561   16.7323 O   0  0  0  0  0  0  0  0  0  0  0  0
  -31.8583  -14.9349   20.1947 O   0  0  0  0  0  0  0  0  0  0  0  0
  -21.6125   -7.0118   21.6819 O   0  0  0  0  0  0  0  0  0  0  0  0
  -32.5579  -23.3644   22.6985 O   0  0  0  0  0  0  0  0  0  1  0  0
  -18.6310   -6.8236   26.3165 F   0  0  0  0  0  0  0  0  0  0  0  0
  -28.5570  -17.4345   23.0290 F   0  0  0  0  0  0  0  0  0  0  0  0
  -22.0654   -5.0548   23.5813 F   0  0  0  0  0  0  0  0  0  0  0  0
  -32.4840  -17.7341   27.0060 F   0  0  0  0  0  0  0  0  0  0  0  0
  -34.2687  -17.7830   25.7615 F   0  0  0  0  0  0  0  0  0  0  0  0
  -33.8764  -19.4038   27.1710 F   0  0  0  0  0  0  0  0  0  0  0  0
  1  2  1  0  0  0  0
  1  5  2  0  0  0  0
  2  6  2  0  0  0  0
  3 10  2  0  0  0  0
  3 18  1  0  0  0  0
  4 11  1  0  0  0  0
  4 18  2  0  0  0  0
  5 20  1  0  0  0  0
  6 22  1  0  0  0  0
  7 12  2  0  0  0  0
  7 21  1  0  0  0  0
  8  9  2  0  0  0  0
  8 24  1  0  0  0  0
  9 25  1  0  0  0  0
 10 26  1  0  0  0  0
 11 26  2  0  0  0  0
 12 27  1  0  0  0  0
 13 14  2  0  0  0  0
 13 28  1  0  0  0  0
 14 29  1  0  0  0  0
 15 23  1  0  0  0  0
 15 27  2  0  0  0  0
 16 24  2  0  0  0  0
 16 30  1  0  0  0  0
 17 29  2  0  0  0  0
 17 31  1  0  0  0  0
 18 32  1  0  0  0  0
 19 32  1  0  0  0  0
 19 33  2  0  0  0  0
 19 34  1  0  0  0  0
 20 22  2  0  0  0  0
 20 39  1  0  0  0  0
 21 23  2  0  0  0  0
 21 40  1  0  0  0  0
 22 48  1  0  0  0  0
 23 41  1  0  0  0  0
 24 58  1  0  0  0  0
 25 30  2  0  0  0  0
 25 69  1  0  0  0  0
 26 79  1  0  0  0  0
 27 80  1  0  0  0  0
 28 31  2  0  0  0  0
 28 79  1  0  0  0  0
 29 81  1  0  0  0  0
 30 82  1  0  0  0  0
 31 83  1  0  0  0  0
 32 63  2  0  0  0  0
 33 64  1  0  0  0  0
 33 67  1  0  0  0  0
 34 68  1  0  0  0  0
 34 74  2  0  0  0  0
 35 49  1  0  0  0  0
 35 70  1  0  0  0  0
 35 75  2  0  0  0  0
 36 59  1  0  0  0  0
 36 65  1  0  0  0  0
 36 76  2  0  0  0  0
 37 60  1  0  0  0  0
 37 71  1  0  0  0  0
 37 77  2  0  0  0  0
 38 66  1  0  0  0  0
 38 69  1  0  0  0  0
 38 78  2  0  0  0  0
 39 42  1  0  0  0  0
 40 49  1  0  0  0  0
 41 65  1  0  0  0  0
 42 44  1  0  0  0  0
 43 45  1  0  0  0  0
 43 46  1  0  0  0  0
 44 48  1  0  0  0  0
 45 50  1  0  0  0  0
 46 66  1  0  0  0  0
 47 50  1  0  0  0  0
 47 66  1  0  0  0  0
 48 70  1  0  0  0  0
 49 65  1  0  0  0  0
 50 64  1  0  0  0  0
 51 60  1  0  0  0  0
 52 61  1  0  0  0  0
 53 61  1  0  0  0  0
 54 61  1  0  0  0  0
 55 73  1  0  0  0  0
 56 57  1  0  0  0  0
 56 72  1  0  0  0  0
 57 80  1  0  0  0  0
 58 62  1  0  0  0  0
 58 72  1  0  0  0  0
 59 61  1  0  0  0  0
 59 71  1  0  0  0  0
 60 73  1  0  0  0  0
 62 84  1  0  0  0  0
 62 85  1  0  0  0  0
 62 86  1  0  0  0  0
 63 64  1  0  0  0  0
M  CHG  1  73   1
M  ISO  4  38 100  57 101  69 100  80 101
M  END
> <Batch ID>
0020

> <Smiles>
CNC(C)C(=O)NC(C(=O)N1Cc2cc([101O:1][101CH2:1]CNC(c3ccc([100NH:0][100C:0](=O)N4CCCC(n5nc(-c6ccc(Oc7ccc(F)cc7F)cc6)c(C(N)=O)c5N)C4)c(F)c3)C(F)(F)F)ccc2CC1C(=O)NC1CCCc2ccccc21)C(C)(C)C

> <Shape>
0.186

> <Color>
0.192

> <Negative vol penalty>
0.000

$$$$

  -OEChem-04042321083D

 85 93  0     1  0  0  0  0  0999 V2000
  -27.5345  -23.7770   17.8379 C   0  0  0  0  0  0  0  0  0  0  0  0
  -26.3363  -24.2218   18.3872 C   0  0  0  0  0  0  0  0  0  0  0  0
  -28.2719  -14.4296   20.7365 C   0  0  0  0  0  0  0  0  0  0  0  0
  -26.2068  -15.1903   19.7397 C   0  0  0  0  0  0  0  0  0  0  0  0
  -21.9192  -23.1138   21.3717 C   0  0  0  0  0  0  0  0  0  0  0  0
  -28.7469  -24.1590   18.4106 C   0  0  0  0  0  0  0  0  0  0  0  0
  -26.3498  -25.0481   19.5104 C   0  0  0  0  0  0  0  0  0  0  0  0
  -23.1359  -28.9398   19.0980 C   0  0  0  0  0  0  0  0  0  0  0  0
  -23.2102  -22.5964   21.2668 C   0  0  0  0  0  0  0  0  0  0  0  0
  -27.7394  -13.1464   20.8605 C   0  0  0  0  0  0  0  0  0  0  0  0
  -25.6743  -13.9071   19.8636 C   0  0  0  0  0  0  0  0  0  0  0  0
  -21.7847  -28.6757   19.3175 C   0  0  0  0  0  0  0  0  0  0  0  0
  -24.3173  -11.9977   22.3015 C   0  0  0  0  0  0  0  0  0  0  0  0
  -23.0169  -11.8803   22.7922 C   0  0  0  0  0  0  0  0  0  0  0  0
  -21.9824  -29.5555   21.5549 C   0  0  0  0  0  0  0  0  0  0  0  0
  -23.7820  -23.5921   23.3925 C   0  0  0  0  0  0  0  0  0  0  0  0
  -22.3400  -10.8002   20.7397 C   0  0  0  0  0  0  0  0  0  0  0  0
  -27.5056  -15.4517   20.1761 C   0  0  0  0  0  0  0  0  0  0  0  0
  -21.5595  -23.8705   22.4869 C   0  0  0  0  0  0  0  0  0  0  0  0
  -28.7739  -17.2982   18.9557 C   0  0  0  0  0  0  0  0  0  0  0  0
  -28.7756  -24.9982   19.5355 C   0  0  0  0  0  0  0  0  0  0  0  0
  -23.9244  -29.5047   20.1107 C   0  0  0  0  0  0  0  0  0  0  0  0
  -27.5637  -25.4406   20.0995 C   0  0  0  0  0  0  0  0  0  0  0  0
  -23.3427  -29.8282   21.3449 C   0  0  0  0  0  0  0  0  0  0  0  0
  -22.4909  -24.1096   23.4974 C   0  0  0  0  0  0  0  0  0  0  0  0
  -24.1416  -22.8355   22.2772 C   0  0  0  0  0  0  0  0  0  0  0  0
  -26.4406  -12.8851   20.4240 C   0  0  0  0  0  0  0  0  0  0  0  0
  -21.2084  -28.9809   20.5471 C   0  0  0  0  0  0  0  0  0  0  0  0
  -24.6291  -11.5164   21.0300 C   0  0  0  0  0  0  0  0  0  0  0  0
  -22.0283  -11.2815   22.0113 C   0  0  0  0  0  0  0  0  0  0  0  0
  -23.6405  -10.9176   20.2491 C   0  0  0  0  0  0  0  0  0  0  0  0
  -28.0549  -16.7776   20.0483 C   0  0  0  0  0  0  0  0  0  0  0  0
  -29.0706  -18.5879   19.3231 C   0  0  0  0  0  0  0  0  0  0  0  0
  -20.2261  -24.3879   22.5662 C   0  0  0  0  0  0  0  0  0  0  0  0
  -19.8430  -25.5660   22.0542 C   0  0  0  0  0  0  0  0  0  0  0  0
  -29.1406  -16.6720   17.7192 C   0  0  0  0  0  0  0  0  0  0  0  0
  -26.4872  -28.5702   21.7424 C   0  0  0  0  0  0  0  0  0  0  0  0
  -26.3463  -31.5842   22.9335 C   0  0  0  0  0  0  0  0  0  0  0  0
  -18.3010  -27.4822   22.1096 C   0  0  0  0  0  0  0  0  0  0  0  0
  -24.4601  -34.3465   23.6108 C   0  0  0  0  0  0  0  0  0  0  0  0
  -26.4986  -22.4562   23.0816 C   0  0  0  0  0  0  0  0  0  0  0  0
  -30.1092  -25.3459   20.1480 C   0  0  0  0  0  0  0  0  0  0  0  0
  -25.3742  -29.8081   19.8490 C   0  0  0  0  0  0  0  0  0  0  0  0
  -24.1411  -30.4544   22.4580 C   0  0  0  0  0  0  0  0  0  0  0  0
  -30.0471  -26.5278   21.1120 C   0  0  0  0  0  0  0  0  0  0  0  0
  -29.8609  -21.2905   23.1969 C   0  0  0  0  0  0  0  0  0  0  0  0
  -28.8672  -26.3765   22.0669 C   0  0  0  0  0  0  0  0  0  0  0  0
  -29.8461  -20.0518   22.2983 C   0  0  0  0  0  0  0  0  0  0  0  0
  -28.5665  -21.4262   23.9969 C   0  0  0  0  0  0  0  0  0  0  0  0
  -27.3207  -20.1482   22.2987 C   0  0  0  0  0  0  0  0  0  0  0  0
  -27.5379  -26.3581   21.3026 C   0  0  1  0  0  0  0  0  0  0  0  0
  -26.2031  -29.9106   21.1257 C   0  0  1  0  0  0  0  0  0  0  0  0
  -28.5773  -20.0044   21.4246 C   0  0  2  0  0  0  0  0  0  0  0  0
  -22.1405  -24.9153   24.7068 C   0  0  0  0  0  0  0  0  0  0  0  0
  -24.6149  -36.6382   24.6215 C   0  0  0  0  0  0  0  0  0  0  0  0
  -26.3765  -30.3490   25.7233 C   0  0  0  0  0  0  0  0  0  0  0  0
  -25.5836  -32.5446   26.6281 C   0  0  0  0  0  0  0  0  0  0  0  0
  -27.7901  -32.3969   25.4738 C   0  0  0  0  0  0  0  0  0  0  0  0
  -17.4697  -25.1536   22.0892 C   0  0  0  0  0  0  0  0  0  0  0  0
  -23.6770  -35.6467   21.0700 C   0  0  0  0  0  0  0  0  0  0  0  0
  -19.4992  -28.4200   22.1027 C   0  0  0  0  0  0  0  0  0  1  0  0
  -25.6658  -32.2372   24.1122 C   0  0  1  0  0  0  0  0  0  0  0  0
  -24.7004  -35.8211   23.3418 C   0  0  2  0  0  0  0  0  0  0  0  0
  -26.3391  -31.8683   25.4643 C   0  0  0  0  0  0  0  0  0  0  0  0
  -27.9042  -17.6641   21.0359 N   0  0  0  0  0  0  0  0  0  0  0  0
  -28.5326  -18.7548   20.5653 N   0  0  0  0  0  0  0  0  0  0  0  0
  -25.5561  -30.7260   22.1556 N   0  0  0  0  0  0  0  0  0  0  0  0
  -27.4074  -21.3771   23.1031 N   0  0  0  0  0  0  0  0  0  0  0  0
  -29.7367  -19.5842   18.7017 N   0  0  0  0  0  0  0  0  0  0  0  0
  -28.7554  -15.3417   17.5039 N   0  0  0  0  0  0  0  0  0  0  0  0
  -25.4539  -22.3121   22.1692 N   0  0  0  0  0  0  0  0  0  0  0  0
  -27.1627  -27.6993   20.9090 N   0  0  0  0  0  0  0  0  0  0  0  0
  -25.6406  -33.6679   23.8279 N   0  0  0  0  0  0  0  0  0  0  0  0
  -18.5779  -26.1080   22.0845 N   0  0  0  0  0  0  0  0  0  0  0  0
  -23.6879  -36.3442   22.3816 N   0  3  0  0  0  0  0  0  0  0  0  0
  -29.8048  -17.2690   16.8383 O   0  0  0  0  0  0  0  0  0  0  0  0
  -26.1221  -28.3436   22.8900 O   0  0  0  0  0  0  0  0  0  0  0  0
  -27.5332  -31.8322   22.7069 O   0  0  0  0  0  0  0  0  0  0  0  0
  -17.1578  -27.9473   22.1366 O   0  0  0  0  0  0  0  0  0  0  0  0
  -23.3371  -33.8474   23.6302 O   0  0  0  0  0  0  0  0  0  0  0  0
  -26.6520  -23.4482   23.7988 O   0  0  0  0  0  0  0  0  0  0  0  0
  -25.9208  -11.6330   20.5446 O   0  0  0  0  0  0  0  0  0  0  0  0
  -19.8898  -28.7235   20.7642 O   0  0  0  0  0  0  0  0  0  1  0  0
  -20.7799  -11.1674   22.4832 F   0  0  0  0  0  0  0  0  0  0  0  0
  -23.9343  -10.4523   19.0272 F   0  0  0  0  0  0  0  0  0  0  0  0
  1  2  1  0  0  0  0
  1  6  2  0  0  0  0
  2  7  2  0  0  0  0
  3 10  2  0  0  0  0
  3 18  1  0  0  0  0
  4 11  1  0  0  0  0
  4 18  2  0  0  0  0
  5  9  2  0  0  0  0
  5 19  1  0  0  0  0
  6 21  1  0  0  0  0
  7 23  1  0  0  0  0
  8 12  2  0  0  0  0
  8 22  1  0  0  0  0
  9 26  1  0  0  0  0
 10 27  1  0  0  0  0
 11 27  2  0  0  0  0
 12 28  1  0  0  0  0
 13 14  2  0  0  0  0
 13 29  1  0  0  0  0
 14 30  1  0  0  0  0
 15 24  1  0  0  0  0
 15 28  2  0  0  0  0
 16 25  1  0  0  0  0
 16 26  2  0  0  0  0
 17 30  2  0  0  0  0
 17 31  1  0  0  0  0
 18 32  1  0  0  0  0
 19 25  2  0  0  0  0
 19 34  1  0  0  0  0
 20 32  1  0  0  0  0
 20 33  2  0  0  0  0
 20 36  1  0  0  0  0
 21 23  2  0  0  0  0
 21 42  1  0  0  0  0
 22 24  2  0  0  0  0
 22 43  1  0  0  0  0
 23 51  1  0  0  0  0
 24 44  1  0  0  0  0
 25 54  1  0  0  0  0
 26 71  1  0  0  0  0
 27 82  1  0  0  0  0
 28 83  1  0  0  0  0
 29 31  2  0  0  0  0
 29 82  1  0  0  0  0
 30 84  1  0  0  0  0
 31 85  1  0  0  0  0
 32 65  2  0  0  0  0
 33 66  1  0  0  0  0
 33 69  1  0  0  0  0
 34 35  2  0  0  0  0
 35 74  1  0  0  0  0
 36 70  1  0  0  0  0
 36 76  2  0  0  0  0
 37 52  1  0  0  0  0
 37 72  1  0  0  0  0
 37 77  2  0  0  0  0
 38 62  1  0  0  0  0
 38 67  1  0  0  0  0
 38 78  2  0  0  0  0
 39 61  1  0  0  0  0
 39 74  1  0  0  0  0
 39 79  2  0  0  0  0
 40 63  1  0  0  0  0
 40 73  1  0  0  0  0
 40 80  2  0  0  0  0
 41 68  1  0  0  0  0
 41 71  1  0  0  0  0
 41 81  2  0  0  0  0
 42 45  1  0  0  0  0
 43 52  1  0  0  0  0
 44 67  1  0  0  0  0
 45 47  1  0  0  0  0
 46 48  1  0  0  0  0
 46 49  1  0  0  0  0
 47 51  1  0  0  0  0
 48 53  1  0  0  0  0
 49 68  1  0  0  0  0
 50 53  1  0  0  0  0
 50 68  1  0  0  0  0
 51 72  1  0  0  0  0
 52 67  1  0  0  0  0
 53 66  1  0  0  0  0
 55 63  1  0  0  0  0
 56 64  1  0  0  0  0
 57 64  1  0  0  0  0
 58 64  1  0  0  0  0
 59 74  1  0  0  0  0
 60 75  1  0  0  0  0
 61 83  1  0  0  0  0
 62 64  1  0  0  0  0
 62 73  1  0  0  0  0
 63 75  1  0  0  0  0
 65 66  1  0  0  0  0
M  CHG  1  75   1
M  ISO  4  41 100  61 101  71 100  83 101
M  END
> <Batch ID>
0020

> <Smiles>
CNC(C)C(=O)NC(C(=O)N1Cc2cc([101O:1][101CH2:1]C(=O)N(C)C=Cc3ccc([100NH:0][100C:0](=O)N4CCCC(n5nc(-c6ccc(Oc7ccc(F)cc7F)cc6)c(C(N)=O)c5N)C4)cc3C)ccc2CC1C(=O)NC1CCCc2ccccc21)C(C)(C)C

> <Shape>
0.317

> <Color>
0.071

> <Negative vol penalty>
0.000

$$$$

  -OEChem-04042321083D

 83 91  0     1  0  0  0  0  0999 V2000
  -28.3774  -31.9611   26.3316 C   0  0  0  0  0  0  0  0  0  0  0  0
  -28.9365  -30.9407   25.5689 C   0  0  0  0  0  0  0  0  0  0  0  0
  -23.2194   -9.8513   22.7831 C   0  0  0  0  0  0  0  0  0  0  0  0
  -23.3372  -10.0000   20.3746 C   0  0  0  0  0  0  0  0  0  0  0  0
  -26.9962  -32.0175   26.5133 C   0  0  0  0  0  0  0  0  0  0  0  0
  -28.1146  -29.9754   24.9883 C   0  0  0  0  0  0  0  0  0  0  0  0
  -28.9473  -27.1905   19.5979 C   0  0  0  0  0  0  0  0  0  0  0  0
  -28.6579  -19.0286   17.3547 C   0  0  0  0  0  0  0  0  0  0  0  0
  -27.9309  -18.3385   18.3247 C   0  0  0  0  0  0  0  0  0  0  0  0
  -22.5212   -8.6487   22.6747 C   0  0  0  0  0  0  0  0  0  0  0  0
  -22.6390   -8.7973   20.2662 C   0  0  0  0  0  0  0  0  0  0  0  0
  -29.4815  -25.9488   19.2563 C   0  0  0  0  0  0  0  0  0  0  0  0
  -23.2340   -5.4011   22.0597 C   0  0  0  0  0  0  0  0  0  0  0  0
  -23.6231   -4.3487   22.8883 C   0  0  0  0  0  0  0  0  0  0  0  0
  -27.2573  -25.0175   19.1880 C   0  0  0  0  0  0  0  0  0  0  0  0
  -26.1964  -20.0170   18.2188 C   0  0  0  0  0  0  0  0  0  0  0  0
  -21.4140   -4.3012   23.8653 C   0  0  0  0  0  0  0  0  0  0  0  0
  -23.6274  -10.5270   21.6330 C   0  0  0  0  0  0  0  0  0  0  0  0
  -25.7436  -11.9389   21.8229 C   0  0  0  0  0  0  0  0  0  0  0  0
  -26.1562  -31.0579   25.9267 C   0  0  0  0  0  0  0  0  0  0  0  0
  -27.5626  -27.3526   19.7481 C   0  0  0  0  0  0  0  0  0  0  0  0
  -26.7209  -30.0182   25.1635 C   0  0  0  0  0  0  0  0  0  0  0  0
  -26.7079  -26.2629   19.5291 C   0  0  0  0  0  0  0  0  0  0  0  0
  -28.1542  -20.2130   16.8168 C   0  0  0  0  0  0  0  0  0  0  0  0
  -26.7001  -18.8327   18.7567 C   0  0  0  0  0  0  0  0  0  0  0  0
  -22.2310   -8.1217   21.4163 C   0  0  0  0  0  0  0  0  0  0  0  0
  -28.6367  -24.8614   19.0541 C   0  0  0  0  0  0  0  0  0  0  0  0
  -21.9349   -5.9037   22.1340 C   0  0  0  0  0  0  0  0  0  0  0  0
  -22.7131   -3.7987   23.7910 C   0  0  0  0  0  0  0  0  0  0  0  0
  -26.9234  -20.7071   17.2488 C   0  0  0  0  0  0  0  0  0  0  0  0
  -21.0249   -5.3537   23.0367 C   0  0  0  0  0  0  0  0  0  0  0  0
  -24.3482  -11.7696   21.7443 C   0  0  0  0  0  0  0  0  0  0  0  0
  -25.9200  -13.2979   21.9145 C   0  0  0  0  0  0  0  0  0  0  0  0
  -26.7870  -10.9556   21.8136 C   0  0  0  0  0  0  0  0  0  0  0  0
  -25.6472  -28.1697   22.1497 C   0  0  0  0  0  0  0  0  0  0  0  0
  -23.3688  -28.1017   19.8418 C   0  0  0  0  0  0  0  0  0  0  0  0
  -22.3527  -26.9145   16.8078 C   0  0  0  0  0  0  0  0  0  0  0  0
  -24.7258  -18.4857   20.2825 C   0  0  0  0  0  0  0  0  0  0  0  0
  -24.6731  -31.1330   26.1904 C   0  0  0  0  0  0  0  0  0  0  0  0
  -27.0002  -28.7049   20.0909 C   0  0  0  0  0  0  0  0  0  0  0  0
  -25.2126  -26.3893   19.6581 C   0  0  0  0  0  0  0  0  0  0  0  0
  -23.8403  -30.2865   25.2312 C   0  0  0  0  0  0  0  0  0  0  0  0
  -22.5683  -17.0090   22.6993 C   0  0  0  0  0  0  0  0  0  0  0  0
  -24.4459  -28.8941   25.0847 C   0  0  0  0  0  0  0  0  0  0  0  0
  -22.9538  -15.5282   22.6728 C   0  0  0  0  0  0  0  0  0  0  0  0
  -22.6278  -17.6356   21.3074 C   0  0  0  0  0  0  0  0  0  0  0  0
  -24.2845  -15.9681   20.5698 C   0  0  0  0  0  0  0  0  0  0  0  0
  -25.8604  -28.9668   24.4970 C   0  0  1  0  0  0  0  0  0  0  0  0
  -25.6126  -28.6328   20.7207 C   0  0  1  0  0  0  0  0  0  0  0  0
  -24.3022  -15.3096   21.9590 C   0  0  2  0  0  0  0  0  0  0  0  0
  -20.4269  -27.0054   15.2014 C   0  0  0  0  0  0  0  0  0  0  0  0
  -21.7874  -26.2051   21.6341 C   0  0  0  0  0  0  0  0  0  0  0  0
  -20.3946  -25.5977   19.6443 C   0  0  0  0  0  0  0  0  0  0  0  0
  -20.4088  -27.9464   20.4844 C   0  0  0  0  0  0  0  0  0  0  0  0
  -24.0340  -28.0972   14.6786 C   0  0  0  0  0  0  0  0  0  0  0  0
  -29.5243  -23.2417   14.9909 C   0  0  0  0  0  0  0  0  0  0  0  0
  -28.9385  -20.9511   15.7723 C   0  0  0  0  0  0  0  0  0  0  0  0
  -30.4500  -22.3835   17.1377 C   0  0  0  0  0  0  0  0  0  0  0  0
  -30.3721  -23.6446   17.9755 C   0  0  0  0  0  0  0  0  0  1  0  0
  -22.4438  -27.0473   19.2834 C   0  0  1  0  0  0  0  0  0  0  0  0
  -21.7620  -27.6161   15.5981 C   0  0  2  0  0  0  0  0  0  0  0  0
  -21.2869  -26.6960   20.2609 C   0  0  0  0  0  0  0  0  0  0  0  0
  -23.6853  -12.9285   21.7829 N   0  0  0  0  0  0  0  0  0  0  0  0
  -24.6683  -13.8390   21.8868 N   0  0  0  0  0  0  0  0  0  0  0  0
  -24.7114  -27.7305   20.0011 N   0  0  0  0  0  0  0  0  0  0  0  0
  -23.9353  -17.3920   20.6943 N   0  0  0  0  0  0  0  0  0  0  0  0
  -27.0221  -14.0710   22.0155 N   0  0  0  0  0  0  0  0  0  0  0  0
  -26.4304   -9.6039   21.7135 N   0  0  0  0  0  0  0  0  0  0  0  0
  -25.9625  -18.1327   19.7435 N   0  0  0  0  0  0  0  0  0  0  0  0
  -25.8033  -29.1901   23.0683 N   0  0  0  0  0  0  0  0  0  0  0  0
  -21.9994  -27.5407   17.9844 N   0  0  0  0  0  0  0  0  0  0  0  0
  -22.6894  -27.5139   14.4360 N   0  3  0  0  0  0  0  0  0  0  0  0
  -29.3070  -22.3531   16.1906 N   0  3  1  0  0  0  0  0  0  0  0  0
  -27.9988  -11.2654   21.9084 O   0  0  0  0  0  0  0  0  0  0  0  0
  -25.5388  -26.9751   22.4004 O   0  0  0  0  0  0  0  0  0  0  0  0
  -22.9181  -29.2158   20.1195 O   0  0  0  0  0  0  0  0  0  0  0  0
  -23.0540  -25.9092   16.7182 O   0  0  0  0  0  0  0  0  0  0  0  0
  -24.3459  -19.6509   20.4244 O   0  0  0  0  0  0  0  0  0  0  0  0
  -21.5499   -6.9481   21.3101 O   0  0  0  0  0  0  0  0  0  0  0  0
  -29.1555  -23.6482   18.7212 O   0  0  0  0  0  0  0  0  0  1  0  0
  -23.0865   -2.7870   24.5856 F   0  0  0  0  0  0  0  0  0  0  0  0
  -26.4311  -21.8442   16.7378 F   0  0  0  0  0  0  0  0  0  0  0  0
  -19.7751   -5.8314   23.1118 F   0  0  0  0  0  0  0  0  0  0  0  0
  1  2  1  0  0  0  0
  1  5  2  0  0  0  0
  2  6  2  0  0  0  0
  3 10  2  0  0  0  0
  3 18  1  0  0  0  0
  4 11  1  0  0  0  0
  4 18  2  0  0  0  0
  5 20  1  0  0  0  0
  6 22  1  0  0  0  0
  7 12  2  0  0  0  0
  7 21  1  0  0  0  0
  8  9  2  0  0  0  0
  8 24  1  0  0  0  0
  9 25  1  0  0  0  0
 10 26  1  0  0  0  0
 11 26  2  0  0  0  0
 12 27  1  0  0  0  0
 13 14  2  0  0  0  0
 13 28  1  0  0  0  0
 14 29  1  0  0  0  0
 15 23  1  0  0  0  0
 15 27  2  0  0  0  0
 16 25  2  0  0  0  0
 16 30  1  0  0  0  0
 17 29  2  0  0  0  0
 17 31  1  0  0  0  0
 18 32  1  0  0  0  0
 19 32  1  0  0  0  0
 19 33  2  0  0  0  0
 19 34  1  0  0  0  0
 20 22  2  0  0  0  0
 20 39  1  0  0  0  0
 21 23  2  0  0  0  0
 21 40  1  0  0  0  0
 22 48  1  0  0  0  0
 23 41  1  0  0  0  0
 24 30  2  0  0  0  0
 24 57  1  0  0  0  0
 25 69  1  0  0  0  0
 26 79  1  0  0  0  0
 27 80  1  0  0  0  0
 28 31  2  0  0  0  0
 28 79  1  0  0  0  0
 29 81  1  0  0  0  0
 30 82  1  0  0  0  0
 31 83  1  0  0  0  0
 32 63  2  0  0  0  0
 33 64  1  0  0  0  0
 33 67  1  0  0  0  0
 34 68  1  0  0  0  0
 34 74  2  0  0  0  0
 35 49  1  0  0  0  0
 35 70  1  0  0  0  0
 35 75  2  0  0  0  0
 36 60  1  0  0  0  0
 36 65  1  0  0  0  0
 36 76  2  0  0  0  0
 37 61  1  0  0  0  0
 37 71  1  0  0  0  0
 37 77  2  0  0  0  0
 38 66  1  0  0  0  0
 38 69  1  0  0  0  0
 38 78  2  0  0  0  0
 39 42  1  0  0  0  0
 40 49  1  0  0  0  0
 41 65  1  0  0  0  0
 42 44  1  0  0  0  0
 43 45  1  0  0  0  0
 43 46  1  0  0  0  0
 44 48  1  0  0  0  0
 45 50  1  0  0  0  0
 46 66  1  0  0  0  0
 47 50  1  0  0  0  0
 47 66  1  0  0  0  0
 48 70  1  0  0  0  0
 49 65  1  0  0  0  0
 50 64  1  0  0  0  0
 51 61  1  0  0  0  0
 52 62  1  0  0  0  0
 53 62  1  0  0  0  0
 54 62  1  0  0  0  0
 55 72  1  0  0  0  0
 56 73  1  0  0  0  0
 57 73  1  0  0  0  0
 58 59  1  0  0  0  0
 58 73  1  0  0  0  0
 59 80  1  0  0  0  0
 60 62  1  0  0  0  0
 60 71  1  0  0  0  0
 61 72  1  0  0  0  0
 63 64  1  0  0  0  0
M  CHG  2  72   1  73   1
M  ISO  4  38 100  59 101  69 100  80 101
M  END
> <Batch ID>
0020

> <Smiles>
CNC(C)C(=O)NC(C(=O)N1Cc2cc([101O:1][101CH2:1]CN(C)Cc3ccc([100NH:0][100C:0](=O)N4CCCC(n5nc(-c6ccc(Oc7ccc(F)cc7F)cc6)c(C(N)=O)c5N)C4)cc3F)ccc2CC1C(=O)NC1CCCc2ccccc21)C(C)(C)C

> <Shape>
0.236

> <Color>
0.068

> <Negative vol penalty>
0.000

$$$$

  -OEChem-04042321083D

 83 91  0     1  0  0  0  0  0999 V2000
  -29.7535  -22.8540   16.7104 C   0  0  0  0  0  0  0  0  0  0  0  0
  -28.9454  -22.4290   17.7600 C   0  0  0  0  0  0  0  0  0  0  0  0
  -26.2565  -13.1698   21.7981 C   0  0  0  0  0  0  0  0  0  0  0  0
  -25.9386  -13.5493   19.4334 C   0  0  0  0  0  0  0  0  0  0  0  0
  -30.0767  -24.2043   16.5835 C   0  0  0  0  0  0  0  0  0  0  0  0
  -28.4609  -23.3541   18.6841 C   0  0  0  0  0  0  0  0  0  0  0  0
  -23.5540  -22.6673   19.7305 C   0  0  0  0  0  0  0  0  0  0  0  0
  -27.6586  -20.3391   23.6779 C   0  0  0  0  0  0  0  0  0  0  0  0
  -26.2714  -20.3944   23.8129 C   0  0  0  0  0  0  0  0  0  0  0  0
  -24.9914  -12.5872   21.8747 C   0  0  0  0  0  0  0  0  0  0  0  0
  -24.6736  -12.9666   19.5099 C   0  0  0  0  0  0  0  0  0  0  0  0
  -23.2285  -21.6326   20.6065 C   0  0  0  0  0  0  0  0  0  0  0  0
  -21.7772  -13.6228   22.0166 C   0  0  0  0  0  0  0  0  0  0  0  0
  -20.9550  -13.9978   23.0791 C   0  0  0  0  0  0  0  0  0  0  0  0
  -23.0074  -23.2295   22.4010 C   0  0  0  0  0  0  0  0  0  0  0  0
  -27.7276  -18.4370   25.1661 C   0  0  0  0  0  0  0  0  0  0  0  0
  -20.8760  -11.7022   23.8282 C   0  0  0  0  0  0  0  0  0  0  0  0
  -26.7301  -13.6509   20.5774 C   0  0  0  0  0  0  0  0  0  0  0  0
  -29.2568  -13.6047   20.2295 C   0  0  0  0  0  0  0  0  0  0  0  0
  -29.5881  -25.1478   17.5009 C   0  0  0  0  0  0  0  0  0  0  0  0
  -23.6194  -23.9918   20.1864 C   0  0  0  0  0  0  0  0  0  0  0  0
  -28.7790  -24.7181   18.5702 C   0  0  0  0  0  0  0  0  0  0  0  0
  -23.3314  -24.2795   21.5282 C   0  0  0  0  0  0  0  0  0  0  0  0
  -28.3867  -19.3604   24.3545 C   0  0  0  0  0  0  0  0  0  0  0  0
  -25.6123  -19.4710   24.6245 C   0  0  0  0  0  0  0  0  0  0  0  0
  -24.2000  -12.4856   20.7306 C   0  0  0  0  0  0  0  0  0  0  0  0
  -22.9579  -21.9133   21.9425 C   0  0  0  0  0  0  0  0  0  0  0  0
  -22.1487  -12.2875   21.8598 C   0  0  0  0  0  0  0  0  0  0  0  0
  -20.5044  -13.0375   23.9850 C   0  0  0  0  0  0  0  0  0  0  0  0
  -21.6982  -11.3272   22.7656 C   0  0  0  0  0  0  0  0  0  0  0  0
  -26.3404  -18.4923   25.3011 C   0  0  0  0  0  0  0  0  0  0  0  0
  -28.0365  -14.2533   20.4978 C   0  0  0  0  0  0  0  0  0  0  0  0
  -30.1939  -14.6084   20.2638 C   0  0  0  0  0  0  0  0  0  0  0  0
  -29.5198  -12.2190   19.9723 C   0  0  0  0  0  0  0  0  0  0  0  0
  -25.9078  -26.1902   20.3707 C   0  0  0  0  0  0  0  0  0  0  0  0
  -23.4608  -28.0963   21.3201 C   0  0  0  0  0  0  0  0  0  0  0  0
  -20.3522  -28.3458   22.7061 C   0  0  0  0  0  0  0  0  0  0  0  0
  -30.4601  -19.7272   23.0286 C   0  0  0  0  0  0  0  0  0  0  0  0
  -30.0032  -26.5898   17.3499 C   0  0  0  0  0  0  0  0  0  0  0  0
  -23.9458  -25.0997   19.2229 C   0  0  0  0  0  0  0  0  0  0  0  0
  -23.3683  -25.6870   22.0630 C   0  0  0  0  0  0  0  0  0  0  0  0
  -29.1424  -27.5591   18.1559 C   0  0  0  0  0  0  0  0  0  0  0  0
  -30.6992  -19.2977   19.5071 C   0  0  0  0  0  0  0  0  0  0  0  0
  -28.9453  -27.0426   19.5776 C   0  0  0  0  0  0  0  0  0  0  0  0
  -30.1468  -17.8831   19.3357 C   0  0  0  0  0  0  0  0  0  0  0  0
  -29.9285  -20.0890   20.5643 C   0  0  0  0  0  0  0  0  0  0  0  0
  -29.2792  -17.9902   21.7036 C   0  0  0  0  0  0  0  0  0  0  0  0
  -28.2138  -25.6948   19.5785 C   0  0  1  0  0  0  0  0  0  0  0  0
  -24.4863  -26.3497   19.9105 C   0  0  1  0  0  0  0  0  0  0  0  0
  -30.0712  -17.1522   20.6879 C   0  0  1  0  0  0  0  0  0  0  0  0
  -18.6297  -30.0383   23.3887 C   0  0  0  0  0  0  0  0  0  0  0  0
  -25.1227  -28.7909   23.7830 C   0  0  0  0  0  0  0  0  0  0  0  0
  -23.0409  -29.6825   24.8504 C   0  0  0  0  0  0  0  0  0  0  0  0
  -23.9143  -30.7268   22.7601 C   0  0  0  0  0  0  0  0  0  0  0  0
  -30.6316  -19.0300   25.4077 C   0  0  0  0  0  0  0  0  0  0  0  0
  -23.6160  -20.3737   25.7907 C   0  0  0  0  0  0  0  0  0  0  0  0
  -18.3500  -27.2359   20.8304 C   0  0  0  0  0  0  0  0  0  0  0  0
  -23.3452  -18.8477   23.8296 C   0  0  0  0  0  0  0  0  0  0  0  0
  -23.2030  -19.6218   22.5298 C   0  0  0  0  0  0  0  0  0  1  0  0
  -22.8303  -28.4455   22.6466 C   0  0  1  0  0  0  0  0  0  0  0  0
  -19.1182  -29.1200   22.2792 C   0  0  2  0  0  0  0  0  0  0  0  0
  -23.7282  -29.3846   23.5007 C   0  0  0  0  0  0  0  0  0  0  0  0
  -28.1820  -15.5673   20.6886 N   0  0  0  0  0  0  0  0  0  0  0  0
  -29.5048  -15.7525   20.5401 N   0  0  0  0  0  0  0  0  0  0  0  0
  -23.6986  -26.7350   21.0832 N   0  0  0  0  0  0  0  0  0  0  0  0
  -29.8477  -19.3351   21.8233 N   0  0  0  0  0  0  0  0  0  0  0  0
  -31.5318  -14.6150   20.0843 N   0  0  0  0  0  0  0  0  0  0  0  0
  -28.4422  -11.3229   19.9741 N   0  0  0  0  0  0  0  0  0  0  0  0
  -26.7969  -25.8887   19.3568 N   0  0  0  0  0  0  0  0  0  0  0  0
  -21.5133  -28.9936   22.3408 N   0  0  0  0  0  0  0  0  0  0  0  0
  -29.8229  -19.3039   24.2149 N   0  0  0  0  0  0  0  0  0  0  0  0
  -24.2182  -19.5522   24.7403 N   0  0  3  0  0  0  0  0  0  0  0  0
  -18.0151  -28.1824   21.9255 N   0  3  0  0  0  0  0  0  0  0  0  0
  -30.6783  -11.7856   19.7637 O   0  0  0  0  0  0  0  0  0  0  0  0
  -26.1781  -26.3318   21.5575 O   0  0  0  0  0  0  0  0  0  0  0  0
  -23.7259  -28.9976   20.5206 O   0  0  0  0  0  0  0  0  0  0  0  0
  -20.2922  -27.2754   23.3071 O   0  0  0  0  0  0  0  0  0  0  0  0
  -31.5092  -20.3822   23.0441 O   0  0  0  0  0  0  0  0  0  0  0  0
  -22.9656  -11.9169   20.8048 O   0  0  0  0  0  0  0  0  0  0  0  0
  -22.6406  -20.9052   22.7998 O   0  0  0  0  0  0  0  0  0  1  0  0
  -19.7162  -13.3980   25.0062 F   0  0  0  0  0  0  0  0  0  0  0  0
  -22.0527  -10.0430   22.6208 F   0  0  0  0  0  0  0  0  0  0  0  0
  -25.5634  -17.3295   26.3151 Cl  0  0  0  0  0  0  0  0  0  0  0  0
  1  2  1  0  0  0  0
  1  5  2  0  0  0  0
  2  6  2  0  0  0  0
  3 10  2  0  0  0  0
  3 18  1  0  0  0  0
  4 11  1  0  0  0  0
  4 18  2  0  0  0  0
  5 20  1  0  0  0  0
  6 22  1  0  0  0  0
  7 12  2  0  0  0  0
  7 21  1  0  0  0  0
  8  9  2  0  0  0  0
  8 24  1  0  0  0  0
  9 25  1  0  0  0  0
 10 26  1  0  0  0  0
 11 26  2  0  0  0  0
 12 27  1  0  0  0  0
 13 14  2  0  0  0  0
 13 28  1  0  0  0  0
 14 29  1  0  0  0  0
 15 23  1  0  0  0  0
 15 27  2  0  0  0  0
 16 24  2  0  0  0  0
 16 31  1  0  0  0  0
 17 29  2  0  0  0  0
 17 30  1  0  0  0  0
 18 32  1  0  0  0  0
 19 32  1  0  0  0  0
 19 33  2  0  0  0  0
 19 34  1  0  0  0  0
 20 22  2  0  0  0  0
 20 39  1  0  0  0  0
 21 23  2  0  0  0  0
 21 40  1  0  0  0  0
 22 48  1  0  0  0  0
 23 41  1  0  0  0  0
 24 71  1  0  0  0  0
 25 31  2  0  0  0  0
 25 72  1  0  0  0  0
 26 79  1  0  0  0  0
 27 80  1  0  0  0  0
 28 30  2  0  0  0  0
 28 79  1  0  0  0  0
 29 81  1  0  0  0  0
 30 82  1  0  0  0  0
 31 83  1  0  0  0  0
 32 63  2  0  0  0  0
 33 64  1  0  0  0  0
 33 67  1  0  0  0  0
 34 68  1  0  0  0  0
 34 74  2  0  0  0  0
 35 49  1  0  0  0  0
 35 69  1  0  0  0  0
 35 75  2  0  0  0  0
 36 60  1  0  0  0  0
 36 65  1  0  0  0  0
 36 76  2  0  0  0  0
 37 61  1  0  0  0  0
 37 70  1  0  0  0  0
 37 77  2  0  0  0  0
 38 66  1  0  0  0  0
 38 71  1  0  0  0  0
 38 78  2  0  0  0  0
 39 42  1  0  0  0  0
 40 49  1  0  0  0  0
 41 65  1  0  0  0  0
 42 44  1  0  0  0  0
 43 45  1  0  0  0  0
 43 46  1  0  0  0  0
 44 48  1  0  0  0  0
 45 50  1  0  0  0  0
 46 66  1  0  0  0  0
 47 50  1  0  0  0  0
 47 66  1  0  0  0  0
 48 69  1  0  0  0  0
 49 65  1  0  0  0  0
 50 64  1  0  0  0  0
 51 61  1  0  0  0  0
 52 62  1  0  0  0  0
 53 62  1  0  0  0  0
 54 62  1  0  0  0  0
 55 71  1  0  0  0  0
 56 72  1  0  0  0  0
 57 73  1  0  0  0  0
 58 59  1  0  0  0  0
 58 72  1  0  0  0  0
 59 80  1  0  0  0  0
 60 62  1  0  0  0  0
 60 70  1  0  0  0  0
 61 73  1  0  0  0  0
 63 64  1  0  0  0  0
M  CHG  1  73   1
M  ISO  4  38 100  59 101  71 100  80 101
M  END
> <Batch ID>
0020

> <Smiles>
CNC(C)C(=O)NC(C(=O)N1Cc2cc([101O:1][101CH2:1]CN(C)c3ccc([100N:0](C)[100C:0](=O)N4CCCC(n5nc(-c6ccc(Oc7ccc(F)cc7F)cc6)c(C(N)=O)c5N)C4)cc3Cl)ccc2CC1C(=O)NC1CCCc2ccccc21)C(C)(C)C

> <Shape>
0.236

> <Color>
0.052

> <Negative vol penalty>
0.000

$$$$

  -OEChem-04042321083D

 83 91  0     1  0  0  0  0  0999 V2000
  -22.0028  -11.8184   20.3339 C   0  0  0  0  0  0  0  0  0  0  0  0
  -21.7846  -13.0191   21.0017 C   0  0  0  0  0  0  0  0  0  0  0  0
  -26.1054  -26.6802   21.5131 C   0  0  0  0  0  0  0  0  0  0  0  0
  -25.5679  -27.6380   19.3612 C   0  0  0  0  0  0  0  0  0  0  0  0
  -23.2965  -11.4525   19.9647 C   0  0  0  0  0  0  0  0  0  0  0  0
  -22.8602  -13.8542   21.3019 C   0  0  0  0  0  0  0  0  0  0  0  0
  -22.8521  -19.9776   21.3980 C   0  0  0  0  0  0  0  0  0  0  0  0
  -21.1604  -24.7933   27.2877 C   0  0  0  0  0  0  0  0  0  0  0  0
  -20.4066  -22.8460   26.0725 C   0  0  0  0  0  0  0  0  0  0  0  0
  -20.2143  -25.5740   26.6236 C   0  0  0  0  0  0  0  0  0  0  0  0
  -19.4606  -23.6267   25.4083 C   0  0  0  0  0  0  0  0  0  0  0  0
  -27.3961  -26.3987   21.0655 C   0  0  0  0  0  0  0  0  0  0  0  0
  -26.8587  -27.3566   18.9136 C   0  0  0  0  0  0  0  0  0  0  0  0
  -22.7371  -20.8992   22.4378 C   0  0  0  0  0  0  0  0  0  0  0  0
  -30.2897  -28.0818   20.5889 C   0  0  0  0  0  0  0  0  0  0  0  0
  -31.3520  -28.3888   21.4391 C   0  0  0  0  0  0  0  0  0  0  0  0
  -25.1406  -21.0821   22.5335 C   0  0  0  0  0  0  0  0  0  0  0  0
  -32.0089  -26.0639   21.4579 C   0  0  0  0  0  0  0  0  0  0  0  0
  -25.1912  -27.2998   20.6610 C   0  0  0  0  0  0  0  0  0  0  0  0
  -23.4148  -28.7666   21.7566 C   0  0  0  0  0  0  0  0  0  0  0  0
  -24.3874  -12.2880   20.2519 C   0  0  0  0  0  0  0  0  0  0  0  0
  -24.1147  -19.5924   20.9247 C   0  0  0  0  0  0  0  0  0  0  0  0
  -24.1699  -13.4985   20.9374 C   0  0  0  0  0  0  0  0  0  0  0  0
  -25.2688  -20.1573   21.4859 C   0  0  0  0  0  0  0  0  0  0  0  0
  -21.2566  -23.4293   27.0121 C   0  0  0  0  0  0  0  0  0  0  0  0
  -19.3644  -24.9907   25.6839 C   0  0  0  0  0  0  0  0  0  0  0  0
  -27.7728  -26.7369   19.7657 C   0  0  0  0  0  0  0  0  0  0  0  0
  -23.8815  -21.4494   23.0077 C   0  0  0  0  0  0  0  0  0  0  0  0
  -30.0869  -26.7658   20.1733 C   0  0  0  0  0  0  0  0  0  0  0  0
  -32.2117  -27.3799   21.8736 C   0  0  0  0  0  0  0  0  0  0  0  0
  -30.9465  -25.7568   20.6078 C   0  0  0  0  0  0  0  0  0  0  0  0
  -23.8576  -27.5903   21.1226 C   0  0  0  0  0  0  0  0  0  0  0  0
  -22.0794  -28.5481   21.9920 C   0  0  0  0  0  0  0  0  0  0  0  0
  -24.1454  -29.9510   22.1019 C   0  0  0  0  0  0  0  0  0  0  0  0
  -25.7166  -16.8506   20.7834 C   0  0  0  0  0  0  0  0  0  0  0  0
  -27.8482  -18.6324   19.1089 C   0  0  0  0  0  0  0  0  0  0  0  0
  -29.1279  -21.7176   18.4084 C   0  0  0  0  0  0  0  0  0  0  0  0
  -17.9637  -25.4818   23.6868 C   0  0  0  0  0  0  0  0  0  0  0  0
  -25.7733  -11.8278   19.8749 C   0  0  0  0  0  0  0  0  0  0  0  0
  -24.2210  -18.6173   19.7844 C   0  0  0  0  0  0  0  0  0  0  0  0
  -26.6470  -19.7923   21.0003 C   0  0  0  0  0  0  0  0  0  0  0  0
  -26.8134  -12.9449   19.8980 C   0  0  0  0  0  0  0  0  0  0  0  0
  -18.9834  -24.9223   20.3267 C   0  0  0  0  0  0  0  0  0  0  0  0
  -26.6831  -13.7693   21.1748 C   0  0  0  0  0  0  0  0  0  0  0  0
  -20.3216  -25.6595   20.2890 C   0  0  0  0  0  0  0  0  0  0  0  0
  -18.7731  -24.1851   21.6496 C   0  0  0  0  0  0  0  0  0  0  0  0
  -20.2677  -25.7804   22.8096 C   0  0  0  0  0  0  0  0  0  0  0  0
  -25.3080  -14.4427   21.2588 C   0  0  1  0  0  0  0  0  0  0  0  0
  -25.5713  -17.9096   19.7274 C   0  0  1  0  0  0  0  0  0  0  0  0
  -20.4809  -26.5779   21.5135 C   0  0  1  0  0  0  0  0  0  0  0  0
  -30.8891  -22.8526   17.0273 C   0  0  0  0  0  0  0  0  0  0  0  0
  -29.9909  -17.6744   21.0585 C   0  0  0  0  0  0  0  0  0  0  0  0
  -31.4632  -19.5276   20.2425 C   0  0  0  0  0  0  0  0  0  0  0  0
  -30.7144  -17.7456   18.6657 C   0  0  0  0  0  0  0  0  0  0  0  0
  -17.6511  -26.8118   25.7625 C   0  0  0  0  0  0  0  0  0  0  0  0
  -27.1124  -23.3033   16.9311 C   0  0  0  0  0  0  0  0  0  0  0  0
  -23.8410  -20.6814   27.4041 C   0  0  0  0  0  0  0  0  0  0  0  0
  -22.2742  -22.5897   27.7266 C   0  0  0  0  0  0  0  0  0  0  0  0
  -24.3027  -22.8703   26.3098 C   0  0  0  0  0  0  0  0  0  0  0  0
  -24.8342  -22.3854   24.9755 C   0  0  0  0  0  0  0  0  0  1  0  0
  -29.0505  -19.4737   19.4636 C   0  0  1  0  0  0  0  0  0  0  0  0
  -29.4373  -22.4043   17.0904 C   0  0  2  0  0  0  0  0  0  0  0  0
  -30.2790  -18.6110   19.8682 C   0  0  0  0  0  0  0  0  0  0  0  0
  -22.8826  -26.6910   20.9653 N   0  0  0  0  0  0  0  0  0  0  0  0
  -21.8139  -27.3025   21.5039 N   0  0  0  0  0  0  0  0  0  0  0  0
  -26.6989  -18.8298   19.8874 N   0  0  0  0  0  0  0  0  0  0  0  0
  -18.9752  -25.0913   22.7890 N   0  0  0  0  0  0  0  0  0  0  0  0
  -21.1182  -29.3018   22.5667 N   0  0  0  0  0  0  0  0  0  0  0  0
  -25.5100  -30.0096   21.7880 N   0  0  0  0  0  0  0  0  0  0  0  0
  -25.2609  -15.6046   20.3972 N   0  0  0  0  0  0  0  0  0  0  0  0
  -29.2862  -20.3507   18.3217 N   0  0  0  0  0  0  0  0  0  0  0  0
  -18.3847  -25.7986   24.9963 N   0  0  0  0  0  0  0  0  0  0  0  0
  -28.5677  -23.6015   16.9133 N   0  3  0  0  0  0  0  0  0  0  0  0
  -23.2587  -21.9312   26.7919 N   0  3  1  0  0  0  0  0  0  0  0  0
  -23.6077  -30.9219   22.6867 O   0  0  0  0  0  0  0  0  0  0  0  0
  -26.2074  -17.1421   21.8678 O   0  0  0  0  0  0  0  0  0  0  0  0
  -27.9237  -17.8348   18.1710 O   0  0  0  0  0  0  0  0  0  0  0  0
  -28.7840  -22.3328   19.4153 O   0  0  0  0  0  0  0  0  0  0  0  0
  -16.7798  -25.5664   23.3388 O   0  0  0  0  0  0  0  0  0  0  0  0
  -29.0322  -26.4626   19.3287 O   0  0  0  0  0  0  0  0  0  0  0  0
  -23.7721  -22.3487   24.0231 O   0  0  0  0  0  0  0  0  0  1  0  0
  -33.2327  -27.6752   22.6887 F   0  0  0  0  0  0  0  0  0  0  0  0
  -30.7575  -24.4909   20.2110 F   0  0  0  0  0  0  0  0  0  0  0  0
  1  2  1  0  0  0  0
  1  5  2  0  0  0  0
  2  6  2  0  0  0  0
  3 12  2  0  0  0  0
  3 19  1  0  0  0  0
  4 13  1  0  0  0  0
  4 19  2  0  0  0  0
  5 21  1  0  0  0  0
  6 23  1  0  0  0  0
  7 14  2  0  0  0  0
  7 22  1  0  0  0  0
  8 10  2  0  0  0  0
  8 25  1  0  0  0  0
  9 11  1  0  0  0  0
  9 25  2  0  0  0  0
 10 26  1  0  0  0  0
 11 26  2  0  0  0  0
 12 27  1  0  0  0  0
 13 27  2  0  0  0  0
 14 28  1  0  0  0  0
 15 16  2  0  0  0  0
 15 29  1  0  0  0  0
 16 30  1  0  0  0  0
 17 24  1  0  0  0  0
 17 28  2  0  0  0  0
 18 30  2  0  0  0  0
 18 31  1  0  0  0  0
 19 32  1  0  0  0  0
 20 32  1  0  0  0  0
 20 33  2  0  0  0  0
 20 34  1  0  0  0  0
 21 23  2  0  0  0  0
 21 39  1  0  0  0  0
 22 24  2  0  0  0  0
 22 40  1  0  0  0  0
 23 48  1  0  0  0  0
 24 41  1  0  0  0  0
 25 58  1  0  0  0  0
 26 72  1  0  0  0  0
 27 80  1  0  0  0  0
 28 81  1  0  0  0  0
 29 31  2  0  0  0  0
 29 80  1  0  0  0  0
 30 82  1  0  0  0  0
 31 83  1  0  0  0  0
 32 64  2  0  0  0  0
 33 65  1  0  0  0  0
 33 68  1  0  0  0  0
 34 69  1  0  0  0  0
 34 75  2  0  0  0  0
 35 49  1  0  0  0  0
 35 70  1  0  0  0  0
 35 76  2  0  0  0  0
 36 61  1  0  0  0  0
 36 66  1  0  0  0  0
 36 77  2  0  0  0  0
 37 62  1  0  0  0  0
 37 71  1  0  0  0  0
 37 78  2  0  0  0  0
 38 67  1  0  0  0  0
 38 72  1  0  0  0  0
 38 79  2  0  0  0  0
 39 42  1  0  0  0  0
 40 49  1  0  0  0  0
 41 66  1  0  0  0  0
 42 44  1  0  0  0  0
 43 45  1  0  0  0  0
 43 46  1  0  0  0  0
 44 48  1  0  0  0  0
 45 50  1  0  0  0  0
 46 67  1  0  0  0  0
 47 50  1  0  0  0  0
 47 67  1  0  0  0  0
 48 70  1  0  0  0  0
 49 66  1  0  0  0  0
 50 65  1  0  0  0  0
 51 62  1  0  0  0  0
 52 63  1  0  0  0  0
 53 63  1  0  0  0  0
 54 63  1  0  0  0  0
 55 72  1  0  0  0  0
 56 73  1  0  0  0  0
 57 74  1  0  0  0  0
 58 74  1  0  0  0  0
 59 60  1  0  0  0  0
 59 74  1  0  0  0  0
 60 81  1  0  0  0  0
 61 63  1  0  0  0  0
 61 71  1  0  0  0  0
 62 73  1  0  0  0  0
 64 65  1  0  0  0  0
M  CHG  2  73   1  74   1
M  ISO  4  38 100  60 101  72 100  81 101
M  END
> <Batch ID>
0020

> <Smiles>
CNC(C)C(=O)NC(C(=O)N1Cc2cc([101O:1][101CH2:1]CN(C)Cc3ccc([100N:0](C)[100C:0](=O)N4CCCC(n5nc(-c6ccc(Oc7ccc(F)cc7F)cc6)c(C(N)=O)c5N)C4)cc3)ccc2CC1C(=O)NC1CCCc2ccccc21)C(C)(C)C

> <Shape>
0.226

> <Color>
0.069

> <Negative vol penalty>
0.000

$$$$

  -OEChem-04042321083D

 86 94  0     1  0  0  0  0  0999 V2000
  -16.6258  -28.4864   23.5463 C   0  0  0  0  0  0  0  0  0  0  0  0
  -17.4151  -27.8962   22.5644 C   0  0  0  0  0  0  0  0  0  0  0  0
  -27.7717  -17.9082   20.8724 C   0  0  0  0  0  0  0  0  0  0  0  0
  -29.8259  -18.0692   22.1340 C   0  0  0  0  0  0  0  0  0  0  0  0
  -17.1745  -29.4449   24.3972 C   0  0  0  0  0  0  0  0  0  0  0  0
  -18.7533  -28.2650   22.4321 C   0  0  0  0  0  0  0  0  0  0  0  0
  -23.4233  -24.6544   20.8008 C   0  0  0  0  0  0  0  0  0  0  0  0
  -30.8985  -27.1363   15.5017 C   0  0  0  0  0  0  0  0  0  0  0  0
  -29.6850  -27.3173   14.8382 C   0  0  0  0  0  0  0  0  0  0  0  0
  -27.7738  -16.5242   21.0456 C   0  0  0  0  0  0  0  0  0  0  0  0
  -29.8280  -16.6851   22.3072 C   0  0  0  0  0  0  0  0  0  0  0  0
  -24.0739  -24.4547   19.5840 C   0  0  0  0  0  0  0  0  0  0  0  0
  -29.3370  -13.8480   19.6970 C   0  0  0  0  0  0  0  0  0  0  0  0
  -29.0560  -13.0559   18.5838 C   0  0  0  0  0  0  0  0  0  0  0  0
  -25.7677  -26.0438   20.2358 C   0  0  0  0  0  0  0  0  0  0  0  0
  -30.1684  -28.6388   17.2471 C   0  0  0  0  0  0  0  0  0  0  0  0
  -27.1496  -12.1169   19.7332 C   0  0  0  0  0  0  0  0  0  0  0  0
  -28.7978  -18.6807   21.4166 C   0  0  0  0  0  0  0  0  0  0  0  0
  -28.2049  -21.0720   22.0785 C   0  0  0  0  0  0  0  0  0  0  0  0
  -18.5227  -29.8187   24.2816 C   0  0  0  0  0  0  0  0  0  0  0  0
  -23.9349  -25.5600   21.7413 C   0  0  0  0  0  0  0  0  0  0  0  0
  -19.3202  -29.2304   23.2814 C   0  0  0  0  0  0  0  0  0  0  0  0
  -25.1231  -26.2513   21.4648 C   0  0  0  0  0  0  0  0  0  0  0  0
  -31.1402  -27.7970   16.7062 C   0  0  0  0  0  0  0  0  0  0  0  0
  -28.7132  -28.1591   15.3792 C   0  0  0  0  0  0  0  0  0  0  0  0
  -28.8019  -15.9126   21.7630 C   0  0  0  0  0  0  0  0  0  0  0  0
  -25.2447  -25.1516   19.3001 C   0  0  0  0  0  0  0  0  0  0  0  0
  -28.5243  -13.7745   20.8284 C   0  0  0  0  0  0  0  0  0  0  0  0
  -27.9623  -12.1903   18.6019 C   0  0  0  0  0  0  0  0  0  0  0  0
  -28.9549  -28.8198   16.5836 C   0  0  0  0  0  0  0  0  0  0  0  0
  -27.4306  -12.9090   20.8464 C   0  0  0  0  0  0  0  0  0  0  0  0
  -28.7965  -20.1104   21.2375 C   0  0  0  0  0  0  0  0  0  0  0  0
  -28.4826  -22.2738   21.4745 C   0  0  0  0  0  0  0  0  0  0  0  0
  -27.4701  -20.8946   23.2968 C   0  0  0  0  0  0  0  0  0  0  0  0
  -22.8742  -28.2391   23.0833 C   0  0  0  0  0  0  0  0  0  0  0  0
  -25.5761  -27.9600   24.8565 C   0  0  0  0  0  0  0  0  0  0  0  0
  -28.7426  -26.7183   25.1362 C   0  0  0  0  0  0  0  0  0  0  0  0
  -31.7992  -25.5723   18.6568 C   0  0  0  0  0  0  0  0  0  0  0  0
  -19.0588  -30.8937   25.1935 C   0  0  0  0  0  0  0  0  0  0  0  0
  -23.2358  -25.7442   23.0602 C   0  0  0  0  0  0  0  0  0  0  0  0
  -25.7246  -27.2196   22.4492 C   0  0  0  0  0  0  0  0  0  0  0  0
  -20.5836  -30.9561   25.2310 C   0  0  0  0  0  0  0  0  0  0  0  0
  -31.1963  -22.0875   17.3953 C   0  0  0  0  0  0  0  0  0  0  0  0
  -21.1550  -30.9013   23.8178 C   0  0  0  0  0  0  0  0  0  0  0  0
  -29.7769  -22.3635   17.8915 C   0  0  0  0  0  0  0  0  0  0  0  0
  -32.0842  -23.3338   17.4848 C   0  0  0  0  0  0  0  0  0  0  0  0
  -31.1305  -23.4653   19.7627 C   0  0  0  0  0  0  0  0  0  0  0  0
  -20.7826  -29.5861   23.1227 C   0  0  1  0  0  0  0  0  0  0  0  0
  -23.5666  -27.0737   23.7314 C   0  0  1  0  0  0  0  0  0  0  0  0
  -29.7505  -22.9433   19.3256 C   0  0  2  0  0  0  0  0  0  0  0  0
  -30.9458  -26.1790   26.2097 C   0  0  0  0  0  0  0  0  0  0  0  0
  -26.2693  -30.8116   24.0213 C   0  0  0  0  0  0  0  0  0  0  0  0
  -28.6176  -30.3885   24.7793 C   0  0  0  0  0  0  0  0  0  0  0  0
  -26.7413  -30.2831   26.4197 C   0  0  0  0  0  0  0  0  0  0  0  0
  -33.9545  -25.6615   17.3284 C   0  0  0  0  0  0  0  0  0  0  0  0
  -27.7101  -24.1778   26.2494 C   0  0  0  0  0  0  0  0  0  0  0  0
  -25.7104  -27.1535   13.2930 C   0  0  0  0  0  0  0  0  0  0  0  0
  -32.4377  -27.6038   17.4154 C   0  0  0  0  0  0  0  0  0  0  0  0
  -27.4093  -28.3528   14.6627 C   0  0  0  0  0  0  0  0  0  0  0  0
  -25.7387  -25.1327   15.7249 C   0  0  0  0  0  0  0  0  0  0  0  0
  -25.9422  -26.6403   15.7188 C   0  0  0  0  0  0  0  0  0  0  0  0
  -25.0719  -24.6092   16.9911 C   0  0  0  0  0  0  0  0  0  1  0  0
  -27.0020  -28.4349   24.7144 C   0  0  1  0  0  0  0  0  0  0  0  0
  -29.4391  -25.9803   26.2653 C   0  0  2  0  0  0  0  0  0  0  0  0
  -27.1454  -29.9628   24.9641 C   0  0  0  0  0  0  0  0  0  0  0  0
  -29.4040  -20.6545   20.1797 N   0  0  0  0  0  0  0  0  0  0  0  0
  -29.1956  -21.9709   20.3520 N   0  0  0  0  0  0  0  0  0  0  0  0
  -25.0006  -27.3700   23.7222 N   0  0  0  0  0  0  0  0  0  0  0  0
  -31.7798  -24.1674   18.6570 N   0  0  0  0  0  0  0  0  0  0  0  0
  -28.1839  -23.5497   21.7993 N   0  0  0  0  0  0  0  0  0  0  0  0
  -27.2765  -19.5921   23.7767 N   0  0  0  0  0  0  0  0  0  0  0  0
  -21.6209  -28.5072   23.5998 N   0  0  0  0  0  0  0  0  0  0  0  0
  -27.7998  -27.6054   25.6110 N   0  0  0  0  0  0  0  0  0  0  0  0
  -32.6749  -26.2102   17.7665 N   0  0  0  0  0  0  0  0  0  0  0  0
  -29.1542  -24.5198   26.1829 N   0  3  0  0  0  0  0  0  0  0  0  0
  -26.6370  -27.0681   14.4820 N   0  3  1  0  0  0  0  0  0  0  0  0
  -26.9849  -21.8613   23.9321 O   0  0  0  0  0  0  0  0  0  0  0  0
  -23.4361  -28.8509   22.1823 O   0  0  0  0  0  0  0  0  0  0  0  0
  -24.9966  -28.1006   25.9364 O   0  0  0  0  0  0  0  0  0  0  0  0
  -29.0108  -26.5295   23.9518 O   0  0  0  0  0  0  0  0  0  0  0  0
  -31.0587  -26.2255   19.4040 O   0  0  0  0  0  0  0  0  0  0  0  0
  -28.8041  -14.5621   21.9324 O   0  0  0  0  0  0  0  0  0  0  0  0
  -25.8814  -24.9590   18.1129 O   0  0  0  0  0  0  0  0  0  1  0  0
  -27.6917  -11.4309   17.5322 F   0  0  0  0  0  0  0  0  0  0  0  0
  -28.0273  -29.6314   17.1106 F   0  0  0  0  0  0  0  0  0  0  0  0
  -26.6456  -12.8349   21.9299 F   0  0  0  0  0  0  0  0  0  0  0  0
  1  2  1  0  0  0  0
  1  5  2  0  0  0  0
  2  6  2  0  0  0  0
  3 10  2  0  0  0  0
  3 18  1  0  0  0  0
  4 11  1  0  0  0  0
  4 18  2  0  0  0  0
  5 20  1  0  0  0  0
  6 22  1  0  0  0  0
  7 12  2  0  0  0  0
  7 21  1  0  0  0  0
  8  9  2  0  0  0  0
  8 24  1  0  0  0  0
  9 25  1  0  0  0  0
 10 26  1  0  0  0  0
 11 26  2  0  0  0  0
 12 27  1  0  0  0  0
 13 14  2  0  0  0  0
 13 28  1  0  0  0  0
 14 29  1  0  0  0  0
 15 23  1  0  0  0  0
 15 27  2  0  0  0  0
 16 24  2  0  0  0  0
 16 30  1  0  0  0  0
 17 29  2  0  0  0  0
 17 31  1  0  0  0  0
 18 32  1  0  0  0  0
 19 32  1  0  0  0  0
 19 33  2  0  0  0  0
 19 34  1  0  0  0  0
 20 22  2  0  0  0  0
 20 39  1  0  0  0  0
 21 23  2  0  0  0  0
 21 40  1  0  0  0  0
 22 48  1  0  0  0  0
 23 41  1  0  0  0  0
 24 58  1  0  0  0  0
 25 30  2  0  0  0  0
 25 59  1  0  0  0  0
 26 82  1  0  0  0  0
 27 83  1  0  0  0  0
 28 31  2  0  0  0  0
 28 82  1  0  0  0  0
 29 84  1  0  0  0  0
 30 85  1  0  0  0  0
 31 86  1  0  0  0  0
 32 66  2  0  0  0  0
 33 67  1  0  0  0  0
 33 70  1  0  0  0  0
 34 71  1  0  0  0  0
 34 77  2  0  0  0  0
 35 49  1  0  0  0  0
 35 72  1  0  0  0  0
 35 78  2  0  0  0  0
 36 63  1  0  0  0  0
 36 68  1  0  0  0  0
 36 79  2  0  0  0  0
 37 64  1  0  0  0  0
 37 73  1  0  0  0  0
 37 80  2  0  0  0  0
 38 69  1  0  0  0  0
 38 74  1  0  0  0  0
 38 81  2  0  0  0  0
 39 42  1  0  0  0  0
 40 49  1  0  0  0  0
 41 68  1  0  0  0  0
 42 44  1  0  0  0  0
 43 45  1  0  0  0  0
 43 46  1  0  0  0  0
 44 48  1  0  0  0  0
 45 50  1  0  0  0  0
 46 69  1  0  0  0  0
 47 50  1  0  0  0  0
 47 69  1  0  0  0  0
 48 72  1  0  0  0  0
 49 68  1  0  0  0  0
 50 67  1  0  0  0  0
 51 64  1  0  0  0  0
 52 65  1  0  0  0  0
 53 65  1  0  0  0  0
 54 65  1  0  0  0  0
 55 74  1  0  0  0  0
 56 75  1  0  0  0  0
 57 76  1  0  0  0  0
 58 74  1  0  0  0  0
 59 76  1  0  0  0  0
 60 61  1  0  0  0  0
 60 62  1  0  0  0  0
 61 76  1  0  0  0  0
 62 83  1  0  0  0  0
 63 65  1  0  0  0  0
 63 73  1  0  0  0  0
 64 75  1  0  0  0  0
 66 67  1  0  0  0  0
M  CHG  2  75   1  76   1
M  ISO  4  38 100  62 101  74 100  83 101
M  END
> <Batch ID>
0020

> <Smiles>
CNC(C)C(=O)NC(C(=O)N1Cc2cc([101O:1][101CH2:1]CCN(C)Cc3ccc(C[100N:0](C)[100C:0](=O)N4CCCC(n5nc(-c6ccc(Oc7ccc(F)cc7F)cc6)c(C(N)=O)c5N)C4)cc3F)ccc2CC1C(=O)NC1CCCc2ccccc21)C(C)(C)C

> <Shape>
0.219

> <Color>
0.061

> <Negative vol penalty>
0.000

$$$$

  -OEChem-04042321083D

 86 95  0     1  0  0  0  0  0999 V2000
  -15.7694  -24.0014   21.2755 C   0  0  0  0  0  0  0  0  0  0  0  0
  -16.4765  -24.0024   22.4736 C   0  0  0  0  0  0  0  0  0  0  0  0
  -25.5154  -14.2977   20.8466 C   0  0  0  0  0  0  0  0  0  0  0  0
  -25.8080  -14.2773   18.4485 C   0  0  0  0  0  0  0  0  0  0  0  0
  -16.4380  -24.2249   20.0726 C   0  0  0  0  0  0  0  0  0  0  0  0
  -17.8529  -24.2257   22.4694 C   0  0  0  0  0  0  0  0  0  0  0  0
  -21.1177  -27.1711   26.7322 C   0  0  0  0  0  0  0  0  0  0  0  0
  -25.5334  -23.4932   26.0742 C   0  0  0  0  0  0  0  0  0  0  0  0
  -25.7676  -22.9368   24.8168 C   0  0  0  0  0  0  0  0  0  0  0  0
  -24.6247  -13.2289   20.7470 C   0  0  0  0  0  0  0  0  0  0  0  0
  -24.9173  -13.2085   18.3489 C   0  0  0  0  0  0  0  0  0  0  0  0
  -21.8904  -26.7185   27.8007 C   0  0  0  0  0  0  0  0  0  0  0  0
  -24.7923   -9.8759   20.3446 C   0  0  0  0  0  0  0  0  0  0  0  0
  -24.9376   -8.8245   21.2496 C   0  0  0  0  0  0  0  0  0  0  0  0
  -23.8696  -26.8831   26.4314 C   0  0  0  0  0  0  0  0  0  0  0  0
  -27.9066  -22.1125   25.5800 C   0  0  0  0  0  0  0  0  0  0  0  0
  -22.6979   -9.2174   22.0658 C   0  0  0  0  0  0  0  0  0  0  0  0
  -26.1071  -14.8219   19.6973 C   0  0  0  0  0  0  0  0  0  0  0  0
  -28.4225  -15.8573   19.9701 C   0  0  0  0  0  0  0  0  0  0  0  0
  -17.8218  -24.4607   20.0546 C   0  0  0  0  0  0  0  0  0  0  0  0
  -21.7147  -27.4733   25.4998 C   0  0  0  0  0  0  0  0  0  0  0  0
  -18.5409  -24.4512   21.2650 C   0  0  0  0  0  0  0  0  0  0  0  0
  -23.1026  -27.3419   25.3496 C   0  0  0  0  0  0  0  0  0  0  0  0
  -26.4858  -23.3594   27.0845 C   0  0  0  0  0  0  0  0  0  0  0  0
  -26.9541  -22.2464   24.5697 C   0  0  0  0  0  0  0  0  0  0  0  0
  -24.3257  -12.6843   19.4982 C   0  0  0  0  0  0  0  0  0  0  0  0
  -23.2662  -26.5717   27.6496 C   0  0  0  0  0  0  0  0  0  0  0  0
  -23.5998  -10.5981   20.3003 C   0  0  0  0  0  0  0  0  0  0  0  0
  -23.8904   -8.4952   22.1102 C   0  0  0  0  0  0  0  0  0  0  0  0
  -27.6724  -22.6690   26.8374 C   0  0  0  0  0  0  0  0  0  0  0  0
  -22.5526  -10.2689   21.1608 C   0  0  0  0  0  0  0  0  0  0  0  0
  -27.0268  -15.9264   19.7994 C   0  0  0  0  0  0  0  0  0  0  0  0
  -28.8291  -17.1687   20.0077 C   0  0  0  0  0  0  0  0  0  0  0  0
  -29.2752  -14.7104   20.0843 C   0  0  0  0  0  0  0  0  0  0  0  0
  -21.4465  -26.3441   22.5406 C   0  0  0  0  0  0  0  0  0  0  0  0
  -23.4249  -28.8161   21.8351 C   0  0  0  0  0  0  0  0  0  0  0  0
  -25.7875  -31.0331   22.9074 C   0  0  0  0  0  0  0  0  0  0  0  0
  -26.6583  -22.2512   22.0983 C   0  0  0  0  0  0  0  0  0  0  0  0
  -18.5085  -24.6503   18.7253 C   0  0  0  0  0  0  0  0  0  0  0  0
  -20.8708  -27.9860   24.3651 C   0  0  0  0  0  0  0  0  0  0  0  0
  -23.7947  -27.6723   24.0533 C   0  0  0  0  0  0  0  0  0  0  0  0
  -19.9070  -25.2509   18.8424 C   0  0  0  0  0  0  0  0  0  0  0  0
  -26.9269  -21.4673   18.5034 C   0  0  0  0  0  0  0  0  0  0  0  0
  -24.9028  -22.1987   31.1773 C   0  0  0  0  0  0  0  0  0  0  0  0
  -20.7019  -24.5437   19.9356 C   0  0  0  0  0  0  0  0  0  0  0  0
  -27.0432  -19.9440   18.4948 C   0  0  0  0  0  0  0  0  0  0  0  0
  -23.8852  -23.3217   31.2089 C   0  0  0  0  0  0  0  0  0  0  0  0
  -26.1190  -21.9674   19.6972 C   0  0  0  0  0  0  0  0  0  0  0  0
  -26.7458  -19.9601   21.0041 C   0  0  0  0  0  0  0  0  0  0  0  0
  -25.2024  -22.0281   29.7005 C   0  0  0  0  0  0  0  0  0  0  0  0
  -20.0307  -24.7143   21.3038 C   0  0  1  0  0  0  0  0  0  0  0  0
  -21.5145  -27.7736   22.9984 C   0  0  1  0  0  0  0  0  0  0  0  0
  -27.5908  -19.4280   19.8368 C   0  0  1  0  0  0  0  0  0  0  0  0
  -24.4417  -24.3072   30.1921 C   0  0  2  0  0  0  0  0  0  0  0  0
  -27.2448  -32.9065   22.0926 C   0  0  0  0  0  0  0  0  0  0  0  0
  -25.2675  -26.7927   20.4857 C   0  0  0  0  0  0  0  0  0  0  0  0
  -27.0855  -28.5130   20.5456 C   0  0  0  0  0  0  0  0  0  0  0  0
  -25.0006  -28.9489   19.2471 C   0  0  0  0  0  0  0  0  0  0  0  0
  -28.2120  -20.6201   23.1450 C   0  0  0  0  0  0  0  0  0  0  0  0
  -24.5443  -32.9660   24.7722 C   0  0  0  0  0  0  0  0  0  0  0  0
  -26.2291  -23.9578   28.4362 C   0  0  0  0  0  0  0  0  0  0  0  0
  -23.3958  -25.2462   29.6199 C   0  0  0  0  0  0  0  0  0  1  0  0
  -24.9216  -29.0036   21.7735 C   0  0  1  0  0  0  0  0  0  0  0  0
  -25.9141  -32.5352   22.7285 C   0  0  2  0  0  0  0  0  0  0  0  0
  -25.5558  -28.3064   20.5370 C   0  0  0  0  0  0  0  0  0  0  0  0
  -26.5769  -17.1822   19.7333 N   0  0  0  0  0  0  0  0  0  0  0  0
  -27.6963  -17.9145   19.8633 N   0  0  0  0  0  0  0  0  0  0  0  0
  -22.9256  -28.1639   22.9714 N   0  0  0  0  0  0  0  0  0  0  0  0
  -26.6324  -21.4260   20.9561 N   0  0  0  0  0  0  0  0  0  0  0  0
  -30.0415  -17.7452   20.1500 N   0  0  0  0  0  0  0  0  0  0  0  0
  -28.6933  -13.4367   20.0249 N   0  0  0  0  0  0  0  0  0  0  0  0
  -20.2985  -26.0326   21.8373 N   0  0  0  0  0  0  0  0  0  0  0  0
  -25.1555  -30.4423   21.8337 N   0  0  0  0  0  0  0  0  0  0  0  0
  -27.1975  -21.6721   23.2675 N   0  0  0  0  0  0  0  0  0  0  0  0
  -25.0021  -23.4086   29.0980 N   0  3  1  0  0  0  0  0  0  0  0  0
  -25.8145  -33.2241   24.0462 N   0  3  0  0  0  0  0  0  0  0  0  0
  -30.5143  -14.8121   20.2511 O   0  0  0  0  0  0  0  0  0  0  0  0
  -22.3680  -25.5807   22.8046 O   0  0  0  0  0  0  0  0  0  0  0  0
  -22.7239  -29.2392   20.9125 O   0  0  0  0  0  0  0  0  0  0  0  0
  -26.2104  -30.4423   23.8987 O   0  0  0  0  0  0  0  0  0  0  0  0
  -26.2591  -23.4213   22.0670 O   0  0  0  0  0  0  0  0  0  0  0  0
  -23.4568  -11.6412   19.4007 O   0  0  0  0  0  0  0  0  0  0  0  0
  -24.0226  -26.1294   28.6907 O   0  0  0  0  0  0  0  0  0  1  0  0
  -24.0296   -7.4845   22.9781 F   0  0  0  0  0  0  0  0  0  0  0  0
  -28.5934  -22.5351   27.8018 F   0  0  0  0  0  0  0  0  0  0  0  0
  -21.4041  -10.9583   21.1220 F   0  0  0  0  0  0  0  0  0  0  0  0
  1  2  1  0  0  0  0
  1  5  2  0  0  0  0
  2  6  2  0  0  0  0
  3 10  2  0  0  0  0
  3 18  1  0  0  0  0
  4 11  1  0  0  0  0
  4 18  2  0  0  0  0
  5 20  1  0  0  0  0
  6 22  1  0  0  0  0
  7 12  2  0  0  0  0
  7 21  1  0  0  0  0
  8  9  2  0  0  0  0
  8 24  1  0  0  0  0
  9 25  1  0  0  0  0
 10 26  1  0  0  0  0
 11 26  2  0  0  0  0
 12 27  1  0  0  0  0
 13 14  2  0  0  0  0
 13 28  1  0  0  0  0
 14 29  1  0  0  0  0
 15 23  1  0  0  0  0
 15 27  2  0  0  0  0
 16 25  2  0  0  0  0
 16 30  1  0  0  0  0
 17 29  2  0  0  0  0
 17 31  1  0  0  0  0
 18 32  1  0  0  0  0
 19 32  1  0  0  0  0
 19 33  2  0  0  0  0
 19 34  1  0  0  0  0
 20 22  2  0  0  0  0
 20 39  1  0  0  0  0
 21 23  2  0  0  0  0
 21 40  1  0  0  0  0
 22 51  1  0  0  0  0
 23 41  1  0  0  0  0
 24 30  2  0  0  0  0
 24 61  1  0  0  0  0
 25 74  1  0  0  0  0
 26 82  1  0  0  0  0
 27 83  1  0  0  0  0
 28 31  2  0  0  0  0
 28 82  1  0  0  0  0
 29 84  1  0  0  0  0
 30 85  1  0  0  0  0
 31 86  1  0  0  0  0
 32 66  2  0  0  0  0
 33 67  1  0  0  0  0
 33 70  1  0  0  0  0
 34 71  1  0  0  0  0
 34 77  2  0  0  0  0
 35 52  1  0  0  0  0
 35 72  1  0  0  0  0
 35 78  2  0  0  0  0
 36 63  1  0  0  0  0
 36 68  1  0  0  0  0
 36 79  2  0  0  0  0
 37 64  1  0  0  0  0
 37 73  1  0  0  0  0
 37 80  2  0  0  0  0
 38 69  1  0  0  0  0
 38 74  1  0  0  0  0
 38 81  2  0  0  0  0
 39 42  1  0  0  0  0
 40 52  1  0  0  0  0
 41 68  1  0  0  0  0
 42 45  1  0  0  0  0
 43 46  1  0  0  0  0
 43 48  1  0  0  0  0
 44 47  1  0  0  0  0
 44 50  1  0  0  0  0
 45 51  1  0  0  0  0
 46 53  1  0  0  0  0
 47 54  1  0  0  0  0
 48 69  1  0  0  0  0
 49 53  1  0  0  0  0
 49 69  1  0  0  0  0
 50 75  1  0  0  0  0
 51 72  1  0  0  0  0
 52 68  1  0  0  0  0
 53 67  1  0  0  0  0
 54 62  1  0  0  0  0
 54 75  1  0  0  0  0
 55 64  1  0  0  0  0
 56 65  1  0  0  0  0
 57 65  1  0  0  0  0
 58 65  1  0  0  0  0
 59 74  1  0  0  0  0
 60 76  1  0  0  0  0
 61 75  1  0  0  0  0
 62 83  1  0  0  0  0
 63 65  1  0  0  0  0
 63 73  1  0  0  0  0
 64 76  1  0  0  0  0
 66 67  1  0  0  0  0
M  CHG  2  75   1  76   1
M  ISO  4  38 100  62 101  74 100  83 101
M  END
> <Batch ID>
0020

> <Smiles>
CNC(C)C(=O)NC(C(=O)N1Cc2cc([101O:1][101CH2:1]C3CCCN3Cc3ccc([100N:0](C)[100C:0](=O)N4CCCC(n5nc(-c6ccc(Oc7ccc(F)cc7F)cc6)c(C(N)=O)c5N)C4)cc3F)ccc2CC1C(=O)NC1CCCc2ccccc21)C(C)(C)C

> <Shape>
0.208

> <Color>
0.045

> <Negative vol penalty>
0.000

$$$$

  -OEChem-04042321083D

 85 94  0     1  0  0  0  0  0999 V2000
  -28.9045  -36.7005   19.4246 C   0  0  0  0  0  0  0  0  0  0  0  0
  -29.0218  -35.3629   19.0608 C   0  0  0  0  0  0  0  0  0  0  0  0
  -23.8190   -9.9367   21.9602 C   0  0  0  0  0  0  0  0  0  0  0  0
  -24.4511  -11.2854   23.8625 C   0  0  0  0  0  0  0  0  0  0  0  0
  -28.4869  -37.0376   20.7115 C   0  0  0  0  0  0  0  0  0  0  0  0
  -28.7225  -34.3615   19.9839 C   0  0  0  0  0  0  0  0  0  0  0  0
  -26.1859  -28.9121   18.8116 C   0  0  0  0  0  0  0  0  0  0  0  0
  -29.0528  -20.6184   20.5715 C   0  0  0  0  0  0  0  0  0  0  0  0
  -28.7108  -19.2900   20.3051 C   0  0  0  0  0  0  0  0  0  0  0  0
  -23.3246   -8.9558   22.8198 C   0  0  0  0  0  0  0  0  0  0  0  0
  -23.9567  -10.3044   24.7222 C   0  0  0  0  0  0  0  0  0  0  0  0
  -26.7312  -27.6397   18.6460 C   0  0  0  0  0  0  0  0  0  0  0  0
  -20.5462   -8.4414   24.6768 C   0  0  0  0  0  0  0  0  0  0  0  0
  -19.3030   -7.8840   24.3777 C   0  0  0  0  0  0  0  0  0  0  0  0
  -31.0410  -18.7325   20.0772 C   0  0  0  0  0  0  0  0  0  0  0  0
  -26.2760  -27.1495   20.9637 C   0  0  0  0  0  0  0  0  0  0  0  0
  -20.3225   -5.7001   24.2096 C   0  0  0  0  0  0  0  0  0  0  0  0
  -24.3822  -11.1015   22.4815 C   0  0  0  0  0  0  0  0  0  0  0  0
  -24.1880  -13.2071   21.0544 C   0  0  0  0  0  0  0  0  0  0  0  0
  -28.1732  -36.0400   21.6478 C   0  0  0  0  0  0  0  0  0  0  0  0
  -25.6905  -29.3172   20.0594 C   0  0  0  0  0  0  0  0  0  0  0  0
  -28.3017  -34.6856   21.2849 C   0  0  0  0  0  0  0  0  0  0  0  0
  -31.3921  -20.0668   20.3293 C   0  0  0  0  0  0  0  0  0  0  0  0
  -25.7225  -28.4266   21.1419 C   0  0  0  0  0  0  0  0  0  0  0  0
  -30.3963  -21.0269   20.5825 C   0  0  0  0  0  0  0  0  0  0  0  0
  -29.7033  -18.3479   20.0576 C   0  0  0  0  0  0  0  0  0  0  0  0
  -23.3935   -9.1396   24.2008 C   0  0  0  0  0  0  0  0  0  0  0  0
  -26.7790  -26.7592   19.7228 C   0  0  0  0  0  0  0  0  0  0  0  0
  -21.6776   -7.6281   24.7422 C   0  0  0  0  0  0  0  0  0  0  0  0
  -19.1911   -6.5134   24.1442 C   0  0  0  0  0  0  0  0  0  0  0  0
  -21.5657   -6.2575   24.5087 C   0  0  0  0  0  0  0  0  0  0  0  0
  -24.8936  -12.1149   21.5940 C   0  0  0  0  0  0  0  0  0  0  0  0
  -25.1130  -13.8653   20.2815 C   0  0  0  0  0  0  0  0  0  0  0  0
  -32.0904  -22.8345   20.6880 C   0  0  0  0  0  0  0  0  0  0  0  0
  -22.8189  -13.5921   21.2358 C   0  0  0  0  0  0  0  0  0  0  0  0
  -26.4327  -31.6122   22.1297 C   0  0  0  0  0  0  0  0  0  0  0  0
  -23.7817  -30.5463   23.6654 C   0  0  0  0  0  0  0  0  0  0  0  0
  -21.5959  -27.9885   24.2365 C   0  0  0  0  0  0  0  0  0  0  0  0
  -30.2203  -15.9442   19.5087 C   0  0  0  0  0  0  0  0  0  0  0  0
  -27.7714  -36.4530   23.0416 C   0  0  0  0  0  0  0  0  0  0  0  0
  -25.0810  -30.6835   20.2149 C   0  0  0  0  0  0  0  0  0  0  0  0
  -32.8389  -20.4529   20.4214 C   0  0  0  0  0  0  0  0  0  0  0  0
  -25.1855  -28.8058   22.4969 C   0  0  0  0  0  0  0  0  0  0  0  0
  -33.0169  -21.8838   19.9600 C   0  0  0  0  0  0  0  0  0  0  0  0
  -27.1135  -35.3327   23.8431 C   0  0  0  0  0  0  0  0  0  0  0  0
  -29.7543  -12.4848   18.8069 C   0  0  0  0  0  0  0  0  0  0  0  0
  -27.9128  -34.0404   23.7094 C   0  0  0  0  0  0  0  0  0  0  0  0
  -28.3901  -12.1700   19.4250 C   0  0  0  0  0  0  0  0  0  0  0  0
  -30.5426  -13.4843   19.6514 C   0  0  0  0  0  0  0  0  0  0  0  0
  -28.4625  -14.4105   20.5920 C   0  0  0  0  0  0  0  0  0  0  0  0
  -27.9624  -33.5708   22.2504 C   0  0  1  0  0  0  0  0  0  0  0  0
  -25.0746  -31.1740   21.6594 C   0  0  1  0  0  0  0  0  0  0  0  0
  -27.6050  -13.4576   19.7433 C   0  0  2  0  0  0  0  0  0  0  0  0
  -19.5521  -27.4046   25.5705 C   0  0  0  0  0  0  0  0  0  0  0  0
  -25.5022  -30.2524   26.1681 C   0  0  0  0  0  0  0  0  0  0  0  0
  -23.7051  -28.8119   27.1497 C   0  0  0  0  0  0  0  0  0  0  0  0
  -23.2199  -31.1905   26.5754 C   0  0  0  0  0  0  0  0  0  0  0  0
  -19.9991  -27.4987   21.7933 C   0  0  0  0  0  0  0  0  0  0  0  0
  -29.0291  -23.9792   20.2306 C   0  0  0  0  0  0  0  0  0  0  0  0
  -29.7710  -23.3058   21.3788 C   0  0  0  0  0  0  0  0  0  0  0  0
  -27.9327  -24.9259   20.7047 C   0  0  0  0  0  0  0  0  0  1  0  0
  -23.5036  -29.4997   24.7172 C   0  0  1  0  0  0  0  0  0  0  0  0
  -20.0785  -27.9441   24.2497 C   0  0  2  0  0  0  0  0  0  0  0  0
  -23.9947  -29.9319   26.1277 C   0  0  0  0  0  0  0  0  0  0  0  0
  -26.1684  -12.0779   21.1973 N   0  0  0  0  0  0  0  0  0  0  0  0
  -26.2712  -13.1549   20.4001 N   0  0  0  0  0  0  0  0  0  0  0  0
  -30.7782  -22.3791   20.8701 N   0  0  0  0  0  0  0  0  0  0  0  0
  -24.6052  -30.1549   22.6003 N   0  0  0  0  0  0  0  0  0  0  0  0
  -29.7376  -14.6803   19.9092 N   0  0  0  0  0  0  0  0  0  0  0  0
  -25.0405  -14.9767   19.5186 N   0  0  0  0  0  0  0  0  0  0  0  0
  -22.0072  -12.8042   22.0632 N   0  0  0  0  0  0  0  0  0  0  0  0
  -29.3541  -17.0036   19.7768 N   0  0  0  0  0  0  0  0  0  0  0  0
  -26.7130  -32.9419   21.8791 N   0  0  0  0  0  0  0  0  0  0  0  0
  -22.0745  -29.2161   24.6429 N   0  0  0  0  0  0  0  0  0  0  0  0
  -19.5763  -27.0707   23.1516 N   0  3  0  0  0  0  0  0  0  0  0  0
  -32.4916  -23.9586   20.9969 O   0  0  0  0  0  0  0  0  0  0  0  0
  -22.3254  -14.5957   20.6675 O   0  0  0  0  0  0  0  0  0  0  0  0
  -27.1711  -30.8040   22.6805 O   0  0  0  0  0  0  0  0  0  0  0  0
  -23.2808  -31.6677   23.7808 O   0  0  0  0  0  0  0  0  0  0  0  0
  -22.2874  -27.0288   23.9029 O   0  0  0  0  0  0  0  0  0  0  0  0
  -31.3090  -16.0736   18.9430 O   0  0  0  0  0  0  0  0  0  0  0  0
  -22.9110   -8.1828   25.0400 O   0  0  0  0  0  0  0  0  0  0  0  0
  -27.3114  -25.5169   19.5641 O   0  0  0  0  0  0  0  0  0  1  0  0
  -17.9969   -5.9781   23.8586 F   0  0  0  0  0  0  0  0  0  0  0  0
  -22.6488   -5.4709   24.5713 F   0  0  0  0  0  0  0  0  0  0  0  0
  1  2  1  0  0  0  0
  1  5  2  0  0  0  0
  2  6  2  0  0  0  0
  3 10  2  0  0  0  0
  3 18  1  0  0  0  0
  4 11  1  0  0  0  0
  4 18  2  0  0  0  0
  5 20  1  0  0  0  0
  6 22  1  0  0  0  0
  7 12  2  0  0  0  0
  7 21  1  0  0  0  0
  8  9  2  0  0  0  0
  8 25  1  0  0  0  0
  9 26  1  0  0  0  0
 10 27  1  0  0  0  0
 11 27  2  0  0  0  0
 12 28  1  0  0  0  0
 13 14  2  0  0  0  0
 13 29  1  0  0  0  0
 14 30  1  0  0  0  0
 15 23  1  0  0  0  0
 15 26  2  0  0  0  0
 16 24  1  0  0  0  0
 16 28  2  0  0  0  0
 17 30  2  0  0  0  0
 17 31  1  0  0  0  0
 18 32  1  0  0  0  0
 19 32  1  0  0  0  0
 19 33  2  0  0  0  0
 19 35  1  0  0  0  0
 20 22  2  0  0  0  0
 20 40  1  0  0  0  0
 21 24  2  0  0  0  0
 21 41  1  0  0  0  0
 22 51  1  0  0  0  0
 23 25  2  0  0  0  0
 23 42  1  0  0  0  0
 24 43  1  0  0  0  0
 25 67  1  0  0  0  0
 26 72  1  0  0  0  0
 27 82  1  0  0  0  0
 28 83  1  0  0  0  0
 29 31  2  0  0  0  0
 29 82  1  0  0  0  0
 30 84  1  0  0  0  0
 31 85  1  0  0  0  0
 32 65  2  0  0  0  0
 33 66  1  0  0  0  0
 33 70  1  0  0  0  0
 34 44  1  0  0  0  0
 34 67  1  0  0  0  0
 34 76  2  0  0  0  0
 35 71  1  0  0  0  0
 35 77  2  0  0  0  0
 36 52  1  0  0  0  0
 36 73  1  0  0  0  0
 36 78  2  0  0  0  0
 37 62  1  0  0  0  0
 37 68  1  0  0  0  0
 37 79  2  0  0  0  0
 38 63  1  0  0  0  0
 38 74  1  0  0  0  0
 38 80  2  0  0  0  0
 39 69  1  0  0  0  0
 39 72  1  0  0  0  0
 39 81  2  0  0  0  0
 40 45  1  0  0  0  0
 41 52  1  0  0  0  0
 42 44  1  0  0  0  0
 43 68  1  0  0  0  0
 45 47  1  0  0  0  0
 46 48  1  0  0  0  0
 46 49  1  0  0  0  0
 47 51  1  0  0  0  0
 48 53  1  0  0  0  0
 49 69  1  0  0  0  0
 50 53  1  0  0  0  0
 50 69  1  0  0  0  0
 51 73  1  0  0  0  0
 52 68  1  0  0  0  0
 53 66  1  0  0  0  0
 54 63  1  0  0  0  0
 55 64  1  0  0  0  0
 56 64  1  0  0  0  0
 57 64  1  0  0  0  0
 58 75  1  0  0  0  0
 59 60  1  0  0  0  0
 59 61  1  0  0  0  0
 60 67  1  0  0  0  0
 61 83  1  0  0  0  0
 62 64  1  0  0  0  0
 62 74  1  0  0  0  0
 63 75  1  0  0  0  0
 65 66  1  0  0  0  0
M  CHG  1  75   1
M  ISO  4  39 100  61 101  72 100  83 101
M  END
> <Batch ID>
0020

> <Smiles>
CNC(C)C(=O)NC(C(=O)N1Cc2cc([101O:1][101CH2:1]CCN3C(=O)CCc4cc([100NH:0][100C:0](=O)N5CCCC(n6nc(-c7ccc(Oc8ccc(F)cc8F)cc7)c(C(N)=O)c6N)C5)ccc43)ccc2CC1C(=O)NC1CCCc2ccccc21)C(C)(C)C

> <Shape>
0.288

> <Color>
0.147

> <Negative vol penalty>
0.000

$$$$

  -OEChem-04042321083D

 84 93  0     1  0  0  0  0  0999 V2000
  -26.9463  -18.8710   16.4558 C   0  0  0  0  0  0  0  0  0  0  0  0
  -27.0454  -18.4832   17.7882 C   0  0  0  0  0  0  0  0  0  0  0  0
  -26.2857  -29.2177   19.5075 C   0  0  0  0  0  0  0  0  0  0  0  0
  -26.3205  -28.5414   21.8266 C   0  0  0  0  0  0  0  0  0  0  0  0
  -25.8167  -18.5288   15.7136 C   0  0  0  0  0  0  0  0  0  0  0  0
  -26.0144  -17.7539   18.3795 C   0  0  0  0  0  0  0  0  0  0  0  0
  -27.7202  -13.8667   21.1408 C   0  0  0  0  0  0  0  0  0  0  0  0
  -28.2375  -20.2019   25.0808 C   0  0  0  0  0  0  0  0  0  0  0  0
  -27.9023  -18.4311   23.4718 C   0  0  0  0  0  0  0  0  0  0  0  0
  -28.6207  -21.0634   24.0529 C   0  0  0  0  0  0  0  0  0  0  0  0
  -28.2854  -19.2926   22.4438 C   0  0  0  0  0  0  0  0  0  0  0  0
  -25.1316  -29.9649   19.7427 C   0  0  0  0  0  0  0  0  0  0  0  0
  -25.1664  -29.2887   22.0618 C   0  0  0  0  0  0  0  0  0  0  0  0
  -28.2291  -14.1589   22.4055 C   0  0  0  0  0  0  0  0  0  0  0  0
  -24.3591  -32.5329   22.5557 C   0  0  0  0  0  0  0  0  0  0  0  0
  -24.3278  -33.3315   23.6988 C   0  0  0  0  0  0  0  0  0  0  0  0
  -26.1418  -13.4683   23.3983 C   0  0  0  0  0  0  0  0  0  0  0  0
  -22.4043  -32.1088   24.5003 C   0  0  0  0  0  0  0  0  0  0  0  0
  -26.8801  -28.5059   20.5494 C   0  0  0  0  0  0  0  0  0  0  0  0
  -29.4055  -28.1714   20.4149 C   0  0  0  0  0  0  0  0  0  0  0  0
  -24.7757  -17.7866   16.2934 C   0  0  0  0  0  0  0  0  0  0  0  0
  -26.4123  -13.3826   20.9943 C   0  0  0  0  0  0  0  0  0  0  0  0
  -24.8692  -17.4026   17.6447 C   0  0  0  0  0  0  0  0  0  0  0  0
  -25.6196  -13.1683   22.1309 C   0  0  0  0  0  0  0  0  0  0  0  0
  -27.8784  -18.8857   24.7903 C   0  0  0  0  0  0  0  0  0  0  0  0
  -28.6446  -20.6088   22.7344 C   0  0  0  0  0  0  0  0  0  0  0  0
  -24.5720  -30.0004   21.0198 C   0  0  0  0  0  0  0  0  0  0  0  0
  -27.4389  -13.9624   23.5343 C   0  0  0  0  0  0  0  0  0  0  0  0
  -23.4130  -31.5222   22.3848 C   0  0  0  0  0  0  0  0  0  0  0  0
  -23.3504  -33.1195   24.6711 C   0  0  0  0  0  0  0  0  0  0  0  0
  -22.4356  -31.3102   23.3571 C   0  0  0  0  0  0  0  0  0  0  0  0
  -28.0720  -27.7334   20.3070 C   0  0  0  0  0  0  0  0  0  0  0  0
  -30.1565  -27.0702   20.0834 C   0  0  0  0  0  0  0  0  0  0  0  0
  -29.9195  -29.4585   20.7821 C   0  0  0  0  0  0  0  0  0  0  0  0
  -23.7812  -14.4303   19.5510 C   0  0  0  0  0  0  0  0  0  0  0  0
  -22.6196  -11.5280   20.4169 C   0  0  0  0  0  0  0  0  0  0  0  0
  -22.7959   -8.8471   22.5214 C   0  0  0  0  0  0  0  0  0  0  0  0
  -29.1114  -21.1920   20.3285 C   0  0  0  0  0  0  0  0  0  0  0  0
  -23.5532  -17.4810   15.4647 C   0  0  0  0  0  0  0  0  0  0  0  0
  -25.8875  -13.0469   19.6252 C   0  0  0  0  0  0  0  0  0  0  0  0
  -24.2161  -12.6313   22.0291 C   0  0  0  0  0  0  0  0  0  0  0  0
  -22.6729  -16.3846   16.0590 C   0  0  0  0  0  0  0  0  0  0  0  0
  -29.9881  -23.0803   17.4401 C   0  0  0  0  0  0  0  0  0  0  0  0
  -29.7010  -16.1223   27.8961 C   0  0  0  0  0  0  0  0  0  0  0  0
  -22.4544  -16.6247   17.5494 C   0  0  0  0  0  0  0  0  0  0  0  0
  -29.7234  -24.5282   17.8594 C   0  0  0  0  0  0  0  0  0  0  0  0
  -28.8633  -14.9330   27.4700 C   0  0  0  0  0  0  0  0  0  0  0  0
  -28.9551  -22.1214   18.0292 C   0  0  0  0  0  0  0  0  0  0  0  0
  -28.5192  -23.6588   19.9042 C   0  0  0  0  0  0  0  0  0  0  0  0
  -29.6791  -17.0297   26.6811 C   0  0  0  0  0  0  0  0  0  0  0  0
  -23.7829  -16.5894   18.3145 C   0  0  1  0  0  0  0  0  0  0  0  0
  -24.3636  -13.0452   19.5534 C   0  0  1  0  0  0  0  0  0  0  0  0
  -29.5718  -24.6534   19.3881 C   0  0  2  0  0  0  0  0  0  0  0  0
  -27.6968  -15.5871   26.7446 C   0  0  2  0  0  0  0  0  0  0  0  0
  -21.6903   -6.6471   23.0060 C   0  0  0  0  0  0  0  0  0  0  0  0
  -20.2856  -12.9925   21.7276 C   0  0  0  0  0  0  0  0  0  0  0  0
  -19.7547  -10.8867   22.9734 C   0  0  0  0  0  0  0  0  0  0  0  0
  -19.6490  -10.9198   20.4814 C   0  0  0  0  0  0  0  0  0  0  0  0
  -25.2897   -7.3447   21.9893 C   0  0  0  0  0  0  0  0  0  0  0  0
  -27.4664  -17.9592   25.8960 C   0  0  0  0  0  0  0  0  0  0  0  0
  -26.9972  -14.6652   25.7630 C   0  0  0  0  0  0  0  0  0  1  0  0
  -21.9018  -10.9815   21.6274 C   0  0  1  0  0  0  0  0  0  0  0  0
  -22.8057   -7.3534   22.2511 C   0  0  2  0  0  0  0  0  0  0  0  0
  -20.4235  -11.4571   21.7045 C   0  0  0  0  0  0  0  0  0  0  0  0
  -27.9780  -26.4538   19.9358 N   0  0  0  0  0  0  0  0  0  0  0  0
  -29.2620  -26.0783   19.8075 N   0  0  0  0  0  0  0  0  0  0  0  0
  -23.7460  -12.3241   20.6682 N   0  0  0  0  0  0  0  0  0  0  0  0
  -28.8691  -22.2938   19.4810 N   0  0  0  0  0  0  0  0  0  0  0  0
  -31.4882  -26.8633   20.0038 N   0  0  0  0  0  0  0  0  0  0  0  0
  -29.0089  -30.4779   21.0922 N   0  0  0  0  0  0  0  0  0  0  0  0
  -29.0334  -21.4838   21.6899 N   0  0  0  0  0  0  0  0  0  0  0  0
  -24.2190  -15.2230   18.5073 N   0  0  0  0  0  0  0  0  0  0  0  0
  -22.0614   -9.5322   21.5768 N   0  0  0  0  0  0  0  0  0  0  0  0
  -28.3457  -16.7511   26.0079 N   0  3  1  0  0  0  0  0  0  0  0  0
  -24.1065   -6.7595   22.6709 N   0  3  0  0  0  0  0  0  0  0  0  0
  -31.1494  -29.7023   20.8177 O   0  0  0  0  0  0  0  0  0  0  0  0
  -22.9917  -14.7552   20.4302 O   0  0  0  0  0  0  0  0  0  0  0  0
  -22.2006  -11.2526   19.2899 O   0  0  0  0  0  0  0  0  0  0  0  0
  -23.3784   -9.3550   23.4771 O   0  0  0  0  0  0  0  0  0  0  0  0
  -29.3957  -20.0785   19.8800 O   0  0  0  0  0  0  0  0  0  0  0  0
  -23.4459  -30.7296   21.2497 O   0  0  0  0  0  0  0  0  0  0  0  0
  -27.9329  -14.2475   24.7698 O   0  0  0  0  0  0  0  0  0  1  0  0
  -23.3213  -33.8855   25.7696 F   0  0  0  0  0  0  0  0  0  0  0  0
  -21.5248  -30.3400   23.1991 F   0  0  0  0  0  0  0  0  0  0  0  0
  1  2  1  0  0  0  0
  1  5  2  0  0  0  0
  2  6  2  0  0  0  0
  3 12  2  0  0  0  0
  3 19  1  0  0  0  0
  4 13  1  0  0  0  0
  4 19  2  0  0  0  0
  5 21  1  0  0  0  0
  6 23  1  0  0  0  0
  7 14  2  0  0  0  0
  7 22  1  0  0  0  0
  8 10  2  0  0  0  0
  8 25  1  0  0  0  0
  9 11  1  0  0  0  0
  9 25  2  0  0  0  0
 10 26  1  0  0  0  0
 11 26  2  0  0  0  0
 12 27  1  0  0  0  0
 13 27  2  0  0  0  0
 14 28  1  0  0  0  0
 15 16  2  0  0  0  0
 15 29  1  0  0  0  0
 16 30  1  0  0  0  0
 17 24  1  0  0  0  0
 17 28  2  0  0  0  0
 18 30  2  0  0  0  0
 18 31  1  0  0  0  0
 19 32  1  0  0  0  0
 20 32  1  0  0  0  0
 20 33  2  0  0  0  0
 20 34  1  0  0  0  0
 21 23  2  0  0  0  0
 21 39  1  0  0  0  0
 22 24  2  0  0  0  0
 22 40  1  0  0  0  0
 23 51  1  0  0  0  0
 24 41  1  0  0  0  0
 25 60  1  0  0  0  0
 26 71  1  0  0  0  0
 27 81  1  0  0  0  0
 28 82  1  0  0  0  0
 29 31  2  0  0  0  0
 29 81  1  0  0  0  0
 30 83  1  0  0  0  0
 31 84  1  0  0  0  0
 32 65  2  0  0  0  0
 33 66  1  0  0  0  0
 33 69  1  0  0  0  0
 34 70  1  0  0  0  0
 34 76  2  0  0  0  0
 35 52  1  0  0  0  0
 35 72  1  0  0  0  0
 35 77  2  0  0  0  0
 36 62  1  0  0  0  0
 36 67  1  0  0  0  0
 36 78  2  0  0  0  0
 37 63  1  0  0  0  0
 37 73  1  0  0  0  0
 37 79  2  0  0  0  0
 38 68  1  0  0  0  0
 38 71  1  0  0  0  0
 38 80  2  0  0  0  0
 39 42  1  0  0  0  0
 40 52  1  0  0  0  0
 41 67  1  0  0  0  0
 42 45  1  0  0  0  0
 43 46  1  0  0  0  0
 43 48  1  0  0  0  0
 44 47  1  0  0  0  0
 44 50  1  0  0  0  0
 45 51  1  0  0  0  0
 46 53  1  0  0  0  0
 47 54  1  0  0  0  0
 48 68  1  0  0  0  0
 49 53  1  0  0  0  0
 49 68  1  0  0  0  0
 50 74  1  0  0  0  0
 51 72  1  0  0  0  0
 52 67  1  0  0  0  0
 53 66  1  0  0  0  0
 54 61  1  0  0  0  0
 54 74  1  0  0  0  0
 55 63  1  0  0  0  0
 56 64  1  0  0  0  0
 57 64  1  0  0  0  0
 58 64  1  0  0  0  0
 59 75  1  0  0  0  0
 60 74  1  0  0  0  0
 61 82  1  0  0  0  0
 62 64  1  0  0  0  0
 62 73  1  0  0  0  0
 63 75  1  0  0  0  0
 65 66  1  0  0  0  0
M  CHG  2  74   1  75   1
M  ISO  4  38 100  61 101  71 100  82 101
M  END
> <Batch ID>
0020

> <Smiles>
CNC(C)C(=O)NC(C(=O)N1Cc2cc([101O:1][101CH2:1]C3CCCN3Cc3ccc([100NH:0][100C:0](=O)N4CCCC(n5nc(-c6ccc(Oc7ccc(F)cc7F)cc6)c(C(N)=O)c5N)C4)cc3)ccc2CC1C(=O)NC1CCCc2ccccc21)C(C)(C)C

> <Shape>
0.228

> <Color>
0.067

> <Negative vol penalty>
0.000

$$$$

  -OEChem-04042321083D

 87 96  0     1  0  0  0  0  0999 V2000
  -31.1141  -38.7789   18.5765 C   0  0  0  0  0  0  0  0  0  0  0  0
  -30.9472  -37.6557   17.7729 C   0  0  0  0  0  0  0  0  0  0  0  0
  -22.7021  -10.1386   20.1111 C   0  0  0  0  0  0  0  0  0  0  0  0
  -24.4125   -9.2774   21.5841 C   0  0  0  0  0  0  0  0  0  0  0  0
  -31.1016  -38.6496   19.9647 C   0  0  0  0  0  0  0  0  0  0  0  0
  -30.7688  -36.4021   18.3570 C   0  0  0  0  0  0  0  0  0  0  0  0
  -27.3930  -30.1747   17.2894 C   0  0  0  0  0  0  0  0  0  0  0  0
  -29.7868  -17.9522   19.6292 C   0  0  0  0  0  0  0  0  0  0  0  0
  -28.9078  -18.7855   21.7197 C   0  0  0  0  0  0  0  0  0  0  0  0
  -29.9620  -19.2614   19.1811 C   0  0  0  0  0  0  0  0  0  0  0  0
  -29.0830  -20.0947   21.2715 C   0  0  0  0  0  0  0  0  0  0  0  0
  -22.0072   -8.9336   20.2135 C   0  0  0  0  0  0  0  0  0  0  0  0
  -23.7175   -8.0723   21.6866 C   0  0  0  0  0  0  0  0  0  0  0  0
  -27.6489  -28.8050   17.2427 C   0  0  0  0  0  0  0  0  0  0  0  0
  -21.0396   -6.8784   23.3669 C   0  0  0  0  0  0  0  0  0  0  0  0
  -20.8979   -6.3197   24.6371 C   0  0  0  0  0  0  0  0  0  0  0  0
  -27.5656  -28.7135   19.6518 C   0  0  0  0  0  0  0  0  0  0  0  0
  -22.0696   -4.3406   23.8973 C   0  0  0  0  0  0  0  0  0  0  0  0
  -23.9049  -10.3105   20.7963 C   0  0  0  0  0  0  0  0  0  0  0  0
  -24.1642  -12.8353   21.0527 C   0  0  0  0  0  0  0  0  0  0  0  0
  -30.9133  -37.3953   20.5662 C   0  0  0  0  0  0  0  0  0  0  0  0
  -27.2320  -30.8272   18.5201 C   0  0  0  0  0  0  0  0  0  0  0  0
  -30.7551  -36.2557   19.7546 C   0  0  0  0  0  0  0  0  0  0  0  0
  -27.3052  -30.0911   19.7113 C   0  0  0  0  0  0  0  0  0  0  0  0
  -29.2596  -17.7142   20.8986 C   0  0  0  0  0  0  0  0  0  0  0  0
  -29.6102  -20.3327   20.0022 C   0  0  0  0  0  0  0  0  0  0  0  0
  -22.5148   -7.9005   21.0012 C   0  0  0  0  0  0  0  0  0  0  0  0
  -27.7381  -28.0747   18.4242 C   0  0  0  0  0  0  0  0  0  0  0  0
  -21.6962   -6.1682   22.3619 C   0  0  0  0  0  0  0  0  0  0  0  0
  -21.4129   -5.0509   24.9023 C   0  0  0  0  0  0  0  0  0  0  0  0
  -22.2112   -4.8993   22.6271 C   0  0  0  0  0  0  0  0  0  0  0  0
  -24.6236  -11.5549   20.6905 C   0  0  0  0  0  0  0  0  0  0  0  0
  -25.2131  -13.6721   20.7594 C   0  0  0  0  0  0  0  0  0  0  0  0
  -22.9022  -13.2328   21.6049 C   0  0  0  0  0  0  0  0  0  0  0  0
  -28.7745  -33.1501   20.0462 C   0  0  0  0  0  0  0  0  0  0  0  0
  -26.3178  -32.8707   22.1459 C   0  0  0  0  0  0  0  0  0  0  0  0
  -23.8447  -30.9269   23.4695 C   0  0  0  0  0  0  0  0  0  0  0  0
  -30.8197  -14.4921   21.2191 C   0  0  0  0  0  0  0  0  0  0  0  0
  -30.9545  -37.2981   22.0707 C   0  0  0  0  0  0  0  0  0  0  0  0
  -26.9299  -32.3004   18.5524 C   0  0  0  0  0  0  0  0  0  0  0  0
  -27.1198  -30.7406   21.0575 C   0  0  0  0  0  0  0  0  0  0  0  0
  -30.3854  -35.9893   22.6124 C   0  0  0  0  0  0  0  0  0  0  0  0
  -29.4777  -12.8560   18.1820 C   0  0  0  0  0  0  0  0  0  0  0  0
  -30.9366  -34.8025   21.8285 C   0  0  0  0  0  0  0  0  0  0  0  0
  -28.0837  -12.4179   18.6280 C   0  0  0  0  0  0  0  0  0  0  0  0
  -29.0178  -24.3933   20.5057 C   0  0  0  0  0  0  0  0  0  0  0  0
  -28.4929  -25.8325   20.5522 C   0  0  0  0  0  0  0  0  0  0  0  0
  -27.2211  -24.5163   18.9397 C   0  0  0  0  0  0  0  0  0  0  0  0
  -30.4540  -12.9191   19.3526 C   0  0  0  0  0  0  0  0  0  0  0  0
  -28.5928  -13.3306   20.9277 C   0  0  0  0  0  0  0  0  0  0  0  0
  -30.5342  -34.8825   20.3509 C   0  0  1  0  0  0  0  0  0  0  0  0
  -27.2937  -32.9559   19.8810 C   0  0  1  0  0  0  0  0  0  0  0  0
  -27.5730  -13.3017   19.7793 C   0  0  2  0  0  0  0  0  0  0  0  0
  -28.5877  -23.8824   19.1418 C   0  0  2  0  0  0  0  0  0  0  0  0
  -27.4491  -25.9432   19.4337 C   0  0  2  0  0  0  0  0  0  1  0  0
  -22.0240  -30.9605   25.1962 C   0  0  0  0  0  0  0  0  0  0  0  0
  -28.4027  -32.5298   24.3474 C   0  0  0  0  0  0  0  0  0  0  0  0
  -26.5918  -31.6372   25.8280 C   0  0  0  0  0  0  0  0  0  0  0  0
  -26.4578  -33.9747   24.9672 C   0  0  0  0  0  0  0  0  0  0  0  0
  -31.2254  -16.5181   22.5646 C   0  0  0  0  0  0  0  0  0  0  0  0
  -21.7441  -30.4892   21.4312 C   0  0  0  0  0  0  0  0  0  0  0  0
  -28.0002  -21.8657   17.8044 C   0  0  0  0  0  0  0  0  0  0  0  0
  -29.0719  -16.3148   21.3785 C   0  0  0  0  0  0  0  0  0  0  0  0
  -29.8006  -21.7406   19.5200 C   0  0  0  0  0  0  0  0  0  0  0  0
  -26.0572  -32.0455   23.3829 C   0  0  1  0  0  0  0  0  0  0  0  0
  -22.3772  -31.2081   23.7379 C   0  0  2  0  0  0  0  0  0  0  0  0
  -26.8828  -32.5346   24.6063 C   0  0  0  0  0  0  0  0  0  0  0  0
  -25.8674  -11.5718   20.2041 N   0  0  0  0  0  0  0  0  0  0  0  0
  -26.1985  -12.8731   20.2585 N   0  0  0  0  0  0  0  0  0  0  0  0
  -26.8326  -32.1844   21.0370 N   0  0  0  0  0  0  0  0  0  0  0  0
  -29.9251  -13.7299   20.4499 N   0  0  0  0  0  0  0  0  0  0  0  0
  -25.3795  -15.0060   20.8835 N   0  0  0  0  0  0  0  0  0  0  0  0
  -22.7607  -13.2568   22.9991 N   0  0  0  0  0  0  0  0  0  0  0  0
  -29.1574  -34.4711   20.1791 N   0  0  0  0  0  0  0  0  0  0  0  0
  -24.6132  -32.0653   23.5901 N   0  0  0  0  0  0  0  0  0  0  0  0
  -30.3326  -15.6875   21.7690 N   0  0  0  0  0  0  0  0  0  0  0  0
  -21.5187  -30.3324   22.8912 N   0  3  0  0  0  0  0  0  0  0  0  0
  -28.5040  -22.4117   19.1226 N   0  3  1  0  0  0  0  0  0  0  0  0
  -21.9237  -13.5414   20.8832 O   0  0  0  0  0  0  0  0  0  0  0  0
  -29.5147  -32.1735   20.0541 O   0  0  0  0  0  0  0  0  0  0  0  0
  -26.0668  -34.0784   22.1606 O   0  0  0  0  0  0  0  0  0  0  0  0
  -24.2674  -29.8084   23.1853 O   0  0  0  0  0  0  0  0  0  0  0  0
  -31.9899  -14.1298   21.3958 O   0  0  0  0  0  0  0  0  0  0  0  0
  -21.8368   -6.7246   21.1016 O   0  0  0  0  0  0  0  0  0  0  0  0
  -27.9885  -26.7378   18.3815 O   0  0  0  0  0  0  0  0  0  1  0  0
  -21.2781   -4.5151   26.1226 F   0  0  0  0  0  0  0  0  0  0  0  0
  -22.8441   -4.2127   21.6659 F   0  0  0  0  0  0  0  0  0  0  0  0
  1  2  1  0  0  0  0
  1  5  2  0  0  0  0
  2  6  2  0  0  0  0
  3 12  2  0  0  0  0
  3 19  1  0  0  0  0
  4 13  1  0  0  0  0
  4 19  2  0  0  0  0
  5 21  1  0  0  0  0
  6 23  1  0  0  0  0
  7 14  2  0  0  0  0
  7 22  1  0  0  0  0
  8 10  2  0  0  0  0
  8 25  1  0  0  0  0
  9 11  1  0  0  0  0
  9 25  2  0  0  0  0
 10 26  1  0  0  0  0
 11 26  2  0  0  0  0
 12 27  1  0  0  0  0
 13 27  2  0  0  0  0
 14 28  1  0  0  0  0
 15 16  2  0  0  0  0
 15 29  1  0  0  0  0
 16 30  1  0  0  0  0
 17 24  1  0  0  0  0
 17 28  2  0  0  0  0
 18 30  2  0  0  0  0
 18 31  1  0  0  0  0
 19 32  1  0  0  0  0
 20 32  1  0  0  0  0
 20 33  2  0  0  0  0
 20 34  1  0  0  0  0
 21 23  2  0  0  0  0
 21 39  1  0  0  0  0
 22 24  2  0  0  0  0
 22 40  1  0  0  0  0
 23 51  1  0  0  0  0
 24 41  1  0  0  0  0
 25 63  1  0  0  0  0
 26 64  1  0  0  0  0
 27 84  1  0  0  0  0
 28 85  1  0  0  0  0
 29 31  2  0  0  0  0
 29 84  1  0  0  0  0
 30 86  1  0  0  0  0
 31 87  1  0  0  0  0
 32 68  2  0  0  0  0
 33 69  1  0  0  0  0
 33 72  1  0  0  0  0
 34 73  1  0  0  0  0
 34 79  2  0  0  0  0
 35 52  1  0  0  0  0
 35 74  1  0  0  0  0
 35 80  2  0  0  0  0
 36 65  1  0  0  0  0
 36 70  1  0  0  0  0
 36 81  2  0  0  0  0
 37 66  1  0  0  0  0
 37 75  1  0  0  0  0
 37 82  2  0  0  0  0
 38 71  1  0  0  0  0
 38 76  1  0  0  0  0
 38 83  2  0  0  0  0
 39 42  1  0  0  0  0
 40 52  1  0  0  0  0
 41 70  1  0  0  0  0
 42 44  1  0  0  0  0
 43 45  1  0  0  0  0
 43 49  1  0  0  0  0
 44 51  1  0  0  0  0
 45 53  1  0  0  0  0
 46 47  1  0  0  0  0
 46 54  1  0  0  0  0
 47 55  1  0  0  0  0
 48 54  1  0  0  0  0
 48 55  1  0  0  0  0
 49 71  1  0  0  0  0
 50 53  1  0  0  0  0
 50 71  1  0  0  0  0
 51 74  1  0  0  0  0
 52 70  1  0  0  0  0
 53 69  1  0  0  0  0
 54 78  1  0  0  0  0
 55 85  1  0  0  0  0
 56 66  1  0  0  0  0
 57 67  1  0  0  0  0
 58 67  1  0  0  0  0
 59 67  1  0  0  0  0
 60 76  1  0  0  0  0
 61 77  1  0  0  0  0
 62 78  1  0  0  0  0
 63 76  1  0  0  0  0
 64 78  1  0  0  0  0
 65 67  1  0  0  0  0
 65 75  1  0  0  0  0
 66 77  1  0  0  0  0
 68 69  1  0  0  0  0
M  CHG  2  77   1  78   1
M  ISO  4  38 100  55 101  76 100  85 101
M  END
> <Batch ID>
0020

> <Smiles>
CNC(C)C(=O)NC(C(=O)N1Cc2cc([101O:1][101CH:1]3CCC(N(C)Cc4ccc(C[100N:0](C)[100C:0](=O)N5CCCC(n6nc(-c7ccc(Oc8ccc(F)cc8F)cc7)c(C(N)=O)c6N)C5)cc4)C3)ccc2CC1C(=O)NC1CCCc2ccccc21)C(C)(C)C

> <Shape>
0.351

> <Color>
0.178

> <Negative vol penalty>
0.000

$$$$

  -OEChem-04042321083D

 86 94  0     1  0  0  0  0  0999 V2000
  -16.6206  -29.1919   24.0355 C   0  0  0  0  0  0  0  0  0  0  0  0
  -17.0437  -28.4717   22.9230 C   0  0  0  0  0  0  0  0  0  0  0  0
  -26.1804  -14.6722   20.8431 C   0  0  0  0  0  0  0  0  0  0  0  0
  -26.8259  -14.1814   18.5672 C   0  0  0  0  0  0  0  0  0  0  0  0
  -17.3842  -30.2598   24.5049 C   0  0  0  0  0  0  0  0  0  0  0  0
  -18.2303  -28.8197   22.2786 C   0  0  0  0  0  0  0  0  0  0  0  0
  -24.5396  -24.4811   20.7307 C   0  0  0  0  0  0  0  0  0  0  0  0
  -26.6079  -24.5488   15.4587 C   0  0  0  0  0  0  0  0  0  0  0  0
  -26.0126  -13.3096   21.0893 C   0  0  0  0  0  0  0  0  0  0  0  0
  -26.6581  -12.8187   18.8135 C   0  0  0  0  0  0  0  0  0  0  0  0
  -25.7735  -23.8583   20.5411 C   0  0  0  0  0  0  0  0  0  0  0  0
  -23.6893  -10.9343   20.4686 C   0  0  0  0  0  0  0  0  0  0  0  0
  -22.5422  -10.5372   21.1555 C   0  0  0  0  0  0  0  0  0  0  0  0
  -27.3773  -25.7088   15.3699 C   0  0  0  0  0  0  0  0  0  0  0  0
  -26.8802  -26.0075   20.6056 C   0  0  0  0  0  0  0  0  0  0  0  0
  -29.3496  -24.3705   14.9747 C   0  0  0  0  0  0  0  0  0  0  0  0
  -23.9164   -9.5863   22.9004 C   0  0  0  0  0  0  0  0  0  0  0  0
  -26.5871  -15.1081   19.5820 C   0  0  0  0  0  0  0  0  0  0  0  0
  -27.9350  -17.2722   19.4967 C   0  0  0  0  0  0  0  0  0  0  0  0
  -18.5857  -30.6150   23.8717 C   0  0  0  0  0  0  0  0  0  0  0  0
  -24.4731  -25.8698   20.8740 C   0  0  0  0  0  0  0  0  0  0  0  0
  -19.0101  -29.8942   22.7391 C   0  0  0  0  0  0  0  0  0  0  0  0
  -25.6486  -26.6357   20.8082 C   0  0  0  0  0  0  0  0  0  0  0  0
  -28.5801  -23.2104   15.0635 C   0  0  0  0  0  0  0  0  0  0  0  0
  -27.2093  -23.2996   15.3055 C   0  0  0  0  0  0  0  0  0  0  0  0
  -26.2514  -12.3828   20.0746 C   0  0  0  0  0  0  0  0  0  0  0  0
  -26.9408  -24.6197   20.4784 C   0  0  0  0  0  0  0  0  0  0  0  0
  -24.9500  -10.6574   20.9974 C   0  0  0  0  0  0  0  0  0  0  0  0
  -22.6557   -9.8632   22.3715 C   0  0  0  0  0  0  0  0  0  0  0  0
  -25.0636   -9.9834   22.2134 C   0  0  0  0  0  0  0  0  0  0  0  0
  -28.7481  -25.6197   15.1279 C   0  0  0  0  0  0  0  0  0  0  0  0
  -26.7601  -16.5156   19.3268 C   0  0  0  0  0  0  0  0  0  0  0  0
  -27.5811  -18.5450   19.1210 C   0  0  0  0  0  0  0  0  0  0  0  0
  -29.2306  -16.8612   19.9532 C   0  0  0  0  0  0  0  0  0  0  0  0
  -22.3136  -28.8879   21.4249 C   0  0  0  0  0  0  0  0  0  0  0  0
  -24.8574  -29.2964   23.0900 C   0  0  0  0  0  0  0  0  0  0  0  0
  -27.6076  -29.1692   25.1043 C   0  0  0  0  0  0  0  0  0  0  0  0
  -25.0382  -22.0654   15.6362 C   0  0  0  0  0  0  0  0  0  0  0  0
  -19.3531  -31.8067   24.3870 C   0  0  0  0  0  0  0  0  0  0  0  0
  -23.1592  -26.5887   21.0184 C   0  0  0  0  0  0  0  0  0  0  0  0
  -25.5251  -28.1298   20.9328 C   0  0  0  0  0  0  0  0  0  0  0  0
  -20.7891  -31.8750   23.8734 C   0  0  0  0  0  0  0  0  0  0  0  0
  -23.0345  -20.5518   18.1603 C   0  0  0  0  0  0  0  0  0  0  0  0
  -20.8305  -31.6248   22.3692 C   0  0  0  0  0  0  0  0  0  0  0  0
  -23.9218  -19.4290   18.7028 C   0  0  0  0  0  0  0  0  0  0  0  0
  -23.2049  -20.7311   16.6528 C   0  0  0  0  0  0  0  0  0  0  0  0
  -25.4782  -19.7862   16.7440 C   0  0  0  0  0  0  0  0  0  0  0  0
  -20.3041  -30.2255   22.0279 C   0  0  1  0  0  0  0  0  0  0  0  0
  -23.2453  -27.8258   21.9301 C   0  0  1  0  0  0  0  0  0  0  0  0
  -25.3895  -19.6110   18.2688 C   0  0  2  0  0  0  0  0  0  0  0  0
  -29.1109  -19.0188   14.9826 C   0  0  0  0  0  0  0  0  0  0  0  0
  -28.8298  -30.4881   26.8548 C   0  0  0  0  0  0  0  0  0  0  0  0
  -25.9504  -31.1481   20.9265 C   0  0  0  0  0  0  0  0  0  0  0  0
  -27.8025  -31.7684   22.4928 C   0  0  0  0  0  0  0  0  0  0  0  0
  -25.4362  -32.2725   23.1004 C   0  0  0  0  0  0  0  0  0  0  0  0
  -27.2453  -27.0397   27.1274 C   0  0  0  0  0  0  0  0  0  0  0  0
  -29.2529  -21.8801   14.8947 C   0  0  0  0  0  0  0  0  0  0  0  0
  -29.2944  -22.9119   17.8786 C   0  0  0  0  0  0  0  0  0  0  0  0
  -30.0654  -23.7660   18.8822 C   0  0  0  0  0  0  0  0  0  0  0  0
  -29.9944  -19.7571   15.9642 C   0  0  0  0  0  0  0  0  0  0  0  0
  -30.2133  -21.9123   17.1922 C   0  0  0  0  0  0  0  0  0  0  0  0
  -29.1512  -24.7425   19.6087 C   0  0  0  0  0  0  0  0  0  1  0  0
  -26.2468  -29.8783   23.1550 C   0  0  1  0  0  0  0  0  0  0  0  0
  -27.7796  -29.4201   26.5916 C   0  0  2  0  0  0  0  0  0  0  0  0
  -26.3546  -31.2396   22.4115 C   0  0  0  0  0  0  0  0  0  0  0  0
  -25.7363  -17.2468   18.8782 N   0  0  0  0  0  0  0  0  0  0  0  0
  -26.2668  -18.4762   18.7631 N   0  0  0  0  0  0  0  0  0  0  0  0
  -24.5691  -28.4676   21.9989 N   0  0  0  0  0  0  0  0  0  0  0  0
  -24.6200  -20.9023   16.3166 N   0  0  0  0  0  0  0  0  0  0  0  0
  -28.2691  -19.7052   19.0651 N   0  0  0  0  0  0  0  0  0  0  0  0
  -29.4217  -15.5163   20.2983 N   0  0  0  0  0  0  0  0  0  0  0  0
  -26.4108  -22.1328   15.3996 N   0  0  0  0  0  0  0  0  0  0  0  0
  -21.3094  -29.2241   22.3126 N   0  0  0  0  0  0  0  0  0  0  0  0
  -26.5975  -29.9407   24.5697 N   0  0  0  0  0  0  0  0  0  0  0  0
  -28.1989  -28.1682   27.2829 N   0  3  0  0  0  0  0  0  0  0  0  0
  -29.4324  -21.1386   16.1971 N   0  3  1  0  0  0  0  0  0  0  0  0
  -30.1857  -17.6662   20.0679 O   0  0  0  0  0  0  0  0  0  0  0  0
  -22.4924  -29.3690   20.3121 O   0  0  0  0  0  0  0  0  0  0  0  0
  -24.0459  -29.5721   23.9781 O   0  0  0  0  0  0  0  0  0  0  0  0
  -28.3024  -28.3716   24.4786 O   0  0  0  0  0  0  0  0  0  0  0  0
  -24.2414  -22.9501   15.3131 O   0  0  0  0  0  0  0  0  0  0  0  0
  -26.0879  -11.0531   20.3146 O   0  0  0  0  0  0  0  0  0  0  0  0
  -28.1425  -24.0048   20.2977 O   0  0  0  0  0  0  0  0  0  1  0  0
  -21.5541   -9.4832   23.0318 F   0  0  0  0  0  0  0  0  0  0  0  0
  -26.2719   -9.7157   22.7271 F   0  0  0  0  0  0  0  0  0  0  0  0
  -29.6968  -27.0516   15.0175 Cl  0  0  0  0  0  0  0  0  0  0  0  0
  1  2  1  0  0  0  0
  1  5  2  0  0  0  0
  2  6  2  0  0  0  0
  3  9  2  0  0  0  0
  3 18  1  0  0  0  0
  4 10  1  0  0  0  0
  4 18  2  0  0  0  0
  5 20  1  0  0  0  0
  6 22  1  0  0  0  0
  7 11  2  0  0  0  0
  7 21  1  0  0  0  0
  8 14  2  0  0  0  0
  8 25  1  0  0  0  0
  9 26  1  0  0  0  0
 10 26  2  0  0  0  0
 11 27  1  0  0  0  0
 12 13  2  0  0  0  0
 12 28  1  0  0  0  0
 13 29  1  0  0  0  0
 14 31  1  0  0  0  0
 15 23  1  0  0  0  0
 15 27  2  0  0  0  0
 16 24  1  0  0  0  0
 16 31  2  0  0  0  0
 17 29  2  0  0  0  0
 17 30  1  0  0  0  0
 18 32  1  0  0  0  0
 19 32  1  0  0  0  0
 19 33  2  0  0  0  0
 19 34  1  0  0  0  0
 20 22  2  0  0  0  0
 20 39  1  0  0  0  0
 21 23  2  0  0  0  0
 21 40  1  0  0  0  0
 22 48  1  0  0  0  0
 23 41  1  0  0  0  0
 24 25  2  0  0  0  0
 24 57  1  0  0  0  0
 25 72  1  0  0  0  0
 26 82  1  0  0  0  0
 27 83  1  0  0  0  0
 28 30  2  0  0  0  0
 28 82  1  0  0  0  0
 29 84  1  0  0  0  0
 30 85  1  0  0  0  0
 31 86  1  0  0  0  0
 32 66  2  0  0  0  0
 33 67  1  0  0  0  0
 33 70  1  0  0  0  0
 34 71  1  0  0  0  0
 34 77  2  0  0  0  0
 35 49  1  0  0  0  0
 35 73  1  0  0  0  0
 35 78  2  0  0  0  0
 36 63  1  0  0  0  0
 36 68  1  0  0  0  0
 36 79  2  0  0  0  0
 37 64  1  0  0  0  0
 37 74  1  0  0  0  0
 37 80  2  0  0  0  0
 38 69  1  0  0  0  0
 38 72  1  0  0  0  0
 38 81  2  0  0  0  0
 39 42  1  0  0  0  0
 40 49  1  0  0  0  0
 41 68  1  0  0  0  0
 42 44  1  0  0  0  0
 43 45  1  0  0  0  0
 43 46  1  0  0  0  0
 44 48  1  0  0  0  0
 45 50  1  0  0  0  0
 46 69  1  0  0  0  0
 47 50  1  0  0  0  0
 47 69  1  0  0  0  0
 48 73  1  0  0  0  0
 49 68  1  0  0  0  0
 50 67  1  0  0  0  0
 51 60  1  0  0  0  0
 52 64  1  0  0  0  0
 53 65  1  0  0  0  0
 54 65  1  0  0  0  0
 55 65  1  0  0  0  0
 56 75  1  0  0  0  0
 57 76  1  0  0  0  0
 58 59  1  0  0  0  0
 58 61  1  0  0  0  0
 59 62  1  0  0  0  0
 60 76  1  0  0  0  0
 61 76  1  0  0  0  0
 62 83  1  0  0  0  0
 63 65  1  0  0  0  0
 63 74  1  0  0  0  0
 64 75  1  0  0  0  0
 66 67  1  0  0  0  0
M  CHG  2  75   1  76   1
M  ISO  4  38 100  62 101  72 100  83 101
M  END
> <Batch ID>
0020

> <Smiles>
CCN(CCC[101CH2:1][101O:1]c1ccc2c(c1)CN(C(=O)C(NC(=O)C(C)NC)C(C)(C)C)C(C(=O)NC1CCCc3ccccc31)C2)Cc1cc(Cl)ccc1[100NH:0][100C:0](=O)N1CCCC(n2nc(-c3ccc(Oc4ccc(F)cc4F)cc3)c(C(N)=O)c2N)C1

> <Shape>
0.229

> <Color>
0.079

> <Negative vol penalty>
0.000

$$$$
