
  -OEChem-04042321113D

 86 94  0     1  0  0  0  0  0999 V2000
  -18.5134  -32.7496   24.6390 C   0  0  0  0  0  0  0  0  0  0  0  0
  -19.8032  -32.9389   24.1534 C   0  0  0  0  0  0  0  0  0  0  0  0
  -25.6251   -8.9370   21.6346 C   0  0  0  0  0  0  0  0  0  0  0  0
  -24.4159  -10.2592   23.2553 C   0  0  0  0  0  0  0  0  0  0  0  0
  -27.6670  -21.9433   18.0998 C   0  0  0  0  0  0  0  0  0  0  0  0
  -18.0677  -31.4652   24.9483 C   0  0  0  0  0  0  0  0  0  0  0  0
  -20.6486  -31.8440   23.9778 C   0  0  0  0  0  0  0  0  0  0  0  0
  -25.9262  -29.4879   19.7455 C   0  0  0  0  0  0  0  0  0  0  0  0
  -28.6584  -22.9174   17.9821 C   0  0  0  0  0  0  0  0  0  0  0  0
  -25.7183   -7.8935   22.5555 C   0  0  0  0  0  0  0  0  0  0  0  0
  -24.5090   -9.2157   24.1762 C   0  0  0  0  0  0  0  0  0  0  0  0
  -27.2194  -28.9726   19.8219 C   0  0  0  0  0  0  0  0  0  0  0  0
  -22.9633   -6.2683   24.7630 C   0  0  0  0  0  0  0  0  0  0  0  0
  -21.8145   -5.9344   25.4801 C   0  0  0  0  0  0  0  0  0  0  0  0
  -28.4036  -21.4655   20.3506 C   0  0  0  0  0  0  0  0  0  0  0  0
  -26.3146  -26.7913   20.3146 C   0  0  0  0  0  0  0  0  0  0  0  0
  -22.9615   -6.4293   27.5481 C   0  0  0  0  0  0  0  0  0  0  0  0
  -24.9739  -10.1199   21.9846 C   0  0  0  0  0  0  0  0  0  0  0  0
  -27.5396  -21.2174   19.2841 C   0  0  0  0  0  0  0  0  0  0  0  0
  -23.8527  -11.4139   20.0935 C   0  0  0  0  0  0  0  0  0  0  0  0
  -18.9048  -30.3529   24.7672 C   0  0  0  0  0  0  0  0  0  0  0  0
  -24.8159  -28.6597   19.9642 C   0  0  0  0  0  0  0  0  0  0  0  0
  -20.2142  -30.5437   24.2862 C   0  0  0  0  0  0  0  0  0  0  0  0
  -25.0083  -27.2980   20.2379 C   0  0  0  0  0  0  0  0  0  0  0  0
  -29.5225  -23.1655   19.0486 C   0  0  0  0  0  0  0  0  0  0  0  0
  -25.1602   -8.0328   23.8262 C   0  0  0  0  0  0  0  0  0  0  0  0
  -27.4139  -27.6247   20.1094 C   0  0  0  0  0  0  0  0  0  0  0  0
  -24.1113   -6.6827   25.4384 C   0  0  0  0  0  0  0  0  0  0  0  0
  -21.8135   -6.0149   26.8727 C   0  0  0  0  0  0  0  0  0  0  0  0
  -24.1103   -6.7632   26.8310 C   0  0  0  0  0  0  0  0  0  0  0  0
  -29.3951  -22.4396   20.2329 C   0  0  0  0  0  0  0  0  0  0  0  0
  -24.8778  -11.1984   21.0339 C   0  0  0  0  0  0  0  0  0  0  0  0
  -24.2250  -12.5612   19.4365 C   0  0  0  0  0  0  0  0  0  0  0  0
  -26.4862  -20.1884   19.4096 C   0  0  0  0  0  0  0  0  0  0  0  0
  -22.6696  -10.6457   19.8368 C   0  0  0  0  0  0  0  0  0  0  0  0
  -22.4528  -28.5907   22.0889 C   0  0  0  0  0  0  0  0  0  0  0  0
  -21.3452  -26.1985   20.1987 C   0  0  0  0  0  0  0  0  0  0  0  0
  -30.2385  -25.5147   19.2550 C   0  0  0  0  0  0  0  0  0  0  0  0
  -22.0303  -23.7598   17.9117 C   0  0  0  0  0  0  0  0  0  0  0  0
  -25.9856  -17.7862   19.8042 C   0  0  0  0  0  0  0  0  0  0  0  0
  -18.3948  -28.9890   25.1601 C   0  0  0  0  0  0  0  0  0  0  0  0
  -23.4267  -29.2252   19.8517 C   0  0  0  0  0  0  0  0  0  0  0  0
  -23.8492  -26.3624   20.4607 C   0  0  0  0  0  0  0  0  0  0  0  0
  -19.2251  -27.8412   24.5914 C   0  0  0  0  0  0  0  0  0  0  0  0
  -28.5530  -15.1321   19.4558 C   0  0  0  0  0  0  0  0  0  0  0  0
  -20.7134  -28.1069   24.7949 C   0  0  0  0  0  0  0  0  0  0  0  0
  -27.7421  -13.8989   19.8384 C   0  0  0  0  0  0  0  0  0  0  0  0
  -28.0829  -16.3846   20.1943 C   0  0  0  0  0  0  0  0  0  0  0  0
  -25.8078  -15.4099   20.4175 C   0  0  0  0  0  0  0  0  0  0  0  0
  -21.1525  -29.3783   24.0587 C   0  0  1  0  0  0  0  0  0  0  0  0
  -22.3836  -28.4008   20.6000 C   0  0  1  0  0  0  0  0  0  0  0  0
  -26.2426  -14.1604   19.6382 C   0  0  2  0  0  0  0  0  0  0  0  0
  -31.8896  -23.9119   16.8736 C   0  0  0  0  0  0  0  0  0  0  0  0
  -20.9264  -21.9418   16.5801 C   0  0  0  0  0  0  0  0  0  0  0  0
  -21.1982  -24.4585   22.7008 C   0  0  0  0  0  0  0  0  0  0  0  0
  -21.0210  -22.4537   21.2116 C   0  0  0  0  0  0  0  0  0  0  0  0
  -19.2555  -24.2147   21.1449 C   0  0  0  0  0  0  0  0  0  0  0  0
  -22.8026  -25.0122   15.3438 C   0  0  0  0  0  0  0  0  0  0  0  0
  -28.8481  -25.7487   19.8279 C   0  0  0  0  0  0  0  0  0  1  0  0
  -31.8573  -23.8016   18.3600 C   0  0  0  0  0  0  0  0  0  0  0  0
  -21.5290  -24.7009   20.1517 C   0  0  1  0  0  0  0  0  0  0  0  0
  -21.3658  -23.3976   16.5958 C   0  0  2  0  0  0  0  0  0  0  0  0
  -20.7730  -23.9747   21.3000 C   0  0  0  0  0  0  0  0  0  0  0  0
  -25.8300  -12.1337   20.9821 N   0  0  0  0  0  0  0  0  0  0  0  0
  -25.4047  -12.9479   20.0012 N   0  0  0  0  0  0  0  0  0  0  0  0
  -22.5104  -26.9642   20.3465 N   0  0  0  0  0  0  0  0  0  0  0  0
  -26.6304  -16.5780   20.0848 N   0  0  0  0  0  0  0  0  0  0  0  0
  -23.6551  -13.2668   18.4367 N   0  0  0  0  0  0  0  0  0  0  0  0
  -22.4406   -9.4951   20.6036 N   0  0  0  0  0  0  0  0  0  0  0  0
  -26.8664  -18.9241   19.6507 N   0  0  0  0  0  0  0  0  0  0  0  0
  -21.3014  -29.1167   22.6431 N   0  0  0  0  0  0  0  0  0  0  0  0
  -21.1271  -24.2821   18.8132 N   0  0  0  0  0  0  0  0  0  0  0  0
  -30.5405  -24.1847   18.8922 N   0  0  0  0  0  0  0  0  0  0  0  0
  -25.2204  -20.5814   19.2693 N   0  3  0  0  0  0  0  0  0  0  0  0
  -22.3082  -23.6163   15.4622 N   0  3  0  0  0  0  0  0  0  0  0  0
  -21.8484  -10.9610   18.9425 O   0  0  0  0  0  0  0  0  0  0  0  0
  -23.4745  -28.2815   22.6907 O   0  0  0  0  0  0  0  0  0  0  0  0
  -20.2104  -26.6719   20.1004 O   0  0  0  0  0  0  0  0  0  0  0  0
  -31.0141  -26.4702   19.1705 O   0  0  0  0  0  0  0  0  0  0  0  0
  -23.2299  -23.5925   18.1204 O   0  0  0  0  0  0  0  0  0  0  0  0
  -24.7728  -17.9434   19.7137 O   0  0  0  0  0  0  0  0  0  0  0  0
  -25.2508   -7.0146   24.7250 O   0  0  0  0  0  0  0  0  0  0  0  0
  -28.6751  -27.1193   20.1852 O   0  0  0  0  0  0  0  0  0  1  0  0
  -20.7098   -5.6956   27.5611 F   0  0  0  0  0  0  0  0  0  0  0  0
  -25.2098   -7.1617   27.4853 F   0  0  0  0  0  0  0  0  0  0  0  0
  -30.4460  -22.7121   21.5771 Cl  0  0  0  0  0  0  0  0  0  0  0  0
  1  2  1  0  0  0  0
  1  6  2  0  0  0  0
  2  7  2  0  0  0  0
  3 10  2  0  0  0  0
  3 18  1  0  0  0  0
  4 11  1  0  0  0  0
  4 18  2  0  0  0  0
  5  9  2  0  0  0  0
  5 19  1  0  0  0  0
  6 21  1  0  0  0  0
  7 23  1  0  0  0  0
  8 12  2  0  0  0  0
  8 22  1  0  0  0  0
  9 25  1  0  0  0  0
 10 26  1  0  0  0  0
 11 26  2  0  0  0  0
 12 27  1  0  0  0  0
 13 14  2  0  0  0  0
 13 28  1  0  0  0  0
 14 29  1  0  0  0  0
 15 19  2  0  0  0  0
 15 31  1  0  0  0  0
 16 24  1  0  0  0  0
 16 27  2  0  0  0  0
 17 29  2  0  0  0  0
 17 30  1  0  0  0  0
 18 32  1  0  0  0  0
 19 34  1  0  0  0  0
 20 32  1  0  0  0  0
 20 33  2  0  0  0  0
 20 35  1  0  0  0  0
 21 23  2  0  0  0  0
 21 41  1  0  0  0  0
 22 24  2  0  0  0  0
 22 42  1  0  0  0  0
 23 50  1  0  0  0  0
 24 43  1  0  0  0  0
 25 31  2  0  0  0  0
 25 73  1  0  0  0  0
 26 82  1  0  0  0  0
 27 83  1  0  0  0  0
 28 30  2  0  0  0  0
 28 82  1  0  0  0  0
 29 84  1  0  0  0  0
 30 85  1  0  0  0  0
 31 86  1  0  0  0  0
 32 64  2  0  0  0  0
 33 65  1  0  0  0  0
 33 68  1  0  0  0  0
 34 70  1  0  0  0  0
 34 74  2  0  0  0  0
 35 69  1  0  0  0  0
 35 76  2  0  0  0  0
 36 51  1  0  0  0  0
 36 71  1  0  0  0  0
 36 77  2  0  0  0  0
 37 61  1  0  0  0  0
 37 66  1  0  0  0  0
 37 78  2  0  0  0  0
 38 59  1  0  0  0  0
 38 73  1  0  0  0  0
 38 79  2  0  0  0  0
 39 62  1  0  0  0  0
 39 72  1  0  0  0  0
 39 80  2  0  0  0  0
 40 67  1  0  0  0  0
 40 70  1  0  0  0  0
 40 81  2  0  0  0  0
 41 44  1  0  0  0  0
 42 51  1  0  0  0  0
 43 66  1  0  0  0  0
 44 46  1  0  0  0  0
 45 47  1  0  0  0  0
 45 48  1  0  0  0  0
 46 50  1  0  0  0  0
 47 52  1  0  0  0  0
 48 67  1  0  0  0  0
 49 52  1  0  0  0  0
 49 67  1  0  0  0  0
 50 71  1  0  0  0  0
 51 66  1  0  0  0  0
 52 65  1  0  0  0  0
 53 60  1  0  0  0  0
 54 62  1  0  0  0  0
 55 63  1  0  0  0  0
 56 63  1  0  0  0  0
 57 63  1  0  0  0  0
 58 75  1  0  0  0  0
 59 83  1  0  0  0  0
 60 73  1  0  0  0  0
 61 63  1  0  0  0  0
 61 72  1  0  0  0  0
 62 75  1  0  0  0  0
 64 65  1  0  0  0  0
M  CHG  2  74   1  75   1
M  ISO  4  40 100  59 101  70 100  83 101
M  END
> <Batch ID>
0021

> <Smiles>
CCN(C(=O)[101CH2:1][101O:1]c1ccc2c(c1)CN(C(=O)C(NC(=O)C(C)NC)C(C)(C)C)C(C(=O)NC1CCCc3ccccc31)C2)c1ccc(C(N)=[100N:0][100C:0](=O)N2CCCC(n3nc(-c4ccc(Oc5ccc(F)cc5F)cc4)c(C(N)=O)c3N)C2)cc1Cl

> <Shape>
0.242

> <Color>
0.089

> <Negative vol penalty>
0.000

$$$$

  -OEChem-04042321113D

 86 95  0     1  0  0  0  0  0999 V2000
  -14.0691  -26.2405   21.7254 C   0  0  0  0  0  0  0  0  0  0  0  0
  -15.0289  -25.2526   21.5297 C   0  0  0  0  0  0  0  0  0  0  0  0
  -23.2319   -9.8286   19.9073 C   0  0  0  0  0  0  0  0  0  0  0  0
  -23.7747   -9.9245   22.2596 C   0  0  0  0  0  0  0  0  0  0  0  0
  -14.0242  -27.3452   20.8760 C   0  0  0  0  0  0  0  0  0  0  0  0
  -15.9437  -25.3684   20.4837 C   0  0  0  0  0  0  0  0  0  0  0  0
  -21.7875  -23.5363   20.4843 C   0  0  0  0  0  0  0  0  0  0  0  0
  -26.9464  -16.4193   17.5015 C   0  0  0  0  0  0  0  0  0  0  0  0
  -28.0105  -15.5594   17.2299 C   0  0  0  0  0  0  0  0  0  0  0  0
  -22.5035   -8.6588   20.1231 C   0  0  0  0  0  0  0  0  0  0  0  0
  -23.0462   -8.7547   22.4754 C   0  0  0  0  0  0  0  0  0  0  0  0
  -22.4121  -22.3929   19.9881 C   0  0  0  0  0  0  0  0  0  0  0  0
  -19.4588   -7.8053   21.3206 C   0  0  0  0  0  0  0  0  0  0  0  0
  -18.2047   -7.7022   20.7187 C   0  0  0  0  0  0  0  0  0  0  0  0
  -22.9757  -23.5846   17.9679 C   0  0  0  0  0  0  0  0  0  0  0  0
  -26.6314  -14.3494   15.6580 C   0  0  0  0  0  0  0  0  0  0  0  0
  -18.9439   -5.7428   19.5140 C   0  0  0  0  0  0  0  0  0  0  0  0
  -23.8675  -10.4615   20.9756 C   0  0  0  0  0  0  0  0  0  0  0  0
  -24.1419  -12.9923   20.8099 C   0  0  0  0  0  0  0  0  0  0  0  0
  -14.9451  -27.4794   19.8250 C   0  0  0  0  0  0  0  0  0  0  0  0
  -21.7428  -24.7113   19.7201 C   0  0  0  0  0  0  0  0  0  0  0  0
  -15.9103  -26.4753   19.6186 C   0  0  0  0  0  0  0  0  0  0  0  0
  -22.3522  -24.7424   18.4577 C   0  0  0  0  0  0  0  0  0  0  0  0
  -25.7247  -16.2442   16.8515 C   0  0  0  0  0  0  0  0  0  0  0  0
  -27.8530  -14.5245   16.3081 C   0  0  0  0  0  0  0  0  0  0  0  0
  -22.4107   -8.1218   21.4071 C   0  0  0  0  0  0  0  0  0  0  0  0
  -23.0037  -22.4160   18.7286 C   0  0  0  0  0  0  0  0  0  0  0  0
  -20.4555   -6.8772   21.0191 C   0  0  0  0  0  0  0  0  0  0  0  0
  -17.9473   -6.6710   19.8155 C   0  0  0  0  0  0  0  0  0  0  0  0
  -25.5673  -15.2093   15.9297 C   0  0  0  0  0  0  0  0  0  0  0  0
  -20.1981   -5.8460   20.1158 C   0  0  0  0  0  0  0  0  0  0  0  0
  -24.6206  -11.6696   20.7532 C   0  0  0  0  0  0  0  0  0  0  0  0
  -25.2397  -13.7672   20.5259 C   0  0  0  0  0  0  0  0  0  0  0  0
  -24.7287  -18.4785   17.5184 C   0  0  0  0  0  0  0  0  0  0  0  0
  -22.8228  -13.4770   21.0940 C   0  0  0  0  0  0  0  0  0  0  0  0
  -19.4217  -26.4860   18.4685 C   0  0  0  0  0  0  0  0  0  0  0  0
  -21.8776  -28.4613   17.7010 C   0  0  0  0  0  0  0  0  0  0  0  0
  -25.2132  -28.8311   17.0812 C   0  0  0  0  0  0  0  0  0  0  0  0
  -29.9460  -13.3123   16.9725 C   0  0  0  0  0  0  0  0  0  0  0  0
  -14.8274  -28.6678   18.9039 C   0  0  0  0  0  0  0  0  0  0  0  0
  -21.0885  -25.9442   20.2807 C   0  0  0  0  0  0  0  0  0  0  0  0
  -22.3494  -25.9847   17.6061 C   0  0  0  0  0  0  0  0  0  0  0  0
  -16.0700  -28.9009   18.0485 C   0  0  0  0  0  0  0  0  0  0  0  0
  -30.1299  -13.1228   20.6635 C   0  0  0  0  0  0  0  0  0  0  0  0
  -16.5444  -27.5907   17.4279 C   0  0  0  0  0  0  0  0  0  0  0  0
  -28.6973  -12.7669   21.0567 C   0  0  0  0  0  0  0  0  0  0  0  0
  -22.4702  -17.7638   17.7480 C   0  0  0  0  0  0  0  0  0  0  0  0
  -30.4849  -12.5932   19.2774 C   0  0  0  0  0  0  0  0  0  0  0  0
  -23.2540  -16.7130   16.9875 C   0  0  0  0  0  0  0  0  0  0  0  0
  -28.1017  -12.6796   18.6033 C   0  0  0  0  0  0  0  0  0  0  0  0
  -16.9356  -26.5774   18.5103 C   0  0  1  0  0  0  0  0  0  0  0  0
  -23.3092  -19.0205   17.5673 C   0  0  1  0  0  0  0  0  0  0  0  0
  -20.6541  -26.9327   19.2029 C   0  0  1  0  0  0  0  0  0  0  0  0
  -27.7064  -13.2368   19.9790 C   0  0  1  0  0  0  0  0  0  0  0  0
  -26.9186  -30.5578   16.4430 C   0  0  0  0  0  0  0  0  0  0  0  0
  -20.8777  -28.3802   14.8194 C   0  0  0  0  0  0  0  0  0  0  0  0
  -23.0922  -29.2991   14.0986 C   0  0  0  0  0  0  0  0  0  0  0  0
  -21.6191  -30.6364   15.6033 C   0  0  0  0  0  0  0  0  0  0  0  0
  -29.1927  -13.2602   14.6355 C   0  0  0  0  0  0  0  0  0  0  0  0
  -26.7276  -28.4315   19.5923 C   0  0  0  0  0  0  0  0  0  0  0  0
  -23.1007  -20.0404   18.6709 C   0  0  0  0  0  0  0  0  0  1  0  0
  -22.8075  -28.6019   16.5201 C   0  0  1  0  0  0  0  0  0  0  0  0
  -26.2267  -29.8397   17.5911 C   0  0  2  0  0  0  0  0  0  0  0  0
  -22.0977  -29.2053   15.2753 C   0  0  0  0  0  0  0  0  0  0  0  0
  -25.9212  -11.6042   20.4563 N   0  0  0  0  0  0  0  0  0  0  0  0
  -26.2691  -12.8955   20.3238 N   0  0  0  0  0  0  0  0  0  0  0  0
  -24.6377  -17.1256   17.1314 N   0  0  0  0  0  0  0  0  0  0  0  0
  -21.6917  -27.1626   18.1955 N   0  0  0  0  0  0  0  0  0  0  0  0
  -29.5003  -12.9984   18.2729 N   0  0  0  0  0  0  0  0  0  0  0  0
  -25.4153  -15.1024   20.4316 N   0  0  0  0  0  0  0  0  0  0  0  0
  -21.8121  -12.5445   21.3645 N   0  0  0  0  0  0  0  0  0  0  0  0
  -18.2387  -26.8957   19.0534 N   0  0  0  0  0  0  0  0  0  0  0  0
  -23.9503  -29.3773   16.9906 N   0  0  0  0  0  0  0  0  0  0  0  0
  -28.9537  -13.6353   16.0274 N   0  0  0  0  0  0  0  0  0  0  0  0
  -27.2660  -29.1589   18.4141 N   0  3  0  0  0  0  0  0  0  0  0  0
  -25.7162  -19.1684   17.7264 O   0  0  0  0  0  0  0  0  0  0  0  0
  -22.5448  -14.7002   21.0915 O   0  0  0  0  0  0  0  0  0  0  0  0
  -19.5357  -25.8203   17.4460 O   0  0  0  0  0  0  0  0  0  0  0  0
  -21.3417  -29.4676   18.1719 O   0  0  0  0  0  0  0  0  0  0  0  0
  -25.5126  -27.6756   16.7888 O   0  0  0  0  0  0  0  0  0  0  0  0
  -31.1414  -13.2549   16.6588 O   0  0  0  0  0  0  0  0  0  0  0  0
  -21.6998   -6.9805   21.6180 O   0  0  0  0  0  0  0  0  0  0  0  0
  -23.6134  -21.3011   18.2417 O   0  0  0  0  0  0  0  0  0  1  0  0
  -16.7424   -6.5712   19.2388 F   0  0  0  0  0  0  0  0  0  0  0  0
  -24.3973  -15.0311   15.2993 F   0  0  0  0  0  0  0  0  0  0  0  0
  -21.1513   -4.9506   19.8232 F   0  0  0  0  0  0  0  0  0  0  0  0
  1  2  1  0  0  0  0
  1  5  2  0  0  0  0
  2  6  2  0  0  0  0
  3 10  2  0  0  0  0
  3 18  1  0  0  0  0
  4 11  1  0  0  0  0
  4 18  2  0  0  0  0
  5 20  1  0  0  0  0
  6 22  1  0  0  0  0
  7 12  2  0  0  0  0
  7 21  1  0  0  0  0
  8  9  2  0  0  0  0
  8 24  1  0  0  0  0
  9 25  1  0  0  0  0
 10 26  1  0  0  0  0
 11 26  2  0  0  0  0
 12 27  1  0  0  0  0
 13 14  2  0  0  0  0
 13 28  1  0  0  0  0
 14 29  1  0  0  0  0
 15 23  1  0  0  0  0
 15 27  2  0  0  0  0
 16 25  2  0  0  0  0
 16 30  1  0  0  0  0
 17 29  2  0  0  0  0
 17 31  1  0  0  0  0
 18 32  1  0  0  0  0
 19 32  1  0  0  0  0
 19 33  2  0  0  0  0
 19 35  1  0  0  0  0
 20 22  2  0  0  0  0
 20 40  1  0  0  0  0
 21 23  2  0  0  0  0
 21 41  1  0  0  0  0
 22 51  1  0  0  0  0
 23 42  1  0  0  0  0
 24 30  2  0  0  0  0
 24 67  1  0  0  0  0
 25 74  1  0  0  0  0
 26 82  1  0  0  0  0
 27 83  1  0  0  0  0
 28 31  2  0  0  0  0
 28 82  1  0  0  0  0
 29 84  1  0  0  0  0
 30 85  1  0  0  0  0
 31 86  1  0  0  0  0
 32 65  2  0  0  0  0
 33 66  1  0  0  0  0
 33 70  1  0  0  0  0
 34 52  1  0  0  0  0
 34 67  1  0  0  0  0
 34 76  2  0  0  0  0
 35 71  1  0  0  0  0
 35 77  2  0  0  0  0
 36 53  1  0  0  0  0
 36 72  1  0  0  0  0
 36 78  2  0  0  0  0
 37 62  1  0  0  0  0
 37 68  1  0  0  0  0
 37 79  2  0  0  0  0
 38 63  1  0  0  0  0
 38 73  1  0  0  0  0
 38 80  2  0  0  0  0
 39 69  1  0  0  0  0
 39 74  1  0  0  0  0
 39 81  2  0  0  0  0
 40 43  1  0  0  0  0
 41 53  1  0  0  0  0
 42 68  1  0  0  0  0
 43 45  1  0  0  0  0
 44 46  1  0  0  0  0
 44 48  1  0  0  0  0
 45 51  1  0  0  0  0
 46 54  1  0  0  0  0
 47 49  1  0  0  0  0
 47 52  1  0  0  0  0
 48 69  1  0  0  0  0
 49 67  1  0  0  0  0
 50 54  1  0  0  0  0
 50 69  1  0  0  0  0
 51 72  1  0  0  0  0
 52 61  1  0  0  0  0
 53 68  1  0  0  0  0
 54 66  1  0  0  0  0
 55 63  1  0  0  0  0
 56 64  1  0  0  0  0
 57 64  1  0  0  0  0
 58 64  1  0  0  0  0
 59 74  1  0  0  0  0
 60 75  1  0  0  0  0
 61 83  1  0  0  0  0
 62 64  1  0  0  0  0
 62 73  1  0  0  0  0
 63 75  1  0  0  0  0
 65 66  1  0  0  0  0
M  CHG  1  75   1
M  ISO  4  39 100  61 101  74 100  83 101
M  END
> <Batch ID>
0021

> <Smiles>
CNC(C)C(=O)NC(C(=O)N1Cc2cc([101O:1][101CH2:1]C3CCN(c4ccc([100N:0](C)[100C:0](=O)N5CCCC(n6nc(-c7ccc(Oc8ccc(F)cc8F)cc7)c(C(N)=O)c6N)C5)cc4F)C3=O)ccc2CC1C(=O)NC1CCCc2ccccc21)C(C)(C)C

> <Shape>
0.134

> <Color>
0.177

> <Negative vol penalty>
0.000

$$$$

  -OEChem-04042321113D

 85 94  0     1  0  0  0  0  0999 V2000
  -16.4928  -29.4644   23.7934 C   0  0  0  0  0  0  0  0  0  0  0  0
  -17.5107  -30.3759   24.0502 C   0  0  0  0  0  0  0  0  0  0  0  0
  -31.9589  -21.5506   21.6497 C   0  0  0  0  0  0  0  0  0  0  0  0
  -31.5582  -20.2623   23.6539 C   0  0  0  0  0  0  0  0  0  0  0  0
  -16.7978  -28.2217   23.2421 C   0  0  0  0  0  0  0  0  0  0  0  0
  -18.8325  -30.0497   23.7448 C   0  0  0  0  0  0  0  0  0  0  0  0
  -26.7074  -31.0055   23.2008 C   0  0  0  0  0  0  0  0  0  0  0  0
  -28.8379  -25.4931   20.9699 C   0  0  0  0  0  0  0  0  0  0  0  0
  -27.7136  -25.1182   20.2345 C   0  0  0  0  0  0  0  0  0  0  0  0
  -33.1447  -22.0374   22.1996 C   0  0  0  0  0  0  0  0  0  0  0  0
  -32.7440  -20.7491   24.2038 C   0  0  0  0  0  0  0  0  0  0  0  0
  -27.9056  -30.3073   23.0581 C   0  0  0  0  0  0  0  0  0  0  0  0
  -36.3086  -20.9399   22.6668 C   0  0  0  0  0  0  0  0  0  0  0  0
  -37.4414  -20.9568   21.8532 C   0  0  0  0  0  0  0  0  0  0  0  0
  -27.0573  -29.2739   21.0502 C   0  0  0  0  0  0  0  0  0  0  0  0
  -26.4534  -24.8808   22.2821 C   0  0  0  0  0  0  0  0  0  0  0  0
  -37.5950  -23.3535   22.1169 C   0  0  0  0  0  0  0  0  0  0  0  0
  -31.1655  -20.6631   22.3768 C   0  0  0  0  0  0  0  0  0  0  0  0
  -29.7777  -18.9989   21.0307 C   0  0  0  0  0  0  0  0  0  0  0  0
  -18.1257  -27.8762   22.9417 C   0  0  0  0  0  0  0  0  0  0  0  0
  -25.6692  -30.8346   22.2738 C   0  0  0  0  0  0  0  0  0  0  0  0
  -19.1579  -28.8098   23.1658 C   0  0  0  0  0  0  0  0  0  0  0  0
  -25.8478  -29.9730   21.1820 C   0  0  0  0  0  0  0  0  0  0  0  0
  -27.5777  -25.2557   23.0175 C   0  0  0  0  0  0  0  0  0  0  0  0
  -28.7700  -25.5619   22.3615 C   0  0  0  0  0  0  0  0  0  0  0  0
  -26.5213  -24.8120   20.8905 C   0  0  0  0  0  0  0  0  0  0  0  0
  -33.5373  -21.6366   23.4767 C   0  0  0  0  0  0  0  0  0  0  0  0
  -28.0797  -29.4391   21.9842 C   0  0  0  0  0  0  0  0  0  0  0  0
  -35.8188  -22.1298   23.2054 C   0  0  0  0  0  0  0  0  0  0  0  0
  -38.0846  -22.1636   21.5783 C   0  0  0  0  0  0  0  0  0  0  0  0
  -36.4620  -23.3366   22.9305 C   0  0  0  0  0  0  0  0  0  0  0  0
  -29.9402  -20.1603   21.8095 C   0  0  0  0  0  0  0  0  0  0  0  0
  -28.4355  -18.9646   20.7413 C   0  0  0  0  0  0  0  0  0  0  0  0
  -30.7528  -18.0371   20.6068 C   0  0  0  0  0  0  0  0  0  0  0  0
  -22.6795  -29.7659   22.4259 C   0  0  0  0  0  0  0  0  0  0  0  0
  -22.5884  -30.7351   19.3316 C   0  0  0  0  0  0  0  0  0  0  0  0
  -24.7753  -30.6020   16.4650 C   0  0  0  0  0  0  0  0  0  0  0  0
  -24.3898  -23.5469   20.6642 C   0  0  0  0  0  0  0  0  0  0  0  0
  -18.3985  -26.5206   22.3390 C   0  0  0  0  0  0  0  0  0  0  0  0
  -24.3928  -31.6154   22.4272 C   0  0  0  0  0  0  0  0  0  0  0  0
  -24.7717  -29.7697   20.1480 C   0  0  0  0  0  0  0  0  0  0  0  0
  -19.8587  -26.0978   22.4629 C   0  0  0  0  0  0  0  0  0  0  0  0
  -24.1878  -20.3273   22.4541 C   0  0  0  0  0  0  0  0  0  0  0  0
  -31.9580  -25.5122   24.1093 C   0  0  0  0  0  0  0  0  0  0  0  0
  -20.7673  -27.2214   21.9869 C   0  0  0  0  0  0  0  0  0  0  0  0
  -25.6418  -19.8587   22.4770 C   0  0  0  0  0  0  0  0  0  0  0  0
  -31.8584  -27.0042   23.8456 C   0  0  0  0  0  0  0  0  0  0  0  0
  -30.5052  -25.0547   24.0684 C   0  0  0  0  0  0  0  0  0  0  0  0
  -24.0830  -21.8494   22.4422 C   0  0  0  0  0  0  0  0  0  0  0  0
  -26.3027  -22.0266   21.3597 C   0  0  0  0  0  0  0  0  0  0  0  0
  -20.6065  -28.4651   22.8702 C   0  0  1  0  0  0  0  0  0  0  0  0
  -23.2101  -30.9743   21.7077 C   0  0  1  0  0  0  0  0  0  0  0  0
  -26.4422  -20.4971   21.3286 C   0  0  1  0  0  0  0  0  0  0  0  0
  -30.7182  -27.1232   22.8194 C   0  0  2  0  0  0  0  0  0  0  0  0
  -27.4779  -25.3199   24.5069 C   0  0  0  0  0  0  0  0  0  0  0  0
  -24.9343  -32.1068   14.4630 C   0  0  0  0  0  0  0  0  0  0  0  0
  -20.7107  -28.7153   18.0260 C   0  0  0  0  0  0  0  0  0  0  0  0
  -21.9879  -29.0115   15.8931 C   0  0  0  0  0  0  0  0  0  0  0  0
  -20.7841  -30.9488   16.9032 C   0  0  0  0  0  0  0  0  0  0  0  0
  -25.0642  -25.1431   18.8846 C   0  0  0  0  0  0  0  0  0  0  0  0
  -27.6544  -31.1068   16.9282 C   0  0  0  0  0  0  0  0  0  0  0  0
  -29.9564  -28.4265   23.0371 C   0  0  0  0  0  0  0  0  0  1  0  0
  -22.8946  -30.0922   18.0004 C   0  0  1  0  0  0  0  0  0  0  0  0
  -25.5113  -31.7672   15.8286 C   0  0  2  0  0  0  0  0  0  0  0  0
  -21.6076  -29.6839   17.2295 C   0  0  0  0  0  0  0  0  0  0  0  0
  -28.7929  -20.8165   22.0025 N   0  0  0  0  0  0  0  0  0  0  0  0
  -27.8967  -20.0649   21.3407 N   0  0  0  0  0  0  0  0  0  0  0  0
  -29.8927  -25.9340   23.0737 N   0  0  3  0  0  0  0  0  0  0  0  0
  -23.5395  -30.5508   20.3452 N   0  0  0  0  0  0  0  0  0  0  0  0
  -24.8891  -22.4335   21.3695 N   0  0  0  0  0  0  0  0  0  0  0  0
  -27.6754  -18.1010   20.0351 N   0  0  0  0  0  0  0  0  0  0  0  0
  -32.0872  -18.2238   20.9928 N   0  0  0  0  0  0  0  0  0  0  0  0
  -21.3211  -29.5683   22.2668 N   0  0  0  0  0  0  0  0  0  0  0  0
  -23.7497  -31.0302   17.2812 N   0  0  0  0  0  0  0  0  0  0  0  0
  -25.3574  -24.4246   20.1290 N   0  0  0  0  0  0  0  0  0  0  0  0
  -26.9550  -31.4382   15.6602 N   0  3  0  0  0  0  0  0  0  0  0  0
  -30.4526  -17.0503   19.8929 O   0  0  0  0  0  0  0  0  0  0  0  0
  -23.4460  -29.0639   23.0750 O   0  0  0  0  0  0  0  0  0  0  0  0
  -21.5473  -31.3831   19.4649 O   0  0  0  0  0  0  0  0  0  0  0  0
  -25.0773  -29.4292   16.2559 O   0  0  0  0  0  0  0  0  0  0  0  0
  -23.1769  -23.7252   20.5006 O   0  0  0  0  0  0  0  0  0  0  0  0
  -34.6945  -22.1113   24.0135 O   0  0  0  0  0  0  0  0  0  0  0  0
  -29.2480  -28.7559   21.8429 O   0  0  0  0  0  0  0  0  0  1  0  0
  -39.1734  -22.1795   20.7983 F   0  0  0  0  0  0  0  0  0  0  0  0
  -35.9969  -24.4828   23.4460 F   0  0  0  0  0  0  0  0  0  0  0  0
  1  2  1  0  0  0  0
  1  5  2  0  0  0  0
  2  6  2  0  0  0  0
  3 10  2  0  0  0  0
  3 18  1  0  0  0  0
  4 11  1  0  0  0  0
  4 18  2  0  0  0  0
  5 20  1  0  0  0  0
  6 22  1  0  0  0  0
  7 12  2  0  0  0  0
  7 21  1  0  0  0  0
  8  9  2  0  0  0  0
  8 25  1  0  0  0  0
  9 26  1  0  0  0  0
 10 27  1  0  0  0  0
 11 27  2  0  0  0  0
 12 28  1  0  0  0  0
 13 14  2  0  0  0  0
 13 29  1  0  0  0  0
 14 30  1  0  0  0  0
 15 23  1  0  0  0  0
 15 28  2  0  0  0  0
 16 24  1  0  0  0  0
 16 26  2  0  0  0  0
 17 30  2  0  0  0  0
 17 31  1  0  0  0  0
 18 32  1  0  0  0  0
 19 32  1  0  0  0  0
 19 33  2  0  0  0  0
 19 34  1  0  0  0  0
 20 22  2  0  0  0  0
 20 39  1  0  0  0  0
 21 23  2  0  0  0  0
 21 40  1  0  0  0  0
 22 51  1  0  0  0  0
 23 41  1  0  0  0  0
 24 25  2  0  0  0  0
 24 55  1  0  0  0  0
 25 68  1  0  0  0  0
 26 75  1  0  0  0  0
 27 82  1  0  0  0  0
 28 83  1  0  0  0  0
 29 31  2  0  0  0  0
 29 82  1  0  0  0  0
 30 84  1  0  0  0  0
 31 85  1  0  0  0  0
 32 66  2  0  0  0  0
 33 67  1  0  0  0  0
 33 71  1  0  0  0  0
 34 72  1  0  0  0  0
 34 77  2  0  0  0  0
 35 52  1  0  0  0  0
 35 73  1  0  0  0  0
 35 78  2  0  0  0  0
 36 63  1  0  0  0  0
 36 69  1  0  0  0  0
 36 79  2  0  0  0  0
 37 64  1  0  0  0  0
 37 74  1  0  0  0  0
 37 80  2  0  0  0  0
 38 70  1  0  0  0  0
 38 75  1  0  0  0  0
 38 81  2  0  0  0  0
 39 42  1  0  0  0  0
 40 52  1  0  0  0  0
 41 69  1  0  0  0  0
 42 45  1  0  0  0  0
 43 46  1  0  0  0  0
 43 49  1  0  0  0  0
 44 47  1  0  0  0  0
 44 48  1  0  0  0  0
 45 51  1  0  0  0  0
 46 53  1  0  0  0  0
 47 54  1  0  0  0  0
 48 68  1  0  0  0  0
 49 70  1  0  0  0  0
 50 53  1  0  0  0  0
 50 70  1  0  0  0  0
 51 73  1  0  0  0  0
 52 69  1  0  0  0  0
 53 67  1  0  0  0  0
 54 62  1  0  0  0  0
 54 68  1  0  0  0  0
 56 64  1  0  0  0  0
 57 65  1  0  0  0  0
 58 65  1  0  0  0  0
 59 65  1  0  0  0  0
 60 75  1  0  0  0  0
 61 76  1  0  0  0  0
 62 83  1  0  0  0  0
 63 65  1  0  0  0  0
 63 74  1  0  0  0  0
 64 76  1  0  0  0  0
 66 67  1  0  0  0  0
M  CHG  1  76   1
M  ISO  4  38 100  62 101  75 100  83 101
M  END
> <Batch ID>
0021

> <Smiles>
CNC(C)C(=O)NC(C(=O)N1Cc2cc([101O:1][101CH2:1]C3CCCN3c3ccc([100N:0](C)[100C:0](=O)N4CCCC(n5nc(-c6ccc(Oc7ccc(F)cc7F)cc6)c(C(N)=O)c5N)C4)cc3C)ccc2CC1C(=O)NC1CCCc2ccccc21)C(C)(C)C

> <Shape>
0.182

> <Color>
0.104

> <Negative vol penalty>
0.000

$$$$

  -OEChem-04042321113D

 82 90  0     1  0  0  0  0  0999 V2000
  -29.2322  -25.4256   16.5978 C   0  0  0  0  0  0  0  0  0  0  0  0
  -28.0862  -25.3619   17.3840 C   0  0  0  0  0  0  0  0  0  0  0  0
  -26.3729  -12.7801   19.5749 C   0  0  0  0  0  0  0  0  0  0  0  0
  -24.3097  -13.4002   20.6683 C   0  0  0  0  0  0  0  0  0  0  0  0
  -30.3171  -26.1980   17.0104 C   0  0  0  0  0  0  0  0  0  0  0  0
  -28.0249  -26.0698   18.5839 C   0  0  0  0  0  0  0  0  0  0  0  0
  -23.6253  -28.5054   19.1801 C   0  0  0  0  0  0  0  0  0  0  0  0
  -24.2752  -23.0558   22.0068 C   0  0  0  0  0  0  0  0  0  0  0  0
  -23.2319  -23.9746   22.1208 C   0  0  0  0  0  0  0  0  0  0  0  0
  -26.3119  -11.5217   20.1735 C   0  0  0  0  0  0  0  0  0  0  0  0
  -24.2486  -12.1418   21.2669 C   0  0  0  0  0  0  0  0  0  0  0  0
  -22.5264  -27.7463   19.5802 C   0  0  0  0  0  0  0  0  0  0  0  0
  -23.3580   -9.0046   20.3809 C   0  0  0  0  0  0  0  0  0  0  0  0
  -22.1305   -8.3422   20.3699 C   0  0  0  0  0  0  0  0  0  0  0  0
  -22.8323  -28.5099   21.8479 C   0  0  0  0  0  0  0  0  0  0  0  0
  -22.7749  -21.2729   22.6450 C   0  0  0  0  0  0  0  0  0  0  0  0
  -22.1298   -8.3034   22.7856 C   0  0  0  0  0  0  0  0  0  0  0  0
  -25.3718  -13.7194   19.8224 C   0  0  0  0  0  0  0  0  0  0  0  0
  -24.8900  -15.3982   17.9630 C   0  0  0  0  0  0  0  0  0  0  0  0
  -30.2655  -26.9234   18.2111 C   0  0  0  0  0  0  0  0  0  0  0  0
  -24.3438  -29.2651   20.1145 C   0  0  0  0  0  0  0  0  0  0  0  0
  -29.1107  -26.8515   19.0135 C   0  0  0  0  0  0  0  0  0  0  0  0
  -23.9384  -29.2797   21.4567 C   0  0  0  0  0  0  0  0  0  0  0  0
  -21.7316  -22.1917   22.7590 C   0  0  0  0  0  0  0  0  0  0  0  0
  -24.0467  -21.7050   22.2689 C   0  0  0  0  0  0  0  0  0  0  0  0
  -21.9601  -23.5425   22.4969 C   0  0  0  0  0  0  0  0  0  0  0  0
  -25.2497  -11.2025   21.0194 C   0  0  0  0  0  0  0  0  0  0  0  0
  -22.1315  -27.7462   20.9148 C   0  0  0  0  0  0  0  0  0  0  0  0
  -23.9715   -9.3163   21.5942 C   0  0  0  0  0  0  0  0  0  0  0  0
  -21.5164   -7.9917   21.5723 C   0  0  0  0  0  0  0  0  0  0  0  0
  -23.3574   -8.9657   22.7966 C   0  0  0  0  0  0  0  0  0  0  0  0
  -25.4346  -15.0197   19.2048 C   0  0  0  0  0  0  0  0  0  0  0  0
  -25.2195  -16.7253   17.8338 C   0  0  0  0  0  0  0  0  0  0  0  0
  -24.1522  -14.6198   17.0115 C   0  0  0  0  0  0  0  0  0  0  0  0
  -27.3373  -29.2600   21.1832 C   0  0  0  0  0  0  0  0  0  0  0  0
  -26.3720  -31.9340   22.7452 C   0  0  0  0  0  0  0  0  0  0  0  0
  -23.7999  -33.7552   24.0545 C   0  0  0  0  0  0  0  0  0  0  0  0
  -26.4280  -21.0354   21.7920 C   0  0  0  0  0  0  0  0  0  0  0  0
  -31.4812  -27.7068   18.6388 C   0  0  0  0  0  0  0  0  0  0  0  0
  -25.5105  -30.0996   19.6620 C   0  0  0  0  0  0  0  0  0  0  0  0
  -24.6637  -30.0943   22.4953 C   0  0  0  0  0  0  0  0  0  0  0  0
  -31.1935  -28.7251   19.7391 C   0  0  0  0  0  0  0  0  0  0  0  0
  -28.5453  -19.9046   19.1623 C   0  0  0  0  0  0  0  0  0  0  0  0
  -30.3550  -28.0930   20.8455 C   0  0  0  0  0  0  0  0  0  0  0  0
  -27.9348  -18.5609   18.7577 C   0  0  0  0  0  0  0  0  0  0  0  0
  -28.4550  -20.1377   20.6694 C   0  0  0  0  0  0  0  0  0  0  0  0
  -26.4995  -18.6487   20.8360 C   0  0  0  0  0  0  0  0  0  0  0  0
  -28.9968  -27.6249   20.3093 C   0  0  1  0  0  0  0  0  0  0  0  0
  -26.4815  -30.4311   20.7911 C   0  0  1  0  0  0  0  0  0  0  0  0
  -26.5086  -18.3980   19.3191 C   0  0  2  0  0  0  0  0  0  0  0  0
  -20.3795  -21.7019   23.1647 C   0  0  0  0  0  0  0  0  0  0  0  0
  -23.3261  -35.8799   25.3029 C   0  0  0  0  0  0  0  0  0  0  0  0
  -27.3830  -30.6443   25.3190 C   0  0  0  0  0  0  0  0  0  0  0  0
  -26.0560  -32.3338   26.6046 C   0  0  0  0  0  0  0  0  0  0  0  0
  -27.9002  -33.0813   25.1003 C   0  0  0  0  0  0  0  0  0  0  0  0
  -20.6779  -25.1562   23.8797 C   0  0  0  0  0  0  0  0  0  0  0  0
  -22.1262  -34.8115   21.8540 C   0  0  0  0  0  0  0  0  0  0  0  0
  -20.0872  -24.8110   21.4755 C   0  0  0  0  0  0  0  0  0  0  0  0
  -20.7905  -25.8119   20.5741 C   0  0  0  0  0  0  0  0  0  1  0  0
  -25.7486  -32.2203   24.0899 C   0  0  1  0  0  0  0  0  0  0  0  0
  -23.4440  -35.2261   23.9349 C   0  0  2  0  0  0  0  0  0  0  0  0
  -26.7593  -32.0530   25.2595 C   0  0  0  0  0  0  0  0  0  0  0  0
  -26.0624  -16.0250   19.8205 N   0  0  0  0  0  0  0  0  0  0  0  0
  -25.9145  -17.0484   18.9620 N   0  0  0  0  0  0  0  0  0  0  0  0
  -25.8020  -30.8887   22.0048 N   0  0  0  0  0  0  0  0  0  0  0  0
  -27.0746  -19.9709   21.1292 N   0  0  0  0  0  0  0  0  0  0  0  0
  -24.9796  -17.6358   16.8664 N   0  0  0  0  0  0  0  0  0  0  0  0
  -23.9017  -13.2717   17.3017 N   0  0  0  0  0  0  0  0  0  0  0  0
  -25.1072  -20.7723   22.1535 N   0  0  0  0  0  0  0  0  0  0  0  0
  -28.1010  -28.7504   20.1504 N   0  0  0  0  0  0  0  0  0  0  0  0
  -25.1624  -33.5528   23.9928 N   0  0  0  0  0  0  0  0  0  0  0  0
  -20.9239  -24.4794   22.6060 N   0  0  3  0  0  0  0  0  0  0  0  0
  -22.1450  -35.3885   23.2228 N   0  3  0  0  0  0  0  0  0  0  0  0
  -23.7419  -15.1011   15.9282 O   0  0  0  0  0  0  0  0  0  0  0  0
  -27.3082  -28.8500   22.3376 O   0  0  0  0  0  0  0  0  0  0  0  0
  -27.3250  -32.6175   22.3627 O   0  0  0  0  0  0  0  0  0  0  0  0
  -22.9541  -32.8744   24.1928 O   0  0  0  0  0  0  0  0  0  0  0  0
  -26.9949  -22.1117   21.9979 O   0  0  0  0  0  0  0  0  0  0  0  0
  -25.1898   -9.9746   21.6035 O   0  0  0  0  0  0  0  0  0  0  0  0
  -21.0597  -27.0057   21.3081 O   0  0  0  0  0  0  0  0  0  1  0  0
  -20.3369   -7.3570   21.5616 F   0  0  0  0  0  0  0  0  0  0  0  0
  -23.9413   -9.2636   23.9654 F   0  0  0  0  0  0  0  0  0  0  0  0
  1  2  1  0  0  0  0
  1  5  2  0  0  0  0
  2  6  2  0  0  0  0
  3 10  2  0  0  0  0
  3 18  1  0  0  0  0
  4 11  1  0  0  0  0
  4 18  2  0  0  0  0
  5 20  1  0  0  0  0
  6 22  1  0  0  0  0
  7 12  2  0  0  0  0
  7 21  1  0  0  0  0
  8  9  2  0  0  0  0
  8 25  1  0  0  0  0
  9 26  1  0  0  0  0
 10 27  1  0  0  0  0
 11 27  2  0  0  0  0
 12 28  1  0  0  0  0
 13 14  2  0  0  0  0
 13 29  1  0  0  0  0
 14 30  1  0  0  0  0
 15 23  1  0  0  0  0
 15 28  2  0  0  0  0
 16 24  1  0  0  0  0
 16 25  2  0  0  0  0
 17 30  2  0  0  0  0
 17 31  1  0  0  0  0
 18 32  1  0  0  0  0
 19 32  1  0  0  0  0
 19 33  2  0  0  0  0
 19 34  1  0  0  0  0
 20 22  2  0  0  0  0
 20 39  1  0  0  0  0
 21 23  2  0  0  0  0
 21 40  1  0  0  0  0
 22 48  1  0  0  0  0
 23 41  1  0  0  0  0
 24 26  2  0  0  0  0
 24 51  1  0  0  0  0
 25 69  1  0  0  0  0
 26 72  1  0  0  0  0
 27 79  1  0  0  0  0
 28 80  1  0  0  0  0
 29 31  2  0  0  0  0
 29 79  1  0  0  0  0
 30 81  1  0  0  0  0
 31 82  1  0  0  0  0
 32 63  2  0  0  0  0
 33 64  1  0  0  0  0
 33 67  1  0  0  0  0
 34 68  1  0  0  0  0
 34 74  2  0  0  0  0
 35 49  1  0  0  0  0
 35 70  1  0  0  0  0
 35 75  2  0  0  0  0
 36 60  1  0  0  0  0
 36 65  1  0  0  0  0
 36 76  2  0  0  0  0
 37 61  1  0  0  0  0
 37 71  1  0  0  0  0
 37 77  2  0  0  0  0
 38 66  1  0  0  0  0
 38 69  1  0  0  0  0
 38 78  2  0  0  0  0
 39 42  1  0  0  0  0
 40 49  1  0  0  0  0
 41 65  1  0  0  0  0
 42 44  1  0  0  0  0
 43 45  1  0  0  0  0
 43 46  1  0  0  0  0
 44 48  1  0  0  0  0
 45 50  1  0  0  0  0
 46 66  1  0  0  0  0
 47 50  1  0  0  0  0
 47 66  1  0  0  0  0
 48 70  1  0  0  0  0
 49 65  1  0  0  0  0
 50 64  1  0  0  0  0
 52 61  1  0  0  0  0
 53 62  1  0  0  0  0
 54 62  1  0  0  0  0
 55 62  1  0  0  0  0
 56 72  1  0  0  0  0
 57 73  1  0  0  0  0
 58 59  1  0  0  0  0
 58 72  1  0  0  0  0
 59 80  1  0  0  0  0
 60 62  1  0  0  0  0
 60 71  1  0  0  0  0
 61 73  1  0  0  0  0
 63 64  1  0  0  0  0
M  CHG  1  73   1
M  ISO  4  38 100  59 101  69 100  80 101
M  END
> <Batch ID>
0021

> <Smiles>
CNC(C)C(=O)NC(C(=O)N1Cc2cc([101O:1][101CH2:1]CN(C)c3ccc([100NH:0][100C:0](=O)N4CCCC(n5nc(-c6ccc(Oc7ccc(F)cc7F)cc6)c(C(N)=O)c5N)C4)cc3C)ccc2CC1C(=O)NC1CCCc2ccccc21)C(C)(C)C

> <Shape>
0.269

> <Color>
0.084

> <Negative vol penalty>
0.000

$$$$

  -OEChem-04042321113D

 83 91  0     1  0  0  0  0  0999 V2000
  -25.8483  -23.6552   30.6567 C   0  0  0  0  0  0  0  0  0  0  0  0
  -26.3740  -23.3545   29.4042 C   0  0  0  0  0  0  0  0  0  0  0  0
  -23.1262   -9.7258   19.9389 C   0  0  0  0  0  0  0  0  0  0  0  0
  -23.7565   -9.8794   22.2662 C   0  0  0  0  0  0  0  0  0  0  0  0
  -24.6616  -24.3801   30.7575 C   0  0  0  0  0  0  0  0  0  0  0  0
  -25.7127  -23.7777   28.2518 C   0  0  0  0  0  0  0  0  0  0  0  0
  -28.8646  -25.7642   24.8219 C   0  0  0  0  0  0  0  0  0  0  0  0
  -22.4017   -8.5655   20.2116 C   0  0  0  0  0  0  0  0  0  0  0  0
  -23.0319   -8.7191   22.5390 C   0  0  0  0  0  0  0  0  0  0  0  0
  -29.6150  -24.8735   24.0555 C   0  0  0  0  0  0  0  0  0  0  0  0
  -23.4453   -5.3824   22.1831 C   0  0  0  0  0  0  0  0  0  0  0  0
  -24.0479   -4.4166   22.9890 C   0  0  0  0  0  0  0  0  0  0  0  0
  -28.0569  -25.1383   22.2331 C   0  0  0  0  0  0  0  0  0  0  0  0
  -29.8542  -19.3982   22.5508 C   0  0  0  0  0  0  0  0  0  0  0  0
  -30.5206  -19.2609   20.2326 C   0  0  0  0  0  0  0  0  0  0  0  0
  -22.2497   -4.6294   24.5886 C   0  0  0  0  0  0  0  0  0  0  0  0
  -23.8036  -10.3827   20.9661 C   0  0  0  0  0  0  0  0  0  0  0  0
  -24.0816  -12.9071   20.7251 C   0  0  0  0  0  0  0  0  0  0  0  0
  -23.9905  -24.8207   29.6059 C   0  0  0  0  0  0  0  0  0  0  0  0
  -27.6968  -26.3412   24.3027 C   0  0  0  0  0  0  0  0  0  0  0  0
  -24.5152  -24.5080   28.3373 C   0  0  0  0  0  0  0  0  0  0  0  0
  -27.2949  -26.0380   22.9940 C   0  0  0  0  0  0  0  0  0  0  0  0
  -29.7303  -18.0096   22.5975 C   0  0  0  0  0  0  0  0  0  0  0  0
  -30.2493  -20.0238   21.3684 C   0  0  0  0  0  0  0  0  0  0  0  0
  -30.0016  -17.2467   21.4617 C   0  0  0  0  0  0  0  0  0  0  0  0
  -22.3546   -8.0621   21.5117 C   0  0  0  0  0  0  0  0  0  0  0  0
  -29.2096  -24.5582   22.7620 C   0  0  0  0  0  0  0  0  0  0  0  0
  -22.2449   -5.9719   22.5799 C   0  0  0  0  0  0  0  0  0  0  0  0
  -23.4501   -4.0400   24.1917 C   0  0  0  0  0  0  0  0  0  0  0  0
  -21.6472   -5.5954   23.7826 C   0  0  0  0  0  0  0  0  0  0  0  0
  -30.3968  -17.8724   20.2792 C   0  0  0  0  0  0  0  0  0  0  0  0
  -24.5526  -11.5810   20.6849 C   0  0  0  0  0  0  0  0  0  0  0  0
  -25.1712  -13.6691   20.3806 C   0  0  0  0  0  0  0  0  0  0  0  0
  -22.7760  -13.4055   21.0453 C   0  0  0  0  0  0  0  0  0  0  0  0
  -24.6190  -26.2758   25.0944 C   0  0  0  0  0  0  0  0  0  0  0  0
  -24.3650  -28.4823   22.7302 C   0  0  0  0  0  0  0  0  0  0  0  0
  -25.6499  -29.8203   19.8656 C   0  0  0  0  0  0  0  0  0  0  0  0
  -30.5881  -14.8897   20.7932 C   0  0  0  0  0  0  0  0  0  0  0  0
  -29.5842  -22.3191   22.1210 C   0  0  0  0  0  0  0  0  0  1  0  0
  -22.6858  -25.5606   29.7644 C   0  0  0  0  0  0  0  0  0  0  0  0
  -26.9131  -27.3208   25.1326 C   0  0  0  0  0  0  0  0  0  0  0  0
  -26.0599  -26.6461   22.3827 C   0  0  0  0  0  0  0  0  0  0  0  0
  -22.2447  -26.2948   28.5008 C   0  0  0  0  0  0  0  0  0  0  0  0
  -29.6748  -12.3190   18.5053 C   0  0  0  0  0  0  0  0  0  0  0  0
  -22.3807  -25.3882   27.2816 C   0  0  0  0  0  0  0  0  0  0  0  0
  -28.2220  -12.0069   18.8717 C   0  0  0  0  0  0  0  0  0  0  0  0
  -30.5147  -12.6400   19.7403 C   0  0  0  0  0  0  0  0  0  0  0  0
  -28.5144  -13.3789   20.9739 C   0  0  0  0  0  0  0  0  0  0  0  0
  -23.8402  -24.9709   27.0645 C   0  0  1  0  0  0  0  0  0  0  0  0
  -25.4599  -27.4527   24.6874 C   0  0  1  0  0  0  0  0  0  0  0  0
  -27.6139  -13.1128   19.7565 C   0  0  2  0  0  0  0  0  0  0  0  0
  -29.3049  -17.3702   23.8798 C   0  0  0  0  0  0  0  0  0  0  0  0
  -25.2001  -31.5888   18.1431 C   0  0  0  0  0  0  0  0  0  0  0  0
  -22.2041  -26.7211   21.4897 C   0  0  0  0  0  0  0  0  0  0  0  0
  -22.4759  -28.0082   19.3595 C   0  0  0  0  0  0  0  0  0  0  0  0
  -21.7135  -29.1727   21.4297 C   0  0  0  0  0  0  0  0  0  0  0  0
  -31.4234  -22.0176   20.4497 C   0  0  0  0  0  0  0  0  0  0  0  0
  -28.1741  -31.2338   20.4895 C   0  0  0  0  0  0  0  0  0  0  0  0
  -24.1230  -28.4305   21.2410 C   0  0  1  0  0  0  0  0  0  0  0  0
  -25.9027  -31.2584   19.4507 C   0  0  2  0  0  0  0  0  0  0  0  0
  -22.6514  -28.0700   20.8919 C   0  0  0  0  0  0  0  0  0  0  0  0
  -25.8410  -11.5017   20.3417 N   0  0  0  0  0  0  0  0  0  0  0  0
  -26.1889  -12.7875   20.1631 N   0  0  0  0  0  0  0  0  0  0  0  0
  -25.3238  -27.5933   23.2362 N   0  0  0  0  0  0  0  0  0  0  0  0
  -29.8794  -13.6989   20.5276 N   0  0  0  0  0  0  0  0  0  0  0  0
  -25.3484  -15.0005   20.2455 N   0  0  0  0  0  0  0  0  0  0  0  0
  -21.7723  -12.4851   21.3771 N   0  0  0  0  0  0  0  0  0  0  0  0
  -29.8707  -15.8371   21.5228 N   0  0  0  0  0  0  0  0  0  0  0  0
  -24.5894  -26.0500   26.4573 N   0  0  0  0  0  0  0  0  0  0  0  0
  -24.5653  -29.7156   20.7106 N   0  0  0  0  0  0  0  0  0  0  0  0
  -30.3761  -21.4649   21.3205 N   0  0  0  0  0  0  0  0  0  0  0  0
  -27.3630  -31.4972   19.2730 N   0  3  0  0  0  0  0  0  0  0  0  0
  -22.5029  -14.6295   21.0215 O   0  0  0  0  0  0  0  0  0  0  0  0
  -24.0388  -25.6220   24.2355 O   0  0  0  0  0  0  0  0  0  0  0  0
  -23.7319  -29.2871   23.4181 O   0  0  0  0  0  0  0  0  0  0  0  0
  -26.3428  -28.8829   19.4759 O   0  0  0  0  0  0  0  0  0  0  0  0
  -31.7364  -15.0676   20.3788 O   0  0  0  0  0  0  0  0  0  0  0  0
  -28.6852  -21.9668   22.8822 O   0  0  0  0  0  0  0  0  0  0  0  0
  -21.6475   -6.9301   21.7782 O   0  0  0  0  0  0  0  0  0  0  0  0
  -29.9399  -23.6886   22.0120 O   0  0  0  0  0  0  0  0  0  1  0  0
  -24.0281   -3.1114   24.9649 F   0  0  0  0  0  0  0  0  0  0  0  0
  -20.4934   -6.1572   24.1685 F   0  0  0  0  0  0  0  0  0  0  0  0
  -30.7417  -16.9683   18.8472 Cl  0  0  0  0  0  0  0  0  0  0  0  0
  1  2  1  0  0  0  0
  1  5  2  0  0  0  0
  2  6  2  0  0  0  0
  3  8  2  0  0  0  0
  3 17  1  0  0  0  0
  4  9  1  0  0  0  0
  4 17  2  0  0  0  0
  5 19  1  0  0  0  0
  6 21  1  0  0  0  0
  7 10  2  0  0  0  0
  7 20  1  0  0  0  0
  8 26  1  0  0  0  0
  9 26  2  0  0  0  0
 10 27  1  0  0  0  0
 11 12  2  0  0  0  0
 11 28  1  0  0  0  0
 12 29  1  0  0  0  0
 13 22  1  0  0  0  0
 13 27  2  0  0  0  0
 14 23  2  0  0  0  0
 14 24  1  0  0  0  0
 15 24  2  0  0  0  0
 15 31  1  0  0  0  0
 16 29  2  0  0  0  0
 16 30  1  0  0  0  0
 17 32  1  0  0  0  0
 18 32  1  0  0  0  0
 18 33  2  0  0  0  0
 18 34  1  0  0  0  0
 19 21  2  0  0  0  0
 19 40  1  0  0  0  0
 20 22  2  0  0  0  0
 20 41  1  0  0  0  0
 21 49  1  0  0  0  0
 22 42  1  0  0  0  0
 23 25  1  0  0  0  0
 23 52  1  0  0  0  0
 24 71  1  0  0  0  0
 25 31  2  0  0  0  0
 25 68  1  0  0  0  0
 26 79  1  0  0  0  0
 27 80  1  0  0  0  0
 28 30  2  0  0  0  0
 28 79  1  0  0  0  0
 29 81  1  0  0  0  0
 30 82  1  0  0  0  0
 31 83  1  0  0  0  0
 32 62  2  0  0  0  0
 33 63  1  0  0  0  0
 33 66  1  0  0  0  0
 34 67  1  0  0  0  0
 34 73  2  0  0  0  0
 35 50  1  0  0  0  0
 35 69  1  0  0  0  0
 35 74  2  0  0  0  0
 36 59  1  0  0  0  0
 36 64  1  0  0  0  0
 36 75  2  0  0  0  0
 37 60  1  0  0  0  0
 37 70  1  0  0  0  0
 37 76  2  0  0  0  0
 38 65  1  0  0  0  0
 38 68  1  0  0  0  0
 38 77  2  0  0  0  0
 39 71  1  0  0  0  0
 39 78  2  0  0  0  0
 39 80  1  0  0  0  0
 40 43  1  0  0  0  0
 41 50  1  0  0  0  0
 42 64  1  0  0  0  0
 43 45  1  0  0  0  0
 44 46  1  0  0  0  0
 44 47  1  0  0  0  0
 45 49  1  0  0  0  0
 46 51  1  0  0  0  0
 47 65  1  0  0  0  0
 48 51  1  0  0  0  0
 48 65  1  0  0  0  0
 49 69  1  0  0  0  0
 50 64  1  0  0  0  0
 51 63  1  0  0  0  0
 53 60  1  0  0  0  0
 54 61  1  0  0  0  0
 55 61  1  0  0  0  0
 56 61  1  0  0  0  0
 57 71  1  0  0  0  0
 58 72  1  0  0  0  0
 59 61  1  0  0  0  0
 59 70  1  0  0  0  0
 60 72  1  0  0  0  0
 62 63  1  0  0  0  0
M  CHG  1  72   1
M  ISO  4  38 100  39 101  68 100  80 101
M  END
> <Batch ID>
0021

> <Smiles>
CNC(C)C(=O)NC(C(=O)N1Cc2cc([101O:1][101C:1](=O)N(C)c3cc(C)c([100NH:0][100C:0](=O)N4CCCC(n5nc(-c6ccc(Oc7ccc(F)cc7F)cc6)c(C(N)=O)c5N)C4)c(Cl)c3)ccc2CC1C(=O)NC1CCCc2ccccc21)C(C)(C)C

> <Shape>
0.251

> <Color>
0.219

> <Negative vol penalty>
0.000

$$$$

  -OEChem-04042321113D

 86 95  0     1  0  0  0  0  0999 V2000
  -16.8795  -30.3388   23.2303 C   0  0  0  0  0  0  0  0  0  0  0  0
  -18.1419  -30.8863   23.0254 C   0  0  0  0  0  0  0  0  0  0  0  0
  -26.6838  -23.2945   24.9416 C   0  0  0  0  0  0  0  0  0  0  0  0
  -24.1817  -12.7425   19.8782 C   0  0  0  0  0  0  0  0  0  0  0  0
  -25.8076  -12.9339   21.6550 C   0  0  0  0  0  0  0  0  0  0  0  0
  -16.7347  -28.9601   23.3792 C   0  0  0  0  0  0  0  0  0  0  0  0
  -19.2604  -30.0555   22.9703 C   0  0  0  0  0  0  0  0  0  0  0  0
  -25.6506  -29.5002   19.7808 C   0  0  0  0  0  0  0  0  0  0  0  0
  -27.7070  -24.2122   24.7042 C   0  0  0  0  0  0  0  0  0  0  0  0
  -26.3196  -22.3838   23.9497 C   0  0  0  0  0  0  0  0  0  0  0  0
  -24.4114  -11.3682   19.8161 C   0  0  0  0  0  0  0  0  0  0  0  0
  -26.0372  -11.5595   21.5929 C   0  0  0  0  0  0  0  0  0  0  0  0
  -26.9968  -29.3131   20.0914 C   0  0  0  0  0  0  0  0  0  0  0  0
  -24.3067   -7.7543   19.4359 C   0  0  0  0  0  0  0  0  0  0  0  0
  -23.1962   -6.9143   19.3537 C   0  0  0  0  0  0  0  0  0  0  0  0
  -26.6166  -26.9386   20.2826 C   0  0  0  0  0  0  0  0  0  0  0  0
  -28.0018  -23.3088   22.4829 C   0  0  0  0  0  0  0  0  0  0  0  0
  -22.3935   -7.7688   21.4662 C   0  0  0  0  0  0  0  0  0  0  0  0
  -24.8798  -13.5254   20.7977 C   0  0  0  0  0  0  0  0  0  0  0  0
  -23.6946  -15.6139   21.6585 C   0  0  0  0  0  0  0  0  0  0  0  0
  -17.8508  -28.1110   23.3162 C   0  0  0  0  0  0  0  0  0  0  0  0
  -24.7735  -28.4073   19.7293 C   0  0  0  0  0  0  0  0  0  0  0  0
  -19.1306  -28.6643   23.1198 C   0  0  0  0  0  0  0  0  0  0  0  0
  -25.2602  -27.1142   19.9685 C   0  0  0  0  0  0  0  0  0  0  0  0
  -28.3660  -24.2194   23.4748 C   0  0  0  0  0  0  0  0  0  0  0  0
  -26.9786  -22.3910   22.7204 C   0  0  0  0  0  0  0  0  0  0  0  0
  -25.3391  -10.7766   20.6734 C   0  0  0  0  0  0  0  0  0  0  0  0
  -27.4794  -28.0326   20.3452 C   0  0  0  0  0  0  0  0  0  0  0  0
  -24.4606   -8.6015   20.5334 C   0  0  0  0  0  0  0  0  0  0  0  0
  -22.2396   -6.9216   20.3688 C   0  0  0  0  0  0  0  0  0  0  0  0
  -23.5040   -8.6087   21.5485 C   0  0  0  0  0  0  0  0  0  0  0  0
  -24.6435  -14.9453   20.8620 C   0  0  0  0  0  0  0  0  0  0  0  0
  -23.8686  -16.9426   21.3574 C   0  0  0  0  0  0  0  0  0  0  0  0
  -31.2964  -25.7652   21.7188 C   0  0  0  0  0  0  0  0  0  0  0  0
  -30.7863  -26.5871   20.7950 C   0  0  0  0  0  0  0  0  0  0  0  0
  -22.7412  -15.0815   22.5877 C   0  0  0  0  0  0  0  0  0  0  0  0
  -22.1627  -27.5492   21.3265 C   0  0  0  0  0  0  0  0  0  0  0  0
  -22.0806  -25.1587   19.1354 C   0  0  0  0  0  0  0  0  0  0  0  0
  -23.7827  -23.2029   16.9163 C   0  0  0  0  0  0  0  0  0  0  0  0
  -27.1607  -21.3383   20.4389 C   0  0  0  0  0  0  0  0  0  0  0  0
  -17.6505  -26.6315   23.5300 C   0  0  0  0  0  0  0  0  0  0  0  0
  -23.3298  -28.6227   19.3665 C   0  0  0  0  0  0  0  0  0  0  0  0
  -24.3640  -25.9053   19.9059 C   0  0  0  0  0  0  0  0  0  0  0  0
  -32.7072  -25.7810   22.2191 C   0  0  0  0  0  0  0  0  0  0  0  0
  -18.8403  -25.7852   23.0847 C   0  0  0  0  0  0  0  0  0  0  0  0
  -32.6474  -24.7573   23.3422 C   0  0  0  0  0  0  0  0  0  0  0  0
  -26.5534  -19.1637   17.6858 C   0  0  0  0  0  0  0  0  0  0  0  0
  -20.1449  -26.3865   23.5977 C   0  0  0  0  0  0  0  0  0  0  0  0
  -25.9243  -17.9274   18.3322 C   0  0  0  0  0  0  0  0  0  0  0  0
  -27.6406  -19.7742   18.5686 C   0  0  0  0  0  0  0  0  0  0  0  0
  -26.5991  -18.8330   20.5931 C   0  0  0  0  0  0  0  0  0  0  0  0
  -31.5422  -23.8007   22.9229 C   0  0  0  0  0  0  0  0  0  0  0  0
  -20.3650  -27.7935   23.0292 C   0  0  1  0  0  0  0  0  0  0  0  0
  -22.4186  -27.4973   19.8468 C   0  0  1  0  0  0  0  0  0  0  0  0
  -25.4536  -18.2212   19.7702 C   0  0  2  0  0  0  0  0  0  0  0  0
  -29.2153  -26.4330   18.7601 C   0  0  0  0  0  0  0  0  0  0  0  0
  -23.4524  -21.3112   15.3007 C   0  0  0  0  0  0  0  0  0  0  0  0
  -21.9367  -23.1958   21.4669 C   0  0  0  0  0  0  0  0  0  0  0  0
  -22.5625  -21.3673   19.8753 C   0  0  0  0  0  0  0  0  0  0  0  0
  -20.4425  -22.6386   19.5404 C   0  0  0  0  0  0  0  0  0  0  0  0
  -24.6582  -24.8556   14.6226 C   0  0  0  0  0  0  0  0  0  0  0  0
  -29.4666  -25.2067   23.2199 C   0  0  0  0  0  0  0  0  0  0  0  0
  -29.3788  -26.6036   20.2669 C   0  0  2  0  0  0  0  0  0  1  0  0
  -22.6531  -23.7643   19.0525 C   0  0  1  0  0  0  0  0  0  0  0  0
  -23.4874  -22.8214   15.4769 C   0  0  2  0  0  0  0  0  0  0  0  0
  -21.9155  -22.7643   19.9869 C   0  0  0  0  0  0  0  0  0  0  0  0
  -25.3665  -15.7804   20.1111 N   0  0  0  0  0  0  0  0  0  0  0  0
  -24.8718  -16.9874   20.4344 N   0  0  0  0  0  0  0  0  0  0  0  0
  -22.9590  -26.1684   19.5533 N   0  0  0  0  0  0  0  0  0  0  0  0
  -27.1211  -20.0293   19.9139 N   0  0  0  0  0  0  0  0  0  0  0  0
  -23.2598  -18.0654   21.7945 N   0  0  0  0  0  0  0  0  0  0  0  0
  -22.6963  -13.6936   22.7773 N   0  0  0  0  0  0  0  0  0  0  0  0
  -26.6089  -21.4654   21.7132 N   0  0  0  0  0  0  0  0  0  0  0  0
  -20.8329  -27.7187   21.6618 N   0  0  0  0  0  0  0  0  0  0  0  0
  -22.6257  -23.3950   17.6414 N   0  0  0  0  0  0  0  0  0  0  0  0
  -30.5066  -24.6952   22.2642 N   0  3  1  0  0  0  0  0  0  0  0  0
  -24.5311  -23.3764   14.5694 N   0  3  0  0  0  0  0  0  0  0  0  0
  -21.9414  -15.8136   23.2185 O   0  0  0  0  0  0  0  0  0  0  0  0
  -23.1019  -27.4420   22.1062 O   0  0  0  0  0  0  0  0  0  0  0  0
  -20.8994  -25.3464   18.8333 O   0  0  0  0  0  0  0  0  0  0  0  0
  -24.9254  -23.3152   17.3546 O   0  0  0  0  0  0  0  0  0  0  0  0
  -27.6234  -22.2826   19.7937 O   0  0  0  0  0  0  0  0  0  0  0  0
  -25.5633   -9.4354   20.6132 O   0  0  0  0  0  0  0  0  0  0  0  0
  -28.7928  -27.8473   20.6493 O   0  0  0  0  0  0  0  0  0  1  0  0
  -21.1724   -6.1160   20.2890 F   0  0  0  0  0  0  0  0  0  0  0  0
  -23.6459   -9.4213   22.6046 F   0  0  0  0  0  0  0  0  0  0  0  0
  1  2  1  0  0  0  0
  1  6  2  0  0  0  0
  2  7  2  0  0  0  0
  3  9  2  0  0  0  0
  3 10  1  0  0  0  0
  4 11  2  0  0  0  0
  4 19  1  0  0  0  0
  5 12  1  0  0  0  0
  5 19  2  0  0  0  0
  6 21  1  0  0  0  0
  7 23  1  0  0  0  0
  8 13  2  0  0  0  0
  8 22  1  0  0  0  0
  9 25  1  0  0  0  0
 10 26  2  0  0  0  0
 11 27  1  0  0  0  0
 12 27  2  0  0  0  0
 13 28  1  0  0  0  0
 14 15  2  0  0  0  0
 14 29  1  0  0  0  0
 15 30  1  0  0  0  0
 16 24  1  0  0  0  0
 16 28  2  0  0  0  0
 17 25  2  0  0  0  0
 17 26  1  0  0  0  0
 18 30  2  0  0  0  0
 18 31  1  0  0  0  0
 19 32  1  0  0  0  0
 20 32  1  0  0  0  0
 20 33  2  0  0  0  0
 20 36  1  0  0  0  0
 21 23  2  0  0  0  0
 21 41  1  0  0  0  0
 22 24  2  0  0  0  0
 22 42  1  0  0  0  0
 23 53  1  0  0  0  0
 24 43  1  0  0  0  0
 25 62  1  0  0  0  0
 26 73  1  0  0  0  0
 27 83  1  0  0  0  0
 28 84  1  0  0  0  0
 29 31  2  0  0  0  0
 29 83  1  0  0  0  0
 30 85  1  0  0  0  0
 31 86  1  0  0  0  0
 32 67  2  0  0  0  0
 33 68  1  0  0  0  0
 33 71  1  0  0  0  0
 34 35  2  0  0  0  0
 34 44  1  0  0  0  0
 34 76  1  0  0  0  0
 35 63  1  0  0  0  0
 36 72  1  0  0  0  0
 36 78  2  0  0  0  0
 37 54  1  0  0  0  0
 37 74  1  0  0  0  0
 37 79  2  0  0  0  0
 38 64  1  0  0  0  0
 38 69  1  0  0  0  0
 38 80  2  0  0  0  0
 39 65  1  0  0  0  0
 39 75  1  0  0  0  0
 39 81  2  0  0  0  0
 40 70  1  0  0  0  0
 40 73  1  0  0  0  0
 40 82  2  0  0  0  0
 41 45  1  0  0  0  0
 42 54  1  0  0  0  0
 43 69  1  0  0  0  0
 44 46  1  0  0  0  0
 45 48  1  0  0  0  0
 46 52  1  0  0  0  0
 47 49  1  0  0  0  0
 47 50  1  0  0  0  0
 48 53  1  0  0  0  0
 49 55  1  0  0  0  0
 50 70  1  0  0  0  0
 51 55  1  0  0  0  0
 51 70  1  0  0  0  0
 52 76  1  0  0  0  0
 53 74  1  0  0  0  0
 54 69  1  0  0  0  0
 55 68  1  0  0  0  0
 56 63  1  0  0  0  0
 57 65  1  0  0  0  0
 58 66  1  0  0  0  0
 59 66  1  0  0  0  0
 60 66  1  0  0  0  0
 61 77  1  0  0  0  0
 62 76  1  0  0  0  0
 63 84  1  0  0  0  0
 64 66  1  0  0  0  0
 64 75  1  0  0  0  0
 65 77  1  0  0  0  0
 67 68  1  0  0  0  0
M  CHG  2  76   1  77   1
M  ISO  4  40 100  63 101  73 100  84 101
M  END
> <Batch ID>
0021

> <Smiles>
CNC(C)C(=O)NC(C(=O)N1Cc2cc([101O:1][101CH:1](C)C=C3CCCN3Cc3cccc([100NH:0][100C:0](=O)N4CCCC(n5nc(-c6ccc(Oc7ccc(F)cc7F)cc6)c(C(N)=O)c5N)C4)c3)ccc2CC1C(=O)NC1CCCc2ccccc21)C(C)(C)C

> <Shape>
0.210

> <Color>
0.081

> <Negative vol penalty>
0.000

$$$$

  -OEChem-04042321113D

 88 97  0     1  0  0  0  0  0999 V2000
  -17.3309  -26.4546   21.7784 C   0  0  0  0  0  0  0  0  0  0  0  0
  -18.4418  -25.9055   22.4107 C   0  0  0  0  0  0  0  0  0  0  0  0
  -24.2716   -9.7460   20.7904 C   0  0  0  0  0  0  0  0  0  0  0  0
  -24.8634  -10.4458   23.0258 C   0  0  0  0  0  0  0  0  0  0  0  0
  -17.4735  -27.5915   20.9840 C   0  0  0  0  0  0  0  0  0  0  0  0
  -19.6962  -26.4924   22.2480 C   0  0  0  0  0  0  0  0  0  0  0  0
  -24.1699  -26.8327   26.4165 C   0  0  0  0  0  0  0  0  0  0  0  0
  -30.4896  -20.7092   22.5832 C   0  0  0  0  0  0  0  0  0  0  0  0
  -30.2676  -19.5254   21.8797 C   0  0  0  0  0  0  0  0  0  0  0  0
  -23.9555   -8.4755   21.2718 C   0  0  0  0  0  0  0  0  0  0  0  0
  -24.5473   -9.1754   23.5073 C   0  0  0  0  0  0  0  0  0  0  0  0
  -25.3178  -26.0693   26.6250 C   0  0  0  0  0  0  0  0  0  0  0  0
  -22.6493   -5.1556   21.9694 C   0  0  0  0  0  0  0  0  0  0  0  0
  -21.4661   -4.5682   21.5216 C   0  0  0  0  0  0  0  0  0  0  0  0
  -26.6081  -27.6791   25.3749 C   0  0  0  0  0  0  0  0  0  0  0  0
  -28.1253  -20.8740   23.0523 C   0  0  0  0  0  0  0  0  0  0  0  0
  -20.2024   -6.4068   22.4489 C   0  0  0  0  0  0  0  0  0  0  0  0
  -24.7256  -10.7311   21.6674 C   0  0  0  0  0  0  0  0  0  0  0  0
  -24.1881  -13.1482   21.0540 C   0  0  0  0  0  0  0  0  0  0  0  0
  -18.7286  -28.1983   20.8194 C   0  0  0  0  0  0  0  0  0  0  0  0
  -24.2306  -28.0214   25.6751 C   0  0  0  0  0  0  0  0  0  0  0  0
  -19.8559  -27.6377   21.4496 C   0  0  0  0  0  0  0  0  0  0  0  0
  -25.4600  -28.4571   25.1606 C   0  0  0  0  0  0  0  0  0  0  0  0
  -27.9032  -19.6902   22.3488 C   0  0  0  0  0  0  0  0  0  0  0  0
  -29.4185  -21.3835   23.1696 C   0  0  0  0  0  0  0  0  0  0  0  0
  -28.9744  -19.0159   21.7624 C   0  0  0  0  0  0  0  0  0  0  0  0
  -24.0933   -8.1902   22.6302 C   0  0  0  0  0  0  0  0  0  0  0  0
  -26.5365  -26.4910   26.1017 C   0  0  0  0  0  0  0  0  0  0  0  0
  -22.6091   -6.3685   22.6571 C   0  0  0  0  0  0  0  0  0  0  0  0
  -20.2426   -5.1939   21.7613 C   0  0  0  0  0  0  0  0  0  0  0  0
  -21.3857   -6.9942   22.8968 C   0  0  0  0  0  0  0  0  0  0  0  0
  -25.0528  -12.0434   21.1707 C   0  0  0  0  0  0  0  0  0  0  0  0
  -24.9749  -14.1467   20.5340 C   0  0  0  0  0  0  0  0  0  0  0  0
  -28.6737  -23.3849   24.5365 C   0  0  0  0  0  0  0  0  0  0  0  0
  -22.7979  -13.2617   21.3860 C   0  0  0  0  0  0  0  0  0  0  0  0
  -22.9144  -29.0475   22.9699 C   0  0  0  0  0  0  0  0  0  0  0  0
  -24.3256  -31.8474   23.8015 C   0  0  0  0  0  0  0  0  0  0  0  0
  -26.7869  -33.4462   25.5429 C   0  0  0  0  0  0  0  0  0  0  0  0
  -29.7361  -17.0310   20.4111 C   0  0  0  0  0  0  0  0  0  0  0  0
  -18.8414  -29.3984   19.9128 C   0  0  0  0  0  0  0  0  0  0  0  0
  -22.9884  -28.8472   25.4819 C   0  0  0  0  0  0  0  0  0  0  0  0
  -25.5824  -29.7362   24.3749 C   0  0  0  0  0  0  0  0  0  0  0  0
  -20.1410  -30.1785   20.0939 C   0  0  0  0  0  0  0  0  0  0  0  0
  -29.6394  -13.9818   18.5752 C   0  0  0  0  0  0  0  0  0  0  0  0
  -21.3333  -29.2279   20.1327 C   0  0  0  0  0  0  0  0  0  0  0  0
  -28.3664  -13.2966   19.0772 C   0  0  0  0  0  0  0  0  0  0  0  0
  -30.7403  -24.5654   24.5235 C   0  0  0  0  0  0  0  0  0  0  0  0
  -30.3575  -14.7342   19.6942 C   0  0  0  0  0  0  0  0  0  0  0  0
  -30.9786  -23.1322   24.0919 C   0  0  0  0  0  0  0  0  0  0  0  0
  -28.2490  -15.0002   20.9403 C   0  0  0  0  0  0  0  0  0  0  0  0
  -21.2290  -28.2600   21.3175 C   0  0  1  0  0  0  0  0  0  0  0  0
  -29.4184  -24.4865   25.2733 C   0  0  1  0  0  0  0  0  0  0  0  0
  -23.0702  -29.7762   24.2746 C   0  0  1  0  0  0  0  0  0  0  0  0
  -27.4566  -14.2833   19.8349 C   0  0  2  0  0  0  0  0  0  0  0  0
  -27.7103  -35.7350   25.9970 C   0  0  0  0  0  0  0  0  0  0  0  0
  -25.6236  -31.8689   21.0402 C   0  0  0  0  0  0  0  0  0  0  0  0
  -27.2235  -33.6007   21.8824 C   0  0  0  0  0  0  0  0  0  0  0  0
  -24.7789  -34.0923   21.8132 C   0  0  0  0  0  0  0  0  0  0  0  0
  -26.2442  -33.2165   28.4432 C   0  0  0  0  0  0  0  0  0  0  0  0
  -28.6644  -25.8029   25.2927 C   0  0  0  0  0  0  0  0  0  1  0  0
  -25.6710  -32.4833   23.5474 C   0  0  1  0  0  0  0  0  0  0  0  0
  -26.7487  -34.6529   26.4631 C   0  0  2  0  0  0  0  0  0  0  0  0
  -26.5081  -19.1661   22.2407 C   0  0  0  0  0  0  0  0  0  0  0  0
  -25.8219  -32.9861   22.0839 C   0  0  0  0  0  0  0  0  0  0  0  0
  -26.2939  -12.3142   20.7579 N   0  0  0  0  0  0  0  0  0  0  0  0
  -26.2147  -13.6005   20.3766 N   0  0  0  0  0  0  0  0  0  0  0  0
  -29.6463  -22.5932   23.8917 N   0  0  0  0  0  0  0  0  0  0  0  0
  -24.3383  -30.5055   24.2076 N   0  0  0  0  0  0  0  0  0  0  0  0
  -29.4348  -15.6534   20.3641 N   0  0  0  0  0  0  0  0  0  0  0  0
  -24.7203  -15.4298   20.2005 N   0  0  0  0  0  0  0  0  0  0  0  0
  -22.1423  -12.1393   21.9102 N   0  0  0  0  0  0  0  0  0  0  0  0
  -28.7697  -17.8112   21.0451 N   0  0  0  0  0  0  0  0  0  0  0  0
  -21.6046  -28.9243   22.5473 N   0  0  0  0  0  0  0  0  0  0  0  0
  -25.8269  -33.5255   24.5564 N   0  0  0  0  0  0  0  0  0  0  0  0
  -27.1222  -34.2582   27.8508 N   0  3  0  0  0  0  0  0  0  0  0  0
  -27.4610  -23.2419   24.5947 O   0  0  0  0  0  0  0  0  0  0  0  0
  -22.1520  -14.3221   21.2074 O   0  0  0  0  0  0  0  0  0  0  0  0
  -23.9090  -28.6294   22.3888 O   0  0  0  0  0  0  0  0  0  0  0  0
  -23.3015  -32.5187   23.6522 O   0  0  0  0  0  0  0  0  0  0  0  0
  -27.5907  -32.5270   25.6829 O   0  0  0  0  0  0  0  0  0  0  0  0
  -30.7618  -17.4887   19.9008 O   0  0  0  0  0  0  0  0  0  0  0  0
  -23.7848   -6.9507   23.1003 O   0  0  0  0  0  0  0  0  0  0  0  0
  -27.6583  -25.7474   26.3032 O   0  0  0  0  0  0  0  0  0  1  0  0
  -19.1066   -4.6305   21.3298 F   0  0  0  0  0  0  0  0  0  0  0  0
  -21.3409   -8.1601   23.5558 F   0  0  0  0  0  0  0  0  0  0  0  0
  -25.5829  -19.9459   22.8723 F   0  0  0  0  0  0  0  0  0  0  0  0
  -26.0663  -19.0566   20.9541 F   0  0  0  0  0  0  0  0  0  0  0  0
  -26.3739  -17.9223   22.7837 F   0  0  0  0  0  0  0  0  0  0  0  0
  1  2  1  0  0  0  0
  1  5  2  0  0  0  0
  2  6  2  0  0  0  0
  3 10  2  0  0  0  0
  3 18  1  0  0  0  0
  4 11  1  0  0  0  0
  4 18  2  0  0  0  0
  5 20  1  0  0  0  0
  6 22  1  0  0  0  0
  7 12  2  0  0  0  0
  7 21  1  0  0  0  0
  8  9  2  0  0  0  0
  8 25  1  0  0  0  0
  9 26  1  0  0  0  0
 10 27  1  0  0  0  0
 11 27  2  0  0  0  0
 12 28  1  0  0  0  0
 13 14  2  0  0  0  0
 13 29  1  0  0  0  0
 14 30  1  0  0  0  0
 15 23  1  0  0  0  0
 15 28  2  0  0  0  0
 16 24  1  0  0  0  0
 16 25  2  0  0  0  0
 17 30  2  0  0  0  0
 17 31  1  0  0  0  0
 18 32  1  0  0  0  0
 19 32  1  0  0  0  0
 19 33  2  0  0  0  0
 19 35  1  0  0  0  0
 20 22  2  0  0  0  0
 20 40  1  0  0  0  0
 21 23  2  0  0  0  0
 21 41  1  0  0  0  0
 22 51  1  0  0  0  0
 23 42  1  0  0  0  0
 24 26  2  0  0  0  0
 24 63  1  0  0  0  0
 25 67  1  0  0  0  0
 26 72  1  0  0  0  0
 27 82  1  0  0  0  0
 28 83  1  0  0  0  0
 29 31  2  0  0  0  0
 29 82  1  0  0  0  0
 30 84  1  0  0  0  0
 31 85  1  0  0  0  0
 32 65  2  0  0  0  0
 33 66  1  0  0  0  0
 33 70  1  0  0  0  0
 34 52  1  0  0  0  0
 34 67  1  0  0  0  0
 34 76  2  0  0  0  0
 35 71  1  0  0  0  0
 35 77  2  0  0  0  0
 36 53  1  0  0  0  0
 36 73  1  0  0  0  0
 36 78  2  0  0  0  0
 37 61  1  0  0  0  0
 37 68  1  0  0  0  0
 37 79  2  0  0  0  0
 38 62  1  0  0  0  0
 38 74  1  0  0  0  0
 38 80  2  0  0  0  0
 39 69  1  0  0  0  0
 39 72  1  0  0  0  0
 39 81  2  0  0  0  0
 40 43  1  0  0  0  0
 41 53  1  0  0  0  0
 42 68  1  0  0  0  0
 43 45  1  0  0  0  0
 44 46  1  0  0  0  0
 44 48  1  0  0  0  0
 45 51  1  0  0  0  0
 46 54  1  0  0  0  0
 47 49  1  0  0  0  0
 47 52  1  0  0  0  0
 48 69  1  0  0  0  0
 49 67  1  0  0  0  0
 50 54  1  0  0  0  0
 50 69  1  0  0  0  0
 51 73  1  0  0  0  0
 52 60  1  0  0  0  0
 53 68  1  0  0  0  0
 54 66  1  0  0  0  0
 55 62  1  0  0  0  0
 56 64  1  0  0  0  0
 57 64  1  0  0  0  0
 58 64  1  0  0  0  0
 59 75  1  0  0  0  0
 60 83  1  0  0  0  0
 61 64  1  0  0  0  0
 61 74  1  0  0  0  0
 62 75  1  0  0  0  0
 63 86  1  0  0  0  0
 63 87  1  0  0  0  0
 63 88  1  0  0  0  0
 65 66  1  0  0  0  0
M  CHG  1  75   1
M  ISO  4  39 100  60 101  72 100  83 101
M  END
> <Batch ID>
0021

> <Smiles>
CNC(C)C(=O)NC(C(=O)N1Cc2cc([101O:1][101CH2:1]C3CCN(c4ccc([100NH:0][100C:0](=O)N5CCCC(n6nc(-c7ccc(Oc8ccc(F)cc8F)cc7)c(C(N)=O)c6N)C5)c(C(F)(F)F)c4)C3=O)ccc2CC1C(=O)NC1CCCc2ccccc21)C(C)(C)C

> <Shape>
0.273

> <Color>
0.158

> <Negative vol penalty>
0.000

$$$$

  -OEChem-04042321113D

 90 99  0     1  0  0  0  0  0999 V2000
  -18.0553  -36.2134   20.4610 C   0  0  0  0  0  0  0  0  0  0  0  0
  -19.3778  -36.3754   20.0609 C   0  0  0  0  0  0  0  0  0  0  0  0
  -23.6116   -9.9951   21.7000 C   0  0  0  0  0  0  0  0  0  0  0  0
  -25.0455  -10.6025   23.5473 C   0  0  0  0  0  0  0  0  0  0  0  0
  -17.7681  -35.6486   21.7029 C   0  0  0  0  0  0  0  0  0  0  0  0
  -20.4141  -35.9736   20.9030 C   0  0  0  0  0  0  0  0  0  0  0  0
  -25.2441  -31.0763   18.7632 C   0  0  0  0  0  0  0  0  0  0  0  0
  -23.1726   -8.8767   22.4085 C   0  0  0  0  0  0  0  0  0  0  0  0
  -24.6064   -9.4841   24.2558 C   0  0  0  0  0  0  0  0  0  0  0  0
  -26.3288  -30.3020   18.3509 C   0  0  0  0  0  0  0  0  0  0  0  0
  -20.9935   -8.2077   24.9059 C   0  0  0  0  0  0  0  0  0  0  0  0
  -19.6241   -7.9430   24.9157 C   0  0  0  0  0  0  0  0  0  0  0  0
  -27.2960  -30.4605   20.5616 C   0  0  0  0  0  0  0  0  0  0  0  0
  -30.5170  -20.4544   22.2655 C   0  0  0  0  0  0  0  0  0  0  0  0
  -28.4523  -21.1416   21.2159 C   0  0  0  0  0  0  0  0  0  0  0  0
  -20.0317   -5.7955   23.8867 C   0  0  0  0  0  0  0  0  0  0  0  0
  -24.5481  -10.8580   22.2694 C   0  0  0  0  0  0  0  0  0  0  0  0
  -24.2179  -13.0809   21.0622 C   0  0  0  0  0  0  0  0  0  0  0  0
  -18.8012  -35.2308   22.5566 C   0  0  0  0  0  0  0  0  0  0  0  0
  -25.1735  -31.5332   20.0822 C   0  0  0  0  0  0  0  0  0  0  0  0
  -20.1405  -35.4038   22.1581 C   0  0  0  0  0  0  0  0  0  0  0  0
  -26.2058  -31.2260   20.9838 C   0  0  0  0  0  0  0  0  0  0  0  0
  -29.5859  -21.4495   21.9682 C   0  0  0  0  0  0  0  0  0  0  0  0
  -29.1811  -18.8435   21.0583 C   0  0  0  0  0  0  0  0  0  0  0  0
  -23.6699   -8.6212   23.6864 C   0  0  0  0  0  0  0  0  0  0  0  0
  -27.3523  -29.9951   19.2478 C   0  0  0  0  0  0  0  0  0  0  0  0
  -21.8821   -7.2662   24.3865 C   0  0  0  0  0  0  0  0  0  0  0  0
  -19.1431   -6.7369   24.4061 C   0  0  0  0  0  0  0  0  0  0  0  0
  -30.3147  -19.1514   21.8105 C   0  0  0  0  0  0  0  0  0  0  0  0
  -21.4012   -6.0601   23.8769 C   0  0  0  0  0  0  0  0  0  0  0  0
  -28.2499  -19.8386   20.7610 C   0  0  0  0  0  0  0  0  0  0  0  0
  -25.0025  -12.0132   21.5377 C   0  0  0  0  0  0  0  0  0  0  0  0
  -25.1142  -13.9148   20.4395 C   0  0  0  0  0  0  0  0  0  0  0  0
  -29.3009  -24.4609   20.6586 C   0  0  0  0  0  0  0  0  0  0  0  0
  -22.8053  -13.2994   21.1734 C   0  0  0  0  0  0  0  0  0  0  0  0
  -23.2409  -33.4572   22.6589 C   0  0  0  0  0  0  0  0  0  0  0  0
  -24.3697  -30.9739   24.0623 C   0  0  0  0  0  0  0  0  0  0  0  0
  -24.9343  -28.2954   26.0980 C   0  0  0  0  0  0  0  0  0  0  0  0
  -29.9987  -16.5842   20.3012 C   0  0  0  0  0  0  0  0  0  0  0  0
  -18.4424  -34.6690   23.9095 C   0  0  0  0  0  0  0  0  0  0  0  0
  -24.0544  -32.4217   20.5535 C   0  0  0  0  0  0  0  0  0  0  0  0
  -26.1048  -31.7682   22.3833 C   0  0  0  0  0  0  0  0  0  0  0  0
  -19.5921  -33.9254   24.5846 C   0  0  0  0  0  0  0  0  0  0  0  0
  -32.1553  -24.6454   20.0373 C   0  0  0  0  0  0  0  0  0  0  0  0
  -29.9698  -13.1976   19.2023 C   0  0  0  0  0  0  0  0  0  0  0  0
  -20.8798  -34.7379   24.4938 C   0  0  0  0  0  0  0  0  0  0  0  0
  -31.2500  -25.8193   19.7171 C   0  0  0  0  0  0  0  0  0  0  0  0
  -28.6104  -12.6754   19.6728 C   0  0  0  0  0  0  0  0  0  0  0  0
  -31.6885  -23.9792   21.3187 C   0  0  0  0  0  0  0  0  0  0  0  0
  -30.5826  -14.1706   20.2081 C   0  0  0  0  0  0  0  0  0  0  0  0
  -28.3533  -14.7640   21.0724 C   0  0  0  0  0  0  0  0  0  0  0  0
  -21.2917  -34.9576   23.0331 C   0  0  1  0  0  0  0  0  0  0  0  0
  -29.8384  -25.3009   19.5101 C   0  0  2  0  0  0  0  0  0  0  0  0
  -23.6567  -32.1656   22.0182 C   0  0  1  0  0  0  0  0  0  0  0  0
  -27.6669  -13.8304   20.0619 C   0  0  2  0  0  0  0  0  0  0  0  0
  -25.1456  -27.6717   28.5195 C   0  0  0  0  0  0  0  0  0  0  0  0
  -27.1581  -32.2081   24.1330 C   0  0  0  0  0  0  0  0  0  0  0  0
  -27.6629  -30.7789   26.1257 C   0  0  0  0  0  0  0  0  0  0  0  0
  -25.8425  -32.4805   26.2424 C   0  0  0  0  0  0  0  0  0  0  0  0
  -22.6336  -26.4403   25.9408 C   0  0  0  0  0  0  0  0  0  0  0  0
  -29.8055  -22.8517   22.4576 C   0  0  0  0  0  0  0  0  0  0  0  0
  -29.1319  -27.1227   17.9487 C   0  0  0  0  0  0  0  0  0  0  0  0
  -28.1544  -28.2738   17.8156 C   0  0  0  0  0  0  0  0  0  1  0  0
  -25.4917  -30.3817   24.8770 C   0  0  1  0  0  0  0  0  0  0  0  0
  -24.2041  -27.7959   27.3317 C   0  0  2  0  0  0  0  0  0  0  0  0
  -26.5304  -31.4505   25.3200 C   0  0  0  0  0  0  0  0  0  0  0  0
  -26.2975  -12.1533   21.2424 N   0  0  0  0  0  0  0  0  0  0  0  0
  -26.3336  -13.3189   20.5744 N   0  0  0  0  0  0  0  0  0  0  0  0
  -30.2466  -23.7393   21.3896 N   0  0  0  0  0  0  0  0  0  0  0  0
  -24.7260  -31.6295   22.8775 N   0  0  0  0  0  0  0  0  0  0  0  0
  -29.6337  -15.2399   20.5259 N   0  0  0  0  0  0  0  0  0  0  0  0
  -24.9703  -15.0923   19.7951 N   0  0  0  0  0  0  0  0  0  0  0  0
  -22.0321  -12.3429   21.8453 N   0  0  0  0  0  0  0  0  0  0  0  0
  -29.0037  -17.5111   20.6099 N   0  0  0  0  0  0  0  0  0  0  0  0
  -21.9029  -33.7613   22.4950 N   0  0  0  0  0  0  0  0  0  0  0  0
  -24.8611  -29.6674   25.9817 N   0  0  0  0  0  0  0  0  0  0  0  0
  -28.9474  -26.4736   19.2711 N   0  3  0  0  0  0  0  0  0  0  0  0
  -23.5990  -26.4595   27.0698 N   0  3  0  0  0  0  0  0  0  0  0  0
  -28.0843  -24.3883   20.8529 O   0  0  0  0  0  0  0  0  0  0  0  0
  -22.2429  -14.3048   20.6769 O   0  0  0  0  0  0  0  0  0  0  0  0
  -24.0716  -34.1287   23.2594 O   0  0  0  0  0  0  0  0  0  0  0  0
  -23.2084  -30.8645   24.4658 O   0  0  0  0  0  0  0  0  0  0  0  0
  -25.5148  -27.5440   25.3178 O   0  0  0  0  0  0  0  0  0  0  0  0
  -31.1022  -16.8888   19.8411 O   0  0  0  0  0  0  0  0  0  0  0  0
  -23.2415   -7.5301   24.3782 O   0  0  0  0  0  0  0  0  0  0  0  0
  -28.4061  -29.2349   18.8399 O   0  0  0  0  0  0  0  0  0  1  0  0
  -17.8281   -6.4823   24.4170 F   0  0  0  0  0  0  0  0  0  0  0  0
  -31.2177  -18.2043   22.1029 F   0  0  0  0  0  0  0  0  0  0  0  0
  -22.2501   -5.1513   23.3776 F   0  0  0  0  0  0  0  0  0  0  0  0
  -26.8331  -19.5014   19.8312 Cl  0  0  0  0  0  0  0  0  0  0  0  0
  1  2  1  0  0  0  0
  1  5  2  0  0  0  0
  2  6  2  0  0  0  0
  3  8  2  0  0  0  0
  3 17  1  0  0  0  0
  4  9  1  0  0  0  0
  4 17  2  0  0  0  0
  5 19  1  0  0  0  0
  6 21  1  0  0  0  0
  7 10  2  0  0  0  0
  7 20  1  0  0  0  0
  8 25  1  0  0  0  0
  9 25  2  0  0  0  0
 10 26  1  0  0  0  0
 11 12  2  0  0  0  0
 11 27  1  0  0  0  0
 12 28  1  0  0  0  0
 13 22  1  0  0  0  0
 13 26  2  0  0  0  0
 14 23  1  0  0  0  0
 14 29  2  0  0  0  0
 15 23  2  0  0  0  0
 15 31  1  0  0  0  0
 16 28  2  0  0  0  0
 16 30  1  0  0  0  0
 17 32  1  0  0  0  0
 18 32  1  0  0  0  0
 18 33  2  0  0  0  0
 18 35  1  0  0  0  0
 19 21  2  0  0  0  0
 19 40  1  0  0  0  0
 20 22  2  0  0  0  0
 20 41  1  0  0  0  0
 21 52  1  0  0  0  0
 22 42  1  0  0  0  0
 23 61  1  0  0  0  0
 24 29  1  0  0  0  0
 24 31  2  0  0  0  0
 24 74  1  0  0  0  0
 25 85  1  0  0  0  0
 26 86  1  0  0  0  0
 27 30  2  0  0  0  0
 27 85  1  0  0  0  0
 28 87  1  0  0  0  0
 29 88  1  0  0  0  0
 30 89  1  0  0  0  0
 31 90  1  0  0  0  0
 32 67  2  0  0  0  0
 33 68  1  0  0  0  0
 33 72  1  0  0  0  0
 34 53  1  0  0  0  0
 34 69  1  0  0  0  0
 34 79  2  0  0  0  0
 35 73  1  0  0  0  0
 35 80  2  0  0  0  0
 36 54  1  0  0  0  0
 36 75  1  0  0  0  0
 36 81  2  0  0  0  0
 37 64  1  0  0  0  0
 37 70  1  0  0  0  0
 37 82  2  0  0  0  0
 38 65  1  0  0  0  0
 38 76  1  0  0  0  0
 38 83  2  0  0  0  0
 39 71  1  0  0  0  0
 39 74  1  0  0  0  0
 39 84  2  0  0  0  0
 40 43  1  0  0  0  0
 41 54  1  0  0  0  0
 42 70  1  0  0  0  0
 43 46  1  0  0  0  0
 44 47  1  0  0  0  0
 44 49  1  0  0  0  0
 45 48  1  0  0  0  0
 45 50  1  0  0  0  0
 46 52  1  0  0  0  0
 47 53  1  0  0  0  0
 48 55  1  0  0  0  0
 49 69  1  0  0  0  0
 50 71  1  0  0  0  0
 51 55  1  0  0  0  0
 51 71  1  0  0  0  0
 52 75  1  0  0  0  0
 53 77  1  0  0  0  0
 54 70  1  0  0  0  0
 55 68  1  0  0  0  0
 56 65  1  0  0  0  0
 57 66  1  0  0  0  0
 58 66  1  0  0  0  0
 59 66  1  0  0  0  0
 60 78  1  0  0  0  0
 61 69  1  0  0  0  0
 62 63  1  0  0  0  0
 62 77  1  0  0  0  0
 63 86  1  0  0  0  0
 64 66  1  0  0  0  0
 64 76  1  0  0  0  0
 65 78  1  0  0  0  0
 67 68  1  0  0  0  0
M  CHG  2  77   1  78   1
M  ISO  4  39 100  63 101  74 100  86 101
M  END
> <Batch ID>
0021

> <Smiles>
CNC(C)C(=O)NC(C(=O)N1Cc2cc([101O:1][101CH2:1]CNC3CCCN(Cc4cc(F)c([100NH:0][100C:0](=O)N5CCCC(n6nc(-c7ccc(Oc8ccc(F)cc8F)cc7)c(C(N)=O)c6N)C5)c(Cl)c4)C3=O)ccc2CC1C(=O)NC1CCCc2ccccc21)C(C)(C)C

> <Shape>
0.279

> <Color>
0.108

> <Negative vol penalty>
0.000

$$$$

  -OEChem-04042321113D

 87 95  0     1  0  0  0  0  0999 V2000
  -26.1114  -33.1528   21.4887 C   0  0  0  0  0  0  0  0  0  0  0  0
  -27.0776  -32.4089   22.1584 C   0  0  0  0  0  0  0  0  0  0  0  0
  -31.0843  -17.5861   23.7601 C   0  0  0  0  0  0  0  0  0  0  0  0
  -23.3071   -9.7780   20.0482 C   0  0  0  0  0  0  0  0  0  0  0  0
  -23.6565  -10.1224   22.4139 C   0  0  0  0  0  0  0  0  0  0  0  0
  -24.9848  -32.5198   20.9653 C   0  0  0  0  0  0  0  0  0  0  0  0
  -26.9172  -31.0317   22.3059 C   0  0  0  0  0  0  0  0  0  0  0  0
  -31.6579  -25.1902   20.2010 C   0  0  0  0  0  0  0  0  0  0  0  0
  -31.2620  -18.0732   22.4652 C   0  0  0  0  0  0  0  0  0  0  0  0
  -30.6326  -16.2814   23.9586 C   0  0  0  0  0  0  0  0  0  0  0  0
  -22.5624   -8.6316   20.3251 C   0  0  0  0  0  0  0  0  0  0  0  0
  -22.9117   -8.9760   22.6908 C   0  0  0  0  0  0  0  0  0  0  0  0
  -32.3395  -24.0664   19.7335 C   0  0  0  0  0  0  0  0  0  0  0  0
  -20.7988   -6.3410   24.0365 C   0  0  0  0  0  0  0  0  0  0  0  0
  -19.8520   -6.4130   25.0582 C   0  0  0  0  0  0  0  0  0  0  0  0
  -30.2621  -22.8319   19.6404 C   0  0  0  0  0  0  0  0  0  0  0  0
  -30.5363  -15.9508   21.5673 C   0  0  0  0  0  0  0  0  0  0  0  0
  -18.7020   -8.1734   23.8685 C   0  0  0  0  0  0  0  0  0  0  0  0
  -23.8543  -10.5234   21.0926 C   0  0  0  0  0  0  0  0  0  0  0  0
  -24.1439  -13.0252   20.6865 C   0  0  0  0  0  0  0  0  0  0  0  0
  -24.8152  -31.1327   21.0981 C   0  0  0  0  0  0  0  0  0  0  0  0
  -30.2720  -25.1439   20.3755 C   0  0  0  0  0  0  0  0  0  0  0  0
  -25.7866  -30.3797   21.7850 C   0  0  0  0  0  0  0  0  0  0  0  0
  -29.5723  -23.9584   20.0965 C   0  0  0  0  0  0  0  0  0  0  0  0
  -30.9880  -17.2555   21.3688 C   0  0  0  0  0  0  0  0  0  0  0  0
  -30.3585  -15.4638   22.8623 C   0  0  0  0  0  0  0  0  0  0  0  0
  -22.3646   -8.2306   21.6463 C   0  0  0  0  0  0  0  0  0  0  0  0
  -31.6434  -22.8901   19.4541 C   0  0  0  0  0  0  0  0  0  0  0  0
  -20.6973   -7.1853   22.9308 C   0  0  0  0  0  0  0  0  0  0  0  0
  -18.8035   -7.3291   24.9742 C   0  0  0  0  0  0  0  0  0  0  0  0
  -19.6488   -8.1015   22.8468 C   0  0  0  0  0  0  0  0  0  0  0  0
  -24.6242  -11.7074   20.8072 C   0  0  0  0  0  0  0  0  0  0  0  0
  -25.2620  -13.7745   20.4132 C   0  0  0  0  0  0  0  0  0  0  0  0
  -22.8065  -13.5271   20.8105 C   0  0  0  0  0  0  0  0  0  0  0  0
  -27.1525  -26.9704   21.3799 C   0  0  0  0  0  0  0  0  0  0  0  0
  -26.4407  -25.2746   18.9248 C   0  0  0  0  0  0  0  0  0  0  0  0
  -32.9030  -19.5067   19.4221 C   0  0  0  0  0  0  0  0  0  0  0  0
  -26.1758  -23.5938   15.9680 C   0  0  0  0  0  0  0  0  0  0  0  0
  -31.1233  -12.4386   21.5961 C   0  0  0  0  0  0  0  0  0  0  0  0
  -23.5577  -30.4999   20.5569 C   0  0  0  0  0  0  0  0  0  0  0  0
  -29.5050  -26.3110   20.9354 C   0  0  0  0  0  0  0  0  0  0  0  0
  -28.0866  -23.9438   20.3321 C   0  0  0  0  0  0  0  0  0  0  0  0
  -23.6461  -28.9813   20.4294 C   0  0  0  0  0  0  0  0  0  0  0  0
  -29.5828  -13.4756   18.3941 C   0  0  0  0  0  0  0  0  0  0  0  0
  -24.2345  -28.3725   21.6983 C   0  0  0  0  0  0  0  0  0  0  0  0
  -28.1019  -13.1798   18.6257 C   0  0  0  0  0  0  0  0  0  0  0  0
  -30.4803  -12.5556   19.2161 C   0  0  0  0  0  0  0  0  0  0  0  0
  -28.6972  -12.2680   20.9049 C   0  0  0  0  0  0  0  0  0  0  0  0
  -25.6605  -28.8800   21.9439 C   0  0  1  0  0  0  0  0  0  0  0  0
  -28.0949  -26.4507   20.3344 C   0  0  1  0  0  0  0  0  0  0  0  0
  -27.7649  -13.2086   20.1266 C   0  0  2  0  0  0  0  0  0  0  0  0
  -34.8081  -15.2927   18.6165 C   0  0  0  0  0  0  0  0  0  0  0  0
  -24.5241  -23.0260   14.1662 C   0  0  0  0  0  0  0  0  0  0  0  0
  -25.1618  -23.1979   20.7566 C   0  0  0  0  0  0  0  0  0  0  0  0
  -24.2484  -22.0664   18.7186 C   0  0  0  0  0  0  0  0  0  0  0  0
  -23.5572  -24.4008   19.2623 C   0  0  0  0  0  0  0  0  0  0  0  0
  -31.9450  -12.9790   23.8572 C   0  0  0  0  0  0  0  0  0  0  0  0
  -27.7764  -24.9828   13.9022 C   0  0  0  0  0  0  0  0  0  0  0  0
  -31.1810  -17.7801   19.9753 C   0  0  0  0  0  0  0  0  0  0  0  0
  -29.8749  -14.0689   23.0747 C   0  0  0  0  0  0  0  0  0  0  0  0
  -31.7803  -20.5187   19.3317 C   0  0  0  0  0  0  0  0  0  1  0  0
  -33.7899  -16.4191   18.5100 C   0  0  0  0  0  0  0  0  0  0  0  0
  -33.5519  -17.1255   19.8393 C   0  0  0  0  0  0  0  0  0  0  0  0
  -25.8958  -23.9686   18.4043 C   0  0  1  0  0  0  0  0  0  0  0  0
  -25.5963  -24.0018   14.6256 C   0  0  2  0  0  0  0  0  0  0  0  0
  -24.7438  -23.4128   19.2883 C   0  0  0  0  0  0  0  0  0  0  0  0
  -25.9446  -11.6212   20.6253 N   0  0  0  0  0  0  0  0  0  0  0  0
  -26.3035  -12.8942   20.3874 N   0  0  0  0  0  0  0  0  0  0  0  0
  -27.4892  -25.1988   19.8497 N   0  0  0  0  0  0  0  0  0  0  0  0
  -30.1104  -12.5692   20.6318 N   0  0  0  0  0  0  0  0  0  0  0  0
  -25.4461  -15.0939   20.1946 N   0  0  0  0  0  0  0  0  0  0  0  0
  -21.7762  -12.6202   21.0939 N   0  0  0  0  0  0  0  0  0  0  0  0
  -26.5962  -28.1982   21.0756 N   0  0  0  0  0  0  0  0  0  0  0  0
  -25.5209  -24.2074   17.0148 N   0  0  0  0  0  0  0  0  0  0  0  0
  -32.5585  -18.1909   19.7330 N   0  0  0  0  0  0  0  0  0  0  0  0
  -30.9184  -13.0758   22.8293 N   0  0  0  0  0  0  0  0  0  0  0  0
  -26.6675  -24.0447   13.5904 N   0  3  0  0  0  0  0  0  0  0  0  0
  -22.5310  -14.7412   20.6577 O   0  0  0  0  0  0  0  0  0  0  0  0
  -26.9434  -26.3065   22.3885 O   0  0  0  0  0  0  0  0  0  0  0  0
  -25.9482  -26.3344   18.5280 O   0  0  0  0  0  0  0  0  0  0  0  0
  -34.0599  -19.8838   19.2120 O   0  0  0  0  0  0  0  0  0  0  0  0
  -27.1132  -22.8065   16.0773 O   0  0  0  0  0  0  0  0  0  0  0  0
  -32.1563  -11.7974   21.3644 O   0  0  0  0  0  0  0  0  0  0  0  0
  -21.6377   -7.1122   21.9169 O   0  0  0  0  0  0  0  0  0  0  0  0
  -32.3144  -21.7981   18.9937 O   0  0  0  0  0  0  0  0  0  1  0  0
  -17.8935   -7.3970   25.9547 F   0  0  0  0  0  0  0  0  0  0  0  0
  -19.5454   -8.9144   21.7864 F   0  0  0  0  0  0  0  0  0  0  0  0
  1  2  1  0  0  0  0
  1  6  2  0  0  0  0
  2  7  2  0  0  0  0
  3  9  2  0  0  0  0
  3 10  1  0  0  0  0
  4 11  2  0  0  0  0
  4 19  1  0  0  0  0
  5 12  1  0  0  0  0
  5 19  2  0  0  0  0
  6 21  1  0  0  0  0
  7 23  1  0  0  0  0
  8 13  2  0  0  0  0
  8 22  1  0  0  0  0
  9 25  1  0  0  0  0
 10 26  2  0  0  0  0
 11 27  1  0  0  0  0
 12 27  2  0  0  0  0
 13 28  1  0  0  0  0
 14 15  2  0  0  0  0
 14 29  1  0  0  0  0
 15 30  1  0  0  0  0
 16 24  1  0  0  0  0
 16 28  2  0  0  0  0
 17 25  2  0  0  0  0
 17 26  1  0  0  0  0
 18 30  2  0  0  0  0
 18 31  1  0  0  0  0
 19 32  1  0  0  0  0
 20 32  1  0  0  0  0
 20 33  2  0  0  0  0
 20 34  1  0  0  0  0
 21 23  2  0  0  0  0
 21 40  1  0  0  0  0
 22 24  2  0  0  0  0
 22 41  1  0  0  0  0
 23 49  1  0  0  0  0
 24 42  1  0  0  0  0
 25 59  1  0  0  0  0
 26 60  1  0  0  0  0
 27 84  1  0  0  0  0
 28 85  1  0  0  0  0
 29 31  2  0  0  0  0
 29 84  1  0  0  0  0
 30 86  1  0  0  0  0
 31 87  1  0  0  0  0
 32 67  2  0  0  0  0
 33 68  1  0  0  0  0
 33 71  1  0  0  0  0
 34 72  1  0  0  0  0
 34 78  2  0  0  0  0
 35 50  1  0  0  0  0
 35 73  1  0  0  0  0
 35 79  2  0  0  0  0
 36 64  1  0  0  0  0
 36 69  1  0  0  0  0
 36 80  2  0  0  0  0
 37 61  1  0  0  0  0
 37 75  1  0  0  0  0
 37 81  2  0  0  0  0
 38 65  1  0  0  0  0
 38 74  1  0  0  0  0
 38 82  2  0  0  0  0
 39 70  1  0  0  0  0
 39 76  1  0  0  0  0
 39 83  2  0  0  0  0
 40 43  1  0  0  0  0
 41 50  1  0  0  0  0
 42 69  1  0  0  0  0
 43 45  1  0  0  0  0
 44 46  1  0  0  0  0
 44 47  1  0  0  0  0
 45 49  1  0  0  0  0
 46 51  1  0  0  0  0
 47 70  1  0  0  0  0
 48 51  1  0  0  0  0
 48 70  1  0  0  0  0
 49 73  1  0  0  0  0
 50 69  1  0  0  0  0
 51 68  1  0  0  0  0
 52 62  1  0  0  0  0
 53 65  1  0  0  0  0
 54 66  1  0  0  0  0
 55 66  1  0  0  0  0
 56 66  1  0  0  0  0
 57 76  1  0  0  0  0
 58 77  1  0  0  0  0
 59 75  1  0  0  0  0
 60 76  1  0  0  0  0
 61 85  1  0  0  0  0
 62 63  1  0  0  0  0
 63 75  1  0  0  0  0
 64 66  1  0  0  0  0
 64 74  1  0  0  0  0
 65 77  1  0  0  0  0
 67 68  1  0  0  0  0
M  CHG  1  77   1
M  ISO  4  39 100  61 101  76 100  85 101
M  END
> <Batch ID>
0021

> <Smiles>
CCCN(Cc1cccc(C[100N:0](C)[100C:0](=O)N2CCCC(n3nc(-c4ccc(Oc5ccc(F)cc5F)cc4)c(C(N)=O)c3N)C2)c1)C(=O)[101CH2:1][101O:1]c1ccc2c(c1)CN(C(=O)C(NC(=O)C(C)NC)C(C)(C)C)C(C(=O)NC1CCCc3ccccc31)C2

> <Shape>
0.263

> <Color>
0.188

> <Negative vol penalty>
0.000

$$$$

  -OEChem-04042321113D

 86 95  0     1  0  0  0  0  0999 V2000
  -16.4743  -28.8781   23.3362 C   0  0  0  0  0  0  0  0  0  0  0  0
  -17.0495  -28.1432   22.3045 C   0  0  0  0  0  0  0  0  0  0  0  0
  -22.5328  -10.4382   20.3771 C   0  0  0  0  0  0  0  0  0  0  0  0
  -24.4303   -9.4432   21.4937 C   0  0  0  0  0  0  0  0  0  0  0  0
  -17.2828  -29.6156   24.2001 C   0  0  0  0  0  0  0  0  0  0  0  0
  -18.4336  -28.1461   22.1354 C   0  0  0  0  0  0  0  0  0  0  0  0
  -23.8038  -23.9234   19.9798 C   0  0  0  0  0  0  0  0  0  0  0  0
  -29.7381  -18.0490   19.1054 C   0  0  0  0  0  0  0  0  0  0  0  0
  -29.8874  -19.3754   18.7004 C   0  0  0  0  0  0  0  0  0  0  0  0
  -21.8180   -9.2507   20.5336 C   0  0  0  0  0  0  0  0  0  0  0  0
  -23.7155   -8.2557   21.6502 C   0  0  0  0  0  0  0  0  0  0  0  0
  -24.8839  -23.9198   19.0983 C   0  0  0  0  0  0  0  0  0  0  0  0
  -21.3114   -7.0487   23.6957 C   0  0  0  0  0  0  0  0  0  0  0  0
  -21.3622   -6.4228   24.9412 C   0  0  0  0  0  0  0  0  0  0  0  0
  -26.1872  -25.1673   20.6998 C   0  0  0  0  0  0  0  0  0  0  0  0
  -29.2545  -18.7898   21.3536 C   0  0  0  0  0  0  0  0  0  0  0  0
  -22.3153   -4.4549   23.9135 C   0  0  0  0  0  0  0  0  0  0  0  0
  -23.8390  -10.5344   20.8571 C   0  0  0  0  0  0  0  0  0  0  0  0
  -24.2363  -13.0316   21.1950 C   0  0  0  0  0  0  0  0  0  0  0  0
  -18.6783  -29.6199   24.0474 C   0  0  0  0  0  0  0  0  0  0  0  0
  -23.9038  -24.5594   21.2256 C   0  0  0  0  0  0  0  0  0  0  0  0
  -19.2615  -28.8855   22.9973 C   0  0  0  0  0  0  0  0  0  0  0  0
  -25.1077  -25.1753   21.5963 C   0  0  0  0  0  0  0  0  0  0  0  0
  -29.4216  -17.7562   20.4319 C   0  0  0  0  0  0  0  0  0  0  0  0
  -29.4039  -20.1162   20.9487 C   0  0  0  0  0  0  0  0  0  0  0  0
  -29.7204  -20.4090   19.6221 C   0  0  0  0  0  0  0  0  0  0  0  0
  -22.4093   -8.1595   21.1702 C   0  0  0  0  0  0  0  0  0  0  0  0
  -26.0749  -24.5443   19.4570 C   0  0  0  0  0  0  0  0  0  0  0  0
  -21.7624   -6.3776   22.5590 C   0  0  0  0  0  0  0  0  0  0  0  0
  -21.8642   -5.1260   25.0501 C   0  0  0  0  0  0  0  0  0  0  0  0
  -22.2644   -5.0808   22.6679 C   0  0  0  0  0  0  0  0  0  0  0  0
  -24.5781  -11.7607   20.6952 C   0  0  0  0  0  0  0  0  0  0  0  0
  -25.2534  -13.8518   20.7719 C   0  0  0  0  0  0  0  0  0  0  0  0
  -23.1009  -13.4346   21.9723 C   0  0  0  0  0  0  0  0  0  0  0  0
  -22.4116  -26.9895   22.6297 C   0  0  0  0  0  0  0  0  0  0  0  0
  -24.1825  -26.0877   25.1935 C   0  0  0  0  0  0  0  0  0  0  0  0
  -26.9688  -24.5155   26.3816 C   0  0  0  0  0  0  0  0  0  0  0  0
  -30.8857  -14.4756   20.3186 C   0  0  0  0  0  0  0  0  0  0  0  0
  -19.5076  -30.4701   24.9770 C   0  0  0  0  0  0  0  0  0  0  0  0
  -22.7383  -24.5312   22.1761 C   0  0  0  0  0  0  0  0  0  0  0  0
  -25.2730  -25.8545   22.9304 C   0  0  0  0  0  0  0  0  0  0  0  0
  -20.9935  -30.1206   24.9593 C   0  0  0  0  0  0  0  0  0  0  0  0
  -28.9918  -13.0567   17.4723 C   0  0  0  0  0  0  0  0  0  0  0  0
  -21.4915  -29.9786   23.5245 C   0  0  0  0  0  0  0  0  0  0  0  0
  -27.6759  -12.6359   18.1245 C   0  0  0  0  0  0  0  0  0  0  0  0
  -30.8290  -23.8275   18.7979 C   0  0  0  0  0  0  0  0  0  0  0  0
  -30.1518  -13.0235   18.4627 C   0  0  0  0  0  0  0  0  0  0  0  0
  -30.8624  -22.6358   19.7523 C   0  0  0  0  0  0  0  0  0  0  0  0
  -29.0702  -22.3355   18.1516 C   0  0  0  0  0  0  0  0  0  0  0  0
  -28.5976  -13.4000   20.3486 C   0  0  0  0  0  0  0  0  0  0  0  0
  -20.7609  -28.8437   22.7967 C   0  0  1  0  0  0  0  0  0  0  0  0
  -22.7821  -25.6534   23.2086 C   0  0  1  0  0  0  0  0  0  0  0  0
  -29.4026  -23.8304   18.2502 C   0  0  1  0  0  0  0  0  0  0  0  0
  -27.3999  -13.4674   19.3893 C   0  0  2  0  0  0  0  0  0  0  0  0
  -29.2194  -21.2036   21.9566 C   0  0  0  0  0  0  0  0  0  0  0  0
  -28.1641  -23.9744   28.5207 C   0  0  0  0  0  0  0  0  0  0  0  0
  -25.1670  -28.9703   25.3698 C   0  0  0  0  0  0  0  0  0  0  0  0
  -27.0170  -28.1741   26.8570 C   0  0  0  0  0  0  0  0  0  0  0  0
  -24.6421  -27.9106   27.5734 C   0  0  0  0  0  0  0  0  0  0  0  0
  -31.5897  -16.4083   21.6782 C   0  0  0  0  0  0  0  0  0  0  0  0
  -26.7251  -21.6029   25.9166 C   0  0  0  0  0  0  0  0  0  0  0  0
  -29.2620  -16.3379   20.8644 C   0  0  0  0  0  0  0  0  0  0  0  0
  -28.4360  -24.5702   19.1738 C   0  0  0  0  0  0  0  0  0  1  0  0
  -25.5498  -26.4420   25.7264 C   0  0  1  0  0  0  0  0  0  0  0  0
  -27.1540  -23.4948   27.4899 C   0  0  2  0  0  0  0  0  0  0  0  0
  -25.5905  -27.8632   26.3557 C   0  0  0  0  0  0  0  0  0  0  0  0
  -25.7228  -11.7680   20.0071 N   0  0  0  0  0  0  0  0  0  0  0  0
  -26.1091  -13.0536   20.0714 N   0  0  0  0  0  0  0  0  0  0  0  0
  -29.8719  -21.7146   19.2042 N   0  0  3  0  0  0  0  0  0  0  0  0
  -24.1029  -25.8054   23.8225 N   0  0  0  0  0  0  0  0  0  0  0  0
  -29.8459  -13.7858   19.6737 N   0  0  0  0  0  0  0  0  0  0  0  0
  -25.4903  -15.1709   20.9343 N   0  0  0  0  0  0  0  0  0  0  0  0
  -23.1956  -13.3831   23.3697 N   0  0  0  0  0  0  0  0  0  0  0  0
  -21.2907  -27.5596   23.2025 N   0  0  0  0  0  0  0  0  0  0  0  0
  -25.9200  -25.3709   26.6452 N   0  0  0  0  0  0  0  0  0  0  0  0
  -30.5446  -15.6517   21.0035 N   0  0  0  0  0  0  0  0  0  0  0  0
  -27.6345  -22.2010   26.9276 N   0  3  0  0  0  0  0  0  0  0  0  0
  -22.0284  -13.8131   21.4432 O   0  0  0  0  0  0  0  0  0  0  0  0
  -23.0932  -27.4686   21.7310 O   0  0  0  0  0  0  0  0  0  0  0  0
  -23.2218  -26.0554   25.9667 O   0  0  0  0  0  0  0  0  0  0  0  0
  -27.6854  -24.5527   25.3838 O   0  0  0  0  0  0  0  0  0  0  0  0
  -32.0539  -14.0688   20.2761 O   0  0  0  0  0  0  0  0  0  0  0  0
  -21.7120   -7.0006   21.3233 O   0  0  0  0  0  0  0  0  0  0  0  0
  -27.1305  -24.5429   18.5983 O   0  0  0  0  0  0  0  0  0  1  0  0
  -21.9144   -4.5257   26.2465 F   0  0  0  0  0  0  0  0  0  0  0  0
  -22.7003   -4.4315   21.5797 F   0  0  0  0  0  0  0  0  0  0  0  0
  1  2  1  0  0  0  0
  1  5  2  0  0  0  0
  2  6  2  0  0  0  0
  3 10  2  0  0  0  0
  3 18  1  0  0  0  0
  4 11  1  0  0  0  0
  4 18  2  0  0  0  0
  5 20  1  0  0  0  0
  6 22  1  0  0  0  0
  7 12  2  0  0  0  0
  7 21  1  0  0  0  0
  8  9  2  0  0  0  0
  8 24  1  0  0  0  0
  9 26  1  0  0  0  0
 10 27  1  0  0  0  0
 11 27  2  0  0  0  0
 12 28  1  0  0  0  0
 13 14  2  0  0  0  0
 13 29  1  0  0  0  0
 14 30  1  0  0  0  0
 15 23  1  0  0  0  0
 15 28  2  0  0  0  0
 16 24  2  0  0  0  0
 16 25  1  0  0  0  0
 17 30  2  0  0  0  0
 17 31  1  0  0  0  0
 18 32  1  0  0  0  0
 19 32  1  0  0  0  0
 19 33  2  0  0  0  0
 19 34  1  0  0  0  0
 20 22  2  0  0  0  0
 20 39  1  0  0  0  0
 21 23  2  0  0  0  0
 21 40  1  0  0  0  0
 22 51  1  0  0  0  0
 23 41  1  0  0  0  0
 24 62  1  0  0  0  0
 25 26  2  0  0  0  0
 25 55  1  0  0  0  0
 26 69  1  0  0  0  0
 27 83  1  0  0  0  0
 28 84  1  0  0  0  0
 29 31  2  0  0  0  0
 29 83  1  0  0  0  0
 30 85  1  0  0  0  0
 31 86  1  0  0  0  0
 32 67  2  0  0  0  0
 33 68  1  0  0  0  0
 33 72  1  0  0  0  0
 34 73  1  0  0  0  0
 34 78  2  0  0  0  0
 35 52  1  0  0  0  0
 35 74  1  0  0  0  0
 35 79  2  0  0  0  0
 36 64  1  0  0  0  0
 36 70  1  0  0  0  0
 36 80  2  0  0  0  0
 37 65  1  0  0  0  0
 37 75  1  0  0  0  0
 37 81  2  0  0  0  0
 38 71  1  0  0  0  0
 38 76  1  0  0  0  0
 38 82  2  0  0  0  0
 39 42  1  0  0  0  0
 40 52  1  0  0  0  0
 41 70  1  0  0  0  0
 42 44  1  0  0  0  0
 43 45  1  0  0  0  0
 43 47  1  0  0  0  0
 44 51  1  0  0  0  0
 45 54  1  0  0  0  0
 46 48  1  0  0  0  0
 46 53  1  0  0  0  0
 47 71  1  0  0  0  0
 48 69  1  0  0  0  0
 49 53  1  0  0  0  0
 49 69  1  0  0  0  0
 50 54  1  0  0  0  0
 50 71  1  0  0  0  0
 51 74  1  0  0  0  0
 52 70  1  0  0  0  0
 53 63  1  0  0  0  0
 54 68  1  0  0  0  0
 56 65  1  0  0  0  0
 57 66  1  0  0  0  0
 58 66  1  0  0  0  0
 59 66  1  0  0  0  0
 60 76  1  0  0  0  0
 61 77  1  0  0  0  0
 62 76  1  0  0  0  0
 63 84  1  0  0  0  0
 64 66  1  0  0  0  0
 64 75  1  0  0  0  0
 65 77  1  0  0  0  0
 67 68  1  0  0  0  0
M  CHG  1  77   1
M  ISO  4  38 100  63 101  76 100  84 101
M  END
> <Batch ID>
0021

> <Smiles>
CNC(C)C(=O)NC(C(=O)N1Cc2cc([101O:1][101CH2:1]C3CCN(c4ccc(C[100N:0](C)[100C:0](=O)N5CCCC(n6nc(-c7ccc(Oc8ccc(F)cc8F)cc7)c(C(N)=O)c6N)C5)cc4C)C3)ccc2CC1C(=O)NC1CCCc2ccccc21)C(C)(C)C

> <Shape>
0.328

> <Color>
0.172

> <Negative vol penalty>
0.000

$$$$

  -OEChem-04042321113D

 87 95  0     1  0  0  0  0  0999 V2000
  -30.1797  -35.0806   18.2306 C   0  0  0  0  0  0  0  0  0  0  0  0
  -30.1159  -33.7793   18.7185 C   0  0  0  0  0  0  0  0  0  0  0  0
  -25.0902  -14.6892   24.5464 C   0  0  0  0  0  0  0  0  0  0  0  0
  -25.0278  -16.7767   23.3316 C   0  0  0  0  0  0  0  0  0  0  0  0
  -29.3276  -36.0583   18.7424 C   0  0  0  0  0  0  0  0  0  0  0  0
  -29.2005  -33.4552   19.7193 C   0  0  0  0  0  0  0  0  0  0  0  0
  -26.7666  -29.1119   18.7936 C   0  0  0  0  0  0  0  0  0  0  0  0
  -28.1099  -18.7184   18.8428 C   0  0  0  0  0  0  0  0  0  0  0  0
  -28.9878  -17.2689   20.5648 C   0  0  0  0  0  0  0  0  0  0  0  0
  -27.8584  -19.7022   19.7992 C   0  0  0  0  0  0  0  0  0  0  0  0
  -28.7364  -18.2527   21.5211 C   0  0  0  0  0  0  0  0  0  0  0  0
  -24.8772  -15.3777   25.7405 C   0  0  0  0  0  0  0  0  0  0  0  0
  -24.8147  -17.4653   24.5258 C   0  0  0  0  0  0  0  0  0  0  0  0
  -27.4565  -27.9281   19.0512 C   0  0  0  0  0  0  0  0  0  0  0  0
  -22.2312  -18.0872   26.6136 C   0  0  0  0  0  0  0  0  0  0  0  0
  -21.2458  -19.0743   26.6238 C   0  0  0  0  0  0  0  0  0  0  0  0
  -26.2844  -27.7084   21.1482 C   0  0  0  0  0  0  0  0  0  0  0  0
  -22.9060  -20.7253   27.2198 C   0  0  0  0  0  0  0  0  0  0  0  0
  -25.1656  -15.3887   23.3419 C   0  0  0  0  0  0  0  0  0  0  0  0
  -24.4080  -14.1474   21.2460 C   0  0  0  0  0  0  0  0  0  0  0  0
  -28.3947  -35.7438   19.7432 C   0  0  0  0  0  0  0  0  0  0  0  0
  -25.8369  -29.6095   19.7180 C   0  0  0  0  0  0  0  0  0  0  0  0
  -28.3361  -34.4300   20.2459 C   0  0  0  0  0  0  0  0  0  0  0  0
  -25.5822  -28.8975   20.8987 C   0  0  0  0  0  0  0  0  0  0  0  0
  -28.6745  -17.5017   19.2257 C   0  0  0  0  0  0  0  0  0  0  0  0
  -28.1717  -19.4693   21.1383 C   0  0  0  0  0  0  0  0  0  0  0  0
  -24.7394  -16.7658   25.7303 C   0  0  0  0  0  0  0  0  0  0  0  0
  -27.2175  -27.2276   20.2299 C   0  0  0  0  0  0  0  0  0  0  0  0
  -23.5540  -18.4190   26.9066 C   0  0  0  0  0  0  0  0  0  0  0  0
  -21.5832  -20.3934   26.9269 C   0  0  0  0  0  0  0  0  0  0  0  0
  -23.8914  -19.7381   27.2097 C   0  0  0  0  0  0  0  0  0  0  0  0
  -25.3863  -14.6781   22.1080 C   0  0  0  0  0  0  0  0  0  0  0  0
  -25.1250  -13.5750   20.2239 C   0  0  0  0  0  0  0  0  0  0  0  0
  -22.9788  -14.1699   21.3590 C   0  0  0  0  0  0  0  0  0  0  0  0
  -25.5981  -32.2621   21.4530 C   0  0  0  0  0  0  0  0  0  0  0  0
  -22.6981  -31.0309   22.2251 C   0  0  0  0  0  0  0  0  0  0  0  0
  -28.4497  -21.6710   22.1731 C   0  0  0  0  0  0  0  0  0  0  0  0
  -20.7081  -28.2749   22.5279 C   0  0  0  0  0  0  0  0  0  0  0  0
  -30.8544  -14.8074   18.4367 C   0  0  0  0  0  0  0  0  0  0  0  0
  -27.5269  -36.8452   20.2986 C   0  0  0  0  0  0  0  0  0  0  0  0
  -25.0815  -30.8739   19.4129 C   0  0  0  0  0  0  0  0  0  0  0  0
  -24.5791  -29.3785   21.9141 C   0  0  0  0  0  0  0  0  0  0  0  0
  -26.3284  -36.3339   21.0938 C   0  0  0  0  0  0  0  0  0  0  0  0
  -29.3412  -11.5352   19.2763 C   0  0  0  0  0  0  0  0  0  0  0  0
  -26.7594  -35.2387   22.0641 C   0  0  0  0  0  0  0  0  0  0  0  0
  -28.1097  -11.9359   20.0868 C   0  0  0  0  0  0  0  0  0  0  0  0
  -30.4585  -12.5674   19.3945 C   0  0  0  0  0  0  0  0  0  0  0  0
  -28.8087  -14.3517   19.8511 C   0  0  0  0  0  0  0  0  0  0  0  0
  -27.3396  -34.0338   21.3137 C   0  0  1  0  0  0  0  0  0  0  0  0
  -24.5328  -31.5580   20.6612 C   0  0  1  0  0  0  0  0  0  0  0  0
  -27.6471  -13.3557   19.7161 C   0  0  2  0  0  0  0  0  0  0  0  0
  -28.0503  -22.5850   23.2805 C   0  0  0  0  0  0  0  0  0  0  0  0
  -18.3979  -27.5796   23.2183 C   0  0  0  0  0  0  0  0  0  0  0  0
  -23.4765  -31.3639   25.1565 C   0  0  0  0  0  0  0  0  0  0  0  0
  -21.6007  -29.8188   25.7579 C   0  0  0  0  0  0  0  0  0  0  0  0
  -21.1134  -31.9883   24.6272 C   0  0  0  0  0  0  0  0  0  0  0  0
  -30.2752  -21.2553   20.5234 C   0  0  0  0  0  0  0  0  0  0  0  0
  -31.2213  -17.0434   17.4645 C   0  0  0  0  0  0  0  0  0  0  0  0
  -20.1010  -27.2030   19.8369 C   0  0  0  0  0  0  0  0  0  0  0  0
  -28.9438  -16.4499   18.2035 C   0  0  0  0  0  0  0  0  0  0  0  0
  -28.3374  -23.8244   19.7733 C   0  0  0  0  0  0  0  0  0  0  0  0
  -29.3383  -23.5669   20.8878 C   0  0  0  0  0  0  0  0  0  0  0  0
  -28.2849  -25.2894   19.3583 C   0  0  0  0  0  0  0  0  0  1  0  0
  -22.1794  -30.1143   23.3067 C   0  0  1  0  0  0  0  0  0  0  0  0
  -19.2901  -28.0002   22.0608 C   0  0  2  0  0  0  0  0  0  0  0  0
  -22.1129  -30.8130   24.6940 C   0  0  0  0  0  0  0  0  0  0  0  0
  -26.6300  -14.4619   21.6716 N   0  0  0  0  0  0  0  0  0  0  0  0
  -26.4381  -13.7890   20.5243 N   0  0  0  0  0  0  0  0  0  0  0  0
  -23.8706  -30.6232   21.5733 N   0  0  0  0  0  0  0  0  0  0  0  0
  -29.9810  -13.9141   19.0787 N   0  0  0  0  0  0  0  0  0  0  0  0
  -24.7541  -12.9145   19.1065 N   0  0  0  0  0  0  0  0  0  0  0  0
  -22.4065  -14.7999   22.4725 N   0  0  0  0  0  0  0  0  0  0  0  0
  -26.2768  -33.2342   20.7431 N   0  0  0  0  0  0  0  0  0  0  0  0
  -20.8969  -29.6067   22.8312 N   0  0  0  0  0  0  0  0  0  0  0  0
  -29.3244  -22.1502   21.2379 N   0  0  0  0  0  0  0  0  0  0  0  0
  -30.3575  -16.0856   18.1400 N   0  0  0  0  0  0  0  0  0  0  0  0
  -27.9250  -20.4380   22.0794 N   0  3  0  0  0  0  0  0  0  0  0  0
  -19.2819  -26.9127   21.0418 N   0  3  0  0  0  0  0  0  0  0  0  0
  -22.2319  -13.6326   20.5064 O   0  0  0  0  0  0  0  0  0  0  0  0
  -25.7893  -31.9478   22.6219 O   0  0  0  0  0  0  0  0  0  0  0  0
  -22.0816  -32.0667   21.9632 O   0  0  0  0  0  0  0  0  0  0  0  0
  -21.5618  -27.3954   22.6184 O   0  0  0  0  0  0  0  0  0  0  0  0
  -32.0091  -14.4779   18.1369 O   0  0  0  0  0  0  0  0  0  0  0  0
  -24.5312  -17.4379   26.8954 O   0  0  0  0  0  0  0  0  0  0  0  0
  -27.8900  -26.0722   20.4842 O   0  0  0  0  0  0  0  0  0  1  0  0
  -20.6371  -21.3416   26.9351 F   0  0  0  0  0  0  0  0  0  0  0  0
  -25.1606  -20.0632   27.4908 F   0  0  0  0  0  0  0  0  0  0  0  0
  1  2  1  0  0  0  0
  1  5  2  0  0  0  0
  2  6  2  0  0  0  0
  3 12  2  0  0  0  0
  3 19  1  0  0  0  0
  4 13  1  0  0  0  0
  4 19  2  0  0  0  0
  5 21  1  0  0  0  0
  6 23  1  0  0  0  0
  7 14  2  0  0  0  0
  7 22  1  0  0  0  0
  8 10  2  0  0  0  0
  8 25  1  0  0  0  0
  9 11  1  0  0  0  0
  9 25  2  0  0  0  0
 10 26  1  0  0  0  0
 11 26  2  0  0  0  0
 12 27  1  0  0  0  0
 13 27  2  0  0  0  0
 14 28  1  0  0  0  0
 15 16  2  0  0  0  0
 15 29  1  0  0  0  0
 16 30  1  0  0  0  0
 17 24  1  0  0  0  0
 17 28  2  0  0  0  0
 18 30  2  0  0  0  0
 18 31  1  0  0  0  0
 19 32  1  0  0  0  0
 20 32  1  0  0  0  0
 20 33  2  0  0  0  0
 20 34  1  0  0  0  0
 21 23  2  0  0  0  0
 21 40  1  0  0  0  0
 22 24  2  0  0  0  0
 22 41  1  0  0  0  0
 23 49  1  0  0  0  0
 24 42  1  0  0  0  0
 25 60  1  0  0  0  0
 26 77  1  0  0  0  0
 27 84  1  0  0  0  0
 28 85  1  0  0  0  0
 29 31  2  0  0  0  0
 29 84  1  0  0  0  0
 30 86  1  0  0  0  0
 31 87  1  0  0  0  0
 32 67  2  0  0  0  0
 33 68  1  0  0  0  0
 33 71  1  0  0  0  0
 34 72  1  0  0  0  0
 34 79  2  0  0  0  0
 35 50  1  0  0  0  0
 35 73  1  0  0  0  0
 35 80  2  0  0  0  0
 36 64  1  0  0  0  0
 36 69  1  0  0  0  0
 36 81  2  0  0  0  0
 37 52  1  0  0  0  0
 37 75  1  0  0  0  0
 37 77  2  0  0  0  0
 38 65  1  0  0  0  0
 38 74  1  0  0  0  0
 38 82  2  0  0  0  0
 39 70  1  0  0  0  0
 39 76  1  0  0  0  0
 39 83  2  0  0  0  0
 40 43  1  0  0  0  0
 41 50  1  0  0  0  0
 42 69  1  0  0  0  0
 43 45  1  0  0  0  0
 44 46  1  0  0  0  0
 44 47  1  0  0  0  0
 45 49  1  0  0  0  0
 46 51  1  0  0  0  0
 47 70  1  0  0  0  0
 48 51  1  0  0  0  0
 48 70  1  0  0  0  0
 49 73  1  0  0  0  0
 50 69  1  0  0  0  0
 51 68  1  0  0  0  0
 53 65  1  0  0  0  0
 54 66  1  0  0  0  0
 55 66  1  0  0  0  0
 56 66  1  0  0  0  0
 57 75  1  0  0  0  0
 58 76  1  0  0  0  0
 59 78  1  0  0  0  0
 60 76  1  0  0  0  0
 61 62  1  0  0  0  0
 61 63  1  0  0  0  0
 62 75  1  0  0  0  0
 63 85  1  0  0  0  0
 64 66  1  0  0  0  0
 64 74  1  0  0  0  0
 65 78  1  0  0  0  0
 67 68  1  0  0  0  0
M  CHG  2  77   1  78   1
M  ISO  4  39 100  63 101  76 100  85 101
M  END
> <Batch ID>
0021

> <Smiles>
CNC(C)C(=O)NC(C(=O)N1Cc2cc([101O:1][101CH2:1]CCN(C)C(C)=Nc3ccc(C[100N:0](C)[100C:0](=O)N4CCCC(n5nc(-c6ccc(Oc7ccc(F)cc7F)cc6)c(C(N)=O)c5N)C4)cc3)ccc2CC1C(=O)NC1CCCc2ccccc21)C(C)(C)C

> <Shape>
0.251

> <Color>
0.081

> <Negative vol penalty>
0.000

$$$$

  -OEChem-04042321113D

 85 94  0     1  0  0  0  0  0999 V2000
  -23.0530   -7.7200   24.4857 C   0  0  0  0  0  0  0  0  0  0  0  0
  -24.2506   -8.4147   24.6220 C   0  0  0  0  0  0  0  0  0  0  0  0
  -25.0280  -30.7899   21.0033 C   0  0  0  0  0  0  0  0  0  0  0  0
  -24.6333  -29.3731   22.9200 C   0  0  0  0  0  0  0  0  0  0  0  0
  -22.3255   -7.8130   23.3000 C   0  0  0  0  0  0  0  0  0  0  0  0
  -24.7218   -9.2022   23.5721 C   0  0  0  0  0  0  0  0  0  0  0  0
  -28.4003  -15.2208   22.3225 C   0  0  0  0  0  0  0  0  0  0  0  0
  -24.3865  -31.8454   21.6513 C   0  0  0  0  0  0  0  0  0  0  0  0
  -23.9918  -30.4287   23.5681 C   0  0  0  0  0  0  0  0  0  0  0  0
  -29.4961  -15.6818   21.5941 C   0  0  0  0  0  0  0  0  0  0  0  0
  -25.1248  -34.1155   24.0460 C   0  0  0  0  0  0  0  0  0  0  0  0
  -25.7327  -35.3700   23.9996 C   0  0  0  0  0  0  0  0  0  0  0  0
  -28.1151  -15.8304   19.6219 C   0  0  0  0  0  0  0  0  0  0  0  0
  -29.9351  -20.1811   19.7458 C   0  0  0  0  0  0  0  0  0  0  0  0
  -27.8664  -20.3445   17.8813 C   0  0  0  0  0  0  0  0  0  0  0  0
  -23.7813  -36.2749   22.8994 C   0  0  0  0  0  0  0  0  0  0  0  0
  -25.1513  -29.5537   21.6376 C   0  0  0  0  0  0  0  0  0  0  0  0
  -27.1836  -28.1432   21.0146 C   0  0  0  0  0  0  0  0  0  0  0  0
  -22.7832   -8.6097   22.2387 C   0  0  0  0  0  0  0  0  0  0  0  0
  -27.1542  -15.0505   21.7023 C   0  0  0  0  0  0  0  0  0  0  0  0
  -24.0004   -9.3049   22.3706 C   0  0  0  0  0  0  0  0  0  0  0  0
  -27.0044  -15.3695   20.3451 C   0  0  0  0  0  0  0  0  0  0  0  0
  -30.0214  -19.4768   18.5449 C   0  0  0  0  0  0  0  0  0  0  0  0
  -27.7802  -21.0488   19.0822 C   0  0  0  0  0  0  0  0  0  0  0  0
  -23.8685  -31.6648   22.9338 C   0  0  0  0  0  0  0  0  0  0  0  0
  -29.3544  -15.9839   20.2430 C   0  0  0  0  0  0  0  0  0  0  0  0
  -23.8452  -33.9406   23.5190 C   0  0  0  0  0  0  0  0  0  0  0  0
  -25.0610  -36.4497   23.4264 C   0  0  0  0  0  0  0  0  0  0  0  0
  -28.8145  -20.9670   20.0145 C   0  0  0  0  0  0  0  0  0  0  0  0
  -28.9871  -19.5586   17.6126 C   0  0  0  0  0  0  0  0  0  0  0  0
  -23.1734  -35.0203   22.9458 C   0  0  0  0  0  0  0  0  0  0  0  0
  -25.8133  -28.4628   20.9684 C   0  0  0  0  0  0  0  0  0  0  0  0
  -27.3037  -27.0307   20.2181 C   0  0  0  0  0  0  0  0  0  0  0  0
  -28.2522  -28.7937   21.7149 C   0  0  0  0  0  0  0  0  0  0  0  0
  -25.2335  -12.5744   21.1695 C   0  0  0  0  0  0  0  0  0  0  0  0
  -23.2226  -14.8695   20.0690 C   0  0  0  0  0  0  0  0  0  0  0  0
  -22.8349  -17.9993   18.7648 C   0  0  0  0  0  0  0  0  0  0  0  0
  -25.5253  -22.0299   18.5353 C   0  0  0  0  0  0  0  0  0  0  0  0
  -21.9860   -8.6416   20.9587 C   0  0  0  0  0  0  0  0  0  0  0  0
  -25.9755  -14.5777   22.5082 C   0  0  0  0  0  0  0  0  0  0  0  0
  -25.6831  -15.2233   19.6373 C   0  0  0  0  0  0  0  0  0  0  0  0
  -22.3658   -9.7947   20.0333 C   0  0  0  0  0  0  0  0  0  0  0  0
  -23.9993  -24.8800   17.0436 C   0  0  0  0  0  0  0  0  0  0  0  0
  -33.0940  -18.1715   17.1040 C   0  0  0  0  0  0  0  0  0  0  0  0
  -23.8822   -9.8991   19.9051 C   0  0  0  0  0  0  0  0  0  0  0  0
  -24.4479  -26.0399   17.9355 C   0  0  0  0  0  0  0  0  0  0  0  0
  -33.1365  -17.4505   18.4396 C   0  0  0  0  0  0  0  0  0  0  0  0
  -31.6118  -18.4724   16.9190 C   0  0  0  0  0  0  0  0  0  0  0  0
  -23.7344  -23.6118   17.8530 C   0  0  0  0  0  0  0  0  0  0  0  0
  -25.2862  -24.3507   19.6180 C   0  0  0  0  0  0  0  0  0  0  0  0
  -24.5320  -10.1891   21.2634 C   0  0  1  0  0  0  0  0  0  0  0  0
  -24.8785  -13.9523   21.6521 C   0  0  1  0  0  0  0  0  0  0  0  0
  -25.6275  -25.6319   18.8398 C   0  0  2  0  0  0  0  0  0  0  0  0
  -32.0680  -18.1688   19.2820 C   0  0  2  0  0  0  0  0  0  0  0  0
  -21.0748  -19.5823   17.9321 C   0  0  0  0  0  0  0  0  0  0  0  0
  -23.0016  -13.2610   17.4856 C   0  0  0  0  0  0  0  0  0  0  0  0
  -22.0433  -15.2945   16.3834 C   0  0  0  0  0  0  0  0  0  0  0  0
  -20.8450  -14.2334   18.2968 C   0  0  0  0  0  0  0  0  0  0  0  0
  -23.5036  -20.0119   20.8291 C   0  0  0  0  0  0  0  0  0  0  0  0
  -31.4095  -17.1807   20.2393 C   0  0  0  0  0  0  0  0  0  1  0  0
  -22.9761  -15.5228   18.7305 C   0  0  1  0  0  0  0  0  0  0  0  0
  -21.8955  -19.1340   19.1314 C   0  0  2  0  0  0  0  0  0  0  0  0
  -22.2420  -14.5789   17.7367 C   0  0  0  0  0  0  0  0  0  0  0  0
  -25.1131  -27.6215   20.2030 N   0  0  0  0  0  0  0  0  0  0  0  0
  -26.0471  -26.7623   19.7608 N   0  0  0  0  0  0  0  0  0  0  0  0
  -31.1315  -18.6994   18.2812 N   0  0  3  0  0  0  0  0  0  0  0  0
  -24.5619  -14.7516   20.4667 N   0  0  0  0  0  0  0  0  0  0  0  0
  -24.8964  -23.2844   18.6822 N   0  0  0  0  0  0  0  0  0  0  0  0
  -28.3605  -26.2658   19.8712 N   0  0  0  0  0  0  0  0  0  0  0  0
  -27.9539  -29.9241   22.4881 N   0  0  0  0  0  0  0  0  0  0  0  0
  -26.6392  -21.8441   19.3533 N   0  0  0  0  0  0  0  0  0  0  0  0
  -24.3755  -11.5852   21.6108 N   0  0  0  0  0  0  0  0  0  0  0  0
  -22.2665  -16.7669   19.0080 N   0  0  0  0  0  0  0  0  0  0  0  0
  -22.6686  -20.3041   19.6356 N   0  3  0  0  0  0  0  0  0  0  0  0
  -29.4393  -28.3945   21.6437 O   0  0  0  0  0  0  0  0  0  0  0  0
  -26.2125  -12.4203   20.4487 O   0  0  0  0  0  0  0  0  0  0  0  0
  -22.2619  -14.4847   20.7402 O   0  0  0  0  0  0  0  0  0  0  0  0
  -23.9591  -18.1874   18.3050 O   0  0  0  0  0  0  0  0  0  0  0  0
  -25.1228  -21.1933   17.7228 O   0  0  0  0  0  0  0  0  0  0  0  0
  -23.2427  -32.6946   23.5665 O   0  0  0  0  0  0  0  0  0  0  0  0
  -30.4225  -16.4334   19.5296 O   0  0  0  0  0  0  0  0  0  1  0  0
  -25.6442  -37.6548   23.3833 F   0  0  0  0  0  0  0  0  0  0  0  0
  -28.7409  -21.6388   21.1724 F   0  0  0  0  0  0  0  0  0  0  0  0
  -29.0583  -18.8851   16.4556 F   0  0  0  0  0  0  0  0  0  0  0  0
  -21.9435  -34.8587   22.4389 F   0  0  0  0  0  0  0  0  0  0  0  0
  1  2  1  0  0  0  0
  1  5  2  0  0  0  0
  2  6  2  0  0  0  0
  3  8  2  0  0  0  0
  3 17  1  0  0  0  0
  4  9  1  0  0  0  0
  4 17  2  0  0  0  0
  5 19  1  0  0  0  0
  6 21  1  0  0  0  0
  7 10  2  0  0  0  0
  7 20  1  0  0  0  0
  8 25  1  0  0  0  0
  9 25  2  0  0  0  0
 10 26  1  0  0  0  0
 11 12  2  0  0  0  0
 11 27  1  0  0  0  0
 12 28  1  0  0  0  0
 13 22  1  0  0  0  0
 13 26  2  0  0  0  0
 14 23  1  0  0  0  0
 14 29  2  0  0  0  0
 15 24  2  0  0  0  0
 15 30  1  0  0  0  0
 16 28  2  0  0  0  0
 16 31  1  0  0  0  0
 17 32  1  0  0  0  0
 18 32  1  0  0  0  0
 18 33  2  0  0  0  0
 18 34  1  0  0  0  0
 19 21  2  0  0  0  0
 19 39  1  0  0  0  0
 20 22  2  0  0  0  0
 20 40  1  0  0  0  0
 21 51  1  0  0  0  0
 22 41  1  0  0  0  0
 23 30  2  0  0  0  0
 23 66  1  0  0  0  0
 24 29  1  0  0  0  0
 24 71  1  0  0  0  0
 25 80  1  0  0  0  0
 26 81  1  0  0  0  0
 27 31  2  0  0  0  0
 27 80  1  0  0  0  0
 28 82  1  0  0  0  0
 29 83  1  0  0  0  0
 30 84  1  0  0  0  0
 31 85  1  0  0  0  0
 32 64  2  0  0  0  0
 33 65  1  0  0  0  0
 33 69  1  0  0  0  0
 34 70  1  0  0  0  0
 34 75  2  0  0  0  0
 35 52  1  0  0  0  0
 35 72  1  0  0  0  0
 35 76  2  0  0  0  0
 36 61  1  0  0  0  0
 36 67  1  0  0  0  0
 36 77  2  0  0  0  0
 37 62  1  0  0  0  0
 37 73  1  0  0  0  0
 37 78  2  0  0  0  0
 38 68  1  0  0  0  0
 38 71  1  0  0  0  0
 38 79  2  0  0  0  0
 39 42  1  0  0  0  0
 40 52  1  0  0  0  0
 41 67  1  0  0  0  0
 42 45  1  0  0  0  0
 43 46  1  0  0  0  0
 43 49  1  0  0  0  0
 44 47  1  0  0  0  0
 44 48  1  0  0  0  0
 45 51  1  0  0  0  0
 46 53  1  0  0  0  0
 47 54  1  0  0  0  0
 48 66  1  0  0  0  0
 49 68  1  0  0  0  0
 50 53  1  0  0  0  0
 50 68  1  0  0  0  0
 51 72  1  0  0  0  0
 52 67  1  0  0  0  0
 53 65  1  0  0  0  0
 54 60  1  0  0  0  0
 54 66  1  0  0  0  0
 55 62  1  0  0  0  0
 56 63  1  0  0  0  0
 57 63  1  0  0  0  0
 58 63  1  0  0  0  0
 59 74  1  0  0  0  0
 60 81  1  0  0  0  0
 61 63  1  0  0  0  0
 61 73  1  0  0  0  0
 62 74  1  0  0  0  0
 64 65  1  0  0  0  0
M  CHG  1  74   1
M  ISO  4  38 100  60 101  71 100  81 101
M  END
> <Batch ID>
0021

> <Smiles>
CNC(C)C(=O)NC(C(=O)N1Cc2cc([101O:1][101CH2:1]C3CCCN3c3cc(F)c([100NH:0][100C:0](=O)N4CCCC(n5nc(-c6ccc(Oc7ccc(F)cc7F)cc6)c(C(N)=O)c5N)C4)cc3F)ccc2CC1C(=O)NC1CCCc2ccccc21)C(C)(C)C

> <Shape>
0.247

> <Color>
0.095

> <Negative vol penalty>
0.000

$$$$

  -OEChem-04042321113D

 84 93  0     1  0  0  0  0  0999 V2000
  -28.3797  -23.8653   18.9948 C   0  0  0  0  0  0  0  0  0  0  0  0
  -27.1344  -24.2538   19.4783 C   0  0  0  0  0  0  0  0  0  0  0  0
  -27.8208  -15.8892   21.9131 C   0  0  0  0  0  0  0  0  0  0  0  0
  -25.9802  -16.4672   20.4587 C   0  0  0  0  0  0  0  0  0  0  0  0
  -29.5401  -24.4087   19.5444 C   0  0  0  0  0  0  0  0  0  0  0  0
  -27.0489  -25.1852   20.5125 C   0  0  0  0  0  0  0  0  0  0  0  0
  -23.5189  -28.7150   19.6613 C   0  0  0  0  0  0  0  0  0  0  0  0
  -20.4757  -25.0625   23.7932 C   0  0  0  0  0  0  0  0  0  0  0  0
  -21.2414  -24.0362   24.3465 C   0  0  0  0  0  0  0  0  0  0  0  0
  -27.7456  -14.5648   21.4820 C   0  0  0  0  0  0  0  0  0  0  0  0
  -25.9050  -15.1428   20.0275 C   0  0  0  0  0  0  0  0  0  0  0  0
  -22.1909  -28.3546   19.8858 C   0  0  0  0  0  0  0  0  0  0  0  0
  -28.7172  -12.7620   18.7915 C   0  0  0  0  0  0  0  0  0  0  0  0
  -29.9112  -12.1155   18.4718 C   0  0  0  0  0  0  0  0  0  0  0  0
  -22.2574  -29.4657   22.0259 C   0  0  0  0  0  0  0  0  0  0  0  0
  -20.0702  -23.7049   21.8363 C   0  0  0  0  0  0  0  0  0  0  0  0
  -29.4698  -10.4586   20.1739 C   0  0  0  0  0  0  0  0  0  0  0  0
  -26.9380  -16.8404   21.4015 C   0  0  0  0  0  0  0  0  0  0  0  0
  -27.7847  -19.2439   21.2837 C   0  0  0  0  0  0  0  0  0  0  0  0
  -29.4685  -25.3544   20.5794 C   0  0  0  0  0  0  0  0  0  0  0  0
  -24.2306  -29.4453   20.6238 C   0  0  0  0  0  0  0  0  0  0  0  0
  -28.2095  -25.7407   21.0774 C   0  0  0  0  0  0  0  0  0  0  0  0
  -23.5935  -29.8364   21.8101 C   0  0  0  0  0  0  0  0  0  0  0  0
  -19.8901  -24.8968   22.5381 C   0  0  0  0  0  0  0  0  0  0  0  0
  -21.4216  -22.8443   23.6447 C   0  0  0  0  0  0  0  0  0  0  0  0
  -26.7877  -14.1916   20.5392 C   0  0  0  0  0  0  0  0  0  0  0  0
  -21.5608  -28.7274   21.0694 C   0  0  0  0  0  0  0  0  0  0  0  0
  -27.8996  -12.2568   19.8024 C   0  0  0  0  0  0  0  0  0  0  0  0
  -30.2874  -10.9639   19.1630 C   0  0  0  0  0  0  0  0  0  0  0  0
  -28.2758  -11.1052   20.4936 C   0  0  0  0  0  0  0  0  0  0  0  0
  -20.8360  -22.6787   22.3895 C   0  0  0  0  0  0  0  0  0  0  0  0
  -27.0149  -18.2085   21.8469 C   0  0  0  0  0  0  0  0  0  0  0  0
  -27.5104  -20.3397   22.0650 C   0  0  0  0  0  0  0  0  0  0  0  0
  -28.6687  -19.2175   20.1552 C   0  0  0  0  0  0  0  0  0  0  0  0
  -26.8252  -28.9093   22.3801 C   0  0  0  0  0  0  0  0  0  0  0  0
  -26.3935  -32.0017   23.2590 C   0  0  0  0  0  0  0  0  0  0  0  0
  -24.2580  -34.6384   23.6258 C   0  0  0  0  0  0  0  0  0  0  0  0
  -22.8437  -21.8569   25.4746 C   0  0  0  0  0  0  0  0  0  0  0  0
  -30.7516  -25.8785   21.1739 C   0  0  0  0  0  0  0  0  0  0  0  0
  -25.6543  -29.8493   20.3549 C   0  0  0  0  0  0  0  0  0  0  0  0
  -24.3072  -30.6384   22.8664 C   0  0  0  0  0  0  0  0  0  0  0  0
  -30.5636  -27.1398   22.0129 C   0  0  0  0  0  0  0  0  0  0  0  0
  -26.2313  -21.5350   26.5225 C   0  0  0  0  0  0  0  0  0  0  0  0
  -17.7974  -27.1527   20.4768 C   0  0  0  0  0  0  0  0  0  0  0  0
  -29.3788  -26.9793   22.9601 C   0  0  0  0  0  0  0  0  0  0  0  0
  -26.8881  -20.7449   25.3883 C   0  0  0  0  0  0  0  0  0  0  0  0
  -17.5171  -27.6244   21.8949 C   0  0  0  0  0  0  0  0  0  0  0  0
  -18.4895  -25.8084   20.6786 C   0  0  0  0  0  0  0  0  0  0  0  0
  -24.8012  -21.0668   26.7858 C   0  0  0  0  0  0  0  0  0  0  0  0
  -24.5854  -20.2524   24.4707 C   0  0  0  0  0  0  0  0  0  0  0  0
  -28.0749  -26.7669   22.1815 C   0  0  1  0  0  0  0  0  0  0  0  0
  -26.4402  -30.1513   21.6272 C   0  0  1  0  0  0  0  0  0  0  0  0
  -26.0047  -20.7320   24.1254 C   0  0  2  0  0  0  0  0  0  0  0  0
  -18.7406  -27.1449   22.6884 C   0  0  2  0  0  0  0  0  0  0  0  0
  -24.1883  -37.0235   24.4027 C   0  0  0  0  0  0  0  0  0  0  0  0
  -26.4642  -31.0565   26.1593 C   0  0  0  0  0  0  0  0  0  0  0  0
  -25.4615  -33.2516   26.8261 C   0  0  0  0  0  0  0  0  0  0  0  0
  -27.6995  -33.1874   25.7262 C   0  0  0  0  0  0  0  0  0  0  0  0
  -23.4259  -35.6056   20.9554 C   0  0  0  0  0  0  0  0  0  0  0  0
  -19.8701  -28.1733   22.6475 C   0  0  0  0  0  0  0  0  0  1  0  0
  -25.6305  -32.7050   24.3555 C   0  0  1  0  0  0  0  0  0  0  0  0
  -24.3754  -36.0946   23.2133 C   0  0  2  0  0  0  0  0  0  0  0  0
  -26.3008  -32.5333   25.7479 C   0  0  0  0  0  0  0  0  0  0  0  0
  -26.3049  -18.6106   22.9044 N   0  0  0  0  0  0  0  0  0  0  0  0
  -26.6275  -19.9107   23.0120 N   0  0  0  0  0  0  0  0  0  0  0  0
  -19.1322  -25.9145   21.9900 N   0  0  3  0  0  0  0  0  0  0  0  0
  -25.7001  -31.0037   22.5598 N   0  0  0  0  0  0  0  0  0  0  0  0
  -24.0225  -21.0848   25.5455 N   0  0  0  0  0  0  0  0  0  0  0  0
  -27.9407  -21.6187   22.0276 N   0  0  0  0  0  0  0  0  0  0  0  0
  -28.8354  -18.0090   19.4652 N   0  0  0  0  0  0  0  0  0  0  0  0
  -22.2055  -21.8224   24.2353 N   0  0  0  0  0  0  0  0  0  0  0  0
  -27.5938  -28.0237   21.6490 N   0  0  0  0  0  0  0  0  0  0  0  0
  -25.4876  -34.0925   23.9281 N   0  0  0  0  0  0  0  0  0  0  0  0
  -23.3444  -36.4278   22.1900 N   0  3  0  0  0  0  0  0  0  0  0  0
  -29.3049  -20.2315   19.7801 O   0  0  0  0  0  0  0  0  0  0  0  0
  -26.4537  -28.7657   23.5390 O   0  0  0  0  0  0  0  0  0  0  0  0
  -27.5594  -32.3308   23.0267 O   0  0  0  0  0  0  0  0  0  0  0  0
  -23.1827  -34.0456   23.6784 O   0  0  0  0  0  0  0  0  0  0  0  0
  -22.4456  -22.5230   26.4337 O   0  0  0  0  0  0  0  0  0  0  0  0
  -26.7142  -12.8993   20.1181 O   0  0  0  0  0  0  0  0  0  0  0  0
  -20.2649  -28.3764   21.2913 O   0  0  0  0  0  0  0  0  0  1  0  0
  -31.4332  -10.3423   18.8548 F   0  0  0  0  0  0  0  0  0  0  0  0
  -27.4939  -10.6145   21.4649 F   0  0  0  0  0  0  0  0  0  0  0  0
  -21.0341  -21.2191   21.4862 Cl  0  0  0  0  0  0  0  0  0  0  0  0
  1  2  1  0  0  0  0
  1  5  2  0  0  0  0
  2  6  2  0  0  0  0
  3 10  2  0  0  0  0
  3 18  1  0  0  0  0
  4 11  1  0  0  0  0
  4 18  2  0  0  0  0
  5 20  1  0  0  0  0
  6 22  1  0  0  0  0
  7 12  2  0  0  0  0
  7 21  1  0  0  0  0
  8  9  2  0  0  0  0
  8 24  1  0  0  0  0
  9 25  1  0  0  0  0
 10 26  1  0  0  0  0
 11 26  2  0  0  0  0
 12 27  1  0  0  0  0
 13 14  2  0  0  0  0
 13 28  1  0  0  0  0
 14 29  1  0  0  0  0
 15 23  1  0  0  0  0
 15 27  2  0  0  0  0
 16 24  2  0  0  0  0
 16 31  1  0  0  0  0
 17 29  2  0  0  0  0
 17 30  1  0  0  0  0
 18 32  1  0  0  0  0
 19 32  1  0  0  0  0
 19 33  2  0  0  0  0
 19 34  1  0  0  0  0
 20 22  2  0  0  0  0
 20 39  1  0  0  0  0
 21 23  2  0  0  0  0
 21 40  1  0  0  0  0
 22 51  1  0  0  0  0
 23 41  1  0  0  0  0
 24 66  1  0  0  0  0
 25 31  2  0  0  0  0
 25 71  1  0  0  0  0
 26 80  1  0  0  0  0
 27 81  1  0  0  0  0
 28 30  2  0  0  0  0
 28 80  1  0  0  0  0
 29 82  1  0  0  0  0
 30 83  1  0  0  0  0
 31 84  1  0  0  0  0
 32 64  2  0  0  0  0
 33 65  1  0  0  0  0
 33 69  1  0  0  0  0
 34 70  1  0  0  0  0
 34 75  2  0  0  0  0
 35 52  1  0  0  0  0
 35 72  1  0  0  0  0
 35 76  2  0  0  0  0
 36 61  1  0  0  0  0
 36 67  1  0  0  0  0
 36 77  2  0  0  0  0
 37 62  1  0  0  0  0
 37 73  1  0  0  0  0
 37 78  2  0  0  0  0
 38 68  1  0  0  0  0
 38 71  1  0  0  0  0
 38 79  2  0  0  0  0
 39 42  1  0  0  0  0
 40 52  1  0  0  0  0
 41 67  1  0  0  0  0
 42 45  1  0  0  0  0
 43 46  1  0  0  0  0
 43 49  1  0  0  0  0
 44 47  1  0  0  0  0
 44 48  1  0  0  0  0
 45 51  1  0  0  0  0
 46 53  1  0  0  0  0
 47 54  1  0  0  0  0
 48 66  1  0  0  0  0
 49 68  1  0  0  0  0
 50 53  1  0  0  0  0
 50 68  1  0  0  0  0
 51 72  1  0  0  0  0
 52 67  1  0  0  0  0
 53 65  1  0  0  0  0
 54 60  1  0  0  0  0
 54 66  1  0  0  0  0
 55 62  1  0  0  0  0
 56 63  1  0  0  0  0
 57 63  1  0  0  0  0
 58 63  1  0  0  0  0
 59 74  1  0  0  0  0
 60 81  1  0  0  0  0
 61 63  1  0  0  0  0
 61 73  1  0  0  0  0
 62 74  1  0  0  0  0
 64 65  1  0  0  0  0
M  CHG  1  74   1
M  ISO  4  38 100  60 101  71 100  81 101
M  END
> <Batch ID>
0021

> <Smiles>
CNC(C)C(=O)NC(C(=O)N1Cc2cc([101O:1][101CH2:1]C3CCCN3c3ccc([100NH:0][100C:0](=O)N4CCCC(n5nc(-c6ccc(Oc7ccc(F)cc7F)cc6)c(C(N)=O)c5N)C4)c(Cl)c3)ccc2CC1C(=O)NC1CCCc2ccccc21)C(C)(C)C

> <Shape>
0.296

> <Color>
0.059

> <Negative vol penalty>
0.000

$$$$

  -OEChem-04042321113D

 84 93  0     1  0  0  0  0  0999 V2000
  -28.3797  -23.8653   18.9948 C   0  0  0  0  0  0  0  0  0  0  0  0
  -27.1344  -24.2538   19.4783 C   0  0  0  0  0  0  0  0  0  0  0  0
  -27.8208  -15.8892   21.9131 C   0  0  0  0  0  0  0  0  0  0  0  0
  -25.9802  -16.4672   20.4587 C   0  0  0  0  0  0  0  0  0  0  0  0
  -29.5401  -24.4087   19.5444 C   0  0  0  0  0  0  0  0  0  0  0  0
  -27.0489  -25.1852   20.5125 C   0  0  0  0  0  0  0  0  0  0  0  0
  -23.5189  -28.7150   19.6613 C   0  0  0  0  0  0  0  0  0  0  0  0
  -20.4757  -25.0625   23.7932 C   0  0  0  0  0  0  0  0  0  0  0  0
  -21.2414  -24.0362   24.3465 C   0  0  0  0  0  0  0  0  0  0  0  0
  -27.7456  -14.5648   21.4820 C   0  0  0  0  0  0  0  0  0  0  0  0
  -25.9050  -15.1428   20.0275 C   0  0  0  0  0  0  0  0  0  0  0  0
  -22.1909  -28.3546   19.8858 C   0  0  0  0  0  0  0  0  0  0  0  0
  -28.7172  -12.7620   18.7915 C   0  0  0  0  0  0  0  0  0  0  0  0
  -29.9112  -12.1155   18.4718 C   0  0  0  0  0  0  0  0  0  0  0  0
  -22.2574  -29.4657   22.0259 C   0  0  0  0  0  0  0  0  0  0  0  0
  -20.0702  -23.7049   21.8363 C   0  0  0  0  0  0  0  0  0  0  0  0
  -29.4698  -10.4586   20.1739 C   0  0  0  0  0  0  0  0  0  0  0  0
  -26.9380  -16.8404   21.4015 C   0  0  0  0  0  0  0  0  0  0  0  0
  -27.7847  -19.2439   21.2837 C   0  0  0  0  0  0  0  0  0  0  0  0
  -29.4685  -25.3544   20.5794 C   0  0  0  0  0  0  0  0  0  0  0  0
  -24.2306  -29.4453   20.6238 C   0  0  0  0  0  0  0  0  0  0  0  0
  -28.2095  -25.7407   21.0774 C   0  0  0  0  0  0  0  0  0  0  0  0
  -23.5935  -29.8364   21.8101 C   0  0  0  0  0  0  0  0  0  0  0  0
  -19.8901  -24.8968   22.5381 C   0  0  0  0  0  0  0  0  0  0  0  0
  -21.4216  -22.8443   23.6447 C   0  0  0  0  0  0  0  0  0  0  0  0
  -26.7877  -14.1916   20.5392 C   0  0  0  0  0  0  0  0  0  0  0  0
  -21.5608  -28.7274   21.0694 C   0  0  0  0  0  0  0  0  0  0  0  0
  -27.8996  -12.2568   19.8024 C   0  0  0  0  0  0  0  0  0  0  0  0
  -30.2874  -10.9639   19.1630 C   0  0  0  0  0  0  0  0  0  0  0  0
  -28.2758  -11.1052   20.4936 C   0  0  0  0  0  0  0  0  0  0  0  0
  -20.8360  -22.6787   22.3895 C   0  0  0  0  0  0  0  0  0  0  0  0
  -27.0149  -18.2085   21.8469 C   0  0  0  0  0  0  0  0  0  0  0  0
  -27.5104  -20.3397   22.0650 C   0  0  0  0  0  0  0  0  0  0  0  0
  -28.6687  -19.2175   20.1552 C   0  0  0  0  0  0  0  0  0  0  0  0
  -26.8252  -28.9093   22.3801 C   0  0  0  0  0  0  0  0  0  0  0  0
  -26.3935  -32.0017   23.2590 C   0  0  0  0  0  0  0  0  0  0  0  0
  -24.2580  -34.6384   23.6258 C   0  0  0  0  0  0  0  0  0  0  0  0
  -22.8437  -21.8569   25.4746 C   0  0  0  0  0  0  0  0  0  0  0  0
  -30.7516  -25.8785   21.1739 C   0  0  0  0  0  0  0  0  0  0  0  0
  -25.6543  -29.8493   20.3549 C   0  0  0  0  0  0  0  0  0  0  0  0
  -24.3072  -30.6384   22.8664 C   0  0  0  0  0  0  0  0  0  0  0  0
  -30.5636  -27.1398   22.0129 C   0  0  0  0  0  0  0  0  0  0  0  0
  -26.2313  -21.5350   26.5225 C   0  0  0  0  0  0  0  0  0  0  0  0
  -17.7974  -27.1527   20.4768 C   0  0  0  0  0  0  0  0  0  0  0  0
  -29.3788  -26.9793   22.9601 C   0  0  0  0  0  0  0  0  0  0  0  0
  -26.8881  -20.7449   25.3883 C   0  0  0  0  0  0  0  0  0  0  0  0
  -17.5171  -27.6244   21.8949 C   0  0  0  0  0  0  0  0  0  0  0  0
  -18.4895  -25.8084   20.6786 C   0  0  0  0  0  0  0  0  0  0  0  0
  -24.8012  -21.0668   26.7858 C   0  0  0  0  0  0  0  0  0  0  0  0
  -24.5854  -20.2524   24.4707 C   0  0  0  0  0  0  0  0  0  0  0  0
  -28.0749  -26.7669   22.1815 C   0  0  1  0  0  0  0  0  0  0  0  0
  -26.4402  -30.1513   21.6272 C   0  0  1  0  0  0  0  0  0  0  0  0
  -26.0047  -20.7320   24.1254 C   0  0  2  0  0  0  0  0  0  0  0  0
  -18.7406  -27.1449   22.6884 C   0  0  2  0  0  0  0  0  0  0  0  0
  -24.1883  -37.0235   24.4027 C   0  0  0  0  0  0  0  0  0  0  0  0
  -26.4642  -31.0565   26.1593 C   0  0  0  0  0  0  0  0  0  0  0  0
  -25.4615  -33.2516   26.8261 C   0  0  0  0  0  0  0  0  0  0  0  0
  -27.6995  -33.1874   25.7262 C   0  0  0  0  0  0  0  0  0  0  0  0
  -23.4259  -35.6056   20.9554 C   0  0  0  0  0  0  0  0  0  0  0  0
  -19.8701  -28.1733   22.6475 C   0  0  0  0  0  0  0  0  0  1  0  0
  -25.6305  -32.7050   24.3555 C   0  0  1  0  0  0  0  0  0  0  0  0
  -24.3754  -36.0946   23.2133 C   0  0  2  0  0  0  0  0  0  0  0  0
  -26.3008  -32.5333   25.7479 C   0  0  0  0  0  0  0  0  0  0  0  0
  -26.3049  -18.6106   22.9044 N   0  0  0  0  0  0  0  0  0  0  0  0
  -26.6275  -19.9107   23.0120 N   0  0  0  0  0  0  0  0  0  0  0  0
  -19.1322  -25.9145   21.9900 N   0  0  3  0  0  0  0  0  0  0  0  0
  -25.7001  -31.0037   22.5598 N   0  0  0  0  0  0  0  0  0  0  0  0
  -24.0225  -21.0848   25.5455 N   0  0  0  0  0  0  0  0  0  0  0  0
  -27.9407  -21.6187   22.0276 N   0  0  0  0  0  0  0  0  0  0  0  0
  -28.8354  -18.0090   19.4652 N   0  0  0  0  0  0  0  0  0  0  0  0
  -22.2055  -21.8224   24.2353 N   0  0  0  0  0  0  0  0  0  0  0  0
  -27.5938  -28.0237   21.6490 N   0  0  0  0  0  0  0  0  0  0  0  0
  -25.4876  -34.0925   23.9281 N   0  0  0  0  0  0  0  0  0  0  0  0
  -23.3444  -36.4278   22.1900 N   0  3  0  0  0  0  0  0  0  0  0  0
  -29.3049  -20.2315   19.7801 O   0  0  0  0  0  0  0  0  0  0  0  0
  -26.4537  -28.7657   23.5390 O   0  0  0  0  0  0  0  0  0  0  0  0
  -27.5594  -32.3308   23.0267 O   0  0  0  0  0  0  0  0  0  0  0  0
  -23.1827  -34.0456   23.6784 O   0  0  0  0  0  0  0  0  0  0  0  0
  -22.4456  -22.5230   26.4337 O   0  0  0  0  0  0  0  0  0  0  0  0
  -26.7142  -12.8993   20.1181 O   0  0  0  0  0  0  0  0  0  0  0  0
  -20.2649  -28.3764   21.2913 O   0  0  0  0  0  0  0  0  0  1  0  0
  -31.4332  -10.3423   18.8548 F   0  0  0  0  0  0  0  0  0  0  0  0
  -27.4939  -10.6145   21.4649 F   0  0  0  0  0  0  0  0  0  0  0  0
  -21.0341  -21.2191   21.4862 Cl  0  0  0  0  0  0  0  0  0  0  0  0
  1  2  1  0  0  0  0
  1  5  2  0  0  0  0
  2  6  2  0  0  0  0
  3 10  2  0  0  0  0
  3 18  1  0  0  0  0
  4 11  1  0  0  0  0
  4 18  2  0  0  0  0
  5 20  1  0  0  0  0
  6 22  1  0  0  0  0
  7 12  2  0  0  0  0
  7 21  1  0  0  0  0
  8  9  2  0  0  0  0
  8 24  1  0  0  0  0
  9 25  1  0  0  0  0
 10 26  1  0  0  0  0
 11 26  2  0  0  0  0
 12 27  1  0  0  0  0
 13 14  2  0  0  0  0
 13 28  1  0  0  0  0
 14 29  1  0  0  0  0
 15 23  1  0  0  0  0
 15 27  2  0  0  0  0
 16 24  2  0  0  0  0
 16 31  1  0  0  0  0
 17 29  2  0  0  0  0
 17 30  1  0  0  0  0
 18 32  1  0  0  0  0
 19 32  1  0  0  0  0
 19 33  2  0  0  0  0
 19 34  1  0  0  0  0
 20 22  2  0  0  0  0
 20 39  1  0  0  0  0
 21 23  2  0  0  0  0
 21 40  1  0  0  0  0
 22 51  1  0  0  0  0
 23 41  1  0  0  0  0
 24 66  1  0  0  0  0
 25 31  2  0  0  0  0
 25 71  1  0  0  0  0
 26 80  1  0  0  0  0
 27 81  1  0  0  0  0
 28 30  2  0  0  0  0
 28 80  1  0  0  0  0
 29 82  1  0  0  0  0
 30 83  1  0  0  0  0
 31 84  1  0  0  0  0
 32 64  2  0  0  0  0
 33 65  1  0  0  0  0
 33 69  1  0  0  0  0
 34 70  1  0  0  0  0
 34 75  2  0  0  0  0
 35 52  1  0  0  0  0
 35 72  1  0  0  0  0
 35 76  2  0  0  0  0
 36 61  1  0  0  0  0
 36 67  1  0  0  0  0
 36 77  2  0  0  0  0
 37 62  1  0  0  0  0
 37 73  1  0  0  0  0
 37 78  2  0  0  0  0
 38 68  1  0  0  0  0
 38 71  1  0  0  0  0
 38 79  2  0  0  0  0
 39 42  1  0  0  0  0
 40 52  1  0  0  0  0
 41 67  1  0  0  0  0
 42 45  1  0  0  0  0
 43 46  1  0  0  0  0
 43 49  1  0  0  0  0
 44 47  1  0  0  0  0
 44 48  1  0  0  0  0
 45 51  1  0  0  0  0
 46 53  1  0  0  0  0
 47 54  1  0  0  0  0
 48 66  1  0  0  0  0
 49 68  1  0  0  0  0
 50 53  1  0  0  0  0
 50 68  1  0  0  0  0
 51 72  1  0  0  0  0
 52 67  1  0  0  0  0
 53 65  1  0  0  0  0
 54 60  1  0  0  0  0
 54 66  1  0  0  0  0
 55 62  1  0  0  0  0
 56 63  1  0  0  0  0
 57 63  1  0  0  0  0
 58 63  1  0  0  0  0
 59 74  1  0  0  0  0
 60 81  1  0  0  0  0
 61 63  1  0  0  0  0
 61 73  1  0  0  0  0
 62 74  1  0  0  0  0
 64 65  1  0  0  0  0
M  CHG  1  74   1
M  ISO  4  38 100  60 101  71 100  81 101
M  END
> <Batch ID>
0021

> <Smiles>
CNC(C)C(=O)NC(C(=O)N1Cc2cc([101O:1][101CH2:1]C3CCCN3c3ccc([100NH:0][100C:0](=O)N4CCCC(n5nc(-c6ccc(Oc7ccc(F)cc7F)cc6)c(C(N)=O)c5N)C4)c(Cl)c3)ccc2CC1C(=O)NC1CCCc2ccccc21)C(C)(C)C

> <Shape>
0.296

> <Color>
0.059

> <Negative vol penalty>
0.000

$$$$

  -OEChem-04042321113D

 84 92  0     1  0  0  0  0  0999 V2000
  -32.3430  -32.3871   14.9007 C   0  0  0  0  0  0  0  0  0  0  0  0
  -32.1085  -31.1031   15.3821 C   0  0  0  0  0  0  0  0  0  0  0  0
  -23.4606   -9.6464   21.4945 C   0  0  0  0  0  0  0  0  0  0  0  0
  -24.0282  -10.7527   23.5659 C   0  0  0  0  0  0  0  0  0  0  0  0
  -32.0939  -33.4916   15.7143 C   0  0  0  0  0  0  0  0  0  0  0  0
  -31.6257  -30.9228   16.6778 C   0  0  0  0  0  0  0  0  0  0  0  0
  -27.7700  -26.5691   18.5974 C   0  0  0  0  0  0  0  0  0  0  0  0
  -22.8293   -8.6294   22.2106 C   0  0  0  0  0  0  0  0  0  0  0  0
  -23.3968   -9.7358   24.2821 C   0  0  0  0  0  0  0  0  0  0  0  0
  -27.9770  -25.3517   19.2445 C   0  0  0  0  0  0  0  0  0  0  0  0
  -20.2370   -8.8573   25.0972 C   0  0  0  0  0  0  0  0  0  0  0  0
  -19.3972   -9.2307   26.1464 C   0  0  0  0  0  0  0  0  0  0  0  0
  -27.5470  -26.4137   21.3673 C   0  0  0  0  0  0  0  0  0  0  0  0
  -31.6455  -19.1042   22.0818 C   0  0  0  0  0  0  0  0  0  0  0  0
  -29.7185  -20.1021   21.0198 C   0  0  0  0  0  0  0  0  0  0  0  0
  -20.7792   -7.9922   27.6934 C   0  0  0  0  0  0  0  0  0  0  0  0
  -24.0601  -10.7081   22.1722 C   0  0  0  0  0  0  0  0  0  0  0  0
  -24.1330  -12.9494   20.9562 C   0  0  0  0  0  0  0  0  0  0  0  0
  -31.5987  -33.3252   17.0173 C   0  0  0  0  0  0  0  0  0  0  0  0
  -27.4601  -27.7223   19.3327 C   0  0  0  0  0  0  0  0  0  0  0  0
  -31.3710  -32.0261   17.5100 C   0  0  0  0  0  0  0  0  0  0  0  0
  -27.3340  -27.6440   20.7270 C   0  0  0  0  0  0  0  0  0  0  0  0
  -30.8891  -20.2331   21.7670 C   0  0  0  0  0  0  0  0  0  0  0  0
  -30.0611  -17.7134   20.9019 C   0  0  0  0  0  0  0  0  0  0  0  0
  -22.7974   -8.6741   23.6043 C   0  0  0  0  0  0  0  0  0  0  0  0
  -27.8684  -25.2744   20.6299 C   0  0  0  0  0  0  0  0  0  0  0  0
  -21.3479   -8.0513   25.3460 C   0  0  0  0  0  0  0  0  0  0  0  0
  -19.6683   -8.7982   27.4445 C   0  0  0  0  0  0  0  0  0  0  0  0
  -21.6190   -7.6188   26.6441 C   0  0  0  0  0  0  0  0  0  0  0  0
  -31.2316  -17.8444   21.6492 C   0  0  0  0  0  0  0  0  0  0  0  0
  -29.3045  -18.8422   20.5872 C   0  0  0  0  0  0  0  0  0  0  0  0
  -24.7129  -11.7586   21.4330 C   0  0  0  0  0  0  0  0  0  0  0  0
  -25.1625  -13.6041   20.3254 C   0  0  0  0  0  0  0  0  0  0  0  0
  -22.7842  -13.4216   21.0730 C   0  0  0  0  0  0  0  0  0  0  0  0
  -28.8571  -30.5429   19.7757 C   0  0  0  0  0  0  0  0  0  0  0  0
  -26.1167  -31.2110   21.3777 C   0  0  0  0  0  0  0  0  0  0  0  0
  -23.4069  -30.0463   23.0944 C   0  0  0  0  0  0  0  0  0  0  0  0
  -30.4501  -15.3402   20.1515 C   0  0  0  0  0  0  0  0  0  0  0  0
  -31.3894  -34.5473   17.8759 C   0  0  0  0  0  0  0  0  0  0  0  0
  -27.2135  -29.0222   18.6173 C   0  0  0  0  0  0  0  0  0  0  0  0
  -26.9834  -28.8486   21.5604 C   0  0  0  0  0  0  0  0  0  0  0  0
  -30.5236  -34.2867   19.1058 C   0  0  0  0  0  0  0  0  0  0  0  0
  -29.7999  -12.0113   19.0687 C   0  0  0  0  0  0  0  0  0  0  0  0
  -30.9732  -33.0132   19.8151 C   0  0  0  0  0  0  0  0  0  0  0  0
  -28.3708  -11.7467   19.5480 C   0  0  0  0  0  0  0  0  0  0  0  0
  -30.5849  -12.8604   20.0670 C   0  0  0  0  0  0  0  0  0  0  0  0
  -28.5054  -13.8525   20.9390 C   0  0  0  0  0  0  0  0  0  0  0  0
  -30.8241  -31.7908   18.9013 C   0  0  1  0  0  0  0  0  0  0  0  0
  -27.4087  -30.2427   19.5115 C   0  0  1  0  0  0  0  0  0  0  0  0
  -27.6552  -13.0555   19.9361 C   0  0  2  0  0  0  0  0  0  0  0  0
  -21.3609  -30.8341   24.3153 C   0  0  0  0  0  0  0  0  0  0  0  0
  -27.8511  -32.0297   23.7508 C   0  0  0  0  0  0  0  0  0  0  0  0
  -25.8142  -31.8866   25.1995 C   0  0  0  0  0  0  0  0  0  0  0  0
  -25.8947  -33.5276   23.3225 C   0  0  0  0  0  0  0  0  0  0  0  0
  -32.5336  -21.6358   22.9868 C   0  0  0  0  0  0  0  0  0  0  0  0
  -21.6037  -28.6201   21.2306 C   0  0  0  0  0  0  0  0  0  0  0  0
  -29.3942  -22.8722   22.8547 C   0  0  0  0  0  0  0  0  0  0  0  0
  -30.5538  -22.6896   21.8830 C   0  0  0  0  0  0  0  0  0  0  0  0
  -28.5915  -24.1408   22.5915 C   0  0  0  0  0  0  0  0  0  1  0  0
  -25.6505  -31.0647   22.8061 C   0  0  1  0  0  0  0  0  0  0  0  0
  -21.9281  -30.3706   22.9826 C   0  0  2  0  0  0  0  0  0  0  0  0
  -26.3111  -32.1047   23.7545 C   0  0  0  0  0  0  0  0  0  0  0  0
  -26.0102  -11.6598   21.1309 N   0  0  0  0  0  0  0  0  0  0  0  0
  -26.2539  -12.7969   20.4573 N   0  0  0  0  0  0  0  0  0  0  0  0
  -26.7579  -30.0982   20.8152 N   0  0  0  0  0  0  0  0  0  0  0  0
  -29.8480  -14.0856   20.3843 N   0  0  0  0  0  0  0  0  0  0  0  0
  -25.2316  -14.7857   19.6762 N   0  0  0  0  0  0  0  0  0  0  0  0
  -21.8537  -12.6241   21.7530 N   0  0  0  0  0  0  0  0  0  0  0  0
  -29.6419  -16.4338   20.4606 N   0  0  0  0  0  0  0  0  0  0  0  0
  -29.4398  -31.3734   18.8375 N   0  0  0  0  0  0  0  0  0  0  0  0
  -24.1936  -31.1308   22.7688 N   0  0  0  0  0  0  0  0  0  0  0  0
  -31.3050  -21.4996   22.2021 N   0  0  3  0  0  0  0  0  0  0  0  0
  -21.1662  -29.1686   22.5401 N   0  3  0  0  0  0  0  0  0  0  0  0
  -22.4113  -14.5106   20.5745 O   0  0  0  0  0  0  0  0  0  0  0  0
  -29.4050  -30.0582   20.7589 O   0  0  0  0  0  0  0  0  0  0  0  0
  -25.9129  -32.2709   20.7805 O   0  0  0  0  0  0  0  0  0  0  0  0
  -23.8225  -28.9425   23.4399 O   0  0  0  0  0  0  0  0  0  0  0  0
  -31.5880  -15.4374   19.6849 O   0  0  0  0  0  0  0  0  0  0  0  0
  -22.1812   -7.6821   24.3034 O   0  0  0  0  0  0  0  0  0  0  0  0
  -28.0706  -24.0875   21.2641 O   0  0  0  0  0  0  0  0  0  1  0  0
  -18.8626   -9.1581   28.4522 F   0  0  0  0  0  0  0  0  0  0  0  0
  -22.6855   -6.8453   26.8896 F   0  0  0  0  0  0  0  0  0  0  0  0
  -32.2026  -16.4761   22.0651 Cl  0  0  0  0  0  0  0  0  0  0  0  0
  -27.8458  -18.7303   19.6666 Cl  0  0  0  0  0  0  0  0  0  0  0  0
  1  2  1  0  0  0  0
  1  5  2  0  0  0  0
  2  6  2  0  0  0  0
  3  8  2  0  0  0  0
  3 17  1  0  0  0  0
  4  9  1  0  0  0  0
  4 17  2  0  0  0  0
  5 19  1  0  0  0  0
  6 21  1  0  0  0  0
  7 10  2  0  0  0  0
  7 20  1  0  0  0  0
  8 25  1  0  0  0  0
  9 25  2  0  0  0  0
 10 26  1  0  0  0  0
 11 12  2  0  0  0  0
 11 27  1  0  0  0  0
 12 28  1  0  0  0  0
 13 22  1  0  0  0  0
 13 26  2  0  0  0  0
 14 23  1  0  0  0  0
 14 30  2  0  0  0  0
 15 23  2  0  0  0  0
 15 31  1  0  0  0  0
 16 28  2  0  0  0  0
 16 29  1  0  0  0  0
 17 32  1  0  0  0  0
 18 32  1  0  0  0  0
 18 33  2  0  0  0  0
 18 34  1  0  0  0  0
 19 21  2  0  0  0  0
 19 39  1  0  0  0  0
 20 22  2  0  0  0  0
 20 40  1  0  0  0  0
 21 48  1  0  0  0  0
 22 41  1  0  0  0  0
 23 72  1  0  0  0  0
 24 30  1  0  0  0  0
 24 31  2  0  0  0  0
 24 69  1  0  0  0  0
 25 79  1  0  0  0  0
 26 80  1  0  0  0  0
 27 29  2  0  0  0  0
 27 79  1  0  0  0  0
 28 81  1  0  0  0  0
 29 82  1  0  0  0  0
 30 83  1  0  0  0  0
 31 84  1  0  0  0  0
 32 63  2  0  0  0  0
 33 64  1  0  0  0  0
 33 67  1  0  0  0  0
 34 68  1  0  0  0  0
 34 74  2  0  0  0  0
 35 49  1  0  0  0  0
 35 70  1  0  0  0  0
 35 75  2  0  0  0  0
 36 60  1  0  0  0  0
 36 65  1  0  0  0  0
 36 76  2  0  0  0  0
 37 61  1  0  0  0  0
 37 71  1  0  0  0  0
 37 77  2  0  0  0  0
 38 66  1  0  0  0  0
 38 69  1  0  0  0  0
 38 78  2  0  0  0  0
 39 42  1  0  0  0  0
 40 49  1  0  0  0  0
 41 65  1  0  0  0  0
 42 44  1  0  0  0  0
 43 45  1  0  0  0  0
 43 46  1  0  0  0  0
 44 48  1  0  0  0  0
 45 50  1  0  0  0  0
 46 66  1  0  0  0  0
 47 50  1  0  0  0  0
 47 66  1  0  0  0  0
 48 70  1  0  0  0  0
 49 65  1  0  0  0  0
 50 64  1  0  0  0  0
 51 61  1  0  0  0  0
 52 62  1  0  0  0  0
 53 62  1  0  0  0  0
 54 62  1  0  0  0  0
 55 72  1  0  0  0  0
 56 73  1  0  0  0  0
 57 58  1  0  0  0  0
 57 59  1  0  0  0  0
 58 72  1  0  0  0  0
 59 80  1  0  0  0  0
 60 62  1  0  0  0  0
 60 71  1  0  0  0  0
 61 73  1  0  0  0  0
 63 64  1  0  0  0  0
M  CHG  1  73   1
M  ISO  4  38 100  59 101  69 100  80 101
M  END
> <Batch ID>
0021

> <Smiles>
CNC(C)C(=O)NC(C(=O)N1Cc2cc([101O:1][101CH2:1]CCN(C)c3cc(Cl)c([100NH:0][100C:0](=O)N4CCCC(n5nc(-c6ccc(Oc7ccc(F)cc7F)cc6)c(C(N)=O)c5N)C4)c(Cl)c3)ccc2CC1C(=O)NC1CCCc2ccccc21)C(C)(C)C

> <Shape>
0.272

> <Color>
0.169

> <Negative vol penalty>
0.000

$$$$

  -OEChem-04042321113D

 85 94  0     1  0  0  0  0  0999 V2000
  -28.7151  -33.2178   25.7123 C   0  0  0  0  0  0  0  0  0  0  0  0
  -29.2451  -32.0896   25.0944 C   0  0  0  0  0  0  0  0  0  0  0  0
  -23.1471   -9.7474   20.0566 C   0  0  0  0  0  0  0  0  0  0  0  0
  -23.8373   -9.9580   22.3624 C   0  0  0  0  0  0  0  0  0  0  0  0
  -27.3410  -33.3121   25.9283 C   0  0  0  0  0  0  0  0  0  0  0  0
  -28.4012  -31.0545   24.6932 C   0  0  0  0  0  0  0  0  0  0  0  0
  -29.0444  -27.4825   19.7604 C   0  0  0  0  0  0  0  0  0  0  0  0
  -22.4318   -8.5933   20.3761 C   0  0  0  0  0  0  0  0  0  0  0  0
  -23.1220   -8.8039   22.6819 C   0  0  0  0  0  0  0  0  0  0  0  0
  -29.5628  -26.1992   19.5928 C   0  0  0  0  0  0  0  0  0  0  0  0
  -19.9032   -7.9494   23.2564 C   0  0  0  0  0  0  0  0  0  0  0  0
  -19.1131   -7.9758   24.4056 C   0  0  0  0  0  0  0  0  0  0  0  0
  -27.3346  -25.2864   19.7383 C   0  0  0  0  0  0  0  0  0  0  0  0
  -29.3950  -19.5266   21.9229 C   0  0  0  0  0  0  0  0  0  0  0  0
  -30.9551  -17.8641   20.3152 C   0  0  0  0  0  0  0  0  0  0  0  0
  -20.3908   -6.1436   25.3262 C   0  0  0  0  0  0  0  0  0  0  0  0
  -23.8499  -10.4297   21.0498 C   0  0  0  0  0  0  0  0  0  0  0  0
  -24.1174  -12.9477   20.7406 C   0  0  0  0  0  0  0  0  0  0  0  0
  -26.4787  -32.2820   25.5208 C   0  0  0  0  0  0  0  0  0  0  0  0
  -27.6659  -27.6767   19.9295 C   0  0  0  0  0  0  0  0  0  0  0  0
  -27.0143  -31.1346   24.9052 C   0  0  0  0  0  0  0  0  0  0  0  0
  -26.8009  -26.5734   19.9053 C   0  0  0  0  0  0  0  0  0  0  0  0
  -30.3026  -20.0808   21.0204 C   0  0  0  0  0  0  0  0  0  0  0  0
  -30.0475  -17.3098   21.2179 C   0  0  0  0  0  0  0  0  0  0  0  0
  -22.4192   -8.1216   21.6887 C   0  0  0  0  0  0  0  0  0  0  0  0
  -28.7083  -25.1007   19.5846 C   0  0  0  0  0  0  0  0  0  0  0  0
  -20.9371   -7.0200   23.1421 C   0  0  0  0  0  0  0  0  0  0  0  0
  -19.3569   -7.0730   25.4405 C   0  0  0  0  0  0  0  0  0  0  0  0
  -29.2675  -18.1410   22.0217 C   0  0  0  0  0  0  0  0  0  0  0  0
  -31.0826  -19.2496   20.2165 C   0  0  0  0  0  0  0  0  0  0  0  0
  -21.1809   -6.1172   24.1770 C   0  0  0  0  0  0  0  0  0  0  0  0
  -24.5894  -11.6216   20.7202 C   0  0  0  0  0  0  0  0  0  0  0  0
  -25.1965  -13.7022   20.3496 C   0  0  0  0  0  0  0  0  0  0  0  0
  -30.2239  -22.4325   21.9541 C   0  0  0  0  0  0  0  0  0  0  0  0
  -22.8197  -13.4524   21.0825 C   0  0  0  0  0  0  0  0  0  0  0  0
  -25.8346  -28.8619   22.2414 C   0  0  0  0  0  0  0  0  0  0  0  0
  -23.4800  -28.4656   20.0457 C   0  0  0  0  0  0  0  0  0  0  0  0
  -22.3592  -26.8432   17.2603 C   0  0  0  0  0  0  0  0  0  0  0  0
  -30.6203  -14.9379   20.5915 C   0  0  0  0  0  0  0  0  0  0  0  0
  -25.0056  -32.4081   25.8184 C   0  0  0  0  0  0  0  0  0  0  0  0
  -27.1196  -29.0698   20.0824 C   0  0  0  0  0  0  0  0  0  0  0  0
  -25.3112  -26.7301   20.0624 C   0  0  0  0  0  0  0  0  0  0  0  0
  -30.5752  -23.7993   21.4092 C   0  0  0  0  0  0  0  0  0  0  0  0
  -24.1384  -31.4336   25.0256 C   0  0  0  0  0  0  0  0  0  0  0  0
  -29.6520  -12.3116   18.3911 C   0  0  0  0  0  0  0  0  0  0  0  0
  -24.7344  -30.0301   25.0711 C   0  0  0  0  0  0  0  0  0  0  0  0
  -28.2098  -12.0070   18.8025 C   0  0  0  0  0  0  0  0  0  0  0  0
  -30.5232  -12.6633   19.5957 C   0  0  0  0  0  0  0  0  0  0  0  0
  -28.5544  -13.4298   20.8626 C   0  0  0  0  0  0  0  0  0  0  0  0
  -30.8820  -22.1494   19.7034 C   0  0  0  0  0  0  0  0  0  0  0  0
  -26.1287  -30.0019   24.4334 C   0  0  1  0  0  0  0  0  0  0  0  0
  -25.7536  -29.1048   20.7608 C   0  0  1  0  0  0  0  0  0  0  0  0
  -27.6231  -13.1334   19.6758 C   0  0  2  0  0  0  0  0  0  0  0  0
  -30.5306  -23.6106   19.9039 C   0  0  1  0  0  0  0  0  0  1  0  0
  -20.3811  -26.7067   15.7222 C   0  0  0  0  0  0  0  0  0  0  0  0
  -21.9534  -26.8737   22.1542 C   0  0  0  0  0  0  0  0  0  0  0  0
  -20.4929  -25.9848   20.3252 C   0  0  0  0  0  0  0  0  0  0  0  0
  -20.5427  -28.4332   20.8005 C   0  0  0  0  0  0  0  0  0  0  0  0
  -23.9721  -27.6778   14.9234 C   0  0  0  0  0  0  0  0  0  0  0  0
  -22.5335  -27.3467   19.6832 C   0  0  1  0  0  0  0  0  0  0  0  0
  -21.7306  -27.3593   15.9785 C   0  0  2  0  0  0  0  0  0  0  0  0
  -21.4089  -27.1561   20.7397 C   0  0  0  0  0  0  0  0  0  0  0  0
  -25.8686  -11.5352   20.3457 N   0  0  0  0  0  0  0  0  0  0  0  0
  -26.2096  -12.8166   20.1271 N   0  0  0  0  0  0  0  0  0  0  0  0
  -30.4312  -21.4992   20.9219 N   0  0  0  0  0  0  0  0  0  0  0  0
  -24.8260  -28.1117   20.2153 N   0  0  0  0  0  0  0  0  0  0  0  0
  -29.9068  -13.7403   20.3734 N   0  0  0  0  0  0  0  0  0  0  0  0
  -25.3680  -15.0302   20.1777 N   0  0  0  0  0  0  0  0  0  0  0  0
  -21.8265  -12.5394   21.4624 N   0  0  0  0  0  0  0  0  0  0  0  0
  -29.9205  -15.9020   21.3164 N   0  0  0  0  0  0  0  0  0  0  0  0
  -26.0245  -30.0078   22.9900 N   0  0  0  0  0  0  0  0  0  0  0  0
  -22.0475  -27.6424   18.3398 N   0  0  0  0  0  0  0  0  0  0  0  0
  -22.6183  -27.0756   14.8155 N   0  3  0  0  0  0  0  0  0  0  0  0
  -29.8871  -22.2584   23.1166 O   0  0  0  0  0  0  0  0  0  0  0  0
  -22.5442  -14.6753   21.0362 O   0  0  0  0  0  0  0  0  0  0  0  0
  -25.7308  -27.7197   22.6729 O   0  0  0  0  0  0  0  0  0  0  0  0
  -23.0424  -29.6125   20.1667 O   0  0  0  0  0  0  0  0  0  0  0  0
  -23.0540  -25.8302   17.3006 O   0  0  0  0  0  0  0  0  0  0  0  0
  -31.7572  -15.1068   20.1433 O   0  0  0  0  0  0  0  0  0  0  0  0
  -21.7212   -6.9956   22.0009 O   0  0  0  0  0  0  0  0  0  0  0  0
  -29.2118  -23.8469   19.4218 O   0  0  0  0  0  0  0  0  0  1  0  0
  -18.5990   -7.0995   26.5446 F   0  0  0  0  0  0  0  0  0  0  0  0
  -28.3915  -17.6194   22.8925 F   0  0  0  0  0  0  0  0  0  0  0  0
  -31.9577  -19.7713   19.3450 F   0  0  0  0  0  0  0  0  0  0  0  0
  -22.1735   -5.2228   24.0734 F   0  0  0  0  0  0  0  0  0  0  0  0
  1  2  1  0  0  0  0
  1  5  2  0  0  0  0
  2  6  2  0  0  0  0
  3  8  2  0  0  0  0
  3 17  1  0  0  0  0
  4  9  1  0  0  0  0
  4 17  2  0  0  0  0
  5 19  1  0  0  0  0
  6 21  1  0  0  0  0
  7 10  2  0  0  0  0
  7 20  1  0  0  0  0
  8 25  1  0  0  0  0
  9 25  2  0  0  0  0
 10 26  1  0  0  0  0
 11 12  2  0  0  0  0
 11 27  1  0  0  0  0
 12 28  1  0  0  0  0
 13 22  1  0  0  0  0
 13 26  2  0  0  0  0
 14 23  1  0  0  0  0
 14 29  2  0  0  0  0
 15 24  2  0  0  0  0
 15 30  1  0  0  0  0
 16 28  2  0  0  0  0
 16 31  1  0  0  0  0
 17 32  1  0  0  0  0
 18 32  1  0  0  0  0
 18 33  2  0  0  0  0
 18 35  1  0  0  0  0
 19 21  2  0  0  0  0
 19 40  1  0  0  0  0
 20 22  2  0  0  0  0
 20 41  1  0  0  0  0
 21 51  1  0  0  0  0
 22 42  1  0  0  0  0
 23 30  2  0  0  0  0
 23 65  1  0  0  0  0
 24 29  1  0  0  0  0
 24 70  1  0  0  0  0
 25 80  1  0  0  0  0
 26 81  1  0  0  0  0
 27 31  2  0  0  0  0
 27 80  1  0  0  0  0
 28 82  1  0  0  0  0
 29 83  1  0  0  0  0
 30 84  1  0  0  0  0
 31 85  1  0  0  0  0
 32 63  2  0  0  0  0
 33 64  1  0  0  0  0
 33 68  1  0  0  0  0
 34 43  1  0  0  0  0
 34 65  1  0  0  0  0
 34 74  2  0  0  0  0
 35 69  1  0  0  0  0
 35 75  2  0  0  0  0
 36 52  1  0  0  0  0
 36 71  1  0  0  0  0
 36 76  2  0  0  0  0
 37 60  1  0  0  0  0
 37 66  1  0  0  0  0
 37 77  2  0  0  0  0
 38 61  1  0  0  0  0
 38 72  1  0  0  0  0
 38 78  2  0  0  0  0
 39 67  1  0  0  0  0
 39 70  1  0  0  0  0
 39 79  2  0  0  0  0
 40 44  1  0  0  0  0
 41 52  1  0  0  0  0
 42 66  1  0  0  0  0
 43 54  1  0  0  0  0
 44 46  1  0  0  0  0
 45 47  1  0  0  0  0
 45 48  1  0  0  0  0
 46 51  1  0  0  0  0
 47 53  1  0  0  0  0
 48 67  1  0  0  0  0
 49 53  1  0  0  0  0
 49 67  1  0  0  0  0
 50 54  1  0  0  0  0
 50 65  1  0  0  0  0
 51 71  1  0  0  0  0
 52 66  1  0  0  0  0
 53 64  1  0  0  0  0
 54 81  1  0  0  0  0
 55 61  1  0  0  0  0
 56 62  1  0  0  0  0
 57 62  1  0  0  0  0
 58 62  1  0  0  0  0
 59 73  1  0  0  0  0
 60 62  1  0  0  0  0
 60 72  1  0  0  0  0
 61 73  1  0  0  0  0
 63 64  1  0  0  0  0
M  CHG  1  73   1
M  ISO  4  39 100  54 101  70 100  81 101
M  END
> <Batch ID>
0021

> <Smiles>
CNC(C)C(=O)NC(C(=O)N1Cc2cc([101O:1][101CH:1]3CC(=O)N(c4cc(F)c([100NH:0][100C:0](=O)N5CCCC(n6nc(-c7ccc(Oc8ccc(F)cc8F)cc7)c(C(N)=O)c6N)C5)cc4F)C3)ccc2CC1C(=O)NC1CCCc2ccccc21)C(C)(C)C

> <Shape>
0.372

> <Color>
0.215

> <Negative vol penalty>
0.000

$$$$

  -OEChem-04042321113D

 85 93  0     1  0  0  0  0  0999 V2000
  -23.9508  -29.7407   22.6570 C   0  0  0  0  0  0  0  0  0  0  0  0
  -23.5280  -28.4546   22.3366 C   0  0  0  0  0  0  0  0  0  0  0  0
  -28.0579  -14.1013   20.2436 C   0  0  0  0  0  0  0  0  0  0  0  0
  -28.9230  -12.1669   19.0830 C   0  0  0  0  0  0  0  0  0  0  0  0
  -25.0001  -30.3251   21.9489 C   0  0  0  0  0  0  0  0  0  0  0  0
  -24.1537  -27.7526   21.3070 C   0  0  0  0  0  0  0  0  0  0  0  0
  -25.1614  -21.7173   21.0488 C   0  0  0  0  0  0  0  0  0  0  0  0
  -22.2864  -13.7215   21.3314 C   0  0  0  0  0  0  0  0  0  0  0  0
  -21.9735  -12.7175   22.2477 C   0  0  0  0  0  0  0  0  0  0  0  0
  -29.3587  -14.5640   20.4420 C   0  0  0  0  0  0  0  0  0  0  0  0
  -30.2238  -12.6296   19.2814 C   0  0  0  0  0  0  0  0  0  0  0  0
  -24.4816  -20.6792   20.4132 C   0  0  0  0  0  0  0  0  0  0  0  0
  -32.4698  -16.0729   21.5682 C   0  0  0  0  0  0  0  0  0  0  0  0
  -32.8028  -16.5528   22.8348 C   0  0  0  0  0  0  0  0  0  0  0  0
  -26.0063  -20.8297   18.5499 C   0  0  0  0  0  0  0  0  0  0  0  0
  -24.1737  -14.3744   22.6911 C   0  0  0  0  0  0  0  0  0  0  0  0
  -32.2780  -14.3965   23.7899 C   0  0  0  0  0  0  0  0  0  0  0  0
  -27.8400  -12.9027   19.5641 C   0  0  0  0  0  0  0  0  0  0  0  0
  -25.6524  -12.7013   18.2674 C   0  0  0  0  0  0  0  0  0  0  0  0
  -25.6453  -29.6261   20.9165 C   0  0  0  0  0  0  0  0  0  0  0  0
  -26.2639  -22.3278   20.4338 C   0  0  0  0  0  0  0  0  0  0  0  0
  -25.2117  -28.3286   20.5835 C   0  0  0  0  0  0  0  0  0  0  0  0
  -26.6999  -21.8736   19.1809 C   0  0  0  0  0  0  0  0  0  0  0  0
  -23.8609  -13.3704   23.6074 C   0  0  0  0  0  0  0  0  0  0  0  0
  -23.3865  -14.5499   21.5530 C   0  0  0  0  0  0  0  0  0  0  0  0
  -22.7608  -12.5419   23.3858 C   0  0  0  0  0  0  0  0  0  0  0  0
  -30.4417  -13.8282   19.9609 C   0  0  0  0  0  0  0  0  0  0  0  0
  -24.9022  -20.2372   19.1623 C   0  0  0  0  0  0  0  0  0  0  0  0
  -32.0407  -14.7548   21.4124 C   0  0  0  0  0  0  0  0  0  0  0  0
  -32.7070  -15.7146   23.9456 C   0  0  0  0  0  0  0  0  0  0  0  0
  -31.9449  -13.9166   22.5232 C   0  0  0  0  0  0  0  0  0  0  0  0
  -26.4966  -12.4239   19.3594 C   0  0  0  0  0  0  0  0  0  0  0  0
  -24.4951  -12.0159   18.5454 C   0  0  0  0  0  0  0  0  0  0  0  0
  -25.8930  -13.5064   17.1057 C   0  0  0  0  0  0  0  0  0  0  0  0
  -26.9247  -25.2677   19.4219 C   0  0  0  0  0  0  0  0  0  0  0  0
  -29.8634  -24.0029   18.8861 C   0  0  0  0  0  0  0  0  0  0  0  0
  -31.7592  -21.2273   18.2959 C   0  0  0  0  0  0  0  0  0  0  0  0
  -22.3772  -10.1335   23.9717 C   0  0  0  0  0  0  0  0  0  0  0  0
  -26.7436  -30.3172   20.1479 C   0  0  0  0  0  0  0  0  0  0  0  0
  -27.0028  -23.4285   21.1445 C   0  0  0  0  0  0  0  0  0  0  0  0
  -27.8903  -22.4820   18.4872 C   0  0  0  0  0  0  0  0  0  0  0  0
  -27.6007  -29.3633   19.3198 C   0  0  0  0  0  0  0  0  0  0  0  0
  -22.8566   -8.1738   20.8696 C   0  0  0  0  0  0  0  0  0  0  0  0
  -26.7187  -28.3924   18.5412 C   0  0  0  0  0  0  0  0  0  0  0  0
  -23.8411   -9.0306   20.0758 C   0  0  0  0  0  0  0  0  0  0  0  0
  -23.0284   -8.3605   22.3740 C   0  0  0  0  0  0  0  0  0  0  0  0
  -23.9195  -10.6452   22.0171 C   0  0  0  0  0  0  0  0  0  0  0  0
  -25.8816  -27.5256   19.4896 C   0  0  1  0  0  0  0  0  0  0  0  0
  -27.7978  -24.3225   20.1979 C   0  0  1  0  0  0  0  0  0  0  0  0
  -23.7395  -10.5056   20.4980 C   0  0  1  0  0  0  0  0  0  0  0  0
  -24.7225  -13.2040   24.8170 C   0  0  0  0  0  0  0  0  0  0  0  0
  -19.7759  -12.6758   26.8348 C   0  0  0  0  0  0  0  0  0  0  0  0
  -33.8301  -19.8501   17.9608 C   0  0  0  0  0  0  0  0  0  0  0  0
  -29.6470  -25.0332   16.0223 C   0  0  0  0  0  0  0  0  0  0  0  0
  -31.5355  -23.5095   15.4054 C   0  0  0  0  0  0  0  0  0  0  0  0
  -31.8979  -25.3310   17.0708 C   0  0  0  0  0  0  0  0  0  0  0  0
  -32.0383  -20.7296   21.1999 C   0  0  0  0  0  0  0  0  0  0  0  0
  -20.3724  -12.2417   25.5032 C   0  0  0  0  0  0  0  0  0  0  0  0
  -23.5767  -16.9199   18.6265 C   0  0  0  0  0  0  0  0  0  0  0  0
  -21.8512  -11.8882   25.6075 C   0  0  0  0  0  0  0  0  0  0  0  0
  -22.9402  -15.7994   19.4399 C   0  0  0  0  0  0  0  0  0  0  0  0
  -23.6144  -18.2488   19.3718 C   0  0  0  0  0  0  0  0  0  1  0  0
  -30.5322  -23.3066   17.7256 C   0  0  1  0  0  0  0  0  0  0  0  0
  -33.0557  -20.7419   18.9188 C   0  0  2  0  0  0  0  0  0  0  0  0
  -30.8795  -24.2847   16.5680 C   0  0  0  0  0  0  0  0  0  0  0  0
  -25.9241  -11.6247   20.2636 N   0  0  0  0  0  0  0  0  0  0  0  0
  -24.7079  -11.3941   19.7405 N   0  0  0  0  0  0  0  0  0  0  0  0
  -28.5758  -23.5595   19.2198 N   0  0  0  0  0  0  0  0  0  0  0  0
  -22.9896   -9.7736   22.7537 N   0  0  0  0  0  0  0  0  0  0  0  0
  -23.3262  -11.8905   17.8817 N   0  0  0  0  0  0  0  0  0  0  0  0
  -27.1365  -14.1402   16.9779 N   0  0  0  0  0  0  0  0  0  0  0  0
  -23.6976  -15.5473   20.6420 N   0  0  0  0  0  0  0  0  0  0  0  0
  -26.6931  -26.4715   20.0596 N   0  0  0  0  0  0  0  0  0  0  0  0
  -31.6843  -22.6040   18.2801 N   0  0  0  0  0  0  0  0  0  0  0  0
  -22.4215  -11.4968   24.3204 N   0  0  0  0  0  0  0  0  0  0  0  0
  -32.7754  -19.9664   20.1602 N   0  3  0  0  0  0  0  0  0  0  0  0
  -25.0249  -13.6726   16.2156 O   0  0  0  0  0  0  0  0  0  0  0  0
  -26.4944  -24.9304   18.3252 O   0  0  0  0  0  0  0  0  0  0  0  0
  -30.4642  -24.9022   19.4794 O   0  0  0  0  0  0  0  0  0  0  0  0
  -30.9007  -20.4618   17.8630 O   0  0  0  0  0  0  0  0  0  0  0  0
  -21.8739   -9.2910   24.7251 O   0  0  0  0  0  0  0  0  0  0  0  0
  -31.7111  -14.2795   20.1542 O   0  0  0  0  0  0  0  0  0  0  0  0
  -24.2401  -19.2245   18.5394 O   0  0  0  0  0  0  0  0  0  1  0  0
  -33.0284  -16.1752   25.1617 F   0  0  0  0  0  0  0  0  0  0  0  0
  -31.5345  -12.6490   22.3797 F   0  0  0  0  0  0  0  0  0  0  0  0
  1  2  1  0  0  0  0
  1  5  2  0  0  0  0
  2  6  2  0  0  0  0
  3 10  2  0  0  0  0
  3 18  1  0  0  0  0
  4 11  1  0  0  0  0
  4 18  2  0  0  0  0
  5 20  1  0  0  0  0
  6 22  1  0  0  0  0
  7 12  2  0  0  0  0
  7 21  1  0  0  0  0
  8  9  2  0  0  0  0
  8 25  1  0  0  0  0
  9 26  1  0  0  0  0
 10 27  1  0  0  0  0
 11 27  2  0  0  0  0
 12 28  1  0  0  0  0
 13 14  2  0  0  0  0
 13 29  1  0  0  0  0
 14 30  1  0  0  0  0
 15 23  1  0  0  0  0
 15 28  2  0  0  0  0
 16 24  1  0  0  0  0
 16 25  2  0  0  0  0
 17 30  2  0  0  0  0
 17 31  1  0  0  0  0
 18 32  1  0  0  0  0
 19 32  1  0  0  0  0
 19 33  2  0  0  0  0
 19 34  1  0  0  0  0
 20 22  2  0  0  0  0
 20 39  1  0  0  0  0
 21 23  2  0  0  0  0
 21 40  1  0  0  0  0
 22 48  1  0  0  0  0
 23 41  1  0  0  0  0
 24 26  2  0  0  0  0
 24 51  1  0  0  0  0
 25 72  1  0  0  0  0
 26 75  1  0  0  0  0
 27 82  1  0  0  0  0
 28 83  1  0  0  0  0
 29 31  2  0  0  0  0
 29 82  1  0  0  0  0
 30 84  1  0  0  0  0
 31 85  1  0  0  0  0
 32 66  2  0  0  0  0
 33 67  1  0  0  0  0
 33 70  1  0  0  0  0
 34 71  1  0  0  0  0
 34 77  2  0  0  0  0
 35 49  1  0  0  0  0
 35 73  1  0  0  0  0
 35 78  2  0  0  0  0
 36 63  1  0  0  0  0
 36 68  1  0  0  0  0
 36 79  2  0  0  0  0
 37 64  1  0  0  0  0
 37 74  1  0  0  0  0
 37 80  2  0  0  0  0
 38 69  1  0  0  0  0
 38 75  1  0  0  0  0
 38 81  2  0  0  0  0
 39 42  1  0  0  0  0
 40 49  1  0  0  0  0
 41 68  1  0  0  0  0
 42 44  1  0  0  0  0
 43 45  1  0  0  0  0
 43 46  1  0  0  0  0
 44 48  1  0  0  0  0
 45 50  1  0  0  0  0
 46 69  1  0  0  0  0
 47 50  1  0  0  0  0
 47 69  1  0  0  0  0
 48 73  1  0  0  0  0
 49 68  1  0  0  0  0
 50 67  1  0  0  0  0
 52 58  1  0  0  0  0
 53 64  1  0  0  0  0
 54 65  1  0  0  0  0
 55 65  1  0  0  0  0
 56 65  1  0  0  0  0
 57 76  1  0  0  0  0
 58 60  1  0  0  0  0
 59 61  1  0  0  0  0
 59 62  1  0  0  0  0
 60 75  1  0  0  0  0
 61 72  1  0  0  0  0
 62 83  1  0  0  0  0
 63 65  1  0  0  0  0
 63 74  1  0  0  0  0
 64 76  1  0  0  0  0
 66 67  1  0  0  0  0
M  CHG  1  76   1
M  ISO  4  38 100  62 101  75 100  83 101
M  END
> <Batch ID>
0021

> <Smiles>
CCC[100N:0](c1ccc(NCC[101CH2:1][101O:1]c2ccc3c(c2)CN(C(=O)C(NC(=O)C(C)NC)C(C)(C)C)C(C(=O)NC2CCCc4ccccc42)C3)cc1C)[100C:0](=O)N1CCCC(n2nc(-c3ccc(Oc4ccc(F)cc4F)cc3)c(C(N)=O)c2N)C1

> <Shape>
0.205

> <Color>
0.098

> <Negative vol penalty>
0.000

$$$$

  -OEChem-04042321113D

 85 93  0     1  0  0  0  0  0999 V2000
  -30.1492  -34.4926   19.8842 C   0  0  0  0  0  0  0  0  0  0  0  0
  -29.9531  -33.1911   20.3348 C   0  0  0  0  0  0  0  0  0  0  0  0
  -22.9300  -10.1580   19.9723 C   0  0  0  0  0  0  0  0  0  0  0  0
  -24.3345   -9.5990   21.8570 C   0  0  0  0  0  0  0  0  0  0  0  0
  -29.1287  -35.4342   20.0111 C   0  0  0  0  0  0  0  0  0  0  0  0
  -28.7367  -32.8307   20.9136 C   0  0  0  0  0  0  0  0  0  0  0  0
  -27.0152  -28.3844   19.2073 C   0  0  0  0  0  0  0  0  0  0  0  0
  -28.8117  -19.0429   21.7886 C   0  0  0  0  0  0  0  0  0  0  0  0
  -28.8388  -20.4123   21.5244 C   0  0  0  0  0  0  0  0  0  0  0  0
  -22.3110   -8.9114   20.0639 C   0  0  0  0  0  0  0  0  0  0  0  0
  -23.7155   -8.3524   21.9486 C   0  0  0  0  0  0  0  0  0  0  0  0
  -27.5983  -27.2319   19.7323 C   0  0  0  0  0  0  0  0  0  0  0  0
  -20.8229   -7.0925   23.1593 C   0  0  0  0  0  0  0  0  0  0  0  0
  -20.4472   -6.6487   24.4271 C   0  0  0  0  0  0  0  0  0  0  0  0
  -25.7198  -26.9677   21.2225 C   0  0  0  0  0  0  0  0  0  0  0  0
  -29.1974  -19.9529   19.1798 C   0  0  0  0  0  0  0  0  0  0  0  0
  -21.8802   -4.7197   24.1766 C   0  0  0  0  0  0  0  0  0  0  0  0
  -23.9418  -10.5018   20.8689 C   0  0  0  0  0  0  0  0  0  0  0  0
  -24.1945  -12.9804   21.4168 C   0  0  0  0  0  0  0  0  0  0  0  0
  -27.8958  -35.0826   20.5829 C   0  0  0  0  0  0  0  0  0  0  0  0
  -25.7831  -28.8440   19.6943 C   0  0  0  0  0  0  0  0  0  0  0  0
  -27.6993  -33.7688   21.0495 C   0  0  0  0  0  0  0  0  0  0  0  0
  -25.1220  -28.1248   20.7002 C   0  0  0  0  0  0  0  0  0  0  0  0
  -28.9776  -18.1286   20.7483 C   0  0  0  0  0  0  0  0  0  0  0  0
  -29.1704  -18.5836   19.4439 C   0  0  0  0  0  0  0  0  0  0  0  0
  -29.0316  -20.8673   20.2201 C   0  0  0  0  0  0  0  0  0  0  0  0
  -22.7037   -8.0086   21.0520 C   0  0  0  0  0  0  0  0  0  0  0  0
  -26.9520  -26.5250   20.7421 C   0  0  0  0  0  0  0  0  0  0  0  0
  -21.7272   -6.3498   22.4000 C   0  0  0  0  0  0  0  0  0  0  0  0
  -20.9758   -5.4624   24.9358 C   0  0  0  0  0  0  0  0  0  0  0  0
  -22.2558   -5.1635   22.9087 C   0  0  0  0  0  0  0  0  0  0  0  0
  -24.5820  -11.7892   20.7745 C   0  0  0  0  0  0  0  0  0  0  0  0
  -25.1186  -13.9091   21.0046 C   0  0  0  0  0  0  0  0  0  0  0  0
  -23.0973  -13.2256   22.3066 C   0  0  0  0  0  0  0  0  0  0  0  0
  -24.7937  -31.4885   21.1542 C   0  0  0  0  0  0  0  0  0  0  0  0
  -21.8696  -30.1359   20.7773 C   0  0  0  0  0  0  0  0  0  0  0  0
  -28.3003  -23.1581   20.7597 C   0  0  0  0  0  0  0  0  0  0  0  0
  -20.0241  -27.2978   20.3453 C   0  0  0  0  0  0  0  0  0  0  0  0
  -30.6448  -14.9883   20.2213 C   0  0  0  0  0  0  0  0  0  0  0  0
  -26.8394  -36.1472   20.7418 C   0  0  0  0  0  0  0  0  0  0  0  0
  -25.1547  -30.0740   19.0988 C   0  0  0  0  0  0  0  0  0  0  0  0
  -23.7880  -28.5650   21.2435 C   0  0  0  0  0  0  0  0  0  0  0  0
  -25.4480  -35.5870   21.0256 C   0  0  0  0  0  0  0  0  0  0  0  0
  -28.6388  -13.6975   17.3909 C   0  0  0  0  0  0  0  0  0  0  0  0
  -25.5151  -34.5139   22.1076 C   0  0  0  0  0  0  0  0  0  0  0  0
  -27.4080  -13.1224   18.0898 C   0  0  0  0  0  0  0  0  0  0  0  0
  -29.8707  -13.6606   18.2901 C   0  0  0  0  0  0  0  0  0  0  0  0
  -28.4435  -13.7474   20.3074 C   0  0  0  0  0  0  0  0  0  0  0  0
  -26.3851  -33.3330   21.6603 C   0  0  1  0  0  0  0  0  0  0  0  0
  -24.1425  -30.7372   20.0277 C   0  0  1  0  0  0  0  0  0  0  0  0
  -27.1741  -13.8126   19.4449 C   0  0  2  0  0  0  0  0  0  0  0  0
  -29.3481  -17.6231   18.3141 C   0  0  0  0  0  0  0  0  0  0  0  0
  -17.6547  -26.5057   20.1092 C   0  0  0  0  0  0  0  0  0  0  0  0
  -21.4483  -30.5099   23.7760 C   0  0  0  0  0  0  0  0  0  0  0  0
  -19.5465  -28.8872   23.6407 C   0  0  0  0  0  0  0  0  0  0  0  0
  -19.4478  -31.0308   22.3686 C   0  0  0  0  0  0  0  0  0  0  0  0
  -29.8728  -22.7844   18.8248 C   0  0  0  0  0  0  0  0  0  0  0  0
  -31.3188  -16.8363   21.7080 C   0  0  0  0  0  0  0  0  0  0  0  0
  -20.5396  -26.1936   17.6483 C   0  0  0  0  0  0  0  0  0  0  0  0
  -28.9457  -16.6674   21.0557 C   0  0  0  0  0  0  0  0  0  0  0  0
  -28.3464  -24.6321   20.3838 C   0  0  0  0  0  0  0  0  0  1  0  0
  -21.0109  -29.2008   21.5941 C   0  0  1  0  0  0  0  0  0  0  0  0
  -18.9062  -26.9612   19.3751 C   0  0  2  0  0  0  0  0  0  0  0  0
  -20.3894  -29.8997   22.8362 C   0  0  0  0  0  0  0  0  0  0  0  0
  -25.6676  -11.9441   20.0120 N   0  0  0  0  0  0  0  0  0  0  0  0
  -25.9701  -13.2437   20.1725 N   0  0  0  0  0  0  0  0  0  0  0  0
  -23.2173  -29.7772   20.6333 N   0  0  0  0  0  0  0  0  0  0  0  0
  -29.6077  -14.2847   19.5872 N   0  0  0  0  0  0  0  0  0  0  0  0
  -25.2778  -15.2218   21.2762 N   0  0  0  0  0  0  0  0  0  0  0  0
  -22.2445  -12.1600   22.6252 N   0  0  0  0  0  0  0  0  0  0  0  0
  -25.6549  -32.4870   20.7408 N   0  0  0  0  0  0  0  0  0  0  0  0
  -20.0303  -28.6373   20.6726 N   0  0  0  0  0  0  0  0  0  0  0  0
  -29.0577  -22.2897   19.9449 N   0  0  0  0  0  0  0  0  0  0  0  0
  -30.2786  -16.0686   21.0383 N   0  0  0  0  0  0  0  0  0  0  0  0
  -19.3323  -25.8716   18.4518 N   0  3  0  0  0  0  0  0  0  0  0  0
  -22.8700  -14.3599   22.7915 O   0  0  0  0  0  0  0  0  0  0  0  0
  -24.5330  -31.1858   22.3127 O   0  0  0  0  0  0  0  0  0  0  0  0
  -21.3616  -31.1436   20.2792 O   0  0  0  0  0  0  0  0  0  0  0  0
  -27.5976  -22.8101   21.7120 O   0  0  0  0  0  0  0  0  0  0  0  0
  -20.8108  -26.4561   20.7732 O   0  0  0  0  0  0  0  0  0  0  0  0
  -31.8311  -14.6750   20.0584 O   0  0  0  0  0  0  0  0  0  0  0  0
  -22.0998   -6.7921   21.1417 O   0  0  0  0  0  0  0  0  0  0  0  0
  -27.5192  -25.4002   21.2568 O   0  0  0  0  0  0  0  0  0  1  0  0
  -20.6161   -5.0372   26.1540 F   0  0  0  0  0  0  0  0  0  0  0  0
  -23.1259   -4.4464   22.1844 F   0  0  0  0  0  0  0  0  0  0  0  0
  1  2  1  0  0  0  0
  1  5  2  0  0  0  0
  2  6  2  0  0  0  0
  3 10  2  0  0  0  0
  3 18  1  0  0  0  0
  4 11  1  0  0  0  0
  4 18  2  0  0  0  0
  5 20  1  0  0  0  0
  6 22  1  0  0  0  0
  7 12  2  0  0  0  0
  7 21  1  0  0  0  0
  8  9  2  0  0  0  0
  8 24  1  0  0  0  0
  9 26  1  0  0  0  0
 10 27  1  0  0  0  0
 11 27  2  0  0  0  0
 12 28  1  0  0  0  0
 13 14  2  0  0  0  0
 13 29  1  0  0  0  0
 14 30  1  0  0  0  0
 15 23  1  0  0  0  0
 15 28  2  0  0  0  0
 16 25  1  0  0  0  0
 16 26  2  0  0  0  0
 17 30  2  0  0  0  0
 17 31  1  0  0  0  0
 18 32  1  0  0  0  0
 19 32  1  0  0  0  0
 19 33  2  0  0  0  0
 19 34  1  0  0  0  0
 20 22  2  0  0  0  0
 20 40  1  0  0  0  0
 21 23  2  0  0  0  0
 21 41  1  0  0  0  0
 22 49  1  0  0  0  0
 23 42  1  0  0  0  0
 24 25  2  0  0  0  0
 24 60  1  0  0  0  0
 25 52  1  0  0  0  0
 26 73  1  0  0  0  0
 27 82  1  0  0  0  0
 28 83  1  0  0  0  0
 29 31  2  0  0  0  0
 29 82  1  0  0  0  0
 30 84  1  0  0  0  0
 31 85  1  0  0  0  0
 32 65  2  0  0  0  0
 33 66  1  0  0  0  0
 33 69  1  0  0  0  0
 34 70  1  0  0  0  0
 34 76  2  0  0  0  0
 35 50  1  0  0  0  0
 35 71  1  0  0  0  0
 35 77  2  0  0  0  0
 36 62  1  0  0  0  0
 36 67  1  0  0  0  0
 36 78  2  0  0  0  0
 37 61  1  0  0  0  0
 37 73  1  0  0  0  0
 37 79  2  0  0  0  0
 38 63  1  0  0  0  0
 38 72  1  0  0  0  0
 38 80  2  0  0  0  0
 39 68  1  0  0  0  0
 39 74  1  0  0  0  0
 39 81  2  0  0  0  0
 40 43  1  0  0  0  0
 41 50  1  0  0  0  0
 42 67  1  0  0  0  0
 43 45  1  0  0  0  0
 44 46  1  0  0  0  0
 44 47  1  0  0  0  0
 45 49  1  0  0  0  0
 46 51  1  0  0  0  0
 47 68  1  0  0  0  0
 48 51  1  0  0  0  0
 48 68  1  0  0  0  0
 49 71  1  0  0  0  0
 50 67  1  0  0  0  0
 51 66  1  0  0  0  0
 53 63  1  0  0  0  0
 54 64  1  0  0  0  0
 55 64  1  0  0  0  0
 56 64  1  0  0  0  0
 57 73  1  0  0  0  0
 58 74  1  0  0  0  0
 59 75  1  0  0  0  0
 60 74  1  0  0  0  0
 61 83  1  0  0  0  0
 62 64  1  0  0  0  0
 62 72  1  0  0  0  0
 63 75  1  0  0  0  0
 65 66  1  0  0  0  0
M  CHG  1  75   1
M  ISO  4  39 100  61 101  74 100  83 101
M  END
> <Batch ID>
0021

> <Smiles>
CNC(C)C(=O)NC(C(=O)N1Cc2cc([101O:1][101CH2:1]C(=O)N(C)c3ccc(C[100N:0](C)[100C:0](=O)N4CCCC(n5nc(-c6ccc(Oc7ccc(F)cc7F)cc6)c(C(N)=O)c5N)C4)c(C)c3)ccc2CC1C(=O)NC1CCCc2ccccc21)C(C)(C)C

> <Shape>
0.368

> <Color>
0.158

> <Negative vol penalty>
0.000

$$$$

  -OEChem-04042321113D

 86 94  0     1  0  0  0  0  0999 V2000
  -30.1437  -34.4979   19.9185 C   0  0  0  0  0  0  0  0  0  0  0  0
  -29.9470  -33.1945   20.3635 C   0  0  0  0  0  0  0  0  0  0  0  0
  -22.9336  -10.1565   19.9624 C   0  0  0  0  0  0  0  0  0  0  0  0
  -24.3295   -9.6075   21.8563 C   0  0  0  0  0  0  0  0  0  0  0  0
  -29.1221  -35.4382   20.0451 C   0  0  0  0  0  0  0  0  0  0  0  0
  -28.7288  -32.8310   20.9365 C   0  0  0  0  0  0  0  0  0  0  0  0
  -27.0169  -28.3899   19.2072 C   0  0  0  0  0  0  0  0  0  0  0  0
  -22.3138   -8.9106   20.0579 C   0  0  0  0  0  0  0  0  0  0  0  0
  -23.7097   -8.3615   21.9519 C   0  0  0  0  0  0  0  0  0  0  0  0
  -27.5989  -27.2359   19.7300 C   0  0  0  0  0  0  0  0  0  0  0  0
  -20.8113   -7.1091   23.1565 C   0  0  0  0  0  0  0  0  0  0  0  0
  -20.4298   -6.6724   24.4251 C   0  0  0  0  0  0  0  0  0  0  0  0
  -25.7152  -26.9647   21.2124 C   0  0  0  0  0  0  0  0  0  0  0  0
  -28.8379  -20.4118   21.5015 C   0  0  0  0  0  0  0  0  0  0  0  0
  -29.2056  -19.9592   19.1570 C   0  0  0  0  0  0  0  0  0  0  0  0
  -21.8632   -4.7416   24.1915 C   0  0  0  0  0  0  0  0  0  0  0  0
  -23.9415  -10.5050   20.8615 C   0  0  0  0  0  0  0  0  0  0  0  0
  -24.1925  -12.9865   21.3970 C   0  0  0  0  0  0  0  0  0  0  0  0
  -27.8874  -35.0835   20.6112 C   0  0  0  0  0  0  0  0  0  0  0  0
  -25.7827  -28.8468   19.6915 C   0  0  0  0  0  0  0  0  0  0  0  0
  -27.6902  -33.7678   21.0721 C   0  0  0  0  0  0  0  0  0  0  0  0
  -25.1184  -28.1233   20.6922 C   0  0  0  0  0  0  0  0  0  0  0  0
  -28.9815  -18.1303   20.7197 C   0  0  0  0  0  0  0  0  0  0  0  0
  -29.0352  -20.8705   20.1991 C   0  0  0  0  0  0  0  0  0  0  0  0
  -22.7018   -8.0131   21.0527 C   0  0  0  0  0  0  0  0  0  0  0  0
  -26.9495  -26.5247   20.7348 C   0  0  0  0  0  0  0  0  0  0  0  0
  -21.7187   -6.3621   22.4054 C   0  0  0  0  0  0  0  0  0  0  0  0
  -20.9557   -5.4887   24.9426 C   0  0  0  0  0  0  0  0  0  0  0  0
  -28.8111  -19.0417   21.7618 C   0  0  0  0  0  0  0  0  0  0  0  0
  -22.2447   -5.1784   22.9229 C   0  0  0  0  0  0  0  0  0  0  0  0
  -29.1787  -18.5890   19.4173 C   0  0  0  0  0  0  0  0  0  0  0  0
  -24.5825  -11.7916   20.7630 C   0  0  0  0  0  0  0  0  0  0  0  0
  -25.1188  -13.9126   20.9839 C   0  0  0  0  0  0  0  0  0  0  0  0
  -23.0915  -13.2368   22.2806 C   0  0  0  0  0  0  0  0  0  0  0  0
  -24.7860  -31.4851   21.1576 C   0  0  0  0  0  0  0  0  0  0  0  0
  -21.8643  -30.1317   20.7650 C   0  0  0  0  0  0  0  0  0  0  0  0
  -28.3003  -23.1588   20.7446 C   0  0  0  0  0  0  0  0  0  0  0  0
  -20.0226  -27.2939   20.3156 C   0  0  0  0  0  0  0  0  0  0  0  0
  -30.6488  -14.9858   20.2194 C   0  0  0  0  0  0  0  0  0  0  0  0
  -26.8296  -36.1467   20.7701 C   0  0  0  0  0  0  0  0  0  0  0  0
  -25.1555  -30.0785   19.0983 C   0  0  0  0  0  0  0  0  0  0  0  0
  -23.7822  -28.5605   21.2323 C   0  0  0  0  0  0  0  0  0  0  0  0
  -25.4376  -35.5844   21.0468 C   0  0  0  0  0  0  0  0  0  0  0  0
  -28.6550  -13.6801   17.3872 C   0  0  0  0  0  0  0  0  0  0  0  0
  -25.5016  -34.5073   22.1250 C   0  0  0  0  0  0  0  0  0  0  0  0
  -27.4210  -13.1093   18.0838 C   0  0  0  0  0  0  0  0  0  0  0  0
  -29.8830  -13.6478   18.2921 C   0  0  0  0  0  0  0  0  0  0  0  0
  -28.4468  -13.7461   20.3025 C   0  0  0  0  0  0  0  0  0  0  0  0
  -26.3741  -33.3288   21.6765 C   0  0  1  0  0  0  0  0  0  0  0  0
  -24.1394  -30.7375   20.0259 C   0  0  1  0  0  0  0  0  0  0  0  0
  -27.1813  -13.8069   19.4340 C   0  0  2  0  0  0  0  0  0  0  0  0
  -17.6546  -26.5009   20.0680 C   0  0  0  0  0  0  0  0  0  0  0  0
  -21.4318  -30.4941   23.7636 C   0  0  0  0  0  0  0  0  0  0  0  0
  -19.5318  -28.8705   23.6152 C   0  0  0  0  0  0  0  0  0  0  0  0
  -19.4360  -31.0188   22.3508 C   0  0  0  0  0  0  0  0  0  0  0  0
  -29.8801  -22.7935   18.8141 C   0  0  0  0  0  0  0  0  0  0  0  0
  -31.3168  -16.8417   21.6990 C   0  0  0  0  0  0  0  0  0  0  0  0
  -20.5486  -26.2002   17.6164 C   0  0  0  0  0  0  0  0  0  0  0  0
  -28.9466  -16.6699   21.0371 C   0  0  0  0  0  0  0  0  0  0  0  0
  -28.3466  -24.6342   20.3745 C   0  0  0  0  0  0  0  0  0  1  0  0
  -21.0033  -29.1929   21.5752 C   0  0  1  0  0  0  0  0  0  0  0  0
  -18.9084  -26.9601   19.3401 C   0  0  2  0  0  0  0  0  0  0  0  0
  -20.3768  -29.8867   22.8176 C   0  0  0  0  0  0  0  0  0  0  0  0
  -25.6716  -11.9421   20.0045 N   0  0  0  0  0  0  0  0  0  0  0  0
  -25.9738  -13.2424   20.1593 N   0  0  0  0  0  0  0  0  0  0  0  0
  -23.2128  -29.7745   20.6245 N   0  0  0  0  0  0  0  0  0  0  0  0
  -29.6143  -14.2790   19.5846 N   0  0  0  0  0  0  0  0  0  0  0  0
  -25.2772  -15.2267   21.2491 N   0  0  0  0  0  0  0  0  0  0  0  0
  -22.2369  -12.1732   22.6012 N   0  0  0  0  0  0  0  0  0  0  0  0
  -25.6479  -32.4857   20.7511 N   0  0  0  0  0  0  0  0  0  0  0  0
  -20.0265  -28.6321   20.6479 N   0  0  0  0  0  0  0  0  0  0  0  0
  -29.0613  -22.2939   19.9294 N   0  0  0  0  0  0  0  0  0  0  0  0
  -30.2793  -16.0707   21.0289 N   0  0  0  0  0  0  0  0  0  0  0  0
  -19.3386  -25.8743   18.4143 N   0  3  0  0  0  0  0  0  0  0  0  0
  -22.8623  -14.3738   22.7583 O   0  0  0  0  0  0  0  0  0  0  0  0
  -24.5213  -31.1778   22.3140 O   0  0  0  0  0  0  0  0  0  0  0  0
  -21.3573  -31.1409   20.2689 O   0  0  0  0  0  0  0  0  0  0  0  0
  -27.5944  -22.8067   21.6930 O   0  0  0  0  0  0  0  0  0  0  0  0
  -20.8083  -26.4511   20.7432 O   0  0  0  0  0  0  0  0  0  0  0  0
  -31.8357  -14.6713   20.0636 O   0  0  0  0  0  0  0  0  0  0  0  0
  -22.0971   -6.7974   21.1464 O   0  0  0  0  0  0  0  0  0  0  0  0
  -27.5157  -25.3984   21.2473 O   0  0  0  0  0  0  0  0  0  1  0  0
  -20.5905   -5.0702   26.1615 F   0  0  0  0  0  0  0  0  0  0  0  0
  -28.6219  -18.6118   23.0173 F   0  0  0  0  0  0  0  0  0  0  0  0
  -23.1178   -4.4570   22.2065 F   0  0  0  0  0  0  0  0  0  0  0  0
  -29.3927  -17.4909   18.1026 Cl  0  0  0  0  0  0  0  0  0  0  0  0
  1  2  1  0  0  0  0
  1  5  2  0  0  0  0
  2  6  2  0  0  0  0
  3  8  2  0  0  0  0
  3 17  1  0  0  0  0
  4  9  1  0  0  0  0
  4 17  2  0  0  0  0
  5 19  1  0  0  0  0
  6 21  1  0  0  0  0
  7 10  2  0  0  0  0
  7 20  1  0  0  0  0
  8 25  1  0  0  0  0
  9 25  2  0  0  0  0
 10 26  1  0  0  0  0
 11 12  2  0  0  0  0
 11 27  1  0  0  0  0
 12 28  1  0  0  0  0
 13 22  1  0  0  0  0
 13 26  2  0  0  0  0
 14 24  1  0  0  0  0
 14 29  2  0  0  0  0
 15 24  2  0  0  0  0
 15 31  1  0  0  0  0
 16 28  2  0  0  0  0
 16 30  1  0  0  0  0
 17 32  1  0  0  0  0
 18 32  1  0  0  0  0
 18 33  2  0  0  0  0
 18 34  1  0  0  0  0
 19 21  2  0  0  0  0
 19 40  1  0  0  0  0
 20 22  2  0  0  0  0
 20 41  1  0  0  0  0
 21 49  1  0  0  0  0
 22 42  1  0  0  0  0
 23 29  1  0  0  0  0
 23 31  2  0  0  0  0
 23 59  1  0  0  0  0
 24 72  1  0  0  0  0
 25 81  1  0  0  0  0
 26 82  1  0  0  0  0
 27 30  2  0  0  0  0
 27 81  1  0  0  0  0
 28 83  1  0  0  0  0
 29 84  1  0  0  0  0
 30 85  1  0  0  0  0
 31 86  1  0  0  0  0
 32 64  2  0  0  0  0
 33 65  1  0  0  0  0
 33 68  1  0  0  0  0
 34 69  1  0  0  0  0
 34 75  2  0  0  0  0
 35 50  1  0  0  0  0
 35 70  1  0  0  0  0
 35 76  2  0  0  0  0
 36 61  1  0  0  0  0
 36 66  1  0  0  0  0
 36 77  2  0  0  0  0
 37 60  1  0  0  0  0
 37 72  1  0  0  0  0
 37 78  2  0  0  0  0
 38 62  1  0  0  0  0
 38 71  1  0  0  0  0
 38 79  2  0  0  0  0
 39 67  1  0  0  0  0
 39 73  1  0  0  0  0
 39 80  2  0  0  0  0
 40 43  1  0  0  0  0
 41 50  1  0  0  0  0
 42 66  1  0  0  0  0
 43 45  1  0  0  0  0
 44 46  1  0  0  0  0
 44 47  1  0  0  0  0
 45 49  1  0  0  0  0
 46 51  1  0  0  0  0
 47 67  1  0  0  0  0
 48 51  1  0  0  0  0
 48 67  1  0  0  0  0
 49 70  1  0  0  0  0
 50 66  1  0  0  0  0
 51 65  1  0  0  0  0
 52 62  1  0  0  0  0
 53 63  1  0  0  0  0
 54 63  1  0  0  0  0
 55 63  1  0  0  0  0
 56 72  1  0  0  0  0
 57 73  1  0  0  0  0
 58 74  1  0  0  0  0
 59 73  1  0  0  0  0
 60 82  1  0  0  0  0
 61 63  1  0  0  0  0
 61 71  1  0  0  0  0
 62 74  1  0  0  0  0
 64 65  1  0  0  0  0
M  CHG  1  74   1
M  ISO  4  39 100  60 101  73 100  82 101
M  END
> <Batch ID>
0021

> <Smiles>
CNC(C)C(=O)NC(C(=O)N1Cc2cc([101O:1][101CH2:1]C(=O)N(C)c3cc(F)c(C[100N:0](C)[100C:0](=O)N4CCCC(n5nc(-c6ccc(Oc7ccc(F)cc7F)cc6)c(C(N)=O)c5N)C4)c(Cl)c3)ccc2CC1C(=O)NC1CCCc2ccccc21)C(C)(C)C

> <Shape>
0.367

> <Color>
0.159

> <Negative vol penalty>
0.000

$$$$

  -OEChem-04042321113D

 86 95  0     1  0  0  0  0  0999 V2000
  -18.5950  -26.6260   23.5212 C   0  0  0  0  0  0  0  0  0  0  0  0
  -19.5766  -26.4130   22.5587 C   0  0  0  0  0  0  0  0  0  0  0  0
  -26.8758  -13.2668   19.8926 C   0  0  0  0  0  0  0  0  0  0  0  0
  -25.8184  -13.1731   22.0629 C   0  0  0  0  0  0  0  0  0  0  0  0
  -18.1566  -27.9213   23.7934 C   0  0  0  0  0  0  0  0  0  0  0  0
  -20.1197  -27.4952   21.8670 C   0  0  0  0  0  0  0  0  0  0  0  0
  -25.1642  -27.2356   21.5050 C   0  0  0  0  0  0  0  0  0  0  0  0
  -29.1059  -22.7892   18.5660 C   0  0  0  0  0  0  0  0  0  0  0  0
  -28.8512  -21.7186   19.4230 C   0  0  0  0  0  0  0  0  0  0  0  0
  -25.8442  -12.4961   19.3566 C   0  0  0  0  0  0  0  0  0  0  0  0
  -24.7867  -12.4024   21.5269 C   0  0  0  0  0  0  0  0  0  0  0  0
  -25.6901  -26.3691   20.5478 C   0  0  0  0  0  0  0  0  0  0  0  0
  -24.2858   -9.1769   20.6459 C   0  0  0  0  0  0  0  0  0  0  0  0
  -23.8719   -8.0568   21.3667 C   0  0  0  0  0  0  0  0  0  0  0  0
  -26.0495  -28.2364   19.0636 C   0  0  0  0  0  0  0  0  0  0  0  0
  -28.8712  -23.2255   21.3114 C   0  0  0  0  0  0  0  0  0  0  0  0
  -21.6472   -8.9846   21.5310 C   0  0  0  0  0  0  0  0  0  0  0  0
  -26.8630  -13.6053   21.2457 C   0  0  0  0  0  0  0  0  0  0  0  0
  -29.2997  -14.0830   21.8304 C   0  0  0  0  0  0  0  0  0  0  0  0
  -18.7014  -29.0207   23.1115 C   0  0  0  0  0  0  0  0  0  0  0  0
  -25.0667  -28.6100   21.2440 C   0  0  0  0  0  0  0  0  0  0  0  0
  -19.6872  -28.8062   22.1293 C   0  0  0  0  0  0  0  0  0  0  0  0
  -25.5244  -29.1186   20.0201 C   0  0  0  0  0  0  0  0  0  0  0  0
  -29.2435  -24.0779   19.0816 C   0  0  0  0  0  0  0  0  0  0  0  0
  -28.7338  -21.9368   20.7957 C   0  0  0  0  0  0  0  0  0  0  0  0
  -24.7996  -12.0639   20.1738 C   0  0  0  0  0  0  0  0  0  0  0  0
  -26.1302  -26.8690   19.3257 C   0  0  0  0  0  0  0  0  0  0  0  0
  -23.3804  -10.2009   20.3676 C   0  0  0  0  0  0  0  0  0  0  0  0
  -22.5526   -7.9607   21.8093 C   0  0  0  0  0  0  0  0  0  0  0  0
  -29.1260  -24.2961   20.4543 C   0  0  0  0  0  0  0  0  0  0  0  0
  -22.0611  -10.1048   20.8101 C   0  0  0  0  0  0  0  0  0  0  0  0
  -27.9287  -14.4010   21.8000 C   0  0  0  0  0  0  0  0  0  0  0  0
  -29.8869  -15.1544   22.4578 C   0  0  0  0  0  0  0  0  0  0  0  0
  -29.9815  -12.9228   21.3356 C   0  0  0  0  0  0  0  0  0  0  0  0
  -22.6714  -30.6886   21.0320 C   0  0  0  0  0  0  0  0  0  0  0  0
  -25.0807  -32.8440   20.7640 C   0  0  0  0  0  0  0  0  0  0  0  0
  -28.2575  -33.0448   19.0654 C   0  0  0  0  0  0  0  0  0  0  0  0
  -28.3297  -20.8926   23.0524 C   0  0  0  0  0  0  0  0  0  0  0  0
  -18.1619  -30.3979   23.4064 C   0  0  0  0  0  0  0  0  0  0  0  0
  -24.5217  -29.5350   22.2974 C   0  0  0  0  0  0  0  0  0  0  0  0
  -25.4604  -30.5887   19.6987 C   0  0  0  0  0  0  0  0  0  0  0  0
  -19.0558  -31.5247   22.8949 C   0  0  0  0  0  0  0  0  0  0  0  0
  -31.8309  -25.3834   16.1404 C   0  0  0  0  0  0  0  0  0  0  0  0
  -30.5332  -24.9062   15.4866 C   0  0  0  0  0  0  0  0  0  0  0  0
  -31.8843  -25.2635   17.6626 C   0  0  0  0  0  0  0  0  0  0  0  0
  -28.9625  -18.5746   25.6799 C   0  0  0  0  0  0  0  0  0  0  0  0
  -19.4956  -31.2479   21.4607 C   0  0  0  0  0  0  0  0  0  0  0  0
  -28.9000  -17.2127   24.9847 C   0  0  0  0  0  0  0  0  0  0  0  0
  -29.3356  -25.8039   15.8062 C   0  0  0  0  0  0  0  0  0  0  0  0
  -30.7206  -25.9373   18.3898 C   0  0  0  0  0  0  0  0  0  0  0  0
  -27.9370  -19.5513   25.1071 C   0  0  0  0  0  0  0  0  0  0  0  0
  -27.9219  -18.3550   22.9536 C   0  0  0  0  0  0  0  0  0  0  0  0
  -20.3183  -29.9566   21.3754 C   0  0  1  0  0  0  0  0  0  0  0  0
  -23.9948  -30.8475   21.7254 C   0  0  1  0  0  0  0  0  0  0  0  0
  -28.9805  -17.3579   23.4524 C   0  0  2  0  0  0  0  0  0  0  0  0
  -28.5931  -25.4367   17.1021 C   0  0  2  0  0  0  0  0  0  0  0  0
  -30.3302  -34.3420   19.6298 C   0  0  0  0  0  0  0  0  0  0  0  0
  -23.9179  -34.9569   18.8949 C   0  0  0  0  0  0  0  0  0  0  0  0
  -26.2384  -35.4012   18.0667 C   0  0  0  0  0  0  0  0  0  0  0  0
  -25.6728  -35.8032   20.4628 C   0  0  0  0  0  0  0  0  0  0  0  0
  -29.9340  -30.6062   19.0272 C   0  0  0  0  0  0  0  0  0  0  0  0
  -27.6312  -26.5572   17.5076 C   0  0  0  0  0  0  0  0  0  1  0  0
  -25.8695  -33.4287   19.6172 C   0  0  1  0  0  0  0  0  0  0  0  0
  -29.6340  -32.9919   19.7032 C   0  0  2  0  0  0  0  0  0  0  0  0
  -25.4135  -34.8713   19.2590 C   0  0  0  0  0  0  0  0  0  0  0  0
  -27.6607  -15.5820   22.3635 N   0  0  0  0  0  0  0  0  0  0  0  0
  -28.8714  -16.0154   22.7539 N   0  0  0  0  0  0  0  0  0  0  0  0
  -29.4999  -25.1470   18.2216 N   0  0  3  0  0  0  0  0  0  0  0  0
  -24.9136  -31.4519   20.7586 N   0  0  0  0  0  0  0  0  0  0  0  0
  -28.0757  -19.6408   23.6520 N   0  0  0  0  0  0  0  0  0  0  0  0
  -31.1677  -15.4346   22.7797 N   0  0  0  0  0  0  0  0  0  0  0  0
  -29.2263  -11.9168   20.7177 N   0  0  0  0  0  0  0  0  0  0  0  0
  -28.4748  -20.8491   21.6662 N   0  0  0  0  0  0  0  0  0  0  0  0
  -21.6694  -30.1865   21.8403 N   0  0  0  0  0  0  0  0  0  0  0  0
  -27.2753  -33.3222   19.9925 N   0  0  0  0  0  0  0  0  0  0  0  0
  -30.4872  -31.9849   19.0113 N   0  3  0  0  0  0  0  0  0  0  0  0
  -31.2217  -12.7750   21.4529 O   0  0  0  0  0  0  0  0  0  0  0  0
  -22.5666  -31.0000   19.8514 O   0  0  0  0  0  0  0  0  0  0  0  0
  -24.6355  -33.5940   21.6363 O   0  0  0  0  0  0  0  0  0  0  0  0
  -28.0725  -32.8623   17.8641 O   0  0  0  0  0  0  0  0  0  0  0  0
  -28.4393  -21.9227   23.7224 O   0  0  0  0  0  0  0  0  0  0  0  0
  -23.7927  -11.3120   19.6511 O   0  0  0  0  0  0  0  0  0  0  0  0
  -26.6434  -26.0253   18.3894 O   0  0  0  0  0  0  0  0  0  1  0  0
  -22.1549   -6.8843   22.5002 F   0  0  0  0  0  0  0  0  0  0  0  0
  -29.2579  -25.5306   20.9603 F   0  0  0  0  0  0  0  0  0  0  0  0
  -21.1865  -11.0848   20.5448 F   0  0  0  0  0  0  0  0  0  0  0  0
  1  2  1  0  0  0  0
  1  5  2  0  0  0  0
  2  6  2  0  0  0  0
  3 10  2  0  0  0  0
  3 18  1  0  0  0  0
  4 11  1  0  0  0  0
  4 18  2  0  0  0  0
  5 20  1  0  0  0  0
  6 22  1  0  0  0  0
  7 12  2  0  0  0  0
  7 21  1  0  0  0  0
  8  9  2  0  0  0  0
  8 24  1  0  0  0  0
  9 25  1  0  0  0  0
 10 26  1  0  0  0  0
 11 26  2  0  0  0  0
 12 27  1  0  0  0  0
 13 14  2  0  0  0  0
 13 28  1  0  0  0  0
 14 29  1  0  0  0  0
 15 23  1  0  0  0  0
 15 27  2  0  0  0  0
 16 25  2  0  0  0  0
 16 30  1  0  0  0  0
 17 29  2  0  0  0  0
 17 31  1  0  0  0  0
 18 32  1  0  0  0  0
 19 32  1  0  0  0  0
 19 33  2  0  0  0  0
 19 34  1  0  0  0  0
 20 22  2  0  0  0  0
 20 39  1  0  0  0  0
 21 23  2  0  0  0  0
 21 40  1  0  0  0  0
 22 53  1  0  0  0  0
 23 41  1  0  0  0  0
 24 30  2  0  0  0  0
 24 68  1  0  0  0  0
 25 73  1  0  0  0  0
 26 82  1  0  0  0  0
 27 83  1  0  0  0  0
 28 31  2  0  0  0  0
 28 82  1  0  0  0  0
 29 84  1  0  0  0  0
 30 85  1  0  0  0  0
 31 86  1  0  0  0  0
 32 66  2  0  0  0  0
 33 67  1  0  0  0  0
 33 71  1  0  0  0  0
 34 72  1  0  0  0  0
 34 77  2  0  0  0  0
 35 54  1  0  0  0  0
 35 74  1  0  0  0  0
 35 78  2  0  0  0  0
 36 63  1  0  0  0  0
 36 69  1  0  0  0  0
 36 79  2  0  0  0  0
 37 64  1  0  0  0  0
 37 75  1  0  0  0  0
 37 80  2  0  0  0  0
 38 70  1  0  0  0  0
 38 73  1  0  0  0  0
 38 81  2  0  0  0  0
 39 42  1  0  0  0  0
 40 54  1  0  0  0  0
 41 69  1  0  0  0  0
 42 47  1  0  0  0  0
 43 44  1  0  0  0  0
 43 45  1  0  0  0  0
 44 49  1  0  0  0  0
 45 50  1  0  0  0  0
 46 48  1  0  0  0  0
 46 51  1  0  0  0  0
 47 53  1  0  0  0  0
 48 55  1  0  0  0  0
 49 56  1  0  0  0  0
 50 68  1  0  0  0  0
 51 70  1  0  0  0  0
 52 55  1  0  0  0  0
 52 70  1  0  0  0  0
 53 74  1  0  0  0  0
 54 69  1  0  0  0  0
 55 67  1  0  0  0  0
 56 62  1  0  0  0  0
 56 68  1  0  0  0  0
 57 64  1  0  0  0  0
 58 65  1  0  0  0  0
 59 65  1  0  0  0  0
 60 65  1  0  0  0  0
 61 76  1  0  0  0  0
 62 83  1  0  0  0  0
 63 65  1  0  0  0  0
 63 75  1  0  0  0  0
 64 76  1  0  0  0  0
 66 67  1  0  0  0  0
M  CHG  1  76   1
M  ISO  4  38 100  62 101  73 100  83 101
M  END
> <Batch ID>
0021

> <Smiles>
CNC(C)C(=O)NC(C(=O)N1Cc2cc([101O:1][101CH2:1]C3CCCCCN3c3ccc([100NH:0][100C:0](=O)N4CCCC(n5nc(-c6ccc(Oc7ccc(F)cc7F)cc6)c(C(N)=O)c5N)C4)cc3F)ccc2CC1C(=O)NC1CCCc2ccccc21)C(C)(C)C

> <Shape>
0.277

> <Color>
0.089

> <Negative vol penalty>
0.000

$$$$

  -OEChem-04042321113D

 82 90  0     1  0  0  0  0  0999 V2000
  -35.9988  -31.1237   19.9403 C   0  0  0  0  0  0  0  0  0  0  0  0
  -36.0788  -29.9648   20.7058 C   0  0  0  0  0  0  0  0  0  0  0  0
  -23.0526   -9.9486   19.8687 C   0  0  0  0  0  0  0  0  0  0  0  0
  -23.9092   -9.7524   22.1192 C   0  0  0  0  0  0  0  0  0  0  0  0
  -34.7718  -31.7647   19.7741 C   0  0  0  0  0  0  0  0  0  0  0  0
  -34.9319  -29.4469   21.3065 C   0  0  0  0  0  0  0  0  0  0  0  0
  -33.5884  -23.5379   22.1925 C   0  0  0  0  0  0  0  0  0  0  0  0
  -32.7763  -17.2562   23.6193 C   0  0  0  0  0  0  0  0  0  0  0  0
  -32.1226  -16.4650   22.6747 C   0  0  0  0  0  0  0  0  0  0  0  0
  -22.3237   -8.7723   20.0436 C   0  0  0  0  0  0  0  0  0  0  0  0
  -23.1802   -8.5761   22.2942 C   0  0  0  0  0  0  0  0  0  0  0  0
  -33.7114  -22.7044   23.3033 C   0  0  0  0  0  0  0  0  0  0  0  0
  -19.9831   -7.7042   22.9565 C   0  0  0  0  0  0  0  0  0  0  0  0
  -19.2766   -7.5527   24.1496 C   0  0  0  0  0  0  0  0  0  0  0  0
  -31.4042  -23.1258   23.8674 C   0  0  0  0  0  0  0  0  0  0  0  0
  -30.6442  -18.0670   24.4155 C   0  0  0  0  0  0  0  0  0  0  0  0
  -20.5543   -5.5651   24.6537 C   0  0  0  0  0  0  0  0  0  0  0  0
  -23.8454  -10.4386   20.9065 C   0  0  0  0  0  0  0  0  0  0  0  0
  -24.1738  -12.9666   21.0028 C   0  0  0  0  0  0  0  0  0  0  0  0
  -33.6076  -31.2490   20.3651 C   0  0  0  0  0  0  0  0  0  0  0  0
  -32.3734  -24.1814   21.9165 C   0  0  0  0  0  0  0  0  0  0  0  0
  -33.6885  -30.0824   21.1492 C   0  0  0  0  0  0  0  0  0  0  0  0
  -31.2677  -23.9650   22.7511 C   0  0  0  0  0  0  0  0  0  0  0  0
  -32.0370  -18.0572   24.4898 C   0  0  0  0  0  0  0  0  0  0  0  0
  -30.7298  -16.4748   22.6004 C   0  0  0  0  0  0  0  0  0  0  0  0
  -22.3874   -8.0861   21.2563 C   0  0  0  0  0  0  0  0  0  0  0  0
  -32.6201  -22.5004   24.1426 C   0  0  0  0  0  0  0  0  0  0  0  0
  -20.9751   -6.7861   22.6119 C   0  0  0  0  0  0  0  0  0  0  0  0
  -19.5623   -6.4832   24.9983 C   0  0  0  0  0  0  0  0  0  0  0  0
  -21.2607   -5.7166   23.4605 C   0  0  0  0  0  0  0  0  0  0  0  0
  -29.9905  -17.2758   23.4708 C   0  0  0  0  0  0  0  0  0  0  0  0
  -24.5991  -11.6534   20.7263 C   0  0  0  0  0  0  0  0  0  0  0  0
  -25.2472  -13.7536   20.6638 C   0  0  0  0  0  0  0  0  0  0  0  0
  -22.9206  -13.4333   21.5199 C   0  0  0  0  0  0  0  0  0  0  0  0
  -31.4336  -27.2116   21.7216 C   0  0  0  0  0  0  0  0  0  0  0  0
  -28.6524  -25.8772   20.7184 C   0  0  0  0  0  0  0  0  0  0  0  0
  -26.5957  -23.1542   20.6742 C   0  0  0  0  0  0  0  0  0  0  0  0
  -30.7125  -14.8174   20.7033 C   0  0  0  0  0  0  0  0  0  0  0  0
  -32.3125  -32.0031   20.1961 C   0  0  0  0  0  0  0  0  0  0  0  0
  -32.2495  -25.0563   20.6993 C   0  0  0  0  0  0  0  0  0  0  0  0
  -29.9355  -24.6163   22.4873 C   0  0  0  0  0  0  0  0  0  0  0  0
  -31.0777  -31.1814   20.5570 C   0  0  0  0  0  0  0  0  0  0  0  0
  -29.5062  -12.6210   18.1739 C   0  0  0  0  0  0  0  0  0  0  0  0
  -31.2871  -30.4573   21.8832 C   0  0  0  0  0  0  0  0  0  0  0  0
  -28.0870  -12.2815   18.6352 C   0  0  0  0  0  0  0  0  0  0  0  0
  -30.4708  -12.7461   19.3519 C   0  0  0  0  0  0  0  0  0  0  0  0
  -28.6219  -13.3286   20.8722 C   0  0  0  0  0  0  0  0  0  0  0  0
  -32.4622  -29.4760   21.7963 C   0  0  1  0  0  0  0  0  0  0  0  0
  -31.1113  -26.0668   20.8033 C   0  0  1  0  0  0  0  0  0  0  0  0
  -27.6005  -13.2563   19.7254 C   0  0  2  0  0  0  0  0  0  0  0  0
  -24.3738  -22.3777   19.8040 C   0  0  0  0  0  0  0  0  0  0  0  0
  -27.2410  -27.4880   22.8917 C   0  0  0  0  0  0  0  0  0  0  0  0
  -25.2526  -25.9928   22.6111 C   0  0  0  0  0  0  0  0  0  0  0  0
  -26.0304  -27.4016   20.7051 C   0  0  0  0  0  0  0  0  0  0  0  0
  -34.1554  -18.8442   25.5162 C   0  0  0  0  0  0  0  0  0  0  0  0
  -27.8454  -21.0070   19.0659 C   0  0  0  0  0  0  0  0  0  0  0  0
  -31.9594  -19.7039   26.3452 C   0  0  0  0  0  0  0  0  0  0  0  0
  -31.5634  -20.9967   25.6518 C   0  0  0  0  0  0  0  0  0  1  0  0
  -27.3952  -25.3888   21.3966 C   0  0  1  0  0  0  0  0  0  0  0  0
  -25.8687  -22.4593   19.5371 C   0  0  2  0  0  0  0  0  0  0  0  0
  -26.5053  -26.5569   21.9075 C   0  0  0  0  0  0  0  0  0  0  0  0
  -25.8453  -11.6048   20.2483 N   0  0  0  0  0  0  0  0  0  0  0  0
  -26.2124  -12.8974   20.2217 N   0  0  0  0  0  0  0  0  0  0  0  0
  -29.8662  -25.4679   21.2883 N   0  0  0  0  0  0  0  0  0  0  0  0
  -29.9463  -13.6890   20.3422 N   0  0  0  0  0  0  0  0  0  0  0  0
  -25.4501  -15.0877   20.7036 N   0  0  0  0  0  0  0  0  0  0  0  0
  -21.9268  -12.4901   21.8152 N   0  0  0  0  0  0  0  0  0  0  0  0
  -30.0976  -15.6596   21.6290 N   0  0  0  0  0  0  0  0  0  0  0  0
  -32.0646  -28.2718   21.0991 N   0  0  0  0  0  0  0  0  0  0  0  0
  -26.7329  -24.5064   20.4420 N   0  0  0  0  0  0  0  0  0  0  0  0
  -32.6943  -18.8526   25.4379 N   0  0  3  0  0  0  0  0  0  0  0  0
  -26.3904  -21.0749   19.3580 N   0  3  0  0  0  0  0  0  0  0  0  0
  -22.6831  -14.6519   21.6990 O   0  0  0  0  0  0  0  0  0  0  0  0
  -31.1309  -27.1391   22.9068 O   0  0  0  0  0  0  0  0  0  0  0  0
  -28.5608  -26.5897   19.7155 O   0  0  0  0  0  0  0  0  0  0  0  0
  -26.9981  -22.5578   21.6706 O   0  0  0  0  0  0  0  0  0  0  0  0
  -31.8202  -15.0358   20.2060 O   0  0  0  0  0  0  0  0  0  0  0  0
  -21.6761   -6.9384   21.4274 O   0  0  0  0  0  0  0  0  0  0  0  0
  -32.7376  -21.6878   25.2278 O   0  0  0  0  0  0  0  0  0  1  0  0
  -18.8849   -6.3387   26.1448 F   0  0  0  0  0  0  0  0  0  0  0  0
  -22.2135   -4.8321   23.1354 F   0  0  0  0  0  0  0  0  0  0  0  0
  -28.2642  -17.3183   23.4126 Cl  0  0  0  0  0  0  0  0  0  0  0  0
  1  2  1  0  0  0  0
  1  5  2  0  0  0  0
  2  6  2  0  0  0  0
  3 10  2  0  0  0  0
  3 18  1  0  0  0  0
  4 11  1  0  0  0  0
  4 18  2  0  0  0  0
  5 20  1  0  0  0  0
  6 22  1  0  0  0  0
  7 12  2  0  0  0  0
  7 21  1  0  0  0  0
  8  9  2  0  0  0  0
  8 24  1  0  0  0  0
  9 25  1  0  0  0  0
 10 26  1  0  0  0  0
 11 26  2  0  0  0  0
 12 27  1  0  0  0  0
 13 14  2  0  0  0  0
 13 28  1  0  0  0  0
 14 29  1  0  0  0  0
 15 23  1  0  0  0  0
 15 27  2  0  0  0  0
 16 24  2  0  0  0  0
 16 31  1  0  0  0  0
 17 29  2  0  0  0  0
 17 30  1  0  0  0  0
 18 32  1  0  0  0  0
 19 32  1  0  0  0  0
 19 33  2  0  0  0  0
 19 34  1  0  0  0  0
 20 22  2  0  0  0  0
 20 39  1  0  0  0  0
 21 23  2  0  0  0  0
 21 40  1  0  0  0  0
 22 48  1  0  0  0  0
 23 41  1  0  0  0  0
 24 71  1  0  0  0  0
 25 31  2  0  0  0  0
 25 68  1  0  0  0  0
 26 78  1  0  0  0  0
 27 79  1  0  0  0  0
 28 30  2  0  0  0  0
 28 78  1  0  0  0  0
 29 80  1  0  0  0  0
 30 81  1  0  0  0  0
 31 82  1  0  0  0  0
 32 62  2  0  0  0  0
 33 63  1  0  0  0  0
 33 66  1  0  0  0  0
 34 67  1  0  0  0  0
 34 73  2  0  0  0  0
 35 49  1  0  0  0  0
 35 69  1  0  0  0  0
 35 74  2  0  0  0  0
 36 59  1  0  0  0  0
 36 64  1  0  0  0  0
 36 75  2  0  0  0  0
 37 60  1  0  0  0  0
 37 70  1  0  0  0  0
 37 76  2  0  0  0  0
 38 65  1  0  0  0  0
 38 68  1  0  0  0  0
 38 77  2  0  0  0  0
 39 42  1  0  0  0  0
 40 49  1  0  0  0  0
 41 64  1  0  0  0  0
 42 44  1  0  0  0  0
 43 45  1  0  0  0  0
 43 46  1  0  0  0  0
 44 48  1  0  0  0  0
 45 50  1  0  0  0  0
 46 65  1  0  0  0  0
 47 50  1  0  0  0  0
 47 65  1  0  0  0  0
 48 69  1  0  0  0  0
 49 64  1  0  0  0  0
 50 63  1  0  0  0  0
 51 60  1  0  0  0  0
 52 61  1  0  0  0  0
 53 61  1  0  0  0  0
 54 61  1  0  0  0  0
 55 71  1  0  0  0  0
 56 72  1  0  0  0  0
 57 58  1  0  0  0  0
 57 71  1  0  0  0  0
 58 79  1  0  0  0  0
 59 61  1  0  0  0  0
 59 70  1  0  0  0  0
 60 72  1  0  0  0  0
 62 63  1  0  0  0  0
M  CHG  1  72   1
M  ISO  4  38 100  58 101  68 100  79 101
M  END
> <Batch ID>
0021

> <Smiles>
CNC(C)C(=O)NC(C(=O)N1Cc2cc([101O:1][101CH2:1]CN(C)c3ccc([100NH:0][100C:0](=O)N4CCCC(n5nc(-c6ccc(Oc7ccc(F)cc7F)cc6)c(C(N)=O)c5N)C4)c(Cl)c3)ccc2CC1C(=O)NC1CCCc2ccccc21)C(C)(C)C

> <Shape>
0.213

> <Color>
0.214

> <Negative vol penalty>
0.000

$$$$

  -OEChem-04042321113D

 84 92  0     1  0  0  0  0  0999 V2000
  -28.8434  -25.8198   15.9685 C   0  0  0  0  0  0  0  0  0  0  0  0
  -27.6404  -25.8156   16.6672 C   0  0  0  0  0  0  0  0  0  0  0  0
  -24.2796  -12.3102   19.5694 C   0  0  0  0  0  0  0  0  0  0  0  0
  -25.4814  -13.2963   21.4188 C   0  0  0  0  0  0  0  0  0  0  0  0
  -29.9825  -26.3776   16.5474 C   0  0  0  0  0  0  0  0  0  0  0  0
  -27.5761  -26.3684   17.9458 C   0  0  0  0  0  0  0  0  0  0  0  0
  -23.4917  -29.2908   18.5957 C   0  0  0  0  0  0  0  0  0  0  0  0
  -22.5221  -22.6492   22.0369 C   0  0  0  0  0  0  0  0  0  0  0  0
  -21.6135  -23.6938   22.2067 C   0  0  0  0  0  0  0  0  0  0  0  0
  -24.9833  -11.1190   19.7472 C   0  0  0  0  0  0  0  0  0  0  0  0
  -26.1851  -12.1051   21.5966 C   0  0  0  0  0  0  0  0  0  0  0  0
  -22.2766  -28.6456   18.8214 C   0  0  0  0  0  0  0  0  0  0  0  0
  -26.2058   -7.7012   19.9440 C   0  0  0  0  0  0  0  0  0  0  0  0
  -25.4826   -6.5091   19.9075 C   0  0  0  0  0  0  0  0  0  0  0  0
  -22.4983  -29.0681   21.1860 C   0  0  0  0  0  0  0  0  0  0  0  0
  -21.1918  -23.7136   19.8279 C   0  0  0  0  0  0  0  0  0  0  0  0
  -24.1560   -7.2564   21.7834 C   0  0  0  0  0  0  0  0  0  0  0  0
  -24.5287  -13.3988   20.4051 C   0  0  0  0  0  0  0  0  0  0  0  0
  -22.5819  -14.9941   20.8208 C   0  0  0  0  0  0  0  0  0  0  0  0
  -29.9299  -26.9461   17.8298 C   0  0  0  0  0  0  0  0  0  0  0  0
  -24.2258  -29.8208   19.6665 C   0  0  0  0  0  0  0  0  0  0  0  0
  -28.7159  -26.9332   18.5429 C   0  0  0  0  0  0  0  0  0  0  0  0
  -23.7213  -29.7218   20.9710 C   0  0  0  0  0  0  0  0  0  0  0  0
  -22.7656  -22.1368   20.7626 C   0  0  0  0  0  0  0  0  0  0  0  0
  -20.9483  -24.2260   21.1022 C   0  0  0  0  0  0  0  0  0  0  0  0
  -25.9360  -11.0165   20.7608 C   0  0  0  0  0  0  0  0  0  0  0  0
  -21.7811  -28.5316   20.1170 C   0  0  0  0  0  0  0  0  0  0  0  0
  -25.9042   -8.6709   20.9003 C   0  0  0  0  0  0  0  0  0  0  0  0
  -24.4577   -6.2866   20.8272 C   0  0  0  0  0  0  0  0  0  0  0  0
  -22.1004  -22.6690   19.6581 C   0  0  0  0  0  0  0  0  0  0  0  0
  -24.8793   -8.4485   21.8200 C   0  0  0  0  0  0  0  0  0  0  0  0
  -23.8025  -14.6297   20.2216 C   0  0  0  0  0  0  0  0  0  0  0  0
  -22.3170  -16.2476   20.3257 C   0  0  0  0  0  0  0  0  0  0  0  0
  -21.7610  -14.2648   21.7427 C   0  0  0  0  0  0  0  0  0  0  0  0
  -27.1006  -29.2698   20.9059 C   0  0  0  0  0  0  0  0  0  0  0  0
  -26.3660  -31.8329   22.7534 C   0  0  0  0  0  0  0  0  0  0  0  0
  -23.9535  -33.8107   24.1372 C   0  0  0  0  0  0  0  0  0  0  0  0
  -25.5678  -20.9700   18.8377 C   0  0  0  0  0  0  0  0  0  0  0  0
  -31.1985  -27.4949   18.4332 C   0  0  0  0  0  0  0  0  0  0  0  0
  -25.5219  -30.5373   19.4034 C   0  0  0  0  0  0  0  0  0  0  0  0
  -24.4610  -30.2917   22.1528 C   0  0  0  0  0  0  0  0  0  0  0  0
  -30.9580  -28.3963   19.6415 C   0  0  0  0  0  0  0  0  0  0  0  0
  -23.7863  -18.8393   16.3907 C   0  0  0  0  0  0  0  0  0  0  0  0
  -29.9609  -27.7512   20.5988 C   0  0  0  0  0  0  0  0  0  0  0  0
  -23.5648  -17.5464   17.1738 C   0  0  0  0  0  0  0  0  0  0  0  0
  -25.0291  -19.5852   16.8670 C   0  0  0  0  0  0  0  0  0  0  0  0
  -24.8198  -18.5704   19.1122 C   0  0  0  0  0  0  0  0  0  0  0  0
  -28.6004  -27.5454   19.9220 C   0  0  1  0  0  0  0  0  0  0  0  0
  -26.4354  -30.5874   20.6242 C   0  0  1  0  0  0  0  0  0  0  0  0
  -23.5494  -17.8181   18.6882 C   0  0  2  0  0  0  0  0  0  0  0  0
  -23.6591  -35.8060   25.6303 C   0  0  0  0  0  0  0  0  0  0  0  0
  -26.9976  -30.1027   25.1860 C   0  0  0  0  0  0  0  0  0  0  0  0
  -25.8010  -31.7831   26.6047 C   0  0  0  0  0  0  0  0  0  0  0  0
  -27.8384  -32.4535   25.3312 C   0  0  0  0  0  0  0  0  0  0  0  0
  -19.7786  -25.8134   22.6096 C   0  0  0  0  0  0  0  0  0  0  0  0
  -25.5455  -22.6986   20.5958 C   0  0  0  0  0  0  0  0  0  0  0  0
  -22.6074  -35.3556   22.0016 C   0  0  0  0  0  0  0  0  0  0  0  0
  -23.7378  -21.0199   20.5845 C   0  0  0  0  0  0  0  0  0  0  0  0
  -19.3396  -25.8582   20.1492 C   0  0  0  0  0  0  0  0  0  0  0  0
  -20.2342  -26.8584   19.4362 C   0  0  0  0  0  0  0  0  0  1  0  0
  -25.6804  -32.0305   24.0838 C   0  0  1  0  0  0  0  0  0  0  0  0
  -23.7996  -35.3198   24.1962 C   0  0  2  0  0  0  0  0  0  0  0  0
  -26.5661  -31.5799   25.2796 C   0  0  0  0  0  0  0  0  0  0  0  0
  -24.2800  -15.5752   19.4078 N   0  0  0  0  0  0  0  0  0  0  0  0
  -23.3545  -16.5460   19.4922 N   0  0  0  0  0  0  0  0  0  0  0  0
  -25.7268  -30.9775   21.8448 N   0  0  0  0  0  0  0  0  0  0  0  0
  -25.0090  -19.7919   18.3155 N   0  0  0  0  0  0  0  0  0  0  0  0
  -21.3001  -17.1125   20.5263 N   0  0  0  0  0  0  0  0  0  0  0  0
  -22.1812  -12.9906   22.1480 N   0  0  0  0  0  0  0  0  0  0  0  0
  -27.8715  -28.7943   19.8623 N   0  0  0  0  0  0  0  0  0  0  0  0
  -25.2794  -33.4324   24.1321 N   0  0  0  0  0  0  0  0  0  0  0  0
  -20.0353  -25.2751   21.2734 N   0  0  3  0  0  0  0  0  0  0  0  0
  -25.0079  -21.4733   20.0217 N   0  0  0  0  0  0  0  0  0  0  0  0
  -22.5922  -35.7475   23.4345 N   0  3  0  0  0  0  0  0  0  0  0  0
  -20.6783  -14.7224   22.1809 O   0  0  0  0  0  0  0  0  0  0  0  0
  -26.9283  -28.7256   21.9903 O   0  0  0  0  0  0  0  0  0  0  0  0
  -27.4258  -32.4216   22.5259 O   0  0  0  0  0  0  0  0  0  0  0  0
  -22.9935  -33.0441   24.1030 O   0  0  0  0  0  0  0  0  0  0  0  0
  -26.5071  -21.5446   18.2724 O   0  0  0  0  0  0  0  0  0  0  0  0
  -26.6227   -9.8543   20.9348 O   0  0  0  0  0  0  0  0  0  0  0  0
  -20.5956  -27.9018   20.3402 O   0  0  0  0  0  0  0  0  0  1  0  0
  -23.7622   -5.1425   20.7910 F   0  0  0  0  0  0  0  0  0  0  0  0
  -22.3288  -22.1841   18.4295 F   0  0  0  0  0  0  0  0  0  0  0  0
  -24.5842   -9.3769   22.7402 F   0  0  0  0  0  0  0  0  0  0  0  0
  1  2  1  0  0  0  0
  1  5  2  0  0  0  0
  2  6  2  0  0  0  0
  3 10  2  0  0  0  0
  3 18  1  0  0  0  0
  4 11  1  0  0  0  0
  4 18  2  0  0  0  0
  5 20  1  0  0  0  0
  6 22  1  0  0  0  0
  7 12  2  0  0  0  0
  7 21  1  0  0  0  0
  8  9  2  0  0  0  0
  8 24  1  0  0  0  0
  9 25  1  0  0  0  0
 10 26  1  0  0  0  0
 11 26  2  0  0  0  0
 12 27  1  0  0  0  0
 13 14  2  0  0  0  0
 13 28  1  0  0  0  0
 14 29  1  0  0  0  0
 15 23  1  0  0  0  0
 15 27  2  0  0  0  0
 16 25  2  0  0  0  0
 16 30  1  0  0  0  0
 17 29  2  0  0  0  0
 17 31  1  0  0  0  0
 18 32  1  0  0  0  0
 19 32  1  0  0  0  0
 19 33  2  0  0  0  0
 19 34  1  0  0  0  0
 20 22  2  0  0  0  0
 20 39  1  0  0  0  0
 21 23  2  0  0  0  0
 21 40  1  0  0  0  0
 22 48  1  0  0  0  0
 23 41  1  0  0  0  0
 24 30  2  0  0  0  0
 24 58  1  0  0  0  0
 25 72  1  0  0  0  0
 26 80  1  0  0  0  0
 27 81  1  0  0  0  0
 28 31  2  0  0  0  0
 28 80  1  0  0  0  0
 29 82  1  0  0  0  0
 30 83  1  0  0  0  0
 31 84  1  0  0  0  0
 32 64  2  0  0  0  0
 33 65  1  0  0  0  0
 33 68  1  0  0  0  0
 34 69  1  0  0  0  0
 34 75  2  0  0  0  0
 35 49  1  0  0  0  0
 35 70  1  0  0  0  0
 35 76  2  0  0  0  0
 36 61  1  0  0  0  0
 36 66  1  0  0  0  0
 36 77  2  0  0  0  0
 37 62  1  0  0  0  0
 37 71  1  0  0  0  0
 37 78  2  0  0  0  0
 38 67  1  0  0  0  0
 38 73  1  0  0  0  0
 38 79  2  0  0  0  0
 39 42  1  0  0  0  0
 40 49  1  0  0  0  0
 41 66  1  0  0  0  0
 42 44  1  0  0  0  0
 43 45  1  0  0  0  0
 43 46  1  0  0  0  0
 44 48  1  0  0  0  0
 45 50  1  0  0  0  0
 46 67  1  0  0  0  0
 47 50  1  0  0  0  0
 47 67  1  0  0  0  0
 48 70  1  0  0  0  0
 49 66  1  0  0  0  0
 50 65  1  0  0  0  0
 51 62  1  0  0  0  0
 52 63  1  0  0  0  0
 53 63  1  0  0  0  0
 54 63  1  0  0  0  0
 55 72  1  0  0  0  0
 56 73  1  0  0  0  0
 57 74  1  0  0  0  0
 58 73  1  0  0  0  0
 59 60  1  0  0  0  0
 59 72  1  0  0  0  0
 60 81  1  0  0  0  0
 61 63  1  0  0  0  0
 61 71  1  0  0  0  0
 62 74  1  0  0  0  0
 64 65  1  0  0  0  0
M  CHG  1  74   1
M  ISO  4  38 100  60 101  73 100  81 101
M  END
> <Batch ID>
0021

> <Smiles>
CNC(C)C(=O)NC(C(=O)N1Cc2cc([101O:1][101CH2:1]CN(C)c3ccc(C[100N:0](C)[100C:0](=O)N4CCCC(n5nc(-c6ccc(Oc7ccc(F)cc7F)cc6)c(C(N)=O)c5N)C4)c(F)c3)ccc2CC1C(=O)NC1CCCc2ccccc21)C(C)(C)C

> <Shape>
0.228

> <Color>
0.097

> <Negative vol penalty>
0.000

$$$$

  -OEChem-04042321113D

 85 94  0     1  0  0  0  0  0999 V2000
  -37.6532  -13.2249   26.5621 C   0  0  0  0  0  0  0  0  0  0  0  0
  -37.3473  -13.6545   25.2747 C   0  0  0  0  0  0  0  0  0  0  0  0
  -23.2357  -10.1535   22.1379 C   0  0  0  0  0  0  0  0  0  0  0  0
  -23.5809   -9.5487   19.8244 C   0  0  0  0  0  0  0  0  0  0  0  0
  -37.1349  -13.9039   27.6639 C   0  0  0  0  0  0  0  0  0  0  0  0
  -36.5219  -14.7628   25.0885 C   0  0  0  0  0  0  0  0  0  0  0  0
  -35.5034  -20.2795   20.6336 C   0  0  0  0  0  0  0  0  0  0  0  0
  -30.0236  -17.6949   19.2571 C   0  0  0  0  0  0  0  0  0  0  0  0
  -29.0346  -18.8008   21.1640 C   0  0  0  0  0  0  0  0  0  0  0  0
  -30.2799  -18.9345   18.6712 C   0  0  0  0  0  0  0  0  0  0  0  0
  -29.2910  -20.0404   20.5781 C   0  0  0  0  0  0  0  0  0  0  0  0
  -22.4878   -8.9919   22.3300 C   0  0  0  0  0  0  0  0  0  0  0  0
  -22.8330   -8.3870   20.0166 C   0  0  0  0  0  0  0  0  0  0  0  0
  -34.4968  -20.8874   19.8846 C   0  0  0  0  0  0  0  0  0  0  0  0
  -23.0817   -5.6982   22.8118 C   0  0  0  0  0  0  0  0  0  0  0  0
  -23.3374   -4.9447   23.9574 C   0  0  0  0  0  0  0  0  0  0  0  0
  -33.7231  -22.0303   21.8631 C   0  0  0  0  0  0  0  0  0  0  0  0
  -21.0488   -5.2498   24.6690 C   0  0  0  0  0  0  0  0  0  0  0  0
  -23.7822  -10.4319   20.8851 C   0  0  0  0  0  0  0  0  0  0  0  0
  -24.1211  -12.9602   20.8593 C   0  0  0  0  0  0  0  0  0  0  0  0
  -36.3105  -15.0270   27.4912 C   0  0  0  0  0  0  0  0  0  0  0  0
  -35.6208  -20.5344   22.0076 C   0  0  0  0  0  0  0  0  0  0  0  0
  -35.9910  -15.4568   26.1891 C   0  0  0  0  0  0  0  0  0  0  0  0
  -34.7336  -21.4263   22.6268 C   0  0  0  0  0  0  0  0  0  0  0  0
  -29.4009  -17.6280   20.5035 C   0  0  0  0  0  0  0  0  0  0  0  0
  -29.9136  -20.1072   19.3316 C   0  0  0  0  0  0  0  0  0  0  0  0
  -22.2865   -8.1086   21.2694 C   0  0  0  0  0  0  0  0  0  0  0  0
  -33.6047  -21.7607   20.4999 C   0  0  0  0  0  0  0  0  0  0  0  0
  -21.8095   -6.2276   22.5948 C   0  0  0  0  0  0  0  0  0  0  0  0
  -22.3210   -4.7205   24.8860 C   0  0  0  0  0  0  0  0  0  0  0  0
  -20.7931   -6.0034   23.5234 C   0  0  0  0  0  0  0  0  0  0  0  0
  -24.5543  -11.6320   20.6858 C   0  0  0  0  0  0  0  0  0  0  0  0
  -25.2196  -13.7232   20.5468 C   0  0  0  0  0  0  0  0  0  0  0  0
  -22.8403  -13.4596   21.2664 C   0  0  0  0  0  0  0  0  0  0  0  0
  -35.4317  -18.7651   24.6415 C   0  0  0  0  0  0  0  0  0  0  0  0
  -36.3589  -21.5166   26.0878 C   0  0  0  0  0  0  0  0  0  0  0  0
  -36.5320  -24.9236   25.9932 C   0  0  0  0  0  0  0  0  0  0  0  0
  -30.8085  -14.4224   21.3167 C   0  0  0  0  0  0  0  0  0  0  0  0
  -35.7355  -15.7001   28.7122 C   0  0  0  0  0  0  0  0  0  0  0  0
  -36.7286  -19.8914   22.7961 C   0  0  0  0  0  0  0  0  0  0  0  0
  -34.8295  -21.7492   24.0948 C   0  0  0  0  0  0  0  0  0  0  0  0
  -35.1726  -17.0913   28.4326 C   0  0  0  0  0  0  0  0  0  0  0  0
  -29.6174  -12.4729   18.4042 C   0  0  0  0  0  0  0  0  0  0  0  0
  -29.8595  -22.9887   17.1146 C   0  0  0  0  0  0  0  0  0  0  0  0
  -34.3024  -17.0731   27.1800 C   0  0  0  0  0  0  0  0  0  0  0  0
  -28.1799  -12.1343   18.7954 C   0  0  0  0  0  0  0  0  0  0  0  0
  -30.4787  -23.6443   18.3361 C   0  0  0  0  0  0  0  0  0  0  0  0
  -30.1985  -21.5150   17.3022 C   0  0  0  0  0  0  0  0  0  0  0  0
  -30.5121  -12.6473   19.6277 C   0  0  0  0  0  0  0  0  0  0  0  0
  -28.5636  -13.3022   21.0020 C   0  0  0  0  0  0  0  0  0  0  0  0
  -35.1193  -16.6698   25.9465 C   0  0  1  0  0  0  0  0  0  0  0  0
  -36.4369  -19.8258   24.2921 C   0  0  1  0  0  0  0  0  0  0  0  0
  -27.6255  -13.1658   19.7934 C   0  0  2  0  0  0  0  0  0  0  0  0
  -30.2515  -22.6196   19.4612 C   0  0  2  0  0  0  0  0  0  0  0  0
  -37.3111  -26.8946   27.3370 C   0  0  0  0  0  0  0  0  0  0  0  0
  -33.9325  -21.2270   27.9149 C   0  0  0  0  0  0  0  0  0  0  0  0
  -34.2182  -23.6293   28.5593 C   0  0  0  0  0  0  0  0  0  0  0  0
  -36.0208  -21.9811   29.0657 C   0  0  0  0  0  0  0  0  0  0  0  0
  -31.1985  -16.5828   22.4392 C   0  0  0  0  0  0  0  0  0  0  0  0
  -38.4415  -25.7508   23.8888 C   0  0  0  0  0  0  0  0  0  0  0  0
  -29.1260  -16.3032   21.1306 C   0  0  0  0  0  0  0  0  0  0  0  0
  -31.4084  -22.6717   20.4537 C   0  0  0  0  0  0  0  0  0  1  0  0
  -35.6438  -22.7097   26.6743 C   0  0  1  0  0  0  0  0  0  0  0  0
  -37.6779  -25.8819   26.2633 C   0  0  2  0  0  0  0  0  0  0  0  0
  -34.9505  -22.3794   28.0263 C   0  0  0  0  0  0  0  0  0  0  0  0
  -25.8286  -11.5523   20.2935 N   0  0  0  0  0  0  0  0  0  0  0  0
  -26.2055  -12.8401   20.2177 N   0  0  0  0  0  0  0  0  0  0  0  0
  -30.1688  -21.3344   18.7528 N   0  0  3  0  0  0  0  0  0  0  0  0
  -35.9257  -21.0905   24.8242 N   0  0  0  0  0  0  0  0  0  0  0  0
  -29.9403  -13.6003   20.5795 N   0  0  0  0  0  0  0  0  0  0  0  0
  -25.4287  -15.0567   20.5242 N   0  0  0  0  0  0  0  0  0  0  0  0
  -21.8832  -13.7286   20.2786 N   0  0  0  0  0  0  0  0  0  0  0  0
  -35.9189  -17.7837   25.4835 N   0  0  0  0  0  0  0  0  0  0  0  0
  -36.6328  -23.7791   26.7555 N   0  0  0  0  0  0  0  0  0  0  0  0
  -30.3313  -15.6897   21.6841 N   0  0  0  0  0  0  0  0  0  0  0  0
  -38.0372  -26.6230   25.0213 N   0  3  0  0  0  0  0  0  0  0  0  0
  -22.5587  -13.6768   22.4694 O   0  0  0  0  0  0  0  0  0  0  0  0
  -34.2975  -18.8329   24.1823 O   0  0  0  0  0  0  0  0  0  0  0  0
  -37.2733  -20.9867   26.7241 O   0  0  0  0  0  0  0  0  0  0  0  0
  -35.6350  -25.1677   25.1892 O   0  0  0  0  0  0  0  0  0  0  0  0
  -31.9487  -14.0487   21.6204 O   0  0  0  0  0  0  0  0  0  0  0  0
  -21.5570   -6.9749   21.4566 O   0  0  0  0  0  0  0  0  0  0  0  0
  -32.6209  -22.3549   19.7712 O   0  0  0  0  0  0  0  0  0  1  0  0
  -22.5663   -3.9956   25.9853 F   0  0  0  0  0  0  0  0  0  0  0  0
  -19.5686   -6.5084   23.3197 F   0  0  0  0  0  0  0  0  0  0  0  0
  1  2  1  0  0  0  0
  1  5  2  0  0  0  0
  2  6  2  0  0  0  0
  3 12  2  0  0  0  0
  3 19  1  0  0  0  0
  4 13  1  0  0  0  0
  4 19  2  0  0  0  0
  5 21  1  0  0  0  0
  6 23  1  0  0  0  0
  7 14  2  0  0  0  0
  7 22  1  0  0  0  0
  8 10  2  0  0  0  0
  8 25  1  0  0  0  0
  9 11  1  0  0  0  0
  9 25  2  0  0  0  0
 10 26  1  0  0  0  0
 11 26  2  0  0  0  0
 12 27  1  0  0  0  0
 13 27  2  0  0  0  0
 14 28  1  0  0  0  0
 15 16  2  0  0  0  0
 15 29  1  0  0  0  0
 16 30  1  0  0  0  0
 17 24  1  0  0  0  0
 17 28  2  0  0  0  0
 18 30  2  0  0  0  0
 18 31  1  0  0  0  0
 19 32  1  0  0  0  0
 20 32  1  0  0  0  0
 20 33  2  0  0  0  0
 20 34  1  0  0  0  0
 21 23  2  0  0  0  0
 21 39  1  0  0  0  0
 22 24  2  0  0  0  0
 22 40  1  0  0  0  0
 23 51  1  0  0  0  0
 24 41  1  0  0  0  0
 25 61  1  0  0  0  0
 26 68  1  0  0  0  0
 27 82  1  0  0  0  0
 28 83  1  0  0  0  0
 29 31  2  0  0  0  0
 29 82  1  0  0  0  0
 30 84  1  0  0  0  0
 31 85  1  0  0  0  0
 32 66  2  0  0  0  0
 33 67  1  0  0  0  0
 33 71  1  0  0  0  0
 34 72  1  0  0  0  0
 34 77  2  0  0  0  0
 35 52  1  0  0  0  0
 35 73  1  0  0  0  0
 35 78  2  0  0  0  0
 36 63  1  0  0  0  0
 36 69  1  0  0  0  0
 36 79  2  0  0  0  0
 37 64  1  0  0  0  0
 37 74  1  0  0  0  0
 37 80  2  0  0  0  0
 38 70  1  0  0  0  0
 38 75  1  0  0  0  0
 38 81  2  0  0  0  0
 39 42  1  0  0  0  0
 40 52  1  0  0  0  0
 41 69  1  0  0  0  0
 42 45  1  0  0  0  0
 43 46  1  0  0  0  0
 43 49  1  0  0  0  0
 44 47  1  0  0  0  0
 44 48  1  0  0  0  0
 45 51  1  0  0  0  0
 46 53  1  0  0  0  0
 47 54  1  0  0  0  0
 48 68  1  0  0  0  0
 49 70  1  0  0  0  0
 50 53  1  0  0  0  0
 50 70  1  0  0  0  0
 51 73  1  0  0  0  0
 52 69  1  0  0  0  0
 53 67  1  0  0  0  0
 54 62  1  0  0  0  0
 54 68  1  0  0  0  0
 55 64  1  0  0  0  0
 56 65  1  0  0  0  0
 57 65  1  0  0  0  0
 58 65  1  0  0  0  0
 59 75  1  0  0  0  0
 60 76  1  0  0  0  0
 61 75  1  0  0  0  0
 62 83  1  0  0  0  0
 63 65  1  0  0  0  0
 63 74  1  0  0  0  0
 64 76  1  0  0  0  0
 66 67  1  0  0  0  0
M  CHG  1  76   1
M  ISO  4  38 100  62 101  75 100  83 101
M  END
> <Batch ID>
0021

> <Smiles>
CNC(C)C(=O)NC(C(=O)N1Cc2cc([101O:1][101CH2:1]C3CCCN3c3ccc(C[100N:0](C)[100C:0](=O)N4CCCC(n5nc(-c6ccc(Oc7ccc(F)cc7F)cc6)c(C(N)=O)c5N)C4)cc3)ccc2CC1C(=O)NC1CCCc2ccccc21)C(C)(C)C

> <Shape>
0.220

> <Color>
0.163

> <Negative vol penalty>
0.000

$$$$

  -OEChem-04042321113D

 85 94  0     1  0  0  0  0  0999 V2000
  -17.2705  -24.6220   25.0420 C   0  0  0  0  0  0  0  0  0  0  0  0
  -18.4944  -24.2351   25.5784 C   0  0  0  0  0  0  0  0  0  0  0  0
  -23.0495   -9.8911   19.9195 C   0  0  0  0  0  0  0  0  0  0  0  0
  -23.8245   -9.8700   22.2078 C   0  0  0  0  0  0  0  0  0  0  0  0
  -17.2114  -25.1512   23.7534 C   0  0  0  0  0  0  0  0  0  0  0  0
  -19.6599  -24.3761   24.8260 C   0  0  0  0  0  0  0  0  0  0  0  0
  -26.6495  -25.7597   25.5663 C   0  0  0  0  0  0  0  0  0  0  0  0
  -31.3726  -19.0301   20.6129 C   0  0  0  0  0  0  0  0  0  0  0  0
  -31.1919  -17.6471   20.5961 C   0  0  0  0  0  0  0  0  0  0  0  0
  -22.2981   -8.7416   20.1634 C   0  0  0  0  0  0  0  0  0  0  0  0
  -23.0730   -8.7205   22.4517 C   0  0  0  0  0  0  0  0  0  0  0  0
  -27.8937  -25.2405   25.2113 C   0  0  0  0  0  0  0  0  0  0  0  0
  -19.8425   -7.9427   23.0680 C   0  0  0  0  0  0  0  0  0  0  0  0
  -19.0930   -7.8976   24.2434 C   0  0  0  0  0  0  0  0  0  0  0  0
  -27.6810  -26.2405   23.0264 C   0  0  0  0  0  0  0  0  0  0  0  0
  -29.7551  -19.2198   22.3975 C   0  0  0  0  0  0  0  0  0  0  0  0
  -20.3236   -5.9433   24.9531 C   0  0  0  0  0  0  0  0  0  0  0  0
  -23.8128  -10.4553   20.9417 C   0  0  0  0  0  0  0  0  0  0  0  0
  -24.1741  -12.9787   20.8435 C   0  0  0  0  0  0  0  0  0  0  0  0
  -18.3780  -25.3077   22.9885 C   0  0  0  0  0  0  0  0  0  0  0  0
  -25.9055  -26.5154   24.6487 C   0  0  0  0  0  0  0  0  0  0  0  0
  -19.6163  -24.9066   23.5255 C   0  0  0  0  0  0  0  0  0  0  0  0
  -26.4287  -26.7704   23.3730 C   0  0  0  0  0  0  0  0  0  0  0  0
  -30.6543  -19.8165   21.5137 C   0  0  0  0  0  0  0  0  0  0  0  0
  -30.2927  -17.0505   21.4799 C   0  0  0  0  0  0  0  0  0  0  0  0
  -22.3098   -8.1563   21.4295 C   0  0  0  0  0  0  0  0  0  0  0  0
  -28.4084  -25.4784   23.9402 C   0  0  0  0  0  0  0  0  0  0  0  0
  -20.8326   -6.9881   22.8350 C   0  0  0  0  0  0  0  0  0  0  0  0
  -19.3335   -6.8979   25.1860 C   0  0  0  0  0  0  0  0  0  0  0  0
  -29.5743  -17.8368   22.3806 C   0  0  0  0  0  0  0  0  0  0  0  0
  -21.0731   -5.9884   23.7776 C   0  0  0  0  0  0  0  0  0  0  0  0
  -24.5897  -11.6424   20.6902 C   0  0  0  0  0  0  0  0  0  0  0  0
  -25.2699  -13.7229   20.4801 C   0  0  0  0  0  0  0  0  0  0  0  0
  -30.1904  -22.1551   22.3765 C   0  0  0  0  0  0  0  0  0  0  0  0
  -22.9106  -13.5006   21.2757 C   0  0  0  0  0  0  0  0  0  0  0  0
  -23.0714  -26.1863   23.2475 C   0  0  0  0  0  0  0  0  0  0  0  0
  -23.7161  -29.1608   22.1256 C   0  0  0  0  0  0  0  0  0  0  0  0
  -26.0570  -31.5169   21.3409 C   0  0  0  0  0  0  0  0  0  0  0  0
  -30.7453  -14.7231   20.6285 C   0  0  0  0  0  0  0  0  0  0  0  0
  -18.2583  -25.8405   21.5826 C   0  0  0  0  0  0  0  0  0  0  0  0
  -24.5769  -27.0909   25.0561 C   0  0  0  0  0  0  0  0  0  0  0  0
  -25.6787  -27.5925   22.3581 C   0  0  0  0  0  0  0  0  0  0  0  0
  -19.5871  -26.3051   20.9921 C   0  0  0  0  0  0  0  0  0  0  0  0
  -29.5960  -12.3411   18.2448 C   0  0  0  0  0  0  0  0  0  0  0  0
  -20.6763  -25.2680   21.2470 C   0  0  0  0  0  0  0  0  0  0  0  0
  -28.1569  -12.0569   18.6811 C   0  0  0  0  0  0  0  0  0  0  0  0
  -31.3951  -23.3535   20.7100 C   0  0  0  0  0  0  0  0  0  0  0  0
  -30.5208  -12.5510   19.4425 C   0  0  0  0  0  0  0  0  0  0  0  0
  -31.8016  -21.8939   20.6707 C   0  0  0  0  0  0  0  0  0  0  0  0
  -28.6288  -13.2774   20.8432 C   0  0  0  0  0  0  0  0  0  0  0  0
  -20.9057  -25.0670   22.7498 C   0  0  1  0  0  0  0  0  0  0  0  0
  -30.8157  -23.5145   22.1080 C   0  0  1  0  0  0  0  0  0  0  0  0
  -23.6760  -27.4139   23.8681 C   0  0  1  0  0  0  0  0  0  0  0  0
  -27.6469  -13.1232   19.6703 C   0  0  2  0  0  0  0  0  0  0  0  0
  -26.2823  -33.8358   20.4083 C   0  0  0  0  0  0  0  0  0  0  0  0
  -23.1873  -28.0818   19.3210 C   0  0  0  0  0  0  0  0  0  0  0  0
  -24.3266  -30.1122   18.4005 C   0  0  0  0  0  0  0  0  0  0  0  0
  -22.2478  -30.3581   19.7573 C   0  0  0  0  0  0  0  0  0  0  0  0
  -27.3110  -32.5200   23.8269 C   0  0  0  0  0  0  0  0  0  0  0  0
  -29.8225  -24.6564   22.2138 C   0  0  0  0  0  0  0  0  0  1  0  0
  -24.4077  -29.7160   20.9040 C   0  0  1  0  0  0  0  0  0  0  0  0
  -26.1466  -32.9964   21.6692 C   0  0  2  0  0  0  0  0  0  0  0  0
  -23.5558  -29.5499   19.6139 C   0  0  0  0  0  0  0  0  0  0  0  0
  -25.8510  -11.5405   20.2627 N   0  0  0  0  0  0  0  0  0  0  0  0
  -26.2374  -12.8222   20.1441 N   0  0  0  0  0  0  0  0  0  0  0  0
  -30.8387  -21.2316   21.5307 N   0  0  0  0  0  0  0  0  0  0  0  0
  -24.3811  -28.1282   22.8018 N   0  0  0  0  0  0  0  0  0  0  0  0
  -29.9759  -13.5778   20.3333 N   0  0  0  0  0  0  0  0  0  0  0  0
  -25.4905  -15.0532   20.4184 N   0  0  0  0  0  0  0  0  0  0  0  0
  -21.8936  -12.5963   21.6110 N   0  0  0  0  0  0  0  0  0  0  0  0
  -30.1108  -15.6454   21.4600 N   0  0  0  0  0  0  0  0  0  0  0  0
  -21.6906  -26.1556   23.2913 N   0  0  0  0  0  0  0  0  0  0  0  0
  -24.7486  -31.0987   21.2209 N   0  0  0  0  0  0  0  0  0  0  0  0
  -27.3257  -33.2631   22.5406 N   0  3  0  0  0  0  0  0  0  0  0  0
  -29.3346  -21.9686   23.2293 O   0  0  0  0  0  0  0  0  0  0  0  0
  -22.6846  -14.7324   21.3464 O   0  0  0  0  0  0  0  0  0  0  0  0
  -23.8034  -25.3310   22.7634 O   0  0  0  0  0  0  0  0  0  0  0  0
  -22.6294  -29.6311   22.4715 O   0  0  0  0  0  0  0  0  0  0  0  0
  -27.0486  -30.8045   21.2009 O   0  0  0  0  0  0  0  0  0  0  0  0
  -31.8726  -14.8873   20.1551 O   0  0  0  0  0  0  0  0  0  0  0  0
  -21.5764   -7.0347   21.6679 O   0  0  0  0  0  0  0  0  0  0  0  0
  -29.6223  -24.9722   23.5909 O   0  0  0  0  0  0  0  0  0  1  0  0
  -18.6147   -6.8556   26.3155 F   0  0  0  0  0  0  0  0  0  0  0  0
  -28.7062  -17.2744   23.2337 F   0  0  0  0  0  0  0  0  0  0  0  0
  -22.0237   -5.0693   23.5599 F   0  0  0  0  0  0  0  0  0  0  0  0
  1  2  1  0  0  0  0
  1  5  2  0  0  0  0
  2  6  2  0  0  0  0
  3 10  2  0  0  0  0
  3 18  1  0  0  0  0
  4 11  1  0  0  0  0
  4 18  2  0  0  0  0
  5 20  1  0  0  0  0
  6 22  1  0  0  0  0
  7 12  2  0  0  0  0
  7 21  1  0  0  0  0
  8  9  2  0  0  0  0
  8 24  1  0  0  0  0
  9 25  1  0  0  0  0
 10 26  1  0  0  0  0
 11 26  2  0  0  0  0
 12 27  1  0  0  0  0
 13 14  2  0  0  0  0
 13 28  1  0  0  0  0
 14 29  1  0  0  0  0
 15 23  1  0  0  0  0
 15 27  2  0  0  0  0
 16 24  2  0  0  0  0
 16 30  1  0  0  0  0
 17 29  2  0  0  0  0
 17 31  1  0  0  0  0
 18 32  1  0  0  0  0
 19 32  1  0  0  0  0
 19 33  2  0  0  0  0
 19 35  1  0  0  0  0
 20 22  2  0  0  0  0
 20 40  1  0  0  0  0
 21 23  2  0  0  0  0
 21 41  1  0  0  0  0
 22 51  1  0  0  0  0
 23 42  1  0  0  0  0
 24 66  1  0  0  0  0
 25 30  2  0  0  0  0
 25 71  1  0  0  0  0
 26 81  1  0  0  0  0
 27 82  1  0  0  0  0
 28 31  2  0  0  0  0
 28 81  1  0  0  0  0
 29 83  1  0  0  0  0
 30 84  1  0  0  0  0
 31 85  1  0  0  0  0
 32 64  2  0  0  0  0
 33 65  1  0  0  0  0
 33 69  1  0  0  0  0
 34 52  1  0  0  0  0
 34 66  1  0  0  0  0
 34 75  2  0  0  0  0
 35 70  1  0  0  0  0
 35 76  2  0  0  0  0
 36 53  1  0  0  0  0
 36 72  1  0  0  0  0
 36 77  2  0  0  0  0
 37 61  1  0  0  0  0
 37 67  1  0  0  0  0
 37 78  2  0  0  0  0
 38 62  1  0  0  0  0
 38 73  1  0  0  0  0
 38 79  2  0  0  0  0
 39 68  1  0  0  0  0
 39 71  1  0  0  0  0
 39 80  2  0  0  0  0
 40 43  1  0  0  0  0
 41 53  1  0  0  0  0
 42 67  1  0  0  0  0
 43 45  1  0  0  0  0
 44 46  1  0  0  0  0
 44 48  1  0  0  0  0
 45 51  1  0  0  0  0
 46 54  1  0  0  0  0
 47 49  1  0  0  0  0
 47 52  1  0  0  0  0
 48 68  1  0  0  0  0
 49 66  1  0  0  0  0
 50 54  1  0  0  0  0
 50 68  1  0  0  0  0
 51 72  1  0  0  0  0
 52 60  1  0  0  0  0
 53 67  1  0  0  0  0
 54 65  1  0  0  0  0
 55 62  1  0  0  0  0
 56 63  1  0  0  0  0
 57 63  1  0  0  0  0
 58 63  1  0  0  0  0
 59 74  1  0  0  0  0
 60 82  1  0  0  0  0
 61 63  1  0  0  0  0
 61 73  1  0  0  0  0
 62 74  1  0  0  0  0
 64 65  1  0  0  0  0
M  CHG  1  74   1
M  ISO  4  39 100  60 101  71 100  82 101
M  END
> <Batch ID>
0021

> <Smiles>
CNC(C)C(=O)NC(C(=O)N1Cc2cc([101O:1][101CH2:1]C3CCN(c4ccc([100NH:0][100C:0](=O)N5CCCC(n6nc(-c7ccc(Oc8ccc(F)cc8F)cc7)c(C(N)=O)c6N)C5)c(F)c4)C3=O)ccc2CC1C(=O)NC1CCCc2ccccc21)C(C)(C)C

> <Shape>
0.296

> <Color>
0.195

> <Negative vol penalty>
0.000

$$$$

  -OEChem-04042321113D

 83 91  0     1  0  0  0  0  0999 V2000
  -25.6286  -18.0032   19.6851 C   0  0  0  0  0  0  0  0  0  0  0  0
  -24.6671  -18.9810   19.9190 C   0  0  0  0  0  0  0  0  0  0  0  0
  -28.3577  -13.1470   19.0558 C   0  0  0  0  0  0  0  0  0  0  0  0
  -28.5153  -13.6177   21.4202 C   0  0  0  0  0  0  0  0  0  0  0  0
  -26.9590  -18.2389   20.0293 C   0  0  0  0  0  0  0  0  0  0  0  0
  -25.0352  -20.1948   20.4983 C   0  0  0  0  0  0  0  0  0  0  0  0
  -22.9445  -24.1739   18.1658 C   0  0  0  0  0  0  0  0  0  0  0  0
  -20.1260  -20.3646   23.4779 C   0  0  0  0  0  0  0  0  0  0  0  0
  -20.0310  -21.7455   23.3064 C   0  0  0  0  0  0  0  0  0  0  0  0
  -29.7096  -13.4550   18.9043 C   0  0  0  0  0  0  0  0  0  0  0  0
  -29.8673  -13.9257   21.2688 C   0  0  0  0  0  0  0  0  0  0  0  0
  -21.6085  -24.4505   18.4527 C   0  0  0  0  0  0  0  0  0  0  0  0
  -33.2728  -15.1833   21.4429 C   0  0  0  0  0  0  0  0  0  0  0  0
  -33.7514  -16.3301   22.0765 C   0  0  0  0  0  0  0  0  0  0  0  0
  -22.3017  -26.1810   19.9837 C   0  0  0  0  0  0  0  0  0  0  0  0
  -18.2784  -21.4224   21.6752 C   0  0  0  0  0  0  0  0  0  0  0  0
  -32.2010  -17.6790   20.8062 C   0  0  0  0  0  0  0  0  0  0  0  0
  -27.7605  -13.2284   20.3137 C   0  0  0  0  0  0  0  0  0  0  0  0
  -25.8056  -11.6510   20.7589 C   0  0  0  0  0  0  0  0  0  0  0  0
  -27.3452  -19.4599   20.6043 C   0  0  0  0  0  0  0  0  0  0  0  0
  -23.9712  -24.8927   18.7950 C   0  0  0  0  0  0  0  0  0  0  0  0
  -26.3718  -20.4465   20.8518 C   0  0  0  0  0  0  0  0  0  0  0  0
  -23.6499  -25.9134   19.7011 C   0  0  0  0  0  0  0  0  0  0  0  0
  -19.2972  -19.5124   22.7480 C   0  0  0  0  0  0  0  0  0  0  0  0
  -18.3734  -20.0413   21.8467 C   0  0  0  0  0  0  0  0  0  0  0  0
  -19.1072  -22.2745   22.4051 C   0  0  0  0  0  0  0  0  0  0  0  0
  -30.4644  -13.8443   20.0108 C   0  0  0  0  0  0  0  0  0  0  0  0
  -21.2870  -25.4522   19.3640 C   0  0  0  0  0  0  0  0  0  0  0  0
  -32.2583  -15.2843   20.4909 C   0  0  0  0  0  0  0  0  0  0  0  0
  -33.2155  -17.5779   21.7581 C   0  0  0  0  0  0  0  0  0  0  0  0
  -31.7224  -16.5321   20.1726 C   0  0  0  0  0  0  0  0  0  0  0  0
  -26.3638  -12.9108   20.4708 C   0  0  0  0  0  0  0  0  0  0  0  0
  -24.4518  -11.8777   20.8049 C   0  0  0  0  0  0  0  0  0  0  0  0
  -26.4530  -10.3887   20.9666 C   0  0  0  0  0  0  0  0  0  0  0  0
  -26.3717  -24.1398   20.7377 C   0  0  0  0  0  0  0  0  0  0  0  0
  -27.1811  -27.2515   20.3083 C   0  0  0  0  0  0  0  0  0  0  0  0
  -26.1923  -30.4187   19.5096 C   0  0  0  0  0  0  0  0  0  0  0  0
  -21.3151  -16.7268   22.0310 C   0  0  0  0  0  0  0  0  0  0  0  0
  -28.7872  -19.6506   21.0029 C   0  0  0  0  0  0  0  0  0  0  0  0
  -25.4068  -24.6003   18.4545 C   0  0  0  0  0  0  0  0  0  0  0  0
  -24.7144  -26.7277   20.3883 C   0  0  0  0  0  0  0  0  0  0  0  0
  -29.1582  -21.1074   21.2684 C   0  0  0  0  0  0  0  0  0  0  0  0
  -21.0730  -14.7521   19.0079 C   0  0  0  0  0  0  0  0  0  0  0  0
  -28.1049  -21.7750   22.1468 C   0  0  0  0  0  0  0  0  0  0  0  0
  -22.3629  -13.9325   19.0758 C   0  0  0  0  0  0  0  0  0  0  0  0
  -21.2917  -16.1711   19.5243 C   0  0  0  0  0  0  0  0  0  0  0  0
  -23.1411  -15.4269   20.9734 C   0  0  0  0  0  0  0  0  0  0  0  0
  -26.7362  -21.7855   21.4556 C   0  0  1  0  0  0  0  0  0  0  0  0
  -26.3812  -25.0471   19.5400 C   0  0  1  0  0  0  0  0  0  0  0  0
  -22.9804  -13.9755   20.4861 C   0  0  2  0  0  0  0  0  0  0  0  0
  -17.4767  -19.1486   21.0533 C   0  0  0  0  0  0  0  0  0  0  0  0
  -27.0711  -32.7581   19.2814 C   0  0  0  0  0  0  0  0  0  0  0  0
  -27.2194  -27.5309   23.3464 C   0  0  0  0  0  0  0  0  0  0  0  0
  -27.1534  -30.0159   23.0490 C   0  0  0  0  0  0  0  0  0  0  0  0
  -29.0850  -28.7069   22.1671 C   0  0  0  0  0  0  0  0  0  0  0  0
  -25.4813  -30.5297   16.6388 C   0  0  0  0  0  0  0  0  0  0  0  0
  -19.4181  -18.0374   22.9480 C   0  0  0  0  0  0  0  0  0  0  0  0
  -18.2770  -25.7925   21.3320 C   0  0  0  0  0  0  0  0  0  0  0  0
  -18.0876  -24.2805   21.3271 C   0  0  0  0  0  0  0  0  0  0  0  0
  -19.6913  -26.2162   20.9533 C   0  0  0  0  0  0  0  0  0  1  0  0
  -26.8461  -28.5490   21.0033 C   0  0  1  0  0  0  0  0  0  0  0  0
  -26.7812  -31.4493   18.5633 C   0  0  2  0  0  0  0  0  0  0  0  0
  -27.5557  -28.6842   22.3801 C   0  0  0  0  0  0  0  0  0  0  0  0
  -25.4400  -13.8670   20.3425 N   0  0  0  0  0  0  0  0  0  0  0  0
  -24.2877  -13.2077   20.5510 N   0  0  0  0  0  0  0  0  0  0  0  0
  -26.1034  -26.3998   20.0270 N   0  0  0  0  0  0  0  0  0  0  0  0
  -21.8638  -16.1415   20.8779 N   0  0  0  0  0  0  0  0  0  0  0  0
  -23.3975  -11.0672   21.0373 N   0  0  0  0  0  0  0  0  0  0  0  0
  -27.8510  -10.3332   20.8837 N   0  0  0  0  0  0  0  0  0  0  0  0
  -19.0125  -23.6470   22.2356 N   0  0  0  0  0  0  0  0  0  0  0  0
  -26.6857  -22.8252   20.4501 N   0  0  0  0  0  0  0  0  0  0  0  0
  -27.1675  -29.6131   20.0584 N   0  0  0  0  0  0  0  0  0  0  0  0
  -20.1074  -17.3907   21.8536 N   0  0  0  0  0  0  0  0  0  0  0  0
  -25.8355  -31.7261   17.4452 N   0  3  0  0  0  0  0  0  0  0  0  0
  -25.8098   -9.3378   21.2020 O   0  0  0  0  0  0  0  0  0  0  0  0
  -26.1011  -24.5987   21.8412 O   0  0  0  0  0  0  0  0  0  0  0  0
  -28.3549  -27.0059   20.0189 O   0  0  0  0  0  0  0  0  0  0  0  0
  -24.9880  -30.3388   19.7417 O   0  0  0  0  0  0  0  0  0  0  0  0
  -21.8587  -16.6582   23.1387 O   0  0  0  0  0  0  0  0  0  0  0  0
  -31.7837  -14.1448   19.8634 O   0  0  0  0  0  0  0  0  0  0  0  0
  -19.9837  -25.7237   19.6463 O   0  0  0  0  0  0  0  0  0  1  0  0
  -33.6741  -18.6789   22.3677 F   0  0  0  0  0  0  0  0  0  0  0  0
  -30.7468  -16.6353   19.2597 F   0  0  0  0  0  0  0  0  0  0  0  0
  1  2  1  0  0  0  0
  1  5  2  0  0  0  0
  2  6  2  0  0  0  0
  3 10  2  0  0  0  0
  3 18  1  0  0  0  0
  4 11  1  0  0  0  0
  4 18  2  0  0  0  0
  5 20  1  0  0  0  0
  6 22  1  0  0  0  0
  7 12  2  0  0  0  0
  7 21  1  0  0  0  0
  8  9  2  0  0  0  0
  8 24  1  0  0  0  0
  9 26  1  0  0  0  0
 10 27  1  0  0  0  0
 11 27  2  0  0  0  0
 12 28  1  0  0  0  0
 13 14  2  0  0  0  0
 13 29  1  0  0  0  0
 14 30  1  0  0  0  0
 15 23  1  0  0  0  0
 15 28  2  0  0  0  0
 16 25  1  0  0  0  0
 16 26  2  0  0  0  0
 17 30  2  0  0  0  0
 17 31  1  0  0  0  0
 18 32  1  0  0  0  0
 19 32  1  0  0  0  0
 19 33  2  0  0  0  0
 19 34  1  0  0  0  0
 20 22  2  0  0  0  0
 20 39  1  0  0  0  0
 21 23  2  0  0  0  0
 21 40  1  0  0  0  0
 22 48  1  0  0  0  0
 23 41  1  0  0  0  0
 24 25  2  0  0  0  0
 24 57  1  0  0  0  0
 25 51  1  0  0  0  0
 26 70  1  0  0  0  0
 27 80  1  0  0  0  0
 28 81  1  0  0  0  0
 29 31  2  0  0  0  0
 29 80  1  0  0  0  0
 30 82  1  0  0  0  0
 31 83  1  0  0  0  0
 32 64  2  0  0  0  0
 33 65  1  0  0  0  0
 33 68  1  0  0  0  0
 34 69  1  0  0  0  0
 34 75  2  0  0  0  0
 35 49  1  0  0  0  0
 35 71  1  0  0  0  0
 35 76  2  0  0  0  0
 36 61  1  0  0  0  0
 36 66  1  0  0  0  0
 36 77  2  0  0  0  0
 37 62  1  0  0  0  0
 37 72  1  0  0  0  0
 37 78  2  0  0  0  0
 38 67  1  0  0  0  0
 38 73  1  0  0  0  0
 38 79  2  0  0  0  0
 39 42  1  0  0  0  0
 40 49  1  0  0  0  0
 41 66  1  0  0  0  0
 42 44  1  0  0  0  0
 43 45  1  0  0  0  0
 43 46  1  0  0  0  0
 44 48  1  0  0  0  0
 45 50  1  0  0  0  0
 46 67  1  0  0  0  0
 47 50  1  0  0  0  0
 47 67  1  0  0  0  0
 48 71  1  0  0  0  0
 49 66  1  0  0  0  0
 50 65  1  0  0  0  0
 52 62  1  0  0  0  0
 53 63  1  0  0  0  0
 54 63  1  0  0  0  0
 55 63  1  0  0  0  0
 56 74  1  0  0  0  0
 57 73  1  0  0  0  0
 58 59  1  0  0  0  0
 58 60  1  0  0  0  0
 59 70  1  0  0  0  0
 60 81  1  0  0  0  0
 61 63  1  0  0  0  0
 61 72  1  0  0  0  0
 62 74  1  0  0  0  0
 64 65  1  0  0  0  0
M  CHG  1  74   1
M  ISO  4  38 100  60 101  73 100  81 101
M  END
> <Batch ID>
0021

> <Smiles>
CNC(C)C(=O)NC(C(=O)N1Cc2cc([101O:1][101CH2:1]CCNc3ccc(C[100NH:0][100C:0](=O)N4CCCC(n5nc(-c6ccc(Oc7ccc(F)cc7F)cc6)c(C(N)=O)c5N)C4)c(C)c3)ccc2CC1C(=O)NC1CCCc2ccccc21)C(C)(C)C

> <Shape>
0.185

> <Color>
0.062

> <Negative vol penalty>
0.000

$$$$

  -OEChem-04042321113D

 86 94  0     1  0  0  0  0  0999 V2000
  -27.7895  -23.9978   27.5862 C   0  0  0  0  0  0  0  0  0  0  0  0
  -27.6262  -24.5717   26.3295 C   0  0  0  0  0  0  0  0  0  0  0  0
  -24.3134  -13.8661   21.4063 C   0  0  0  0  0  0  0  0  0  0  0  0
  -26.7052  -13.5504   21.2774 C   0  0  0  0  0  0  0  0  0  0  0  0
  -26.8949  -23.0240   28.0282 C   0  0  0  0  0  0  0  0  0  0  0  0
  -26.5687  -24.1714   25.5135 C   0  0  0  0  0  0  0  0  0  0  0  0
  -24.1956  -28.0861   23.3482 C   0  0  0  0  0  0  0  0  0  0  0  0
  -24.1168  -12.6132   20.8256 C   0  0  0  0  0  0  0  0  0  0  0  0
  -26.5086  -12.2975   20.6969 C   0  0  0  0  0  0  0  0  0  0  0  0
  -24.8138  -28.6747   22.2459 C   0  0  0  0  0  0  0  0  0  0  0  0
  -22.9826   -9.3452   19.7083 C   0  0  0  0  0  0  0  0  0  0  0  0
  -22.0199   -8.5110   20.2766 C   0  0  0  0  0  0  0  0  0  0  0  0
  -23.3463  -27.4485   20.7756 C   0  0  0  0  0  0  0  0  0  0  0  0
  -29.3063  -26.7687   18.1995 C   0  0  0  0  0  0  0  0  0  0  0  0
  -29.4516  -26.4991   20.5961 C   0  0  0  0  0  0  0  0  0  0  0  0
  -23.2285   -8.5412   22.3683 C   0  0  0  0  0  0  0  0  0  0  0  0
  -25.6077  -14.3348   21.6321 C   0  0  0  0  0  0  0  0  0  0  0  0
  -25.9243  -15.9225   23.6036 C   0  0  0  0  0  0  0  0  0  0  0  0
  -25.8203  -22.6184   27.2211 C   0  0  0  0  0  0  0  0  0  0  0  0
  -23.1536  -27.1643   23.1718 C   0  0  0  0  0  0  0  0  0  0  0  0
  -25.6596  -23.1903   25.9446 C   0  0  0  0  0  0  0  0  0  0  0  0
  -22.7148  -26.8514   21.8774 C   0  0  0  0  0  0  0  0  0  0  0  0
  -29.4000  -25.3864   18.0383 C   0  0  0  0  0  0  0  0  0  0  0  0
  -29.5194  -24.5604   19.1559 C   0  0  0  0  0  0  0  0  0  0  0  0
  -29.3322  -27.3251   19.4784 C   0  0  0  0  0  0  0  0  0  0  0  0
  -25.2143  -11.8289   20.4710 C   0  0  0  0  0  0  0  0  0  0  0  0
  -24.3911  -28.3538   20.9593 C   0  0  0  0  0  0  0  0  0  0  0  0
  -24.0683   -9.7773   20.4700 C   0  0  0  0  0  0  0  0  0  0  0  0
  -22.1429   -8.1090   21.6066 C   0  0  0  0  0  0  0  0  0  0  0  0
  -24.1912   -9.3753   21.8000 C   0  0  0  0  0  0  0  0  0  0  0  0
  -29.5453  -25.1168   20.4348 C   0  0  0  0  0  0  0  0  0  0  0  0
  -25.8115  -15.6292   22.2313 C   0  0  0  0  0  0  0  0  0  0  0  0
  -26.1072  -17.2829   23.6500 C   0  0  0  0  0  0  0  0  0  0  0  0
  -25.8688  -15.0437   24.7351 C   0  0  0  0  0  0  0  0  0  0  0  0
  -22.7273  -24.0968   23.8873 C   0  0  0  0  0  0  0  0  0  0  0  0
  -19.7188  -24.6676   22.8171 C   0  0  0  0  0  0  0  0  0  0  0  0
  -17.6436  -26.5611   20.8793 C   0  0  0  0  0  0  0  0  0  0  0  0
  -28.3577  -21.0851   19.7341 C   0  0  0  0  0  0  0  0  0  0  0  0
  -24.9067  -21.5283   27.7228 C   0  0  0  0  0  0  0  0  0  0  0  0
  -22.4793  -26.5584   24.3720 C   0  0  0  0  0  0  0  0  0  0  0  0
  -21.5868  -25.8833   21.6348 C   0  0  0  0  0  0  0  0  0  0  0  0
  -23.5945  -21.4294   26.9491 C   0  0  0  0  0  0  0  0  0  0  0  0
  -25.0720  -21.2851   21.2379 C   0  0  0  0  0  0  0  0  0  0  0  0
  -23.8557  -21.4745   25.4469 C   0  0  0  0  0  0  0  0  0  0  0  0
  -24.9062  -19.8704   21.7959 C   0  0  0  0  0  0  0  0  0  0  0  0
  -25.8019  -21.2689   19.8981 C   0  0  0  0  0  0  0  0  0  0  0  0
  -26.9653  -19.1771   20.4847 C   0  0  0  0  0  0  0  0  0  0  0  0
  -24.5105  -22.8002   25.0404 C   0  0  1  0  0  0  0  0  0  0  0  0
  -21.7717  -25.2435   24.0594 C   0  0  1  0  0  0  0  0  0  0  0  0
  -26.2544  -19.1276   21.8494 C   0  0  2  0  0  0  0  0  0  0  0  0
  -29.3697  -24.8176   16.6573 C   0  0  0  0  0  0  0  0  0  0  0  0
  -31.3597  -29.1329   20.7653 C   0  0  0  0  0  0  0  0  0  0  0  0
  -15.2426  -26.7622   20.1778 C   0  0  0  0  0  0  0  0  0  0  0  0
  -20.0728  -22.2936   20.9333 C   0  0  0  0  0  0  0  0  0  0  0  0
  -18.0949  -23.1162   19.6373 C   0  0  0  0  0  0  0  0  0  0  0  0
  -17.8258  -22.4354   22.0220 C   0  0  0  0  0  0  0  0  0  0  0  0
  -17.4074  -29.2688   22.0504 C   0  0  0  0  0  0  0  0  0  0  0  0
  -29.6188  -23.0789   18.9652 C   0  0  0  0  0  0  0  0  0  0  0  0
  -27.0461  -29.1576   18.6604 C   0  0  0  0  0  0  0  0  0  0  0  0
  -29.8869  -29.3634   20.7814 C   0  0  0  0  0  0  0  0  0  0  0  0
  -28.5218  -29.5362   18.6945 C   0  0  0  0  0  0  0  0  0  0  0  0
  -26.3678  -29.2840   20.0194 C   0  0  0  0  0  0  0  0  0  1  0  0
  -19.0284  -24.5914   21.4767 C   0  0  1  0  0  0  0  0  0  0  0  0
  -16.3020  -27.2076   21.1737 C   0  0  2  0  0  0  0  0  0  0  0  0
  -18.7781  -23.1259   21.0215 C   0  0  0  0  0  0  0  0  0  0  0  0
  -25.9140  -16.7160   21.4617 N   0  0  0  0  0  0  0  0  0  0  0  0
  -26.0930  -17.7054   22.3533 N   0  0  0  0  0  0  0  0  0  0  0  0
  -20.9635  -25.3125   22.8403 N   0  0  0  0  0  0  0  0  0  0  0  0
  -27.0854  -20.5637   20.0220 N   0  0  0  0  0  0  0  0  0  0  0  0
  -26.2771  -18.1471   24.6732 N   0  0  0  0  0  0  0  0  0  0  0  0
  -25.6751  -13.6742   24.5086 N   0  0  0  0  0  0  0  0  0  0  0  0
  -23.5234  -23.8573   24.9911 N   0  0  0  0  0  0  0  0  0  0  0  0
  -17.8169  -25.3955   21.5953 N   0  0  0  0  0  0  0  0  0  0  0  0
  -28.3836  -22.4030   19.2947 N   0  0  0  0  0  0  0  0  0  0  0  0
  -29.2381  -28.7148   19.6403 N   0  0  3  0  0  0  0  0  0  0  0  0
  -16.4164  -28.6920   21.1059 N   0  3  0  0  0  0  0  0  0  0  0  0
  -25.9710  -15.4627   25.9130 O   0  0  0  0  0  0  0  0  0  0  0  0
  -22.7403  -23.4743   22.8318 O   0  0  0  0  0  0  0  0  0  0  0  0
  -19.1704  -24.1795   23.8084 O   0  0  0  0  0  0  0  0  0  0  0  0
  -18.4549  -27.0400   20.0901 O   0  0  0  0  0  0  0  0  0  0  0  0
  -29.3950  -20.4262   19.8641 O   0  0  0  0  0  0  0  0  0  0  0  0
  -25.0228  -10.6061   19.9046 O   0  0  0  0  0  0  0  0  0  0  0  0
  -24.9932  -28.9265   19.8816 O   0  0  0  0  0  0  0  0  0  1  0  0
  -21.2175   -7.3091   22.1526 F   0  0  0  0  0  0  0  0  0  0  0  0
  -25.2314   -9.7882   22.5371 F   0  0  0  0  0  0  0  0  0  0  0  0
  -29.6919  -24.1289   21.8433 Cl  0  0  0  0  0  0  0  0  0  0  0  0
  1  2  1  0  0  0  0
  1  5  2  0  0  0  0
  2  6  2  0  0  0  0
  3  8  2  0  0  0  0
  3 17  1  0  0  0  0
  4  9  1  0  0  0  0
  4 17  2  0  0  0  0
  5 19  1  0  0  0  0
  6 21  1  0  0  0  0
  7 10  2  0  0  0  0
  7 20  1  0  0  0  0
  8 26  1  0  0  0  0
  9 26  2  0  0  0  0
 10 27  1  0  0  0  0
 11 12  2  0  0  0  0
 11 28  1  0  0  0  0
 12 29  1  0  0  0  0
 13 22  1  0  0  0  0
 13 27  2  0  0  0  0
 14 23  2  0  0  0  0
 14 25  1  0  0  0  0
 15 25  2  0  0  0  0
 15 31  1  0  0  0  0
 16 29  2  0  0  0  0
 16 30  1  0  0  0  0
 17 32  1  0  0  0  0
 18 32  1  0  0  0  0
 18 33  2  0  0  0  0
 18 34  1  0  0  0  0
 19 21  2  0  0  0  0
 19 39  1  0  0  0  0
 20 22  2  0  0  0  0
 20 40  1  0  0  0  0
 21 48  1  0  0  0  0
 22 41  1  0  0  0  0
 23 24  1  0  0  0  0
 23 51  1  0  0  0  0
 24 31  2  0  0  0  0
 24 58  1  0  0  0  0
 25 75  1  0  0  0  0
 26 82  1  0  0  0  0
 27 83  1  0  0  0  0
 28 30  2  0  0  0  0
 28 82  1  0  0  0  0
 29 84  1  0  0  0  0
 30 85  1  0  0  0  0
 31 86  1  0  0  0  0
 32 66  2  0  0  0  0
 33 67  1  0  0  0  0
 33 70  1  0  0  0  0
 34 71  1  0  0  0  0
 34 77  2  0  0  0  0
 35 49  1  0  0  0  0
 35 72  1  0  0  0  0
 35 78  2  0  0  0  0
 36 63  1  0  0  0  0
 36 68  1  0  0  0  0
 36 79  2  0  0  0  0
 37 64  1  0  0  0  0
 37 73  1  0  0  0  0
 37 80  2  0  0  0  0
 38 69  1  0  0  0  0
 38 74  1  0  0  0  0
 38 81  2  0  0  0  0
 39 42  1  0  0  0  0
 40 49  1  0  0  0  0
 41 68  1  0  0  0  0
 42 44  1  0  0  0  0
 43 45  1  0  0  0  0
 43 46  1  0  0  0  0
 44 48  1  0  0  0  0
 45 50  1  0  0  0  0
 46 69  1  0  0  0  0
 47 50  1  0  0  0  0
 47 69  1  0  0  0  0
 48 72  1  0  0  0  0
 49 68  1  0  0  0  0
 50 67  1  0  0  0  0
 52 60  1  0  0  0  0
 53 64  1  0  0  0  0
 54 65  1  0  0  0  0
 55 65  1  0  0  0  0
 56 65  1  0  0  0  0
 57 76  1  0  0  0  0
 58 74  1  0  0  0  0
 59 61  1  0  0  0  0
 59 62  1  0  0  0  0
 60 75  1  0  0  0  0
 61 75  1  0  0  0  0
 62 83  1  0  0  0  0
 63 65  1  0  0  0  0
 63 73  1  0  0  0  0
 64 76  1  0  0  0  0
 66 67  1  0  0  0  0
M  CHG  1  76   1
M  ISO  4  38 100  62 101  74 100  83 101
M  END
> <Batch ID>
0021

> <Smiles>
CCN(CC[101CH2:1][101O:1]c1ccc2c(c1)CN(C(=O)C(NC(=O)C(C)NC)C(C)(C)C)C(C(=O)NC1CCCc3ccccc31)C2)c1cc(C)c(C[100NH:0][100C:0](=O)N2CCCC(n3nc(-c4ccc(Oc5ccc(F)cc5F)cc4)c(C(N)=O)c3N)C2)c(Cl)c1

> <Shape>
0.192

> <Color>
0.053

> <Negative vol penalty>
0.000

$$$$

  -OEChem-04042321113D

 96105  0     1  0  0  0  0  0999 V2000
  -26.1444  -35.2592   13.7629 C   0  0  0  0  0  0  0  0  0  0  0  0
  -25.8374  -34.0069   14.2853 C   0  0  0  0  0  0  0  0  0  0  0  0
  -23.6795   -8.7041   20.1955 C   0  0  0  0  0  0  0  0  0  0  0  0
  -23.0847  -10.6796   21.4527 C   0  0  0  0  0  0  0  0  0  0  0  0
  -27.0100  -36.1076   14.4521 C   0  0  0  0  0  0  0  0  0  0  0  0
  -26.3966  -33.6018   15.4967 C   0  0  0  0  0  0  0  0  0  0  0  0
  -23.7606  -30.1127   19.7844 C   0  0  0  0  0  0  0  0  0  0  0  0
  -31.0579  -19.0596   19.6122 C   0  0  0  0  0  0  0  0  0  0  0  0
  -30.8769  -17.6784   19.6840 C   0  0  0  0  0  0  0  0  0  0  0  0
  -28.5866  -21.9819   20.3183 C   0  0  0  0  0  0  0  0  0  0  0  0
  -22.7354   -7.9657   20.9091 C   0  0  0  0  0  0  0  0  0  0  0  0
  -22.1405   -9.9413   22.1662 C   0  0  0  0  0  0  0  0  0  0  0  0
  -23.8562  -28.7528   20.0763 C   0  0  0  0  0  0  0  0  0  0  0  0
  -27.6917  -22.9607   20.7503 C   0  0  0  0  0  0  0  0  0  0  0  0
  -22.4946   -6.5056   23.9479 C   0  0  0  0  0  0  0  0  0  0  0  0
  -22.8780   -5.2514   24.4227 C   0  0  0  0  0  0  0  0  0  0  0  0
  -25.5224  -29.2359   21.7524 C   0  0  0  0  0  0  0  0  0  0  0  0
  -29.4044  -23.4830   18.6110 C   0  0  0  0  0  0  0  0  0  0  0  0
  -29.0844  -19.2464   18.2311 C   0  0  0  0  0  0  0  0  0  0  0  0
  -21.1187   -4.2225   23.1252 C   0  0  0  0  0  0  0  0  0  0  0  0
  -23.8542  -10.0610   20.4674 C   0  0  0  0  0  0  0  0  0  0  0  0
  -24.6271  -11.5283   18.5290 C   0  0  0  0  0  0  0  0  0  0  0  0
  -27.5725  -35.7165   15.6774 C   0  0  0  0  0  0  0  0  0  0  0  0
  -24.5544  -31.0449   20.4679 C   0  0  0  0  0  0  0  0  0  0  0  0
  -27.2715  -34.4452   16.2023 C   0  0  0  0  0  0  0  0  0  0  0  0
  -25.4331  -30.6073   21.4692 C   0  0  0  0  0  0  0  0  0  0  0  0
  -28.5094  -24.4619   19.0430 C   0  0  0  0  0  0  0  0  0  0  0  0
  -29.4430  -22.2430   19.2486 C   0  0  0  0  0  0  0  0  0  0  0  0
  -30.1616  -19.8436   18.8857 C   0  0  0  0  0  0  0  0  0  0  0  0
  -29.7997  -17.0812   19.0294 C   0  0  0  0  0  0  0  0  0  0  0  0
  -21.9659   -8.5844   21.8944 C   0  0  0  0  0  0  0  0  0  0  0  0
  -24.7393  -28.3139   21.0584 C   0  0  0  0  0  0  0  0  0  0  0  0
  -27.6531  -24.2007   20.1127 C   0  0  0  0  0  0  0  0  0  0  0  0
  -21.4233   -6.6184   23.0618 C   0  0  0  0  0  0  0  0  0  0  0  0
  -22.1900   -4.1098   24.0113 C   0  0  0  0  0  0  0  0  0  0  0  0
  -20.7353   -5.4768   22.6504 C   0  0  0  0  0  0  0  0  0  0  0  0
  -28.9034  -17.8652   18.3028 C   0  0  0  0  0  0  0  0  0  0  0  0
  -24.8297  -10.8241   19.7310 C   0  0  0  0  0  0  0  0  0  0  0  0
  -25.8522  -12.0798   18.2435 C   0  0  0  0  0  0  0  0  0  0  0  0
  -23.4378  -11.6712   17.7410 C   0  0  0  0  0  0  0  0  0  0  0  0
  -26.8057  -33.1230   19.6211 C   0  0  0  0  0  0  0  0  0  0  0  0
  -26.5911  -34.0280   22.7287 C   0  0  0  0  0  0  0  0  0  0  0  0
  -25.7491  -33.2095   25.9331 C   0  0  0  0  0  0  0  0  0  0  0  0
  -30.4628  -14.7798   19.8104 C   0  0  0  0  0  0  0  0  0  0  0  0
  -28.5399  -36.6489   16.3625 C   0  0  0  0  0  0  0  0  0  0  0  0
  -24.4201  -32.5110   20.1599 C   0  0  0  0  0  0  0  0  0  0  0  0
  -26.2927  -31.5696   22.2460 C   0  0  0  0  0  0  0  0  0  0  0  0
  -28.7958  -36.2940   17.8250 C   0  0  0  0  0  0  0  0  0  0  0  0
  -30.3982  -11.2553   20.3112 C   0  0  0  0  0  0  0  0  0  0  0  0
  -29.0556  -34.7983   17.9738 C   0  0  0  0  0  0  0  0  0  0  0  0
  -28.9271  -10.8868   20.1060 C   0  0  0  0  0  0  0  0  0  0  0  0
  -30.5527  -12.6051   21.0095 C   0  0  0  0  0  0  0  0  0  0  0  0
  -28.3573  -13.3481   20.1745 C   0  0  0  0  0  0  0  0  0  0  0  0
  -27.8387  -33.9798   17.5259 C   0  0  1  0  0  0  0  0  0  0  0  0
  -25.6495  -33.3208   20.5601 C   0  0  1  0  0  0  0  0  0  0  0  0
  -28.1516  -12.0264   19.4164 C   0  0  2  0  0  0  0  0  0  0  0  0
  -32.0390  -21.4597   17.0605 C   0  0  0  0  0  0  0  0  0  0  0  0
  -30.4852  -28.1831   20.5219 C   0  0  0  0  0  0  0  0  0  0  0  0
  -28.8782  -28.5605   17.4092 C   0  0  0  0  0  0  0  0  0  0  0  0
  -25.7211  -34.1432   28.2622 C   0  0  0  0  0  0  0  0  0  0  0  0
  -29.6089  -33.6221   22.9251 C   0  0  0  0  0  0  0  0  0  0  0  0
  -29.3780  -33.6335   25.4180 C   0  0  0  0  0  0  0  0  0  0  0  0
  -28.7512  -35.6565   24.0999 C   0  0  0  0  0  0  0  0  0  0  0  0
  -22.8096  -32.9306   26.1341 C   0  0  0  0  0  0  0  0  0  0  0  0
  -28.4823  -25.7841   18.3499 C   0  0  0  0  0  0  0  0  0  0  0  0
  -31.6987  -21.7361   18.4854 C   0  0  0  0  0  0  0  0  0  0  0  0
  -30.2624  -27.0412   19.5546 C   0  0  0  0  0  0  0  0  0  0  0  0
  -28.2334  -28.2314   18.7379 C   0  0  0  0  0  0  0  0  0  0  0  0
  -24.5752  -26.0724   20.2807 C   0  0  0  0  0  0  0  0  0  1  0  0
  -25.3879  -24.8114   20.5020 C   0  0  0  0  0  0  0  0  0  0  0  0
  -27.2672  -33.6114   24.0126 C   0  0  1  0  0  0  0  0  0  0  0  0
  -24.9301  -33.9449   26.9785 C   0  0  2  0  0  0  0  0  0  0  0  0
  -28.7367  -34.1123   24.0981 C   0  0  0  0  0  0  0  0  0  0  0  0
  -26.0847  -10.9179   20.1783 N   0  0  0  0  0  0  0  0  0  0  0  0
  -26.6818  -11.6874   19.2524 N   0  0  0  0  0  0  0  0  0  0  0  0
  -26.1298  -32.9923   21.9038 N   0  0  0  0  0  0  0  0  0  0  0  0
  -29.7947  -13.6367   20.2982 N   0  0  0  0  0  0  0  0  0  0  0  0
  -26.2899  -12.8572   17.2303 N   0  0  0  0  0  0  0  0  0  0  0  0
  -22.2662  -11.0388   18.1789 N   0  0  0  0  0  0  0  0  0  0  0  0
  -29.6452  -15.6758   19.1224 N   0  0  0  0  0  0  0  0  0  0  0  0
  -26.8151  -33.9948   18.5489 N   0  0  0  0  0  0  0  0  0  0  0  0
  -26.4114  -34.0825   25.0961 N   0  0  0  0  0  0  0  0  0  0  0  0
  -30.3475  -21.2529   18.8119 N   0  0  0  0  0  0  0  0  0  0  0  0
  -23.6940  -33.1779   27.3018 N   0  3  0  0  0  0  0  0  0  0  0  0
  -28.7904  -26.9281   19.2507 N   0  3  0  0  0  0  0  0  0  0  0  0
  -23.4189  -12.3262   16.6713 O   0  0  0  0  0  0  0  0  0  0  0  0
  -27.6290  -32.2455   19.8529 O   0  0  0  0  0  0  0  0  0  0  0  0
  -26.4702  -35.2281   22.4707 O   0  0  0  0  0  0  0  0  0  0  0  0
  -25.7995  -31.9832   25.8679 O   0  0  0  0  0  0  0  0  0  0  0  0
  -31.6763  -14.9380   19.9662 O   0  0  0  0  0  0  0  0  0  0  0  0
  -21.0444   -7.8643   22.5907 O   0  0  0  0  0  0  0  0  0  0  0  0
  -24.8350  -26.9870   21.3448 O   0  0  0  0  0  0  0  0  0  1  0  0
  -26.7683  -25.1508   20.5505 O   0  0  0  0  0  0  0  0  0  0  0  0
  -22.5592   -2.9053   24.4662 F   0  0  0  0  0  0  0  0  0  0  0  0
  -19.7060   -5.5787   21.7984 F   0  0  0  0  0  0  0  0  0  0  0  0
  -27.5563  -17.1663   17.4767 Cl  0  0  0  0  0  0  0  0  0  0  0  0
  1  2  1  0  0  0  0
  1  5  2  0  0  0  0
  2  6  2  0  0  0  0
  3 11  2  0  0  0  0
  3 21  1  0  0  0  0
  4 12  1  0  0  0  0
  4 21  2  0  0  0  0
  5 23  1  0  0  0  0
  6 25  1  0  0  0  0
  7 13  2  0  0  0  0
  7 24  1  0  0  0  0
  8  9  2  0  0  0  0
  8 29  1  0  0  0  0
  9 30  1  0  0  0  0
 10 14  2  0  0  0  0
 10 28  1  0  0  0  0
 11 31  1  0  0  0  0
 12 31  2  0  0  0  0
 13 32  1  0  0  0  0
 14 33  1  0  0  0  0
 15 16  2  0  0  0  0
 15 34  1  0  0  0  0
 16 35  1  0  0  0  0
 17 26  1  0  0  0  0
 17 32  2  0  0  0  0
 18 27  1  0  0  0  0
 18 28  2  0  0  0  0
 19 29  2  0  0  0  0
 19 37  1  0  0  0  0
 20 35  2  0  0  0  0
 20 36  1  0  0  0  0
 21 38  1  0  0  0  0
 22 38  1  0  0  0  0
 22 39  2  0  0  0  0
 22 40  1  0  0  0  0
 23 25  2  0  0  0  0
 23 45  1  0  0  0  0
 24 26  2  0  0  0  0
 24 46  1  0  0  0  0
 25 54  1  0  0  0  0
 26 47  1  0  0  0  0
 27 33  2  0  0  0  0
 27 65  1  0  0  0  0
 28 83  1  0  0  0  0
 29 83  1  0  0  0  0
 30 37  2  0  0  0  0
 30 80  1  0  0  0  0
 31 91  1  0  0  0  0
 32 92  1  0  0  0  0
 33 93  1  0  0  0  0
 34 36  2  0  0  0  0
 34 91  1  0  0  0  0
 35 94  1  0  0  0  0
 36 95  1  0  0  0  0
 37 96  1  0  0  0  0
 38 74  2  0  0  0  0
 39 75  1  0  0  0  0
 39 78  1  0  0  0  0
 40 79  1  0  0  0  0
 40 86  2  0  0  0  0
 41 55  1  0  0  0  0
 41 81  1  0  0  0  0
 41 87  2  0  0  0  0
 42 71  1  0  0  0  0
 42 76  1  0  0  0  0
 42 88  2  0  0  0  0
 43 72  1  0  0  0  0
 43 82  1  0  0  0  0
 43 89  2  0  0  0  0
 44 77  1  0  0  0  0
 44 80  1  0  0  0  0
 44 90  2  0  0  0  0
 45 48  1  0  0  0  0
 46 55  1  0  0  0  0
 47 76  1  0  0  0  0
 48 50  1  0  0  0  0
 49 51  1  0  0  0  0
 49 52  1  0  0  0  0
 50 54  1  0  0  0  0
 51 56  1  0  0  0  0
 52 77  1  0  0  0  0
 53 56  1  0  0  0  0
 53 77  1  0  0  0  0
 54 81  1  0  0  0  0
 55 76  1  0  0  0  0
 56 75  1  0  0  0  0
 57 66  1  0  0  0  0
 58 67  1  0  0  0  0
 59 68  1  0  0  0  0
 60 72  1  0  0  0  0
 61 73  1  0  0  0  0
 62 73  1  0  0  0  0
 63 73  1  0  0  0  0
 64 84  1  0  0  0  0
 65 85  1  0  0  0  0
 66 83  1  0  0  0  0
 67 85  1  0  0  0  0
 68 85  1  0  0  0  0
 69 70  1  0  0  0  0
 69 92  1  0  0  0  0
 70 93  1  0  0  0  0
 71 73  1  0  0  0  0
 71 82  1  0  0  0  0
 72 84  1  0  0  0  0
 74 75  1  0  0  0  0
M  CHG  2  84   1  85   1
M  ISO  4  44 100  69 101  80 100  92 101
M  END
> <Batch ID>
0021

> <Smiles>
CCN(CC)Cc1cc(N(CC)c2ccc([100NH:0][100C:0](=O)N3CCCC(n4nc(-c5ccc(Oc6ccc(F)cc6F)cc5)c(C(N)=O)c4N)C3)c(Cl)c2)ccc1OC[101CH2:1][101O:1]c1ccc2c(c1)CN(C(=O)C(NC(=O)C(C)NC)C(C)(C)C)C(C(=O)NC1CCCc3ccccc31)C2

> <Shape>
0.275

> <Color>
0.110

> <Negative vol penalty>
0.000

$$$$

  -OEChem-04042321113D

 89 99  0     1  0  0  0  0  0999 V2000
  -27.0830  -36.6881   22.8082 C   0  0  0  0  0  0  0  0  0  0  0  0
  -27.6361  -35.4246   22.6268 C   0  0  0  0  0  0  0  0  0  0  0  0
  -24.0587  -11.2128   23.7675 C   0  0  0  0  0  0  0  0  0  0  0  0
  -24.0844  -13.5864   24.2171 C   0  0  0  0  0  0  0  0  0  0  0  0
  -25.7610  -36.8147   23.2328 C   0  0  0  0  0  0  0  0  0  0  0  0
  -26.8677  -34.2868   22.8709 C   0  0  0  0  0  0  0  0  0  0  0  0
  -27.1210  -28.9585   19.8624 C   0  0  0  0  0  0  0  0  0  0  0  0
  -32.8040  -18.5105   21.5417 C   0  0  0  0  0  0  0  0  0  0  0  0
  -32.1760  -17.3658   21.0508 C   0  0  0  0  0  0  0  0  0  0  0  0
  -23.5530  -10.9761   25.0457 C   0  0  0  0  0  0  0  0  0  0  0  0
  -23.5786  -13.3498   25.4953 C   0  0  0  0  0  0  0  0  0  0  0  0
  -27.7546  -27.7497   20.1472 C   0  0  0  0  0  0  0  0  0  0  0  0
  -20.5651  -11.1669   26.6172 C   0  0  0  0  0  0  0  0  0  0  0  0
  -19.5056  -10.2679   26.7389 C   0  0  0  0  0  0  0  0  0  0  0  0
  -25.7049  -26.9065   21.0993 C   0  0  0  0  0  0  0  0  0  0  0  0
  -30.0196  -18.3923   21.4158 C   0  0  0  0  0  0  0  0  0  0  0  0
  -20.8526   -8.8758   28.1828 C   0  0  0  0  0  0  0  0  0  0  0  0
  -24.3244  -12.5179   23.3532 C   0  0  0  0  0  0  0  0  0  0  0  0
  -24.1104  -12.9940   20.8562 C   0  0  0  0  0  0  0  0  0  0  0  0
  -24.9731  -35.6780   23.4729 C   0  0  0  0  0  0  0  0  0  0  0  0
  -25.7752  -29.1546   20.2044 C   0  0  0  0  0  0  0  0  0  0  0  0
  -25.5344  -34.3983   23.3003 C   0  0  0  0  0  0  0  0  0  0  0  0
  -25.0557  -28.1178   20.8155 C   0  0  0  0  0  0  0  0  0  0  0  0
  -30.6476  -19.5370   21.9068 C   0  0  0  0  0  0  0  0  0  0  0  0
  -32.0398  -19.5960   21.9698 C   0  0  0  0  0  0  0  0  0  0  0  0
  -30.7838  -17.3067   20.9878 C   0  0  0  0  0  0  0  0  0  0  0  0
  -23.3129  -12.0446   25.9096 C   0  0  0  0  0  0  0  0  0  0  0  0
  -27.0474  -26.7245   20.7683 C   0  0  0  0  0  0  0  0  0  0  0  0
  -21.7685  -10.9203   27.2781 C   0  0  0  0  0  0  0  0  0  0  0  0
  -19.6493   -9.1224   27.5217 C   0  0  0  0  0  0  0  0  0  0  0  0
  -21.9122   -9.7748   28.0610 C   0  0  0  0  0  0  0  0  0  0  0  0
  -24.8474  -12.7630   22.0331 C   0  0  0  0  0  0  0  0  0  0  0  0
  -25.0636  -13.1689   19.8829 C   0  0  0  0  0  0  0  0  0  0  0  0
  -22.6910  -13.0461   20.6602 C   0  0  0  0  0  0  0  0  0  0  0  0
  -24.2164  -31.1537   22.1220 C   0  0  0  0  0  0  0  0  0  0  0  0
  -21.6002  -29.7572   20.8077 C   0  0  0  0  0  0  0  0  0  0  0  0
  -20.2427  -27.0478   19.2381 C   0  0  0  0  0  0  0  0  0  0  0  0
  -30.7563  -14.9798   20.0229 C   0  0  0  0  0  0  0  0  0  0  0  0
  -23.5636  -35.8647   23.9760 C   0  0  0  0  0  0  0  0  0  0  0  0
  -25.0988  -30.4548   19.8662 C   0  0  0  0  0  0  0  0  0  0  0  0
  -23.6036  -28.2706   21.1846 C   0  0  0  0  0  0  0  0  0  0  0  0
  -22.7015  -34.6110   23.8522 C   0  0  0  0  0  0  0  0  0  0  0  0
  -34.0235  -22.6983   22.5640 C   0  0  0  0  0  0  0  0  0  0  0  0
  -33.4317  -22.4440   23.9355 C   0  0  0  0  0  0  0  0  0  0  0  0
  -29.5363  -11.8871   18.7485 C   0  0  0  0  0  0  0  0  0  0  0  0
  -23.4601  -33.3892   24.3609 C   0  0  0  0  0  0  0  0  0  0  0  0
  -28.1261  -11.7847   19.3342 C   0  0  0  0  0  0  0  0  0  0  0  0
  -26.9186  -21.8762   20.6028 C   0  0  0  0  0  0  0  0  0  0  0  0
  -33.1115  -21.8895   21.6486 C   0  0  0  0  0  0  0  0  0  0  0  0
  -33.0488  -20.9700   23.8686 C   0  0  0  0  0  0  0  0  0  0  0  0
  -30.5148  -12.5235   19.7340 C   0  0  0  0  0  0  0  0  0  0  0  0
  -28.6807  -13.7164   20.8665 C   0  0  0  0  0  0  0  0  0  0  0  0
  -28.0016  -20.8098   20.5855 C   0  0  0  0  0  0  0  0  0  0  0  0
  -28.8183  -22.8799   21.5963 C   0  0  0  0  0  0  0  0  0  0  0  0
  -24.7253  -33.1404   23.5309 C   0  0  1  0  0  0  0  0  0  0  0  0
  -23.8672  -30.7284   20.7239 C   0  0  1  0  0  0  0  0  0  0  0  0
  -27.6921  -23.1871   20.6243 C   0  0  2  0  0  0  0  0  0  0  0  0
  -27.6453  -13.1410   19.8864 C   0  0  2  0  0  0  0  0  0  0  0  0
  -18.0712  -26.1843   18.3236 C   0  0  0  0  0  0  0  0  0  0  0  0
  -20.6382  -29.1786   23.6449 C   0  0  0  0  0  0  0  0  0  0  0  0
  -19.0161  -27.5311   22.6843 C   0  0  0  0  0  0  0  0  0  0  0  0
  -18.8501  -29.9438   22.0727 C   0  0  0  0  0  0  0  0  0  0  0  0
  -21.3424  -26.8488   16.4977 C   0  0  0  0  0  0  0  0  0  0  0  0
  -29.8016  -20.6895   22.3618 C   0  0  0  0  0  0  0  0  0  0  0  0
  -26.8505  -24.3712   21.0497 C   0  0  0  0  0  0  0  0  0  1  0  0
  -20.7477  -28.5568   21.1414 C   0  0  1  0  0  0  0  0  0  0  0  0
  -19.3569  -26.9340   18.0107 C   0  0  2  0  0  0  0  0  0  0  0  0
  -19.8409  -28.8001   22.3807 C   0  0  0  0  0  0  0  0  0  0  0  0
  -26.1670  -12.7880   21.8284 N   0  0  0  0  0  0  0  0  0  0  0  0
  -26.2668  -13.0368   20.5115 N   0  0  0  0  0  0  0  0  0  0  0  0
  -32.6905  -20.7430   22.4632 N   0  0  0  0  0  0  0  0  0  0  0  0
  -22.9884  -29.5628   20.8391 N   0  0  0  0  0  0  0  0  0  0  0  0
  -29.9951  -13.8068   20.2114 N   0  0  0  0  0  0  0  0  0  0  0  0
  -24.9816  -13.4212   18.5593 N   0  0  0  0  0  0  0  0  0  0  0  0
  -21.8558  -12.8446   21.7675 N   0  0  0  0  0  0  0  0  0  0  0  0
  -30.1461  -16.1441   20.4885 N   0  0  0  0  0  0  0  0  0  0  0  0
  -24.3876  -32.5169   22.2692 N   0  0  0  0  0  0  0  0  0  0  0  0
  -20.0177  -28.2232   19.9231 N   0  0  0  0  0  0  0  0  0  0  0  0
  -29.2100  -21.4648   21.2290 N   0  3  1  0  0  0  0  0  0  0  0  0
  -20.0708  -26.2085   16.9221 N   0  3  0  0  0  0  0  0  0  0  0  0
  -22.1784  -13.2484   19.5333 O   0  0  0  0  0  0  0  0  0  0  0  0
  -24.3213  -30.3077   23.0025 O   0  0  0  0  0  0  0  0  0  0  0  0
  -21.0545  -30.8260   20.5224 O   0  0  0  0  0  0  0  0  0  0  0  0
  -21.0506  -26.1792   19.5594 O   0  0  0  0  0  0  0  0  0  0  0  0
  -31.8556  -14.9572   19.4635 O   0  0  0  0  0  0  0  0  0  0  0  0
  -22.8192  -11.8141   27.1569 O   0  0  0  0  0  0  0  0  0  0  0  0
  -27.6637  -25.5439   21.0480 O   0  0  0  0  0  0  0  0  0  1  0  0
  -18.6312   -8.2600   27.6398 F   0  0  0  0  0  0  0  0  0  0  0  0
  -23.0654   -9.5331   28.6993 F   0  0  0  0  0  0  0  0  0  0  0  0
  1  2  1  0  0  0  0
  1  5  2  0  0  0  0
  2  6  2  0  0  0  0
  3 10  2  0  0  0  0
  3 18  1  0  0  0  0
  4 11  1  0  0  0  0
  4 18  2  0  0  0  0
  5 20  1  0  0  0  0
  6 22  1  0  0  0  0
  7 12  2  0  0  0  0
  7 21  1  0  0  0  0
  8  9  2  0  0  0  0
  8 25  1  0  0  0  0
  9 26  1  0  0  0  0
 10 27  1  0  0  0  0
 11 27  2  0  0  0  0
 12 28  1  0  0  0  0
 13 14  2  0  0  0  0
 13 29  1  0  0  0  0
 14 30  1  0  0  0  0
 15 23  1  0  0  0  0
 15 28  2  0  0  0  0
 16 24  1  0  0  0  0
 16 26  2  0  0  0  0
 17 30  2  0  0  0  0
 17 31  1  0  0  0  0
 18 32  1  0  0  0  0
 19 32  1  0  0  0  0
 19 33  2  0  0  0  0
 19 34  1  0  0  0  0
 20 22  2  0  0  0  0
 20 39  1  0  0  0  0
 21 23  2  0  0  0  0
 21 40  1  0  0  0  0
 22 55  1  0  0  0  0
 23 41  1  0  0  0  0
 24 25  2  0  0  0  0
 24 64  1  0  0  0  0
 25 71  1  0  0  0  0
 26 76  1  0  0  0  0
 27 86  1  0  0  0  0
 28 87  1  0  0  0  0
 29 31  2  0  0  0  0
 29 86  1  0  0  0  0
 30 88  1  0  0  0  0
 31 89  1  0  0  0  0
 32 69  2  0  0  0  0
 33 70  1  0  0  0  0
 33 74  1  0  0  0  0
 34 75  1  0  0  0  0
 34 81  2  0  0  0  0
 35 56  1  0  0  0  0
 35 77  1  0  0  0  0
 35 82  2  0  0  0  0
 36 66  1  0  0  0  0
 36 72  1  0  0  0  0
 36 83  2  0  0  0  0
 37 67  1  0  0  0  0
 37 78  1  0  0  0  0
 37 84  2  0  0  0  0
 38 73  1  0  0  0  0
 38 76  1  0  0  0  0
 38 85  2  0  0  0  0
 39 42  1  0  0  0  0
 40 56  1  0  0  0  0
 41 72  1  0  0  0  0
 42 46  1  0  0  0  0
 43 44  1  0  0  0  0
 43 49  1  0  0  0  0
 44 50  1  0  0  0  0
 45 47  1  0  0  0  0
 45 51  1  0  0  0  0
 46 55  1  0  0  0  0
 47 58  1  0  0  0  0
 48 53  1  0  0  0  0
 48 57  1  0  0  0  0
 49 71  1  0  0  0  0
 50 71  1  0  0  0  0
 51 73  1  0  0  0  0
 52 58  1  0  0  0  0
 52 73  1  0  0  0  0
 53 79  1  0  0  0  0
 54 57  1  0  0  0  0
 54 79  1  0  0  0  0
 55 77  1  0  0  0  0
 56 72  1  0  0  0  0
 57 65  1  0  0  0  0
 58 70  1  0  0  0  0
 59 67  1  0  0  0  0
 60 68  1  0  0  0  0
 61 68  1  0  0  0  0
 62 68  1  0  0  0  0
 63 80  1  0  0  0  0
 64 79  1  0  0  0  0
 65 87  1  0  0  0  0
 66 68  1  0  0  0  0
 66 78  1  0  0  0  0
 67 80  1  0  0  0  0
 69 70  1  0  0  0  0
M  CHG  2  79   1  80   1
M  ISO  4  38 100  65 101  76 100  87 101
M  END
> <Batch ID>
0021

> <Smiles>
CNC(C)C(=O)NC(C(=O)N1Cc2cc([101O:1][101CH2:1]C3CCN(Cc4cc([100NH:0][100C:0](=O)N5CCCC(n6nc(-c7ccc(Oc8ccc(F)cc8F)cc7)c(C(N)=O)c6N)C5)ccc4N4CCCC4)C3)ccc2CC1C(=O)NC1CCCc2ccccc21)C(C)(C)C

> <Shape>
0.271

> <Color>
0.088

> <Negative vol penalty>
0.000

$$$$

  -OEChem-04042321113D

 87 96  0     1  0  0  0  0  0999 V2000
  -24.6791  -28.2964   27.6357 C   0  0  0  0  0  0  0  0  0  0  0  0
  -25.5339  -27.7041   26.7116 C   0  0  0  0  0  0  0  0  0  0  0  0
  -23.8545   -9.6958   22.2578 C   0  0  0  0  0  0  0  0  0  0  0  0
  -23.3735   -9.8046   19.8926 C   0  0  0  0  0  0  0  0  0  0  0  0
  -23.3810  -28.6412   27.2618 C   0  0  0  0  0  0  0  0  0  0  0  0
  -25.0905  -27.4553   25.4131 C   0  0  0  0  0  0  0  0  0  0  0  0
  -28.4076  -27.7375   20.2728 C   0  0  0  0  0  0  0  0  0  0  0  0
  -28.9724  -17.2967   18.9239 C   0  0  0  0  0  0  0  0  0  0  0  0
  -28.8832  -18.4047   18.0813 C   0  0  0  0  0  0  0  0  0  0  0  0
  -23.1820   -8.4765   22.3385 C   0  0  0  0  0  0  0  0  0  0  0  0
  -22.7010   -8.5852   19.9734 C   0  0  0  0  0  0  0  0  0  0  0  0
  -29.0374  -26.7568   19.5079 C   0  0  0  0  0  0  0  0  0  0  0  0
  -19.9802   -7.4032   22.4841 C   0  0  0  0  0  0  0  0  0  0  0  0
  -19.0959   -7.2209   23.5473 C   0  0  0  0  0  0  0  0  0  0  0  0
  -27.1183  -26.6706   18.0489 C   0  0  0  0  0  0  0  0  0  0  0  0
  -29.1222  -19.8722   19.9857 C   0  0  0  0  0  0  0  0  0  0  0  0
  -20.3945   -5.3288   24.3028 C   0  0  0  0  0  0  0  0  0  0  0  0
  -23.9502  -10.3599   21.0348 C   0  0  0  0  0  0  0  0  0  0  0  0
  -24.3362  -12.8077   21.6407 C   0  0  0  0  0  0  0  0  0  0  0  0
  -22.9246  -28.4053   25.9554 C   0  0  0  0  0  0  0  0  0  0  0  0
  -27.1217  -28.1852   19.9373 C   0  0  0  0  0  0  0  0  0  0  0  0
  -23.7846  -27.7961   25.0218 C   0  0  0  0  0  0  0  0  0  0  0  0
  -26.4753  -27.6590   18.8097 C   0  0  0  0  0  0  0  0  0  0  0  0
  -29.1364  -17.4764   20.2975 C   0  0  0  0  0  0  0  0  0  0  0  0
  -28.9582  -19.6924   18.6122 C   0  0  0  0  0  0  0  0  0  0  0  0
  -22.6053   -7.9211   21.1963 C   0  0  0  0  0  0  0  0  0  0  0  0
  -28.3916  -26.2211   18.3974 C   0  0  0  0  0  0  0  0  0  0  0  0
  -21.0717   -6.5484   22.3302 C   0  0  0  0  0  0  0  0  0  0  0  0
  -19.3030   -6.1837   24.4566 C   0  0  0  0  0  0  0  0  0  0  0  0
  -29.2114  -18.7641   20.8283 C   0  0  0  0  0  0  0  0  0  0  0  0
  -21.2788   -5.5112   23.2396 C   0  0  0  0  0  0  0  0  0  0  0  0
  -24.6443  -11.6198   20.9509 C   0  0  0  0  0  0  0  0  0  0  0  0
  -25.2854  -13.7061   21.2182 C   0  0  0  0  0  0  0  0  0  0  0  0
  -28.9227  -22.1821   18.1333 C   0  0  0  0  0  0  0  0  0  0  0  0
  -23.2861  -13.0751   22.5795 C   0  0  0  0  0  0  0  0  0  0  0  0
  -24.2890  -28.1556   21.3791 C   0  0  0  0  0  0  0  0  0  0  0  0
  -23.4017  -29.9352   18.8163 C   0  0  0  0  0  0  0  0  0  0  0  0
  -23.9678  -30.8239   15.5703 C   0  0  0  0  0  0  0  0  0  0  0  0
  -30.8211  -14.5611   20.2480 C   0  0  0  0  0  0  0  0  0  0  0  0
  -21.4978  -28.7521   25.6112 C   0  0  0  0  0  0  0  0  0  0  0  0
  -26.4668  -29.2629   20.7570 C   0  0  0  0  0  0  0  0  0  0  0  0
  -25.1027  -28.1201   18.3953 C   0  0  0  0  0  0  0  0  0  0  0  0
  -21.2272  -28.7972   24.1095 C   0  0  0  0  0  0  0  0  0  0  0  0
  -28.6520  -13.4445   17.4642 C   0  0  0  0  0  0  0  0  0  0  0  0
  -21.8255  -27.5738   23.4223 C   0  0  0  0  0  0  0  0  0  0  0  0
  -27.4238  -12.9044   18.1949 C   0  0  0  0  0  0  0  0  0  0  0  0
  -28.2796  -22.0565   15.8453 C   0  0  0  0  0  0  0  0  0  0  0  0
  -29.9143  -13.3264   18.3128 C   0  0  0  0  0  0  0  0  0  0  0  0
  -28.7483  -20.6922   16.3102 C   0  0  0  0  0  0  0  0  0  0  0  0
  -28.5705  -13.4173   20.3864 C   0  0  0  0  0  0  0  0  0  0  0  0
  -23.3484  -27.5327   23.5968 C   0  0  1  0  0  0  0  0  0  0  0  0
  -28.9137  -23.0032   16.8540 C   0  0  1  0  0  0  0  0  0  0  0  0
  -24.9471  -29.2751   20.6233 C   0  0  1  0  0  0  0  0  0  0  0  0
  -27.2734  -13.5641   19.5767 C   0  0  2  0  0  0  0  0  0  0  0  0
  -23.0525  -32.2711   13.7358 C   0  0  0  0  0  0  0  0  0  0  0  0
  -21.1489  -27.9284   18.3605 C   0  0  0  0  0  0  0  0  0  0  0  0
  -20.8837  -28.8563   16.0503 C   0  0  0  0  0  0  0  0  0  0  0  0
  -20.4973  -30.3206   18.0325 C   0  0  0  0  0  0  0  0  0  0  0  0
  -31.6348  -16.3328   21.7575 C   0  0  0  0  0  0  0  0  0  0  0  0
  -26.4687  -32.3980   15.4061 C   0  0  0  0  0  0  0  0  0  0  0  0
  -29.2333  -16.2888   21.1948 C   0  0  0  0  0  0  0  0  0  0  0  0
  -28.1630  -24.3141   16.9949 C   0  0  0  0  0  0  0  0  0  1  0  0
  -22.8571  -29.6323   17.4413 C   0  0  1  0  0  0  0  0  0  0  0  0
  -24.0335  -32.1816   14.8944 C   0  0  2  0  0  0  0  0  0  0  0  0
  -21.3718  -29.1741   17.4798 C   0  0  0  0  0  0  0  0  0  0  0  0
  -25.7061  -11.7487   20.1508 N   0  0  0  0  0  0  0  0  0  0  0  0
  -26.0734  -13.0282   20.3352 N   0  0  0  0  0  0  0  0  0  0  0  0
  -28.8649  -20.8262   17.7504 N   0  0  0  0  0  0  0  0  0  0  0  0
  -24.5013  -29.1713   19.2324 N   0  0  0  0  0  0  0  0  0  0  0  0
  -29.7296  -13.9232   19.6360 N   0  0  0  0  0  0  0  0  0  0  0  0
  -25.5144  -15.0019   21.5196 N   0  0  0  0  0  0  0  0  0  0  0  0
  -22.0585  -13.5448   22.0929 N   0  0  0  0  0  0  0  0  0  0  0  0
  -23.9862  -28.4645   22.6914 N   0  0  0  0  0  0  0  0  0  0  0  0
  -23.0935  -30.8259   16.6365 N   0  0  0  0  0  0  0  0  0  0  0  0
  -30.5359  -15.6322   21.1083 N   0  0  0  0  0  0  0  0  0  0  0  0
  -25.4053  -32.4330   14.3692 N   0  3  0  0  0  0  0  0  0  0  0  0
  -29.0278  -22.6774   19.2460 O   0  0  0  0  0  0  0  0  0  0  0  0
  -23.4373  -12.9182   23.8148 O   0  0  0  0  0  0  0  0  0  0  0  0
  -24.0707  -27.0909   20.8130 O   0  0  0  0  0  0  0  0  0  0  0  0
  -22.8754  -30.8220   19.4933 O   0  0  0  0  0  0  0  0  0  0  0  0
  -24.6235  -29.8572   15.1881 O   0  0  0  0  0  0  0  0  0  0  0  0
  -31.9848  -14.2003   20.0299 O   0  0  0  0  0  0  0  0  0  0  0  0
  -21.9491   -6.7312   21.2747 O   0  0  0  0  0  0  0  0  0  0  0  0
  -29.0039  -25.2632   17.6495 O   0  0  0  0  0  0  0  0  0  1  0  0
  -18.4546   -6.0096   25.4784 F   0  0  0  0  0  0  0  0  0  0  0  0
  -29.3690  -18.9469   22.1467 F   0  0  0  0  0  0  0  0  0  0  0  0
  -22.3262   -4.6874   23.0977 F   0  0  0  0  0  0  0  0  0  0  0  0
  1  2  1  0  0  0  0
  1  5  2  0  0  0  0
  2  6  2  0  0  0  0
  3 10  2  0  0  0  0
  3 18  1  0  0  0  0
  4 11  1  0  0  0  0
  4 18  2  0  0  0  0
  5 20  1  0  0  0  0
  6 22  1  0  0  0  0
  7 12  2  0  0  0  0
  7 21  1  0  0  0  0
  8  9  2  0  0  0  0
  8 24  1  0  0  0  0
  9 25  1  0  0  0  0
 10 26  1  0  0  0  0
 11 26  2  0  0  0  0
 12 27  1  0  0  0  0
 13 14  2  0  0  0  0
 13 28  1  0  0  0  0
 14 29  1  0  0  0  0
 15 23  1  0  0  0  0
 15 27  2  0  0  0  0
 16 25  2  0  0  0  0
 16 30  1  0  0  0  0
 17 29  2  0  0  0  0
 17 31  1  0  0  0  0
 18 32  1  0  0  0  0
 19 32  1  0  0  0  0
 19 33  2  0  0  0  0
 19 35  1  0  0  0  0
 20 22  2  0  0  0  0
 20 40  1  0  0  0  0
 21 23  2  0  0  0  0
 21 41  1  0  0  0  0
 22 51  1  0  0  0  0
 23 42  1  0  0  0  0
 24 30  2  0  0  0  0
 24 61  1  0  0  0  0
 25 68  1  0  0  0  0
 26 83  1  0  0  0  0
 27 84  1  0  0  0  0
 28 31  2  0  0  0  0
 28 83  1  0  0  0  0
 29 85  1  0  0  0  0
 30 86  1  0  0  0  0
 31 87  1  0  0  0  0
 32 66  2  0  0  0  0
 33 67  1  0  0  0  0
 33 71  1  0  0  0  0
 34 52  1  0  0  0  0
 34 68  1  0  0  0  0
 34 77  2  0  0  0  0
 35 72  1  0  0  0  0
 35 78  2  0  0  0  0
 36 53  1  0  0  0  0
 36 73  1  0  0  0  0
 36 79  2  0  0  0  0
 37 63  1  0  0  0  0
 37 69  1  0  0  0  0
 37 80  2  0  0  0  0
 38 64  1  0  0  0  0
 38 74  1  0  0  0  0
 38 81  2  0  0  0  0
 39 70  1  0  0  0  0
 39 75  1  0  0  0  0
 39 82  2  0  0  0  0
 40 43  1  0  0  0  0
 41 53  1  0  0  0  0
 42 69  1  0  0  0  0
 43 45  1  0  0  0  0
 44 46  1  0  0  0  0
 44 48  1  0  0  0  0
 45 51  1  0  0  0  0
 46 54  1  0  0  0  0
 47 49  1  0  0  0  0
 47 52  1  0  0  0  0
 48 70  1  0  0  0  0
 49 68  1  0  0  0  0
 50 54  1  0  0  0  0
 50 70  1  0  0  0  0
 51 73  1  0  0  0  0
 52 62  1  0  0  0  0
 53 69  1  0  0  0  0
 54 67  1  0  0  0  0
 55 64  1  0  0  0  0
 56 65  1  0  0  0  0
 57 65  1  0  0  0  0
 58 65  1  0  0  0  0
 59 75  1  0  0  0  0
 60 76  1  0  0  0  0
 61 75  1  0  0  0  0
 62 84  1  0  0  0  0
 63 65  1  0  0  0  0
 63 74  1  0  0  0  0
 64 76  1  0  0  0  0
 66 67  1  0  0  0  0
M  CHG  1  76   1
M  ISO  4  39 100  62 101  75 100  84 101
M  END
> <Batch ID>
0021

> <Smiles>
CNC(C)C(=O)NC(C(=O)N1Cc2cc([101O:1][101CH2:1]C3CCN(c4ccc(C[100N:0](C)[100C:0](=O)N5CCCC(n6nc(-c7ccc(Oc8ccc(F)cc8F)cc7)c(C(N)=O)c6N)C5)c(F)c4)C3=O)ccc2CC1C(=O)NC1CCCc2ccccc21)C(C)(C)C

> <Shape>
0.292

> <Color>
0.152

> <Negative vol penalty>
0.000

$$$$

  -OEChem-04042321113D

 85 94  0     1  0  0  0  0  0999 V2000
  -28.1883  -24.5094   17.8347 C   0  0  0  0  0  0  0  0  0  0  0  0
  -27.0703  -25.0981   18.4169 C   0  0  0  0  0  0  0  0  0  0  0  0
  -26.0906  -14.0961   19.5411 C   0  0  0  0  0  0  0  0  0  0  0  0
  -24.2770  -14.1560   21.1362 C   0  0  0  0  0  0  0  0  0  0  0  0
  -29.4260  -24.5850   18.4720 C   0  0  0  0  0  0  0  0  0  0  0  0
  -27.1893  -25.7618   19.6375 C   0  0  0  0  0  0  0  0  0  0  0  0
  -24.7594  -30.2047   19.6778 C   0  0  0  0  0  0  0  0  0  0  0  0
  -21.2092  -25.2674   23.2191 C   0  0  0  0  0  0  0  0  0  0  0  0
  -22.2995  -24.4571   22.9027 C   0  0  0  0  0  0  0  0  0  0  0  0
  -26.2969  -12.7464   19.8263 C   0  0  0  0  0  0  0  0  0  0  0  0
  -24.4833  -12.8063   21.4215 C   0  0  0  0  0  0  0  0  0  0  0  0
  -23.3749  -30.1718   19.8388 C   0  0  0  0  0  0  0  0  0  0  0  0
  -23.7423   -9.8237   20.0161 C   0  0  0  0  0  0  0  0  0  0  0  0
  -22.6192   -9.0001   20.0929 C   0  0  0  0  0  0  0  0  0  0  0  0
  -23.6397  -30.7154   22.1741 C   0  0  0  0  0  0  0  0  0  0  0  0
  -20.9676  -23.3130   21.2431 C   0  0  0  0  0  0  0  0  0  0  0  0
  -23.1711   -8.4608   22.3823 C   0  0  0  0  0  0  0  0  0  0  0  0
  -25.0807  -14.8009   20.1961 C   0  0  0  0  0  0  0  0  0  0  0  0
  -24.0192  -16.7366   18.9178 C   0  0  0  0  0  0  0  0  0  0  0  0
  -29.5622  -25.2583   19.6962 C   0  0  0  0  0  0  0  0  0  0  0  0
  -25.5963  -30.4829   20.7679 C   0  0  0  0  0  0  0  0  0  0  0  0
  -28.4298  -25.8453   20.2924 C   0  0  0  0  0  0  0  0  0  0  0  0
  -25.0343  -30.7538   22.0237 C   0  0  0  0  0  0  0  0  0  0  0  0
  -19.9980  -25.1005   22.5476 C   0  0  0  0  0  0  0  0  0  0  0  0
  -22.1787  -23.4799   21.9147 C   0  0  0  0  0  0  0  0  0  0  0  0
  -25.4932  -12.1015   20.7665 C   0  0  0  0  0  0  0  0  0  0  0  0
  -22.8150  -30.4243   21.0878 C   0  0  0  0  0  0  0  0  0  0  0  0
  -24.5799   -9.9658   21.1224 C   0  0  0  0  0  0  0  0  0  0  0  0
  -22.3335   -8.3186   21.2760 C   0  0  0  0  0  0  0  0  0  0  0  0
  -19.8772  -24.1233   21.5596 C   0  0  0  0  0  0  0  0  0  0  0  0
  -24.2942   -9.2843   22.3055 C   0  0  0  0  0  0  0  0  0  0  0  0
  -24.8675  -16.1953   19.9023 C   0  0  0  0  0  0  0  0  0  0  0  0
  -24.1724  -18.0958   19.0421 C   0  0  0  0  0  0  0  0  0  0  0  0
  -19.1625  -28.4279   23.5116 C   0  0  0  0  0  0  0  0  0  0  0  0
  -23.1687  -16.0703   17.9752 C   0  0  0  0  0  0  0  0  0  0  0  0
  -27.8777  -28.8928   22.3077 C   0  0  0  0  0  0  0  0  0  0  0  0
  -28.2416  -31.7091   23.8755 C   0  0  0  0  0  0  0  0  0  0  0  0
  -26.8659  -34.6689   24.8724 C   0  0  0  0  0  0  0  0  0  0  0  0
  -24.5571  -22.6886   22.1665 C   0  0  0  0  0  0  0  0  0  0  0  0
  -30.9111  -25.2729   20.3706 C   0  0  0  0  0  0  0  0  0  0  0  0
  -27.0865  -30.5410   20.5718 C   0  0  0  0  0  0  0  0  0  0  0  0
  -25.8882  -31.0776   23.2214 C   0  0  0  0  0  0  0  0  0  0  0  0
  -31.0272  -26.3171   21.4781 C   0  0  0  0  0  0  0  0  0  0  0  0
  -27.5383  -20.8036   21.6804 C   0  0  0  0  0  0  0  0  0  0  0  0
  -29.8020  -26.2712   22.3856 C   0  0  0  0  0  0  0  0  0  0  0  0
  -27.0394  -19.4812   21.0935 C   0  0  0  0  0  0  0  0  0  0  0  0
  -26.5771  -21.3561   22.7314 C   0  0  0  0  0  0  0  0  0  0  0  0
  -19.5911  -28.0445   21.4904 C   0  0  0  0  0  0  0  0  0  0  0  0
  -24.6833  -20.1616   21.7038 C   0  0  0  0  0  0  0  0  0  0  0  0
  -28.5235  -26.5955   21.6034 C   0  0  1  0  0  0  0  0  0  0  0  0
  -19.6201  -29.3388   22.3477 C   0  0  2  0  0  0  0  0  0  0  0  0
  -27.8681  -30.3285   21.8645 C   0  0  1  0  0  0  0  0  0  0  0  0
  -25.5861  -19.5990   20.5939 C   0  0  2  0  0  0  0  0  0  0  0  0
  -27.3958  -36.7485   26.1731 C   0  0  0  0  0  0  0  0  0  0  0  0
  -27.9334  -30.1541   26.4825 C   0  0  0  0  0  0  0  0  0  0  0  0
  -27.5191  -32.3298   27.6500 C   0  0  0  0  0  0  0  0  0  0  0  0
  -29.7061  -31.9178   26.5231 C   0  0  0  0  0  0  0  0  0  0  0  0
  -26.4363  -36.3966   22.5082 C   0  0  0  0  0  0  0  0  0  0  0  0
  -18.8274  -25.9762   22.8900 C   0  0  0  0  0  0  0  0  0  0  0  0
  -20.9709  -30.0034   22.5293 C   0  0  0  0  0  0  0  0  0  1  0  0
  -27.6449  -32.3264   25.1172 C   0  0  1  0  0  0  0  0  0  0  0  0
  -27.3821  -36.0947   24.8001 C   0  0  2  0  0  0  0  0  0  0  0  0
  -28.1846  -31.6740   26.4213 C   0  0  0  0  0  0  0  0  0  0  0  0
  -25.5120  -17.1341   20.6004 N   0  0  0  0  0  0  0  0  0  0  0  0
  -25.0685  -18.2789   20.0539 N   0  0  0  0  0  0  0  0  0  0  0  0
  -19.1166  -27.3617   22.6824 N   0  0  0  0  0  0  0  0  0  0  0  0
  -27.3400  -31.1162   22.9803 N   0  0  0  0  0  0  0  0  0  0  0  0
  -25.2208  -21.4436   22.1858 N   0  0  0  0  0  0  0  0  0  0  0  0
  -23.6267  -19.1403   18.3836 N   0  0  0  0  0  0  0  0  0  0  0  0
  -23.1307  -14.6693   17.9836 N   0  0  0  0  0  0  0  0  0  0  0  0
  -23.2857  -22.6554   21.5946 N   0  0  0  0  0  0  0  0  0  0  0  0
  -28.4157  -28.0213   21.3800 N   0  0  0  0  0  0  0  0  0  0  0  0
  -27.8929  -33.7607   25.0197 N   0  0  0  0  0  0  0  0  0  0  0  0
  -26.5216  -36.9121   23.8988 N   0  3  0  0  0  0  0  0  0  0  0  0
  -18.9360  -28.5653   24.6917 O   0  0  0  0  0  0  0  0  0  0  0  0
  -22.4758  -16.6983   17.1391 O   0  0  0  0  0  0  0  0  0  0  0  0
  -27.4314  -28.5978   23.4102 O   0  0  0  0  0  0  0  0  0  0  0  0
  -29.4620  -31.7578   23.7025 O   0  0  0  0  0  0  0  0  0  0  0  0
  -25.6708  -34.3892   24.8085 O   0  0  0  0  0  0  0  0  0  0  0  0
  -25.0890  -23.7143   22.5989 O   0  0  0  0  0  0  0  0  0  0  0  0
  -25.6941  -10.7844   21.0449 O   0  0  0  0  0  0  0  0  0  0  0  0
  -21.4640  -30.3921   21.2479 O   0  0  0  0  0  0  0  0  0  1  0  0
  -21.2541   -7.5290   21.3500 F   0  0  0  0  0  0  0  0  0  0  0  0
  -18.7176  -23.9555   20.9088 F   0  0  0  0  0  0  0  0  0  0  0  0
  -25.0946   -9.4178   23.3721 F   0  0  0  0  0  0  0  0  0  0  0  0
  1  2  1  0  0  0  0
  1  5  2  0  0  0  0
  2  6  2  0  0  0  0
  3 10  2  0  0  0  0
  3 18  1  0  0  0  0
  4 11  1  0  0  0  0
  4 18  2  0  0  0  0
  5 20  1  0  0  0  0
  6 22  1  0  0  0  0
  7 12  2  0  0  0  0
  7 21  1  0  0  0  0
  8  9  2  0  0  0  0
  8 24  1  0  0  0  0
  9 25  1  0  0  0  0
 10 26  1  0  0  0  0
 11 26  2  0  0  0  0
 12 27  1  0  0  0  0
 13 14  2  0  0  0  0
 13 28  1  0  0  0  0
 14 29  1  0  0  0  0
 15 23  1  0  0  0  0
 15 27  2  0  0  0  0
 16 25  2  0  0  0  0
 16 30  1  0  0  0  0
 17 29  2  0  0  0  0
 17 31  1  0  0  0  0
 18 32  1  0  0  0  0
 19 32  1  0  0  0  0
 19 33  2  0  0  0  0
 19 35  1  0  0  0  0
 20 22  2  0  0  0  0
 20 40  1  0  0  0  0
 21 23  2  0  0  0  0
 21 41  1  0  0  0  0
 22 50  1  0  0  0  0
 23 42  1  0  0  0  0
 24 30  2  0  0  0  0
 24 59  1  0  0  0  0
 25 71  1  0  0  0  0
 26 81  1  0  0  0  0
 27 82  1  0  0  0  0
 28 31  2  0  0  0  0
 28 81  1  0  0  0  0
 29 83  1  0  0  0  0
 30 84  1  0  0  0  0
 31 85  1  0  0  0  0
 32 64  2  0  0  0  0
 33 65  1  0  0  0  0
 33 69  1  0  0  0  0
 34 51  1  0  0  0  0
 34 66  1  0  0  0  0
 34 75  2  0  0  0  0
 35 70  1  0  0  0  0
 35 76  2  0  0  0  0
 36 52  1  0  0  0  0
 36 72  1  0  0  0  0
 36 77  2  0  0  0  0
 37 61  1  0  0  0  0
 37 67  1  0  0  0  0
 37 78  2  0  0  0  0
 38 62  1  0  0  0  0
 38 73  1  0  0  0  0
 38 79  2  0  0  0  0
 39 68  1  0  0  0  0
 39 71  1  0  0  0  0
 39 80  2  0  0  0  0
 40 43  1  0  0  0  0
 41 52  1  0  0  0  0
 42 67  1  0  0  0  0
 43 45  1  0  0  0  0
 44 46  1  0  0  0  0
 44 47  1  0  0  0  0
 45 50  1  0  0  0  0
 46 53  1  0  0  0  0
 47 68  1  0  0  0  0
 48 51  1  0  0  0  0
 48 66  1  0  0  0  0
 49 53  1  0  0  0  0
 49 68  1  0  0  0  0
 50 72  1  0  0  0  0
 51 60  1  0  0  0  0
 52 67  1  0  0  0  0
 53 65  1  0  0  0  0
 54 62  1  0  0  0  0
 55 63  1  0  0  0  0
 56 63  1  0  0  0  0
 57 63  1  0  0  0  0
 58 74  1  0  0  0  0
 59 66  1  0  0  0  0
 60 82  1  0  0  0  0
 61 63  1  0  0  0  0
 61 73  1  0  0  0  0
 62 74  1  0  0  0  0
 64 65  1  0  0  0  0
M  CHG  1  74   1
M  ISO  4  39 100  60 101  71 100  82 101
M  END
> <Batch ID>
0021

> <Smiles>
CNC(C)C(=O)NC(C(=O)N1Cc2cc([101O:1][101CH2:1]C3CN(Cc4ccc([100NH:0][100C:0](=O)N5CCCC(n6nc(-c7ccc(Oc8ccc(F)cc8F)cc7)c(C(N)=O)c6N)C5)cc4F)C3=O)ccc2CC1C(=O)NC1CCCc2ccccc21)C(C)(C)C

> <Shape>
0.297

> <Color>
0.094

> <Negative vol penalty>
0.000

$$$$

  -OEChem-04042321113D

 84 92  0     1  0  0  0  0  0999 V2000
  -18.5994  -30.7811   24.1176 C   0  0  0  0  0  0  0  0  0  0  0  0
  -19.9814  -30.7266   23.9677 C   0  0  0  0  0  0  0  0  0  0  0  0
  -25.4182  -13.1616   19.5660 C   0  0  0  0  0  0  0  0  0  0  0  0
  -25.9368  -13.9182   21.8010 C   0  0  0  0  0  0  0  0  0  0  0  0
  -17.8165  -29.6852   23.7573 C   0  0  0  0  0  0  0  0  0  0  0  0
  -20.5815  -29.5755   23.4583 C   0  0  0  0  0  0  0  0  0  0  0  0
  -25.5509  -29.2847   19.8910 C   0  0  0  0  0  0  0  0  0  0  0  0
  -25.1720  -11.8795   20.0571 C   0  0  0  0  0  0  0  0  0  0  0  0
  -25.6907  -12.6361   22.2922 C   0  0  0  0  0  0  0  0  0  0  0  0
  -26.8925  -29.0281   20.1705 C   0  0  0  0  0  0  0  0  0  0  0  0
  -24.0570   -8.4945   20.7740 C   0  0  0  0  0  0  0  0  0  0  0  0
  -22.9172   -7.8329   20.3175 C   0  0  0  0  0  0  0  0  0  0  0  0
  -26.5636  -26.7097   19.5905 C   0  0  0  0  0  0  0  0  0  0  0  0
  -28.5680  -24.5250   21.7506 C   0  0  0  0  0  0  0  0  0  0  0  0
  -30.8041  -23.2933   20.6256 C   0  0  0  0  0  0  0  0  0  0  0  0
  -21.5336   -9.6019   21.2082 C   0  0  0  0  0  0  0  0  0  0  0  0
  -25.8006  -14.1810   20.4379 C   0  0  0  0  0  0  0  0  0  0  0  0
  -25.1281  -16.5552   19.7911 C   0  0  0  0  0  0  0  0  0  0  0  0
  -18.4064  -28.5237   23.2343 C   0  0  0  0  0  0  0  0  0  0  0  0
  -24.7016  -28.2517   19.4689 C   0  0  0  0  0  0  0  0  0  0  0  0
  -19.8058  -28.4625   23.0920 C   0  0  0  0  0  0  0  0  0  0  0  0
  -25.2123  -26.9563   19.3038 C   0  0  0  0  0  0  0  0  0  0  0  0
  -28.4275  -23.3217   21.0595 C   0  0  0  0  0  0  0  0  0  0  0  0
  -29.8266  -25.1126   21.8792 C   0  0  0  0  0  0  0  0  0  0  0  0
  -29.5455  -22.7057   20.4970 C   0  0  0  0  0  0  0  0  0  0  0  0
  -25.3083  -11.6167   21.4202 C   0  0  0  0  0  0  0  0  0  0  0  0
  -27.3984  -27.7399   20.0231 C   0  0  0  0  0  0  0  0  0  0  0  0
  -23.9352   -9.7098   21.4478 C   0  0  0  0  0  0  0  0  0  0  0  0
  -21.6554   -8.3866   20.5345 C   0  0  0  0  0  0  0  0  0  0  0  0
  -22.6735  -10.2635   21.6649 C   0  0  0  0  0  0  0  0  0  0  0  0
  -30.9446  -24.4967   21.3167 C   0  0  0  0  0  0  0  0  0  0  0  0
  -26.0556  -15.5054   19.9311 C   0  0  0  0  0  0  0  0  0  0  0  0
  -25.8609  -17.5936   19.2704 C   0  0  0  0  0  0  0  0  0  0  0  0
  -23.7293  -16.5887   20.1039 C   0  0  0  0  0  0  0  0  0  0  0  0
  -22.0705  -26.8962   20.6280 C   0  0  0  0  0  0  0  0  0  0  0  0
  -22.1030  -25.3195   17.7933 C   0  0  0  0  0  0  0  0  0  0  0  0
  -23.9091  -24.1893   15.1274 C   0  0  0  0  0  0  0  0  0  0  0  0
  -30.4426  -20.7563   19.1774 C   0  0  0  0  0  0  0  0  0  0  0  0
  -17.5231  -27.3468   22.9031 C   0  0  0  0  0  0  0  0  0  0  0  0
  -23.2632  -28.5503   19.1458 C   0  0  0  0  0  0  0  0  0  0  0  0
  -24.3470  -25.8166   18.8340 C   0  0  0  0  0  0  0  0  0  0  0  0
  -18.2037  -26.3038   22.0205 C   0  0  0  0  0  0  0  0  0  0  0  0
  -30.5530  -17.6884   17.3740 C   0  0  0  0  0  0  0  0  0  0  0  0
  -19.6020  -25.9918   22.5440 C   0  0  0  0  0  0  0  0  0  0  0  0
  -29.3165  -16.9333   17.8669 C   0  0  0  0  0  0  0  0  0  0  0  0
  -31.2096  -18.4937   18.4938 C   0  0  0  0  0  0  0  0  0  0  0  0
  -29.0723  -18.6457   19.7095 C   0  0  0  0  0  0  0  0  0  0  0  0
  -20.4915  -27.2407   22.5199 C   0  0  1  0  0  0  0  0  0  0  0  0
  -22.3666  -27.3181   19.2167 C   0  0  1  0  0  0  0  0  0  0  0  0
  -28.3392  -17.8715   18.6019 C   0  0  2  0  0  0  0  0  0  0  0  0
  -27.0672  -22.7154   20.9364 C   0  0  0  0  0  0  0  0  0  0  0  0
  -30.5989  -25.8559   24.8780 C   0  0  0  0  0  0  0  0  0  0  0  0
  -23.6666  -22.9006   12.9878 C   0  0  0  0  0  0  0  0  0  0  0  0
  -21.9441  -22.7186   19.3808 C   0  0  0  0  0  0  0  0  0  0  0  0
  -22.6550  -21.4958   17.3150 C   0  0  0  0  0  0  0  0  0  0  0  0
  -20.5150  -22.7776   17.3293 C   0  0  0  0  0  0  0  0  0  0  0  0
  -24.8056  -26.4942   13.5018 C   0  0  0  0  0  0  0  0  0  0  0  0
  -29.5336  -26.3939   23.9846 C   0  0  0  0  0  0  0  0  0  0  0  0
  -30.4562  -27.5124   21.9484 C   0  0  0  0  0  0  0  0  0  0  0  0
  -29.3315  -28.2955   21.2920 C   0  0  0  0  0  0  0  0  0  1  0  0
  -22.7104  -24.0310   17.2936 C   0  0  1  0  0  0  0  0  0  0  0  0
  -23.6611  -24.2780   13.6323 C   0  0  2  0  0  0  0  0  0  0  0  0
  -21.9722  -22.7766   17.8404 C   0  0  0  0  0  0  0  0  0  0  0  0
  -27.2837  -15.8458   19.5314 N   0  0  0  0  0  0  0  0  0  0  0  0
  -27.1331  -17.1210   19.1351 N   0  0  0  0  0  0  0  0  0  0  0  0
  -22.9459  -26.1577   18.5368 N   0  0  0  0  0  0  0  0  0  0  0  0
  -30.2247  -19.3627   19.1416 N   0  0  0  0  0  0  0  0  0  0  0  0
  -25.5347  -18.8558   18.9196 N   0  0  0  0  0  0  0  0  0  0  0  0
  -23.1349  -15.4344   20.6318 N   0  0  0  0  0  0  0  0  0  0  0  0
  -29.4229  -21.4837   19.7904 N   0  0  0  0  0  0  0  0  0  0  0  0
  -20.9565  -27.5041   21.1749 N   0  0  0  0  0  0  0  0  0  0  0  0
  -22.7291  -24.1261   15.8379 N   0  0  0  0  0  0  0  0  0  0  0  0
  -29.9363  -26.3212   22.5797 N   0  0  3  0  0  0  0  0  0  0  0  0
  -24.7150  -25.1060   12.9807 N   0  3  0  0  0  0  0  0  0  0  0  0
  -23.0237  -17.6067   19.9054 O   0  0  0  0  0  0  0  0  0  0  0  0
  -22.7978  -26.0786   21.1795 O   0  0  0  0  0  0  0  0  0  0  0  0
  -20.9261  -25.5763   17.5276 O   0  0  0  0  0  0  0  0  0  0  0  0
  -25.0368  -24.1736   15.6157 O   0  0  0  0  0  0  0  0  0  0  0  0
  -31.4459  -21.2694   18.6755 O   0  0  0  0  0  0  0  0  0  0  0  0
  -25.0679  -10.3658   21.8998 O   0  0  0  0  0  0  0  0  0  0  0  0
  -28.7073  -27.4866   20.2958 O   0  0  0  0  0  0  0  0  0  1  0  0
  -20.5610   -7.7519   20.0946 F   0  0  0  0  0  0  0  0  0  0  0  0
  -22.5502  -11.4313   22.3105 F   0  0  0  0  0  0  0  0  0  0  0  0
  -32.5210  -25.1903   21.4533 Cl  0  0  0  0  0  0  0  0  0  0  0  0
  1  2  1  0  0  0  0
  1  5  2  0  0  0  0
  2  6  2  0  0  0  0
  3  8  2  0  0  0  0
  3 17  1  0  0  0  0
  4  9  1  0  0  0  0
  4 17  2  0  0  0  0
  5 19  1  0  0  0  0
  6 21  1  0  0  0  0
  7 10  2  0  0  0  0
  7 20  1  0  0  0  0
  8 26  1  0  0  0  0
  9 26  2  0  0  0  0
 10 27  1  0  0  0  0
 11 12  2  0  0  0  0
 11 28  1  0  0  0  0
 12 29  1  0  0  0  0
 13 22  1  0  0  0  0
 13 27  2  0  0  0  0
 14 23  2  0  0  0  0
 14 24  1  0  0  0  0
 15 25  2  0  0  0  0
 15 31  1  0  0  0  0
 16 29  2  0  0  0  0
 16 30  1  0  0  0  0
 17 32  1  0  0  0  0
 18 32  1  0  0  0  0
 18 33  2  0  0  0  0
 18 34  1  0  0  0  0
 19 21  2  0  0  0  0
 19 39  1  0  0  0  0
 20 22  2  0  0  0  0
 20 40  1  0  0  0  0
 21 48  1  0  0  0  0
 22 41  1  0  0  0  0
 23 25  1  0  0  0  0
 23 51  1  0  0  0  0
 24 31  2  0  0  0  0
 24 73  1  0  0  0  0
 25 70  1  0  0  0  0
 26 80  1  0  0  0  0
 27 81  1  0  0  0  0
 28 30  2  0  0  0  0
 28 80  1  0  0  0  0
 29 82  1  0  0  0  0
 30 83  1  0  0  0  0
 31 84  1  0  0  0  0
 32 64  2  0  0  0  0
 33 65  1  0  0  0  0
 33 68  1  0  0  0  0
 34 69  1  0  0  0  0
 34 75  2  0  0  0  0
 35 49  1  0  0  0  0
 35 71  1  0  0  0  0
 35 76  2  0  0  0  0
 36 61  1  0  0  0  0
 36 66  1  0  0  0  0
 36 77  2  0  0  0  0
 37 62  1  0  0  0  0
 37 72  1  0  0  0  0
 37 78  2  0  0  0  0
 38 67  1  0  0  0  0
 38 70  1  0  0  0  0
 38 79  2  0  0  0  0
 39 42  1  0  0  0  0
 40 49  1  0  0  0  0
 41 66  1  0  0  0  0
 42 44  1  0  0  0  0
 43 45  1  0  0  0  0
 43 46  1  0  0  0  0
 44 48  1  0  0  0  0
 45 50  1  0  0  0  0
 46 67  1  0  0  0  0
 47 50  1  0  0  0  0
 47 67  1  0  0  0  0
 48 71  1  0  0  0  0
 49 66  1  0  0  0  0
 50 65  1  0  0  0  0
 52 58  1  0  0  0  0
 53 62  1  0  0  0  0
 54 63  1  0  0  0  0
 55 63  1  0  0  0  0
 56 63  1  0  0  0  0
 57 74  1  0  0  0  0
 58 73  1  0  0  0  0
 59 60  1  0  0  0  0
 59 73  1  0  0  0  0
 60 81  1  0  0  0  0
 61 63  1  0  0  0  0
 61 72  1  0  0  0  0
 62 74  1  0  0  0  0
 64 65  1  0  0  0  0
M  CHG  1  74   1
M  ISO  4  38 100  60 101  70 100  81 101
M  END
> <Batch ID>
0021

> <Smiles>
CCN(C[101CH2:1][101O:1]c1ccc2c(c1)CN(C(=O)C(NC(=O)C(C)NC)C(C)(C)C)C(C(=O)NC1CCCc3ccccc31)C2)c1cc(C)c([100NH:0][100C:0](=O)N2CCCC(n3nc(-c4ccc(Oc5ccc(F)cc5F)cc4)c(C(N)=O)c3N)C2)cc1Cl

> <Shape>
0.252

> <Color>
0.077

> <Negative vol penalty>
0.000

$$$$

  -OEChem-04042321113D

 84 93  0     1  0  0  0  0  0999 V2000
  -23.1696  -35.5199   16.0293 C   0  0  0  0  0  0  0  0  0  0  0  0
  -24.1482  -34.5468   16.2048 C   0  0  0  0  0  0  0  0  0  0  0  0
  -24.1280   -9.8711   21.9219 C   0  0  0  0  0  0  0  0  0  0  0  0
  -24.7966  -11.3052   23.7477 C   0  0  0  0  0  0  0  0  0  0  0  0
  -22.3510  -35.8844   17.0976 C   0  0  0  0  0  0  0  0  0  0  0  0
  -24.3096  -33.9384   17.4491 C   0  0  0  0  0  0  0  0  0  0  0  0
  -25.9202  -28.1286   18.5250 C   0  0  0  0  0  0  0  0  0  0  0  0
  -28.3523  -20.8984   19.9749 C   0  0  0  0  0  0  0  0  0  0  0  0
  -28.0963  -19.5466   19.7454 C   0  0  0  0  0  0  0  0  0  0  0  0
  -23.7838   -8.8722   22.8326 C   0  0  0  0  0  0  0  0  0  0  0  0
  -24.4523  -10.3063   24.6584 C   0  0  0  0  0  0  0  0  0  0  0  0
  -27.1413  -27.5381   18.8478 C   0  0  0  0  0  0  0  0  0  0  0  0
  -21.2107   -8.1775   24.9133 C   0  0  0  0  0  0  0  0  0  0  0  0
  -19.9970   -7.5171   24.7229 C   0  0  0  0  0  0  0  0  0  0  0  0
  -26.5546  -27.6176   21.1863 C   0  0  0  0  0  0  0  0  0  0  0  0
  -30.4493  -19.1685   19.3484 C   0  0  0  0  0  0  0  0  0  0  0  0
  -21.1734   -5.4180   24.5055 C   0  0  0  0  0  0  0  0  0  0  0  0
  -24.6344  -11.0876   22.3795 C   0  0  0  0  0  0  0  0  0  0  0  0
  -24.1589  -13.1408   20.9421 C   0  0  0  0  0  0  0  0  0  0  0  0
  -22.4961  -35.2732   18.3530 C   0  0  0  0  0  0  0  0  0  0  0  0
  -25.0103  -28.4785   19.5330 C   0  0  0  0  0  0  0  0  0  0  0  0
  -23.4931  -34.2960   18.5355 C   0  0  0  0  0  0  0  0  0  0  0  0
  -25.3217  -28.2101   20.8735 C   0  0  0  0  0  0  0  0  0  0  0  0
  -30.7052  -20.5204   19.5779 C   0  0  0  0  0  0  0  0  0  0  0  0
  -29.6567  -21.3853   19.8911 C   0  0  0  0  0  0  0  0  0  0  0  0
  -29.1449  -18.6816   19.4322 C   0  0  0  0  0  0  0  0  0  0  0  0
  -23.9459   -9.0898   24.2008 C   0  0  0  0  0  0  0  0  0  0  0  0
  -27.4599  -27.2852   20.1788 C   0  0  0  0  0  0  0  0  0  0  0  0
  -22.4058   -7.4583   24.8997 C   0  0  0  0  0  0  0  0  0  0  0  0
  -19.9783   -6.1373   24.5191 C   0  0  0  0  0  0  0  0  0  0  0  0
  -22.3871   -6.0786   24.6959 C   0  0  0  0  0  0  0  0  0  0  0  0
  -24.9908  -12.1197   21.4393 C   0  0  0  0  0  0  0  0  0  0  0  0
  -24.9640  -13.8542   20.0881 C   0  0  0  0  0  0  0  0  0  0  0  0
  -29.2503  -23.6263   20.9074 C   0  0  0  0  0  0  0  0  0  0  0  0
  -22.7816  -13.4195   21.2269 C   0  0  0  0  0  0  0  0  0  0  0  0
  -23.7197  -31.2022   20.5429 C   0  0  0  0  0  0  0  0  0  0  0  0
  -21.9807  -29.2232   22.4355 C   0  0  0  0  0  0  0  0  0  0  0  0
  -21.7175  -26.2016   23.9999 C   0  0  0  0  0  0  0  0  0  0  0  0
  -29.8097  -16.3157   18.8787 C   0  0  0  0  0  0  0  0  0  0  0  0
  -21.6193  -35.7340   19.4903 C   0  0  0  0  0  0  0  0  0  0  0  0
  -23.6860  -29.0903   19.1663 C   0  0  0  0  0  0  0  0  0  0  0  0
  -24.3708  -28.5481   21.9915 C   0  0  0  0  0  0  0  0  0  0  0  0
  -21.6062  -34.7738   20.6769 C   0  0  0  0  0  0  0  0  0  0  0  0
  -29.5713  -12.8162   18.2668 C   0  0  0  0  0  0  0  0  0  0  0  0
  -23.0260  -34.3427   21.0306 C   0  0  0  0  0  0  0  0  0  0  0  0
  -28.2899  -12.4071   18.9967 C   0  0  0  0  0  0  0  0  0  0  0  0
  -30.3401  -13.8927   19.0309 C   0  0  0  0  0  0  0  0  0  0  0  0
  -30.7114  -23.6834   19.3975 C   0  0  0  0  0  0  0  0  0  0  0  0
  -28.2725  -14.6702   20.1215 C   0  0  0  0  0  0  0  0  0  0  0  0
  -23.6825  -33.5954   19.8635 C   0  0  1  0  0  0  0  0  0  0  0  0
  -30.0488  -24.7826   20.2666 C   0  0  1  0  0  0  0  0  0  0  0  0
  -23.0532  -29.8756   20.3110 C   0  0  1  0  0  0  0  0  0  0  0  0
  -27.4307  -13.6346   19.3581 C   0  0  2  0  0  0  0  0  0  0  0  0
  -32.1120  -21.0149   19.4810 C   0  0  0  0  0  0  0  0  0  0  0  0
  -20.1992  -24.8888   25.5060 C   0  0  0  0  0  0  0  0  0  0  0  0
  -22.8969  -30.8984   24.8154 C   0  0  0  0  0  0  0  0  0  0  0  0
  -22.1638  -29.0361   26.3195 C   0  0  0  0  0  0  0  0  0  0  0  0
  -20.4934  -30.2110   24.8871 C   0  0  0  0  0  0  0  0  0  0  0  0
  -21.3540  -24.0759   21.9731 C   0  0  0  0  0  0  0  0  0  0  0  0
  -29.2204  -25.8214   19.5357 C   0  0  0  0  0  0  0  0  0  1  0  0
  -22.1559  -28.6364   23.8153 C   0  0  1  0  0  0  0  0  0  0  0  0
  -20.5810  -25.1975   24.0667 C   0  0  2  0  0  0  0  0  0  0  0  0
  -21.9464  -29.6908   24.9386 C   0  0  0  0  0  0  0  0  0  0  0  0
  -26.2293  -12.1758   20.9423 N   0  0  0  0  0  0  0  0  0  0  0  0
  -26.1816  -13.2407   20.1239 N   0  0  0  0  0  0  0  0  0  0  0  0
  -29.8889  -22.7222   20.1209 N   0  0  0  0  0  0  0  0  0  0  0  0
  -23.0912  -29.1506   21.5826 N   0  0  0  0  0  0  0  0  0  0  0  0
  -29.4638  -15.0261   19.3349 N   0  0  0  0  0  0  0  0  0  0  0  0
  -24.7420  -14.9401   19.3173 N   0  0  0  0  0  0  0  0  0  0  0  0
  -22.1039  -12.5870   22.1280 N   0  0  0  0  0  0  0  0  0  0  0  0
  -28.8845  -17.3083   19.1999 N   0  0  0  0  0  0  0  0  0  0  0  0
  -23.1913  -32.2359   19.7936 N   0  0  0  0  0  0  0  0  0  0  0  0
  -21.2510  -27.4946   23.8912 N   0  0  0  0  0  0  0  0  0  0  0  0
  -20.9756  -23.9236   23.4016 N   0  3  0  0  0  0  0  0  0  0  0  0
  -28.3771  -23.5261   21.7391 O   0  0  0  0  0  0  0  0  0  0  0  0
  -22.1655  -14.3686   20.6854 O   0  0  0  0  0  0  0  0  0  0  0  0
  -24.6439  -31.2822   21.3436 O   0  0  0  0  0  0  0  0  0  0  0  0
  -20.8961  -29.7211   22.1233 O   0  0  0  0  0  0  0  0  0  0  0  0
  -22.9008  -25.8723   24.0439 O   0  0  0  0  0  0  0  0  0  0  0  0
  -30.8366  -16.5193   18.2259 O   0  0  0  0  0  0  0  0  0  0  0  0
  -23.6098   -8.1154   25.0897 O   0  0  0  0  0  0  0  0  0  0  0  0
  -28.6513  -26.7096   20.4967 O   0  0  0  0  0  0  0  0  0  1  0  0
  -18.8126   -5.5029   24.3378 F   0  0  0  0  0  0  0  0  0  0  0  0
  -23.5319   -5.3820   24.6830 F   0  0  0  0  0  0  0  0  0  0  0  0
  1  2  1  0  0  0  0
  1  5  2  0  0  0  0
  2  6  2  0  0  0  0
  3 10  2  0  0  0  0
  3 18  1  0  0  0  0
  4 11  1  0  0  0  0
  4 18  2  0  0  0  0
  5 20  1  0  0  0  0
  6 22  1  0  0  0  0
  7 12  2  0  0  0  0
  7 21  1  0  0  0  0
  8  9  2  0  0  0  0
  8 25  1  0  0  0  0
  9 26  1  0  0  0  0
 10 27  1  0  0  0  0
 11 27  2  0  0  0  0
 12 28  1  0  0  0  0
 13 14  2  0  0  0  0
 13 29  1  0  0  0  0
 14 30  1  0  0  0  0
 15 23  1  0  0  0  0
 15 28  2  0  0  0  0
 16 24  1  0  0  0  0
 16 26  2  0  0  0  0
 17 30  2  0  0  0  0
 17 31  1  0  0  0  0
 18 32  1  0  0  0  0
 19 32  1  0  0  0  0
 19 33  2  0  0  0  0
 19 35  1  0  0  0  0
 20 22  2  0  0  0  0
 20 40  1  0  0  0  0
 21 23  2  0  0  0  0
 21 41  1  0  0  0  0
 22 50  1  0  0  0  0
 23 42  1  0  0  0  0
 24 25  2  0  0  0  0
 24 54  1  0  0  0  0
 25 66  1  0  0  0  0
 26 71  1  0  0  0  0
 27 81  1  0  0  0  0
 28 82  1  0  0  0  0
 29 31  2  0  0  0  0
 29 81  1  0  0  0  0
 30 83  1  0  0  0  0
 31 84  1  0  0  0  0
 32 64  2  0  0  0  0
 33 65  1  0  0  0  0
 33 69  1  0  0  0  0
 34 51  1  0  0  0  0
 34 66  1  0  0  0  0
 34 75  2  0  0  0  0
 35 70  1  0  0  0  0
 35 76  2  0  0  0  0
 36 52  1  0  0  0  0
 36 72  1  0  0  0  0
 36 77  2  0  0  0  0
 37 61  1  0  0  0  0
 37 67  1  0  0  0  0
 37 78  2  0  0  0  0
 38 62  1  0  0  0  0
 38 73  1  0  0  0  0
 38 79  2  0  0  0  0
 39 68  1  0  0  0  0
 39 71  1  0  0  0  0
 39 80  2  0  0  0  0
 40 43  1  0  0  0  0
 41 52  1  0  0  0  0
 42 67  1  0  0  0  0
 43 45  1  0  0  0  0
 44 46  1  0  0  0  0
 44 47  1  0  0  0  0
 45 50  1  0  0  0  0
 46 53  1  0  0  0  0
 47 68  1  0  0  0  0
 48 51  1  0  0  0  0
 48 66  1  0  0  0  0
 49 53  1  0  0  0  0
 49 68  1  0  0  0  0
 50 72  1  0  0  0  0
 51 60  1  0  0  0  0
 52 67  1  0  0  0  0
 53 65  1  0  0  0  0
 55 62  1  0  0  0  0
 56 63  1  0  0  0  0
 57 63  1  0  0  0  0
 58 63  1  0  0  0  0
 59 74  1  0  0  0  0
 60 82  1  0  0  0  0
 61 63  1  0  0  0  0
 61 73  1  0  0  0  0
 62 74  1  0  0  0  0
 64 65  1  0  0  0  0
M  CHG  1  74   1
M  ISO  4  39 100  60 101  71 100  82 101
M  END
> <Batch ID>
0021

> <Smiles>
CNC(C)C(=O)NC(C(=O)N1Cc2cc([101O:1][101CH2:1]C3CN(c4ccc([100NH:0][100C:0](=O)N5CCCC(n6nc(-c7ccc(Oc8ccc(F)cc8F)cc7)c(C(N)=O)c6N)C5)cc4C)C3=O)ccc2CC1C(=O)NC1CCCc2ccccc21)C(C)(C)C

> <Shape>
0.282

> <Color>
0.115

> <Negative vol penalty>
0.000

$$$$

  -OEChem-04042321113D

 84 92  0     1  0  0  0  0  0999 V2000
  -32.1779  -33.5292   21.7080 C   0  0  0  0  0  0  0  0  0  0  0  0
  -31.8447  -32.2156   22.0223 C   0  0  0  0  0  0  0  0  0  0  0  0
  -23.0998   -9.7021   20.0834 C   0  0  0  0  0  0  0  0  0  0  0  0
  -23.6915  -10.0322   22.4024 C   0  0  0  0  0  0  0  0  0  0  0  0
  -31.2008  -34.5231   21.7456 C   0  0  0  0  0  0  0  0  0  0  0  0
  -30.5343  -31.8953   22.3755 C   0  0  0  0  0  0  0  0  0  0  0  0
  -28.8783  -27.6913   20.0888 C   0  0  0  0  0  0  0  0  0  0  0  0
  -22.3578   -8.5741   20.4332 C   0  0  0  0  0  0  0  0  0  0  0  0
  -22.9494   -8.9041   22.7523 C   0  0  0  0  0  0  0  0  0  0  0  0
  -29.3090  -26.4716   20.6091 C   0  0  0  0  0  0  0  0  0  0  0  0
  -23.3315   -5.5459   22.6670 C   0  0  0  0  0  0  0  0  0  0  0  0
  -23.9092   -4.6406   23.5570 C   0  0  0  0  0  0  0  0  0  0  0  0
  -27.2052  -26.2283   21.7641 C   0  0  0  0  0  0  0  0  0  0  0  0
  -29.8896  -19.4837   22.0494 C   0  0  0  0  0  0  0  0  0  0  0  0
  -30.5944  -19.1579   19.7615 C   0  0  0  0  0  0  0  0  0  0  0  0
  -22.0862   -4.9963   25.1021 C   0  0  0  0  0  0  0  0  0  0  0  0
  -23.7667  -10.4312   21.0680 C   0  0  0  0  0  0  0  0  0  0  0  0
  -24.0771  -12.9259   20.6346 C   0  0  0  0  0  0  0  0  0  0  0  0
  -29.8757  -34.2131   22.0900 C   0  0  0  0  0  0  0  0  0  0  0  0
  -27.6099  -28.1947   20.4115 C   0  0  0  0  0  0  0  0  0  0  0  0
  -29.5389  -32.8862   22.4190 C   0  0  0  0  0  0  0  0  0  0  0  0
  -26.7598  -27.4533   21.2445 C   0  0  0  0  0  0  0  0  0  0  0  0
  -29.7493  -18.1044   22.2026 C   0  0  0  0  0  0  0  0  0  0  0  0
  -30.3120  -20.0105   20.8288 C   0  0  0  0  0  0  0  0  0  0  0  0
  -30.0317  -17.2518   21.1353 C   0  0  0  0  0  0  0  0  0  0  0  0
  -22.2826   -8.1751   21.7677 C   0  0  0  0  0  0  0  0  0  0  0  0
  -28.4736  -25.7413   21.4492 C   0  0  0  0  0  0  0  0  0  0  0  0
  -22.1311   -6.1765   22.9945 C   0  0  0  0  0  0  0  0  0  0  0  0
  -23.2866   -4.3658   24.7746 C   0  0  0  0  0  0  0  0  0  0  0  0
  -21.5085   -5.9017   24.2121 C   0  0  0  0  0  0  0  0  0  0  0  0
  -30.4542  -17.7786   19.9147 C   0  0  0  0  0  0  0  0  0  0  0  0
  -24.5339  -11.5963   20.7071 C   0  0  0  0  0  0  0  0  0  0  0  0
  -25.1809  -13.6477   20.2512 C   0  0  0  0  0  0  0  0  0  0  0  0
  -22.7718  -13.4607   20.8911 C   0  0  0  0  0  0  0  0  0  0  0  0
  -26.5390  -30.7932   21.8963 C   0  0  0  0  0  0  0  0  0  0  0  0
  -23.6463  -29.6572   20.9668 C   0  0  0  0  0  0  0  0  0  0  0  0
  -29.6244  -22.3019   21.4205 C   0  0  0  0  0  0  0  0  0  0  0  0
  -21.7482  -26.9773   20.0382 C   0  0  0  0  0  0  0  0  0  0  0  0
  -30.6032  -14.8439   20.6646 C   0  0  0  0  0  0  0  0  0  0  0  0
  -28.8644  -35.3296   22.1629 C   0  0  0  0  0  0  0  0  0  0  0  0
  -27.1498  -29.4991   19.8207 C   0  0  0  0  0  0  0  0  0  0  0  0
  -25.3809  -27.9401   21.6054 C   0  0  0  0  0  0  0  0  0  0  0  0
  -27.4182  -34.8412   22.1831 C   0  0  0  0  0  0  0  0  0  0  0  0
  -29.7008  -12.1102   18.5694 C   0  0  0  0  0  0  0  0  0  0  0  0
  -27.2554  -33.6961   23.1776 C   0  0  0  0  0  0  0  0  0  0  0  0
  -28.2386  -11.8422   18.9329 C   0  0  0  0  0  0  0  0  0  0  0  0
  -30.5229  -12.5192   19.7904 C   0  0  0  0  0  0  0  0  0  0  0  0
  -28.5099  -13.3724   20.9258 C   0  0  0  0  0  0  0  0  0  0  0  0
  -28.1230  -32.4949   22.7828 C   0  0  1  0  0  0  0  0  0  0  0  0
  -26.0380  -30.1617   20.6283 C   0  0  1  0  0  0  0  0  0  0  0  0
  -27.6277  -13.0202   19.7169 C   0  0  2  0  0  0  0  0  0  0  0  0
  -29.2947  -17.5721   23.5232 C   0  0  0  0  0  0  0  0  0  0  0  0
  -19.4090  -26.3548   19.3764 C   0  0  0  0  0  0  0  0  0  0  0  0
  -22.7710  -29.8561   23.8830 C   0  0  0  0  0  0  0  0  0  0  0  0
  -20.8333  -28.3701   23.3301 C   0  0  0  0  0  0  0  0  0  0  0  0
  -21.0511  -30.5958   22.2249 C   0  0  0  0  0  0  0  0  0  0  0  0
  -31.4644  -21.9593   19.7314 C   0  0  0  0  0  0  0  0  0  0  0  0
  -22.6300  -26.0253   17.3783 C   0  0  0  0  0  0  0  0  0  0  0  0
  -29.8067  -23.7918   21.1696 C   0  0  0  0  0  0  0  0  0  1  0  0
  -22.6204  -28.7261   21.5665 C   0  0  1  0  0  0  0  0  0  0  0  0
  -20.7838  -26.7780   18.8829 C   0  0  2  0  0  0  0  0  0  0  0  0
  -21.8456  -29.3785   22.7461 C   0  0  0  0  0  0  0  0  0  0  0  0
  -25.8270  -11.4776   20.3946 N   0  0  0  0  0  0  0  0  0  0  0  0
  -26.1923  -12.7418   20.1220 N   0  0  0  0  0  0  0  0  0  0  0  0
  -24.9791  -29.2241   21.0076 N   0  0  0  0  0  0  0  0  0  0  0  0
  -29.8859  -13.6429   20.4806 N   0  0  0  0  0  0  0  0  0  0  0  0
  -25.3754  -14.9626   20.0151 N   0  0  0  0  0  0  0  0  0  0  0  0
  -21.7523  -12.5793   21.2758 N   0  0  0  0  0  0  0  0  0  0  0  0
  -29.8840  -15.8528   21.3045 N   0  0  0  0  0  0  0  0  0  0  0  0
  -27.5061  -31.7603   21.6992 N   0  0  0  0  0  0  0  0  0  0  0  0
  -21.7718  -28.2888   20.4633 N   0  0  0  0  0  0  0  0  0  0  0  0
  -30.4559  -21.4435   20.6700 N   0  0  0  0  0  0  0  0  0  0  0  0
  -21.2946  -25.7277   17.9572 N   0  3  0  0  0  0  0  0  0  0  0  0
  -22.5129  -14.6818   20.7663 O   0  0  0  0  0  0  0  0  0  0  0  0
  -26.0810  -30.4309   22.9736 O   0  0  0  0  0  0  0  0  0  0  0  0
  -23.2777  -30.7262   20.4738 O   0  0  0  0  0  0  0  0  0  0  0  0
  -28.7613  -21.9364   22.2225 O   0  0  0  0  0  0  0  0  0  0  0  0
  -22.4113  -26.0606   20.5181 O   0  0  0  0  0  0  0  0  0  0  0  0
  -31.7604  -14.9774   20.2584 O   0  0  0  0  0  0  0  0  0  0  0  0
  -21.5584   -7.0745   22.1095 O   0  0  0  0  0  0  0  0  0  0  0  0
  -28.8918  -24.5509   21.9589 O   0  0  0  0  0  0  0  0  0  1  0  0
  -23.8407   -3.4953   25.6286 F   0  0  0  0  0  0  0  0  0  0  0  0
  -20.3546   -6.5035   24.5317 F   0  0  0  0  0  0  0  0  0  0  0  0
  -30.8137  -16.7613   18.5646 Cl  0  0  0  0  0  0  0  0  0  0  0  0
  1  2  1  0  0  0  0
  1  5  2  0  0  0  0
  2  6  2  0  0  0  0
  3  8  2  0  0  0  0
  3 17  1  0  0  0  0
  4  9  1  0  0  0  0
  4 17  2  0  0  0  0
  5 19  1  0  0  0  0
  6 21  1  0  0  0  0
  7 10  2  0  0  0  0
  7 20  1  0  0  0  0
  8 26  1  0  0  0  0
  9 26  2  0  0  0  0
 10 27  1  0  0  0  0
 11 12  2  0  0  0  0
 11 28  1  0  0  0  0
 12 29  1  0  0  0  0
 13 22  1  0  0  0  0
 13 27  2  0  0  0  0
 14 23  2  0  0  0  0
 14 24  1  0  0  0  0
 15 24  2  0  0  0  0
 15 31  1  0  0  0  0
 16 29  2  0  0  0  0
 16 30  1  0  0  0  0
 17 32  1  0  0  0  0
 18 32  1  0  0  0  0
 18 33  2  0  0  0  0
 18 34  1  0  0  0  0
 19 21  2  0  0  0  0
 19 40  1  0  0  0  0
 20 22  2  0  0  0  0
 20 41  1  0  0  0  0
 21 49  1  0  0  0  0
 22 42  1  0  0  0  0
 23 25  1  0  0  0  0
 23 52  1  0  0  0  0
 24 72  1  0  0  0  0
 25 31  2  0  0  0  0
 25 69  1  0  0  0  0
 26 80  1  0  0  0  0
 27 81  1  0  0  0  0
 28 30  2  0  0  0  0
 28 80  1  0  0  0  0
 29 82  1  0  0  0  0
 30 83  1  0  0  0  0
 31 84  1  0  0  0  0
 32 63  2  0  0  0  0
 33 64  1  0  0  0  0
 33 67  1  0  0  0  0
 34 68  1  0  0  0  0
 34 74  2  0  0  0  0
 35 50  1  0  0  0  0
 35 70  1  0  0  0  0
 35 75  2  0  0  0  0
 36 60  1  0  0  0  0
 36 65  1  0  0  0  0
 36 76  2  0  0  0  0
 37 59  1  0  0  0  0
 37 72  1  0  0  0  0
 37 77  2  0  0  0  0
 38 61  1  0  0  0  0
 38 71  1  0  0  0  0
 38 78  2  0  0  0  0
 39 66  1  0  0  0  0
 39 69  1  0  0  0  0
 39 79  2  0  0  0  0
 40 43  1  0  0  0  0
 41 50  1  0  0  0  0
 42 65  1  0  0  0  0
 43 45  1  0  0  0  0
 44 46  1  0  0  0  0
 44 47  1  0  0  0  0
 45 49  1  0  0  0  0
 46 51  1  0  0  0  0
 47 66  1  0  0  0  0
 48 51  1  0  0  0  0
 48 66  1  0  0  0  0
 49 70  1  0  0  0  0
 50 65  1  0  0  0  0
 51 64  1  0  0  0  0
 53 61  1  0  0  0  0
 54 62  1  0  0  0  0
 55 62  1  0  0  0  0
 56 62  1  0  0  0  0
 57 72  1  0  0  0  0
 58 73  1  0  0  0  0
 59 81  1  0  0  0  0
 60 62  1  0  0  0  0
 60 71  1  0  0  0  0
 61 73  1  0  0  0  0
 63 64  1  0  0  0  0
M  CHG  1  73   1
M  ISO  4  39 100  59 101  69 100  81 101
M  END
> <Batch ID>
0021

> <Smiles>
CNC(C)C(=O)NC(C(=O)N1Cc2cc([101O:1][101CH2:1]C(=O)N(C)c3cc(C)c([100NH:0][100C:0](=O)N4CCCC(n5nc(-c6ccc(Oc7ccc(F)cc7F)cc6)c(C(N)=O)c5N)C4)c(Cl)c3)ccc2CC1C(=O)NC1CCCc2ccccc21)C(C)(C)C

> <Shape>
0.343

> <Color>
0.198

> <Negative vol penalty>
0.000

$$$$

  -OEChem-04042321113D

 84 92  0     1  0  0  0  0  0999 V2000
  -17.7544  -26.7429   22.3742 C   0  0  0  0  0  0  0  0  0  0  0  0
  -18.7139  -26.8280   21.3704 C   0  0  0  0  0  0  0  0  0  0  0  0
  -26.9383  -12.6792   21.4035 C   0  0  0  0  0  0  0  0  0  0  0  0
  -26.4072  -13.7174   19.2876 C   0  0  0  0  0  0  0  0  0  0  0  0
  -17.8872  -27.5103   23.5307 C   0  0  0  0  0  0  0  0  0  0  0  0
  -19.8062  -27.6813   21.5221 C   0  0  0  0  0  0  0  0  0  0  0  0
  -25.5143  -26.7485   19.5086 C   0  0  0  0  0  0  0  0  0  0  0  0
  -28.9969  -25.1333   19.7249 C   0  0  0  0  0  0  0  0  0  0  0  0
  -28.5596  -24.0628   20.5047 C   0  0  0  0  0  0  0  0  0  0  0  0
  -26.2394  -11.5354   21.0178 C   0  0  0  0  0  0  0  0  0  0  0  0
  -25.7083  -12.5736   18.9018 C   0  0  0  0  0  0  0  0  0  0  0  0
  -26.1959  -27.1994   18.3791 C   0  0  0  0  0  0  0  0  0  0  0  0
  -23.0175  -10.5323   20.8244 C   0  0  0  0  0  0  0  0  0  0  0  0
  -22.1532   -9.9569   21.7557 C   0  0  0  0  0  0  0  0  0  0  0  0
  -27.1420  -28.9998   19.6761 C   0  0  0  0  0  0  0  0  0  0  0  0
  -30.2640  -22.6557   19.5288 C   0  0  0  0  0  0  0  0  0  0  0  0
  -23.4238   -7.9039   21.6665 C   0  0  0  0  0  0  0  0  0  0  0  0
  -27.0221  -13.7703   20.5385 C   0  0  0  0  0  0  0  0  0  0  0  0
  -29.1085  -15.2259   20.7280 C   0  0  0  0  0  0  0  0  0  0  0  0
  -18.9867  -28.3662   23.7009 C   0  0  0  0  0  0  0  0  0  0  0  0
  -25.6330  -27.4274   20.7298 C   0  0  0  0  0  0  0  0  0  0  0  0
  -19.9532  -28.4619   22.6814 C   0  0  0  0  0  0  0  0  0  0  0  0
  -26.4629  -28.5540   20.8203 C   0  0  0  0  0  0  0  0  0  0  0  0
  -30.0677  -24.9651   18.8469 C   0  0  0  0  0  0  0  0  0  0  0  0
  -29.1932  -22.8240   20.4067 C   0  0  0  0  0  0  0  0  0  0  0  0
  -25.6245  -11.4825   19.7669 C   0  0  0  0  0  0  0  0  0  0  0  0
  -27.0076  -28.3269   18.4620 C   0  0  0  0  0  0  0  0  0  0  0  0
  -24.0850   -9.7935   20.3140 C   0  0  0  0  0  0  0  0  0  0  0  0
  -22.3563   -8.6427   22.1768 C   0  0  0  0  0  0  0  0  0  0  0  0
  -24.2881   -8.4793   20.7351 C   0  0  0  0  0  0  0  0  0  0  0  0
  -30.7012  -23.7263   18.7489 C   0  0  0  0  0  0  0  0  0  0  0  0
  -27.7434  -14.9524   20.9366 C   0  0  0  0  0  0  0  0  0  0  0  0
  -29.2996  -16.4657   21.2873 C   0  0  0  0  0  0  0  0  0  0  0  0
  -30.1138  -14.4305   20.0859 C   0  0  0  0  0  0  0  0  0  0  0  0
  -23.6149  -28.9555   22.6523 C   0  0  0  0  0  0  0  0  0  0  0  0
  -26.2085  -29.1322   24.5925 C   0  0  0  0  0  0  0  0  0  0  0  0
  -29.6078  -29.1130   24.8940 C   0  0  0  0  0  0  0  0  0  0  0  0
  -27.6998  -21.7339   22.1178 C   0  0  0  0  0  0  0  0  0  0  0  0
  -19.0626  -29.2114   24.9477 C   0  0  0  0  0  0  0  0  0  0  0  0
  -24.9122  -26.9126   21.9455 C   0  0  0  0  0  0  0  0  0  0  0  0
  -26.6402  -29.3066   22.1129 C   0  0  0  0  0  0  0  0  0  0  0  0
  -20.4448  -29.8107   25.1941 C   0  0  0  0  0  0  0  0  0  0  0  0
  -26.2710  -19.2524   24.2340 C   0  0  0  0  0  0  0  0  0  0  0  0
  -20.9981  -30.4220   23.9108 C   0  0  0  0  0  0  0  0  0  0  0  0
  -26.6390  -17.9350   23.5476 C   0  0  0  0  0  0  0  0  0  0  0  0
  -25.9544  -20.3508   23.2206 C   0  0  0  0  0  0  0  0  0  0  0  0
  -27.3576  -19.2565   21.5168 C   0  0  0  0  0  0  0  0  0  0  0  0
  -21.1652  -29.3574   22.8199 C   0  0  1  0  0  0  0  0  0  0  0  0
  -24.7014  -27.9822   23.0127 C   0  0  1  0  0  0  0  0  0  0  0  0
  -27.7478  -18.1377   22.4965 C   0  0  2  0  0  0  0  0  0  0  0  0
  -31.4351  -29.3152   26.6020 C   0  0  0  0  0  0  0  0  0  0  0  0
  -29.5677  -30.2582   17.2753 C   0  0  0  0  0  0  0  0  0  0  0  0
  -25.7492  -32.1459   24.7235 C   0  0  0  0  0  0  0  0  0  0  0  0
  -28.0760  -32.3914   25.6146 C   0  0  0  0  0  0  0  0  0  0  0  0
  -26.3802  -31.0911   26.9015 C   0  0  0  0  0  0  0  0  0  0  0  0
  -30.6308  -26.4023   24.2903 C   0  0  0  0  0  0  0  0  0  0  0  0
  -29.7322  -25.4487   15.7635 C   0  0  0  0  0  0  0  0  0  0  0  0
  -30.5074  -26.1415   18.0261 C   0  0  0  0  0  0  0  0  0  0  0  0
  -29.6827  -27.8518   16.4150 C   0  0  0  0  0  0  0  0  0  0  0  0
  -27.3407  -30.1135   24.7770 C   0  0  1  0  0  0  0  0  0  0  0  0
  -30.5313  -28.3618   25.8360 C   0  0  2  0  0  0  0  0  0  0  0  0
  -29.0975  -28.8188   17.4392 C   0  0  2  0  0  0  0  0  0  1  0  0
  -26.8819  -31.4227   25.4792 C   0  0  0  0  0  0  0  0  0  0  0  0
  -27.1121  -15.9390   21.5786 N   0  0  0  0  0  0  0  0  0  0  0  0
  -28.0848  -16.8445   21.7782 N   0  0  0  0  0  0  0  0  0  0  0  0
  -25.9096  -28.7679   23.2720 N   0  0  0  0  0  0  0  0  0  0  0  0
  -27.0509  -20.4890   22.2595 N   0  0  0  0  0  0  0  0  0  0  0  0
  -30.3867  -17.2578   21.4023 N   0  0  0  0  0  0  0  0  0  0  0  0
  -29.7467  -13.1817   19.5662 N   0  0  0  0  0  0  0  0  0  0  0  0
  -28.7481  -21.7362   21.1983 N   0  0  0  0  0  0  0  0  0  0  0  0
  -22.3535  -28.5677   23.0621 N   0  0  0  0  0  0  0  0  0  0  0  0
  -28.3938  -29.3934   25.4846 N   0  0  0  0  0  0  0  0  0  0  0  0
  -31.3893  -27.4123   25.0724 N   0  3  0  0  0  0  0  0  0  0  0  0
  -29.5715  -26.4477   16.8828 N   0  3  1  0  0  0  0  0  0  0  0  0
  -31.3061  -14.8085   19.9908 O   0  0  0  0  0  0  0  0  0  0  0  0
  -23.9001  -29.9830   22.0484 O   0  0  0  0  0  0  0  0  0  0  0  0
  -25.6158  -28.6993   25.5840 O   0  0  0  0  0  0  0  0  0  0  0  0
  -29.9324  -29.4236   23.7500 O   0  0  0  0  0  0  0  0  0  0  0  0
  -27.3689  -22.7178   22.7844 O   0  0  0  0  0  0  0  0  0  0  0  0
  -24.9426  -10.3665   19.3900 O   0  0  0  0  0  0  0  0  0  0  0  0
  -27.6735  -28.7695   17.3609 O   0  0  0  0  0  0  0  0  0  1  0  0
  -21.5271   -8.0908   23.0724 F   0  0  0  0  0  0  0  0  0  0  0  0
  -25.3126   -7.7650   20.2493 F   0  0  0  0  0  0  0  0  0  0  0  0
  -32.0288  -23.4808   17.6733 Cl  0  0  0  0  0  0  0  0  0  0  0  0
  1  2  1  0  0  0  0
  1  5  2  0  0  0  0
  2  6  2  0  0  0  0
  3 10  2  0  0  0  0
  3 18  1  0  0  0  0
  4 11  1  0  0  0  0
  4 18  2  0  0  0  0
  5 20  1  0  0  0  0
  6 22  1  0  0  0  0
  7 12  2  0  0  0  0
  7 21  1  0  0  0  0
  8  9  2  0  0  0  0
  8 24  1  0  0  0  0
  9 25  1  0  0  0  0
 10 26  1  0  0  0  0
 11 26  2  0  0  0  0
 12 27  1  0  0  0  0
 13 14  2  0  0  0  0
 13 28  1  0  0  0  0
 14 29  1  0  0  0  0
 15 23  1  0  0  0  0
 15 27  2  0  0  0  0
 16 25  2  0  0  0  0
 16 31  1  0  0  0  0
 17 29  2  0  0  0  0
 17 30  1  0  0  0  0
 18 32  1  0  0  0  0
 19 32  1  0  0  0  0
 19 33  2  0  0  0  0
 19 34  1  0  0  0  0
 20 22  2  0  0  0  0
 20 39  1  0  0  0  0
 21 23  2  0  0  0  0
 21 40  1  0  0  0  0
 22 48  1  0  0  0  0
 23 41  1  0  0  0  0
 24 31  2  0  0  0  0
 24 58  1  0  0  0  0
 25 70  1  0  0  0  0
 26 80  1  0  0  0  0
 27 81  1  0  0  0  0
 28 30  2  0  0  0  0
 28 80  1  0  0  0  0
 29 82  1  0  0  0  0
 30 83  1  0  0  0  0
 31 84  1  0  0  0  0
 32 64  2  0  0  0  0
 33 65  1  0  0  0  0
 33 68  1  0  0  0  0
 34 69  1  0  0  0  0
 34 75  2  0  0  0  0
 35 49  1  0  0  0  0
 35 71  1  0  0  0  0
 35 76  2  0  0  0  0
 36 60  1  0  0  0  0
 36 66  1  0  0  0  0
 36 77  2  0  0  0  0
 37 61  1  0  0  0  0
 37 72  1  0  0  0  0
 37 78  2  0  0  0  0
 38 67  1  0  0  0  0
 38 70  1  0  0  0  0
 38 79  2  0  0  0  0
 39 42  1  0  0  0  0
 40 49  1  0  0  0  0
 41 66  1  0  0  0  0
 42 44  1  0  0  0  0
 43 45  1  0  0  0  0
 43 46  1  0  0  0  0
 44 48  1  0  0  0  0
 45 50  1  0  0  0  0
 46 67  1  0  0  0  0
 47 50  1  0  0  0  0
 47 67  1  0  0  0  0
 48 71  1  0  0  0  0
 49 66  1  0  0  0  0
 50 65  1  0  0  0  0
 51 61  1  0  0  0  0
 52 62  1  0  0  0  0
 53 63  1  0  0  0  0
 54 63  1  0  0  0  0
 55 63  1  0  0  0  0
 56 73  1  0  0  0  0
 57 74  1  0  0  0  0
 58 74  1  0  0  0  0
 59 62  1  0  0  0  0
 59 74  1  0  0  0  0
 60 63  1  0  0  0  0
 60 72  1  0  0  0  0
 61 73  1  0  0  0  0
 62 81  1  0  0  0  0
 64 65  1  0  0  0  0
M  CHG  2  73   1  74   1
M  ISO  4  38 100  62 101  70 100  81 101
M  END
> <Batch ID>
0021

> <Smiles>
CNC(C)C(=O)NC(C(=O)N1Cc2cc([101O:1][101CH:1](C)CN(C)Cc3ccc([100NH:0][100C:0](=O)N4CCCC(n5nc(-c6ccc(Oc7ccc(F)cc7F)cc6)c(C(N)=O)c5N)C4)cc3Cl)ccc2CC1C(=O)NC1CCCc2ccccc21)C(C)(C)C

> <Shape>
0.304

> <Color>
0.089

> <Negative vol penalty>
0.000

$$$$

  -OEChem-04042321113D

 83 91  0     1  0  0  0  0  0999 V2000
  -17.9614  -31.9417   19.9797 C   0  0  0  0  0  0  0  0  0  0  0  0
  -19.2867  -31.7877   19.5858 C   0  0  0  0  0  0  0  0  0  0  0  0
  -26.7800  -12.4797   21.7947 C   0  0  0  0  0  0  0  0  0  0  0  0
  -26.0976  -14.0878   20.1258 C   0  0  0  0  0  0  0  0  0  0  0  0
  -17.5810  -31.6226   21.2826 C   0  0  0  0  0  0  0  0  0  0  0  0
  -20.2328  -31.3155   20.4949 C   0  0  0  0  0  0  0  0  0  0  0  0
  -25.0506  -27.7386   19.2701 C   0  0  0  0  0  0  0  0  0  0  0  0
  -30.9171  -23.8038   20.9174 C   0  0  0  0  0  0  0  0  0  0  0  0
  -30.9282  -22.5543   21.5372 C   0  0  0  0  0  0  0  0  0  0  0  0
  -25.4803  -11.9752   21.8400 C   0  0  0  0  0  0  0  0  0  0  0  0
  -24.7980  -13.5833   20.1710 C   0  0  0  0  0  0  0  0  0  0  0  0
  -26.4005  -28.0208   19.0657 C   0  0  0  0  0  0  0  0  0  0  0  0
  -22.4257  -10.0261   22.1318 C   0  0  0  0  0  0  0  0  0  0  0  0
  -22.2675   -8.6403   22.1269 C   0  0  0  0  0  0  0  0  0  0  0  0
  -26.8494  -27.5219   21.3827 C   0  0  0  0  0  0  0  0  0  0  0  0
  -29.5227  -22.9172   19.1549 C   0  0  0  0  0  0  0  0  0  0  0  0
  -23.3861   -8.5201   19.9888 C   0  0  0  0  0  0  0  0  0  0  0  0
  -27.0886  -13.5361   20.9376 C   0  0  0  0  0  0  0  0  0  0  0  0
  -29.4792  -13.6334   20.0528 C   0  0  0  0  0  0  0  0  0  0  0  0
  -18.5210  -31.1370   22.2053 C   0  0  0  0  0  0  0  0  0  0  0  0
  -24.5873  -27.3558   20.5371 C   0  0  0  0  0  0  0  0  0  0  0  0
  -19.8649  -30.9908   21.8117 C   0  0  0  0  0  0  0  0  0  0  0  0
  -25.4936  -27.2329   21.6000 C   0  0  0  0  0  0  0  0  0  0  0  0
  -29.5338  -21.6676   19.7747 C   0  0  0  0  0  0  0  0  0  0  0  0
  -30.2143  -23.9853   19.7263 C   0  0  0  0  0  0  0  0  0  0  0  0
  -30.2366  -21.4862   20.9658 C   0  0  0  0  0  0  0  0  0  0  0  0
  -24.4893  -12.5270   21.0282 C   0  0  0  0  0  0  0  0  0  0  0  0
  -27.2997  -27.9153   20.1228 C   0  0  0  0  0  0  0  0  0  0  0  0
  -23.0641  -10.6590   21.0652 C   0  0  0  0  0  0  0  0  0  0  0  0
  -22.7477   -7.8873   21.0555 C   0  0  0  0  0  0  0  0  0  0  0  0
  -23.5443   -9.9060   19.9937 C   0  0  0  0  0  0  0  0  0  0  0  0
  -28.4308  -14.0580   20.8908 C   0  0  0  0  0  0  0  0  0  0  0  0
  -30.5387  -14.4382   20.3938 C   0  0  0  0  0  0  0  0  0  0  0  0
  -29.4941  -12.6037   19.0552 C   0  0  0  0  0  0  0  0  0  0  0  0
  -22.5337  -28.5720   22.6363 C   0  0  0  0  0  0  0  0  0  0  0  0
  -23.0983  -25.7928   24.2110 C   0  0  0  0  0  0  0  0  0  0  0  0
  -25.1929  -23.1593   24.7801 C   0  0  0  0  0  0  0  0  0  0  0  0
  -30.9114  -19.8954   22.7990 C   0  0  0  0  0  0  0  0  0  0  0  0
  -18.0719  -30.8502   23.6162 C   0  0  0  0  0  0  0  0  0  0  0  0
  -23.1325  -27.0288   20.7347 C   0  0  0  0  0  0  0  0  0  0  0  0
  -25.0503  -26.8061   22.9747 C   0  0  0  0  0  0  0  0  0  0  0  0
  -19.0615  -30.0007   24.4096 C   0  0  0  0  0  0  0  0  0  0  0  0
  -32.3354  -16.8980   24.0892 C   0  0  0  0  0  0  0  0  0  0  0  0
  -20.4814  -30.5286   24.2308 C   0  0  0  0  0  0  0  0  0  0  0  0
  -31.5954  -15.7910   23.3347 C   0  0  0  0  0  0  0  0  0  0  0  0
  -31.4172  -18.0751   24.4132 C   0  0  0  0  0  0  0  0  0  0  0  0
  -29.9537  -17.5259   22.5090 C   0  0  0  0  0  0  0  0  0  0  0  0
  -20.9154  -30.4578   22.7617 C   0  0  1  0  0  0  0  0  0  0  0  0
  -22.6861  -27.1458   22.1888 C   0  0  1  0  0  0  0  0  0  0  0  0
  -30.8534  -16.3471   22.1035 C   0  0  2  0  0  0  0  0  0  0  0  0
  -29.7059  -19.5679   18.4153 C   0  0  0  0  0  0  0  0  0  0  0  0
  -25.3988  -21.0661   26.1489 C   0  0  0  0  0  0  0  0  0  0  0  0
  -23.7847  -27.4690   26.6665 C   0  0  0  0  0  0  0  0  0  0  0  0
  -24.8699  -25.4432   27.6598 C   0  0  0  0  0  0  0  0  0  0  0  0
  -22.4289  -25.4229   27.1459 C   0  0  0  0  0  0  0  0  0  0  0  0
  -25.3006  -21.4519   22.3650 C   0  0  0  0  0  0  0  0  0  0  0  0
  -28.7829  -20.5417   19.1410 C   0  0  0  0  0  0  0  0  0  0  0  0
  -30.6283  -27.6048   18.7542 C   0  0  0  0  0  0  0  0  0  0  0  0
  -30.8887  -26.3856   19.6306 C   0  0  0  0  0  0  0  0  0  0  0  0
  -29.1469  -27.9393   18.6250 C   0  0  0  0  0  0  0  0  0  1  0  0
  -24.0961  -25.3348   25.2472 C   0  0  1  0  0  0  0  0  0  0  0  0
  -24.9401  -21.6632   24.8276 C   0  0  2  0  0  0  0  0  0  0  0  0
  -23.8032  -25.9274   26.6545 C   0  0  0  0  0  0  0  0  0  0  0  0
  -28.7915  -15.0549   21.7032 N   0  0  0  0  0  0  0  0  0  0  0  0
  -30.0785  -15.2635   21.3773 N   0  0  0  0  0  0  0  0  0  0  0  0
  -23.6168  -26.5035   23.1192 N   0  0  0  0  0  0  0  0  0  0  0  0
  -30.7517  -18.5517   23.1988 N   0  0  0  0  0  0  0  0  0  0  0  0
  -31.8098  -14.5133   19.9454 N   0  0  0  0  0  0  0  0  0  0  0  0
  -28.3193  -11.8726   18.8321 N   0  0  0  0  0  0  0  0  0  0  0  0
  -30.2587  -20.2251   21.6116 N   0  0  0  0  0  0  0  0  0  0  0  0
  -30.2029  -25.2273   19.1108 N   0  0  0  0  0  0  0  0  0  0  0  0
  -21.2786  -29.1026   22.4067 N   0  0  0  0  0  0  0  0  0  0  0  0
  -24.0930  -23.8767   25.2004 N   0  0  0  0  0  0  0  0  0  0  0  0
  -25.6711  -20.9790   23.7237 N   0  3  0  0  0  0  0  0  0  0  0  0
  -30.5234  -12.3288   18.3930 O   0  0  0  0  0  0  0  0  0  0  0  0
  -23.4839  -29.1479   23.1531 O   0  0  0  0  0  0  0  0  0  0  0  0
  -21.9039  -25.5236   24.3611 O   0  0  0  0  0  0  0  0  0  0  0  0
  -26.2607  -23.6430   24.4108 O   0  0  0  0  0  0  0  0  0  0  0  0
  -31.6003  -20.6877   23.4468 O   0  0  0  0  0  0  0  0  0  0  0  0
  -23.2211  -12.0348   21.0719 O   0  0  0  0  0  0  0  0  0  0  0  0
  -28.6177  -28.1909   19.9262 O   0  0  0  0  0  0  0  0  0  1  0  0
  -22.5970   -6.5563   21.0516 F   0  0  0  0  0  0  0  0  0  0  0  0
  -24.1594  -10.5082   18.9668 F   0  0  0  0  0  0  0  0  0  0  0  0
  1  2  1  0  0  0  0
  1  5  2  0  0  0  0
  2  6  2  0  0  0  0
  3 10  2  0  0  0  0
  3 18  1  0  0  0  0
  4 11  1  0  0  0  0
  4 18  2  0  0  0  0
  5 20  1  0  0  0  0
  6 22  1  0  0  0  0
  7 12  2  0  0  0  0
  7 21  1  0  0  0  0
  8  9  2  0  0  0  0
  8 25  1  0  0  0  0
  9 26  1  0  0  0  0
 10 27  1  0  0  0  0
 11 27  2  0  0  0  0
 12 28  1  0  0  0  0
 13 14  2  0  0  0  0
 13 29  1  0  0  0  0
 14 30  1  0  0  0  0
 15 23  1  0  0  0  0
 15 28  2  0  0  0  0
 16 24  1  0  0  0  0
 16 25  2  0  0  0  0
 17 30  2  0  0  0  0
 17 31  1  0  0  0  0
 18 32  1  0  0  0  0
 19 32  1  0  0  0  0
 19 33  2  0  0  0  0
 19 34  1  0  0  0  0
 20 22  2  0  0  0  0
 20 39  1  0  0  0  0
 21 23  2  0  0  0  0
 21 40  1  0  0  0  0
 22 48  1  0  0  0  0
 23 41  1  0  0  0  0
 24 26  2  0  0  0  0
 24 57  1  0  0  0  0
 25 71  1  0  0  0  0
 26 70  1  0  0  0  0
 27 80  1  0  0  0  0
 28 81  1  0  0  0  0
 29 31  2  0  0  0  0
 29 80  1  0  0  0  0
 30 82  1  0  0  0  0
 31 83  1  0  0  0  0
 32 64  2  0  0  0  0
 33 65  1  0  0  0  0
 33 68  1  0  0  0  0
 34 69  1  0  0  0  0
 34 75  2  0  0  0  0
 35 49  1  0  0  0  0
 35 72  1  0  0  0  0
 35 76  2  0  0  0  0
 36 61  1  0  0  0  0
 36 66  1  0  0  0  0
 36 77  2  0  0  0  0
 37 62  1  0  0  0  0
 37 73  1  0  0  0  0
 37 78  2  0  0  0  0
 38 67  1  0  0  0  0
 38 70  1  0  0  0  0
 38 79  2  0  0  0  0
 39 42  1  0  0  0  0
 40 49  1  0  0  0  0
 41 66  1  0  0  0  0
 42 44  1  0  0  0  0
 43 45  1  0  0  0  0
 43 46  1  0  0  0  0
 44 48  1  0  0  0  0
 45 50  1  0  0  0  0
 46 67  1  0  0  0  0
 47 50  1  0  0  0  0
 47 67  1  0  0  0  0
 48 72  1  0  0  0  0
 49 66  1  0  0  0  0
 50 65  1  0  0  0  0
 51 57  1  0  0  0  0
 52 62  1  0  0  0  0
 53 63  1  0  0  0  0
 54 63  1  0  0  0  0
 55 63  1  0  0  0  0
 56 74  1  0  0  0  0
 58 59  1  0  0  0  0
 58 60  1  0  0  0  0
 59 71  1  0  0  0  0
 60 81  1  0  0  0  0
 61 63  1  0  0  0  0
 61 73  1  0  0  0  0
 62 74  1  0  0  0  0
 64 65  1  0  0  0  0
M  CHG  1  74   1
M  ISO  4  38 100  60 101  70 100  81 101
M  END
> <Batch ID>
0021

> <Smiles>
CCc1cc(NCC[101CH2:1][101O:1]c2ccc3c(c2)CN(C(=O)C(NC(=O)C(C)NC)C(C)(C)C)C(C(=O)NC2CCCc4ccccc42)C3)ccc1[100NH:0][100C:0](=O)N1CCCC(n2nc(-c3ccc(Oc4ccc(F)cc4F)cc3)c(C(N)=O)c2N)C1

> <Shape>
0.265

> <Color>
0.099

> <Negative vol penalty>
0.000

$$$$

  -OEChem-04042321113D

 84 93  0     1  0  0  0  0  0999 V2000
  -18.1122  -29.5557   24.1003 C   0  0  0  0  0  0  0  0  0  0  0  0
  -19.4997  -29.6371   24.0405 C   0  0  0  0  0  0  0  0  0  0  0  0
  -25.0847  -13.3105   19.5584 C   0  0  0  0  0  0  0  0  0  0  0  0
  -25.9701  -13.9078   21.7255 C   0  0  0  0  0  0  0  0  0  0  0  0
  -17.4525  -28.4757   23.5152 C   0  0  0  0  0  0  0  0  0  0  0  0
  -20.2284  -28.6378   23.3964 C   0  0  0  0  0  0  0  0  0  0  0  0
  -25.3954  -29.3390   20.1845 C   0  0  0  0  0  0  0  0  0  0  0  0
  -30.5261  -24.6917   21.2978 C   0  0  0  0  0  0  0  0  0  0  0  0
  -30.3139  -23.5437   20.5346 C   0  0  0  0  0  0  0  0  0  0  0  0
  -24.9608  -11.9849   19.9744 C   0  0  0  0  0  0  0  0  0  0  0  0
  -25.8462  -12.5822   22.1415 C   0  0  0  0  0  0  0  0  0  0  0  0
  -26.7369  -29.1474   20.5123 C   0  0  0  0  0  0  0  0  0  0  0  0
  -22.8271  -10.1522   21.8508 C   0  0  0  0  0  0  0  0  0  0  0  0
  -21.6397   -9.4859   21.5476 C   0  0  0  0  0  0  0  0  0  0  0  0
  -26.6511  -26.9385   19.5467 C   0  0  0  0  0  0  0  0  0  0  0  0
  -28.0459  -23.4158   21.3574 C   0  0  0  0  0  0  0  0  0  0  0  0
  -22.8832   -7.8457   20.2824 C   0  0  0  0  0  0  0  0  0  0  0  0
  -25.5895  -14.2720   20.4339 C   0  0  0  0  0  0  0  0  0  0  0  0
  -24.7549  -16.6617   20.1172 C   0  0  0  0  0  0  0  0  0  0  0  0
  -18.1729  -27.4677   22.8553 C   0  0  0  0  0  0  0  0  0  0  0  0
  -24.6675  -28.3259   19.5440 C   0  0  0  0  0  0  0  0  0  0  0  0
  -19.5779  -27.5426   22.8031 C   0  0  0  0  0  0  0  0  0  0  0  0
  -25.3012  -27.1207   19.2095 C   0  0  0  0  0  0  0  0  0  0  0  0
  -29.4981  -25.2018   22.0909 C   0  0  0  0  0  0  0  0  0  0  0  0
  -29.0739  -22.9057   20.5643 C   0  0  0  0  0  0  0  0  0  0  0  0
  -25.3415  -11.6208   21.2659 C   0  0  0  0  0  0  0  0  0  0  0  0
  -27.3642  -27.9459   20.1960 C   0  0  0  0  0  0  0  0  0  0  0  0
  -24.0425   -9.6653   21.3698 C   0  0  0  0  0  0  0  0  0  0  0  0
  -21.6678   -8.3327   20.7635 C   0  0  0  0  0  0  0  0  0  0  0  0
  -24.0705   -8.5120   20.5856 C   0  0  0  0  0  0  0  0  0  0  0  0
  -28.2581  -24.5638   22.1207 C   0  0  0  0  0  0  0  0  0  0  0  0
  -25.7183  -15.6413   20.0046 C   0  0  0  0  0  0  0  0  0  0  0  0
  -25.3586  -17.7660   19.5671 C   0  0  0  0  0  0  0  0  0  0  0  0
  -23.4327  -16.6155   20.6696 C   0  0  0  0  0  0  0  0  0  0  0  0
  -22.1085  -26.5918   20.2843 C   0  0  0  0  0  0  0  0  0  0  0  0
  -22.4412  -25.5142   17.2428 C   0  0  0  0  0  0  0  0  0  0  0  0
  -24.4879  -24.9888   14.5629 C   0  0  0  0  0  0  0  0  0  0  0  0
  -29.7725  -21.1034   18.9488 C   0  0  0  0  0  0  0  0  0  0  0  0
  -17.4191  -26.2954   22.2790 C   0  0  0  0  0  0  0  0  0  0  0  0
  -23.2284  -28.5583   19.1733 C   0  0  0  0  0  0  0  0  0  0  0  0
  -24.5696  -26.0092   18.5038 C   0  0  0  0  0  0  0  0  0  0  0  0
  -18.2390  -25.4706   21.2902 C   0  0  0  0  0  0  0  0  0  0  0  0
  -29.6395  -18.1943   16.9002 C   0  0  0  0  0  0  0  0  0  0  0  0
  -29.9512  -27.8141   24.6771 C   0  0  0  0  0  0  0  0  0  0  0  0
  -19.6283  -25.1887   21.8534 C   0  0  0  0  0  0  0  0  0  0  0  0
  -28.5282  -17.3547   17.5345 C   0  0  0  0  0  0  0  0  0  0  0  0
  -30.8539  -28.2874   23.5487 C   0  0  0  0  0  0  0  0  0  0  0  0
  -29.6309  -26.3722   24.2961 C   0  0  0  0  0  0  0  0  0  0  0  0
  -30.4629  -18.9338   17.9532 C   0  0  0  0  0  0  0  0  0  0  0  0
  -28.5701  -18.9052   19.5298 C   0  0  0  0  0  0  0  0  0  0  0  0
  -20.4017  -26.4912   22.0919 C   0  0  1  0  0  0  0  0  0  0  0  0
  -22.4439  -27.2639   18.9829 C   0  0  1  0  0  0  0  0  0  0  0  0
  -27.6727  -18.1928   18.5047 C   0  0  2  0  0  0  0  0  0  0  0  0
  -30.2755  -27.5993   22.3043 C   0  0  2  0  0  0  0  0  0  0  0  0
  -24.4824  -24.0571   12.2328 C   0  0  0  0  0  0  0  0  0  0  0  0
  -22.4287  -22.6819   18.3779 C   0  0  0  0  0  0  0  0  0  0  0  0
  -23.3611  -21.8788   16.1976 C   0  0  0  0  0  0  0  0  0  0  0  0
  -21.1170  -22.9659   16.2676 C   0  0  0  0  0  0  0  0  0  0  0  0
  -25.2627  -27.5952   13.3944 C   0  0  0  0  0  0  0  0  0  0  0  0
  -29.1655  -28.4360   21.6694 C   0  0  0  0  0  0  0  0  0  1  0  0
  -23.1892  -24.3788   16.5867 C   0  0  1  0  0  0  0  0  0  0  0  0
  -24.3169  -25.3038   13.0878 C   0  0  2  0  0  0  0  0  0  0  0  0
  -22.5375  -22.9964   16.8725 C   0  0  0  0  0  0  0  0  0  0  0  0
  -26.8480  -16.0601   19.4282 N   0  0  0  0  0  0  0  0  0  0  0  0
  -26.5984  -17.3558   19.1735 N   0  0  0  0  0  0  0  0  0  0  0  0
  -29.7384  -26.3408   22.8362 N   0  0  3  0  0  0  0  0  0  0  0  0
  -23.1624  -26.2821   18.1680 N   0  0  0  0  0  0  0  0  0  0  0  0
  -29.5863  -19.7096   18.8333 N   0  0  0  0  0  0  0  0  0  0  0  0
  -24.9445  -19.0381   19.3864 N   0  0  0  0  0  0  0  0  0  0  0  0
  -22.9693  -15.4006   21.1929 N   0  0  0  0  0  0  0  0  0  0  0  0
  -28.8590  -21.7395   19.7887 N   0  0  0  0  0  0  0  0  0  0  0  0
  -20.9155  -27.0099   20.8424 N   0  0  0  0  0  0  0  0  0  0  0  0
  -23.2805  -24.7149   15.1700 N   0  0  0  0  0  0  0  0  0  0  0  0
  -25.3267  -26.3097   12.6525 N   0  3  0  0  0  0  0  0  0  0  0  0
  -22.6782  -17.6175   20.6835 O   0  0  0  0  0  0  0  0  0  0  0  0
  -22.8746  -25.7547   20.7470 O   0  0  0  0  0  0  0  0  0  0  0  0
  -21.2627  -25.7168   16.9401 O   0  0  0  0  0  0  0  0  0  0  0  0
  -25.5834  -24.9823   15.1200 O   0  0  0  0  0  0  0  0  0  0  0  0
  -30.6587  -21.6935   18.3256 O   0  0  0  0  0  0  0  0  0  0  0  0
  -25.2205  -10.3274   21.6723 O   0  0  0  0  0  0  0  0  0  0  0  0
  -28.6733  -27.7561   20.5153 O   0  0  0  0  0  0  0  0  0  1  0  0
  -20.5277   -7.6921   20.4737 F   0  0  0  0  0  0  0  0  0  0  0  0
  -25.2352   -8.0388   20.1216 F   0  0  0  0  0  0  0  0  0  0  0  0
  -26.9586  -25.1622   23.0889 Cl  0  0  0  0  0  0  0  0  0  0  0  0
  1  2  1  0  0  0  0
  1  5  2  0  0  0  0
  2  6  2  0  0  0  0
  3 10  2  0  0  0  0
  3 18  1  0  0  0  0
  4 11  1  0  0  0  0
  4 18  2  0  0  0  0
  5 20  1  0  0  0  0
  6 22  1  0  0  0  0
  7 12  2  0  0  0  0
  7 21  1  0  0  0  0
  8  9  2  0  0  0  0
  8 24  1  0  0  0  0
  9 25  1  0  0  0  0
 10 26  1  0  0  0  0
 11 26  2  0  0  0  0
 12 27  1  0  0  0  0
 13 14  2  0  0  0  0
 13 28  1  0  0  0  0
 14 29  1  0  0  0  0
 15 23  1  0  0  0  0
 15 27  2  0  0  0  0
 16 25  2  0  0  0  0
 16 31  1  0  0  0  0
 17 29  2  0  0  0  0
 17 30  1  0  0  0  0
 18 32  1  0  0  0  0
 19 32  1  0  0  0  0
 19 33  2  0  0  0  0
 19 34  1  0  0  0  0
 20 22  2  0  0  0  0
 20 39  1  0  0  0  0
 21 23  2  0  0  0  0
 21 40  1  0  0  0  0
 22 51  1  0  0  0  0
 23 41  1  0  0  0  0
 24 31  2  0  0  0  0
 24 66  1  0  0  0  0
 25 71  1  0  0  0  0
 26 80  1  0  0  0  0
 27 81  1  0  0  0  0
 28 30  2  0  0  0  0
 28 80  1  0  0  0  0
 29 82  1  0  0  0  0
 30 83  1  0  0  0  0
 31 84  1  0  0  0  0
 32 64  2  0  0  0  0
 33 65  1  0  0  0  0
 33 69  1  0  0  0  0
 34 70  1  0  0  0  0
 34 75  2  0  0  0  0
 35 52  1  0  0  0  0
 35 72  1  0  0  0  0
 35 76  2  0  0  0  0
 36 61  1  0  0  0  0
 36 67  1  0  0  0  0
 36 77  2  0  0  0  0
 37 62  1  0  0  0  0
 37 73  1  0  0  0  0
 37 78  2  0  0  0  0
 38 68  1  0  0  0  0
 38 71  1  0  0  0  0
 38 79  2  0  0  0  0
 39 42  1  0  0  0  0
 40 52  1  0  0  0  0
 41 67  1  0  0  0  0
 42 45  1  0  0  0  0
 43 46  1  0  0  0  0
 43 49  1  0  0  0  0
 44 47  1  0  0  0  0
 44 48  1  0  0  0  0
 45 51  1  0  0  0  0
 46 53  1  0  0  0  0
 47 54  1  0  0  0  0
 48 66  1  0  0  0  0
 49 68  1  0  0  0  0
 50 53  1  0  0  0  0
 50 68  1  0  0  0  0
 51 72  1  0  0  0  0
 52 67  1  0  0  0  0
 53 65  1  0  0  0  0
 54 60  1  0  0  0  0
 54 66  1  0  0  0  0
 55 62  1  0  0  0  0
 56 63  1  0  0  0  0
 57 63  1  0  0  0  0
 58 63  1  0  0  0  0
 59 74  1  0  0  0  0
 60 81  1  0  0  0  0
 61 63  1  0  0  0  0
 61 73  1  0  0  0  0
 62 74  1  0  0  0  0
 64 65  1  0  0  0  0
M  CHG  1  74   1
M  ISO  4  38 100  60 101  71 100  81 101
M  END
> <Batch ID>
0021

> <Smiles>
CNC(C)C(=O)NC(C(=O)N1Cc2cc([101O:1][101CH2:1]C3CCCN3c3ccc([100NH:0][100C:0](=O)N4CCCC(n5nc(-c6ccc(Oc7ccc(F)cc7F)cc6)c(C(N)=O)c5N)C4)cc3Cl)ccc2CC1C(=O)NC1CCCc2ccccc21)C(C)(C)C

> <Shape>
0.238

> <Color>
0.066

> <Negative vol penalty>
0.000

$$$$

  -OEChem-04042321113D

 91100  0     1  0  0  0  0  0999 V2000
  -25.5465  -19.8776   30.6016 C   0  0  0  0  0  0  0  0  0  0  0  0
  -26.3056  -19.8634   29.4358 C   0  0  0  0  0  0  0  0  0  0  0  0
  -22.9958   -9.8494   20.0386 C   0  0  0  0  0  0  0  0  0  0  0  0
  -23.7217   -9.9973   22.3382 C   0  0  0  0  0  0  0  0  0  0  0  0
  -24.5372  -20.8258   30.7634 C   0  0  0  0  0  0  0  0  0  0  0  0
  -26.0551  -20.7969   28.4306 C   0  0  0  0  0  0  0  0  0  0  0  0
  -30.1692  -23.3985   24.7142 C   0  0  0  0  0  0  0  0  0  0  0  0
  -29.7679  -16.2825   18.2157 C   0  0  0  0  0  0  0  0  0  0  0  0
  -30.0491  -16.9745   17.0377 C   0  0  0  0  0  0  0  0  0  0  0  0
  -22.2290   -8.7274   20.3528 C   0  0  0  0  0  0  0  0  0  0  0  0
  -22.9549   -8.8753   22.6525 C   0  0  0  0  0  0  0  0  0  0  0  0
  -30.5592  -23.1196   23.4051 C   0  0  0  0  0  0  0  0  0  0  0  0
  -23.1981   -5.5194   22.3219 C   0  0  0  0  0  0  0  0  0  0  0  0
  -23.7856   -4.5347   23.1161 C   0  0  0  0  0  0  0  0  0  0  0  0
  -29.0339  -24.8053   22.5981 C   0  0  0  0  0  0  0  0  0  0  0  0
  -29.5091  -18.3802   19.3862 C   0  0  0  0  0  0  0  0  0  0  0  0
  -22.0623   -4.8486   24.7801 C   0  0  0  0  0  0  0  0  0  0  0  0
  -23.7422  -10.4843   21.0313 C   0  0  0  0  0  0  0  0  0  0  0  0
  -24.1282  -12.9901   20.7491 C   0  0  0  0  0  0  0  0  0  0  0  0
  -24.2806  -21.7775   29.7638 C   0  0  0  0  0  0  0  0  0  0  0  0
  -29.1990  -24.3769   24.9748 C   0  0  0  0  0  0  0  0  0  0  0  0
  -25.0406  -21.7579   28.5787 C   0  0  0  0  0  0  0  0  0  0  0  0
  -28.6352  -25.0964   23.9116 C   0  0  0  0  0  0  0  0  0  0  0  0
  -29.4978  -16.9854   19.3900 C   0  0  0  0  0  0  0  0  0  0  0  0
  -30.0603  -18.3693   17.0339 C   0  0  0  0  0  0  0  0  0  0  0  0
  -29.7903  -19.0722   18.2082 C   0  0  0  0  0  0  0  0  0  0  0  0
  -22.2085   -8.2404   21.6598 C   0  0  0  0  0  0  0  0  0  0  0  0
  -29.9894  -23.8211   22.3465 C   0  0  0  0  0  0  0  0  0  0  0  0
  -22.0427   -6.1688   22.7568 C   0  0  0  0  0  0  0  0  0  0  0  0
  -23.2177   -4.1993   24.3452 C   0  0  0  0  0  0  0  0  0  0  0  0
  -21.4749   -5.8334   23.9859 C   0  0  0  0  0  0  0  0  0  0  0  0
  -24.5349  -11.6430   20.7072 C   0  0  0  0  0  0  0  0  0  0  0  0
  -25.2381  -13.6963   20.3542 C   0  0  0  0  0  0  0  0  0  0  0  0
  -22.8605  -13.5528   21.1126 C   0  0  0  0  0  0  0  0  0  0  0  0
  -26.3087  -24.3736   26.2977 C   0  0  0  0  0  0  0  0  0  0  0  0
  -26.5753  -27.5882   25.9552 C   0  0  0  0  0  0  0  0  0  0  0  0
  -29.5465  -21.3213   19.3153 C   0  0  0  0  0  0  0  0  0  0  0  0
  -28.0061  -30.2187   24.3181 C   0  0  0  0  0  0  0  0  0  0  0  0
  -30.8455  -14.3601   21.0122 C   0  0  0  0  0  0  0  0  0  0  0  0
  -23.1479  -22.7529   29.9638 C   0  0  0  0  0  0  0  0  0  0  0  0
  -28.8087  -24.6844   26.3945 C   0  0  0  0  0  0  0  0  0  0  0  0
  -27.6044  -26.1707   24.1394 C   0  0  0  0  0  0  0  0  0  0  0  0
  -23.1946  -23.9443   29.0105 C   0  0  0  0  0  0  0  0  0  0  0  0
  -29.5930  -12.1517   18.3186 C   0  0  0  0  0  0  0  0  0  0  0  0
  -31.5559  -20.0397   14.0850 C   0  0  0  0  0  0  0  0  0  0  0  0
  -23.4585  -23.4759   27.5830 C   0  0  0  0  0  0  0  0  0  0  0  0
  -28.1529  -11.8821   18.7515 C   0  0  0  0  0  0  0  0  0  0  0  0
  -30.1467  -20.6054   14.1109 C   0  0  0  0  0  0  0  0  0  0  0  0
  -31.7048  -19.4051   15.4651 C   0  0  0  0  0  0  0  0  0  0  0  0
  -30.5013  -12.4305   19.5123 C   0  0  0  0  0  0  0  0  0  0  0  0
  -28.5775  -13.2580   20.8268 C   0  0  0  0  0  0  0  0  0  0  0  0
  -24.8155  -22.7697   27.4761 C   0  0  1  0  0  0  0  0  0  0  0  0
  -27.4373  -25.3430   26.5079 C   0  0  1  0  0  0  0  0  0  0  0  0
  -27.6265  -13.0192   19.6444 C   0  0  2  0  0  0  0  0  0  0  0  0
  -29.3559  -19.5603   14.9029 C   0  0  1  0  0  0  0  0  0  0  0  0
  -28.7980  -18.4630   14.0039 C   0  0  0  0  0  0  0  0  0  0  0  0
  -27.9977  -32.7267   24.2340 C   0  0  0  0  0  0  0  0  0  0  0  0
  -23.9018  -27.5276   24.4859 C   0  0  0  0  0  0  0  0  0  0  0  0
  -24.4048  -29.8222   23.6200 C   0  0  0  0  0  0  0  0  0  0  0  0
  -24.1761  -29.4397   26.0744 C   0  0  0  0  0  0  0  0  0  0  0  0
  -31.2857  -16.6143   21.9091 C   0  0  0  0  0  0  0  0  0  0  0  0
  -30.8770  -30.3676   25.0216 C   0  0  0  0  0  0  0  0  0  0  0  0
  -29.1971  -16.2452   20.6493 C   0  0  0  0  0  0  0  0  0  0  0  0
  -29.6542  -22.7843   18.9005 C   0  0  0  0  0  0  0  0  0  0  0  0
  -29.3924  -23.7509   20.0455 C   0  0  0  0  0  0  0  0  0  1  0  0
  -26.2274  -28.5804   24.8719 C   0  0  1  0  0  0  0  0  0  0  0  0
  -28.6547  -31.4918   24.8308 C   0  0  2  0  0  0  0  0  0  0  0  0
  -24.6955  -28.8209   24.7583 C   0  0  0  0  0  0  0  0  0  0  0  0
  -25.8041  -11.4995   20.3163 N   0  0  0  0  0  0  0  0  0  0  0  0
  -26.2044  -12.7656   20.1089 N   0  0  0  0  0  0  0  0  0  0  0  0
  -30.3410  -19.0346   15.8556 N   0  0  3  0  0  0  0  0  0  0  0  0
  -27.2511  -26.4303   25.5449 N   0  0  0  0  0  0  0  0  0  0  0  0
  -29.9558  -13.4853   20.3673 N   0  0  0  0  0  0  0  0  0  0  0  0
  -25.4719  -15.0165   20.1961 N   0  0  0  0  0  0  0  0  0  0  0  0
  -21.8286  -12.6842   21.4935 N   0  0  0  0  0  0  0  0  0  0  0  0
  -29.7955  -20.4872   18.2287 N   0  0  0  0  0  0  0  0  0  0  0  0
  -25.8893  -23.7396   27.4517 N   0  0  0  0  0  0  0  0  0  0  0  0
  -27.0017  -29.7837   25.1566 N   0  0  0  0  0  0  0  0  0  0  0  0
  -30.3954  -15.6669   21.2535 N   0  0  0  0  0  0  0  0  0  0  0  0
  -30.1027  -31.5134   24.4789 N   0  3  0  0  0  0  0  0  0  0  0  0
  -22.6442  -14.7880   21.0842 O   0  0  0  0  0  0  0  0  0  0  0  0
  -25.8513  -24.2137   25.1721 O   0  0  0  0  0  0  0  0  0  0  0  0
  -26.2653  -27.8349   27.1234 O   0  0  0  0  0  0  0  0  0  0  0  0
  -29.2741  -20.9867   20.4634 O   0  0  0  0  0  0  0  0  0  0  0  0
  -28.3531  -29.6673   23.2759 O   0  0  0  0  0  0  0  0  0  0  0  0
  -31.9811  -13.9967   21.3443 O   0  0  0  0  0  0  0  0  0  0  0  0
  -21.4602   -7.1457   21.9668 O   0  0  0  0  0  0  0  0  0  0  0  0
  -30.3678  -23.5504   21.0677 O   0  0  0  0  0  0  0  0  0  1  0  0
  -23.7811   -3.2525   25.1070 F   0  0  0  0  0  0  0  0  0  0  0  0
  -20.3643   -6.4530   24.4085 F   0  0  0  0  0  0  0  0  0  0  0  0
  -28.3309  -20.1967   15.5284 F   0  0  0  0  0  0  0  0  0  0  0  0
  1  2  1  0  0  0  0
  1  5  2  0  0  0  0
  2  6  2  0  0  0  0
  3 10  2  0  0  0  0
  3 18  1  0  0  0  0
  4 11  1  0  0  0  0
  4 18  2  0  0  0  0
  5 20  1  0  0  0  0
  6 22  1  0  0  0  0
  7 12  2  0  0  0  0
  7 21  1  0  0  0  0
  8  9  2  0  0  0  0
  8 24  1  0  0  0  0
  9 25  1  0  0  0  0
 10 27  1  0  0  0  0
 11 27  2  0  0  0  0
 12 28  1  0  0  0  0
 13 14  2  0  0  0  0
 13 29  1  0  0  0  0
 14 30  1  0  0  0  0
 15 23  1  0  0  0  0
 15 28  2  0  0  0  0
 16 24  2  0  0  0  0
 16 26  1  0  0  0  0
 17 30  2  0  0  0  0
 17 31  1  0  0  0  0
 18 32  1  0  0  0  0
 19 32  1  0  0  0  0
 19 33  2  0  0  0  0
 19 34  1  0  0  0  0
 20 22  2  0  0  0  0
 20 40  1  0  0  0  0
 21 23  2  0  0  0  0
 21 41  1  0  0  0  0
 22 52  1  0  0  0  0
 23 42  1  0  0  0  0
 24 63  1  0  0  0  0
 25 26  2  0  0  0  0
 25 71  1  0  0  0  0
 26 76  1  0  0  0  0
 27 87  1  0  0  0  0
 28 88  1  0  0  0  0
 29 31  2  0  0  0  0
 29 87  1  0  0  0  0
 30 89  1  0  0  0  0
 31 90  1  0  0  0  0
 32 69  2  0  0  0  0
 33 70  1  0  0  0  0
 33 74  1  0  0  0  0
 34 75  1  0  0  0  0
 34 81  2  0  0  0  0
 35 53  1  0  0  0  0
 35 77  1  0  0  0  0
 35 82  2  0  0  0  0
 36 66  1  0  0  0  0
 36 72  1  0  0  0  0
 36 83  2  0  0  0  0
 37 64  1  0  0  0  0
 37 76  1  0  0  0  0
 37 84  2  0  0  0  0
 38 67  1  0  0  0  0
 38 78  1  0  0  0  0
 38 85  2  0  0  0  0
 39 73  1  0  0  0  0
 39 79  1  0  0  0  0
 39 86  2  0  0  0  0
 40 43  1  0  0  0  0
 41 53  1  0  0  0  0
 42 72  1  0  0  0  0
 43 46  1  0  0  0  0
 44 47  1  0  0  0  0
 44 50  1  0  0  0  0
 45 48  1  0  0  0  0
 45 49  1  0  0  0  0
 46 52  1  0  0  0  0
 47 54  1  0  0  0  0
 48 55  1  0  0  0  0
 49 71  1  0  0  0  0
 50 73  1  0  0  0  0
 51 54  1  0  0  0  0
 51 73  1  0  0  0  0
 52 77  1  0  0  0  0
 53 72  1  0  0  0  0
 54 70  1  0  0  0  0
 55 56  1  0  0  0  0
 55 71  1  0  0  0  0
 55 91  1  0  0  0  0
 57 67  1  0  0  0  0
 58 68  1  0  0  0  0
 59 68  1  0  0  0  0
 60 68  1  0  0  0  0
 61 79  1  0  0  0  0
 62 80  1  0  0  0  0
 63 79  1  0  0  0  0
 64 65  1  0  0  0  0
 65 88  1  0  0  0  0
 66 68  1  0  0  0  0
 66 78  1  0  0  0  0
 67 80  1  0  0  0  0
 69 70  1  0  0  0  0
M  CHG  1  80   1
M  ISO  4  39 100  65 101  79 100  88 101
M  END
> <Batch ID>
0021

> <Smiles>
CNC(C)C(=O)NC(C(=O)N1Cc2cc([101O:1][101CH2:1]CC(=O)Nc3cc(C[100N:0](C)[100C:0](=O)N4CCCC(n5nc(-c6ccc(Oc7ccc(F)cc7F)cc6)c(C(N)=O)c5N)C4)ccc3N3CCCC3(C)F)ccc2CC1C(=O)NC1CCCc2ccccc21)C(C)(C)C

> <Shape>
0.252

> <Color>
0.186

> <Negative vol penalty>
0.000

$$$$

  -OEChem-04042321113D

 85 93  0     1  0  0  0  0  0999 V2000
  -26.6007  -37.5722   23.2674 C   0  0  0  0  0  0  0  0  0  0  0  0
  -27.2933  -36.4428   22.8428 C   0  0  0  0  0  0  0  0  0  0  0  0
  -25.1691  -13.4775   21.6033 C   0  0  0  0  0  0  0  0  0  0  0  0
  -26.0662  -13.4392   19.3604 C   0  0  0  0  0  0  0  0  0  0  0  0
  -25.4079  -37.4318   23.9754 C   0  0  0  0  0  0  0  0  0  0  0  0
  -26.7938  -35.1723   23.1269 C   0  0  0  0  0  0  0  0  0  0  0  0
  -27.2054  -30.1816   19.6012 C   0  0  0  0  0  0  0  0  0  0  0  0
  -25.8662  -22.3037   22.2755 C   0  0  0  0  0  0  0  0  0  0  0  0
  -27.0769  -22.5883   21.6440 C   0  0  0  0  0  0  0  0  0  0  0  0
  -25.0717  -12.0861   21.5882 C   0  0  0  0  0  0  0  0  0  0  0  0
  -25.9689  -12.0478   19.3452 C   0  0  0  0  0  0  0  0  0  0  0  0
  -28.0729  -29.0904   19.6179 C   0  0  0  0  0  0  0  0  0  0  0  0
  -24.2509   -8.5680   22.0040 C   0  0  0  0  0  0  0  0  0  0  0  0
  -23.0740   -7.9935   22.4839 C   0  0  0  0  0  0  0  0  0  0  0  0
  -26.4573  -27.8332   20.8942 C   0  0  0  0  0  0  0  0  0  0  0  0
  -24.6960  -22.6578   20.1916 C   0  0  0  0  0  0  0  0  0  0  0  0
  -21.8102   -9.1719   20.7953 C   0  0  0  0  0  0  0  0  0  0  0  0
  -25.6663  -14.1540   20.4894 C   0  0  0  0  0  0  0  0  0  0  0  0
  -26.8647  -16.3625   20.9301 C   0  0  0  0  0  0  0  0  0  0  0  0
  -24.8885  -36.1590   24.2599 C   0  0  0  0  0  0  0  0  0  0  0  0
  -25.9597  -30.1105   20.2413 C   0  0  0  0  0  0  0  0  0  0  0  0
  -25.5935  -35.0147   23.8405 C   0  0  0  0  0  0  0  0  0  0  0  0
  -25.5748  -28.9241   20.8819 C   0  0  0  0  0  0  0  0  0  0  0  0
  -24.6757  -22.3383   21.5493 C   0  0  0  0  0  0  0  0  0  0  0  0
  -27.0972  -22.9077   20.2864 C   0  0  0  0  0  0  0  0  0  0  0  0
  -25.4716  -11.3713   20.4592 C   0  0  0  0  0  0  0  0  0  0  0  0
  -27.7002  -27.9169   20.2669 C   0  0  0  0  0  0  0  0  0  0  0  0
  -24.2076   -9.4446   20.9198 C   0  0  0  0  0  0  0  0  0  0  0  0
  -21.8536   -8.2954   21.8795 C   0  0  0  0  0  0  0  0  0  0  0  0
  -22.9872   -9.7465   20.3154 C   0  0  0  0  0  0  0  0  0  0  0  0
  -25.9067  -22.9424   19.5601 C   0  0  0  0  0  0  0  0  0  0  0  0
  -25.7666  -15.5913   20.5043 C   0  0  0  0  0  0  0  0  0  0  0  0
  -26.4628  -17.6630   20.7463 C   0  0  0  0  0  0  0  0  0  0  0  0
  -28.1344  -15.9410   21.4457 C   0  0  0  0  0  0  0  0  0  0  0  0
  -24.5798  -31.6693   22.6433 C   0  0  0  0  0  0  0  0  0  0  0  0
  -21.9916  -29.9139   21.7818 C   0  0  0  0  0  0  0  0  0  0  0  0
  -28.8391  -24.5291   19.6457 C   0  0  0  0  0  0  0  0  0  0  0  0
  -20.7646  -27.1121   20.2681 C   0  0  0  0  0  0  0  0  0  0  0  0
  -22.3244  -21.4651   21.5401 C   0  0  0  0  0  0  0  0  0  0  0  0
  -23.6200  -36.0569   25.0692 C   0  0  0  0  0  0  0  0  0  0  0  0
  -25.0243  -31.2873   20.1913 C   0  0  0  0  0  0  0  0  0  0  0  0
  -24.2400  -28.7897   21.5667 C   0  0  0  0  0  0  0  0  0  0  0  0
  -22.9651  -34.6795   25.0041 C   0  0  0  0  0  0  0  0  0  0  0  0
  -22.4731  -19.6064   18.3438 C   0  0  0  0  0  0  0  0  0  0  0  0
  -24.0058  -33.5834   25.2102 C   0  0  0  0  0  0  0  0  0  0  0  0
  -23.3658  -18.4149   18.6855 C   0  0  0  0  0  0  0  0  0  0  0  0
  -21.7085  -20.1096   19.5644 C   0  0  0  0  0  0  0  0  0  0  0  0
  -23.4855  -19.2544   21.0650 C   0  0  0  0  0  0  0  0  0  0  0  0
  -25.0711  -33.6198   24.1078 C   0  0  1  0  0  0  0  0  0  0  0  0
  -23.9935  -31.2795   21.3159 C   0  0  1  0  0  0  0  0  0  0  0  0
  -24.2973  -18.7544   19.8607 C   0  0  1  0  0  0  0  0  0  0  0  0
  -30.0639  -21.4802   20.0588 C   0  0  0  0  0  0  0  0  0  0  0  0
  -18.6092  -25.9339   19.7548 C   0  0  0  0  0  0  0  0  0  0  0  0
  -21.8084  -28.9900   24.6840 C   0  0  0  0  0  0  0  0  0  0  0  0
  -20.2959  -27.1437   23.9277 C   0  0  0  0  0  0  0  0  0  0  0  0
  -19.6096  -29.5218   23.6177 C   0  0  0  0  0  0  0  0  0  0  0  0
  -23.1987  -22.6012   23.5342 C   0  0  0  0  0  0  0  0  0  0  0  0
  -21.2270  -27.2911   17.3504 C   0  0  0  0  0  0  0  0  0  0  0  0
  -27.9531  -25.5533   20.3399 C   0  0  0  0  0  0  0  0  0  1  0  0
  -29.1399  -22.0946   19.0632 C   0  0  0  0  0  0  0  0  0  0  0  0
  -21.4419  -28.5610   22.1645 C   0  0  1  0  0  0  0  0  0  0  0  0
  -19.6520  -26.9207   19.2533 C   0  0  2  0  0  0  0  0  0  0  0  0
  -20.8150  -28.5570   23.5873 C   0  0  0  0  0  0  0  0  0  0  0  0
  -24.7439  -16.3394   20.0819 N   0  0  0  0  0  0  0  0  0  0  0  0
  -25.1976  -17.5943   20.2415 N   0  0  0  0  0  0  0  0  0  0  0  0
  -23.3630  -29.9701   21.4956 N   0  0  0  0  0  0  0  0  0  0  0  0
  -22.6014  -20.3714   20.6943 N   0  0  0  0  0  0  0  0  0  0  0  0
  -27.0718  -18.8470   20.9689 N   0  0  0  0  0  0  0  0  0  0  0  0
  -28.3826  -14.5672   21.5692 N   0  0  0  0  0  0  0  0  0  0  0  0
  -24.5589  -33.0287   22.8902 N   0  0  0  0  0  0  0  0  0  0  0  0
  -20.5163  -28.1812   21.1027 N   0  0  0  0  0  0  0  0  0  0  0  0
  -28.3720  -23.1975   19.6616 N   0  0  0  0  0  0  0  0  0  0  0  0
  -23.4240  -22.0432   22.2027 N   0  0  0  0  0  0  0  0  0  0  0  0
  -20.2055  -26.4070   17.9685 N   0  3  0  0  0  0  0  0  0  0  0  0
  -29.0164  -16.7587   21.8021 O   0  0  0  0  0  0  0  0  0  0  0  0
  -25.0173  -30.8008   23.3890 O   0  0  0  0  0  0  0  0  0  0  0  0
  -21.2309  -30.8836   21.7314 O   0  0  0  0  0  0  0  0  0  0  0  0
  -29.9031  -24.9052   19.1476 O   0  0  0  0  0  0  0  0  0  0  0  0
  -21.7532  -26.3836   20.3180 O   0  0  0  0  0  0  0  0  0  0  0  0
  -21.1701  -21.8650   21.7360 O   0  0  0  0  0  0  0  0  0  0  0  0
  -25.3770  -10.0135   20.4441 O   0  0  0  0  0  0  0  0  0  0  0  0
  -28.5453  -26.8505   20.2853 O   0  0  0  0  0  0  0  0  0  1  0  0
  -20.7237   -7.7424   22.3395 F   0  0  0  0  0  0  0  0  0  0  0  0
  -22.9394  -10.5869   19.2727 F   0  0  0  0  0  0  0  0  0  0  0  0
  -25.8873  -23.3330   17.8773 Cl  0  0  0  0  0  0  0  0  0  0  0  0
  1  2  1  0  0  0  0
  1  5  2  0  0  0  0
  2  6  2  0  0  0  0
  3 10  2  0  0  0  0
  3 18  1  0  0  0  0
  4 11  1  0  0  0  0
  4 18  2  0  0  0  0
  5 20  1  0  0  0  0
  6 22  1  0  0  0  0
  7 12  2  0  0  0  0
  7 21  1  0  0  0  0
  8  9  2  0  0  0  0
  8 24  1  0  0  0  0
  9 25  1  0  0  0  0
 10 26  1  0  0  0  0
 11 26  2  0  0  0  0
 12 27  1  0  0  0  0
 13 14  2  0  0  0  0
 13 28  1  0  0  0  0
 14 29  1  0  0  0  0
 15 23  1  0  0  0  0
 15 27  2  0  0  0  0
 16 24  2  0  0  0  0
 16 31  1  0  0  0  0
 17 29  2  0  0  0  0
 17 30  1  0  0  0  0
 18 32  1  0  0  0  0
 19 32  1  0  0  0  0
 19 33  2  0  0  0  0
 19 34  1  0  0  0  0
 20 22  2  0  0  0  0
 20 40  1  0  0  0  0
 21 23  2  0  0  0  0
 21 41  1  0  0  0  0
 22 49  1  0  0  0  0
 23 42  1  0  0  0  0
 24 73  1  0  0  0  0
 25 31  2  0  0  0  0
 25 72  1  0  0  0  0
 26 81  1  0  0  0  0
 27 82  1  0  0  0  0
 28 30  2  0  0  0  0
 28 81  1  0  0  0  0
 29 83  1  0  0  0  0
 30 84  1  0  0  0  0
 31 85  1  0  0  0  0
 32 64  2  0  0  0  0
 33 65  1  0  0  0  0
 33 68  1  0  0  0  0
 34 69  1  0  0  0  0
 34 75  2  0  0  0  0
 35 50  1  0  0  0  0
 35 70  1  0  0  0  0
 35 76  2  0  0  0  0
 36 61  1  0  0  0  0
 36 66  1  0  0  0  0
 36 77  2  0  0  0  0
 37 59  1  0  0  0  0
 37 72  1  0  0  0  0
 37 78  2  0  0  0  0
 38 62  1  0  0  0  0
 38 71  1  0  0  0  0
 38 79  2  0  0  0  0
 39 67  1  0  0  0  0
 39 73  1  0  0  0  0
 39 80  2  0  0  0  0
 40 43  1  0  0  0  0
 41 50  1  0  0  0  0
 42 66  1  0  0  0  0
 43 45  1  0  0  0  0
 44 46  1  0  0  0  0
 44 47  1  0  0  0  0
 45 49  1  0  0  0  0
 46 51  1  0  0  0  0
 47 67  1  0  0  0  0
 48 51  1  0  0  0  0
 48 67  1  0  0  0  0
 49 70  1  0  0  0  0
 50 66  1  0  0  0  0
 51 65  1  0  0  0  0
 52 60  1  0  0  0  0
 53 62  1  0  0  0  0
 54 63  1  0  0  0  0
 55 63  1  0  0  0  0
 56 63  1  0  0  0  0
 57 73  1  0  0  0  0
 58 74  1  0  0  0  0
 59 82  1  0  0  0  0
 60 72  1  0  0  0  0
 61 63  1  0  0  0  0
 61 71  1  0  0  0  0
 62 74  1  0  0  0  0
 64 65  1  0  0  0  0
M  CHG  1  74   1
M  ISO  4  39 100  59 101  73 100  82 101
M  END
> <Batch ID>
0021

> <Smiles>
CCN(C(=O)[101CH2:1][101O:1]c1ccc2c(c1)CN(C(=O)C(NC(=O)C(C)NC)C(C)(C)C)C(C(=O)NC1CCCc3ccccc31)C2)c1ccc([100N:0](C)[100C:0](=O)N2CCCC(n3nc(-c4ccc(Oc5ccc(F)cc5F)cc4)c(C(N)=O)c3N)C2)cc1Cl

> <Shape>
0.292

> <Color>
0.091

> <Negative vol penalty>
0.000

$$$$

  -OEChem-04042321113D

 88 97  0     1  0  0  0  0  0999 V2000
  -20.3823  -30.7919   23.3375 C   0  0  0  0  0  0  0  0  0  0  0  0
  -20.5229  -29.6964   22.4917 C   0  0  0  0  0  0  0  0  0  0  0  0
  -24.6655   -8.4400   21.4226 C   0  0  0  0  0  0  0  0  0  0  0  0
  -23.2246  -10.3676   21.6352 C   0  0  0  0  0  0  0  0  0  0  0  0
  -21.3487  -31.7970   23.3410 C   0  0  0  0  0  0  0  0  0  0  0  0
  -21.6295  -29.6058   21.6481 C   0  0  0  0  0  0  0  0  0  0  0  0
  -23.6984  -24.9836   21.6471 C   0  0  0  0  0  0  0  0  0  0  0  0
  -23.9383   -7.7867   22.4176 C   0  0  0  0  0  0  0  0  0  0  0  0
  -22.4973   -9.7143   22.6301 C   0  0  0  0  0  0  0  0  0  0  0  0
  -23.0559  -23.9986   20.8983 C   0  0  0  0  0  0  0  0  0  0  0  0
  -21.0040   -6.1265   22.6750 C   0  0  0  0  0  0  0  0  0  0  0  0
  -20.6520   -4.7952   22.4524 C   0  0  0  0  0  0  0  0  0  0  0  0
  -24.6579  -24.3123   19.1222 C   0  0  0  0  0  0  0  0  0  0  0  0
  -28.2944  -18.3082   19.1514 C   0  0  0  0  0  0  0  0  0  0  0  0
  -26.6031  -19.9962   18.7949 C   0  0  0  0  0  0  0  0  0  0  0  0
  -21.8847   -4.1397   24.4242 C   0  0  0  0  0  0  0  0  0  0  0  0
  -24.3086   -9.7305   21.0314 C   0  0  0  0  0  0  0  0  0  0  0  0
  -24.8184  -10.3788   18.6174 C   0  0  0  0  0  0  0  0  0  0  0  0
  -22.4725  -31.7139   22.5040 C   0  0  0  0  0  0  0  0  0  0  0  0
  -24.8208  -25.6492   21.1337 C   0  0  0  0  0  0  0  0  0  0  0  0
  -22.6111  -30.6113   21.6394 C   0  0  0  0  0  0  0  0  0  0  0  0
  -25.3143  -25.3036   19.8676 C   0  0  0  0  0  0  0  0  0  0  0  0
  -26.0573  -17.9751   20.0008 C   0  0  0  0  0  0  0  0  0  0  0  0
  -27.3668  -17.5235   19.8365 C   0  0  0  0  0  0  0  0  0  0  0  0
  -22.8542   -8.4238   23.0214 C   0  0  0  0  0  0  0  0  0  0  0  0
  -23.5339  -23.6648   19.6344 C   0  0  0  0  0  0  0  0  0  0  0  0
  -21.7964   -6.4644   23.7721 C   0  0  0  0  0  0  0  0  0  0  0  0
  -25.6754  -19.2115   19.4800 C   0  0  0  0  0  0  0  0  0  0  0  0
  -21.0924   -3.8019   23.3271 C   0  0  0  0  0  0  0  0  0  0  0  0
  -22.2367   -5.4710   24.6468 C   0  0  0  0  0  0  0  0  0  0  0  0
  -27.9125  -19.5446   18.6306 C   0  0  0  0  0  0  0  0  0  0  0  0
  -25.0598  -10.4061   20.0041 C   0  0  0  0  0  0  0  0  0  0  0  0
  -25.8020  -11.1741   18.0820 C   0  0  0  0  0  0  0  0  0  0  0  0
  -23.7965   -9.6957   17.8793 C   0  0  0  0  0  0  0  0  0  0  0  0
  -25.4982  -28.6668   20.3998 C   0  0  0  0  0  0  0  0  0  0  0  0
  -28.4683  -27.4670   19.8892 C   0  0  0  0  0  0  0  0  0  0  0  0
  -30.4126  -24.7605   19.1532 C   0  0  0  0  0  0  0  0  0  0  0  0
  -29.0413  -15.6925   20.2720 C   0  0  0  0  0  0  0  0  0  0  0  0
  -23.4666  -32.8481   22.5087 C   0  0  0  0  0  0  0  0  0  0  0  0
  -25.5185  -26.6906   21.9650 C   0  0  0  0  0  0  0  0  0  0  0  0
  -26.5280  -25.9741   19.2794 C   0  0  0  0  0  0  0  0  0  0  0  0
  -24.7995  -32.4925   21.8551 C   0  0  0  0  0  0  0  0  0  0  0  0
  -30.2835  -12.6504   18.9009 C   0  0  0  0  0  0  0  0  0  0  0  0
  -22.6928  -15.0901   18.7712 C   0  0  0  0  0  0  0  0  0  0  0  0
  -22.5899  -14.6220   20.2089 C   0  0  0  0  0  0  0  0  0  0  0  0
  -24.5692  -31.7818   20.5252 C   0  0  0  0  0  0  0  0  0  0  0  0
  -29.0615  -11.7291   18.8964 C   0  0  0  0  0  0  0  0  0  0  0  0
  -30.3052  -13.5577   20.1298 C   0  0  0  0  0  0  0  0  0  0  0  0
  -27.8556  -13.4112   20.3467 C   0  0  0  0  0  0  0  0  0  0  0  0
  -23.5317  -16.3442   18.8921 C   0  0  0  0  0  0  0  0  0  0  0  0
  -23.9825  -14.8477   20.7709 C   0  0  0  0  0  0  0  0  0  0  0  0
  -23.8100  -30.4650   20.7276 C   0  0  1  0  0  0  0  0  0  0  0  0
  -26.3455  -27.6648   21.1317 C   0  0  1  0  0  0  0  0  0  0  0  0
  -27.7559  -12.5238   19.0952 C   0  0  2  0  0  0  0  0  0  0  0  0
  -32.8019  -24.0984   18.7655 C   0  0  0  0  0  0  0  0  0  0  0  0
  -28.3660  -28.7317   17.1143 C   0  0  0  0  0  0  0  0  0  0  0  0
  -30.2928  -27.2750   16.4557 C   0  0  0  0  0  0  0  0  0  0  0  0
  -30.5670  -28.9529   18.2811 C   0  0  0  0  0  0  0  0  0  0  0  0
  -30.3843  -22.8815   21.4395 C   0  0  0  0  0  0  0  0  0  0  0  0
  -25.0545  -17.1410   20.7340 C   0  0  0  0  0  0  0  0  0  0  0  0
  -22.2520  -20.3849   18.7914 C   0  0  0  0  0  0  0  0  0  0  0  0
  -22.2561  -21.6591   19.6214 C   0  0  0  0  0  0  0  0  0  1  0  0
  -23.6600  -19.9295   18.4415 C   0  0  0  0  0  0  0  0  0  0  0  0
  -29.1926  -26.8736   18.7050 C   0  0  1  0  0  0  0  0  0  0  0  0
  -31.6854  -24.2317   19.7894 C   0  0  2  0  0  0  0  0  0  0  0  0
  -29.5806  -27.9469   17.6490 C   0  0  0  0  0  0  0  0  0  0  0  0
  -26.1141  -11.1589   20.3293 N   0  0  0  0  0  0  0  0  0  0  0  0
  -26.5440  -11.6120   19.1393 N   0  0  0  0  0  0  0  0  0  0  0  0
  -27.1716  -26.9903   20.1283 N   0  0  0  0  0  0  0  0  0  0  0  0
  -29.0380  -14.2817   20.2513 N   0  0  0  0  0  0  0  0  0  0  0  0
  -26.0959  -11.5344   16.8147 N   0  0  0  0  0  0  0  0  0  0  0  0
  -22.8662   -8.9215   18.5860 N   0  0  0  0  0  0  0  0  0  0  0  0
  -27.7753  -16.2708   20.3578 N   0  0  0  0  0  0  0  0  0  0  0  0
  -24.7015  -29.4387   21.2239 N   0  0  0  0  0  0  0  0  0  0  0  0
  -30.3261  -26.1333   19.2488 N   0  0  0  0  0  0  0  0  0  0  0  0
  -24.5618  -15.9760   19.9372 N   0  3  0  0  0  0  0  0  0  0  0  0
  -31.4430  -22.8928   20.3974 N   0  3  0  0  0  0  0  0  0  0  0  0
  -23.7208   -9.7565   16.6287 O   0  0  0  0  0  0  0  0  0  0  0  0
  -25.5634  -28.7357   19.1780 O   0  0  0  0  0  0  0  0  0  0  0  0
  -29.0350  -28.3167   20.5809 O   0  0  0  0  0  0  0  0  0  0  0  0
  -29.5803  -24.0293   18.6210 O   0  0  0  0  0  0  0  0  0  0  0  0
  -30.0881  -16.3402   20.1903 O   0  0  0  0  0  0  0  0  0  0  0  0
  -22.1443   -7.7866   23.9921 O   0  0  0  0  0  0  0  0  0  0  0  0
  -22.9082  -22.7042   18.9012 O   0  0  0  0  0  0  0  0  0  1  0  0
  -24.3934  -19.6721   19.6313 O   0  0  0  0  0  0  0  0  0  0  0  0
  -20.7530   -2.5237   23.1141 F   0  0  0  0  0  0  0  0  0  0  0  0
  -22.9971   -5.7896   25.7031 F   0  0  0  0  0  0  0  0  0  0  0  0
  -29.0568  -20.5131   17.7852 Cl  0  0  0  0  0  0  0  0  0  0  0  0
  1  2  1  0  0  0  0
  1  5  2  0  0  0  0
  2  6  2  0  0  0  0
  3  8  2  0  0  0  0
  3 17  1  0  0  0  0
  4  9  1  0  0  0  0
  4 17  2  0  0  0  0
  5 19  1  0  0  0  0
  6 21  1  0  0  0  0
  7 10  2  0  0  0  0
  7 20  1  0  0  0  0
  8 25  1  0  0  0  0
  9 25  2  0  0  0  0
 10 26  1  0  0  0  0
 11 12  2  0  0  0  0
 11 27  1  0  0  0  0
 12 29  1  0  0  0  0
 13 22  1  0  0  0  0
 13 26  2  0  0  0  0
 14 24  2  0  0  0  0
 14 31  1  0  0  0  0
 15 28  1  0  0  0  0
 15 31  2  0  0  0  0
 16 29  2  0  0  0  0
 16 30  1  0  0  0  0
 17 32  1  0  0  0  0
 18 32  1  0  0  0  0
 18 33  2  0  0  0  0
 18 34  1  0  0  0  0
 19 21  2  0  0  0  0
 19 39  1  0  0  0  0
 20 22  2  0  0  0  0
 20 40  1  0  0  0  0
 21 52  1  0  0  0  0
 22 41  1  0  0  0  0
 23 24  1  0  0  0  0
 23 28  2  0  0  0  0
 23 60  1  0  0  0  0
 24 73  1  0  0  0  0
 25 83  1  0  0  0  0
 26 84  1  0  0  0  0
 27 30  2  0  0  0  0
 27 83  1  0  0  0  0
 28 85  1  0  0  0  0
 29 86  1  0  0  0  0
 30 87  1  0  0  0  0
 31 88  1  0  0  0  0
 32 67  2  0  0  0  0
 33 68  1  0  0  0  0
 33 71  1  0  0  0  0
 34 72  1  0  0  0  0
 34 78  2  0  0  0  0
 35 53  1  0  0  0  0
 35 74  1  0  0  0  0
 35 79  2  0  0  0  0
 36 64  1  0  0  0  0
 36 69  1  0  0  0  0
 36 80  2  0  0  0  0
 37 65  1  0  0  0  0
 37 75  1  0  0  0  0
 37 81  2  0  0  0  0
 38 70  1  0  0  0  0
 38 73  1  0  0  0  0
 38 82  2  0  0  0  0
 39 42  1  0  0  0  0
 40 53  1  0  0  0  0
 41 69  1  0  0  0  0
 42 46  1  0  0  0  0
 43 47  1  0  0  0  0
 43 48  1  0  0  0  0
 44 45  1  0  0  0  0
 44 50  1  0  0  0  0
 45 51  1  0  0  0  0
 46 52  1  0  0  0  0
 47 54  1  0  0  0  0
 48 70  1  0  0  0  0
 49 54  1  0  0  0  0
 49 70  1  0  0  0  0
 50 76  1  0  0  0  0
 51 76  1  0  0  0  0
 52 74  1  0  0  0  0
 53 69  1  0  0  0  0
 54 68  1  0  0  0  0
 55 65  1  0  0  0  0
 56 66  1  0  0  0  0
 57 66  1  0  0  0  0
 58 66  1  0  0  0  0
 59 77  1  0  0  0  0
 60 76  1  0  0  0  0
 61 62  1  0  0  0  0
 61 63  1  0  0  0  0
 62 84  1  0  0  0  0
 63 85  1  0  0  0  0
 64 66  1  0  0  0  0
 64 75  1  0  0  0  0
 65 77  1  0  0  0  0
 67 68  1  0  0  0  0
M  CHG  2  76   1  77   1
M  ISO  4  38 100  62 101  73 100  84 101
M  END
> <Batch ID>
0021

> <Smiles>
CNC(C)C(=O)NC(C(=O)N1Cc2cc([101O:1][101CH2:1]CCOc3cc(Cl)cc([100NH:0][100C:0](=O)N4CCCC(n5nc(-c6ccc(Oc7ccc(F)cc7F)cc6)c(C(N)=O)c5N)C4)c3CN3CCCC3)ccc2CC1C(=O)NC1CCCc2ccccc21)C(C)(C)C

> <Shape>
0.274

> <Color>
0.068

> <Negative vol penalty>
0.000

$$$$

  -OEChem-04042321113D

 85 94  0     1  0  0  0  0  0999 V2000
  -26.0970  -38.5920   20.1755 C   0  0  0  0  0  0  0  0  0  0  0  0
  -26.7825  -37.5378   19.5804 C   0  0  0  0  0  0  0  0  0  0  0  0
  -24.0879   -9.6702   22.0605 C   0  0  0  0  0  0  0  0  0  0  0  0
  -24.7659  -11.1948   23.8077 C   0  0  0  0  0  0  0  0  0  0  0  0
  -25.4547  -38.4025   21.3984 C   0  0  0  0  0  0  0  0  0  0  0  0
  -26.8270  -36.2936   20.2086 C   0  0  0  0  0  0  0  0  0  0  0  0
  -27.0389  -29.2905   18.7159 C   0  0  0  0  0  0  0  0  0  0  0  0
  -30.7899  -20.0963   19.1534 C   0  0  0  0  0  0  0  0  0  0  0  0
  -30.5017  -18.7403   18.9990 C   0  0  0  0  0  0  0  0  0  0  0  0
  -23.7333   -8.7249   23.0228 C   0  0  0  0  0  0  0  0  0  0  0  0
  -24.4113  -10.2495   24.7702 C   0  0  0  0  0  0  0  0  0  0  0  0
  -27.7780  -28.1471   19.0162 C   0  0  0  0  0  0  0  0  0  0  0  0
  -21.1506   -8.1658   25.1323 C   0  0  0  0  0  0  0  0  0  0  0  0
  -19.9315   -7.5066   24.9751 C   0  0  0  0  0  0  0  0  0  0  0  0
  -26.5648  -27.9145   21.0882 C   0  0  0  0  0  0  0  0  0  0  0  0
  -28.4473  -20.5512   19.5307 C   0  0  0  0  0  0  0  0  0  0  0  0
  -21.0898   -5.3888   24.8738 C   0  0  0  0  0  0  0  0  0  0  0  0
  -24.6043  -10.9052   22.4529 C   0  0  0  0  0  0  0  0  0  0  0  0
  -24.1493  -12.8819   20.9058 C   0  0  0  0  0  0  0  0  0  0  0  0
  -25.4832  -37.1528   22.0371 C   0  0  0  0  0  0  0  0  0  0  0  0
  -26.0631  -29.7615   19.6061 C   0  0  0  0  0  0  0  0  0  0  0  0
  -26.1856  -36.0876   21.4418 C   0  0  0  0  0  0  0  0  0  0  0  0
  -25.8130  -29.0626   20.7957 C   0  0  0  0  0  0  0  0  0  0  0  0
  -28.1591  -19.1952   19.3763 C   0  0  0  0  0  0  0  0  0  0  0  0
  -29.7627  -21.0017   19.4193 C   0  0  0  0  0  0  0  0  0  0  0  0
  -29.1864  -18.2897   19.1104 C   0  0  0  0  0  0  0  0  0  0  0  0
  -23.8950   -9.0145   24.3777 C   0  0  0  0  0  0  0  0  0  0  0  0
  -27.5430  -27.4606   20.2038 C   0  0  0  0  0  0  0  0  0  0  0  0
  -22.3394   -7.4365   25.1602 C   0  0  0  0  0  0  0  0  0  0  0  0
  -19.9010   -6.1181   24.8459 C   0  0  0  0  0  0  0  0  0  0  0  0
  -22.3089   -6.0480   25.0309 C   0  0  0  0  0  0  0  0  0  0  0  0
  -24.9713  -11.8819   21.4592 C   0  0  0  0  0  0  0  0  0  0  0  0
  -24.9621  -13.5412   20.0164 C   0  0  0  0  0  0  0  0  0  0  0  0
  -29.1357  -23.4204   19.8503 C   0  0  0  0  0  0  0  0  0  0  0  0
  -22.7740  -13.1875   21.1722 C   0  0  0  0  0  0  0  0  0  0  0  0
  -25.6534  -32.4349   21.2760 C   0  0  0  0  0  0  0  0  0  0  0  0
  -22.7971  -31.0807   22.0040 C   0  0  0  0  0  0  0  0  0  0  0  0
  -20.9346  -28.2384   22.3187 C   0  0  0  0  0  0  0  0  0  0  0  0
  -29.8314  -15.8917   18.6867 C   0  0  0  0  0  0  0  0  0  0  0  0
  -24.8139  -37.0089   23.3810 C   0  0  0  0  0  0  0  0  0  0  0  0
  -25.2559  -30.9811   19.2550 C   0  0  0  0  0  0  0  0  0  0  0  0
  -24.7625  -29.5154   21.7755 C   0  0  0  0  0  0  0  0  0  0  0  0
  -24.5929  -35.5575   23.7991 C   0  0  0  0  0  0  0  0  0  0  0  0
  -29.5632  -12.3666   18.2639 C   0  0  0  0  0  0  0  0  0  0  0  0
  -25.8570  -34.7364   23.5660 C   0  0  0  0  0  0  0  0  0  0  0  0
  -28.2771  -12.0085   19.0119 C   0  0  0  0  0  0  0  0  0  0  0  0
  -31.2473  -24.3921   19.3393 C   0  0  0  0  0  0  0  0  0  0  0  0
  -30.3402  -13.4760   18.9705 C   0  0  0  0  0  0  0  0  0  0  0  0
  -31.4160  -22.8983   19.5318 C   0  0  0  0  0  0  0  0  0  0  0  0
  -28.2775  -14.3290   20.0130 C   0  0  0  0  0  0  0  0  0  0  0  0
  -26.2357  -34.7164   22.0801 C   0  0  1  0  0  0  0  0  0  0  0  0
  -29.9434  -24.6903   20.0650 C   0  0  1  0  0  0  0  0  0  0  0  0
  -24.6435  -31.6636   20.4742 C   0  0  1  0  0  0  0  0  0  0  0  0
  -27.4281  -13.2611   19.3047 C   0  0  2  0  0  0  0  0  0  0  0  0
  -26.7415  -18.7400   19.5028 C   0  0  0  0  0  0  0  0  0  0  0  0
  -18.6436  -27.4463   22.9677 C   0  0  0  0  0  0  0  0  0  0  0  0
  -23.4839  -31.5120   24.9455 C   0  0  0  0  0  0  0  0  0  0  0  0
  -21.6696  -29.8906   25.5349 C   0  0  0  0  0  0  0  0  0  0  0  0
  -21.1077  -32.0099   24.3452 C   0  0  0  0  0  0  0  0  0  0  0  0
  -20.4481  -27.0825   19.6380 C   0  0  0  0  0  0  0  0  0  0  0  0
  -29.2442  -25.9334   19.5482 C   0  0  0  0  0  0  0  0  0  1  0  0
  -22.2956  -30.1628   23.0926 C   0  0  1  0  0  0  0  0  0  0  0  0
  -19.5437  -27.8855   21.8234 C   0  0  2  0  0  0  0  0  0  0  0  0
  -22.1604  -30.8861   24.4622 C   0  0  0  0  0  0  0  0  0  0  0  0
  -26.2111  -11.9004   20.9627 N   0  0  0  0  0  0  0  0  0  0  0  0
  -26.1742  -12.9200   20.0879 N   0  0  0  0  0  0  0  0  0  0  0  0
  -30.0582  -22.3887   19.5800 N   0  0  0  0  0  0  0  0  0  0  0  0
  -24.0040  -30.7169   21.3901 N   0  0  0  0  0  0  0  0  0  0  0  0
  -29.4734  -14.6316   19.2110 N   0  0  0  0  0  0  0  0  0  0  0  0
  -24.7510  -14.5858   19.1877 N   0  0  0  0  0  0  0  0  0  0  0  0
  -22.0874  -12.4108   22.1153 N   0  0  0  0  0  0  0  0  0  0  0  0
  -28.9144  -16.9082   18.9519 N   0  0  0  0  0  0  0  0  0  0  0  0
  -25.3924  -33.7895   21.3561 N   0  0  0  0  0  0  0  0  0  0  0  0
  -21.0515  -29.5838   22.5972 N   0  0  0  0  0  0  0  0  0  0  0  0
  -19.6136  -26.7780   20.8287 N   0  3  0  0  0  0  0  0  0  0  0  0
  -27.9201  -23.3718   19.9708 O   0  0  0  0  0  0  0  0  0  0  0  0
  -22.1672  -14.1114   20.5790 O   0  0  0  0  0  0  0  0  0  0  0  0
  -26.5986  -31.8445   21.7856 O   0  0  0  0  0  0  0  0  0  0  0  0
  -22.1385  -32.0798   21.7045 O   0  0  0  0  0  0  0  0  0  0  0  0
  -21.8269  -27.4034   22.4494 O   0  0  0  0  0  0  0  0  0  0  0  0
  -30.8611  -16.0509   18.0261 O   0  0  0  0  0  0  0  0  0  0  0  0
  -23.5489   -8.0924   25.3171 O   0  0  0  0  0  0  0  0  0  0  0  0
  -28.2634  -26.3446   20.4997 O   0  0  0  0  0  0  0  0  0  1  0  0
  -18.7301   -5.4850   24.6965 F   0  0  0  0  0  0  0  0  0  0  0  0
  -23.4476   -5.3419   25.0581 F   0  0  0  0  0  0  0  0  0  0  0  0
  1  2  1  0  0  0  0
  1  5  2  0  0  0  0
  2  6  2  0  0  0  0
  3 10  2  0  0  0  0
  3 18  1  0  0  0  0
  4 11  1  0  0  0  0
  4 18  2  0  0  0  0
  5 20  1  0  0  0  0
  6 22  1  0  0  0  0
  7 12  2  0  0  0  0
  7 21  1  0  0  0  0
  8  9  2  0  0  0  0
  8 25  1  0  0  0  0
  9 26  1  0  0  0  0
 10 27  1  0  0  0  0
 11 27  2  0  0  0  0
 12 28  1  0  0  0  0
 13 14  2  0  0  0  0
 13 29  1  0  0  0  0
 14 30  1  0  0  0  0
 15 23  1  0  0  0  0
 15 28  2  0  0  0  0
 16 24  1  0  0  0  0
 16 25  2  0  0  0  0
 17 30  2  0  0  0  0
 17 31  1  0  0  0  0
 18 32  1  0  0  0  0
 19 32  1  0  0  0  0
 19 33  2  0  0  0  0
 19 35  1  0  0  0  0
 20 22  2  0  0  0  0
 20 40  1  0  0  0  0
 21 23  2  0  0  0  0
 21 41  1  0  0  0  0
 22 51  1  0  0  0  0
 23 42  1  0  0  0  0
 24 26  2  0  0  0  0
 24 55  1  0  0  0  0
 25 67  1  0  0  0  0
 26 72  1  0  0  0  0
 27 82  1  0  0  0  0
 28 83  1  0  0  0  0
 29 31  2  0  0  0  0
 29 82  1  0  0  0  0
 30 84  1  0  0  0  0
 31 85  1  0  0  0  0
 32 65  2  0  0  0  0
 33 66  1  0  0  0  0
 33 70  1  0  0  0  0
 34 52  1  0  0  0  0
 34 67  1  0  0  0  0
 34 76  2  0  0  0  0
 35 71  1  0  0  0  0
 35 77  2  0  0  0  0
 36 53  1  0  0  0  0
 36 73  1  0  0  0  0
 36 78  2  0  0  0  0
 37 62  1  0  0  0  0
 37 68  1  0  0  0  0
 37 79  2  0  0  0  0
 38 63  1  0  0  0  0
 38 74  1  0  0  0  0
 38 80  2  0  0  0  0
 39 69  1  0  0  0  0
 39 72  1  0  0  0  0
 39 81  2  0  0  0  0
 40 43  1  0  0  0  0
 41 53  1  0  0  0  0
 42 68  1  0  0  0  0
 43 45  1  0  0  0  0
 44 46  1  0  0  0  0
 44 48  1  0  0  0  0
 45 51  1  0  0  0  0
 46 54  1  0  0  0  0
 47 49  1  0  0  0  0
 47 52  1  0  0  0  0
 48 69  1  0  0  0  0
 49 67  1  0  0  0  0
 50 54  1  0  0  0  0
 50 69  1  0  0  0  0
 51 73  1  0  0  0  0
 52 61  1  0  0  0  0
 53 68  1  0  0  0  0
 54 66  1  0  0  0  0
 56 63  1  0  0  0  0
 57 64  1  0  0  0  0
 58 64  1  0  0  0  0
 59 64  1  0  0  0  0
 60 75  1  0  0  0  0
 61 83  1  0  0  0  0
 62 64  1  0  0  0  0
 62 74  1  0  0  0  0
 63 75  1  0  0  0  0
 65 66  1  0  0  0  0
M  CHG  1  75   1
M  ISO  4  39 100  61 101  72 100  83 101
M  END
> <Batch ID>
0021

> <Smiles>
CNC(C)C(=O)NC(C(=O)N1Cc2cc([101O:1][101CH2:1]C3CCN(c4ccc([100NH:0][100C:0](=O)N5CCCC(n6nc(-c7ccc(Oc8ccc(F)cc8F)cc7)c(C(N)=O)c6N)C5)c(C)c4)C3=O)ccc2CC1C(=O)NC1CCCc2ccccc21)C(C)(C)C

> <Shape>
0.342

> <Color>
0.140

> <Negative vol penalty>
0.000

$$$$

  -OEChem-04042321113D

 87 96  0     1  0  0  0  0  0999 V2000
  -18.8306  -24.9728   22.8814 C   0  0  0  0  0  0  0  0  0  0  0  0
  -19.8929  -25.1030   21.9926 C   0  0  0  0  0  0  0  0  0  0  0  0
  -28.5039  -17.4723   20.8827 C   0  0  0  0  0  0  0  0  0  0  0  0
  -28.7602  -16.9951   18.5282 C   0  0  0  0  0  0  0  0  0  0  0  0
  -18.1985  -26.1102   23.3820 C   0  0  0  0  0  0  0  0  0  0  0  0
  -20.3230  -26.3709   21.6029 C   0  0  0  0  0  0  0  0  0  0  0  0
  -26.0709  -28.0936   20.3786 C   0  0  0  0  0  0  0  0  0  0  0  0
  -30.7618  -27.5645   19.5211 C   0  0  0  0  0  0  0  0  0  0  0  0
  -30.4804  -28.8206   18.9839 C   0  0  0  0  0  0  0  0  0  0  0  0
  -28.2374  -16.1251   21.1268 C   0  0  0  0  0  0  0  0  0  0  0  0
  -28.4938  -15.6478   18.7723 C   0  0  0  0  0  0  0  0  0  0  0  0
  -26.7703  -28.2441   19.1820 C   0  0  0  0  0  0  0  0  0  0  0  0
  -30.1588  -12.9560   19.9565 C   0  0  0  0  0  0  0  0  0  0  0  0
  -30.9814  -12.0124   19.3412 C   0  0  0  0  0  0  0  0  0  0  0  0
  -26.2577  -30.6013   19.1859 C   0  0  0  0  0  0  0  0  0  0  0  0
  -29.0625  -11.0774   18.2096 C   0  0  0  0  0  0  0  0  0  0  0  0
  -28.7652  -17.9073   19.5834 C   0  0  0  0  0  0  0  0  0  0  0  0
  -28.1941  -20.3936   19.5917 C   0  0  0  0  0  0  0  0  0  0  0  0
  -18.6273  -27.3929   23.0057 C   0  0  0  0  0  0  0  0  0  0  0  0
  -25.4494  -29.1957   20.9833 C   0  0  0  0  0  0  0  0  0  0  0  0
  -19.6951  -27.5266   22.0979 C   0  0  0  0  0  0  0  0  0  0  0  0
  -25.5532  -30.4626   20.3915 C   0  0  0  0  0  0  0  0  0  0  0  0
  -31.4327  -26.6122   18.7538 C   0  0  0  0  0  0  0  0  0  0  0  0
  -30.8696  -29.1244   17.6794 C   0  0  0  0  0  0  0  0  0  0  0  0
  -28.2324  -15.2128   20.0716 C   0  0  0  0  0  0  0  0  0  0  0  0
  -26.8613  -29.4976   18.5839 C   0  0  0  0  0  0  0  0  0  0  0  0
  -28.7879  -12.9602   19.6984 C   0  0  0  0  0  0  0  0  0  0  0  0
  -30.4333  -11.0731   18.4678 C   0  0  0  0  0  0  0  0  0  0  0  0
  -28.2398  -12.0209   18.8249 C   0  0  0  0  0  0  0  0  0  0  0  0
  -31.8219  -26.9160   17.4492 C   0  0  0  0  0  0  0  0  0  0  0  0
  -31.5404  -28.1721   16.9120 C   0  0  0  0  0  0  0  0  0  0  0  0
  -29.0400  -19.2990   19.3306 C   0  0  0  0  0  0  0  0  0  0  0  0
  -28.9114  -21.4886   19.1759 C   0  0  0  0  0  0  0  0  0  0  0  0
  -26.8778  -20.4183   20.1596 C   0  0  0  0  0  0  0  0  0  0  0  0
  -22.4515  -29.9575   21.7153 C   0  0  0  0  0  0  0  0  0  0  0  0
  -23.8600  -32.5050   23.1465 C   0  0  0  0  0  0  0  0  0  0  0  0
  -26.5442  -34.6042   23.3349 C   0  0  0  0  0  0  0  0  0  0  0  0
  -33.9534  -24.1112   19.3100 C   0  0  0  0  0  0  0  0  0  0  0  0
  -17.8824  -28.5921   23.5364 C   0  0  0  0  0  0  0  0  0  0  0  0
  -24.7214  -29.0216   22.2879 C   0  0  0  0  0  0  0  0  0  0  0  0
  -24.9210  -31.6813   21.0108 C   0  0  0  0  0  0  0  0  0  0  0  0
  -18.6411  -29.9055   23.3646 C   0  0  0  0  0  0  0  0  0  0  0  0
  -33.1801  -21.8284   16.5006 C   0  0  0  0  0  0  0  0  0  0  0  0
  -30.7409  -32.6812   16.6548 C   0  0  0  0  0  0  0  0  0  0  0  0
  -19.2076  -30.0140   21.9525 C   0  0  0  0  0  0  0  0  0  0  0  0
  -32.0090  -21.0132   17.0464 C   0  0  0  0  0  0  0  0  0  0  0  0
  -29.8452  -31.9970   15.6342 C   0  0  0  0  0  0  0  0  0  0  0  0
  -31.4796  -31.5214   17.3149 C   0  0  0  0  0  0  0  0  0  0  0  0
  -34.0965  -22.3218   17.6161 C   0  0  0  0  0  0  0  0  0  0  0  0
  -32.2207  -22.2716   19.2263 C   0  0  0  0  0  0  0  0  0  0  0  0
  -20.2067  -28.8853   21.6707 C   0  0  1  0  0  0  0  0  0  0  0  0
  -23.6918  -30.1169   22.5483 C   0  0  1  0  0  0  0  0  0  0  0  0
  -31.2524  -21.7987   18.1317 C   0  0  2  0  0  0  0  0  0  0  0  0
  -29.4178  -30.6993   16.3342 C   0  0  2  0  0  0  0  0  0  0  0  0
  -27.3900  -36.6138   24.5772 C   0  0  0  0  0  0  0  0  0  0  0  0
  -21.9890  -34.2904   21.5273 C   0  0  0  0  0  0  0  0  0  0  0  0
  -23.4823  -36.2261   22.0669 C   0  0  0  0  0  0  0  0  0  0  0  0
  -22.3158  -35.0037   23.9020 C   0  0  0  0  0  0  0  0  0  0  0  0
  -33.6951  -26.2865   20.4417 C   0  0  0  0  0  0  0  0  0  0  0  0
  -28.8799  -33.1184   24.3818 C   0  0  0  0  0  0  0  0  0  0  0  0
  -31.7106  -25.2809   19.3757 C   0  0  0  0  0  0  0  0  0  0  0  0
  -28.1653  -30.9102   17.1838 C   0  0  0  0  0  0  0  0  0  1  0  0
  -24.2504  -33.8962   22.7091 C   0  0  1  0  0  0  0  0  0  0  0  0
  -27.3584  -35.0945   24.5186 C   0  0  2  0  0  0  0  0  0  0  0  0
  -23.0198  -34.8310   22.5384 C   0  0  0  0  0  0  0  0  0  0  0  0
  -30.2054  -19.6652   18.7905 N   0  0  0  0  0  0  0  0  0  0  0  0
  -30.0969  -21.0023   18.7088 N   0  0  0  0  0  0  0  0  0  0  0  0
  -30.5731  -30.3793   17.1816 N   0  0  3  0  0  0  0  0  0  0  0  0
  -24.2147  -31.4587   22.2832 N   0  0  0  0  0  0  0  0  0  0  0  0
  -33.3457  -23.0272   18.6553 N   0  0  0  0  0  0  0  0  0  0  0  0
  -28.6373  -22.8104   19.1678 N   0  0  0  0  0  0  0  0  0  0  0  0
  -25.7766  -20.3216   19.2980 N   0  0  0  0  0  0  0  0  0  0  0  0
  -21.4792  -29.1680   22.2992 N   0  0  0  0  0  0  0  0  0  0  0  0
  -25.2302  -34.3697   23.6808 N   0  0  0  0  0  0  0  0  0  0  0  0
  -33.1110  -25.1360   19.7671 N   0  0  0  0  0  0  0  0  0  0  0  0
  -28.7605  -34.5985   24.4239 N   0  3  0  0  0  0  0  0  0  0  0  0
  -26.6836  -20.5396   21.3929 O   0  0  0  0  0  0  0  0  0  0  0  0
  -22.3812  -30.5110   20.6243 O   0  0  0  0  0  0  0  0  0  0  0  0
  -23.2687  -32.3517   24.2182 O   0  0  0  0  0  0  0  0  0  0  0  0
  -27.0249  -34.4485   22.2145 O   0  0  0  0  0  0  0  0  0  0  0  0
  -35.1798  -24.1647   19.4680 O   0  0  0  0  0  0  0  0  0  0  0  0
  -27.9727  -13.8981   20.3094 O   0  0  0  0  0  0  0  0  0  0  0  0
  -27.5428  -29.6472   17.4155 O   0  0  0  0  0  0  0  0  0  1  0  0
  -31.2236  -10.1681   17.8758 F   0  0  0  0  0  0  0  0  0  0  0  0
  -26.9238  -12.0208   18.5721 F   0  0  0  0  0  0  0  0  0  0  0  0
  -32.6555  -25.7085   16.5214 Cl  0  0  0  0  0  0  0  0  0  0  0  0
  -32.0143  -28.5762   15.2893 Cl  0  0  0  0  0  0  0  0  0  0  0  0
  1  2  1  0  0  0  0
  1  5  2  0  0  0  0
  2  6  2  0  0  0  0
  3 10  2  0  0  0  0
  3 17  1  0  0  0  0
  4 11  1  0  0  0  0
  4 17  2  0  0  0  0
  5 19  1  0  0  0  0
  6 21  1  0  0  0  0
  7 12  2  0  0  0  0
  7 20  1  0  0  0  0
  8  9  2  0  0  0  0
  8 23  1  0  0  0  0
  9 24  1  0  0  0  0
 10 25  1  0  0  0  0
 11 25  2  0  0  0  0
 12 26  1  0  0  0  0
 13 14  2  0  0  0  0
 13 27  1  0  0  0  0
 14 28  1  0  0  0  0
 15 22  1  0  0  0  0
 15 26  2  0  0  0  0
 16 28  2  0  0  0  0
 16 29  1  0  0  0  0
 17 32  1  0  0  0  0
 18 32  1  0  0  0  0
 18 33  2  0  0  0  0
 18 34  1  0  0  0  0
 19 21  2  0  0  0  0
 19 39  1  0  0  0  0
 20 22  2  0  0  0  0
 20 40  1  0  0  0  0
 21 51  1  0  0  0  0
 22 41  1  0  0  0  0
 23 30  2  0  0  0  0
 23 61  1  0  0  0  0
 24 31  2  0  0  0  0
 24 68  1  0  0  0  0
 25 82  1  0  0  0  0
 26 83  1  0  0  0  0
 27 29  2  0  0  0  0
 27 82  1  0  0  0  0
 28 84  1  0  0  0  0
 29 85  1  0  0  0  0
 30 31  1  0  0  0  0
 30 86  1  0  0  0  0
 31 87  1  0  0  0  0
 32 66  2  0  0  0  0
 33 67  1  0  0  0  0
 33 71  1  0  0  0  0
 34 72  1  0  0  0  0
 34 77  2  0  0  0  0
 35 52  1  0  0  0  0
 35 73  1  0  0  0  0
 35 78  2  0  0  0  0
 36 63  1  0  0  0  0
 36 69  1  0  0  0  0
 36 79  2  0  0  0  0
 37 64  1  0  0  0  0
 37 74  1  0  0  0  0
 37 80  2  0  0  0  0
 38 70  1  0  0  0  0
 38 75  1  0  0  0  0
 38 81  2  0  0  0  0
 39 42  1  0  0  0  0
 40 52  1  0  0  0  0
 41 69  1  0  0  0  0
 42 45  1  0  0  0  0
 43 46  1  0  0  0  0
 43 49  1  0  0  0  0
 44 47  1  0  0  0  0
 44 48  1  0  0  0  0
 45 51  1  0  0  0  0
 46 53  1  0  0  0  0
 47 54  1  0  0  0  0
 48 68  1  0  0  0  0
 49 70  1  0  0  0  0
 50 53  1  0  0  0  0
 50 70  1  0  0  0  0
 51 73  1  0  0  0  0
 52 69  1  0  0  0  0
 53 67  1  0  0  0  0
 54 62  1  0  0  0  0
 54 68  1  0  0  0  0
 55 64  1  0  0  0  0
 56 65  1  0  0  0  0
 57 65  1  0  0  0  0
 58 65  1  0  0  0  0
 59 75  1  0  0  0  0
 60 76  1  0  0  0  0
 61 75  1  0  0  0  0
 62 83  1  0  0  0  0
 63 65  1  0  0  0  0
 63 74  1  0  0  0  0
 64 76  1  0  0  0  0
 66 67  1  0  0  0  0
M  CHG  1  76   1
M  ISO  4  38 100  62 101  75 100  83 101
M  END
> <Batch ID>
0021

> <Smiles>
CNC(C)C(=O)NC(C(=O)N1Cc2cc([101O:1][101CH2:1]C3CCCN3c3ccc(C[100N:0](C)[100C:0](=O)N4CCCC(n5nc(-c6ccc(Oc7ccc(F)cc7F)cc6)c(C(N)=O)c5N)C4)c(Cl)c3Cl)ccc2CC1C(=O)NC1CCCc2ccccc21)C(C)(C)C

> <Shape>
0.278

> <Color>
0.113

> <Negative vol penalty>
0.000

$$$$

  -OEChem-04042321113D

 83 91  0     1  0  0  0  0  0999 V2000
  -16.7187  -30.5476   23.6549 C   0  0  0  0  0  0  0  0  0  0  0  0
  -17.8958  -31.1288   24.1154 C   0  0  0  0  0  0  0  0  0  0  0  0
  -30.7538  -22.8142   26.8205 C   0  0  0  0  0  0  0  0  0  0  0  0
  -28.2631  -17.3244   21.6554 C   0  0  0  0  0  0  0  0  0  0  0  0
  -26.7917  -18.1261   19.9149 C   0  0  0  0  0  0  0  0  0  0  0  0
  -16.7518  -29.2885   23.0569 C   0  0  0  0  0  0  0  0  0  0  0  0
  -19.1066  -30.4507   23.9792 C   0  0  0  0  0  0  0  0  0  0  0  0
  -26.0863  -31.6502   22.9016 C   0  0  0  0  0  0  0  0  0  0  0  0
  -30.7426  -24.1385   26.3827 C   0  0  0  0  0  0  0  0  0  0  0  0
  -29.5634  -22.1959   27.2029 C   0  0  0  0  0  0  0  0  0  0  0  0
  -28.0223  -16.0105   21.2538 C   0  0  0  0  0  0  0  0  0  0  0  0
  -26.5510  -16.8121   19.5132 C   0  0  0  0  0  0  0  0  0  0  0  0
  -27.3300  -31.3366   23.4481 C   0  0  0  0  0  0  0  0  0  0  0  0
  -29.0552  -13.9270   18.7991 C   0  0  0  0  0  0  0  0  0  0  0  0
  -30.1514  -13.0717   18.6885 C   0  0  0  0  0  0  0  0  0  0  0  0
  -27.2774  -29.2011   22.3272 C   0  0  0  0  0  0  0  0  0  0  0  0
  -29.1760  -11.6075   20.3444 C   0  0  0  0  0  0  0  0  0  0  0  0
  -27.6478  -18.3822   20.9859 C   0  0  0  0  0  0  0  0  0  0  0  0
  -28.9108  -20.5980   20.9376 C   0  0  0  0  0  0  0  0  0  0  0  0
  -17.9650  -28.5989   22.9045 C   0  0  0  0  0  0  0  0  0  0  0  0
  -25.4227  -30.7356   22.0711 C   0  0  0  0  0  0  0  0  0  0  0  0
  -19.1558  -29.1807   23.3798 C   0  0  0  0  0  0  0  0  0  0  0  0
  -26.0265  -29.5065   21.7694 C   0  0  0  0  0  0  0  0  0  0  0  0
  -29.5409  -24.8446   26.3275 C   0  0  0  0  0  0  0  0  0  0  0  0
  -28.3617  -22.9020   27.1477 C   0  0  0  0  0  0  0  0  0  0  0  0
  -27.1663  -15.7543   20.1827 C   0  0  0  0  0  0  0  0  0  0  0  0
  -27.9244  -30.1108   23.1633 C   0  0  0  0  0  0  0  0  0  0  0  0
  -28.0193  -13.6226   19.6824 C   0  0  0  0  0  0  0  0  0  0  0  0
  -30.2119  -11.9120   19.4611 C   0  0  0  0  0  0  0  0  0  0  0  0
  -28.0798  -12.4629   20.4550 C   0  0  0  0  0  0  0  0  0  0  0  0
  -28.3504  -24.2264   26.7100 C   0  0  0  0  0  0  0  0  0  0  0  0
  -27.8957  -19.7396   21.4007 C   0  0  0  0  0  0  0  0  0  0  0  0
  -28.7189  -21.7649   21.6362 C   0  0  0  0  0  0  0  0  0  0  0  0
  -29.9356  -20.3618   19.9631 C   0  0  0  0  0  0  0  0  0  0  0  0
  -22.6636  -29.1642   22.2188 C   0  0  0  0  0  0  0  0  0  0  0  0
  -23.4744  -28.2437   19.2158 C   0  0  0  0  0  0  0  0  0  0  0  0
  -25.9369  -27.7192   16.9119 C   0  0  0  0  0  0  0  0  0  0  0  0
  -25.8779  -22.5878   26.9958 C   0  0  0  0  0  0  0  0  0  0  0  0
  -17.9444  -27.2197   22.2944 C   0  0  0  0  0  0  0  0  0  0  0  0
  -24.0938  -31.0998   21.4680 C   0  0  0  0  0  0  0  0  0  0  0  0
  -25.3648  -28.4982   20.8673 C   0  0  0  0  0  0  0  0  0  0  0  0
  -19.3201  -26.7297   21.8499 C   0  0  0  0  0  0  0  0  0  0  0  0
  -25.3261  -24.3525   23.7905 C   0  0  0  0  0  0  0  0  0  0  0  0
  -20.3562  -26.9873   22.9394 C   0  0  0  0  0  0  0  0  0  0  0  0
  -25.9369  -23.3967   22.7674 C   0  0  0  0  0  0  0  0  0  0  0  0
  -24.8025  -23.6107   25.0165 C   0  0  0  0  0  0  0  0  0  0  0  0
  -26.4425  -21.7894   24.6495 C   0  0  0  0  0  0  0  0  0  0  0  0
  -20.4923  -28.4873   23.2277 C   0  0  1  0  0  0  0  0  0  0  0  0
  -23.2741  -29.8833   21.0492 C   0  0  1  0  0  0  0  0  0  0  0  0
  -27.0137  -22.5164   23.4229 C   0  0  1  0  0  0  0  0  0  0  0  0
  -26.2956  -26.9286   14.5574 C   0  0  0  0  0  0  0  0  0  0  0  0
  -23.0695  -25.3595   20.1252 C   0  0  0  0  0  0  0  0  0  0  0  0
  -24.3295  -24.6155   18.0937 C   0  0  0  0  0  0  0  0  0  0  0  0
  -22.1864  -25.8669   17.8411 C   0  0  0  0  0  0  0  0  0  0  0  0
  -27.1531  -21.4216   28.7410 C   0  0  0  0  0  0  0  0  0  0  0  0
  -27.0808  -30.3218   16.0891 C   0  0  0  0  0  0  0  0  0  0  0  0
  -30.3770  -28.3159   25.1157 C   0  0  0  0  0  0  0  0  0  0  0  0
  -30.7161  -26.8750   25.4777 C   0  0  0  0  0  0  0  0  0  0  0  0
  -29.4054  -28.4227   23.9462 C   0  0  0  0  0  0  0  0  0  1  0  0
  -24.2536  -27.0943   18.6237 C   0  0  1  0  0  0  0  0  0  0  0  0
  -26.0589  -28.1323   15.4562 C   0  0  2  0  0  0  0  0  0  0  0  0
  -23.4716  -25.7520   18.6895 C   0  0  0  0  0  0  0  0  0  0  0  0
  -27.1168  -20.3123   22.3223 N   0  0  0  0  0  0  0  0  0  0  0  0
  -27.6426  -21.5430   22.4440 N   0  0  0  0  0  0  0  0  0  0  0  0
  -24.0634  -28.8982   20.3070 N   0  0  0  0  0  0  0  0  0  0  0  0
  -25.8199  -22.7311   25.5943 N   0  0  0  0  0  0  0  0  0  0  0  0
  -29.3675  -22.9489   21.6322 N   0  0  0  0  0  0  0  0  0  0  0  0
  -29.9894  -19.1071   19.3408 N   0  0  0  0  0  0  0  0  0  0  0  0
  -29.5328  -26.1604   25.8917 N   0  0  0  0  0  0  0  0  0  0  0  0
  -21.2823  -29.1299   22.1995 N   0  0  0  0  0  0  0  0  0  0  0  0
  -24.6237  -27.5046   17.2735 N   0  0  0  0  0  0  0  0  0  0  0  0
  -27.1325  -22.2596   27.5441 N   0  0  0  0  0  0  0  0  0  0  0  0
  -27.1948  -29.0808   15.2804 N   0  3  0  0  0  0  0  0  0  0  0  0
  -30.7888  -21.2318   19.6653 O   0  0  0  0  0  0  0  0  0  0  0  0
  -23.3919  -28.6753   23.0745 O   0  0  0  0  0  0  0  0  0  0  0  0
  -22.3868  -28.5542   18.7237 O   0  0  0  0  0  0  0  0  0  0  0  0
  -26.9095  -27.5955   17.6530 O   0  0  0  0  0  0  0  0  0  0  0  0
  -24.8701  -22.6898   27.7062 O   0  0  0  0  0  0  0  0  0  0  0  0
  -26.9313  -14.4724   19.7904 O   0  0  0  0  0  0  0  0  0  0  0  0
  -29.1380  -29.8019   23.6959 O   0  0  0  0  0  0  0  0  0  1  0  0
  -31.2639  -11.0899   19.3537 F   0  0  0  0  0  0  0  0  0  0  0  0
  -27.0871  -12.1645   21.3044 F   0  0  0  0  0  0  0  0  0  0  0  0
  -27.1946  -24.9060   26.6564 F   0  0  0  0  0  0  0  0  0  0  0  0
  1  2  1  0  0  0  0
  1  6  2  0  0  0  0
  2  7  2  0  0  0  0
  3  9  2  0  0  0  0
  3 10  1  0  0  0  0
  4 11  2  0  0  0  0
  4 18  1  0  0  0  0
  5 12  1  0  0  0  0
  5 18  2  0  0  0  0
  6 20  1  0  0  0  0
  7 22  1  0  0  0  0
  8 13  2  0  0  0  0
  8 21  1  0  0  0  0
  9 24  1  0  0  0  0
 10 25  2  0  0  0  0
 11 26  1  0  0  0  0
 12 26  2  0  0  0  0
 13 27  1  0  0  0  0
 14 15  2  0  0  0  0
 14 28  1  0  0  0  0
 15 29  1  0  0  0  0
 16 23  1  0  0  0  0
 16 27  2  0  0  0  0
 17 29  2  0  0  0  0
 17 30  1  0  0  0  0
 18 32  1  0  0  0  0
 19 32  1  0  0  0  0
 19 33  2  0  0  0  0
 19 34  1  0  0  0  0
 20 22  2  0  0  0  0
 20 39  1  0  0  0  0
 21 23  2  0  0  0  0
 21 40  1  0  0  0  0
 22 48  1  0  0  0  0
 23 41  1  0  0  0  0
 24 31  2  0  0  0  0
 24 69  1  0  0  0  0
 25 31  1  0  0  0  0
 25 72  1  0  0  0  0
 26 79  1  0  0  0  0
 27 80  1  0  0  0  0
 28 30  2  0  0  0  0
 28 79  1  0  0  0  0
 29 81  1  0  0  0  0
 30 82  1  0  0  0  0
 31 83  1  0  0  0  0
 32 63  2  0  0  0  0
 33 64  1  0  0  0  0
 33 67  1  0  0  0  0
 34 68  1  0  0  0  0
 34 74  2  0  0  0  0
 35 49  1  0  0  0  0
 35 70  1  0  0  0  0
 35 75  2  0  0  0  0
 36 60  1  0  0  0  0
 36 65  1  0  0  0  0
 36 76  2  0  0  0  0
 37 61  1  0  0  0  0
 37 71  1  0  0  0  0
 37 77  2  0  0  0  0
 38 66  1  0  0  0  0
 38 72  1  0  0  0  0
 38 78  2  0  0  0  0
 39 42  1  0  0  0  0
 40 49  1  0  0  0  0
 41 65  1  0  0  0  0
 42 44  1  0  0  0  0
 43 45  1  0  0  0  0
 43 46  1  0  0  0  0
 44 48  1  0  0  0  0
 45 50  1  0  0  0  0
 46 66  1  0  0  0  0
 47 50  1  0  0  0  0
 47 66  1  0  0  0  0
 48 70  1  0  0  0  0
 49 65  1  0  0  0  0
 50 64  1  0  0  0  0
 51 61  1  0  0  0  0
 52 62  1  0  0  0  0
 53 62  1  0  0  0  0
 54 62  1  0  0  0  0
 55 72  1  0  0  0  0
 56 73  1  0  0  0  0
 57 58  1  0  0  0  0
 57 59  1  0  0  0  0
 58 69  1  0  0  0  0
 59 80  1  0  0  0  0
 60 62  1  0  0  0  0
 60 71  1  0  0  0  0
 61 73  1  0  0  0  0
 63 64  1  0  0  0  0
M  CHG  1  73   1
M  ISO  4  38 100  59 101  72 100  80 101
M  END
> <Batch ID>
0021

> <Smiles>
CNC(C)C(=O)NC(C(=O)N1Cc2cc([101O:1][101CH2:1]CCNc3cccc([100N:0](C)[100C:0](=O)N4CCCC(n5nc(-c6ccc(Oc7ccc(F)cc7F)cc6)c(C(N)=O)c5N)C4)c3F)ccc2CC1C(=O)NC1CCCc2ccccc21)C(C)(C)C

> <Shape>
0.242

> <Color>
0.113

> <Negative vol penalty>
0.000

$$$$

  -OEChem-04042321113D

 85 94  0     1  0  0  0  0  0999 V2000
  -23.8900  -35.7621   24.7833 C   0  0  0  0  0  0  0  0  0  0  0  0
  -24.8322  -34.8884   24.2501 C   0  0  0  0  0  0  0  0  0  0  0  0
  -27.0753  -12.4655   21.6437 C   0  0  0  0  0  0  0  0  0  0  0  0
  -26.2951  -14.0291   19.9754 C   0  0  0  0  0  0  0  0  0  0  0  0
  -22.6728  -35.2709   25.2532 C   0  0  0  0  0  0  0  0  0  0  0  0
  -24.5581  -33.5226   24.1876 C   0  0  0  0  0  0  0  0  0  0  0  0
  -26.3325  -29.6074   19.8254 C   0  0  0  0  0  0  0  0  0  0  0  0
  -27.0670  -23.8941   23.9497 C   0  0  0  0  0  0  0  0  0  0  0  0
  -28.1296  -24.7587   23.6868 C   0  0  0  0  0  0  0  0  0  0  0  0
  -26.2721  -11.4704   21.0867 C   0  0  0  0  0  0  0  0  0  0  0  0
  -25.4919  -13.0340   19.4183 C   0  0  0  0  0  0  0  0  0  0  0  0
  -27.3866  -28.6977   19.7538 C   0  0  0  0  0  0  0  0  0  0  0  0
  -23.0105  -10.5849   21.1354 C   0  0  0  0  0  0  0  0  0  0  0  0
  -22.2630   -9.7930   22.0069 C   0  0  0  0  0  0  0  0  0  0  0  0
  -25.9073  -26.9357   20.4792 C   0  0  0  0  0  0  0  0  0  0  0  0
  -28.4435  -23.7170   21.5296 C   0  0  0  0  0  0  0  0  0  0  0  0
  -23.4040   -7.8237   21.1964 C   0  0  0  0  0  0  0  0  0  0  0  0
  -27.0867  -13.7449   21.0881 C   0  0  0  0  0  0  0  0  0  0  0  0
  -29.2480  -15.0789   21.3264 C   0  0  0  0  0  0  0  0  0  0  0  0
  -22.3797  -33.8996   25.1876 C   0  0  0  0  0  0  0  0  0  0  0  0
  -25.0583  -29.1896   20.2356 C   0  0  0  0  0  0  0  0  0  0  0  0
  -23.3363  -33.0124   24.6583 C   0  0  0  0  0  0  0  0  0  0  0  0
  -24.8381  -27.8416   20.5527 C   0  0  0  0  0  0  0  0  0  0  0  0
  -26.6927  -22.9410   23.0025 C   0  0  0  0  0  0  0  0  0  0  0  0
  -28.8178  -24.6701   22.4768 C   0  0  0  0  0  0  0  0  0  0  0  0
  -25.4804  -11.7546   19.9740 C   0  0  0  0  0  0  0  0  0  0  0  0
  -27.1748  -27.3622   20.0835 C   0  0  0  0  0  0  0  0  0  0  0  0
  -23.9548   -9.9962   20.2942 C   0  0  0  0  0  0  0  0  0  0  0  0
  -22.4597   -8.4124   22.0375 C   0  0  0  0  0  0  0  0  0  0  0  0
  -27.3809  -22.8524   21.7925 C   0  0  0  0  0  0  0  0  0  0  0  0
  -24.1516   -8.6156   20.3248 C   0  0  0  0  0  0  0  0  0  0  0  0
  -27.9158  -14.7734   21.6634 C   0  0  0  0  0  0  0  0  0  0  0  0
  -29.5794  -16.1258   22.1515 C   0  0  0  0  0  0  0  0  0  0  0  0
  -30.1090  -14.4708   20.3545 C   0  0  0  0  0  0  0  0  0  0  0  0
  -23.1339  -29.9106   22.6606 C   0  0  0  0  0  0  0  0  0  0  0  0
  -21.0515  -28.0014   21.0667 C   0  0  0  0  0  0  0  0  0  0  0  0
  -20.5730  -25.4591   18.8408 C   0  0  0  0  0  0  0  0  0  0  0  0
  -26.3274  -20.3198   24.9239 C   0  0  0  0  0  0  0  0  0  0  0  0
  -21.0695  -33.4095   25.7514 C   0  0  0  0  0  0  0  0  0  0  0  0
  -23.9255  -30.1779   20.2819 C   0  0  0  0  0  0  0  0  0  0  0  0
  -23.4842  -27.3383   20.9793 C   0  0  0  0  0  0  0  0  0  0  0  0
  -20.7052  -31.9958   25.3054 C   0  0  0  0  0  0  0  0  0  0  0  0
  -28.5503  -17.9865   26.4375 C   0  0  0  0  0  0  0  0  0  0  0  0
  -31.7166  -26.9746   22.5353 C   0  0  0  0  0  0  0  0  0  0  0  0
  -21.9068  -31.0663   25.4428 C   0  0  0  0  0  0  0  0  0  0  0  0
  -28.7600  -16.9260   25.3552 C   0  0  0  0  0  0  0  0  0  0  0  0
  -31.7989  -26.3541   21.1496 C   0  0  0  0  0  0  0  0  0  0  0  0
  -30.7270  -26.0759   23.2700 C   0  0  0  0  0  0  0  0  0  0  0  0
  -27.1204  -18.5225   26.4329 C   0  0  0  0  0  0  0  0  0  0  0  0
  -26.8617  -17.9660   24.0461 C   0  0  0  0  0  0  0  0  0  0  0  0
  -23.0657  -31.5273   24.5506 C   0  0  1  0  0  0  0  0  0  0  0  0
  -22.7921  -29.7449   21.2068 C   0  0  1  0  0  0  0  0  0  0  0  0
  -28.3040  -17.4358   23.9748 C   0  0  2  0  0  0  0  0  0  0  0  0
  -30.3667  -25.8723   20.8789 C   0  0  2  0  0  0  0  0  0  0  0  0
  -18.7603  -24.0945   17.7687 C   0  0  0  0  0  0  0  0  0  0  0  0
  -20.7145  -26.4203   23.6545 C   0  0  0  0  0  0  0  0  0  0  0  0
  -19.6854  -24.5751   22.3113 C   0  0  0  0  0  0  0  0  0  0  0  0
  -18.5933  -26.8164   22.3903 C   0  0  0  0  0  0  0  0  0  0  0  0
  -21.3277  -26.3742   16.1294 C   0  0  0  0  0  0  0  0  0  0  0  0
  -25.5561  -22.0180   23.2868 C   0  0  0  0  0  0  0  0  0  0  0  0
  -29.5154  -26.9768   20.2540 C   0  0  0  0  0  0  0  0  0  1  0  0
  -20.7328  -26.5258   21.0749 C   0  0  1  0  0  0  0  0  0  0  0  0
  -19.6439  -25.3263   17.6477 C   0  0  2  0  0  0  0  0  0  0  0  0
  -19.9576  -26.0940   22.3516 C   0  0  0  0  0  0  0  0  0  0  0  0
  -27.4338  -15.5623   22.6275 N   0  0  0  0  0  0  0  0  0  0  0  0
  -28.4689  -16.3738   22.9034 N   0  0  0  0  0  0  0  0  0  0  0  0
  -29.8704  -25.5273   22.2168 N   0  0  3  0  0  0  0  0  0  0  0  0
  -22.4099  -28.3444   21.0150 N   0  0  0  0  0  0  0  0  0  0  0  0
  -26.7507  -18.9914   25.0953 N   0  0  0  0  0  0  0  0  0  0  0  0
  -30.7095  -16.8492   22.2999 N   0  0  0  0  0  0  0  0  0  0  0  0
  -29.6090  -13.4065   19.5919 N   0  0  0  0  0  0  0  0  0  0  0  0
  -22.8223  -31.1553   23.1734 N   0  0  0  0  0  0  0  0  0  0  0  0
  -20.0277  -26.2535   19.8270 N   0  0  0  0  0  0  0  0  0  0  0  0
  -26.0019  -20.6843   23.6231 N   0  0  0  0  0  0  0  0  0  0  0  0
  -20.4315  -25.2178   16.3873 N   0  3  0  0  0  0  0  0  0  0  0  0
  -31.2921  -14.8490   20.1793 O   0  0  0  0  0  0  0  0  0  0  0  0
  -23.6413  -28.9778   23.2721 O   0  0  0  0  0  0  0  0  0  0  0  0
  -20.1288  -28.8195   21.0976 O   0  0  0  0  0  0  0  0  0  0  0  0
  -21.6711  -24.9096   18.8942 O   0  0  0  0  0  0  0  0  0  0  0  0
  -26.2509  -21.1231   25.8597 O   0  0  0  0  0  0  0  0  0  0  0  0
  -24.6968  -10.7838   19.4300 O   0  0  0  0  0  0  0  0  0  0  0  0
  -28.2020  -26.4723   20.0151 O   0  0  0  0  0  0  0  0  0  1  0  0
  -21.7428   -7.6523   22.8756 F   0  0  0  0  0  0  0  0  0  0  0  0
  -27.0293  -21.9390   20.8768 F   0  0  0  0  0  0  0  0  0  0  0  0
  -25.0581   -8.0444   19.5199 F   0  0  0  0  0  0  0  0  0  0  0  0
  1  2  1  0  0  0  0
  1  5  2  0  0  0  0
  2  6  2  0  0  0  0
  3 10  2  0  0  0  0
  3 18  1  0  0  0  0
  4 11  1  0  0  0  0
  4 18  2  0  0  0  0
  5 20  1  0  0  0  0
  6 22  1  0  0  0  0
  7 12  2  0  0  0  0
  7 21  1  0  0  0  0
  8  9  2  0  0  0  0
  8 24  1  0  0  0  0
  9 25  1  0  0  0  0
 10 26  1  0  0  0  0
 11 26  2  0  0  0  0
 12 27  1  0  0  0  0
 13 14  2  0  0  0  0
 13 28  1  0  0  0  0
 14 29  1  0  0  0  0
 15 23  1  0  0  0  0
 15 27  2  0  0  0  0
 16 25  2  0  0  0  0
 16 30  1  0  0  0  0
 17 29  2  0  0  0  0
 17 31  1  0  0  0  0
 18 32  1  0  0  0  0
 19 32  1  0  0  0  0
 19 33  2  0  0  0  0
 19 34  1  0  0  0  0
 20 22  2  0  0  0  0
 20 39  1  0  0  0  0
 21 23  2  0  0  0  0
 21 40  1  0  0  0  0
 22 51  1  0  0  0  0
 23 41  1  0  0  0  0
 24 30  2  0  0  0  0
 24 60  1  0  0  0  0
 25 67  1  0  0  0  0
 26 81  1  0  0  0  0
 27 82  1  0  0  0  0
 28 31  2  0  0  0  0
 28 81  1  0  0  0  0
 29 83  1  0  0  0  0
 30 84  1  0  0  0  0
 31 85  1  0  0  0  0
 32 65  2  0  0  0  0
 33 66  1  0  0  0  0
 33 70  1  0  0  0  0
 34 71  1  0  0  0  0
 34 76  2  0  0  0  0
 35 52  1  0  0  0  0
 35 72  1  0  0  0  0
 35 77  2  0  0  0  0
 36 62  1  0  0  0  0
 36 68  1  0  0  0  0
 36 78  2  0  0  0  0
 37 63  1  0  0  0  0
 37 73  1  0  0  0  0
 37 79  2  0  0  0  0
 38 69  1  0  0  0  0
 38 74  1  0  0  0  0
 38 80  2  0  0  0  0
 39 42  1  0  0  0  0
 40 52  1  0  0  0  0
 41 68  1  0  0  0  0
 42 45  1  0  0  0  0
 43 46  1  0  0  0  0
 43 49  1  0  0  0  0
 44 47  1  0  0  0  0
 44 48  1  0  0  0  0
 45 51  1  0  0  0  0
 46 53  1  0  0  0  0
 47 54  1  0  0  0  0
 48 67  1  0  0  0  0
 49 69  1  0  0  0  0
 50 53  1  0  0  0  0
 50 69  1  0  0  0  0
 51 72  1  0  0  0  0
 52 68  1  0  0  0  0
 53 66  1  0  0  0  0
 54 61  1  0  0  0  0
 54 67  1  0  0  0  0
 55 63  1  0  0  0  0
 56 64  1  0  0  0  0
 57 64  1  0  0  0  0
 58 64  1  0  0  0  0
 59 75  1  0  0  0  0
 60 74  1  0  0  0  0
 61 82  1  0  0  0  0
 62 64  1  0  0  0  0
 62 73  1  0  0  0  0
 63 75  1  0  0  0  0
 65 66  1  0  0  0  0
M  CHG  1  75   1
M  ISO  4  38 100  61 101  74 100  82 101
M  END
> <Batch ID>
0021

> <Smiles>
CNC(C)C(=O)NC(C(=O)N1Cc2cc([101O:1][101CH2:1]C3CCCN3c3ccc(C[100NH:0][100C:0](=O)N4CCCC(n5nc(-c6ccc(Oc7ccc(F)cc7F)cc6)c(C(N)=O)c5N)C4)c(F)c3)ccc2CC1C(=O)NC1CCCc2ccccc21)C(C)(C)C

> <Shape>
0.238

> <Color>
0.100

> <Negative vol penalty>
0.000

$$$$

  -OEChem-04042321113D

 84 92  0     1  0  0  0  0  0999 V2000
  -27.5335  -37.8216   17.7810 C   0  0  0  0  0  0  0  0  0  0  0  0
  -27.8864  -36.4837   17.6367 C   0  0  0  0  0  0  0  0  0  0  0  0
  -24.5484   -8.2390   21.4285 C   0  0  0  0  0  0  0  0  0  0  0  0
  -23.8526  -10.0608   22.8546 C   0  0  0  0  0  0  0  0  0  0  0  0
  -27.1539  -38.3104   19.0304 C   0  0  0  0  0  0  0  0  0  0  0  0
  -27.8609  -35.6339   18.7420 C   0  0  0  0  0  0  0  0  0  0  0  0
  -26.3754  -29.6928   18.7846 C   0  0  0  0  0  0  0  0  0  0  0  0
  -24.1017   -7.3229   22.3808 C   0  0  0  0  0  0  0  0  0  0  0  0
  -23.4059   -9.1448   23.8069 C   0  0  0  0  0  0  0  0  0  0  0  0
  -27.1485  -28.5326   18.7771 C   0  0  0  0  0  0  0  0  0  0  0  0
  -21.1513   -6.0079   23.3804 C   0  0  0  0  0  0  0  0  0  0  0  0
  -20.4052   -4.9182   22.9316 C   0  0  0  0  0  0  0  0  0  0  0  0
  -26.9725  -28.4071   21.1797 C   0  0  0  0  0  0  0  0  0  0  0  0
  -28.7660  -19.1034   20.8189 C   0  0  0  0  0  0  0  0  0  0  0  0
  -28.0565  -18.7587   23.1024 C   0  0  0  0  0  0  0  0  0  0  0  0
  -22.0664   -3.4111   23.8297 C   0  0  0  0  0  0  0  0  0  0  0  0
  -24.4239   -9.6080   21.6654 C   0  0  0  0  0  0  0  0  0  0  0  0
  -24.1456  -11.1050   19.6187 C   0  0  0  0  0  0  0  0  0  0  0  0
  -27.1145  -37.4640   20.1496 C   0  0  0  0  0  0  0  0  0  0  0  0
  -25.9035  -30.2258   19.9927 C   0  0  0  0  0  0  0  0  0  0  0  0
  -27.4817  -36.1121   20.0078 C   0  0  0  0  0  0  0  0  0  0  0  0
  -26.1916  -29.5727   21.1996 C   0  0  0  0  0  0  0  0  0  0  0  0
  -28.2997  -19.6161   22.0294 C   0  0  0  0  0  0  0  0  0  0  0  0
  -28.7458  -16.8760   21.7544 C   0  0  0  0  0  0  0  0  0  0  0  0
  -23.5304   -7.7758   23.5700 C   0  0  0  0  0  0  0  0  0  0  0  0
  -27.4496  -27.8911   19.9750 C   0  0  0  0  0  0  0  0  0  0  0  0
  -22.3550   -5.7993   24.0537 C   0  0  0  0  0  0  0  0  0  0  0  0
  -20.8627   -3.6198   23.1563 C   0  0  0  0  0  0  0  0  0  0  0  0
  -28.9890  -17.7333   20.6814 C   0  0  0  0  0  0  0  0  0  0  0  0
  -28.2795  -17.3887   22.9650 C   0  0  0  0  0  0  0  0  0  0  0  0
  -22.8125   -4.5008   24.2784 C   0  0  0  0  0  0  0  0  0  0  0  0
  -24.8857  -10.5547   20.6824 C   0  0  0  0  0  0  0  0  0  0  0  0
  -25.0294  -11.9418   18.9823 C   0  0  0  0  0  0  0  0  0  0  0  0
  -22.7813  -10.8799   19.2399 C   0  0  0  0  0  0  0  0  0  0  0  0
  -26.3272  -32.9615   21.5549 C   0  0  0  0  0  0  0  0  0  0  0  0
  -24.0614  -31.7357   23.5261 C   0  0  0  0  0  0  0  0  0  0  0  0
  -22.4747  -28.9744   24.7527 C   0  0  0  0  0  0  0  0  0  0  0  0
  -29.9169  -14.8610   20.7979 C   0  0  0  0  0  0  0  0  0  0  0  0
  -26.7432  -38.0488   21.4893 C   0  0  0  0  0  0  0  0  0  0  0  0
  -25.0484  -31.4632   19.9814 C   0  0  0  0  0  0  0  0  0  0  0  0
  -25.6919  -30.0931   22.5218 C   0  0  0  0  0  0  0  0  0  0  0  0
  -26.3818  -36.9963   22.5343 C   0  0  0  0  0  0  0  0  0  0  0  0
  -29.7100  -12.5029   18.1383 C   0  0  0  0  0  0  0  0  0  0  0  0
  -27.4093  -35.8689   22.5339 C   0  0  0  0  0  0  0  0  0  0  0  0
  -28.3791  -11.7900   18.3886 C   0  0  0  0  0  0  0  0  0  0  0  0
  -30.4269  -12.8405   19.4443 C   0  0  0  0  0  0  0  0  0  0  0  0
  -28.2905  -12.8725   20.6705 C   0  0  0  0  0  0  0  0  0  0  0  0
  -27.4428  -35.1534   21.1780 C   0  0  1  0  0  0  0  0  0  0  0  0
  -25.0519  -32.2041   21.3150 C   0  0  1  0  0  0  0  0  0  0  0  0
  -27.5009  -12.5700   19.3865 C   0  0  2  0  0  0  0  0  0  0  0  0
  -20.6919  -28.2869   26.3795 C   0  0  0  0  0  0  0  0  0  0  0  0
  -25.9867  -32.2297   25.8411 C   0  0  0  0  0  0  0  0  0  0  0  0
  -24.5887  -30.6944   27.2399 C   0  0  0  0  0  0  0  0  0  0  0  0
  -23.6003  -32.7963   26.3298 C   0  0  0  0  0  0  0  0  0  0  0  0
  -20.8302  -27.7572   22.6143 C   0  0  0  0  0  0  0  0  0  0  0  0
  -28.0185  -23.3562   21.5931 C   0  0  0  0  0  0  0  0  0  0  0  0
  -28.2866  -24.4075   20.5153 C   0  0  0  0  0  0  0  0  0  0  0  0
  -28.3002  -21.9358   21.1103 C   0  0  0  0  0  0  0  0  0  0  0  0
  -27.9600  -25.8113   21.0092 C   0  0  0  0  0  0  0  0  0  1  0  0
  -24.0751  -30.8699   24.7627 C   0  0  1  0  0  0  0  0  0  0  0  0
  -21.0015  -28.6582   24.9376 C   0  0  2  0  0  0  0  0  0  0  0  0
  -24.5739  -31.6386   26.0188 C   0  0  0  0  0  0  0  0  0  0  0  0
  -26.1429  -11.0040   20.7225 N   0  0  0  0  0  0  0  0  0  0  0  0
  -26.1997  -11.8454   19.6761 N   0  0  0  0  0  0  0  0  0  0  0  0
  -24.8649  -31.3095   22.4591 N   0  0  0  0  0  0  0  0  0  0  0  0
  -29.5353  -13.5828   20.3381 N   0  0  0  0  0  0  0  0  0  0  0  0
  -24.9120  -12.7433   17.9023 N   0  0  0  0  0  0  0  0  0  0  0  0
  -22.0143   -9.9888   20.0029 N   0  0  0  0  0  0  0  0  0  0  0  0
  -28.9748  -15.4846   21.6154 N   0  0  0  0  0  0  0  0  0  0  0  0
  -28.0770  -20.9770   22.1662 N   0  0  0  0  0  0  0  0  0  0  0  0
  -26.3189  -34.2499   21.0554 N   0  0  0  0  0  0  0  0  0  0  0  0
  -22.7291  -30.3224   24.8926 N   0  0  0  0  0  0  0  0  0  0  0  0
  -20.6025  -27.5194   24.0630 N   0  3  0  0  0  0  0  0  0  0  0  0
  -22.2625  -11.4395   18.2443 O   0  0  0  0  0  0  0  0  0  0  0  0
  -27.2500  -32.4178   22.1503 O   0  0  0  0  0  0  0  0  0  0  0  0
  -23.3580  -32.7488   23.5050 O   0  0  0  0  0  0  0  0  0  0  0  0
  -23.3161  -28.1115   24.5122 O   0  0  0  0  0  0  0  0  0  0  0  0
  -30.9877  -15.3767   20.4672 O   0  0  0  0  0  0  0  0  0  0  0  0
  -23.0942   -6.8822   24.4994 O   0  0  0  0  0  0  0  0  0  0  0  0
  -28.2045  -26.7589   19.9706 O   0  0  0  0  0  0  0  0  0  1  0  0
  -20.1454   -2.5733   22.7266 F   0  0  0  0  0  0  0  0  0  0  0  0
  -29.4383  -17.2515   19.5137 F   0  0  0  0  0  0  0  0  0  0  0  0
  -28.0442  -16.5743   24.0036 F   0  0  0  0  0  0  0  0  0  0  0  0
  -23.9675   -4.2941   24.9258 F   0  0  0  0  0  0  0  0  0  0  0  0
  1  2  1  0  0  0  0
  1  5  2  0  0  0  0
  2  6  2  0  0  0  0
  3  8  2  0  0  0  0
  3 17  1  0  0  0  0
  4  9  1  0  0  0  0
  4 17  2  0  0  0  0
  5 19  1  0  0  0  0
  6 21  1  0  0  0  0
  7 10  2  0  0  0  0
  7 20  1  0  0  0  0
  8 25  1  0  0  0  0
  9 25  2  0  0  0  0
 10 26  1  0  0  0  0
 11 12  2  0  0  0  0
 11 27  1  0  0  0  0
 12 28  1  0  0  0  0
 13 22  1  0  0  0  0
 13 26  2  0  0  0  0
 14 23  1  0  0  0  0
 14 29  2  0  0  0  0
 15 23  2  0  0  0  0
 15 30  1  0  0  0  0
 16 28  2  0  0  0  0
 16 31  1  0  0  0  0
 17 32  1  0  0  0  0
 18 32  1  0  0  0  0
 18 33  2  0  0  0  0
 18 34  1  0  0  0  0
 19 21  2  0  0  0  0
 19 39  1  0  0  0  0
 20 22  2  0  0  0  0
 20 40  1  0  0  0  0
 21 48  1  0  0  0  0
 22 41  1  0  0  0  0
 23 70  1  0  0  0  0
 24 29  1  0  0  0  0
 24 30  2  0  0  0  0
 24 69  1  0  0  0  0
 25 79  1  0  0  0  0
 26 80  1  0  0  0  0
 27 31  2  0  0  0  0
 27 79  1  0  0  0  0
 28 81  1  0  0  0  0
 29 82  1  0  0  0  0
 30 83  1  0  0  0  0
 31 84  1  0  0  0  0
 32 63  2  0  0  0  0
 33 64  1  0  0  0  0
 33 67  1  0  0  0  0
 34 68  1  0  0  0  0
 34 74  2  0  0  0  0
 35 49  1  0  0  0  0
 35 71  1  0  0  0  0
 35 75  2  0  0  0  0
 36 60  1  0  0  0  0
 36 65  1  0  0  0  0
 36 76  2  0  0  0  0
 37 61  1  0  0  0  0
 37 72  1  0  0  0  0
 37 77  2  0  0  0  0
 38 66  1  0  0  0  0
 38 69  1  0  0  0  0
 38 78  2  0  0  0  0
 39 42  1  0  0  0  0
 40 49  1  0  0  0  0
 41 65  1  0  0  0  0
 42 44  1  0  0  0  0
 43 45  1  0  0  0  0
 43 46  1  0  0  0  0
 44 48  1  0  0  0  0
 45 50  1  0  0  0  0
 46 66  1  0  0  0  0
 47 50  1  0  0  0  0
 47 66  1  0  0  0  0
 48 71  1  0  0  0  0
 49 65  1  0  0  0  0
 50 64  1  0  0  0  0
 51 61  1  0  0  0  0
 52 62  1  0  0  0  0
 53 62  1  0  0  0  0
 54 62  1  0  0  0  0
 55 73  1  0  0  0  0
 56 57  1  0  0  0  0
 56 58  1  0  0  0  0
 57 59  1  0  0  0  0
 58 70  1  0  0  0  0
 59 80  1  0  0  0  0
 60 62  1  0  0  0  0
 60 72  1  0  0  0  0
 61 73  1  0  0  0  0
 63 64  1  0  0  0  0
M  CHG  1  73   1
M  ISO  4  38 100  59 101  69 100  80 101
M  END
> <Batch ID>
0021

> <Smiles>
CNC(C)C(=O)NC(C(=O)N1Cc2cc([101O:1][101CH2:1]CCCNc3cc(F)c([100NH:0][100C:0](=O)N4CCCC(n5nc(-c6ccc(Oc7ccc(F)cc7F)cc6)c(C(N)=O)c5N)C4)c(F)c3)ccc2CC1C(=O)NC1CCCc2ccccc21)C(C)(C)C

> <Shape>
0.295

> <Color>
0.104

> <Negative vol penalty>
0.000

$$$$

  -OEChem-04042321113D

 85 94  0     1  0  0  0  0  0999 V2000
  -24.9116  -18.7490   24.3044 C   0  0  0  0  0  0  0  0  0  0  0  0
  -25.4658  -19.6870   23.4393 C   0  0  0  0  0  0  0  0  0  0  0  0
  -26.6196  -12.3808   21.2947 C   0  0  0  0  0  0  0  0  0  0  0  0
  -25.3901  -13.9769   19.9613 C   0  0  0  0  0  0  0  0  0  0  0  0
  -23.5530  -18.8038   24.6127 C   0  0  0  0  0  0  0  0  0  0  0  0
  -24.6613  -20.6798   22.8810 C   0  0  0  0  0  0  0  0  0  0  0  0
  -26.8290  -25.2537   23.0383 C   0  0  0  0  0  0  0  0  0  0  0  0
  -30.1457  -23.5685   19.2794 C   0  0  0  0  0  0  0  0  0  0  0  0
  -30.1032  -22.5070   20.1832 C   0  0  0  0  0  0  0  0  0  0  0  0
  -25.4348  -11.6980   21.5698 C   0  0  0  0  0  0  0  0  0  0  0  0
  -24.2053  -13.2940   20.2364 C   0  0  0  0  0  0  0  0  0  0  0  0
  -27.8118  -25.5256   22.0875 C   0  0  0  0  0  0  0  0  0  0  0  0
  -23.4047   -9.4984   19.9972 C   0  0  0  0  0  0  0  0  0  0  0  0
  -23.4201   -8.1073   19.8973 C   0  0  0  0  0  0  0  0  0  0  0  0
  -26.1961  -26.7444   20.7748 C   0  0  0  0  0  0  0  0  0  0  0  0
  -28.0083  -21.7765   19.2267 C   0  0  0  0  0  0  0  0  0  0  0  0
  -22.8003   -7.9333   22.2260 C   0  0  0  0  0  0  0  0  0  0  0  0
  -26.5972  -13.5203   20.4905 C   0  0  0  0  0  0  0  0  0  0  0  0
  -28.6999  -14.0045   19.1296 C   0  0  0  0  0  0  0  0  0  0  0  0
  -22.7334  -19.8035   24.0655 C   0  0  0  0  0  0  0  0  0  0  0  0
  -25.5176  -25.7167   22.8588 C   0  0  0  0  0  0  0  0  0  0  0  0
  -23.2901  -20.7471   23.1812 C   0  0  0  0  0  0  0  0  0  0  0  0
  -25.1991  -26.4792   21.7260 C   0  0  0  0  0  0  0  0  0  0  0  0
  -29.1195  -23.7340   18.3492 C   0  0  0  0  0  0  0  0  0  0  0  0
  -29.0345  -21.6110   20.1569 C   0  0  0  0  0  0  0  0  0  0  0  0
  -24.2277  -12.1546   21.0407 C   0  0  0  0  0  0  0  0  0  0  0  0
  -27.4947  -26.2685   20.9541 C   0  0  0  0  0  0  0  0  0  0  0  0
  -23.0871  -10.1071   21.2114 C   0  0  0  0  0  0  0  0  0  0  0  0
  -23.1179   -7.3247   21.0117 C   0  0  0  0  0  0  0  0  0  0  0  0
  -28.0508  -22.8380   18.3228 C   0  0  0  0  0  0  0  0  0  0  0  0
  -22.7849   -9.3245   22.3258 C   0  0  0  0  0  0  0  0  0  0  0  0
  -27.8206  -14.2264   20.2064 C   0  0  0  0  0  0  0  0  0  0  0  0
  -29.7017  -14.9269   19.3085 C   0  0  0  0  0  0  0  0  0  0  0  0
  -28.6183  -13.0499   18.0629 C   0  0  0  0  0  0  0  0  0  0  0  0
  -22.6752  -24.3321   22.5309 C   0  0  0  0  0  0  0  0  0  0  0  0
  -21.6042  -27.3912   22.6605 C   0  0  0  0  0  0  0  0  0  0  0  0
  -22.2583  -30.7111   22.2162 C   0  0  0  0  0  0  0  0  0  0  0  0
  -29.9278  -20.2254   22.0618 C   0  0  0  0  0  0  0  0  0  0  0  0
  -21.2608  -19.7937   24.3911 C   0  0  0  0  0  0  0  0  0  0  0  0
  -24.4753  -25.4376   23.9068 C   0  0  0  0  0  0  0  0  0  0  0  0
  -23.8110  -27.0165   21.4963 C   0  0  0  0  0  0  0  0  0  0  0  0
  -20.5533  -21.1031   24.0516 C   0  0  0  0  0  0  0  0  0  0  0  0
  -31.9608  -17.3830   22.7434 C   0  0  0  0  0  0  0  0  0  0  0  0
  -29.5069  -25.8782   15.3720 C   0  0  0  0  0  0  0  0  0  0  0  0
  -20.9489  -21.5777   22.6570 C   0  0  0  0  0  0  0  0  0  0  0  0
  -31.2130  -16.2317   22.0670 C   0  0  0  0  0  0  0  0  0  0  0  0
  -28.8787  -26.8628   16.3388 C   0  0  0  0  0  0  0  0  0  0  0  0
  -29.1846  -24.5339   16.0059 C   0  0  0  0  0  0  0  0  0  0  0  0
  -31.0004  -18.3983   23.3603 C   0  0  0  0  0  0  0  0  0  0  0  0
  -29.2281  -17.7676   21.7696 C   0  0  0  0  0  0  0  0  0  0  0  0
  -22.4551  -21.8541   22.5750 C   0  0  1  0  0  0  0  0  0  0  0  0
  -23.0501  -25.5213   23.3692 C   0  0  1  0  0  0  0  0  0  0  0  0
  -30.1526  -16.7529   21.0772 C   0  0  2  0  0  0  0  0  0  0  0  0
  -29.1542  -26.2469   17.7368 C   0  0  1  0  0  0  0  0  0  0  0  0
  -30.5242  -26.7269   18.2378 C   0  0  0  0  0  0  0  0  0  0  0  0
  -21.1745  -32.9696   22.3649 C   0  0  0  0  0  0  0  0  0  0  0  0
  -20.1328  -26.8549   20.0419 C   0  0  0  0  0  0  0  0  0  0  0  0
  -19.8773  -29.3294   19.7595 C   0  0  0  0  0  0  0  0  0  0  0  0
  -18.8339  -28.1847   21.7149 C   0  0  0  0  0  0  0  0  0  0  0  0
  -24.1687  -31.6201   24.2857 C   0  0  0  0  0  0  0  0  0  0  0  0
  -28.0208  -26.6813   18.6718 C   0  0  0  0  0  0  0  0  0  1  0  0
  -21.3442  -28.4769   21.6442 C   0  0  1  0  0  0  0  0  0  0  0  0
  -21.9914  -31.9173   23.0985 C   0  0  2  0  0  0  0  0  0  0  0  0
  -20.0728  -28.1998   20.7932 C   0  0  0  0  0  0  0  0  0  0  0  0
  -28.2281  -15.2124   21.0100 N   0  0  0  0  0  0  0  0  0  0  0  0
  -29.3745  -15.6182   20.4378 N   0  0  0  0  0  0  0  0  0  0  0  0
  -29.1638  -24.7899   17.4539 N   0  0  3  0  0  0  0  0  0  0  0  0
  -22.8253  -26.7116   22.5465 N   0  0  0  0  0  0  0  0  0  0  0  0
  -30.0276  -18.8507   22.3634 N   0  0  0  0  0  0  0  0  0  0  0  0
  -30.8217  -15.2060   18.6085 N   0  0  0  0  0  0  0  0  0  0  0  0
  -27.5224  -12.1769   18.0299 N   0  0  0  0  0  0  0  0  0  0  0  0
  -28.9914  -20.5327   21.0752 N   0  0  0  0  0  0  0  0  0  0  0  0
  -22.7705  -23.1236   23.1941 N   0  0  0  0  0  0  0  0  0  0  0  0
  -21.3036  -29.7312   22.3882 N   0  0  0  0  0  0  0  0  0  0  0  0
  -23.2758  -32.5368   23.5312 N   0  3  0  0  0  0  0  0  0  0  0  0
  -29.4999  -12.9623   17.1749 O   0  0  0  0  0  0  0  0  0  0  0  0
  -22.3240  -24.4987   21.3687 O   0  0  0  0  0  0  0  0  0  0  0  0
  -20.7583  -27.1597   23.5279 O   0  0  0  0  0  0  0  0  0  0  0  0
  -23.2157  -30.6464   21.4482 O   0  0  0  0  0  0  0  0  0  0  0  0
  -30.6411  -21.0650   22.6169 O   0  0  0  0  0  0  0  0  0  0  0  0
  -23.0715  -11.4884   21.3087 O   0  0  0  0  0  0  0  0  0  0  0  0
  -28.4520  -26.5348   20.0242 O   0  0  0  0  0  0  0  0  0  1  0  0
  -23.1312   -5.9888   20.9153 F   0  0  0  0  0  0  0  0  0  0  0  0
  -27.0587  -22.9889   17.4339 F   0  0  0  0  0  0  0  0  0  0  0  0
  -22.4779   -9.9035   23.4947 F   0  0  0  0  0  0  0  0  0  0  0  0
  1  2  1  0  0  0  0
  1  5  2  0  0  0  0
  2  6  2  0  0  0  0
  3 10  2  0  0  0  0
  3 18  1  0  0  0  0
  4 11  1  0  0  0  0
  4 18  2  0  0  0  0
  5 20  1  0  0  0  0
  6 22  1  0  0  0  0
  7 12  2  0  0  0  0
  7 21  1  0  0  0  0
  8  9  2  0  0  0  0
  8 24  1  0  0  0  0
  9 25  1  0  0  0  0
 10 26  1  0  0  0  0
 11 26  2  0  0  0  0
 12 27  1  0  0  0  0
 13 14  2  0  0  0  0
 13 28  1  0  0  0  0
 14 29  1  0  0  0  0
 15 23  1  0  0  0  0
 15 27  2  0  0  0  0
 16 25  2  0  0  0  0
 16 30  1  0  0  0  0
 17 29  2  0  0  0  0
 17 31  1  0  0  0  0
 18 32  1  0  0  0  0
 19 32  1  0  0  0  0
 19 33  2  0  0  0  0
 19 34  1  0  0  0  0
 20 22  2  0  0  0  0
 20 39  1  0  0  0  0
 21 23  2  0  0  0  0
 21 40  1  0  0  0  0
 22 51  1  0  0  0  0
 23 41  1  0  0  0  0
 24 30  2  0  0  0  0
 24 67  1  0  0  0  0
 25 72  1  0  0  0  0
 26 81  1  0  0  0  0
 27 82  1  0  0  0  0
 28 31  2  0  0  0  0
 28 81  1  0  0  0  0
 29 83  1  0  0  0  0
 30 84  1  0  0  0  0
 31 85  1  0  0  0  0
 32 65  2  0  0  0  0
 33 66  1  0  0  0  0
 33 70  1  0  0  0  0
 34 71  1  0  0  0  0
 34 76  2  0  0  0  0
 35 52  1  0  0  0  0
 35 73  1  0  0  0  0
 35 77  2  0  0  0  0
 36 62  1  0  0  0  0
 36 68  1  0  0  0  0
 36 78  2  0  0  0  0
 37 63  1  0  0  0  0
 37 74  1  0  0  0  0
 37 79  2  0  0  0  0
 38 69  1  0  0  0  0
 38 72  1  0  0  0  0
 38 80  2  0  0  0  0
 39 42  1  0  0  0  0
 40 52  1  0  0  0  0
 41 68  1  0  0  0  0
 42 45  1  0  0  0  0
 43 46  1  0  0  0  0
 43 49  1  0  0  0  0
 44 47  1  0  0  0  0
 44 48  1  0  0  0  0
 45 51  1  0  0  0  0
 46 53  1  0  0  0  0
 47 54  1  0  0  0  0
 48 67  1  0  0  0  0
 49 69  1  0  0  0  0
 50 53  1  0  0  0  0
 50 69  1  0  0  0  0
 51 73  1  0  0  0  0
 52 68  1  0  0  0  0
 53 66  1  0  0  0  0
 54 55  1  0  0  0  0
 54 61  1  0  0  0  0
 54 67  1  0  0  0  0
 56 63  1  0  0  0  0
 57 64  1  0  0  0  0
 58 64  1  0  0  0  0
 59 64  1  0  0  0  0
 60 75  1  0  0  0  0
 61 82  1  0  0  0  0
 62 64  1  0  0  0  0
 62 74  1  0  0  0  0
 63 75  1  0  0  0  0
 65 66  1  0  0  0  0
M  CHG  1  75   1
M  ISO  4  38 100  61 101  72 100  82 101
M  END
> <Batch ID>
0021

> <Smiles>
CNC(C)C(=O)NC(C(=O)N1Cc2cc([101O:1][101CH2:1]C3(C)CCCN3c3ccc([100NH:0][100C:0](=O)N4CCCC(n5nc(-c6ccc(Oc7ccc(F)cc7F)cc6)c(C(N)=O)c5N)C4)cc3F)ccc2CC1C(=O)NC1CCCc2ccccc21)C(C)(C)C

> <Shape>
0.257

> <Color>
0.069

> <Negative vol penalty>
0.000

$$$$

  -OEChem-04042321113D

 88 97  0     1  0  0  0  0  0999 V2000
  -16.8812  -27.9733   21.9610 C   0  0  0  0  0  0  0  0  0  0  0  0
  -17.8778  -27.8058   21.0049 C   0  0  0  0  0  0  0  0  0  0  0  0
  -25.4125  -14.5250   22.4358 C   0  0  0  0  0  0  0  0  0  0  0  0
  -25.7332  -15.3031   20.1712 C   0  0  0  0  0  0  0  0  0  0  0  0
  -17.1113  -28.7846   23.0713 C   0  0  0  0  0  0  0  0  0  0  0  0
  -19.1047  -28.4506   21.1579 C   0  0  0  0  0  0  0  0  0  0  0  0
  -24.6083  -26.3319   19.5064 C   0  0  0  0  0  0  0  0  0  0  0  0
  -29.0099  -23.7799   17.7819 C   0  0  0  0  0  0  0  0  0  0  0  0
  -28.2434  -23.0289   18.6729 C   0  0  0  0  0  0  0  0  0  0  0  0
  -24.4277  -13.6420   21.9930 C   0  0  0  0  0  0  0  0  0  0  0  0
  -24.7484  -14.4201   19.7283 C   0  0  0  0  0  0  0  0  0  0  0  0
  -25.4060  -26.5654   18.3871 C   0  0  0  0  0  0  0  0  0  0  0  0
  -24.2881  -10.6311   20.4608 C   0  0  0  0  0  0  0  0  0  0  0  0
  -24.3232   -9.3241   20.9468 C   0  0  0  0  0  0  0  0  0  0  0  0
  -26.6235  -28.2486   19.6133 C   0  0  0  0  0  0  0  0  0  0  0  0
  -28.8452  -24.5370   20.4619 C   0  0  0  0  0  0  0  0  0  0  0  0
  -22.1192   -9.6165   21.8923 C   0  0  0  0  0  0  0  0  0  0  0  0
  -26.0653  -15.3555   21.5249 C   0  0  0  0  0  0  0  0  0  0  0  0
  -28.4632  -16.0170   22.0908 C   0  0  0  0  0  0  0  0  0  0  0  0
  -18.3450  -29.4320   23.2429 C   0  0  0  0  0  0  0  0  0  0  0  0
  -24.8054  -27.0640   20.6861 C   0  0  0  0  0  0  0  0  0  0  0  0
  -19.3510  -29.2725   22.2708 C   0  0  0  0  0  0  0  0  0  0  0  0
  -25.8286  -28.0207   20.7470 C   0  0  0  0  0  0  0  0  0  0  0  0
  -29.6941  -24.9095   18.2308 C   0  0  0  0  0  0  0  0  0  0  0  0
  -29.6118  -25.2881   19.5708 C   0  0  0  0  0  0  0  0  0  0  0  0
  -28.1610  -23.4074   20.0129 C   0  0  0  0  0  0  0  0  0  0  0  0
  -24.0956  -13.5896   20.6393 C   0  0  0  0  0  0  0  0  0  0  0  0
  -26.4119  -27.5258   18.4395 C   0  0  0  0  0  0  0  0  0  0  0  0
  -23.1685  -11.4308   20.6906 C   0  0  0  0  0  0  0  0  0  0  0  0
  -23.2388   -8.8168   21.6625 C   0  0  0  0  0  0  0  0  0  0  0  0
  -22.0841  -10.9235   21.4063 C   0  0  0  0  0  0  0  0  0  0  0  0
  -27.0823  -16.2682   21.9818 C   0  0  0  0  0  0  0  0  0  0  0  0
  -28.9894  -17.1924   22.5683 C   0  0  0  0  0  0  0  0  0  0  0  0
  -29.2040  -14.8275   21.7875 C   0  0  0  0  0  0  0  0  0  0  0  0
  -23.0384  -29.0753   22.3996 C   0  0  0  0  0  0  0  0  0  0  0  0
  -25.5415  -28.9086   24.4562 C   0  0  0  0  0  0  0  0  0  0  0  0
  -28.8619  -28.2815   24.9338 C   0  0  0  0  0  0  0  0  0  0  0  0
  -27.1931  -22.8841   22.2791 C   0  0  0  0  0  0  0  0  0  0  0  0
  -18.5304  -30.3367   24.4353 C   0  0  0  0  0  0  0  0  0  0  0  0
  -23.9539  -26.7814   21.8934 C   0  0  0  0  0  0  0  0  0  0  0  0
  -26.0943  -28.8193   21.9961 C   0  0  0  0  0  0  0  0  0  0  0  0
  -19.9901  -30.6857   24.7140 C   0  0  0  0  0  0  0  0  0  0  0  0
  -27.8374  -21.0019   25.2320 C   0  0  0  0  0  0  0  0  0  0  0  0
  -30.3842  -28.3289   14.9204 C   0  0  0  0  0  0  0  0  0  0  0  0
  -20.6982  -31.0890   23.4245 C   0  0  0  0  0  0  0  0  0  0  0  0
  -27.8486  -19.5519   24.7424 C   0  0  0  0  0  0  0  0  0  0  0  0
  -28.8870  -28.0982   14.9743 C   0  0  0  0  0  0  0  0  0  0  0  0
  -26.7921  -21.8401   24.4982 C   0  0  0  0  0  0  0  0  0  0  0  0
  -26.8875  -20.3439   22.5434 C   0  0  0  0  0  0  0  0  0  0  0  0
  -30.8440  -28.0292   16.3342 C   0  0  0  0  0  0  0  0  0  0  0  0
  -20.7038  -29.9354   22.4142 C   0  0  1  0  0  0  0  0  0  0  0  0
  -23.9072  -27.9462   22.8774 C   0  0  1  0  0  0  0  0  0  0  0  0
  -27.9688  -19.4762   23.2077 C   0  0  2  0  0  0  0  0  0  0  0  0
  -28.7731  -26.8275   15.8033 C   0  0  2  0  0  0  0  0  0  0  0  0
  -30.6269  -28.2649   26.7176 C   0  0  0  0  0  0  0  0  0  0  0  0
  -31.7390  -26.1543   20.5626 C   0  0  0  0  0  0  0  0  0  0  0  0
  -25.6539  -31.9565   24.3698 C   0  0  0  0  0  0  0  0  0  0  0  0
  -27.9488  -31.8306   25.3626 C   0  0  0  0  0  0  0  0  0  0  0  0
  -25.9896  -30.9642   26.6407 C   0  0  0  0  0  0  0  0  0  0  0  0
  -29.3783  -25.3915   24.5588 C   0  0  0  0  0  0  0  0  0  0  0  0
  -30.5128  -25.7010   17.2539 C   0  0  0  0  0  0  0  0  0  0  0  0
  -27.4205  -26.6553   16.4695 C   0  0  0  0  0  0  0  0  0  1  0  0
  -26.8304  -29.6737   24.6357 C   0  0  1  0  0  0  0  0  0  0  0  0
  -29.5899  -27.4425   25.9685 C   0  0  2  0  0  0  0  0  0  0  0  0
  -30.3340  -26.4948   20.0736 C   0  0  0  0  0  0  0  0  0  0  0  0
  -26.5996  -31.0927   25.2279 C   0  0  0  0  0  0  0  0  0  0  0  0
  -26.7520  -17.5060   22.3597 N   0  0  0  0  0  0  0  0  0  0  0  0
  -27.9328  -18.0430   22.7110 N   0  0  0  0  0  0  0  0  0  0  0  0
  -25.2308  -28.5110   23.1480 N   0  0  0  0  0  0  0  0  0  0  0  0
  -26.9704  -21.7230   23.0493 N   0  0  0  0  0  0  0  0  0  0  0  0
  -30.2482  -17.5710   22.8758 N   0  0  0  0  0  0  0  0  0  0  0  0
  -28.5071  -13.7109   21.3060 N   0  0  0  0  0  0  0  0  0  0  0  0
  -27.3809  -22.6458   20.9180 N   0  0  0  0  0  0  0  0  0  0  0  0
  -21.7116  -28.9588   22.7676 N   0  0  0  0  0  0  0  0  0  0  0  0
  -27.7006  -28.8242   25.4416 N   0  0  0  0  0  0  0  0  0  0  0  0
  -29.8637  -26.9907   16.8533 N   0  3  1  0  0  0  0  0  0  0  0  0
  -30.2826  -26.2975   25.3127 N   0  3  0  0  0  0  0  0  0  0  0  0
  -30.4449  -14.7516   21.9545 O   0  0  0  0  0  0  0  0  0  0  0  0
  -23.5354  -29.9855   21.7468 O   0  0  0  0  0  0  0  0  0  0  0  0
  -24.8398  -28.6662   25.4413 O   0  0  0  0  0  0  0  0  0  0  0  0
  -29.2834  -28.4425   23.7906 O   0  0  0  0  0  0  0  0  0  0  0  0
  -27.2427  -24.0044   22.7934 O   0  0  0  0  0  0  0  0  0  0  0  0
  -23.1348  -12.7279   20.2068 O   0  0  0  0  0  0  0  0  0  0  0  0
  -27.1916  -27.7561   17.3482 O   0  0  0  0  0  0  0  0  0  1  0  0
  -23.2720   -7.5612   22.1278 F   0  0  0  0  0  0  0  0  0  0  0  0
  -21.0053  -11.6866   21.6293 F   0  0  0  0  0  0  0  0  0  0  0  0
  -29.6850  -27.1120   21.1115 F   0  0  0  0  0  0  0  0  0  0  0  0
  -30.4647  -27.4739   19.1229 F   0  0  0  0  0  0  0  0  0  0  0  0
  1  2  1  0  0  0  0
  1  5  2  0  0  0  0
  2  6  2  0  0  0  0
  3 10  2  0  0  0  0
  3 18  1  0  0  0  0
  4 11  1  0  0  0  0
  4 18  2  0  0  0  0
  5 20  1  0  0  0  0
  6 22  1  0  0  0  0
  7 12  2  0  0  0  0
  7 21  1  0  0  0  0
  8  9  2  0  0  0  0
  8 24  1  0  0  0  0
  9 26  1  0  0  0  0
 10 27  1  0  0  0  0
 11 27  2  0  0  0  0
 12 28  1  0  0  0  0
 13 14  2  0  0  0  0
 13 29  1  0  0  0  0
 14 30  1  0  0  0  0
 15 23  1  0  0  0  0
 15 28  2  0  0  0  0
 16 25  1  0  0  0  0
 16 26  2  0  0  0  0
 17 30  2  0  0  0  0
 17 31  1  0  0  0  0
 18 32  1  0  0  0  0
 19 32  1  0  0  0  0
 19 33  2  0  0  0  0
 19 34  1  0  0  0  0
 20 22  2  0  0  0  0
 20 39  1  0  0  0  0
 21 23  2  0  0  0  0
 21 40  1  0  0  0  0
 22 51  1  0  0  0  0
 23 41  1  0  0  0  0
 24 25  2  0  0  0  0
 24 61  1  0  0  0  0
 25 65  1  0  0  0  0
 26 73  1  0  0  0  0
 27 83  1  0  0  0  0
 28 84  1  0  0  0  0
 29 31  2  0  0  0  0
 29 83  1  0  0  0  0
 30 85  1  0  0  0  0
 31 86  1  0  0  0  0
 32 67  2  0  0  0  0
 33 68  1  0  0  0  0
 33 71  1  0  0  0  0
 34 72  1  0  0  0  0
 34 78  2  0  0  0  0
 35 52  1  0  0  0  0
 35 74  1  0  0  0  0
 35 79  2  0  0  0  0
 36 63  1  0  0  0  0
 36 69  1  0  0  0  0
 36 80  2  0  0  0  0
 37 64  1  0  0  0  0
 37 75  1  0  0  0  0
 37 81  2  0  0  0  0
 38 70  1  0  0  0  0
 38 73  1  0  0  0  0
 38 82  2  0  0  0  0
 39 42  1  0  0  0  0
 40 52  1  0  0  0  0
 41 69  1  0  0  0  0
 42 45  1  0  0  0  0
 43 46  1  0  0  0  0
 43 48  1  0  0  0  0
 44 47  1  0  0  0  0
 44 50  1  0  0  0  0
 45 51  1  0  0  0  0
 46 53  1  0  0  0  0
 47 54  1  0  0  0  0
 48 70  1  0  0  0  0
 49 53  1  0  0  0  0
 49 70  1  0  0  0  0
 50 76  1  0  0  0  0
 51 74  1  0  0  0  0
 52 69  1  0  0  0  0
 53 68  1  0  0  0  0
 54 62  1  0  0  0  0
 54 76  1  0  0  0  0
 55 64  1  0  0  0  0
 56 65  1  0  0  0  0
 57 66  1  0  0  0  0
 58 66  1  0  0  0  0
 59 66  1  0  0  0  0
 60 77  1  0  0  0  0
 61 76  1  0  0  0  0
 62 84  1  0  0  0  0
 63 66  1  0  0  0  0
 63 75  1  0  0  0  0
 64 77  1  0  0  0  0
 65 87  1  0  0  0  0
 65 88  1  0  0  0  0
 67 68  1  0  0  0  0
M  CHG  2  76   1  77   1
M  ISO  4  38 100  62 101  73 100  84 101
M  END
> <Batch ID>
0021

> <Smiles>
CNC(C)C(=O)NC(C(=O)N1Cc2cc([101O:1][101CH2:1]C3CCCN3Cc3ccc([100NH:0][100C:0](=O)N4CCCC(n5nc(-c6ccc(Oc7ccc(F)cc7F)cc6)c(C(N)=O)c5N)C4)cc3C(C)(F)F)ccc2CC1C(=O)NC1CCCc2ccccc21)C(C)(C)C

> <Shape>
0.287

> <Color>
0.048

> <Negative vol penalty>
0.000

$$$$

  -OEChem-04042321113D

 86 95  0     1  0  0  0  0  0999 V2000
  -23.3751   -7.7911   21.1984 C   0  0  0  0  0  0  0  0  0  0  0  0
  -24.2671   -8.8371   20.9849 C   0  0  0  0  0  0  0  0  0  0  0  0
  -24.8344  -29.7409   22.3437 C   0  0  0  0  0  0  0  0  0  0  0  0
  -24.0735  -29.5467   20.0589 C   0  0  0  0  0  0  0  0  0  0  0  0
  -22.0061   -8.0466   21.2654 C   0  0  0  0  0  0  0  0  0  0  0  0
  -23.7905  -10.1392   20.8374 C   0  0  0  0  0  0  0  0  0  0  0  0
  -26.4821  -13.5061   23.4953 C   0  0  0  0  0  0  0  0  0  0  0  0
  -25.2169  -31.0607   22.1042 C   0  0  0  0  0  0  0  0  0  0  0  0
  -24.4559  -30.8666   19.8194 C   0  0  0  0  0  0  0  0  0  0  0  0
  -27.7087  -13.9025   22.9641 C   0  0  0  0  0  0  0  0  0  0  0  0
  -23.7214  -34.0843   21.8716 C   0  0  0  0  0  0  0  0  0  0  0  0
  -23.3788  -35.0419   22.8262 C   0  0  0  0  0  0  0  0  0  0  0  0
  -26.6891  -15.9258   22.1357 C   0  0  0  0  0  0  0  0  0  0  0  0
  -27.0600  -17.4249   18.2386 C   0  0  0  0  0  0  0  0  0  0  0  0
  -29.7749  -17.6034   18.8553 C   0  0  0  0  0  0  0  0  0  0  0  0
  -25.7173  -35.5550   23.1508 C   0  0  0  0  0  0  0  0  0  0  0  0
  -24.2628  -28.9838   21.3210 C   0  0  0  0  0  0  0  0  0  0  0  0
  -22.6155  -27.1669   22.0231 C   0  0  0  0  0  0  0  0  0  0  0  0
  -21.5132   -9.3539   21.1283 C   0  0  0  0  0  0  0  0  0  0  0  0
  -25.3455  -14.3127   23.3409 C   0  0  0  0  0  0  0  0  0  0  0  0
  -22.4135  -10.4123   20.9013 C   0  0  0  0  0  0  0  0  0  0  0  0
  -25.4499  -15.5385   22.6681 C   0  0  0  0  0  0  0  0  0  0  0  0
  -27.8017  -16.2653   18.4642 C   0  0  0  0  0  0  0  0  0  0  0  0
  -27.6758  -18.6737   18.3212 C   0  0  0  0  0  0  0  0  0  0  0  0
  -29.1591  -16.3545   18.7726 C   0  0  0  0  0  0  0  0  0  0  0  0
  -25.0276  -31.6236   20.8421 C   0  0  0  0  0  0  0  0  0  0  0  0
  -27.8117  -15.1112   22.2817 C   0  0  0  0  0  0  0  0  0  0  0  0
  -25.0620  -33.8620   21.5566 C   0  0  0  0  0  0  0  0  0  0  0  0
  -24.3767  -35.7772   23.4658 C   0  0  0  0  0  0  0  0  0  0  0  0
  -29.0332  -18.7630   18.6296 C   0  0  0  0  0  0  0  0  0  0  0  0
  -26.0599  -34.5973   22.1962 C   0  0  0  0  0  0  0  0  0  0  0  0
  -23.8681  -27.6202   21.5677 C   0  0  0  0  0  0  0  0  0  0  0  0
  -22.7493  -25.8018   22.0937 C   0  0  0  0  0  0  0  0  0  0  0  0
  -21.4365  -27.9131   22.3528 C   0  0  0  0  0  0  0  0  0  0  0  0
  -22.5188  -13.9594   21.9307 C   0  0  0  0  0  0  0  0  0  0  0  0
  -21.9080  -16.8307   23.3109 C   0  0  0  0  0  0  0  0  0  0  0  0
  -23.1312  -19.7425   24.6041 C   0  0  0  0  0  0  0  0  0  0  0  0
  -26.2546  -22.0381   19.1949 C   0  0  0  0  0  0  0  0  0  0  0  0
  -20.0216   -9.5744   21.1609 C   0  0  0  0  0  0  0  0  0  0  0  0
  -24.0357  -13.8834   23.9430 C   0  0  0  0  0  0  0  0  0  0  0  0
  -24.2641  -16.4504   22.4927 C   0  0  0  0  0  0  0  0  0  0  0  0
  -19.6261  -11.0341   21.3684 C   0  0  0  0  0  0  0  0  0  0  0  0
  -26.0352  -22.3921   22.7899 C   0  0  0  0  0  0  0  0  0  0  0  0
  -30.9460  -13.1117   18.6804 C   0  0  0  0  0  0  0  0  0  0  0  0
  -20.4385  -11.9429   20.4515 C   0  0  0  0  0  0  0  0  0  0  0  0
  -25.3286  -23.7426   22.9199 C   0  0  0  0  0  0  0  0  0  0  0  0
  -31.7403  -13.9128   19.6998 C   0  0  0  0  0  0  0  0  0  0  0  0
  -30.0816  -14.1650   17.9946 C   0  0  0  0  0  0  0  0  0  0  0  0
  -27.0163  -22.3918   21.6213 C   0  0  0  0  0  0  0  0  0  0  0  0
  -25.7060  -24.1110   20.4376 C   0  0  0  0  0  0  0  0  0  0  0  0
  -21.9370  -11.8418   20.7612 C   0  0  1  0  0  0  0  0  0  0  0  0
  -22.8293  -14.5417   23.2806 C   0  0  1  0  0  0  0  0  0  0  0  0
  -24.6839  -24.1684   21.5875 C   0  0  2  0  0  0  0  0  0  0  0  0
  -30.7467  -14.9791   20.1818 C   0  0  2  0  0  0  0  0  0  0  0  0
  -27.1168  -14.9407   18.3694 C   0  0  0  0  0  0  0  0  0  0  0  0
  -22.3866  -21.9128   25.6202 C   0  0  0  0  0  0  0  0  0  0  0  0
  -21.1135  -17.8496   20.5467 C   0  0  0  0  0  0  0  0  0  0  0  0
  -21.3037  -20.1847   21.4295 C   0  0  0  0  0  0  0  0  0  0  0  0
  -19.6288  -18.6160   22.4075 C   0  0  0  0  0  0  0  0  0  0  0  0
  -24.5427  -19.1721   27.1420 C   0  0  0  0  0  0  0  0  0  0  0  0
  -26.8803  -19.9119   18.0792 C   0  0  0  0  0  0  0  0  0  0  0  0
  -29.9029  -14.4685   21.3490 C   0  0  0  0  0  0  0  0  0  1  0  0
  -22.0845  -18.2730   22.9013 C   0  0  1  0  0  0  0  0  0  0  0  0
  -22.8204  -20.4810   25.8934 C   0  0  2  0  0  0  0  0  0  0  0  0
  -21.0547  -18.7130   21.8227 C   0  0  0  0  0  0  0  0  0  0  0  0
  -24.7339  -26.6239   21.3635 N   0  0  0  0  0  0  0  0  0  0  0  0
  -24.0243  -25.5309   21.6922 N   0  0  0  0  0  0  0  0  0  0  0  0
  -29.9093  -15.2160   18.9994 N   0  0  3  0  0  0  0  0  0  0  0  0
  -23.0039  -15.9835   23.0939 N   0  0  0  0  0  0  0  0  0  0  0  0
  -26.3356  -22.7876   20.3803 N   0  0  0  0  0  0  0  0  0  0  0  0
  -21.8995  -24.8186   22.4594 N   0  0  0  0  0  0  0  0  0  0  0  0
  -21.4708  -29.3083   22.2236 N   0  0  0  0  0  0  0  0  0  0  0  0
  -22.2599  -12.6022   21.9494 N   0  0  0  0  0  0  0  0  0  0  0  0
  -22.0329  -19.0558   24.1313 N   0  0  0  0  0  0  0  0  0  0  0  0
  -26.8829  -20.7990   19.2211 N   0  0  0  0  0  0  0  0  0  0  0  0
  -24.0222  -20.5140   26.7741 N   0  3  0  0  0  0  0  0  0  0  0  0
  -20.3889  -27.3604   22.7659 O   0  0  0  0  0  0  0  0  0  0  0  0
  -22.5130  -14.6879   20.9453 O   0  0  0  0  0  0  0  0  0  0  0  0
  -20.8397  -16.4707   23.8118 O   0  0  0  0  0  0  0  0  0  0  0  0
  -24.2366  -19.7747   24.0678 O   0  0  0  0  0  0  0  0  0  0  0  0
  -25.6612  -22.4411   18.1886 O   0  0  0  0  0  0  0  0  0  0  0  0
  -25.4005  -32.9115   20.6081 O   0  0  0  0  0  0  0  0  0  0  0  0
  -29.0076  -15.5002   21.7616 O   0  0  0  0  0  0  0  0  0  1  0  0
  -24.0474  -36.6978   24.3813 F   0  0  0  0  0  0  0  0  0  0  0  0
  -29.6337  -19.9587   18.7111 F   0  0  0  0  0  0  0  0  0  0  0  0
  -27.3494  -34.3891   21.8970 F   0  0  0  0  0  0  0  0  0  0  0  0
  1  2  1  0  0  0  0
  1  5  2  0  0  0  0
  2  6  2  0  0  0  0
  3  8  2  0  0  0  0
  3 17  1  0  0  0  0
  4  9  1  0  0  0  0
  4 17  2  0  0  0  0
  5 19  1  0  0  0  0
  6 21  1  0  0  0  0
  7 10  2  0  0  0  0
  7 20  1  0  0  0  0
  8 26  1  0  0  0  0
  9 26  2  0  0  0  0
 10 27  1  0  0  0  0
 11 12  2  0  0  0  0
 11 28  1  0  0  0  0
 12 29  1  0  0  0  0
 13 22  1  0  0  0  0
 13 27  2  0  0  0  0
 14 23  1  0  0  0  0
 14 24  2  0  0  0  0
 15 25  1  0  0  0  0
 15 30  2  0  0  0  0
 16 29  2  0  0  0  0
 16 31  1  0  0  0  0
 17 32  1  0  0  0  0
 18 32  1  0  0  0  0
 18 33  2  0  0  0  0
 18 34  1  0  0  0  0
 19 21  2  0  0  0  0
 19 39  1  0  0  0  0
 20 22  2  0  0  0  0
 20 40  1  0  0  0  0
 21 51  1  0  0  0  0
 22 41  1  0  0  0  0
 23 25  2  0  0  0  0
 23 55  1  0  0  0  0
 24 30  1  0  0  0  0
 24 61  1  0  0  0  0
 25 68  1  0  0  0  0
 26 82  1  0  0  0  0
 27 83  1  0  0  0  0
 28 31  2  0  0  0  0
 28 82  1  0  0  0  0
 29 84  1  0  0  0  0
 30 85  1  0  0  0  0
 31 86  1  0  0  0  0
 32 66  2  0  0  0  0
 33 67  1  0  0  0  0
 33 71  1  0  0  0  0
 34 72  1  0  0  0  0
 34 77  2  0  0  0  0
 35 52  1  0  0  0  0
 35 73  1  0  0  0  0
 35 78  2  0  0  0  0
 36 63  1  0  0  0  0
 36 69  1  0  0  0  0
 36 79  2  0  0  0  0
 37 64  1  0  0  0  0
 37 74  1  0  0  0  0
 37 80  2  0  0  0  0
 38 70  1  0  0  0  0
 38 75  1  0  0  0  0
 38 81  2  0  0  0  0
 39 42  1  0  0  0  0
 40 52  1  0  0  0  0
 41 69  1  0  0  0  0
 42 45  1  0  0  0  0
 43 46  1  0  0  0  0
 43 49  1  0  0  0  0
 44 47  1  0  0  0  0
 44 48  1  0  0  0  0
 45 51  1  0  0  0  0
 46 53  1  0  0  0  0
 47 54  1  0  0  0  0
 48 68  1  0  0  0  0
 49 70  1  0  0  0  0
 50 53  1  0  0  0  0
 50 70  1  0  0  0  0
 51 73  1  0  0  0  0
 52 69  1  0  0  0  0
 53 67  1  0  0  0  0
 54 62  1  0  0  0  0
 54 68  1  0  0  0  0
 56 64  1  0  0  0  0
 57 65  1  0  0  0  0
 58 65  1  0  0  0  0
 59 65  1  0  0  0  0
 60 76  1  0  0  0  0
 61 75  1  0  0  0  0
 62 83  1  0  0  0  0
 63 65  1  0  0  0  0
 63 74  1  0  0  0  0
 64 76  1  0  0  0  0
 66 67  1  0  0  0  0
M  CHG  1  76   1
M  ISO  4  38 100  62 101  75 100  83 101
M  END
> <Batch ID>
0021

> <Smiles>
CNC(C)C(=O)NC(C(=O)N1Cc2cc([101O:1][101CH2:1]C3CCCN3c3cc(F)c(C[100NH:0][100C:0](=O)N4CCCC(n5nc(-c6ccc(Oc7ccc(F)cc7F)cc6)c(C(N)=O)c5N)C4)cc3C)ccc2CC1C(=O)NC1CCCc2ccccc21)C(C)(C)C

> <Shape>
0.194

> <Color>
0.092

> <Negative vol penalty>
0.000

$$$$

  -OEChem-04042321113D

 87 96  0     1  0  0  0  0  0999 V2000
  -31.0227  -17.6903   20.7168 C   0  0  0  0  0  0  0  0  0  0  0  0
  -27.0805  -30.9085   28.5797 C   0  0  0  0  0  0  0  0  0  0  0  0
  -28.0924  -29.9994   28.8711 C   0  0  0  0  0  0  0  0  0  0  0  0
  -23.0652   -9.8379   19.9215 C   0  0  0  0  0  0  0  0  0  0  0  0
  -23.8262   -9.8320   22.2145 C   0  0  0  0  0  0  0  0  0  0  0  0
  -26.7131  -31.1399   27.2548 C   0  0  0  0  0  0  0  0  0  0  0  0
  -28.7369  -29.3203   27.8377 C   0  0  0  0  0  0  0  0  0  0  0  0
  -33.9824  -17.6215   23.8829 C   0  0  0  0  0  0  0  0  0  0  0  0
  -34.6261  -27.6518   27.6391 C   0  0  0  0  0  0  0  0  0  0  0  0
  -34.5628  -18.6412   24.6362 C   0  0  0  0  0  0  0  0  0  0  0  0
  -22.3318   -8.6761   20.1619 C   0  0  0  0  0  0  0  0  0  0  0  0
  -23.0927   -8.6702   22.4549 C   0  0  0  0  0  0  0  0  0  0  0  0
  -35.2682  -26.4435   27.9065 C   0  0  0  0  0  0  0  0  0  0  0  0
  -19.8721   -7.8385   23.0521 C   0  0  0  0  0  0  0  0  0  0  0  0
  -19.1162   -7.7818   24.2229 C   0  0  0  0  0  0  0  0  0  0  0  0
  -32.4812  -19.8577   24.5819 C   0  0  0  0  0  0  0  0  0  0  0  0
  -35.2253  -25.9072   25.5550 C   0  0  0  0  0  0  0  0  0  0  0  0
  -20.3752   -5.8493   24.9422 C   0  0  0  0  0  0  0  0  0  0  0  0
  -23.8125  -10.4158   20.9478 C   0  0  0  0  0  0  0  0  0  0  0  0
  -24.1318  -12.9449   20.8493 C   0  0  0  0  0  0  0  0  0  0  0  0
  -27.3600  -30.4705   26.2041 C   0  0  0  0  0  0  0  0  0  0  0  0
  -32.6460  -17.7124   23.4630 C   0  0  0  0  0  0  0  0  0  0  0  0
  -34.2684  -27.9925   26.3267 C   0  0  0  0  0  0  0  0  0  0  0  0
  -28.3769  -29.5420   26.4975 C   0  0  0  0  0  0  0  0  0  0  0  0
  -31.8826  -18.8336   23.8315 C   0  0  0  0  0  0  0  0  0  0  0  0
  -34.5810  -27.1216   25.2733 C   0  0  0  0  0  0  0  0  0  0  0  0
  -33.8129  -19.7604   24.9838 C   0  0  0  0  0  0  0  0  0  0  0  0
  -22.3455   -8.0922   21.4286 C   0  0  0  0  0  0  0  0  0  0  0  0
  -35.5653  -25.5697   26.8648 C   0  0  0  0  0  0  0  0  0  0  0  0
  -20.8796   -6.9005   22.8262 C   0  0  0  0  0  0  0  0  0  0  0  0
  -19.3677   -6.7872   25.1680 C   0  0  0  0  0  0  0  0  0  0  0  0
  -21.1311   -5.9060   23.7713 C   0  0  0  0  0  0  0  0  0  0  0  0
  -24.5708  -11.6157   20.6999 C   0  0  0  0  0  0  0  0  0  0  0  0
  -25.2170  -13.7071   20.4919 C   0  0  0  0  0  0  0  0  0  0  0  0
  -22.8570  -13.4457   21.2732 C   0  0  0  0  0  0  0  0  0  0  0  0
  -31.5256  -28.5684   24.8270 C   0  0  0  0  0  0  0  0  0  0  0  0
  -33.4864  -29.3501   22.3640 C   0  0  0  0  0  0  0  0  0  0  0  0
  -36.5343  -29.0098   20.8667 C   0  0  0  0  0  0  0  0  0  0  0  0
  -30.6916  -14.7733   20.6865 C   0  0  0  0  0  0  0  0  0  0  0  0
  -26.8959  -30.7184   24.7906 C   0  0  0  0  0  0  0  0  0  0  0  0
  -33.6001  -29.3117   26.0516 C   0  0  0  0  0  0  0  0  0  0  0  0
  -32.0475  -16.5658   22.6795 C   0  0  0  0  0  0  0  0  0  0  0  0
  -30.4515  -18.9960   23.3898 C   0  0  0  0  0  0  0  0  0  0  0  0
  -34.2365  -27.4497   23.8442 C   0  0  0  0  0  0  0  0  0  0  0  0
  -27.8841  -30.2362   23.7317 C   0  0  0  0  0  0  0  0  0  0  0  0
  -29.8125  -17.6982   22.8854 C   0  0  0  0  0  0  0  0  0  0  0  0
  -29.5740  -12.3993   18.2799 C   0  0  0  0  0  0  0  0  0  0  0  0
  -28.3750  -28.8299   24.0606 C   0  0  0  0  0  0  0  0  0  0  0  0
  -28.1394  -12.0891   18.7109 C   0  0  0  0  0  0  0  0  0  0  0  0
  -30.4897  -12.6180   19.4822 C   0  0  0  0  0  0  0  0  0  0  0  0
  -28.5823  -13.3202   20.8759 C   0  0  0  0  0  0  0  0  0  0  0  0
  -29.1165  -28.8042   25.4026 C   0  0  1  0  0  0  0  0  0  0  0  0
  -32.8210  -29.3248   24.7401 C   0  0  1  0  0  0  0  0  0  0  0  0
  -27.6091  -13.1470   19.6973 C   0  0  2  0  0  0  0  0  0  0  0  0
  -30.7390  -16.9137   21.9417 C   0  0  1  0  0  0  0  0  0  0  0  0
  -37.8281  -29.7402   18.8444 C   0  0  0  0  0  0  0  0  0  0  0  0
  -31.9049  -27.3863   20.6458 C   0  0  0  0  0  0  0  0  0  0  0  0
  -33.7761  -27.4416   18.9834 C   0  0  0  0  0  0  0  0  0  0  0  0
  -32.5063  -29.5259   19.4992 C   0  0  0  0  0  0  0  0  0  0  0  0
  -38.5946  -30.3412   22.5224 C   0  0  0  0  0  0  0  0  0  0  0  0
  -36.0602  -21.9951   27.0266 C   0  0  0  0  0  0  0  0  0  0  0  0
  -35.7573  -20.7612   26.1852 C   0  0  0  0  0  0  0  0  0  0  0  0
  -35.9049  -23.2975   26.2502 C   0  0  0  0  0  0  0  0  0  1  0  0
  -34.1131  -28.5965   21.2158 C   0  0  1  0  0  0  0  0  0  0  0  0
  -37.4979  -30.0362   20.2991 C   0  0  2  0  0  0  0  0  0  0  0  0
  -33.0800  -28.2302   20.1131 C   0  0  0  0  0  0  0  0  0  0  0  0
  -31.2454  -18.3000   19.7552 N   0  0  0  0  0  0  0  0  0  0  0  0
  -25.8363  -11.5347   20.2802 N   0  0  0  0  0  0  0  0  0  0  0  0
  -26.2017  -12.8226   20.1628 N   0  0  0  0  0  0  0  0  0  0  0  0
  -33.5781  -28.7485   23.6271 N   0  0  0  0  0  0  0  0  0  0  0  0
  -29.9305  -13.6339   20.3772 N   0  0  0  0  0  0  0  0  0  0  0  0
  -25.4155  -15.0410   20.4302 N   0  0  0  0  0  0  0  0  0  0  0  0
  -21.8534  -12.5247   21.6031 N   0  0  0  0  0  0  0  0  0  0  0  0
  -34.3887  -20.7781   25.7282 N   0  0  0  0  0  0  0  0  0  0  0  0
  -30.4551  -29.3327   25.2506 N   0  0  0  0  0  0  0  0  0  0  0  0
  -35.2229  -29.4184   20.7454 N   0  0  0  0  0  0  0  0  0  0  0  0
  -30.0847  -15.6895   21.5367 N   0  0  0  0  0  0  0  0  0  0  0  0
  -38.7684  -30.0402   21.0780 N   0  3  0  0  0  0  0  0  0  0  0  0
  -22.6098  -14.6737   21.3412 O   0  0  0  0  0  0  0  0  0  0  0  0
  -31.4989  -27.3798   24.5302 O   0  0  0  0  0  0  0  0  0  0  0  0
  -32.9420  -30.4360   22.1493 O   0  0  0  0  0  0  0  0  0  0  0  0
  -36.9072  -27.9497   21.3643 O   0  0  0  0  0  0  0  0  0  0  0  0
  -31.8257  -14.9627   20.2339 O   0  0  0  0  0  0  0  0  0  0  0  0
  -21.6297   -6.9586   21.6636 O   0  0  0  0  0  0  0  0  0  0  0  0
  -36.1914  -24.3894   27.1231 O   0  0  0  0  0  0  0  0  0  1  0  0
  -18.6428   -6.7338   26.2931 F   0  0  0  0  0  0  0  0  0  0  0  0
  -22.0984   -5.0028   23.5604 F   0  0  0  0  0  0  0  0  0  0  0  0
  1 55  1  0  0  0  0
  1 67  3  0  0  0  0
  2  3  1  0  0  0  0
  2  6  2  0  0  0  0
  3  7  2  0  0  0  0
  4 11  2  0  0  0  0
  4 19  1  0  0  0  0
  5 12  1  0  0  0  0
  5 19  2  0  0  0  0
  6 21  1  0  0  0  0
  7 24  1  0  0  0  0
  8 10  2  0  0  0  0
  8 22  1  0  0  0  0
  9 13  2  0  0  0  0
  9 23  1  0  0  0  0
 10 27  1  0  0  0  0
 11 28  1  0  0  0  0
 12 28  2  0  0  0  0
 13 29  1  0  0  0  0
 14 15  2  0  0  0  0
 14 30  1  0  0  0  0
 15 31  1  0  0  0  0
 16 25  1  0  0  0  0
 16 27  2  0  0  0  0
 17 26  1  0  0  0  0
 17 29  2  0  0  0  0
 18 31  2  0  0  0  0
 18 32  1  0  0  0  0
 19 33  1  0  0  0  0
 20 33  1  0  0  0  0
 20 34  2  0  0  0  0
 20 35  1  0  0  0  0
 21 24  2  0  0  0  0
 21 40  1  0  0  0  0
 22 25  2  0  0  0  0
 22 42  1  0  0  0  0
 23 26  2  0  0  0  0
 23 41  1  0  0  0  0
 24 52  1  0  0  0  0
 25 43  1  0  0  0  0
 26 44  1  0  0  0  0
 27 74  1  0  0  0  0
 28 84  1  0  0  0  0
 29 85  1  0  0  0  0
 30 32  2  0  0  0  0
 30 84  1  0  0  0  0
 31 86  1  0  0  0  0
 32 87  1  0  0  0  0
 33 68  2  0  0  0  0
 34 69  1  0  0  0  0
 34 72  1  0  0  0  0
 35 73  1  0  0  0  0
 35 79  2  0  0  0  0
 36 53  1  0  0  0  0
 36 75  1  0  0  0  0
 36 80  2  0  0  0  0
 37 64  1  0  0  0  0
 37 70  1  0  0  0  0
 37 81  2  0  0  0  0
 38 65  1  0  0  0  0
 38 76  1  0  0  0  0
 38 82  2  0  0  0  0
 39 71  1  0  0  0  0
 39 77  1  0  0  0  0
 39 83  2  0  0  0  0
 40 45  1  0  0  0  0
 41 53  1  0  0  0  0
 42 55  1  0  0  0  0
 43 46  1  0  0  0  0
 44 70  1  0  0  0  0
 45 48  1  0  0  0  0
 46 55  1  0  0  0  0
 47 49  1  0  0  0  0
 47 50  1  0  0  0  0
 48 52  1  0  0  0  0
 49 54  1  0  0  0  0
 50 71  1  0  0  0  0
 51 54  1  0  0  0  0
 51 71  1  0  0  0  0
 52 75  1  0  0  0  0
 53 70  1  0  0  0  0
 54 69  1  0  0  0  0
 55 77  1  0  0  0  0
 56 65  1  0  0  0  0
 57 66  1  0  0  0  0
 58 66  1  0  0  0  0
 59 66  1  0  0  0  0
 60 78  1  0  0  0  0
 61 62  1  0  0  0  0
 61 63  1  0  0  0  0
 62 74  1  0  0  0  0
 63 85  1  0  0  0  0
 64 66  1  0  0  0  0
 64 76  1  0  0  0  0
 65 78  1  0  0  0  0
 68 69  1  0  0  0  0
M  CHG  1  78   1
M  ISO  4  39 100  63 101  77 100  85 101
M  END
> <Batch ID>
0021

> <Smiles>
CNC(C)C(=O)NC(C(=O)N1Cc2cc([101O:1][101CH2:1]CCNc3ccc4c(c3)CCC(C#N)([100NH:0][100C:0](=O)N3CCCC(n5nc(-c6ccc(Oc7ccc(F)cc7F)cc6)c(C(N)=O)c5N)C3)C4)ccc2CC1C(=O)NC1CCCc2ccccc21)C(C)(C)C

> <Shape>
0.207

> <Color>
0.194

> <Negative vol penalty>
0.000

$$$$

  -OEChem-04042321113D

 89 98  0     1  0  0  0  0  0999 V2000
  -37.8506  -25.9511   13.4137 C   0  0  0  0  0  0  0  0  0  0  0  0
  -37.8169  -24.9976   14.4262 C   0  0  0  0  0  0  0  0  0  0  0  0
  -23.0543   -9.8191   19.9992 C   0  0  0  0  0  0  0  0  0  0  0  0
  -23.7953   -9.9007   22.2974 C   0  0  0  0  0  0  0  0  0  0  0  0
  -37.2491  -27.1938   13.6077 C   0  0  0  0  0  0  0  0  0  0  0  0
  -37.1825  -25.2868   15.6338 C   0  0  0  0  0  0  0  0  0  0  0  0
  -34.2499  -21.4863   17.2466 C   0  0  0  0  0  0  0  0  0  0  0  0
  -22.3002   -8.6805   20.2828 C   0  0  0  0  0  0  0  0  0  0  0  0
  -23.0411   -8.7620   22.5809 C   0  0  0  0  0  0  0  0  0  0  0  0
  -34.8867  -20.4022   17.8491 C   0  0  0  0  0  0  0  0  0  0  0  0
  -19.3345   -7.9550   21.7357 C   0  0  0  0  0  0  0  0  0  0  0  0
  -18.0314   -7.9008   21.2413 C   0  0  0  0  0  0  0  0  0  0  0  0
  -34.3098  -21.2783   20.0214 C   0  0  0  0  0  0  0  0  0  0  0  0
  -32.0676  -16.5840   22.4469 C   0  0  0  0  0  0  0  0  0  0  0  0
  -30.4749  -18.3802   23.8681 C   0  0  0  0  0  0  0  0  0  0  0  0
  -18.5881   -5.9092   19.9921 C   0  0  0  0  0  0  0  0  0  0  0  0
  -23.8019  -10.4292   21.0065 C   0  0  0  0  0  0  0  0  0  0  0  0
  -24.1627  -12.9463   20.8018 C   0  0  0  0  0  0  0  0  0  0  0  0
  -36.5986  -27.4949   14.8147 C   0  0  0  0  0  0  0  0  0  0  0  0
  -33.6467  -22.4819   18.0286 C   0  0  0  0  0  0  0  0  0  0  0  0
  -36.5728  -26.5353   15.8447 C   0  0  0  0  0  0  0  0  0  0  0  0
  -33.6638  -22.3727   19.4264 C   0  0  0  0  0  0  0  0  0  0  0  0
  -32.6560  -17.4943   23.3248 C   0  0  0  0  0  0  0  0  0  0  0  0
  -31.8597  -18.3924   24.0354 C   0  0  0  0  0  0  0  0  0  0  0  0
  -30.6828  -16.5718   22.2795 C   0  0  0  0  0  0  0  0  0  0  0  0
  -22.2936   -8.1519   21.5736 C   0  0  0  0  0  0  0  0  0  0  0  0
  -34.9193  -20.2996   19.2367 C   0  0  0  0  0  0  0  0  0  0  0  0
  -20.2645   -6.9863   21.3583 C   0  0  0  0  0  0  0  0  0  0  0  0
  -17.6582   -6.8779   20.3695 C   0  0  0  0  0  0  0  0  0  0  0  0
  -29.8865  -17.4699   22.9901 C   0  0  0  0  0  0  0  0  0  0  0  0
  -19.8913   -5.9634   20.4865 C   0  0  0  0  0  0  0  0  0  0  0  0
  -24.5815  -11.6051   20.7141 C   0  0  0  0  0  0  0  0  0  0  0  0
  -25.2631  -13.6752   20.4220 C   0  0  0  0  0  0  0  0  0  0  0  0
  -22.8925  -13.4850   21.1918 C   0  0  0  0  0  0  0  0  0  0  0  0
  -34.0976  -25.6033   18.4249 C   0  0  0  0  0  0  0  0  0  0  0  0
  -31.4244  -25.3628   20.2466 C   0  0  0  0  0  0  0  0  0  0  0  0
  -35.2585  -17.3235   21.2478 C   0  0  0  0  0  0  0  0  0  0  0  0
  -29.3760  -23.3968   22.1401 C   0  0  0  0  0  0  0  0  0  0  0  0
  -30.7350  -14.6889   20.6067 C   0  0  0  0  0  0  0  0  0  0  0  0
  -36.0037  -28.8690   14.9956 C   0  0  0  0  0  0  0  0  0  0  0  0
  -32.9407  -23.6311   17.3629 C   0  0  0  0  0  0  0  0  0  0  0  0
  -33.0135  -23.4042   20.3104 C   0  0  0  0  0  0  0  0  0  0  0  0
  -35.0271  -28.9607   16.1653 C   0  0  0  0  0  0  0  0  0  0  0  0
  -33.3520  -21.3204   25.7996 C   0  0  0  0  0  0  0  0  0  0  0  0
  -33.3583  -20.2681   26.8899 C   0  0  0  0  0  0  0  0  0  0  0  0
  -29.6230  -12.2018   18.3143 C   0  0  0  0  0  0  0  0  0  0  0  0
  -35.6148  -28.2940   17.4050 C   0  0  0  0  0  0  0  0  0  0  0  0
  -28.1778  -11.9352   18.7415 C   0  0  0  0  0  0  0  0  0  0  0  0
  -32.3230  -20.7779   24.8142 C   0  0  0  0  0  0  0  0  0  0  0  0
  -33.2398  -18.9678   26.1032 C   0  0  0  0  0  0  0  0  0  0  0  0
  -30.5298  -12.4660   19.5150 C   0  0  0  0  0  0  0  0  0  0  0  0
  -28.6167  -13.2511   20.8541 C   0  0  0  0  0  0  0  0  0  0  0  0
  -35.8728  -26.8025   17.1595 C   0  0  1  0  0  0  0  0  0  0  0  0
  -32.8054  -24.8532   18.2660 C   0  0  1  0  0  0  0  0  0  0  0  0
  -27.6524  -13.0436   19.6747 C   0  0  2  0  0  0  0  0  0  0  0  0
  -27.2897  -23.4910   23.5314 C   0  0  0  0  0  0  0  0  0  0  0  0
  -32.9886  -26.7041   22.4970 C   0  0  0  0  0  0  0  0  0  0  0  0
  -31.2270  -25.9204   24.0943 C   0  0  0  0  0  0  0  0  0  0  0  0
  -30.6280  -27.4932   22.2530 C   0  0  0  0  0  0  0  0  0  0  0  0
  -34.9618  -15.3013   22.6882 C   0  0  0  0  0  0  0  0  0  0  0  0
  -27.9820  -21.4601   20.3894 C   0  0  0  0  0  0  0  0  0  0  0  0
  -34.1487  -17.4857   23.4855 C   0  0  0  0  0  0  0  0  0  0  0  0
  -35.0316  -18.8122   21.0890 C   0  0  0  0  0  0  0  0  0  1  0  0
  -31.1450  -25.0802   21.7029 C   0  0  1  0  0  0  0  0  0  0  0  0
  -27.8673  -23.2289   22.1492 C   0  0  2  0  0  0  0  0  0  0  0  0
  -31.5112  -26.2809   22.6205 C   0  0  0  0  0  0  0  0  0  0  0  0
  -25.8491  -11.4862   20.3102 N   0  0  0  0  0  0  0  0  0  0  0  0
  -26.2362  -12.7619   20.1406 N   0  0  0  0  0  0  0  0  0  0  0  0
  -32.4362  -19.3184   24.9256 N   0  0  0  0  0  0  0  0  0  0  0  0
  -32.3412  -24.5125   19.6123 N   0  0  0  0  0  0  0  0  0  0  0  0
  -29.9709  -13.5306   20.3513 N   0  0  0  0  0  0  0  0  0  0  0  0
  -25.4836  -15.0019   20.3046 N   0  0  0  0  0  0  0  0  0  0  0  0
  -21.8714  -12.5951   21.5518 N   0  0  0  0  0  0  0  0  0  0  0  0
  -30.0875  -15.6462   21.3870 N   0  0  0  0  0  0  0  0  0  0  0  0
  -34.6351  -26.0563   17.2352 N   0  0  0  0  0  0  0  0  0  0  0  0
  -29.7455  -24.6752   21.7790 N   0  0  0  0  0  0  0  0  0  0  0  0
  -34.8082  -16.7269   22.4259 N   0  0  0  0  0  0  0  0  0  0  0  0
  -27.4977  -21.8443   21.7402 N   0  3  0  0  0  0  0  0  0  0  0  0
  -22.6645  -14.7185   21.2043 O   0  0  0  0  0  0  0  0  0  0  0  0
  -34.5711  -25.7608   19.5441 O   0  0  0  0  0  0  0  0  0  0  0  0
  -30.8450  -26.2990   19.6902 O   0  0  0  0  0  0  0  0  0  0  0  0
  -35.8188  -16.7083   20.3354 O   0  0  0  0  0  0  0  0  0  0  0  0
  -30.1493  -22.4860   22.4285 O   0  0  0  0  0  0  0  0  0  0  0  0
  -31.8691  -14.8335   20.1432 O   0  0  0  0  0  0  0  0  0  0  0  0
  -21.5577   -7.0410   21.8507 O   0  0  0  0  0  0  0  0  0  0  0  0
  -35.5407  -19.2428   19.8274 O   0  0  0  0  0  0  0  0  0  1  0  0
  -16.4063   -6.8252   19.8960 F   0  0  0  0  0  0  0  0  0  0  0  0
  -28.5546  -17.4672   22.8371 F   0  0  0  0  0  0  0  0  0  0  0  0
  -20.7800   -5.0292   20.1213 F   0  0  0  0  0  0  0  0  0  0  0  0
  1  2  1  0  0  0  0
  1  5  2  0  0  0  0
  2  6  2  0  0  0  0
  3  8  2  0  0  0  0
  3 17  1  0  0  0  0
  4  9  1  0  0  0  0
  4 17  2  0  0  0  0
  5 19  1  0  0  0  0
  6 21  1  0  0  0  0
  7 10  2  0  0  0  0
  7 20  1  0  0  0  0
  8 26  1  0  0  0  0
  9 26  2  0  0  0  0
 10 27  1  0  0  0  0
 11 12  2  0  0  0  0
 11 28  1  0  0  0  0
 12 29  1  0  0  0  0
 13 22  1  0  0  0  0
 13 27  2  0  0  0  0
 14 23  1  0  0  0  0
 14 25  2  0  0  0  0
 15 24  1  0  0  0  0
 15 30  2  0  0  0  0
 16 29  2  0  0  0  0
 16 31  1  0  0  0  0
 17 32  1  0  0  0  0
 18 32  1  0  0  0  0
 18 33  2  0  0  0  0
 18 34  1  0  0  0  0
 19 21  2  0  0  0  0
 19 40  1  0  0  0  0
 20 22  2  0  0  0  0
 20 41  1  0  0  0  0
 21 53  1  0  0  0  0
 22 42  1  0  0  0  0
 23 24  2  0  0  0  0
 23 62  1  0  0  0  0
 24 69  1  0  0  0  0
 25 30  1  0  0  0  0
 25 74  1  0  0  0  0
 26 85  1  0  0  0  0
 27 86  1  0  0  0  0
 28 31  2  0  0  0  0
 28 85  1  0  0  0  0
 29 87  1  0  0  0  0
 30 88  1  0  0  0  0
 31 89  1  0  0  0  0
 32 67  2  0  0  0  0
 33 68  1  0  0  0  0
 33 72  1  0  0  0  0
 34 73  1  0  0  0  0
 34 79  2  0  0  0  0
 35 54  1  0  0  0  0
 35 75  1  0  0  0  0
 35 80  2  0  0  0  0
 36 64  1  0  0  0  0
 36 70  1  0  0  0  0
 36 81  2  0  0  0  0
 37 63  1  0  0  0  0
 37 77  1  0  0  0  0
 37 82  2  0  0  0  0
 38 65  1  0  0  0  0
 38 76  1  0  0  0  0
 38 83  2  0  0  0  0
 39 71  1  0  0  0  0
 39 74  1  0  0  0  0
 39 84  2  0  0  0  0
 40 43  1  0  0  0  0
 41 54  1  0  0  0  0
 42 70  1  0  0  0  0
 43 47  1  0  0  0  0
 44 45  1  0  0  0  0
 44 49  1  0  0  0  0
 45 50  1  0  0  0  0
 46 48  1  0  0  0  0
 46 51  1  0  0  0  0
 47 53  1  0  0  0  0
 48 55  1  0  0  0  0
 49 69  1  0  0  0  0
 50 69  1  0  0  0  0
 51 71  1  0  0  0  0
 52 55  1  0  0  0  0
 52 71  1  0  0  0  0
 53 75  1  0  0  0  0
 54 70  1  0  0  0  0
 55 68  1  0  0  0  0
 56 65  1  0  0  0  0
 57 66  1  0  0  0  0
 58 66  1  0  0  0  0
 59 66  1  0  0  0  0
 60 77  1  0  0  0  0
 61 78  1  0  0  0  0
 62 77  1  0  0  0  0
 63 86  1  0  0  0  0
 64 66  1  0  0  0  0
 64 76  1  0  0  0  0
 65 78  1  0  0  0  0
 67 68  1  0  0  0  0
M  CHG  1  78   1
M  ISO  4  39 100  63 101  74 100  86 101
M  END
> <Batch ID>
0021

> <Smiles>
CNC(C)C(=O)NC(C(=O)N1Cc2cc([101O:1][101CH2:1]C(=O)N(C)Cc3cc([100NH:0][100C:0](=O)N4CCCC(n5nc(-c6ccc(Oc7ccc(F)cc7F)cc6)c(C(N)=O)c5N)C4)c(F)cc3N3CCCC3)ccc2CC1C(=O)NC1CCCc2ccccc21)C(C)(C)C

> <Shape>
0.181

> <Color>
0.198

> <Negative vol penalty>
0.000

$$$$

  -OEChem-04042321113D

 84 93  0     1  0  0  0  0  0999 V2000
  -25.6880  -16.5661   24.7078 C   0  0  0  0  0  0  0  0  0  0  0  0
  -25.5458  -17.7774   25.3754 C   0  0  0  0  0  0  0  0  0  0  0  0
  -28.2506  -14.2603   21.7655 C   0  0  0  0  0  0  0  0  0  0  0  0
  -27.4837  -14.7942   19.5375 C   0  0  0  0  0  0  0  0  0  0  0  0
  -25.2689  -16.4508   23.3841 C   0  0  0  0  0  0  0  0  0  0  0  0
  -24.9736  -18.8702   24.7233 C   0  0  0  0  0  0  0  0  0  0  0  0
  -23.5609  -25.8816   25.2270 C   0  0  0  0  0  0  0  0  0  0  0  0
  -28.0709  -27.2083   21.1647 C   0  0  0  0  0  0  0  0  0  0  0  0
  -26.5398  -26.7888   19.3435 C   0  0  0  0  0  0  0  0  0  0  0  0
  -27.2844  -28.2834   21.5783 C   0  0  0  0  0  0  0  0  0  0  0  0
  -25.7532  -27.8639   19.7572 C   0  0  0  0  0  0  0  0  0  0  0  0
  -27.4339  -13.1296   21.7758 C   0  0  0  0  0  0  0  0  0  0  0  0
  -26.6669  -13.6635   19.5477 C   0  0  0  0  0  0  0  0  0  0  0  0
  -23.7656  -27.1279   24.6365 C   0  0  0  0  0  0  0  0  0  0  0  0
  -27.5055   -9.9935   20.5138 C   0  0  0  0  0  0  0  0  0  0  0  0
  -28.0552   -8.8010   20.9842 C   0  0  0  0  0  0  0  0  0  0  0  0
  -22.1005  -26.6054   22.9710 C   0  0  0  0  0  0  0  0  0  0  0  0
  -26.3743   -8.7097   22.7172 C   0  0  0  0  0  0  0  0  0  0  0  0
  -28.2755  -15.0926   20.6464 C   0  0  0  0  0  0  0  0  0  0  0  0
  -30.4532  -16.3422   20.1953 C   0  0  0  0  0  0  0  0  0  0  0  0
  -24.7028  -17.5469   22.7123 C   0  0  0  0  0  0  0  0  0  0  0  0
  -22.6307  -24.9821   24.6867 C   0  0  0  0  0  0  0  0  0  0  0  0
  -24.5225  -18.7670   23.3950 C   0  0  0  0  0  0  0  0  0  0  0  0
  -21.8840  -25.3494   23.5582 C   0  0  0  0  0  0  0  0  0  0  0  0
  -27.6987  -26.4611   20.0472 C   0  0  0  0  0  0  0  0  0  0  0  0
  -26.1255  -28.6112   20.8746 C   0  0  0  0  0  0  0  0  0  0  0  0
  -26.6421  -12.8312   20.6669 C   0  0  0  0  0  0  0  0  0  0  0  0
  -23.0375  -27.4888   23.5066 C   0  0  0  0  0  0  0  0  0  0  0  0
  -26.3902  -10.5442   21.1451 C   0  0  0  0  0  0  0  0  0  0  0  0
  -27.4896   -8.1591   22.0858 C   0  0  0  0  0  0  0  0  0  0  0  0
  -25.8246   -9.9023   22.2468 C   0  0  0  0  0  0  0  0  0  0  0  0
  -29.1185  -16.2611   20.6355 C   0  0  0  0  0  0  0  0  0  0  0  0
  -30.7997  -17.6569   20.3902 C   0  0  0  0  0  0  0  0  0  0  0  0
  -31.3038  -15.3206   19.6582 C   0  0  0  0  0  0  0  0  0  0  0  0
  -22.7978  -22.0665   23.4316 C   0  0  0  0  0  0  0  0  0  0  0  0
  -19.5634  -22.3127   23.4127 C   0  0  0  0  0  0  0  0  0  0  0  0
  -16.8115  -24.3309   23.3856 C   0  0  0  0  0  0  0  0  0  0  0  0
  -28.5215  -22.8573   19.9677 C   0  0  0  0  0  0  0  0  0  0  0  0
  -24.2593  -17.3643   21.2822 C   0  0  0  0  0  0  0  0  0  0  0  0
  -22.4025  -23.6522   25.3513 C   0  0  0  0  0  0  0  0  0  0  0  0
  -20.8588  -24.4279   22.9513 C   0  0  0  0  0  0  0  0  0  0  0  0
  -24.0779  -18.6859   20.5427 C   0  0  0  0  0  0  0  0  0  0  0  0
  -29.0709  -21.3365   23.2054 C   0  0  0  0  0  0  0  0  0  0  0  0
  -24.9313  -31.9568   21.6504 C   0  0  0  0  0  0  0  0  0  0  0  0
  -23.2300  -19.6355   21.3757 C   0  0  0  0  0  0  0  0  0  0  0  0
  -29.2708  -19.8691   22.8222 C   0  0  0  0  0  0  0  0  0  0  0  0
  -23.5953  -31.2371   21.5984 C   0  0  0  0  0  0  0  0  0  0  0  0
  -25.9168  -30.8372   21.9622 C   0  0  0  0  0  0  0  0  0  0  0  0
  -28.0083  -21.9962   22.3316 C   0  0  0  0  0  0  0  0  0  0  0  0
  -28.4675  -20.4334   20.4821 C   0  0  0  0  0  0  0  0  0  0  0  0
  -23.9309  -19.9779   22.6964 C   0  0  1  0  0  0  0  0  0  0  0  0
  -21.7992  -22.6112   24.4134 C   0  0  1  0  0  0  0  0  0  0  0  0
  -29.5458  -19.7161   21.3145 C   0  0  2  0  0  0  0  0  0  0  0  0
  -23.9298  -29.8824   20.9501 C   0  0  2  0  0  0  0  0  0  0  0  0
  -14.3041  -24.2424   23.3333 C   0  0  0  0  0  0  0  0  0  0  0  0
  -19.6524  -21.6118   20.4444 C   0  0  0  0  0  0  0  0  0  0  0  0
  -17.3042  -22.4571   20.2456 C   0  0  0  0  0  0  0  0  0  0  0  0
  -17.8062  -20.5097   21.7215 C   0  0  0  0  0  0  0  0  0  0  0  0
  -16.5923  -25.7256   25.9868 C   0  0  0  0  0  0  0  0  0  0  0  0
  -28.5393  -25.3117   19.6038 C   0  0  0  0  0  0  0  0  0  0  0  0
  -23.0238  -28.7954   21.5195 C   0  0  0  0  0  0  0  0  0  1  0  0
  -18.5358  -22.8238   22.4319 C   0  0  1  0  0  0  0  0  0  0  0  0
  -15.5407  -24.3125   24.2158 C   0  0  2  0  0  0  0  0  0  0  0  0
  -18.3453  -21.8674   21.2209 C   0  0  0  0  0  0  0  0  0  0  0  0
  -28.6491  -17.4310   21.0769 N   0  0  0  0  0  0  0  0  0  0  0  0
  -29.6946  -18.2598   20.9151 N   0  0  0  0  0  0  0  0  0  0  0  0
  -25.3457  -29.6741   21.2849 N   0  0  3  0  0  0  0  0  0  0  0  0
  -20.6764  -23.1361   23.6336 N   0  0  0  0  0  0  0  0  0  0  0  0
  -28.3390  -21.8307   20.9091 N   0  0  0  0  0  0  0  0  0  0  0  0
  -31.9388  -18.3446   20.1620 N   0  0  0  0  0  0  0  0  0  0  0  0
  -30.7887  -14.0239   19.5256 N   0  0  0  0  0  0  0  0  0  0  0  0
  -23.0122  -20.7060   23.5435 N   0  0  0  0  0  0  0  0  0  0  0  0
  -17.3199  -23.0624   23.2019 N   0  0  0  0  0  0  0  0  0  0  0  0
  -28.3756  -24.1517   20.4515 N   0  0  0  0  0  0  0  0  0  0  0  0
  -15.4513  -25.5420   25.0533 N   0  3  0  0  0  0  0  0  0  0  0  0
  -32.4907  -15.5471   19.3216 O   0  0  0  0  0  0  0  0  0  0  0  0
  -23.3329  -22.8242   22.6309 O   0  0  0  0  0  0  0  0  0  0  0  0
  -19.3815  -21.2262   23.9678 O   0  0  0  0  0  0  0  0  0  0  0  0
  -17.3019  -25.3665   22.9413 O   0  0  0  0  0  0  0  0  0  0  0  0
  -28.7994  -22.6368   18.7840 O   0  0  0  0  0  0  0  0  0  0  0  0
  -25.8452  -11.7278   20.6764 O   0  0  0  0  0  0  0  0  0  0  0  0
  -23.2358  -28.7043   22.9278 O   0  0  0  0  0  0  0  0  0  1  0  0
  -28.0167   -7.0131   22.5365 F   0  0  0  0  0  0  0  0  0  0  0  0
  -24.7524  -10.4259   22.8567 F   0  0  0  0  0  0  0  0  0  0  0  0
  1  2  1  0  0  0  0
  1  5  2  0  0  0  0
  2  6  2  0  0  0  0
  3 12  2  0  0  0  0
  3 19  1  0  0  0  0
  4 13  1  0  0  0  0
  4 19  2  0  0  0  0
  5 21  1  0  0  0  0
  6 23  1  0  0  0  0
  7 14  2  0  0  0  0
  7 22  1  0  0  0  0
  8 10  2  0  0  0  0
  8 25  1  0  0  0  0
  9 11  1  0  0  0  0
  9 25  2  0  0  0  0
 10 26  1  0  0  0  0
 11 26  2  0  0  0  0
 12 27  1  0  0  0  0
 13 27  2  0  0  0  0
 14 28  1  0  0  0  0
 15 16  2  0  0  0  0
 15 29  1  0  0  0  0
 16 30  1  0  0  0  0
 17 24  1  0  0  0  0
 17 28  2  0  0  0  0
 18 30  2  0  0  0  0
 18 31  1  0  0  0  0
 19 32  1  0  0  0  0
 20 32  1  0  0  0  0
 20 33  2  0  0  0  0
 20 34  1  0  0  0  0
 21 23  2  0  0  0  0
 21 39  1  0  0  0  0
 22 24  2  0  0  0  0
 22 40  1  0  0  0  0
 23 51  1  0  0  0  0
 24 41  1  0  0  0  0
 25 60  1  0  0  0  0
 26 67  1  0  0  0  0
 27 81  1  0  0  0  0
 28 82  1  0  0  0  0
 29 31  2  0  0  0  0
 29 81  1  0  0  0  0
 30 83  1  0  0  0  0
 31 84  1  0  0  0  0
 32 65  2  0  0  0  0
 33 66  1  0  0  0  0
 33 70  1  0  0  0  0
 34 71  1  0  0  0  0
 34 76  2  0  0  0  0
 35 52  1  0  0  0  0
 35 72  1  0  0  0  0
 35 77  2  0  0  0  0
 36 62  1  0  0  0  0
 36 68  1  0  0  0  0
 36 78  2  0  0  0  0
 37 63  1  0  0  0  0
 37 73  1  0  0  0  0
 37 79  2  0  0  0  0
 38 69  1  0  0  0  0
 38 74  1  0  0  0  0
 38 80  2  0  0  0  0
 39 42  1  0  0  0  0
 40 52  1  0  0  0  0
 41 68  1  0  0  0  0
 42 45  1  0  0  0  0
 43 46  1  0  0  0  0
 43 49  1  0  0  0  0
 44 47  1  0  0  0  0
 44 48  1  0  0  0  0
 45 51  1  0  0  0  0
 46 53  1  0  0  0  0
 47 54  1  0  0  0  0
 48 67  1  0  0  0  0
 49 69  1  0  0  0  0
 50 53  1  0  0  0  0
 50 69  1  0  0  0  0
 51 72  1  0  0  0  0
 52 68  1  0  0  0  0
 53 66  1  0  0  0  0
 54 61  1  0  0  0  0
 54 67  1  0  0  0  0
 55 63  1  0  0  0  0
 56 64  1  0  0  0  0
 57 64  1  0  0  0  0
 58 64  1  0  0  0  0
 59 75  1  0  0  0  0
 60 74  1  0  0  0  0
 61 82  1  0  0  0  0
 62 64  1  0  0  0  0
 62 73  1  0  0  0  0
 63 75  1  0  0  0  0
 65 66  1  0  0  0  0
M  CHG  1  75   1
M  ISO  4  38 100  61 101  74 100  82 101
M  END
> <Batch ID>
0021

> <Smiles>
CNC(C)C(=O)NC(C(=O)N1Cc2cc([101O:1][101CH2:1]C3CCCN3c3ccc(C[100NH:0][100C:0](=O)N4CCCC(n5nc(-c6ccc(Oc7ccc(F)cc7F)cc6)c(C(N)=O)c5N)C4)cc3)ccc2CC1C(=O)NC1CCCc2ccccc21)C(C)(C)C

> <Shape>
0.185

> <Color>
0.072

> <Negative vol penalty>
0.000

$$$$

  -OEChem-04042321113D

 85 94  0     1  0  0  0  0  0999 V2000
  -22.5371  -18.1506   24.5706 C   0  0  0  0  0  0  0  0  0  0  0  0
  -23.0841  -18.8390   23.4925 C   0  0  0  0  0  0  0  0  0  0  0  0
  -26.9771  -12.3013   21.7614 C   0  0  0  0  0  0  0  0  0  0  0  0
  -26.6650  -13.5342   19.7072 C   0  0  0  0  0  0  0  0  0  0  0  0
  -21.3580  -18.6045   25.1601 C   0  0  0  0  0  0  0  0  0  0  0  0
  -22.4517  -19.9812   23.0026 C   0  0  0  0  0  0  0  0  0  0  0  0
  -25.6973  -23.7612   22.0955 C   0  0  0  0  0  0  0  0  0  0  0  0
  -30.3550  -22.6706   19.6208 C   0  0  0  0  0  0  0  0  0  0  0  0
  -29.9279  -23.5752   18.6487 C   0  0  0  0  0  0  0  0  0  0  0  0
  -26.1241  -11.3027   21.2917 C   0  0  0  0  0  0  0  0  0  0  0  0
  -25.8120  -12.5355   19.2375 C   0  0  0  0  0  0  0  0  0  0  0  0
  -26.4515  -23.6857   20.9254 C   0  0  0  0  0  0  0  0  0  0  0  0
  -22.7940  -10.8153   20.9801 C   0  0  0  0  0  0  0  0  0  0  0  0
  -21.8284  -10.3230   21.8580 C   0  0  0  0  0  0  0  0  0  0  0  0
  -24.9340  -25.2255   19.8551 C   0  0  0  0  0  0  0  0  0  0  0  0
  -30.3398  -24.4358   21.2703 C   0  0  0  0  0  0  0  0  0  0  0  0
  -22.7766   -8.1097   21.6598 C   0  0  0  0  0  0  0  0  0  0  0  0
  -27.2475  -13.4172   20.9692 C   0  0  0  0  0  0  0  0  0  0  0  0
  -29.5239  -14.5240   21.2865 C   0  0  0  0  0  0  0  0  0  0  0  0
  -20.7160  -19.7583   24.6834 C   0  0  0  0  0  0  0  0  0  0  0  0
  -24.5476  -24.5622   22.1509 C   0  0  0  0  0  0  0  0  0  0  0  0
  -21.2621  -20.4501   23.5855 C   0  0  0  0  0  0  0  0  0  0  0  0
  -24.1683  -25.3113   21.0279 C   0  0  0  0  0  0  0  0  0  0  0  0
  -30.5609  -23.1009   20.9316 C   0  0  0  0  0  0  0  0  0  0  0  0
  -29.7068  -24.9101   18.9874 C   0  0  0  0  0  0  0  0  0  0  0  0
  -25.5416  -11.4197   20.0298 C   0  0  0  0  0  0  0  0  0  0  0  0
  -26.0683  -24.4157   19.8040 C   0  0  0  0  0  0  0  0  0  0  0  0
  -23.7509   -9.9548   20.4419 C   0  0  0  0  0  0  0  0  0  0  0  0
  -21.8197   -8.9702   22.1979 C   0  0  0  0  0  0  0  0  0  0  0  0
  -23.7422   -8.6020   20.7818 C   0  0  0  0  0  0  0  0  0  0  0  0
  -29.9128  -25.3405   20.2982 C   0  0  0  0  0  0  0  0  0  0  0  0
  -28.1281  -14.4494   21.4541 C   0  0  0  0  0  0  0  0  0  0  0  0
  -29.8851  -15.6841   21.9269 C   0  0  0  0  0  0  0  0  0  0  0  0
  -30.4143  -13.6250   20.6122 C   0  0  0  0  0  0  0  0  0  0  0  0
  -21.4539  -24.0155   22.6344 C   0  0  0  0  0  0  0  0  0  0  0  0
  -21.2759  -27.2543   22.6050 C   0  0  0  0  0  0  0  0  0  0  0  0
  -22.6353  -30.2216   21.6083 C   0  0  0  0  0  0  0  0  0  0  0  0
  -29.0458  -21.0852   23.0536 C   0  0  0  0  0  0  0  0  0  0  0  0
  -19.4179  -20.1835   25.3230 C   0  0  0  0  0  0  0  0  0  0  0  0
  -23.7599  -24.6535   23.4290 C   0  0  0  0  0  0  0  0  0  0  0  0
  -22.9539  -26.2020   21.0421 C   0  0  0  0  0  0  0  0  0  0  0  0
  -19.0118  -21.6152   24.9831 C   0  0  0  0  0  0  0  0  0  0  0  0
  -27.2392  -18.7110   24.9968 C   0  0  0  0  0  0  0  0  0  0  0  0
  -29.6388  -27.2340   16.1917 C   0  0  0  0  0  0  0  0  0  0  0  0
  -19.1607  -21.8714   23.4868 C   0  0  0  0  0  0  0  0  0  0  0  0
  -27.4194  -17.3989   24.2314 C   0  0  0  0  0  0  0  0  0  0  0  0
  -28.1834  -26.8016   16.1726 C   0  0  0  0  0  0  0  0  0  0  0  0
  -30.0629  -26.9624   17.6298 C   0  0  0  0  0  0  0  0  0  0  0  0
  -27.1108  -19.9030   24.0510 C   0  0  0  0  0  0  0  0  0  0  0  0
  -28.3818  -18.7209   22.3014 C   0  0  0  0  0  0  0  0  0  0  0  0
  -20.6189  -21.7072   23.0414 C   0  0  1  0  0  0  0  0  0  0  0  0
  -22.3178  -25.1011   23.2114 C   0  0  1  0  0  0  0  0  0  0  0  0
  -28.5718  -17.4971   23.2137 C   0  0  2  0  0  0  0  0  0  0  0  0
  -28.1517  -25.5685   17.0923 C   0  0  2  0  0  0  0  0  0  0  0  0
  -22.2431  -32.6985   21.7022 C   0  0  0  0  0  0  0  0  0  0  0  0
  -19.1181  -26.9913   20.4637 C   0  0  0  0  0  0  0  0  0  0  0  0
  -19.4493  -29.4152   19.9312 C   0  0  0  0  0  0  0  0  0  0  0  0
  -18.6602  -28.7344   22.1976 C   0  0  0  0  0  0  0  0  0  0  0  0
  -25.1643  -30.6837   23.0745 C   0  0  0  0  0  0  0  0  0  0  0  0
  -31.0174  -22.1333   21.9704 C   0  0  0  0  0  0  0  0  0  0  0  0
  -26.8143  -25.4982   17.8222 C   0  0  0  0  0  0  0  0  0  1  0  0
  -21.0633  -28.3036   21.5407 C   0  0  1  0  0  0  0  0  0  0  0  0
  -22.9149  -31.5067   22.3665 C   0  0  2  0  0  0  0  0  0  0  0  0
  -19.5946  -28.3429   21.0321 C   0  0  0  0  0  0  0  0  0  0  0  0
  -27.6361  -15.4800   22.1468 N   0  0  0  0  0  0  0  0  0  0  0  0
  -28.7288  -16.2131   22.4202 N   0  0  0  0  0  0  0  0  0  0  0  0
  -29.2850  -25.7821   18.0035 N   0  0  3  0  0  0  0  0  0  0  0  0
  -22.2129  -26.2529   22.3132 N   0  0  0  0  0  0  0  0  0  0  0  0
  -28.2354  -19.9394   23.1130 N   0  0  0  0  0  0  0  0  0  0  0  0
  -31.0758  -16.2931   22.1106 N   0  0  0  0  0  0  0  0  0  0  0  0
  -29.8768  -12.4804   20.0078 N   0  0  0  0  0  0  0  0  0  0  0  0
  -21.3939  -22.8728   23.4091 N   0  0  0  0  0  0  0  0  0  0  0  0
  -21.5327  -29.5625   22.1093 N   0  0  0  0  0  0  0  0  0  0  0  0
  -30.0935  -21.0344   22.1423 N   0  0  0  0  0  0  0  0  0  0  0  0
  -24.3813  -31.7657   22.4240 N   0  3  0  0  0  0  0  0  0  0  0  0
  -31.6521  -13.8222   20.5617 O   0  0  0  0  0  0  0  0  0  0  0  0
  -20.8828  -24.2013   21.5663 O   0  0  0  0  0  0  0  0  0  0  0  0
  -20.6394  -27.3246   23.6593 O   0  0  0  0  0  0  0  0  0  0  0  0
  -23.3239  -29.8424   20.6635 O   0  0  0  0  0  0  0  0  0  0  0  0
  -28.8533  -22.0777   23.7641 O   0  0  0  0  0  0  0  0  0  0  0  0
  -24.7094  -10.4453   19.5710 O   0  0  0  0  0  0  0  0  0  0  0  0
  -26.8024  -24.3434   18.6604 O   0  0  0  0  0  0  0  0  0  1  0  0
  -20.8933   -8.4979   23.0422 F   0  0  0  0  0  0  0  0  0  0  0  0
  -24.6597   -7.7707   20.2689 F   0  0  0  0  0  0  0  0  0  0  0  0
  -29.6508  -26.9845   20.7600 Cl  0  0  0  0  0  0  0  0  0  0  0  0
  1  2  1  0  0  0  0
  1  5  2  0  0  0  0
  2  6  2  0  0  0  0
  3 10  2  0  0  0  0
  3 18  1  0  0  0  0
  4 11  1  0  0  0  0
  4 18  2  0  0  0  0
  5 20  1  0  0  0  0
  6 22  1  0  0  0  0
  7 12  2  0  0  0  0
  7 21  1  0  0  0  0
  8  9  2  0  0  0  0
  8 24  1  0  0  0  0
  9 25  1  0  0  0  0
 10 26  1  0  0  0  0
 11 26  2  0  0  0  0
 12 27  1  0  0  0  0
 13 14  2  0  0  0  0
 13 28  1  0  0  0  0
 14 29  1  0  0  0  0
 15 23  1  0  0  0  0
 15 27  2  0  0  0  0
 16 24  2  0  0  0  0
 16 31  1  0  0  0  0
 17 29  2  0  0  0  0
 17 30  1  0  0  0  0
 18 32  1  0  0  0  0
 19 32  1  0  0  0  0
 19 33  2  0  0  0  0
 19 34  1  0  0  0  0
 20 22  2  0  0  0  0
 20 39  1  0  0  0  0
 21 23  2  0  0  0  0
 21 40  1  0  0  0  0
 22 51  1  0  0  0  0
 23 41  1  0  0  0  0
 24 60  1  0  0  0  0
 25 31  2  0  0  0  0
 25 67  1  0  0  0  0
 26 81  1  0  0  0  0
 27 82  1  0  0  0  0
 28 30  2  0  0  0  0
 28 81  1  0  0  0  0
 29 83  1  0  0  0  0
 30 84  1  0  0  0  0
 31 85  1  0  0  0  0
 32 65  2  0  0  0  0
 33 66  1  0  0  0  0
 33 70  1  0  0  0  0
 34 71  1  0  0  0  0
 34 76  2  0  0  0  0
 35 52  1  0  0  0  0
 35 72  1  0  0  0  0
 35 77  2  0  0  0  0
 36 62  1  0  0  0  0
 36 68  1  0  0  0  0
 36 78  2  0  0  0  0
 37 63  1  0  0  0  0
 37 73  1  0  0  0  0
 37 79  2  0  0  0  0
 38 69  1  0  0  0  0
 38 74  1  0  0  0  0
 38 80  2  0  0  0  0
 39 42  1  0  0  0  0
 40 52  1  0  0  0  0
 41 68  1  0  0  0  0
 42 45  1  0  0  0  0
 43 46  1  0  0  0  0
 43 49  1  0  0  0  0
 44 47  1  0  0  0  0
 44 48  1  0  0  0  0
 45 51  1  0  0  0  0
 46 53  1  0  0  0  0
 47 54  1  0  0  0  0
 48 67  1  0  0  0  0
 49 69  1  0  0  0  0
 50 53  1  0  0  0  0
 50 69  1  0  0  0  0
 51 72  1  0  0  0  0
 52 68  1  0  0  0  0
 53 66  1  0  0  0  0
 54 61  1  0  0  0  0
 54 67  1  0  0  0  0
 55 63  1  0  0  0  0
 56 64  1  0  0  0  0
 57 64  1  0  0  0  0
 58 64  1  0  0  0  0
 59 75  1  0  0  0  0
 60 74  1  0  0  0  0
 61 82  1  0  0  0  0
 62 64  1  0  0  0  0
 62 73  1  0  0  0  0
 63 75  1  0  0  0  0
 65 66  1  0  0  0  0
M  CHG  1  75   1
M  ISO  4  38 100  61 101  74 100  82 101
M  END
> <Batch ID>
0021

> <Smiles>
CNC(C)C(=O)NC(C(=O)N1Cc2cc([101O:1][101CH2:1]C3CCCN3c3ccc(C[100NH:0][100C:0](=O)N4CCCC(n5nc(-c6ccc(Oc7ccc(F)cc7F)cc6)c(C(N)=O)c5N)C4)cc3Cl)ccc2CC1C(=O)NC1CCCc2ccccc21)C(C)(C)C

> <Shape>
0.224

> <Color>
0.044

> <Negative vol penalty>
0.000

$$$$

  -OEChem-04042321113D

 84 92  0     1  0  0  0  0  0999 V2000
  -26.6107  -18.8399   17.8771 C   0  0  0  0  0  0  0  0  0  0  0  0
  -27.4203  -19.4833   18.8077 C   0  0  0  0  0  0  0  0  0  0  0  0
  -23.0615   -9.9038   19.9192 C   0  0  0  0  0  0  0  0  0  0  0  0
  -23.8434   -9.8552   22.2046 C   0  0  0  0  0  0  0  0  0  0  0  0
  -26.0995  -19.5491   16.7911 C   0  0  0  0  0  0  0  0  0  0  0  0
  -27.7200  -20.8362   18.6521 C   0  0  0  0  0  0  0  0  0  0  0  0
  -27.2980  -23.4298   22.9811 C   0  0  0  0  0  0  0  0  0  0  0  0
  -32.7030  -17.4060   23.5133 C   0  0  0  0  0  0  0  0  0  0  0  0
  -32.1031  -16.5460   22.5936 C   0  0  0  0  0  0  0  0  0  0  0  0
  -22.3150   -8.7484   20.1500 C   0  0  0  0  0  0  0  0  0  0  0  0
  -23.0968   -8.6998   22.4355 C   0  0  0  0  0  0  0  0  0  0  0  0
  -28.3412  -23.3117   23.8985 C   0  0  0  0  0  0  0  0  0  0  0  0
  -19.3773   -7.9313   21.6112 C   0  0  0  0  0  0  0  0  0  0  0  0
  -18.0656   -7.9017   21.1377 C   0  0  0  0  0  0  0  0  0  0  0  0
  -29.2309  -25.4253   23.1499 C   0  0  0  0  0  0  0  0  0  0  0  0
  -29.9284  -17.3891   23.2238 C   0  0  0  0  0  0  0  0  0  0  0  0
  -18.6040   -5.9870   19.7661 C   0  0  0  0  0  0  0  0  0  0  0  0
  -23.8258  -10.4572   20.9465 C   0  0  0  0  0  0  0  0  0  0  0  0
  -24.1776  -12.9829   20.8807 C   0  0  0  0  0  0  0  0  0  0  0  0
  -26.3852  -20.9137   16.6274 C   0  0  0  0  0  0  0  0  0  0  0  0
  -27.2193  -24.5433   22.1323 C   0  0  0  0  0  0  0  0  0  0  0  0
  -27.2132  -21.5641   17.5621 C   0  0  0  0  0  0  0  0  0  0  0  0
  -28.1842  -25.5564   22.2244 C   0  0  0  0  0  0  0  0  0  0  0  0
  -31.9157  -18.2576   24.2884 C   0  0  0  0  0  0  0  0  0  0  0  0
  -30.7158  -16.5376   22.4488 C   0  0  0  0  0  0  0  0  0  0  0  0
  -22.3326   -8.1464   21.4081 C   0  0  0  0  0  0  0  0  0  0  0  0
  -29.3094  -24.3080   23.9810 C   0  0  0  0  0  0  0  0  0  0  0  0
  -20.3024   -6.9888   21.1621 C   0  0  0  0  0  0  0  0  0  0  0  0
  -17.6789   -6.9295   20.2152 C   0  0  0  0  0  0  0  0  0  0  0  0
  -19.9157   -6.0166   20.2396 C   0  0  0  0  0  0  0  0  0  0  0  0
  -30.5284  -18.2491   24.1436 C   0  0  0  0  0  0  0  0  0  0  0  0
  -24.5976  -11.6504   20.7085 C   0  0  0  0  0  0  0  0  0  0  0  0
  -25.2696  -13.7359   20.5241 C   0  0  0  0  0  0  0  0  0  0  0  0
  -22.9135  -13.4944   21.3236 C   0  0  0  0  0  0  0  0  0  0  0  0
  -27.2970  -24.9736   18.9839 C   0  0  0  0  0  0  0  0  0  0  0  0
  -26.6160  -28.0439   19.7787 C   0  0  0  0  0  0  0  0  0  0  0  0
  -26.7206  -30.5209   22.1240 C   0  0  0  0  0  0  0  0  0  0  0  0
  -30.7418  -14.7542   20.6696 C   0  0  0  0  0  0  0  0  0  0  0  0
  -25.8483  -21.6270   15.4118 C   0  0  0  0  0  0  0  0  0  0  0  0
  -26.0729  -24.6687   21.1667 C   0  0  0  0  0  0  0  0  0  0  0  0
  -28.1338  -26.7815   21.3497 C   0  0  0  0  0  0  0  0  0  0  0  0
  -25.9070  -23.1484   15.5228 C   0  0  0  0  0  0  0  0  0  0  0  0
  -29.5940  -12.3998   18.2579 C   0  0  0  0  0  0  0  0  0  0  0  0
  -27.2719  -23.5938   16.0381 C   0  0  0  0  0  0  0  0  0  0  0  0
  -28.1573  -12.1046   18.6946 C   0  0  0  0  0  0  0  0  0  0  0  0
  -30.5216  -12.5972   19.4555 C   0  0  0  0  0  0  0  0  0  0  0  0
  -28.6312  -13.2980   20.8713 C   0  0  0  0  0  0  0  0  0  0  0  0
  -27.5406  -23.0366   17.4413 C   0  0  1  0  0  0  0  0  0  0  0  0
  -26.3773  -25.5973   19.9952 C   0  0  1  0  0  0  0  0  0  0  0  0
  -27.6464  -13.1558   19.6993 C   0  0  2  0  0  0  0  0  0  0  0  0
  -26.1223  -32.9334   22.4692 C   0  0  0  0  0  0  0  0  0  0  0  0
  -29.0339  -28.8790   18.1154 C   0  0  0  0  0  0  0  0  0  0  0  0
  -28.9535  -31.1111   19.2466 C   0  0  0  0  0  0  0  0  0  0  0  0
  -27.0290  -30.3508   17.8536 C   0  0  0  0  0  0  0  0  0  0  0  0
  -24.8583  -29.8638   24.3283 C   0  0  0  0  0  0  0  0  0  0  0  0
  -33.6666  -20.7950   23.7123 C   0  0  0  0  0  0  0  0  0  0  0  0
  -32.5998  -19.1673   25.2658 C   0  0  0  0  0  0  0  0  0  0  0  0
  -32.2368  -22.9176   25.5695 C   0  0  0  0  0  0  0  0  0  0  0  0
  -32.8192  -21.5582   25.9262 C   0  0  0  0  0  0  0  0  0  0  0  0
  -30.7571  -22.8750   25.2084 C   0  0  0  0  0  0  0  0  0  1  0  0
  -27.4337  -29.2707   20.1034 C   0  0  1  0  0  0  0  0  0  0  0  0
  -25.6603  -31.4915   22.6119 C   0  0  2  0  0  0  0  0  0  0  0  0
  -28.1148  -29.8790   18.8450 C   0  0  0  0  0  0  0  0  0  0  0  0
  -25.8580  -11.5588   20.2759 N   0  0  0  0  0  0  0  0  0  0  0  0
  -26.2393  -12.8434   20.1732 N   0  0  0  0  0  0  0  0  0  0  0  0
  -26.9969  -26.8552   20.4172 N   0  0  0  0  0  0  0  0  0  0  0  0
  -29.9756  -13.6101   20.3615 N   0  0  0  0  0  0  0  0  0  0  0  0
  -25.4852  -15.0678   20.4794 N   0  0  0  0  0  0  0  0  0  0  0  0
  -21.9009  -12.5821   21.6498 N   0  0  0  0  0  0  0  0  0  0  0  0
  -30.1064  -15.6630   21.5152 N   0  0  0  0  0  0  0  0  0  0  0  0
  -26.8167  -23.7998   18.4352 N   0  0  0  0  0  0  0  0  0  0  0  0
  -26.5364  -30.1869   20.7989 N   0  0  0  0  0  0  0  0  0  0  0  0
  -25.3470  -31.2382   24.0467 N   0  3  0  0  0  0  0  0  0  0  0  0
  -32.6430  -20.6047   24.8058 N   0  3  1  0  0  0  0  0  0  0  0  0
  -22.6833  -14.7244   21.4112 O   0  0  0  0  0  0  0  0  0  0  0  0
  -28.3627  -25.5178   18.7197 O   0  0  0  0  0  0  0  0  0  0  0  0
  -25.6697  -28.1384   18.9931 O   0  0  0  0  0  0  0  0  0  0  0  0
  -27.6242  -30.1037   22.8451 O   0  0  0  0  0  0  0  0  0  0  0  0
  -31.8671  -14.9288   20.1951 O   0  0  0  0  0  0  0  0  0  0  0  0
  -21.6040   -7.0191   21.6338 O   0  0  0  0  0  0  0  0  0  0  0  0
  -30.3291  -24.1949   24.8750 O   0  0  0  0  0  0  0  0  0  1  0  0
  -16.4189   -6.9002   19.7617 F   0  0  0  0  0  0  0  0  0  0  0  0
  -20.7996   -5.1078   19.8055 F   0  0  0  0  0  0  0  0  0  0  0  0
  -29.5222  -19.2882   25.0857 Cl  0  0  0  0  0  0  0  0  0  0  0  0
  1  2  1  0  0  0  0
  1  5  2  0  0  0  0
  2  6  2  0  0  0  0
  3 10  2  0  0  0  0
  3 18  1  0  0  0  0
  4 11  1  0  0  0  0
  4 18  2  0  0  0  0
  5 20  1  0  0  0  0
  6 22  1  0  0  0  0
  7 12  2  0  0  0  0
  7 21  1  0  0  0  0
  8  9  2  0  0  0  0
  8 24  1  0  0  0  0
  9 25  1  0  0  0  0
 10 26  1  0  0  0  0
 11 26  2  0  0  0  0
 12 27  1  0  0  0  0
 13 14  2  0  0  0  0
 13 28  1  0  0  0  0
 14 29  1  0  0  0  0
 15 23  1  0  0  0  0
 15 27  2  0  0  0  0
 16 25  2  0  0  0  0
 16 31  1  0  0  0  0
 17 29  2  0  0  0  0
 17 30  1  0  0  0  0
 18 32  1  0  0  0  0
 19 32  1  0  0  0  0
 19 33  2  0  0  0  0
 19 34  1  0  0  0  0
 20 22  2  0  0  0  0
 20 39  1  0  0  0  0
 21 23  2  0  0  0  0
 21 40  1  0  0  0  0
 22 48  1  0  0  0  0
 23 41  1  0  0  0  0
 24 31  2  0  0  0  0
 24 57  1  0  0  0  0
 25 70  1  0  0  0  0
 26 80  1  0  0  0  0
 27 81  1  0  0  0  0
 28 30  2  0  0  0  0
 28 80  1  0  0  0  0
 29 82  1  0  0  0  0
 30 83  1  0  0  0  0
 31 84  1  0  0  0  0
 32 64  2  0  0  0  0
 33 65  1  0  0  0  0
 33 68  1  0  0  0  0
 34 69  1  0  0  0  0
 34 75  2  0  0  0  0
 35 49  1  0  0  0  0
 35 71  1  0  0  0  0
 35 76  2  0  0  0  0
 36 61  1  0  0  0  0
 36 66  1  0  0  0  0
 36 77  2  0  0  0  0
 37 62  1  0  0  0  0
 37 72  1  0  0  0  0
 37 78  2  0  0  0  0
 38 67  1  0  0  0  0
 38 70  1  0  0  0  0
 38 79  2  0  0  0  0
 39 42  1  0  0  0  0
 40 49  1  0  0  0  0
 41 66  1  0  0  0  0
 42 44  1  0  0  0  0
 43 45  1  0  0  0  0
 43 46  1  0  0  0  0
 44 48  1  0  0  0  0
 45 50  1  0  0  0  0
 46 67  1  0  0  0  0
 47 50  1  0  0  0  0
 47 67  1  0  0  0  0
 48 71  1  0  0  0  0
 49 66  1  0  0  0  0
 50 65  1  0  0  0  0
 51 62  1  0  0  0  0
 52 63  1  0  0  0  0
 53 63  1  0  0  0  0
 54 63  1  0  0  0  0
 55 73  1  0  0  0  0
 56 74  1  0  0  0  0
 57 74  1  0  0  0  0
 58 59  1  0  0  0  0
 58 60  1  0  0  0  0
 59 74  1  0  0  0  0
 60 81  1  0  0  0  0
 61 63  1  0  0  0  0
 61 72  1  0  0  0  0
 62 73  1  0  0  0  0
 64 65  1  0  0  0  0
M  CHG  2  73   1  74   1
M  ISO  4  38 100  60 101  70 100  81 101
M  END
> <Batch ID>
0021

> <Smiles>
CNC(C)C(=O)NC(C(=O)N1Cc2cc([101O:1][101CH2:1]CCN(C)Cc3ccc([100NH:0][100C:0](=O)N4CCCC(n5nc(-c6ccc(Oc7ccc(F)cc7F)cc6)c(C(N)=O)c5N)C4)cc3Cl)ccc2CC1C(=O)NC1CCCc2ccccc21)C(C)(C)C

> <Shape>
0.237

> <Color>
0.192

> <Negative vol penalty>
0.000

$$$$

  -OEChem-04042321113D

 85 94  0     1  0  0  0  0  0999 V2000
  -27.4805  -34.1040   26.6727 C   0  0  0  0  0  0  0  0  0  0  0  0
  -27.8022  -33.5397   25.4425 C   0  0  0  0  0  0  0  0  0  0  0  0
  -28.0984  -12.3912   22.7268 C   0  0  0  0  0  0  0  0  0  0  0  0
  -26.8721  -13.0121   20.7399 C   0  0  0  0  0  0  0  0  0  0  0  0
  -26.9893  -33.2997   27.7002 C   0  0  0  0  0  0  0  0  0  0  0  0
  -27.6339  -32.1705   25.2393 C   0  0  0  0  0  0  0  0  0  0  0  0
  -25.9570  -29.3985   20.0422 C   0  0  0  0  0  0  0  0  0  0  0  0
  -27.5197  -11.1227   22.6876 C   0  0  0  0  0  0  0  0  0  0  0  0
  -26.2934  -11.7436   20.7007 C   0  0  0  0  0  0  0  0  0  0  0  0
  -26.6880  -28.7573   19.0431 C   0  0  0  0  0  0  0  0  0  0  0  0
  -24.2184   -8.7890   20.2827 C   0  0  0  0  0  0  0  0  0  0  0  0
  -22.8471   -8.7092   20.0405 C   0  0  0  0  0  0  0  0  0  0  0  0
  -26.2590  -26.6324   20.1014 C   0  0  0  0  0  0  0  0  0  0  0  0
  -28.9414  -23.9185   18.2743 C   0  0  0  0  0  0  0  0  0  0  0  0
  -30.2089  -24.5476   20.2327 C   0  0  0  0  0  0  0  0  0  0  0  0
  -22.4202  -10.0157   22.0275 C   0  0  0  0  0  0  0  0  0  0  0  0
  -27.7746  -13.3360   21.7530 C   0  0  0  0  0  0  0  0  0  0  0  0
  -29.5715  -15.0535   21.1796 C   0  0  0  0  0  0  0  0  0  0  0  0
  -26.8058  -31.9215   27.5064 C   0  0  0  0  0  0  0  0  0  0  0  0
  -25.3797  -28.6614   21.0862 C   0  0  0  0  0  0  0  0  0  0  0  0
  -27.1410  -31.3468   26.2656 C   0  0  0  0  0  0  0  0  0  0  0  0
  -25.5190  -27.2664   21.1111 C   0  0  0  0  0  0  0  0  0  0  0  0
  -28.4295  -22.8167   18.9595 C   0  0  0  0  0  0  0  0  0  0  0  0
  -29.6969  -23.4457   20.9179 C   0  0  0  0  0  0  0  0  0  0  0  0
  -29.8312  -24.7840   18.9109 C   0  0  0  0  0  0  0  0  0  0  0  0
  -28.8072  -22.5803   20.2813 C   0  0  0  0  0  0  0  0  0  0  0  0
  -26.6172  -10.7989   21.6746 C   0  0  0  0  0  0  0  0  0  0  0  0
  -26.8415  -27.3743   19.0741 C   0  0  0  0  0  0  0  0  0  0  0  0
  -24.6907   -9.4821   21.3973 C   0  0  0  0  0  0  0  0  0  0  0  0
  -21.9480   -9.3226   20.9129 C   0  0  0  0  0  0  0  0  0  0  0  0
  -23.7916  -10.0955   22.2696 C   0  0  0  0  0  0  0  0  0  0  0  0
  -28.3716  -14.6467   21.7933 C   0  0  0  0  0  0  0  0  0  0  0  0
  -29.6967  -16.3794   21.5157 C   0  0  0  0  0  0  0  0  0  0  0  0
  -30.4907  -14.3003   20.3775 C   0  0  0  0  0  0  0  0  0  0  0  0
  -25.7286  -28.5945   24.2449 C   0  0  0  0  0  0  0  0  0  0  0  0
  -23.2309  -26.5309   24.0864 C   0  0  0  0  0  0  0  0  0  0  0  0
  -21.4349  -24.2924   22.2396 C   0  0  0  0  0  0  0  0  0  0  0  0
  -27.5304  -21.4696   22.1475 C   0  0  0  0  0  0  0  0  0  0  0  0
  -26.3166  -31.0848   28.6620 C   0  0  0  0  0  0  0  0  0  0  0  0
  -24.5717  -29.3653   22.1417 C   0  0  0  0  0  0  0  0  0  0  0  0
  -24.9019  -26.4272   22.1990 C   0  0  0  0  0  0  0  0  0  0  0  0
  -25.8140  -29.7050   28.2451 C   0  0  0  0  0  0  0  0  0  0  0  0
  -27.1275  -19.1888   24.8516 C   0  0  0  0  0  0  0  0  0  0  0  0
  -31.7847  -27.6259   17.5602 C   0  0  0  0  0  0  0  0  0  0  0  0
  -26.7982  -29.0464   27.2836 C   0  0  0  0  0  0  0  0  0  0  0  0
  -27.5140  -17.8372   24.2465 C   0  0  0  0  0  0  0  0  0  0  0  0
  -30.8845  -27.2436   16.3959 C   0  0  0  0  0  0  0  0  0  0  0  0
  -31.6616  -26.4391   18.5104 C   0  0  0  0  0  0  0  0  0  0  0  0
  -26.3829  -20.0673   23.8480 C   0  0  0  0  0  0  0  0  0  0  0  0
  -27.4528  -18.9058   21.9571 C   0  0  0  0  0  0  0  0  0  0  0  0
  -26.9489  -29.8696   25.9987 C   0  0  1  0  0  0  0  0  0  0  0  0
  -24.4609  -28.5698   23.4387 C   0  0  1  0  0  0  0  0  0  0  0  0
  -28.2621  -18.0112   22.9103 C   0  0  2  0  0  0  0  0  0  0  0  0
  -29.7142  -26.5086   17.0643 C   0  0  2  0  0  0  0  0  0  0  0  0
  -27.4787  -21.9075   18.2503 C   0  0  0  0  0  0  0  0  0  0  0  0
  -30.1207  -23.2180   22.3329 C   0  0  0  0  0  0  0  0  0  0  0  0
  -19.4709  -22.7380   22.3935 C   0  0  0  0  0  0  0  0  0  0  0  0
  -24.9200  -24.5592   25.6891 C   0  0  0  0  0  0  0  0  0  0  0  0
  -23.3342  -22.7483   25.0005 C   0  0  0  0  0  0  0  0  0  0  0  0
  -22.5158  -24.6665   26.3691 C   0  0  0  0  0  0  0  0  0  0  0  0
  -19.9826  -25.7288   20.0981 C   0  0  0  0  0  0  0  0  0  0  0  0
  -28.6184  -27.4818   17.4971 C   0  0  0  0  0  0  0  0  0  1  0  0
  -23.0873  -25.0359   23.9342 C   0  0  1  0  0  0  0  0  0  0  0  0
  -19.9409  -24.1356   22.0212 C   0  0  2  0  0  0  0  0  0  0  0  0
  -23.4777  -24.2682   25.2286 C   0  0  0  0  0  0  0  0  0  0  0  0
  -27.7771  -15.6341   22.4682 N   0  0  0  0  0  0  0  0  0  0  0  0
  -28.6068  -16.6745   22.2807 N   0  0  0  0  0  0  0  0  0  0  0  0
  -30.3388  -25.8761   18.2327 N   0  0  3  0  0  0  0  0  0  0  0  0
  -24.1265  -27.1624   23.2118 N   0  0  0  0  0  0  0  0  0  0  0  0
  -27.1532  -20.1906   22.6085 N   0  0  0  0  0  0  0  0  0  0  0  0
  -30.6317  -17.3098   21.2285 N   0  0  0  0  0  0  0  0  0  0  0  0
  -30.2099  -12.9497   20.1297 N   0  0  0  0  0  0  0  0  0  0  0  0
  -28.2880  -21.4603   20.9767 N   0  0  0  0  0  0  0  0  0  0  0  0
  -25.8147  -29.6559   25.1256 N   0  0  0  0  0  0  0  0  0  0  0  0
  -21.7178  -24.8005   23.4899 N   0  0  0  0  0  0  0  0  0  0  0  0
  -19.5977  -24.3817   20.5920 N   0  3  0  0  0  0  0  0  0  0  0  0
  -31.5387  -14.8055   19.9085 O   0  0  0  0  0  0  0  0  0  0  0  0
  -26.5660  -27.7149   24.0812 O   0  0  0  0  0  0  0  0  0  0  0  0
  -22.5673  -27.1179   24.9447 O   0  0  0  0  0  0  0  0  0  0  0  0
  -22.2679  -23.9906   21.3879 O   0  0  0  0  0  0  0  0  0  0  0  0
  -27.2286  -22.4960   22.7619 O   0  0  0  0  0  0  0  0  0  0  0  0
  -26.0525   -9.5611   21.6359 O   0  0  0  0  0  0  0  0  0  0  0  0
  -27.5550  -26.7460   18.1005 O   0  0  0  0  0  0  0  0  0  1  0  0
  -20.6312   -9.2472   20.6794 F   0  0  0  0  0  0  0  0  0  0  0  0
  -24.2394  -10.7638   23.3414 F   0  0  0  0  0  0  0  0  0  0  0  0
  1  2  1  0  0  0  0
  1  5  2  0  0  0  0
  2  6  2  0  0  0  0
  3  8  2  0  0  0  0
  3 17  1  0  0  0  0
  4  9  1  0  0  0  0
  4 17  2  0  0  0  0
  5 19  1  0  0  0  0
  6 21  1  0  0  0  0
  7 10  2  0  0  0  0
  7 20  1  0  0  0  0
  8 27  1  0  0  0  0
  9 27  2  0  0  0  0
 10 28  1  0  0  0  0
 11 12  2  0  0  0  0
 11 29  1  0  0  0  0
 12 30  1  0  0  0  0
 13 22  1  0  0  0  0
 13 28  2  0  0  0  0
 14 23  2  0  0  0  0
 14 25  1  0  0  0  0
 15 24  1  0  0  0  0
 15 25  2  0  0  0  0
 16 30  2  0  0  0  0
 16 31  1  0  0  0  0
 17 32  1  0  0  0  0
 18 32  1  0  0  0  0
 18 33  2  0  0  0  0
 18 34  1  0  0  0  0
 19 21  2  0  0  0  0
 19 39  1  0  0  0  0
 20 22  2  0  0  0  0
 20 40  1  0  0  0  0
 21 51  1  0  0  0  0
 22 41  1  0  0  0  0
 23 26  1  0  0  0  0
 23 55  1  0  0  0  0
 24 26  2  0  0  0  0
 24 56  1  0  0  0  0
 25 68  1  0  0  0  0
 26 73  1  0  0  0  0
 27 82  1  0  0  0  0
 28 83  1  0  0  0  0
 29 31  2  0  0  0  0
 29 82  1  0  0  0  0
 30 84  1  0  0  0  0
 31 85  1  0  0  0  0
 32 66  2  0  0  0  0
 33 67  1  0  0  0  0
 33 71  1  0  0  0  0
 34 72  1  0  0  0  0
 34 77  2  0  0  0  0
 35 52  1  0  0  0  0
 35 74  1  0  0  0  0
 35 78  2  0  0  0  0
 36 63  1  0  0  0  0
 36 69  1  0  0  0  0
 36 79  2  0  0  0  0
 37 64  1  0  0  0  0
 37 75  1  0  0  0  0
 37 80  2  0  0  0  0
 38 70  1  0  0  0  0
 38 73  1  0  0  0  0
 38 81  2  0  0  0  0
 39 42  1  0  0  0  0
 40 52  1  0  0  0  0
 41 69  1  0  0  0  0
 42 45  1  0  0  0  0
 43 46  1  0  0  0  0
 43 49  1  0  0  0  0
 44 47  1  0  0  0  0
 44 48  1  0  0  0  0
 45 51  1  0  0  0  0
 46 53  1  0  0  0  0
 47 54  1  0  0  0  0
 48 68  1  0  0  0  0
 49 70  1  0  0  0  0
 50 53  1  0  0  0  0
 50 70  1  0  0  0  0
 51 74  1  0  0  0  0
 52 69  1  0  0  0  0
 53 67  1  0  0  0  0
 54 62  1  0  0  0  0
 54 68  1  0  0  0  0
 57 64  1  0  0  0  0
 58 65  1  0  0  0  0
 59 65  1  0  0  0  0
 60 65  1  0  0  0  0
 61 76  1  0  0  0  0
 62 83  1  0  0  0  0
 63 65  1  0  0  0  0
 63 75  1  0  0  0  0
 64 76  1  0  0  0  0
 66 67  1  0  0  0  0
M  CHG  1  76   1
M  ISO  4  38 100  62 101  73 100  83 101
M  END
> <Batch ID>
0021

> <Smiles>
CNC(C)C(=O)NC(C(=O)N1Cc2cc([101O:1][101CH2:1]C3CCCN3c3cc(C)c([100NH:0][100C:0](=O)N4CCCC(n5nc(-c6ccc(Oc7ccc(F)cc7F)cc6)c(C(N)=O)c5N)C4)c(C)c3)ccc2CC1C(=O)NC1CCCc2ccccc21)C(C)(C)C

> <Shape>
0.228

> <Color>
0.057

> <Negative vol penalty>
0.000

$$$$

  -OEChem-04042321113D

 87 96  0     1  0  0  0  0  0999 V2000
  -18.4793  -27.5988   26.1082 C   0  0  0  0  0  0  0  0  0  0  0  0
  -19.8317  -27.2803   26.1789 C   0  0  0  0  0  0  0  0  0  0  0  0
  -22.6197  -10.3606   20.2625 C   0  0  0  0  0  0  0  0  0  0  0  0
  -24.4684   -9.5977   21.6180 C   0  0  0  0  0  0  0  0  0  0  0  0
  -17.8529  -27.7038   24.8670 C   0  0  0  0  0  0  0  0  0  0  0  0
  -20.5583  -27.0654   25.0083 C   0  0  0  0  0  0  0  0  0  0  0  0
  -27.1257  -27.9200   22.2778 C   0  0  0  0  0  0  0  0  0  0  0  0
  -28.7820  -19.1520   20.9090 C   0  0  0  0  0  0  0  0  0  0  0  0
  -28.8892  -20.4472   20.4025 C   0  0  0  0  0  0  0  0  0  0  0  0
  -21.9587   -9.1525   20.4840 C   0  0  0  0  0  0  0  0  0  0  0  0
  -23.8073   -8.3895   21.8396 C   0  0  0  0  0  0  0  0  0  0  0  0
  -28.1233  -27.1969   21.6252 C   0  0  0  0  0  0  0  0  0  0  0  0
  -21.3097   -7.2428   23.8061 C   0  0  0  0  0  0  0  0  0  0  0  0
  -21.2903   -6.7459   25.1093 C   0  0  0  0  0  0  0  0  0  0  0  0
  -26.9547  -27.4831   19.5344 C   0  0  0  0  0  0  0  0  0  0  0  0
  -29.5981  -19.5553   18.2719 C   0  0  0  0  0  0  0  0  0  0  0  0
  -22.4288   -4.7492   24.3647 C   0  0  0  0  0  0  0  0  0  0  0  0
  -23.8746  -10.5832   20.8295 C   0  0  0  0  0  0  0  0  0  0  0  0
  -24.1089  -13.1210   20.9399 C   0  0  0  0  0  0  0  0  0  0  0  0
  -18.5745  -27.4996   23.6802 C   0  0  0  0  0  0  0  0  0  0  0  0
  -26.0277  -28.4215   21.5641 C   0  0  0  0  0  0  0  0  0  0  0  0
  -19.9407  -27.1664   23.7500 C   0  0  0  0  0  0  0  0  0  0  0  0
  -25.9458  -28.2144   20.1797 C   0  0  0  0  0  0  0  0  0  0  0  0
  -29.0828  -18.0584   20.0970 C   0  0  0  0  0  0  0  0  0  0  0  0
  -29.4909  -18.2601   18.7785 C   0  0  0  0  0  0  0  0  0  0  0  0
  -29.2973  -20.6489   19.0840 C   0  0  0  0  0  0  0  0  0  0  0  0
  -22.5524   -8.1670   21.2725 C   0  0  0  0  0  0  0  0  0  0  0  0
  -28.0364  -26.9759   20.2538 C   0  0  0  0  0  0  0  0  0  0  0  0
  -21.8885   -6.4930   22.7822 C   0  0  0  0  0  0  0  0  0  0  0  0
  -21.8499   -5.4991   25.3886 C   0  0  0  0  0  0  0  0  0  0  0  0
  -22.4481   -5.2462   23.0615 C   0  0  0  0  0  0  0  0  0  0  0  0
  -24.5582  -11.8308   20.6006 C   0  0  0  0  0  0  0  0  0  0  0  0
  -25.1124  -13.9569   20.5149 C   0  0  0  0  0  0  0  0  0  0  0  0
  -29.1363  -23.1735   19.2554 C   0  0  0  0  0  0  0  0  0  0  0  0
  -22.8931  -13.5276   21.5820 C   0  0  0  0  0  0  0  0  0  0  0  0
  -22.8854  -27.9516   21.6608 C   0  0  0  0  0  0  0  0  0  0  0  0
  -22.8522  -30.3513   19.4784 C   0  0  0  0  0  0  0  0  0  0  0  0
  -24.5241  -32.1053   17.0753 C   0  0  0  0  0  0  0  0  0  0  0  0
  -30.7217  -14.8776   20.4361 C   0  0  0  0  0  0  0  0  0  0  0  0
  -17.8432  -27.5775   22.3635 C   0  0  0  0  0  0  0  0  0  0  0  0
  -24.9735  -29.2223   22.2782 C   0  0  0  0  0  0  0  0  0  0  0  0
  -24.7978  -28.7491   19.3644 C   0  0  0  0  0  0  0  0  0  0  0  0
  -18.7712  -27.7029   21.1579 C   0  0  0  0  0  0  0  0  0  0  0  0
  -29.1485  -13.0742   17.6121 C   0  0  0  0  0  0  0  0  0  0  0  0
  -19.9123  -26.6954   21.2554 C   0  0  0  0  0  0  0  0  0  0  0  0
  -27.8074  -12.6391   18.2005 C   0  0  0  0  0  0  0  0  0  0  0  0
  -29.4601  -23.6698   16.9504 C   0  0  0  0  0  0  0  0  0  0  0  0
  -30.2225  -13.2090   18.6873 C   0  0  0  0  0  0  0  0  0  0  0  0
  -29.8787  -22.2382   17.2188 C   0  0  0  0  0  0  0  0  0  0  0  0
  -28.4995  -13.6718   20.3993 C   0  0  0  0  0  0  0  0  0  0  0  0
  -20.7685  -26.9505   22.5018 C   0  0  1  0  0  0  0  0  0  0  0  0
  -29.5238  -24.3138   18.3277 C   0  0  1  0  0  0  0  0  0  0  0  0
  -23.6388  -29.2460   21.5398 C   0  0  1  0  0  0  0  0  0  0  0  0
  -27.3836  -13.5716   19.3486 C   0  0  2  0  0  0  0  0  0  0  0  0
  -29.8161  -17.1045   17.8901 C   0  0  0  0  0  0  0  0  0  0  0  0
  -24.2230  -33.9851   15.4403 C   0  0  0  0  0  0  0  0  0  0  0  0
  -21.2311  -28.5102   17.6640 C   0  0  0  0  0  0  0  0  0  0  0  0
  -21.7745  -30.0316   15.7514 C   0  0  0  0  0  0  0  0  0  0  0  0
  -20.4617  -30.8896   17.6913 C   0  0  0  0  0  0  0  0  0  0  0  0
  -31.2066  -16.9733   21.6412 C   0  0  0  0  0  0  0  0  0  0  0  0
  -26.6686  -33.7044   18.3414 C   0  0  0  0  0  0  0  0  0  0  0  0
  -28.9613  -16.6812   20.6617 C   0  0  0  0  0  0  0  0  0  0  0  0
  -28.6180  -25.5233   18.4629 C   0  0  0  0  0  0  0  0  0  1  0  0
  -22.9315  -30.4283   17.9728 C   0  0  1  0  0  0  0  0  0  0  0  0
  -24.6759  -33.5972   16.8393 C   0  0  2  0  0  0  0  0  0  0  0  0
  -21.6204  -29.9531   17.2853 C   0  0  0  0  0  0  0  0  0  0  0  0
  -25.7540  -11.8411   20.0057 N   0  0  0  0  0  0  0  0  0  0  0  0
  -26.0646  -13.1480   19.9678 N   0  0  0  0  0  0  0  0  0  0  0  0
  -29.4052  -21.9738   18.5647 N   0  0  0  0  0  0  0  0  0  0  0  0
  -23.7890  -29.5205   20.1093 N   0  0  0  0  0  0  0  0  0  0  0  0
  -29.7772  -14.0656   19.7868 N   0  0  0  0  0  0  0  0  0  0  0  0
  -25.2645  -15.2975   20.5595 N   0  0  0  0  0  0  0  0  0  0  0  0
  -22.8742  -13.6187   22.9805 N   0  0  0  0  0  0  0  0  0  0  0  0
  -21.6576  -28.0713   22.2833 N   0  0  0  0  0  0  0  0  0  0  0  0
  -23.3101  -31.8006   17.6537 N   0  0  0  0  0  0  0  0  0  0  0  0
  -30.2628  -16.0918   20.9688 N   0  0  0  0  0  0  0  0  0  0  0  0
  -26.1000  -34.0052   17.0023 N   0  3  0  0  0  0  0  0  0  0  0  0
  -28.7344  -23.3463   20.3969 O   0  0  0  0  0  0  0  0  0  0  0  0
  -21.8495  -13.7862   20.9358 O   0  0  0  0  0  0  0  0  0  0  0  0
  -23.3808  -26.9208   21.2206 O   0  0  0  0  0  0  0  0  0  0  0  0
  -21.9954  -31.0097   20.0733 O   0  0  0  0  0  0  0  0  0  0  0  0
  -25.3939  -31.2912   16.7731 O   0  0  0  0  0  0  0  0  0  0  0  0
  -31.9094  -14.5410   20.5256 O   0  0  0  0  0  0  0  0  0  0  0  0
  -21.9076   -6.9881   21.4891 O   0  0  0  0  0  0  0  0  0  0  0  0
  -29.0085  -26.2700   19.6146 O   0  0  0  0  0  0  0  0  0  1  0  0
  -21.8327   -5.0227   26.6404 F   0  0  0  0  0  0  0  0  0  0  0  0
  -23.0066   -4.5217   22.0823 F   0  0  0  0  0  0  0  0  0  0  0  0
  1  2  1  0  0  0  0
  1  5  2  0  0  0  0
  2  6  2  0  0  0  0
  3 10  2  0  0  0  0
  3 18  1  0  0  0  0
  4 11  1  0  0  0  0
  4 18  2  0  0  0  0
  5 20  1  0  0  0  0
  6 22  1  0  0  0  0
  7 12  2  0  0  0  0
  7 21  1  0  0  0  0
  8  9  2  0  0  0  0
  8 24  1  0  0  0  0
  9 26  1  0  0  0  0
 10 27  1  0  0  0  0
 11 27  2  0  0  0  0
 12 28  1  0  0  0  0
 13 14  2  0  0  0  0
 13 29  1  0  0  0  0
 14 30  1  0  0  0  0
 15 23  1  0  0  0  0
 15 28  2  0  0  0  0
 16 25  1  0  0  0  0
 16 26  2  0  0  0  0
 17 30  2  0  0  0  0
 17 31  1  0  0  0  0
 18 32  1  0  0  0  0
 19 32  1  0  0  0  0
 19 33  2  0  0  0  0
 19 35  1  0  0  0  0
 20 22  2  0  0  0  0
 20 40  1  0  0  0  0
 21 23  2  0  0  0  0
 21 41  1  0  0  0  0
 22 51  1  0  0  0  0
 23 42  1  0  0  0  0
 24 25  2  0  0  0  0
 24 62  1  0  0  0  0
 25 55  1  0  0  0  0
 26 69  1  0  0  0  0
 27 84  1  0  0  0  0
 28 85  1  0  0  0  0
 29 31  2  0  0  0  0
 29 84  1  0  0  0  0
 30 86  1  0  0  0  0
 31 87  1  0  0  0  0
 32 67  2  0  0  0  0
 33 68  1  0  0  0  0
 33 72  1  0  0  0  0
 34 52  1  0  0  0  0
 34 69  1  0  0  0  0
 34 78  2  0  0  0  0
 35 73  1  0  0  0  0
 35 79  2  0  0  0  0
 36 53  1  0  0  0  0
 36 74  1  0  0  0  0
 36 80  2  0  0  0  0
 37 64  1  0  0  0  0
 37 70  1  0  0  0  0
 37 81  2  0  0  0  0
 38 65  1  0  0  0  0
 38 75  1  0  0  0  0
 38 82  2  0  0  0  0
 39 71  1  0  0  0  0
 39 76  1  0  0  0  0
 39 83  2  0  0  0  0
 40 43  1  0  0  0  0
 41 53  1  0  0  0  0
 42 70  1  0  0  0  0
 43 45  1  0  0  0  0
 44 46  1  0  0  0  0
 44 48  1  0  0  0  0
 45 51  1  0  0  0  0
 46 54  1  0  0  0  0
 47 49  1  0  0  0  0
 47 52  1  0  0  0  0
 48 71  1  0  0  0  0
 49 69  1  0  0  0  0
 50 54  1  0  0  0  0
 50 71  1  0  0  0  0
 51 74  1  0  0  0  0
 52 63  1  0  0  0  0
 53 70  1  0  0  0  0
 54 68  1  0  0  0  0
 56 65  1  0  0  0  0
 57 66  1  0  0  0  0
 58 66  1  0  0  0  0
 59 66  1  0  0  0  0
 60 76  1  0  0  0  0
 61 77  1  0  0  0  0
 62 76  1  0  0  0  0
 63 85  1  0  0  0  0
 64 66  1  0  0  0  0
 64 75  1  0  0  0  0
 65 77  1  0  0  0  0
 67 68  1  0  0  0  0
M  CHG  1  77   1
M  ISO  4  39 100  63 101  76 100  85 101
M  END
> <Batch ID>
0021

> <Smiles>
CNC(C)C(=O)NC(C(=O)N1Cc2cc([101O:1][101CH2:1]C3CCN(c4ccc(C[100N:0](C)[100C:0](=O)N5CCCC(n6nc(-c7ccc(Oc8ccc(F)cc8F)cc7)c(C(N)=O)c6N)C5)c(C)c4)C3=O)ccc2CC1C(=O)NC1CCCc2ccccc21)C(C)(C)C

> <Shape>
0.391

> <Color>
0.210

> <Negative vol penalty>
0.000

$$$$

  -OEChem-04042321113D

 88 97  0     1  0  0  0  0  0999 V2000
  -17.4832  -26.3855   22.7659 C   0  0  0  0  0  0  0  0  0  0  0  0
  -18.7008  -25.9329   23.2640 C   0  0  0  0  0  0  0  0  0  0  0  0
  -24.4398  -12.3123   21.5526 C   0  0  0  0  0  0  0  0  0  0  0  0
  -26.1096  -12.0056   19.8337 C   0  0  0  0  0  0  0  0  0  0  0  0
  -17.4432  -27.5077   21.9395 C   0  0  0  0  0  0  0  0  0  0  0  0
  -19.8793  -26.6017   22.9350 C   0  0  0  0  0  0  0  0  0  0  0  0
  -24.7968  -27.3673   26.5040 C   0  0  0  0  0  0  0  0  0  0  0  0
  -28.3823  -22.0409   20.3727 C   0  0  0  0  0  0  0  0  0  0  0  0
  -28.8642  -20.9502   19.6490 C   0  0  0  0  0  0  0  0  0  0  0  0
  -24.4480  -10.9406   21.8054 C   0  0  0  0  0  0  0  0  0  0  0  0
  -26.1178  -10.6339   20.0865 C   0  0  0  0  0  0  0  0  0  0  0  0
  -26.0142  -26.6922   26.5810 C   0  0  0  0  0  0  0  0  0  0  0  0
  -23.1516   -8.1447   20.4174 C   0  0  0  0  0  0  0  0  0  0  0  0
  -21.9202   -7.5058   20.5621 C   0  0  0  0  0  0  0  0  0  0  0  0
  -27.0194  -28.3542   25.1503 C   0  0  0  0  0  0  0  0  0  0  0  0
  -31.1309  -21.6157   20.1553 C   0  0  0  0  0  0  0  0  0  0  0  0
  -22.5328   -6.8322   22.8000 C   0  0  0  0  0  0  0  0  0  0  0  0
  -25.2705  -12.8448   20.5667 C   0  0  0  0  0  0  0  0  0  0  0  0
  -24.1671  -15.0428   19.8894 C   0  0  0  0  0  0  0  0  0  0  0  0
  -18.6208  -28.1964   21.6081 C   0  0  0  0  0  0  0  0  0  0  0  0
  -24.6786  -28.5369   25.7395 C   0  0  0  0  0  0  0  0  0  0  0  0
  -19.8552  -27.7334   22.1024 C   0  0  0  0  0  0  0  0  0  0  0  0
  -25.8000  -29.0437   25.0674 C   0  0  0  0  0  0  0  0  0  0  0  0
  -29.2747  -22.9191   20.9877 C   0  0  0  0  0  0  0  0  0  0  0  0
  -30.2384  -20.7375   19.5403 C   0  0  0  0  0  0  0  0  0  0  0  0
  -25.2870  -10.1014   21.0724 C   0  0  0  0  0  0  0  0  0  0  0  0
  -27.1250  -27.1840   25.9017 C   0  0  0  0  0  0  0  0  0  0  0  0
  -24.0737   -8.1274   21.4639 C   0  0  0  0  0  0  0  0  0  0  0  0
  -21.6108   -6.8495   21.7534 C   0  0  0  0  0  0  0  0  0  0  0  0
  -23.7642   -7.4711   22.6552 C   0  0  0  0  0  0  0  0  0  0  0  0
  -30.6490  -22.7064   20.8790 C   0  0  0  0  0  0  0  0  0  0  0  0
  -25.2621  -14.2617   20.3047 C   0  0  0  0  0  0  0  0  0  0  0  0
  -24.6738  -16.3149   19.7821 C   0  0  0  0  0  0  0  0  0  0  0  0
  -29.4938  -24.7828   23.9925 C   0  0  0  0  0  0  0  0  0  0  0  0
  -22.8129  -14.6535   19.6243 C   0  0  0  0  0  0  0  0  0  0  0  0
  -22.9670  -29.3948   23.2022 C   0  0  0  0  0  0  0  0  0  0  0  0
  -24.2621  -32.3081   23.7999 C   0  0  0  0  0  0  0  0  0  0  0  0
  -26.7965  -34.1220   25.1904 C   0  0  0  0  0  0  0  0  0  0  0  0
  -29.9964  -18.4115   18.6903 C   0  0  0  0  0  0  0  0  0  0  0  0
  -18.5329  -29.3765   20.6730 C   0  0  0  0  0  0  0  0  0  0  0  0
  -23.3651  -29.2680   25.6884 C   0  0  0  0  0  0  0  0  0  0  0  0
  -25.7307  -30.3065   24.2496 C   0  0  0  0  0  0  0  0  0  0  0  0
  -19.7845  -30.2504   20.6760 C   0  0  0  0  0  0  0  0  0  0  0  0
  -28.4454  -22.2111   25.0641 C   0  0  0  0  0  0  0  0  0  0  0  0
  -28.0592  -19.1690   21.5742 C   0  0  0  0  0  0  0  0  0  0  0  0
  -21.0386  -29.3871   20.5823 C   0  0  0  0  0  0  0  0  0  0  0  0
  -29.5942  -22.9780   25.7016 C   0  0  0  0  0  0  0  0  0  0  0  0
  -27.0136  -18.0549   21.5385 C   0  0  0  0  0  0  0  0  0  0  0  0
  -27.9537  -22.8206   23.7540 C   0  0  0  0  0  0  0  0  0  0  0  0
  -29.4441  -18.6677   21.1634 C   0  0  0  0  0  0  0  0  0  0  0  0
  -28.4222  -16.8580   19.8197 C   0  0  0  0  0  0  0  0  0  0  0  0
  -21.1524  -28.4467   21.7882 C   0  0  1  0  0  0  0  0  0  0  0  0
  -29.4806  -24.4829   25.4829 C   0  0  2  0  0  0  0  0  0  0  0  0
  -23.2292  -30.1676   24.4638 C   0  0  1  0  0  0  0  0  0  0  0  0
  -27.0084  -17.3459   20.1727 C   0  0  1  0  0  0  0  0  0  0  0  0
  -27.5994  -36.4814   25.4840 C   0  0  0  0  0  0  0  0  0  0  0  0
  -25.2040  -32.3461   20.8979 C   0  0  0  0  0  0  0  0  0  0  0  0
  -26.7651  -34.2079   21.5019 C   0  0  0  0  0  0  0  0  0  0  0  0
  -24.3013  -34.5248   21.7303 C   0  0  0  0  0  0  0  0  0  0  0  0
  -31.9099  -19.8031   17.9306 C   0  0  0  0  0  0  0  0  0  0  0  0
  -26.6344  -33.9333   28.1395 C   0  0  0  0  0  0  0  0  0  0  0  0
  -28.7156  -24.0805   21.7575 C   0  0  0  0  0  0  0  0  0  0  0  0
  -28.2645  -25.1119   26.1542 C   0  0  0  0  0  0  0  0  0  1  0  0
  -25.5158  -33.0298   23.3680 C   0  0  1  0  0  0  0  0  0  0  0  0
  -26.7843  -35.3476   26.0862 C   0  0  2  0  0  0  0  0  0  0  0  0
  -25.4477  -33.5022   21.8883 C   0  0  0  0  0  0  0  0  0  0  0  0
  -26.3802  -14.9775   20.4511 N   0  0  0  0  0  0  0  0  0  0  0  0
  -25.9904  -16.2219   20.1260 N   0  0  0  0  0  0  0  0  0  0  0  0
  -28.8003  -23.8722   23.1956 N   0  0  0  0  0  0  0  0  0  0  0  0
  -24.4227  -30.9819   24.2254 N   0  0  0  0  0  0  0  0  0  0  0  0
  -29.3821  -17.9632   19.8749 N   0  0  0  0  0  0  0  0  0  0  0  0
  -24.1173  -17.4927   19.4280 N   0  0  0  0  0  0  0  0  0  0  0  0
  -22.4743  -14.2561   18.3236 N   0  0  0  0  0  0  0  0  0  0  0  0
  -21.6275  -29.1686   22.9491 N   0  0  0  0  0  0  0  0  0  0  0  0
  -25.7187  -34.1072   24.3305 N   0  0  0  0  0  0  0  0  0  0  0  0
  -30.7371  -19.6089   18.7901 N   0  0  0  0  0  0  0  0  0  0  0  0
  -27.3541  -35.0176   27.4232 N   0  3  0  0  0  0  0  0  0  0  0  0
  -30.0754  -25.7839   23.5704 O   0  0  0  0  0  0  0  0  0  0  0  0
  -21.9255  -14.6734   20.5107 O   0  0  0  0  0  0  0  0  0  0  0  0
  -23.9100  -29.0319   22.5089 O   0  0  0  0  0  0  0  0  0  0  0  0
  -23.1812  -32.9017   23.7679 O   0  0  0  0  0  0  0  0  0  0  0  0
  -27.6763  -33.2656   25.2453 O   0  0  0  0  0  0  0  0  0  0  0  0
  -29.9118  -17.7776   17.6316 O   0  0  0  0  0  0  0  0  0  0  0  0
  -25.2955   -8.7628   21.3190 O   0  0  0  0  0  0  0  0  0  0  0  0
  -28.3143  -26.5267   25.9746 O   0  0  0  0  0  0  0  0  0  1  0  0
  -20.4276   -6.2373   21.8929 F   0  0  0  0  0  0  0  0  0  0  0  0
  -24.6455   -7.4521   23.6646 F   0  0  0  0  0  0  0  0  0  0  0  0
  -31.7831  -23.7721   21.6259 Cl  0  0  0  0  0  0  0  0  0  0  0  0
  1  2  1  0  0  0  0
  1  5  2  0  0  0  0
  2  6  2  0  0  0  0
  3 10  2  0  0  0  0
  3 18  1  0  0  0  0
  4 11  1  0  0  0  0
  4 18  2  0  0  0  0
  5 20  1  0  0  0  0
  6 22  1  0  0  0  0
  7 12  2  0  0  0  0
  7 21  1  0  0  0  0
  8  9  2  0  0  0  0
  8 24  1  0  0  0  0
  9 25  1  0  0  0  0
 10 26  1  0  0  0  0
 11 26  2  0  0  0  0
 12 27  1  0  0  0  0
 13 14  2  0  0  0  0
 13 28  1  0  0  0  0
 14 29  1  0  0  0  0
 15 23  1  0  0  0  0
 15 27  2  0  0  0  0
 16 25  2  0  0  0  0
 16 31  1  0  0  0  0
 17 29  2  0  0  0  0
 17 30  1  0  0  0  0
 18 32  1  0  0  0  0
 19 32  1  0  0  0  0
 19 33  2  0  0  0  0
 19 35  1  0  0  0  0
 20 22  2  0  0  0  0
 20 40  1  0  0  0  0
 21 23  2  0  0  0  0
 21 41  1  0  0  0  0
 22 52  1  0  0  0  0
 23 42  1  0  0  0  0
 24 31  2  0  0  0  0
 24 62  1  0  0  0  0
 25 76  1  0  0  0  0
 26 84  1  0  0  0  0
 27 85  1  0  0  0  0
 28 30  2  0  0  0  0
 28 84  1  0  0  0  0
 29 86  1  0  0  0  0
 30 87  1  0  0  0  0
 31 88  1  0  0  0  0
 32 67  2  0  0  0  0
 33 68  1  0  0  0  0
 33 72  1  0  0  0  0
 34 53  1  0  0  0  0
 34 69  1  0  0  0  0
 34 78  2  0  0  0  0
 35 73  1  0  0  0  0
 35 79  2  0  0  0  0
 36 54  1  0  0  0  0
 36 74  1  0  0  0  0
 36 80  2  0  0  0  0
 37 64  1  0  0  0  0
 37 70  1  0  0  0  0
 37 81  2  0  0  0  0
 38 65  1  0  0  0  0
 38 75  1  0  0  0  0
 38 82  2  0  0  0  0
 39 71  1  0  0  0  0
 39 76  1  0  0  0  0
 39 83  2  0  0  0  0
 40 43  1  0  0  0  0
 41 54  1  0  0  0  0
 42 70  1  0  0  0  0
 43 46  1  0  0  0  0
 44 47  1  0  0  0  0
 44 49  1  0  0  0  0
 45 48  1  0  0  0  0
 45 50  1  0  0  0  0
 46 52  1  0  0  0  0
 47 53  1  0  0  0  0
 48 55  1  0  0  0  0
 49 69  1  0  0  0  0
 50 71  1  0  0  0  0
 51 55  1  0  0  0  0
 51 71  1  0  0  0  0
 52 74  1  0  0  0  0
 53 63  1  0  0  0  0
 54 70  1  0  0  0  0
 55 68  1  0  0  0  0
 56 65  1  0  0  0  0
 57 66  1  0  0  0  0
 58 66  1  0  0  0  0
 59 66  1  0  0  0  0
 60 76  1  0  0  0  0
 61 77  1  0  0  0  0
 62 69  1  0  0  0  0
 63 85  1  0  0  0  0
 64 66  1  0  0  0  0
 64 75  1  0  0  0  0
 65 77  1  0  0  0  0
 67 68  1  0  0  0  0
M  CHG  1  77   1
M  ISO  4  39 100  63 101  76 100  85 101
M  END
> <Batch ID>
0021

> <Smiles>
CNC(C)C(=O)NC(C(=O)N1Cc2cc([101O:1][101CH2:1]C3CCCN(Cc4ccc([100N:0](C)[100C:0](=O)N5CCCC(n6nc(-c7ccc(Oc8ccc(F)cc8F)cc7)c(C(N)=O)c6N)C5)cc4Cl)C3=O)ccc2CC1C(=O)NC1CCCc2ccccc21)C(C)(C)C

> <Shape>
0.274

> <Color>
0.087

> <Negative vol penalty>
0.000

$$$$

  -OEChem-04042321113D

 85 94  0     1  0  0  0  0  0999 V2000
  -21.5172  -28.5192   25.3142 C   0  0  0  0  0  0  0  0  0  0  0  0
  -22.4205  -27.6828   24.6661 C   0  0  0  0  0  0  0  0  0  0  0  0
  -24.7249  -13.9495   19.7047 C   0  0  0  0  0  0  0  0  0  0  0  0
  -26.0042  -14.3611   21.7125 C   0  0  0  0  0  0  0  0  0  0  0  0
  -20.2013  -28.6062   24.8618 C   0  0  0  0  0  0  0  0  0  0  0  0
  -22.0080  -26.9321   23.5658 C   0  0  0  0  0  0  0  0  0  0  0  0
  -25.1653  -29.4650   20.4185 C   0  0  0  0  0  0  0  0  0  0  0  0
  -29.9987  -25.3701   21.6351 C   0  0  0  0  0  0  0  0  0  0  0  0
  -29.6457  -24.2951   20.8194 C   0  0  0  0  0  0  0  0  0  0  0  0
  -24.7396  -12.5813   19.9758 C   0  0  0  0  0  0  0  0  0  0  0  0
  -26.0188  -12.9929   21.9837 C   0  0  0  0  0  0  0  0  0  0  0  0
  -26.4833  -29.3884   20.8666 C   0  0  0  0  0  0  0  0  0  0  0  0
  -23.1011  -10.4255   22.0009 C   0  0  0  0  0  0  0  0  0  0  0  0
  -21.9042   -9.7236   21.8583 C   0  0  0  0  0  0  0  0  0  0  0  0
  -26.6737  -27.1819   19.9105 C   0  0  0  0  0  0  0  0  0  0  0  0
  -22.9312   -8.3118   20.1882 C   0  0  0  0  0  0  0  0  0  0  0  0
  -25.3573  -14.8394   20.5730 C   0  0  0  0  0  0  0  0  0  0  0  0
  -24.3826  -17.1927   20.7126 C   0  0  0  0  0  0  0  0  0  0  0  0
  -19.7750  -27.8635   23.7495 C   0  0  0  0  0  0  0  0  0  0  0  0
  -24.5871  -28.3944   19.7214 C   0  0  0  0  0  0  0  0  0  0  0  0
  -20.6847  -27.0083   23.0989 C   0  0  0  0  0  0  0  0  0  0  0  0
  -25.3490  -27.2484   19.4524 C   0  0  0  0  0  0  0  0  0  0  0  0
  -29.1597  -25.7578   22.6799 C   0  0  0  0  0  0  0  0  0  0  0  0
  -28.4537  -23.6078   21.0484 C   0  0  0  0  0  0  0  0  0  0  0  0
  -25.3865  -12.1030   21.1153 C   0  0  0  0  0  0  0  0  0  0  0  0
  -27.2368  -28.2455   20.6151 C   0  0  0  0  0  0  0  0  0  0  0  0
  -24.2130  -10.0707   21.2370 C   0  0  0  0  0  0  0  0  0  0  0  0
  -21.8193   -8.6667   20.9520 C   0  0  0  0  0  0  0  0  0  0  0  0
  -24.1281   -9.0138   20.3307 C   0  0  0  0  0  0  0  0  0  0  0  0
  -27.9677  -25.0704   22.9090 C   0  0  0  0  0  0  0  0  0  0  0  0
  -27.6147  -23.9954   22.0932 C   0  0  0  0  0  0  0  0  0  0  0  0
  -25.3430  -16.2527   20.2932 C   0  0  0  0  0  0  0  0  0  0  0  0
  -24.8192  -18.3858   20.1908 C   0  0  0  0  0  0  0  0  0  0  0  0
  -23.2015  -17.0042   21.5033 C   0  0  0  0  0  0  0  0  0  0  0  0
  -22.1293  -26.4464   20.2391 C   0  0  0  0  0  0  0  0  0  0  0  0
  -22.8253  -25.4065   17.2464 C   0  0  0  0  0  0  0  0  0  0  0  0
  -25.1129  -24.4758   14.6161 C   0  0  0  0  0  0  0  0  0  0  0  0
  -28.8833  -22.0394   19.1244 C   0  0  0  0  0  0  0  0  0  0  0  0
  -18.3303  -27.9547   23.3262 C   0  0  0  0  0  0  0  0  0  0  0  0
  -23.1727  -28.5035   19.2214 C   0  0  0  0  0  0  0  0  0  0  0  0
  -24.7815  -26.0797   18.6905 C   0  0  0  0  0  0  0  0  0  0  0  0
  -18.0710  -27.4107   21.9236 C   0  0  0  0  0  0  0  0  0  0  0  0
  -28.4554  -19.3683   16.8094 C   0  0  0  0  0  0  0  0  0  0  0  0
  -30.7324  -27.8131   25.2340 C   0  0  0  0  0  0  0  0  0  0  0  0
  -18.7613  -26.0632   21.7376 C   0  0  0  0  0  0  0  0  0  0  0  0
  -27.5285  -18.3970   17.5438 C   0  0  0  0  0  0  0  0  0  0  0  0
  -30.3403  -28.9094   24.2594 C   0  0  0  0  0  0  0  0  0  0  0  0
  -29.7548  -26.6912   24.9062 C   0  0  0  0  0  0  0  0  0  0  0  0
  -29.4441  -20.0385   17.7617 C   0  0  0  0  0  0  0  0  0  0  0  0
  -27.9101  -19.7203   19.6629 C   0  0  0  0  0  0  0  0  0  0  0  0
  -20.2816  -26.1970   21.8867 C   0  0  1  0  0  0  0  0  0  0  0  0
  -22.5219  -27.1470   18.9692 C   0  0  1  0  0  0  0  0  0  0  0  0
  -26.8535  -19.0693   18.7554 C   0  0  2  0  0  0  0  0  0  0  0  0
  -29.9633  -28.1471   22.9771 C   0  0  2  0  0  0  0  0  0  0  0  0
  -24.6752  -23.7536   12.2530 C   0  0  0  0  0  0  0  0  0  0  0  0
  -22.9525  -22.5816   18.3926 C   0  0  0  0  0  0  0  0  0  0  0  0
  -24.1426  -21.8650   16.3098 C   0  0  0  0  0  0  0  0  0  0  0  0
  -21.8167  -22.7559   16.1714 C   0  0  0  0  0  0  0  0  0  0  0  0
  -26.8599  -26.5989   13.5210 C   0  0  0  0  0  0  0  0  0  0  0  0
  -28.8497  -28.8854   22.2415 C   0  0  0  0  0  0  0  0  0  1  0  0
  -23.7235  -24.3404   16.6669 C   0  0  1  0  0  0  0  0  0  0  0  0
  -25.0531  -24.9118   13.1633 C   0  0  2  0  0  0  0  0  0  0  0  0
  -23.1692  -22.9068   16.9012 C   0  0  0  0  0  0  0  0  0  0  0  0
  -26.3162  -16.8015   19.5612 N   0  0  0  0  0  0  0  0  0  0  0  0
  -25.9695  -18.0991   19.5166 N   0  0  0  0  0  0  0  0  0  0  0  0
  -29.5423  -26.8265   23.4659 N   0  0  3  0  0  0  0  0  0  0  0  0
  -23.3920  -26.2317   18.2280 N   0  0  0  0  0  0  0  0  0  0  0  0
  -28.7328  -20.6576   18.8822 N   0  0  0  0  0  0  0  0  0  0  0  0
  -24.3274  -19.6418   20.2475 N   0  0  0  0  0  0  0  0  0  0  0  0
  -22.9012  -15.7130   21.9584 N   0  0  0  0  0  0  0  0  0  0  0  0
  -28.1333  -22.5220   20.1964 N   0  0  0  0  0  0  0  0  0  0  0  0
  -20.8597  -26.7599   20.6853 N   0  0  0  0  0  0  0  0  0  0  0  0
  -23.9129  -24.6856   15.2621 N   0  0  0  0  0  0  0  0  0  0  0  0
  -26.3761  -25.4407   12.7263 N   0  3  0  0  0  0  0  0  0  0  0  0
  -22.4263  -17.9497   21.7836 O   0  0  0  0  0  0  0  0  0  0  0  0
  -22.9193  -25.6771   20.7738 O   0  0  0  0  0  0  0  0  0  0  0  0
  -21.6658  -25.5080   16.8378 O   0  0  0  0  0  0  0  0  0  0  0  0
  -26.1219  -23.9937   15.1259 O   0  0  0  0  0  0  0  0  0  0  0  0
  -29.6020  -22.7481   18.4150 O   0  0  0  0  0  0  0  0  0  0  0  0
  -25.4008  -10.7680   21.3803 O   0  0  0  0  0  0  0  0  0  0  0  0
  -28.5232  -28.1679   21.0520 O   0  0  0  0  0  0  0  0  0  1  0  0
  -20.6703   -7.9917   20.8163 F   0  0  0  0  0  0  0  0  0  0  0  0
  -25.1933   -8.6675   19.5950 F   0  0  0  0  0  0  0  0  0  0  0  0
  -26.9416  -25.5742   24.2183 Cl  0  0  0  0  0  0  0  0  0  0  0  0
  -26.1340  -23.1232   22.3547 Cl  0  0  0  0  0  0  0  0  0  0  0  0
  1  2  1  0  0  0  0
  1  5  2  0  0  0  0
  2  6  2  0  0  0  0
  3 10  2  0  0  0  0
  3 17  1  0  0  0  0
  4 11  1  0  0  0  0
  4 17  2  0  0  0  0
  5 19  1  0  0  0  0
  6 21  1  0  0  0  0
  7 12  2  0  0  0  0
  7 20  1  0  0  0  0
  8  9  2  0  0  0  0
  8 23  1  0  0  0  0
  9 24  1  0  0  0  0
 10 25  1  0  0  0  0
 11 25  2  0  0  0  0
 12 26  1  0  0  0  0
 13 14  2  0  0  0  0
 13 27  1  0  0  0  0
 14 28  1  0  0  0  0
 15 22  1  0  0  0  0
 15 26  2  0  0  0  0
 16 28  2  0  0  0  0
 16 29  1  0  0  0  0
 17 32  1  0  0  0  0
 18 32  1  0  0  0  0
 18 33  2  0  0  0  0
 18 34  1  0  0  0  0
 19 21  2  0  0  0  0
 19 39  1  0  0  0  0
 20 22  2  0  0  0  0
 20 40  1  0  0  0  0
 21 51  1  0  0  0  0
 22 41  1  0  0  0  0
 23 30  2  0  0  0  0
 23 66  1  0  0  0  0
 24 31  2  0  0  0  0
 24 71  1  0  0  0  0
 25 80  1  0  0  0  0
 26 81  1  0  0  0  0
 27 29  2  0  0  0  0
 27 80  1  0  0  0  0
 28 82  1  0  0  0  0
 29 83  1  0  0  0  0
 30 31  1  0  0  0  0
 30 84  1  0  0  0  0
 31 85  1  0  0  0  0
 32 64  2  0  0  0  0
 33 65  1  0  0  0  0
 33 69  1  0  0  0  0
 34 70  1  0  0  0  0
 34 75  2  0  0  0  0
 35 52  1  0  0  0  0
 35 72  1  0  0  0  0
 35 76  2  0  0  0  0
 36 61  1  0  0  0  0
 36 67  1  0  0  0  0
 36 77  2  0  0  0  0
 37 62  1  0  0  0  0
 37 73  1  0  0  0  0
 37 78  2  0  0  0  0
 38 68  1  0  0  0  0
 38 71  1  0  0  0  0
 38 79  2  0  0  0  0
 39 42  1  0  0  0  0
 40 52  1  0  0  0  0
 41 67  1  0  0  0  0
 42 45  1  0  0  0  0
 43 46  1  0  0  0  0
 43 49  1  0  0  0  0
 44 47  1  0  0  0  0
 44 48  1  0  0  0  0
 45 51  1  0  0  0  0
 46 53  1  0  0  0  0
 47 54  1  0  0  0  0
 48 66  1  0  0  0  0
 49 68  1  0  0  0  0
 50 53  1  0  0  0  0
 50 68  1  0  0  0  0
 51 72  1  0  0  0  0
 52 67  1  0  0  0  0
 53 65  1  0  0  0  0
 54 60  1  0  0  0  0
 54 66  1  0  0  0  0
 55 62  1  0  0  0  0
 56 63  1  0  0  0  0
 57 63  1  0  0  0  0
 58 63  1  0  0  0  0
 59 74  1  0  0  0  0
 60 81  1  0  0  0  0
 61 63  1  0  0  0  0
 61 73  1  0  0  0  0
 62 74  1  0  0  0  0
 64 65  1  0  0  0  0
M  CHG  1  74   1
M  ISO  4  38 100  60 101  71 100  81 101
M  END
> <Batch ID>
0021

> <Smiles>
CNC(C)C(=O)NC(C(=O)N1Cc2cc([101O:1][101CH2:1]C3CCCN3c3ccc([100NH:0][100C:0](=O)N4CCCC(n5nc(-c6ccc(Oc7ccc(F)cc7F)cc6)c(C(N)=O)c5N)C4)c(Cl)c3Cl)ccc2CC1C(=O)NC1CCCc2ccccc21)C(C)(C)C

> <Shape>
0.209

> <Color>
0.077

> <Negative vol penalty>
0.000

$$$$

  -OEChem-04042321113D

 85 94  0     1  0  0  0  0  0999 V2000
  -16.6409  -30.0166   23.6850 C   0  0  0  0  0  0  0  0  0  0  0  0
  -17.7544  -30.6796   24.1909 C   0  0  0  0  0  0  0  0  0  0  0  0
  -28.4557  -17.2664   20.3526 C   0  0  0  0  0  0  0  0  0  0  0  0
  -30.0680  -19.0557   20.1639 C   0  0  0  0  0  0  0  0  0  0  0  0
  -16.7982  -28.8063   23.0110 C   0  0  0  0  0  0  0  0  0  0  0  0
  -19.0259  -30.1321   24.0239 C   0  0  0  0  0  0  0  0  0  0  0  0
  -25.8586  -32.0681   23.0840 C   0  0  0  0  0  0  0  0  0  0  0  0
  -28.8016  -16.8201   19.0772 C   0  0  0  0  0  0  0  0  0  0  0  0
  -30.4140  -18.6095   18.8884 C   0  0  0  0  0  0  0  0  0  0  0  0
  -27.1253  -31.8434   23.6212 C   0  0  0  0  0  0  0  0  0  0  0  0
  -32.3082  -16.1584   17.5376 C   0  0  0  0  0  0  0  0  0  0  0  0
  -33.6655  -16.0815   17.2255 C   0  0  0  0  0  0  0  0  0  0  0  0
  -27.2842  -29.7867   22.3706 C   0  0  0  0  0  0  0  0  0  0  0  0
  -29.5966  -27.2631   24.7697 C   0  0  0  0  0  0  0  0  0  0  0  0
  -27.0401  -26.5390   25.6199 C   0  0  0  0  0  0  0  0  0  0  0  0
  -33.3383  -17.6490   15.4164 C   0  0  0  0  0  0  0  0  0  0  0  0
  -29.0889  -18.3843   20.8960 C   0  0  0  0  0  0  0  0  0  0  0  0
  -29.3085  -18.4555   23.4365 C   0  0  0  0  0  0  0  0  0  0  0  0
  -18.0733  -28.2485   22.8273 C   0  0  0  0  0  0  0  0  0  0  0  0
  -25.2896  -31.1467   22.1930 C   0  0  0  0  0  0  0  0  0  0  0  0
  -19.2004  -28.9125   23.3480 C   0  0  0  0  0  0  0  0  0  0  0  0
  -26.0111  -30.0033   21.8216 C   0  0  0  0  0  0  0  0  0  0  0  0
  -28.9128  -26.2328   24.1244 C   0  0  0  0  0  0  0  0  0  0  0  0
  -27.7240  -27.5692   26.2653 C   0  0  0  0  0  0  0  0  0  0  0  0
  -29.0022  -27.9313   25.8402 C   0  0  0  0  0  0  0  0  0  0  0  0
  -27.6345  -25.8707   24.5494 C   0  0  0  0  0  0  0  0  0  0  0  0
  -29.7807  -17.4916   18.3451 C   0  0  0  0  0  0  0  0  0  0  0  0
  -27.8372  -30.7011   23.2668 C   0  0  0  0  0  0  0  0  0  0  0  0
  -31.4659  -16.9805   16.7890 C   0  0  0  0  0  0  0  0  0  0  0  0
  -34.1806  -16.8268   16.1650 C   0  0  0  0  0  0  0  0  0  0  0  0
  -31.9810  -17.7258   15.7284 C   0  0  0  0  0  0  0  0  0  0  0  0
  -28.7316  -18.8461   22.2132 C   0  0  0  0  0  0  0  0  0  0  0  0
  -28.6227  -19.1746   24.3847 C   0  0  0  0  0  0  0  0  0  0  0  0
  -30.3695  -17.5259   23.6928 C   0  0  0  0  0  0  0  0  0  0  0  0
  -22.6963  -29.3088   22.2192 C   0  0  0  0  0  0  0  0  0  0  0  0
  -23.6015  -28.6597   19.1727 C   0  0  0  0  0  0  0  0  0  0  0  0
  -26.1098  -28.5209   16.8627 C   0  0  0  0  0  0  0  0  0  0  0  0
  -25.6496  -24.3552   24.2185 C   0  0  0  0  0  0  0  0  0  0  0  0
  -18.1889  -26.9144   22.1332 C   0  0  0  0  0  0  0  0  0  0  0  0
  -23.9332  -31.4170   21.6017 C   0  0  0  0  0  0  0  0  0  0  0  0
  -25.4533  -28.9934   20.8533 C   0  0  0  0  0  0  0  0  0  0  0  0
  -19.6070  -26.5888   21.6717 C   0  0  0  0  0  0  0  0  0  0  0  0
  -24.3530  -21.1863   25.1953 C   0  0  0  0  0  0  0  0  0  0  0  0
  -31.2608  -29.7878   28.0021 C   0  0  0  0  0  0  0  0  0  0  0  0
  -20.6100  -26.8777   22.7841 C   0  0  0  0  0  0  0  0  0  0  0  0
  -25.3843  -20.1913   24.6580 C   0  0  0  0  0  0  0  0  0  0  0  0
  -31.0081  -30.8567   26.9537 C   0  0  0  0  0  0  0  0  0  0  0  0
  -30.0327  -28.8928   27.8884 C   0  0  0  0  0  0  0  0  0  0  0  0
  -24.1577  -22.3681   24.2472 C   0  0  0  0  0  0  0  0  0  0  0  0
  -26.4226  -22.0706   23.3248 C   0  0  0  0  0  0  0  0  0  0  0  0
  -20.5985  -28.3629   23.1653 C   0  0  1  0  0  0  0  0  0  0  0  0
  -23.2372  -30.1550   21.1016 C   0  0  1  0  0  0  0  0  0  0  0  0
  -26.7011  -20.8956   24.2763 C   0  0  2  0  0  0  0  0  0  0  0  0
  -30.3326  -30.0927   25.8016 C   0  0  2  0  0  0  0  0  0  0  0  0
  -29.5740  -25.5339   22.9811 C   0  0  0  0  0  0  0  0  0  0  0  0
  -27.0640  -28.2684   27.4091 C   0  0  0  0  0  0  0  0  0  0  0  0
  -26.5505  -27.9166   14.4673 C   0  0  0  0  0  0  0  0  0  0  0  0
  -23.4770  -25.6989   19.8992 C   0  0  0  0  0  0  0  0  0  0  0  0
  -24.8092  -25.2083   17.8370 C   0  0  0  0  0  0  0  0  0  0  0  0
  -22.5551  -26.2590   17.6429 C   0  0  0  0  0  0  0  0  0  0  0  0
  -26.9970  -31.2683   16.2118 C   0  0  0  0  0  0  0  0  0  0  0  0
  -29.3296  -30.9983   25.0944 C   0  0  0  0  0  0  0  0  0  1  0  0
  -24.4906  -27.6303   18.5178 C   0  0  1  0  0  0  0  0  0  0  0  0
  -26.1951  -29.0335   15.4363 C   0  0  2  0  0  0  0  0  0  0  0  0
  -23.8429  -26.2170   18.4940 C   0  0  0  0  0  0  0  0  0  0  0  0
  -27.7544  -19.7435   22.3672 N   0  0  0  0  0  0  0  0  0  0  0  0
  -27.7119  -19.9228   23.6985 N   0  0  0  0  0  0  0  0  0  0  0  0
  -29.6934  -28.9488   26.4673 N   0  0  3  0  0  0  0  0  0  0  0  0
  -24.1208  -29.2992   20.3072 N   0  0  0  0  0  0  0  0  0  0  0  0
  -25.4468  -22.9883   23.9334 N   0  0  0  0  0  0  0  0  0  0  0  0
  -28.7159  -19.2335   25.7301 N   0  0  0  0  0  0  0  0  0  0  0  0
  -30.9643  -16.8740   22.6039 N   0  0  0  0  0  0  0  0  0  0  0  0
  -26.9247  -24.8261   23.9071 N   0  0  0  0  0  0  0  0  0  0  0  0
  -21.3250  -29.1419   22.1857 N   0  0  0  0  0  0  0  0  0  0  0  0
  -24.8228  -28.1577   17.1988 N   0  0  0  0  0  0  0  0  0  0  0  0
  -27.2337  -30.0968   15.3293 N   0  3  0  0  0  0  0  0  0  0  0  0
  -30.7670  -17.2682   24.8543 O   0  0  0  0  0  0  0  0  0  0  0  0
  -23.4663  -28.8407   23.0497 O   0  0  0  0  0  0  0  0  0  0  0  0
  -22.4901  -28.8931   18.6909 O   0  0  0  0  0  0  0  0  0  0  0  0
  -27.0877  -28.4464   17.6033 O   0  0  0  0  0  0  0  0  0  0  0  0
  -24.7667  -25.0497   24.7284 O   0  0  0  0  0  0  0  0  0  0  0  0
  -30.1187  -17.0563   17.1005 O   0  0  0  0  0  0  0  0  0  0  0  0
  -29.0736  -30.4791   23.7901 O   0  0  0  0  0  0  0  0  0  1  0  0
  -35.4843  -16.7541   15.8664 F   0  0  0  0  0  0  0  0  0  0  0  0
  -31.1769  -18.5183   15.0064 F   0  0  0  0  0  0  0  0  0  0  0  0
  1  2  1  0  0  0  0
  1  5  2  0  0  0  0
  2  6  2  0  0  0  0
  3  8  2  0  0  0  0
  3 17  1  0  0  0  0
  4  9  1  0  0  0  0
  4 17  2  0  0  0  0
  5 19  1  0  0  0  0
  6 21  1  0  0  0  0
  7 10  2  0  0  0  0
  7 20  1  0  0  0  0
  8 27  1  0  0  0  0
  9 27  2  0  0  0  0
 10 28  1  0  0  0  0
 11 12  2  0  0  0  0
 11 29  1  0  0  0  0
 12 30  1  0  0  0  0
 13 22  1  0  0  0  0
 13 28  2  0  0  0  0
 14 23  2  0  0  0  0
 14 25  1  0  0  0  0
 15 24  1  0  0  0  0
 15 26  2  0  0  0  0
 16 30  2  0  0  0  0
 16 31  1  0  0  0  0
 17 32  1  0  0  0  0
 18 32  1  0  0  0  0
 18 33  2  0  0  0  0
 18 34  1  0  0  0  0
 19 21  2  0  0  0  0
 19 39  1  0  0  0  0
 20 22  2  0  0  0  0
 20 40  1  0  0  0  0
 21 51  1  0  0  0  0
 22 41  1  0  0  0  0
 23 26  1  0  0  0  0
 23 55  1  0  0  0  0
 24 25  2  0  0  0  0
 24 56  1  0  0  0  0
 25 68  1  0  0  0  0
 26 73  1  0  0  0  0
 27 82  1  0  0  0  0
 28 83  1  0  0  0  0
 29 31  2  0  0  0  0
 29 82  1  0  0  0  0
 30 84  1  0  0  0  0
 31 85  1  0  0  0  0
 32 66  2  0  0  0  0
 33 67  1  0  0  0  0
 33 71  1  0  0  0  0
 34 72  1  0  0  0  0
 34 77  2  0  0  0  0
 35 52  1  0  0  0  0
 35 74  1  0  0  0  0
 35 78  2  0  0  0  0
 36 63  1  0  0  0  0
 36 69  1  0  0  0  0
 36 79  2  0  0  0  0
 37 64  1  0  0  0  0
 37 75  1  0  0  0  0
 37 80  2  0  0  0  0
 38 70  1  0  0  0  0
 38 73  1  0  0  0  0
 38 81  2  0  0  0  0
 39 42  1  0  0  0  0
 40 52  1  0  0  0  0
 41 69  1  0  0  0  0
 42 45  1  0  0  0  0
 43 46  1  0  0  0  0
 43 49  1  0  0  0  0
 44 47  1  0  0  0  0
 44 48  1  0  0  0  0
 45 51  1  0  0  0  0
 46 53  1  0  0  0  0
 47 54  1  0  0  0  0
 48 68  1  0  0  0  0
 49 70  1  0  0  0  0
 50 53  1  0  0  0  0
 50 70  1  0  0  0  0
 51 74  1  0  0  0  0
 52 69  1  0  0  0  0
 53 67  1  0  0  0  0
 54 62  1  0  0  0  0
 54 68  1  0  0  0  0
 57 64  1  0  0  0  0
 58 65  1  0  0  0  0
 59 65  1  0  0  0  0
 60 65  1  0  0  0  0
 61 76  1  0  0  0  0
 62 83  1  0  0  0  0
 63 65  1  0  0  0  0
 63 75  1  0  0  0  0
 64 76  1  0  0  0  0
 66 67  1  0  0  0  0
M  CHG  1  76   1
M  ISO  4  38 100  62 101  73 100  83 101
M  END
> <Batch ID>
0021

> <Smiles>
CNC(C)C(=O)NC(C(=O)N1Cc2cc([101O:1][101CH2:1]C3CCCN3c3cc(C)c([100NH:0][100C:0](=O)N4CCCC(n5nc(-c6ccc(Oc7ccc(F)cc7F)cc6)c(C(N)=O)c5N)C4)cc3C)ccc2CC1C(=O)NC1CCCc2ccccc21)C(C)(C)C

> <Shape>
0.189

> <Color>
0.094

> <Negative vol penalty>
0.000

$$$$

  -OEChem-04042321113D

 85 93  0     1  0  0  0  0  0999 V2000
  -21.7655  -34.3908   15.5429 C   0  0  0  0  0  0  0  0  0  0  0  0
  -22.5628  -33.2515   15.5847 C   0  0  0  0  0  0  0  0  0  0  0  0
  -26.9247  -21.3733   23.1808 C   0  0  0  0  0  0  0  0  0  0  0  0
  -22.7184  -10.6006   20.2507 C   0  0  0  0  0  0  0  0  0  0  0  0
  -24.1186  -10.0549   22.1424 C   0  0  0  0  0  0  0  0  0  0  0  0
  -21.8454  -35.3341   16.5665 C   0  0  0  0  0  0  0  0  0  0  0  0
  -23.4414  -33.0554   16.6497 C   0  0  0  0  0  0  0  0  0  0  0  0
  -24.9769  -27.7128   19.2195 C   0  0  0  0  0  0  0  0  0  0  0  0
  -27.1012  -19.9935   23.2831 C   0  0  0  0  0  0  0  0  0  0  0  0
  -27.0904  -22.0083   21.9499 C   0  0  0  0  0  0  0  0  0  0  0  0
  -22.2943   -9.2737   20.1817 C   0  0  0  0  0  0  0  0  0  0  0  0
  -23.6944   -8.7278   22.0735 C   0  0  0  0  0  0  0  0  0  0  0  0
  -26.0795  -26.8755   19.0553 C   0  0  0  0  0  0  0  0  0  0  0  0
  -20.9841   -6.9301   22.9916 C   0  0  0  0  0  0  0  0  0  0  0  0
  -20.6324   -6.3009   24.1858 C   0  0  0  0  0  0  0  0  0  0  0  0
  -27.1301  -27.8926   20.9739 C   0  0  0  0  0  0  0  0  0  0  0  0
  -22.3519   -4.6438   23.8193 C   0  0  0  0  0  0  0  0  0  0  0  0
  -23.6306  -10.9913   21.2310 C   0  0  0  0  0  0  0  0  0  0  0  0
  -23.4802  -13.4059   22.0401 C   0  0  0  0  0  0  0  0  0  0  0  0
  -22.7184  -35.1448   17.6494 C   0  0  0  0  0  0  0  0  0  0  0  0
  -24.9473  -28.6554   20.2574 C   0  0  0  0  0  0  0  0  0  0  0  0
  -23.5340  -33.9977   17.6880 C   0  0  0  0  0  0  0  0  0  0  0  0
  -26.0248  -28.7390   21.1507 C   0  0  0  0  0  0  0  0  0  0  0  0
  -27.4435  -19.2486   22.1546 C   0  0  0  0  0  0  0  0  0  0  0  0
  -27.4327  -21.2634   20.8214 C   0  0  0  0  0  0  0  0  0  0  0  0
  -22.7822   -8.3372   21.0932 C   0  0  0  0  0  0  0  0  0  0  0  0
  -27.1575  -26.9673   19.9308 C   0  0  0  0  0  0  0  0  0  0  0  0
  -22.0198   -6.4161   22.2112 C   0  0  0  0  0  0  0  0  0  0  0  0
  -21.3163   -5.1578   24.5996 C   0  0  0  0  0  0  0  0  0  0  0  0
  -22.7037   -5.2730   22.6251 C   0  0  0  0  0  0  0  0  0  0  0  0
  -27.6092  -19.8835   20.9237 C   0  0  0  0  0  0  0  0  0  0  0  0
  -24.0696  -12.3618   21.3024 C   0  0  0  0  0  0  0  0  0  0  0  0
  -24.2667  -14.5002   21.7748 C   0  0  0  0  0  0  0  0  0  0  0  0
  -22.3251  -13.3881   22.8893 C   0  0  0  0  0  0  0  0  0  0  0  0
  -24.7850  -31.8265   20.4035 C   0  0  0  0  0  0  0  0  0  0  0  0
  -24.5308  -31.2775   23.5903 C   0  0  0  0  0  0  0  0  0  0  0  0
  -25.1283  -29.1967   26.2285 C   0  0  0  0  0  0  0  0  0  0  0  0
  -29.5888  -16.4638   21.4058 C   0  0  0  0  0  0  0  0  0  0  0  0
  -22.8042  -36.2152   18.7084 C   0  0  0  0  0  0  0  0  0  0  0  0
  -23.7390  -29.5329   20.4371 C   0  0  0  0  0  0  0  0  0  0  0  0
  -26.0334  -29.7202   22.2933 C   0  0  0  0  0  0  0  0  0  0  0  0
  -23.4888  -35.7497   19.9909 C   0  0  0  0  0  0  0  0  0  0  0  0
  -27.9137  -15.2046   18.3546 C   0  0  0  0  0  0  0  0  0  0  0  0
  -24.7740  -34.9949   19.6664 C   0  0  0  0  0  0  0  0  0  0  0  0
  -26.7595  -14.3814   18.9239 C   0  0  0  0  0  0  0  0  0  0  0  0
  -29.1014  -15.2532   19.3109 C   0  0  0  0  0  0  0  0  0  0  0  0
  -27.6014  -14.9088   21.2462 C   0  0  0  0  0  0  0  0  0  0  0  0
  -24.4813  -33.7373   18.8391 C   0  0  1  0  0  0  0  0  0  0  0  0
  -24.0380  -30.8088   21.2182 C   0  0  1  0  0  0  0  0  0  0  0  0
  -26.3710  -14.8785   20.3272 C   0  0  2  0  0  0  0  0  0  0  0  0
  -24.8404  -29.0373   28.7163 C   0  0  0  0  0  0  0  0  0  0  0  0
  -26.8654  -33.2028   23.9814 C   0  0  0  0  0  0  0  0  0  0  0  0
  -27.1413  -32.2881   26.2956 C   0  0  0  0  0  0  0  0  0  0  0  0
  -25.0240  -33.4420   25.6567 C   0  0  0  0  0  0  0  0  0  0  0  0
  -26.4437  -22.1061   18.7067 C   0  0  0  0  0  0  0  0  0  0  0  0
  -29.9149  -18.2191   23.1064 C   0  0  0  0  0  0  0  0  0  0  0  0
  -23.4129  -26.7965   25.9929 C   0  0  0  0  0  0  0  0  0  0  0  0
  -27.6222  -17.7725   22.3126 C   0  0  0  0  0  0  0  0  0  0  0  0
  -29.0426  -23.8920   19.7357 C   0  0  0  0  0  0  0  0  0  0  0  0
  -28.8663  -22.4768   19.1988 C   0  0  0  0  0  0  0  0  0  0  0  0
  -27.9980  -24.8652   19.2021 C   0  0  0  0  0  0  0  0  0  1  0  0
  -25.5080  -31.1390   24.7326 C   0  0  1  0  0  0  0  0  0  0  0  0
  -24.2335  -28.7202   27.3584 C   0  0  2  0  0  0  0  0  0  0  0  0
  -26.1357  -32.5007   25.1440 C   0  0  0  0  0  0  0  0  0  0  0  0
  -25.1472  -12.7573   20.6195 N   0  0  0  0  0  0  0  0  0  0  0  0
  -25.2411  -14.0622   20.9270 N   0  0  0  0  0  0  0  0  0  0  0  0
  -24.8317  -30.5607   22.4235 N   0  0  0  0  0  0  0  0  0  0  0  0
  -28.6965  -15.6873   20.6484 N   0  0  0  0  0  0  0  0  0  0  0  0
  -24.2127  -15.7848   22.1863 N   0  0  0  0  0  0  0  0  0  0  0  0
  -21.6337  -12.1798   23.0516 N   0  0  0  0  0  0  0  0  0  0  0  0
  -23.9699  -32.6821   19.6872 N   0  0  0  0  0  0  0  0  0  0  0  0
  -24.7873  -30.4644   25.8069 N   0  0  0  0  0  0  0  0  0  0  0  0
  -27.5910  -21.9336   19.5998 N   0  0  3  0  0  0  0  0  0  0  0  0
  -29.0307  -17.3831   22.3069 N   0  0  0  0  0  0  0  0  0  0  0  0
  -24.0259  -27.2472   27.2688 N   0  3  0  0  0  0  0  0  0  0  0  0
  -21.9087  -14.4170   23.4736 O   0  0  0  0  0  0  0  0  0  0  0  0
  -26.0103  -31.8358   20.4243 O   0  0  0  0  0  0  0  0  0  0  0  0
  -23.5334  -31.9896   23.7308 O   0  0  0  0  0  0  0  0  0  0  0  0
  -26.0411  -28.5141   25.7686 O   0  0  0  0  0  0  0  0  0  0  0  0
  -30.8144  -16.3490   21.2766 O   0  0  0  0  0  0  0  0  0  0  0  0
  -22.3684   -7.0423   21.0263 O   0  0  0  0  0  0  0  0  0  0  0  0
  -28.2353  -26.1517   19.7723 O   0  0  0  0  0  0  0  0  0  1  0  0
  -20.9794   -4.5546   25.7471 F   0  0  0  0  0  0  0  0  0  0  0  0
  -23.7003   -4.7753   21.8802 F   0  0  0  0  0  0  0  0  0  0  0  0
  -28.0346  -18.9520   19.5250 Cl  0  0  0  0  0  0  0  0  0  0  0  0
  1  2  1  0  0  0  0
  1  6  2  0  0  0  0
  2  7  2  0  0  0  0
  3  9  1  0  0  0  0
  3 10  2  0  0  0  0
  4 11  2  0  0  0  0
  4 18  1  0  0  0  0
  5 12  1  0  0  0  0
  5 18  2  0  0  0  0
  6 20  1  0  0  0  0
  7 22  1  0  0  0  0
  8 13  2  0  0  0  0
  8 21  1  0  0  0  0
  9 24  2  0  0  0  0
 10 25  1  0  0  0  0
 11 26  1  0  0  0  0
 12 26  2  0  0  0  0
 13 27  1  0  0  0  0
 14 15  2  0  0  0  0
 14 28  1  0  0  0  0
 15 29  1  0  0  0  0
 16 23  1  0  0  0  0
 16 27  2  0  0  0  0
 17 29  2  0  0  0  0
 17 30  1  0  0  0  0
 18 32  1  0  0  0  0
 19 32  1  0  0  0  0
 19 33  2  0  0  0  0
 19 34  1  0  0  0  0
 20 22  2  0  0  0  0
 20 39  1  0  0  0  0
 21 23  2  0  0  0  0
 21 40  1  0  0  0  0
 22 48  1  0  0  0  0
 23 41  1  0  0  0  0
 24 31  1  0  0  0  0
 24 58  1  0  0  0  0
 25 31  2  0  0  0  0
 25 73  1  0  0  0  0
 26 81  1  0  0  0  0
 27 82  1  0  0  0  0
 28 30  2  0  0  0  0
 28 81  1  0  0  0  0
 29 83  1  0  0  0  0
 30 84  1  0  0  0  0
 31 85  1  0  0  0  0
 32 65  2  0  0  0  0
 33 66  1  0  0  0  0
 33 69  1  0  0  0  0
 34 70  1  0  0  0  0
 34 76  2  0  0  0  0
 35 49  1  0  0  0  0
 35 71  1  0  0  0  0
 35 77  2  0  0  0  0
 36 62  1  0  0  0  0
 36 67  1  0  0  0  0
 36 78  2  0  0  0  0
 37 63  1  0  0  0  0
 37 72  1  0  0  0  0
 37 79  2  0  0  0  0
 38 68  1  0  0  0  0
 38 74  1  0  0  0  0
 38 80  2  0  0  0  0
 39 42  1  0  0  0  0
 40 49  1  0  0  0  0
 41 67  1  0  0  0  0
 42 44  1  0  0  0  0
 43 45  1  0  0  0  0
 43 46  1  0  0  0  0
 44 48  1  0  0  0  0
 45 50  1  0  0  0  0
 46 68  1  0  0  0  0
 47 50  1  0  0  0  0
 47 68  1  0  0  0  0
 48 71  1  0  0  0  0
 49 67  1  0  0  0  0
 50 66  1  0  0  0  0
 51 63  1  0  0  0  0
 52 64  1  0  0  0  0
 53 64  1  0  0  0  0
 54 64  1  0  0  0  0
 55 73  1  0  0  0  0
 56 74  1  0  0  0  0
 57 75  1  0  0  0  0
 58 74  1  0  0  0  0
 59 60  1  0  0  0  0
 59 61  1  0  0  0  0
 60 73  1  0  0  0  0
 61 82  1  0  0  0  0
 62 64  1  0  0  0  0
 62 72  1  0  0  0  0
 63 75  1  0  0  0  0
 65 66  1  0  0  0  0
M  CHG  1  75   1
M  ISO  4  38 100  61 101  74 100  82 101
M  END
> <Batch ID>
0021

> <Smiles>
CNC(C)C(=O)NC(C(=O)N1Cc2cc([101O:1][101CH2:1]CCN(C)c3cccc(C[100N:0](C)[100C:0](=O)N4CCCC(n5nc(-c6ccc(Oc7ccc(F)cc7F)cc6)c(C(N)=O)c5N)C4)c3Cl)ccc2CC1C(=O)NC1CCCc2ccccc21)C(C)(C)C

> <Shape>
0.307

> <Color>
0.125

> <Negative vol penalty>
0.000

$$$$

  -OEChem-04042321113D

 86 95  0     1  0  0  0  0  0999 V2000
  -23.6095  -30.7224   20.2711 C   0  0  0  0  0  0  0  0  0  0  0  0
  -23.7825  -29.3490   20.4103 C   0  0  0  0  0  0  0  0  0  0  0  0
  -22.9522   -9.8869   20.0492 C   0  0  0  0  0  0  0  0  0  0  0  0
  -23.6096  -10.0741   22.3665 C   0  0  0  0  0  0  0  0  0  0  0  0
  -24.3473  -31.6006   21.0637 C   0  0  0  0  0  0  0  0  0  0  0  0
  -24.6943  -28.8531   21.3415 C   0  0  0  0  0  0  0  0  0  0  0  0
  -24.1657  -23.7190   24.6380 C   0  0  0  0  0  0  0  0  0  0  0  0
  -32.6642  -17.4455   23.3225 C   0  0  0  0  0  0  0  0  0  0  0  0
  -32.0817  -16.5047   22.4733 C   0  0  0  0  0  0  0  0  0  0  0  0
  -22.1518   -8.7891   20.3650 C   0  0  0  0  0  0  0  0  0  0  0  0
  -22.8092   -8.9763   22.6823 C   0  0  0  0  0  0  0  0  0  0  0  0
  -24.6910  -22.4384   24.4705 C   0  0  0  0  0  0  0  0  0  0  0  0
  -22.9892   -5.6090   22.4371 C   0  0  0  0  0  0  0  0  0  0  0  0
  -23.5303   -4.6313   23.2719 C   0  0  0  0  0  0  0  0  0  0  0  0
  -26.5037  -22.9935   25.9621 C   0  0  0  0  0  0  0  0  0  0  0  0
  -29.9101  -17.4825   22.8796 C   0  0  0  0  0  0  0  0  0  0  0  0
  -21.7636   -5.0209   24.8731 C   0  0  0  0  0  0  0  0  0  0  0  0
  -23.6812  -10.5294   21.0500 C   0  0  0  0  0  0  0  0  0  0  0  0
  -24.1303  -13.0191   20.7223 C   0  0  0  0  0  0  0  0  0  0  0  0
  -25.2616  -31.1151   22.0118 C   0  0  0  0  0  0  0  0  0  0  0  0
  -24.8125  -24.6515   25.4617 C   0  0  0  0  0  0  0  0  0  0  0  0
  -25.4460  -29.7258   22.1466 C   0  0  0  0  0  0  0  0  0  0  0  0
  -25.9832  -24.2844   26.1405 C   0  0  0  0  0  0  0  0  0  0  0  0
  -31.8697  -18.4047   23.9503 C   0  0  0  0  0  0  0  0  0  0  0  0
  -30.7047  -16.5232   22.2518 C   0  0  0  0  0  0  0  0  0  0  0  0
  -30.4926  -18.4233   23.7289 C   0  0  0  0  0  0  0  0  0  0  0  0
  -22.0802   -8.3338   21.6815 C   0  0  0  0  0  0  0  0  0  0  0  0
  -25.8618  -22.0765   25.1303 C   0  0  0  0  0  0  0  0  0  0  0  0
  -21.8354   -6.2928   22.8203 C   0  0  0  0  0  0  0  0  0  0  0  0
  -22.9174   -4.3372   24.4899 C   0  0  0  0  0  0  0  0  0  0  0  0
  -21.2226   -5.9987   24.0383 C   0  0  0  0  0  0  0  0  0  0  0  0
  -24.5086  -11.6631   20.7243 C   0  0  0  0  0  0  0  0  0  0  0  0
  -25.2670  -13.6921   20.3463 C   0  0  0  0  0  0  0  0  0  0  0  0
  -22.8645  -13.6168   21.0327 C   0  0  0  0  0  0  0  0  0  0  0  0
  -26.1576  -27.4950   25.0050 C   0  0  0  0  0  0  0  0  0  0  0  0
  -26.4285  -27.4520   28.2372 C   0  0  0  0  0  0  0  0  0  0  0  0
  -28.2886  -19.5283   24.2337 C   0  0  0  0  0  0  0  0  0  0  0  0
  -26.6026  -25.6113   31.1057 C   0  0  0  0  0  0  0  0  0  0  0  0
  -30.7580  -14.5491   20.6876 C   0  0  0  0  0  0  0  0  0  0  0  0
  -26.0709  -32.1042   22.8127 C   0  0  0  0  0  0  0  0  0  0  0  0
  -24.2184  -26.0200   25.6530 C   0  0  0  0  0  0  0  0  0  0  0  0
  -26.7048  -25.2419   27.0520 C   0  0  0  0  0  0  0  0  0  0  0  0
  -26.7436  -31.4904   24.0379 C   0  0  0  0  0  0  0  0  0  0  0  0
  -33.8213  -21.1366   25.5753 C   0  0  0  0  0  0  0  0  0  0  0  0
  -33.0778  -20.5453   26.7558 C   0  0  0  0  0  0  0  0  0  0  0  0
  -29.6522  -11.9727   18.4930 C   0  0  0  0  0  0  0  0  0  0  0  0
  -27.4261  -30.1768   23.6703 C   0  0  0  0  0  0  0  0  0  0  0  0
  -28.1843  -11.7740   18.8777 C   0  0  0  0  0  0  0  0  0  0  0  0
  -33.0042  -20.6489   24.3843 C   0  0  0  0  0  0  0  0  0  0  0  0
  -32.6828  -19.1638   26.2469 C   0  0  0  0  0  0  0  0  0  0  0  0
  -30.5219  -12.2760   19.7117 C   0  0  0  0  0  0  0  0  0  0  0  0
  -28.5868  -13.1919   20.9306 C   0  0  0  0  0  0  0  0  0  0  0  0
  -26.4075  -29.1489   23.1629 C   0  0  1  0  0  0  0  0  0  0  0  0
  -25.2401  -27.0562   26.1110 C   0  0  1  0  0  0  0  0  0  0  0  0
  -27.6607  -12.9481   19.7279 C   0  0  2  0  0  0  0  0  0  0  0  0
  -26.8605  -25.8549   33.5900 C   0  0  0  0  0  0  0  0  0  0  0  0
  -29.4040  -28.0195   27.8702 C   0  0  0  0  0  0  0  0  0  0  0  0
  -29.7601  -27.3158   30.2464 C   0  0  0  0  0  0  0  0  0  0  0  0
  -28.3220  -29.2886   29.7339 C   0  0  0  0  0  0  0  0  0  0  0  0
  -23.9775  -24.3446   31.6192 C   0  0  0  0  0  0  0  0  0  0  0  0
  -27.7934  -20.6903   25.0747 C   0  0  0  0  0  0  0  0  0  1  0  0
  -27.4694  -26.9654   29.2164 C   0  0  1  0  0  0  0  0  0  0  0  0
  -25.8790  -25.7447   32.4335 C   0  0  2  0  0  0  0  0  0  0  0  0
  -28.7266  -27.8797   29.2481 C   0  0  0  0  0  0  0  0  0  0  0  0
  -25.7858  -11.4836   20.3769 N   0  0  0  0  0  0  0  0  0  0  0  0
  -26.2198  -12.7357   20.1531 N   0  0  0  0  0  0  0  0  0  0  0  0
  -32.4788  -19.3439   24.8043 N   0  0  0  0  0  0  0  0  0  0  0  0
  -26.0879  -26.5703   27.2016 N   0  0  0  0  0  0  0  0  0  0  0  0
  -29.9670  -13.4019   20.4663 N   0  0  0  0  0  0  0  0  0  0  0  0
  -25.5343  -15.0029   20.1653 N   0  0  0  0  0  0  0  0  0  0  0  0
  -21.8026  -12.7794   21.4008 N   0  0  0  0  0  0  0  0  0  0  0  0
  -29.6667  -19.3865   24.3553 N   0  0  0  0  0  0  0  0  0  0  0  0
  -30.1133  -15.5676   21.3887 N   0  0  0  0  0  0  0  0  0  0  0  0
  -25.6829  -28.5657   24.2716 N   0  0  0  0  0  0  0  0  0  0  0  0
  -26.7918  -26.8364   30.5019 N   0  0  0  0  0  0  0  0  0  0  0  0
  -25.0063  -24.5598   32.6691 N   0  3  0  0  0  0  0  0  0  0  0  0
  -22.6762  -14.8553   20.9690 O   0  0  0  0  0  0  0  0  0  0  0  0
  -27.2184  -26.9068   24.8308 O   0  0  0  0  0  0  0  0  0  0  0  0
  -25.9307  -28.5703   28.3898 O   0  0  0  0  0  0  0  0  0  0  0  0
  -27.5202  -18.8485   23.5613 O   0  0  0  0  0  0  0  0  0  0  0  0
  -26.9671  -24.5291   30.6514 O   0  0  0  0  0  0  0  0  0  0  0  0
  -31.9126  -14.6334   20.2612 O   0  0  0  0  0  0  0  0  0  0  0  0
  -21.2991   -7.2627   21.9900 O   0  0  0  0  0  0  0  0  0  0  0  0
  -26.3770  -20.8275   24.9680 O   0  0  0  0  0  0  0  0  0  1  0  0
  -23.4362   -3.3972   25.2907 F   0  0  0  0  0  0  0  0  0  0  0  0
  -20.1132   -6.6514   24.4114 F   0  0  0  0  0  0  0  0  0  0  0  0
  1  2  1  0  0  0  0
  1  5  2  0  0  0  0
  2  6  2  0  0  0  0
  3 10  2  0  0  0  0
  3 18  1  0  0  0  0
  4 11  1  0  0  0  0
  4 18  2  0  0  0  0
  5 20  1  0  0  0  0
  6 22  1  0  0  0  0
  7 12  2  0  0  0  0
  7 21  1  0  0  0  0
  8  9  2  0  0  0  0
  8 24  1  0  0  0  0
  9 25  1  0  0  0  0
 10 27  1  0  0  0  0
 11 27  2  0  0  0  0
 12 28  1  0  0  0  0
 13 14  2  0  0  0  0
 13 29  1  0  0  0  0
 14 30  1  0  0  0  0
 15 23  1  0  0  0  0
 15 28  2  0  0  0  0
 16 25  2  0  0  0  0
 16 26  1  0  0  0  0
 17 30  2  0  0  0  0
 17 31  1  0  0  0  0
 18 32  1  0  0  0  0
 19 32  1  0  0  0  0
 19 33  2  0  0  0  0
 19 34  1  0  0  0  0
 20 22  2  0  0  0  0
 20 40  1  0  0  0  0
 21 23  2  0  0  0  0
 21 41  1  0  0  0  0
 22 53  1  0  0  0  0
 23 42  1  0  0  0  0
 24 26  2  0  0  0  0
 24 67  1  0  0  0  0
 25 73  1  0  0  0  0
 26 72  1  0  0  0  0
 27 83  1  0  0  0  0
 28 84  1  0  0  0  0
 29 31  2  0  0  0  0
 29 83  1  0  0  0  0
 30 85  1  0  0  0  0
 31 86  1  0  0  0  0
 32 65  2  0  0  0  0
 33 66  1  0  0  0  0
 33 70  1  0  0  0  0
 34 71  1  0  0  0  0
 34 77  2  0  0  0  0
 35 54  1  0  0  0  0
 35 74  1  0  0  0  0
 35 78  2  0  0  0  0
 36 62  1  0  0  0  0
 36 68  1  0  0  0  0
 36 79  2  0  0  0  0
 37 61  1  0  0  0  0
 37 72  1  0  0  0  0
 37 80  2  0  0  0  0
 38 63  1  0  0  0  0
 38 75  1  0  0  0  0
 38 81  2  0  0  0  0
 39 69  1  0  0  0  0
 39 73  1  0  0  0  0
 39 82  2  0  0  0  0
 40 43  1  0  0  0  0
 41 54  1  0  0  0  0
 42 68  1  0  0  0  0
 43 47  1  0  0  0  0
 44 45  1  0  0  0  0
 44 49  1  0  0  0  0
 45 50  1  0  0  0  0
 46 48  1  0  0  0  0
 46 51  1  0  0  0  0
 47 53  1  0  0  0  0
 48 55  1  0  0  0  0
 49 67  1  0  0  0  0
 50 67  1  0  0  0  0
 51 69  1  0  0  0  0
 52 55  1  0  0  0  0
 52 69  1  0  0  0  0
 53 74  1  0  0  0  0
 54 68  1  0  0  0  0
 55 66  1  0  0  0  0
 56 63  1  0  0  0  0
 57 64  1  0  0  0  0
 58 64  1  0  0  0  0
 59 64  1  0  0  0  0
 60 76  1  0  0  0  0
 61 84  1  0  0  0  0
 62 64  1  0  0  0  0
 62 75  1  0  0  0  0
 63 76  1  0  0  0  0
 65 66  1  0  0  0  0
M  CHG  1  76   1
M  ISO  4  39 100  61 101  73 100  84 101
M  END
> <Batch ID>
0021

> <Smiles>
CNC(C)C(=O)NC(C(=O)N1Cc2cc([101O:1][101CH2:1]C(=O)Nc3cc([100NH:0][100C:0](=O)N4CCCC(n5nc(-c6ccc(Oc7ccc(F)cc7F)cc6)c(C(N)=O)c5N)C4)ccc3N3CCCC3)ccc2CC1C(=O)NC1CCCc2ccccc21)C(C)(C)C

> <Shape>
0.235

> <Color>
0.209

> <Negative vol penalty>
0.000

$$$$

  -OEChem-04042321113D

 82 90  0     1  0  0  0  0  0999 V2000
  -39.5850  -28.7987   21.7590 C   0  0  0  0  0  0  0  0  0  0  0  0
  -38.5606  -28.1289   22.4204 C   0  0  0  0  0  0  0  0  0  0  0  0
  -23.0068   -9.8884   19.9651 C   0  0  0  0  0  0  0  0  0  0  0  0
  -23.7375   -9.9146   22.2678 C   0  0  0  0  0  0  0  0  0  0  0  0
  -39.3998  -29.2316   20.4466 C   0  0  0  0  0  0  0  0  0  0  0  0
  -37.3500  -27.8925   21.7701 C   0  0  0  0  0  0  0  0  0  0  0  0
  -35.6602  -23.1698   22.4673 C   0  0  0  0  0  0  0  0  0  0  0  0
  -32.6606  -17.4044   23.4769 C   0  0  0  0  0  0  0  0  0  0  0  0
  -32.0428  -16.5290   22.5839 C   0  0  0  0  0  0  0  0  0  0  0  0
  -22.2461   -8.7473   20.2194 C   0  0  0  0  0  0  0  0  0  0  0  0
  -22.9767   -8.7734   22.5221 C   0  0  0  0  0  0  0  0  0  0  0  0
  -35.0513  -22.8853   23.6888 C   0  0  0  0  0  0  0  0  0  0  0  0
  -23.2348   -5.4417   22.0089 C   0  0  0  0  0  0  0  0  0  0  0  0
  -23.8288   -4.4180   22.7471 C   0  0  0  0  0  0  0  0  0  0  0  0
  -32.8839  -23.1131   22.6547 C   0  0  0  0  0  0  0  0  0  0  0  0
  -30.5057  -18.3242   24.0662 C   0  0  0  0  0  0  0  0  0  0  0  0
  -22.1079   -4.6327   24.4293 C   0  0  0  0  0  0  0  0  0  0  0  0
  -23.7526  -10.4720   20.9893 C   0  0  0  0  0  0  0  0  0  0  0  0
  -24.1262  -12.9913   20.8431 C   0  0  0  0  0  0  0  0  0  0  0  0
  -38.1897  -28.9918   19.7766 C   0  0  0  0  0  0  0  0  0  0  0  0
  -34.8841  -23.4393   21.3309 C   0  0  0  0  0  0  0  0  0  0  0  0
  -37.1479  -28.3237   20.4480 C   0  0  0  0  0  0  0  0  0  0  0  0
  -33.4853  -23.3983   21.4193 C   0  0  0  0  0  0  0  0  0  0  0  0
  -31.8921  -18.3020   24.2181 C   0  0  0  0  0  0  0  0  0  0  0  0
  -30.6564  -16.5512   22.4320 C   0  0  0  0  0  0  0  0  0  0  0  0
  -22.2310   -8.1898   21.4979 C   0  0  0  0  0  0  0  0  0  0  0  0
  -33.6630  -22.8597   23.7833 C   0  0  0  0  0  0  0  0  0  0  0  0
  -22.0774   -6.0609   22.4809 C   0  0  0  0  0  0  0  0  0  0  0  0
  -23.2653   -4.0135   23.9573 C   0  0  0  0  0  0  0  0  0  0  0  0
  -21.5140   -5.6564   23.6911 C   0  0  0  0  0  0  0  0  0  0  0  0
  -29.8878  -17.4488   23.1731 C   0  0  0  0  0  0  0  0  0  0  0  0
  -24.5391  -11.6505   20.7271 C   0  0  0  0  0  0  0  0  0  0  0  0
  -25.2318  -13.7233   20.4849 C   0  0  0  0  0  0  0  0  0  0  0  0
  -22.8567  -13.5272   21.2393 C   0  0  0  0  0  0  0  0  0  0  0  0
  -34.5305  -25.9369   19.3967 C   0  0  0  0  0  0  0  0  0  0  0  0
  -32.6779  -23.8754   17.7114 C   0  0  0  0  0  0  0  0  0  0  0  0
  -30.7390  -21.0669   17.7017 C   0  0  0  0  0  0  0  0  0  0  0  0
  -30.7075  -14.7062   20.7174 C   0  0  0  0  0  0  0  0  0  0  0  0
  -38.0192  -29.5204   18.3744 C   0  0  0  0  0  0  0  0  0  0  0  0
  -35.5562  -23.7183   20.0145 C   0  0  0  0  0  0  0  0  0  0  0  0
  -32.6070  -23.6605   20.2242 C   0  0  0  0  0  0  0  0  0  0  0  0
  -36.8405  -28.9000   17.6287 C   0  0  0  0  0  0  0  0  0  0  0  0
  -29.5945  -12.2769   18.3644 C   0  0  0  0  0  0  0  0  0  0  0  0
  -35.5990  -28.8801   18.5148 C   0  0  0  0  0  0  0  0  0  0  0  0
  -28.1461  -12.0076   18.7788 C   0  0  0  0  0  0  0  0  0  0  0  0
  -30.4969  -12.5096   19.5748 C   0  0  0  0  0  0  0  0  0  0  0  0
  -28.5813  -13.2734   20.9225 C   0  0  0  0  0  0  0  0  0  0  0  0
  -35.8292  -28.0266   19.7678 C   0  0  1  0  0  0  0  0  0  0  0  0
  -34.6666  -24.4837   19.0397 C   0  0  1  0  0  0  0  0  0  0  0  0
  -27.6215  -13.0973   19.7344 C   0  0  2  0  0  0  0  0  0  0  0  0
  -29.3270  -19.6532   16.1834 C   0  0  0  0  0  0  0  0  0  0  0  0
  -30.4606  -25.9682   17.8288 C   0  0  0  0  0  0  0  0  0  0  0  0
  -28.8354  -24.1822   17.1676 C   0  0  0  0  0  0  0  0  0  0  0  0
  -30.6893  -24.8132   15.6224 C   0  0  0  0  0  0  0  0  0  0  0  0
  -32.4513  -18.6913   18.1303 C   0  0  0  0  0  0  0  0  0  0  0  0
  -32.7609  -20.9759   26.7306 C   0  0  0  0  0  0  0  0  0  0  0  0
  -31.7921  -20.1326   25.9107 C   0  0  0  0  0  0  0  0  0  0  0  0
  -33.7719  -21.7256   25.8709 C   0  0  0  0  0  0  0  0  0  1  0  0
  -31.2153  -23.5015   17.7187 C   0  0  1  0  0  0  0  0  0  0  0  0
  -30.7119  -19.8648   16.7751 C   0  0  2  0  0  0  0  0  0  0  0  0
  -30.3164  -24.6132   17.1075 C   0  0  0  0  0  0  0  0  0  0  0  0
  -25.8080  -11.5346   20.3263 N   0  0  0  0  0  0  0  0  0  0  0  0
  -26.2019  -12.8119   20.1873 N   0  0  0  0  0  0  0  0  0  0  0  0
  -33.3114  -23.9347   18.9608 N   0  0  0  0  0  0  0  0  0  0  0  0
  -29.9391  -13.5576   20.4324 N   0  0  0  0  0  0  0  0  0  0  0  0
  -25.4591  -15.0512   20.3985 N   0  0  0  0  0  0  0  0  0  0  0  0
  -21.8298  -12.6343   21.5745 N   0  0  0  0  0  0  0  0  0  0  0  0
  -30.0608  -15.6488   21.5161 N   0  0  0  0  0  0  0  0  0  0  0  0
  -32.5068  -19.1725   25.1046 N   0  0  0  0  0  0  0  0  0  0  0  0
  -35.7312  -26.6191   19.4455 N   0  0  0  0  0  0  0  0  0  0  0  0
  -31.1196  -22.2144   17.0386 N   0  0  0  0  0  0  0  0  0  0  0  0
  -31.1001  -18.6312   17.5156 N   0  3  0  0  0  0  0  0  0  0  0  0
  -22.6346  -14.7612   21.2787 O   0  0  0  0  0  0  0  0  0  0  0  0
  -33.4184  -26.4049   19.6105 O   0  0  0  0  0  0  0  0  0  0  0  0
  -33.2395  -24.0993   16.6361 O   0  0  0  0  0  0  0  0  0  0  0  0
  -30.4478  -20.9959   18.8936 O   0  0  0  0  0  0  0  0  0  0  0  0
  -31.8444  -14.8558   20.2624 O   0  0  0  0  0  0  0  0  0  0  0  0
  -21.4885   -7.0765   21.7465 O   0  0  0  0  0  0  0  0  0  0  0  0
  -33.0661  -22.5829   24.9745 O   0  0  0  0  0  0  0  0  0  1  0  0
  -23.8349   -3.0294   24.6653 F   0  0  0  0  0  0  0  0  0  0  0  0
  -20.4015   -6.2467   24.1491 F   0  0  0  0  0  0  0  0  0  0  0  0
  -28.1683  -17.5100   23.0153 Cl  0  0  0  0  0  0  0  0  0  0  0  0
  1  2  1  0  0  0  0
  1  5  2  0  0  0  0
  2  6  2  0  0  0  0
  3 10  2  0  0  0  0
  3 18  1  0  0  0  0
  4 11  1  0  0  0  0
  4 18  2  0  0  0  0
  5 20  1  0  0  0  0
  6 22  1  0  0  0  0
  7 12  2  0  0  0  0
  7 21  1  0  0  0  0
  8  9  2  0  0  0  0
  8 24  1  0  0  0  0
  9 25  1  0  0  0  0
 10 26  1  0  0  0  0
 11 26  2  0  0  0  0
 12 27  1  0  0  0  0
 13 14  2  0  0  0  0
 13 28  1  0  0  0  0
 14 29  1  0  0  0  0
 15 23  1  0  0  0  0
 15 27  2  0  0  0  0
 16 24  2  0  0  0  0
 16 31  1  0  0  0  0
 17 29  2  0  0  0  0
 17 30  1  0  0  0  0
 18 32  1  0  0  0  0
 19 32  1  0  0  0  0
 19 33  2  0  0  0  0
 19 34  1  0  0  0  0
 20 22  2  0  0  0  0
 20 39  1  0  0  0  0
 21 23  2  0  0  0  0
 21 40  1  0  0  0  0
 22 48  1  0  0  0  0
 23 41  1  0  0  0  0
 24 69  1  0  0  0  0
 25 31  2  0  0  0  0
 25 68  1  0  0  0  0
 26 78  1  0  0  0  0
 27 79  1  0  0  0  0
 28 30  2  0  0  0  0
 28 78  1  0  0  0  0
 29 80  1  0  0  0  0
 30 81  1  0  0  0  0
 31 82  1  0  0  0  0
 32 62  2  0  0  0  0
 33 63  1  0  0  0  0
 33 66  1  0  0  0  0
 34 67  1  0  0  0  0
 34 73  2  0  0  0  0
 35 49  1  0  0  0  0
 35 70  1  0  0  0  0
 35 74  2  0  0  0  0
 36 59  1  0  0  0  0
 36 64  1  0  0  0  0
 36 75  2  0  0  0  0
 37 60  1  0  0  0  0
 37 71  1  0  0  0  0
 37 76  2  0  0  0  0
 38 65  1  0  0  0  0
 38 68  1  0  0  0  0
 38 77  2  0  0  0  0
 39 42  1  0  0  0  0
 40 49  1  0  0  0  0
 41 64  1  0  0  0  0
 42 44  1  0  0  0  0
 43 45  1  0  0  0  0
 43 46  1  0  0  0  0
 44 48  1  0  0  0  0
 45 50  1  0  0  0  0
 46 65  1  0  0  0  0
 47 50  1  0  0  0  0
 47 65  1  0  0  0  0
 48 70  1  0  0  0  0
 49 64  1  0  0  0  0
 50 63  1  0  0  0  0
 51 60  1  0  0  0  0
 52 61  1  0  0  0  0
 53 61  1  0  0  0  0
 54 61  1  0  0  0  0
 55 72  1  0  0  0  0
 56 57  1  0  0  0  0
 56 58  1  0  0  0  0
 57 69  1  0  0  0  0
 58 79  1  0  0  0  0
 59 61  1  0  0  0  0
 59 71  1  0  0  0  0
 60 72  1  0  0  0  0
 62 63  1  0  0  0  0
M  CHG  1  72   1
M  ISO  4  38 100  58 101  68 100  79 101
M  END
> <Batch ID>
0021

> <Smiles>
CNC(C)C(=O)NC(C(=O)N1Cc2cc([101O:1][101CH2:1]CCNc3ccc([100NH:0][100C:0](=O)N4CCCC(n5nc(-c6ccc(Oc7ccc(F)cc7F)cc6)c(C(N)=O)c5N)C4)c(Cl)c3)ccc2CC1C(=O)NC1CCCc2ccccc21)C(C)(C)C

> <Shape>
0.207

> <Color>
0.204

> <Negative vol penalty>
0.000

$$$$

  -OEChem-04042321113D

 88 97  0     1  0  0  0  0  0999 V2000
  -18.1868  -29.3264   26.3595 C   0  0  0  0  0  0  0  0  0  0  0  0
  -19.5184  -28.9311   26.4365 C   0  0  0  0  0  0  0  0  0  0  0  0
  -24.6127   -9.5513   22.1820 C   0  0  0  0  0  0  0  0  0  0  0  0
  -22.9071  -11.2610   22.2524 C   0  0  0  0  0  0  0  0  0  0  0  0
  -17.5345  -29.3384   25.1273 C   0  0  0  0  0  0  0  0  0  0  0  0
  -20.1982  -28.5464   25.2814 C   0  0  0  0  0  0  0  0  0  0  0  0
  -26.7289  -28.6815   22.3406 C   0  0  0  0  0  0  0  0  0  0  0  0
  -27.6775  -21.9344   23.0667 C   0  0  0  0  0  0  0  0  0  0  0  0
  -29.0399  -20.5256   21.6538 C   0  0  0  0  0  0  0  0  0  0  0  0
  -28.6583  -22.9253   23.0245 C   0  0  0  0  0  0  0  0  0  0  0  0
  -30.0207  -21.5166   21.6115 C   0  0  0  0  0  0  0  0  0  0  0  0
  -23.8383   -8.7444   23.0155 C   0  0  0  0  0  0  0  0  0  0  0  0
  -22.1326  -10.4540   23.0859 C   0  0  0  0  0  0  0  0  0  0  0  0
  -27.6619  -27.8305   21.7498 C   0  0  0  0  0  0  0  0  0  0  0  0
  -22.1504   -6.0866   24.8327 C   0  0  0  0  0  0  0  0  0  0  0  0
  -22.0241   -4.7389   24.4959 C   0  0  0  0  0  0  0  0  0  0  0  0
  -26.4566  -27.9664   19.6646 C   0  0  0  0  0  0  0  0  0  0  0  0
  -21.0281   -5.3599   22.3842 C   0  0  0  0  0  0  0  0  0  0  0  0
  -24.1471  -10.8096   21.8004 C   0  0  0  0  0  0  0  0  0  0  0  0
  -25.3879  -11.3451   19.6368 C   0  0  0  0  0  0  0  0  0  0  0  0
  -18.2095  -28.9629   23.9551 C   0  0  0  0  0  0  0  0  0  0  0  0
  -25.6449  -29.1735   21.5995 C   0  0  0  0  0  0  0  0  0  0  0  0
  -19.5540  -28.5521   24.0325 C   0  0  0  0  0  0  0  0  0  0  0  0
  -25.5127  -28.8256   20.2476 C   0  0  0  0  0  0  0  0  0  0  0  0
  -27.8683  -20.7345   22.3814 C   0  0  0  0  0  0  0  0  0  0  0  0
  -29.8299  -22.7164   22.2969 C   0  0  0  0  0  0  0  0  0  0  0  0
  -22.5983   -9.1957   23.4675 C   0  0  0  0  0  0  0  0  0  0  0  0
  -27.5243  -27.4705   20.4125 C   0  0  0  0  0  0  0  0  0  0  0  0
  -21.7154   -7.0709   23.9452 C   0  0  0  0  0  0  0  0  0  0  0  0
  -21.4630   -4.3755   23.2717 C   0  0  0  0  0  0  0  0  0  0  0  0
  -21.1543   -6.7076   22.7210 C   0  0  0  0  0  0  0  0  0  0  0  0
  -24.9468  -11.6439   20.9399 C   0  0  0  0  0  0  0  0  0  0  0  0
  -26.1057  -12.4521   19.2550 C   0  0  0  0  0  0  0  0  0  0  0  0
  -29.9690  -24.7968   20.2421 C   0  0  0  0  0  0  0  0  0  0  0  0
  -29.3680  -24.0213   19.3246 C   0  0  0  0  0  0  0  0  0  0  0  0
  -25.1684  -10.1718   18.8425 C   0  0  0  0  0  0  0  0  0  0  0  0
  -22.4835  -28.9193   21.8107 C   0  0  0  0  0  0  0  0  0  0  0  0
  -22.5387  -31.0696   19.3827 C   0  0  0  0  0  0  0  0  0  0  0  0
  -24.2494  -32.4463   16.7702 C   0  0  0  0  0  0  0  0  0  0  0  0
  -25.8843  -18.0568   20.7197 C   0  0  0  0  0  0  0  0  0  0  0  0
  -17.4488  -28.9466   22.6529 C   0  0  0  0  0  0  0  0  0  0  0  0
  -24.6619  -30.1119   22.2442 C   0  0  0  0  0  0  0  0  0  0  0  0
  -24.3780  -29.3428   19.4029 C   0  0  0  0  0  0  0  0  0  0  0  0
  -18.3495  -28.8829   21.4220 C   0  0  0  0  0  0  0  0  0  0  0  0
  -28.7460  -16.0117   21.0354 C   0  0  0  0  0  0  0  0  0  0  0  0
  -31.8973  -26.6448   21.2842 C   0  0  0  0  0  0  0  0  0  0  0  0
  -19.4286  -27.8204   21.6046 C   0  0  0  0  0  0  0  0  0  0  0  0
  -30.6562  -27.1711   20.5722 C   0  0  0  0  0  0  0  0  0  0  0  0
  -28.1338  -14.6158   20.9275 C   0  0  0  0  0  0  0  0  0  0  0  0
  -27.8713  -16.9608   21.8565 C   0  0  0  0  0  0  0  0  0  0  0  0
  -25.8576  -15.6443   21.2780 C   0  0  0  0  0  0  0  0  0  0  0  0
  -32.2983  -25.2693   20.7612 C   0  0  0  0  0  0  0  0  0  0  0  0
  -20.3326  -28.1515   22.7982 C   0  0  1  0  0  0  0  0  0  0  0  0
  -29.5008  -26.1747   20.6533 C   0  0  1  0  0  0  0  0  0  1  0  0
  -23.3115  -30.1424   21.5350 C   0  0  1  0  0  0  0  0  0  0  0  0
  -26.6876  -14.6881   20.4076 C   0  0  2  0  0  0  0  0  0  0  0  0
  -24.6659  -21.1029   20.6268 C   0  0  0  0  0  0  0  0  0  0  0  0
  -24.0202  -34.1564   14.9480 C   0  0  0  0  0  0  0  0  0  0  0  0
  -20.7583  -29.1533   17.8117 C   0  0  0  0  0  0  0  0  0  0  0  0
  -21.3421  -30.4240   15.7350 C   0  0  0  0  0  0  0  0  0  0  0  0
  -20.1380  -31.5665   17.5971 C   0  0  0  0  0  0  0  0  0  0  0  0
  -26.5220  -34.0304   17.8118 C   0  0  0  0  0  0  0  0  0  0  0  0
  -26.8202  -19.6746   22.4261 C   0  0  0  0  0  0  0  0  0  0  0  0
  -30.8836  -23.7834   22.2506 C   0  0  0  0  0  0  0  0  0  0  0  0
  -25.9904  -20.4737   20.2446 C   0  0  0  0  0  0  0  0  0  0  0  0
  -22.5815  -30.9803   17.8763 C   0  0  1  0  0  0  0  0  0  0  0  0
  -24.4862  -33.8917   16.3712 C   0  0  2  0  0  0  0  0  0  0  0  0
  -21.2254  -30.5196   17.2712 C   0  0  0  0  0  0  0  0  0  0  0  0
  -25.3507  -12.8464   21.3579 N   0  0  0  0  0  0  0  0  0  0  0  0
  -26.0533  -13.3130   20.3116 N   0  0  0  0  0  0  0  0  0  0  0  0
  -23.4394  -30.2524   20.0804 N   0  0  0  0  0  0  0  0  0  0  0  0
  -26.4895  -16.9636   21.3569 N   0  0  0  0  0  0  0  0  0  0  0  0
  -26.7704  -12.7633   18.1220 N   0  0  0  0  0  0  0  0  0  0  0  0
  -24.0418  -10.1298   18.0099 N   0  0  0  0  0  0  0  0  0  0  0  0
  -21.2828  -29.1833   22.4417 N   0  0  0  0  0  0  0  0  0  0  0  0
  -23.0351  -32.2836   17.4029 N   0  0  0  0  0  0  0  0  0  0  0  0
  -26.3130  -19.3382   21.0972 N   0  0  0  0  0  0  0  0  0  0  0  0
  -31.1683  -24.2703   20.8563 N   0  3  1  0  0  0  0  0  0  0  0  0
  -25.9366  -34.2225   16.4599 N   0  3  0  0  0  0  0  0  0  0  0  0
  -25.9393   -9.1831   18.8826 O   0  0  0  0  0  0  0  0  0  0  0  0
  -22.9022  -27.8178   21.4746 O   0  0  0  0  0  0  0  0  0  0  0  0
  -21.7406  -31.8414   19.9203 O   0  0  0  0  0  0  0  0  0  0  0  0
  -25.0588  -31.5505   16.5402 O   0  0  0  0  0  0  0  0  0  0  0  0
  -25.0027  -17.8983   19.8655 O   0  0  0  0  0  0  0  0  0  0  0  0
  -21.8422   -8.4085   24.2807 O   0  0  0  0  0  0  0  0  0  0  0  0
  -28.4332  -26.6395   19.8335 O   0  0  0  0  0  0  0  0  0  1  0  0
  -21.3432   -3.0814   22.9478 F   0  0  0  0  0  0  0  0  0  0  0  0
  -20.7358   -7.6488   21.8638 F   0  0  0  0  0  0  0  0  0  0  0  0
  1  2  1  0  0  0  0
  1  5  2  0  0  0  0
  2  6  2  0  0  0  0
  3 12  2  0  0  0  0
  3 19  1  0  0  0  0
  4 13  1  0  0  0  0
  4 19  2  0  0  0  0
  5 21  1  0  0  0  0
  6 23  1  0  0  0  0
  7 14  2  0  0  0  0
  7 22  1  0  0  0  0
  8 10  2  0  0  0  0
  8 25  1  0  0  0  0
  9 11  1  0  0  0  0
  9 25  2  0  0  0  0
 10 26  1  0  0  0  0
 11 26  2  0  0  0  0
 12 27  1  0  0  0  0
 13 27  2  0  0  0  0
 14 28  1  0  0  0  0
 15 16  2  0  0  0  0
 15 29  1  0  0  0  0
 16 30  1  0  0  0  0
 17 24  1  0  0  0  0
 17 28  2  0  0  0  0
 18 30  2  0  0  0  0
 18 31  1  0  0  0  0
 19 32  1  0  0  0  0
 20 32  1  0  0  0  0
 20 33  2  0  0  0  0
 20 36  1  0  0  0  0
 21 23  2  0  0  0  0
 21 41  1  0  0  0  0
 22 24  2  0  0  0  0
 22 42  1  0  0  0  0
 23 53  1  0  0  0  0
 24 43  1  0  0  0  0
 25 63  1  0  0  0  0
 26 64  1  0  0  0  0
 27 85  1  0  0  0  0
 28 86  1  0  0  0  0
 29 31  2  0  0  0  0
 29 85  1  0  0  0  0
 30 87  1  0  0  0  0
 31 88  1  0  0  0  0
 32 69  2  0  0  0  0
 33 70  1  0  0  0  0
 33 73  1  0  0  0  0
 34 35  2  0  0  0  0
 34 54  1  0  0  0  0
 34 78  1  0  0  0  0
 36 74  1  0  0  0  0
 36 80  2  0  0  0  0
 37 55  1  0  0  0  0
 37 75  1  0  0  0  0
 37 81  2  0  0  0  0
 38 66  1  0  0  0  0
 38 71  1  0  0  0  0
 38 82  2  0  0  0  0
 39 67  1  0  0  0  0
 39 76  1  0  0  0  0
 39 83  2  0  0  0  0
 40 72  1  0  0  0  0
 40 77  1  0  0  0  0
 40 84  2  0  0  0  0
 41 44  1  0  0  0  0
 42 55  1  0  0  0  0
 43 71  1  0  0  0  0
 44 47  1  0  0  0  0
 45 49  1  0  0  0  0
 45 50  1  0  0  0  0
 46 48  1  0  0  0  0
 46 52  1  0  0  0  0
 47 53  1  0  0  0  0
 48 54  1  0  0  0  0
 49 56  1  0  0  0  0
 50 72  1  0  0  0  0
 51 56  1  0  0  0  0
 51 72  1  0  0  0  0
 52 78  1  0  0  0  0
 53 75  1  0  0  0  0
 54 86  1  0  0  0  0
 55 71  1  0  0  0  0
 56 70  1  0  0  0  0
 57 65  1  0  0  0  0
 58 67  1  0  0  0  0
 59 68  1  0  0  0  0
 60 68  1  0  0  0  0
 61 68  1  0  0  0  0
 62 79  1  0  0  0  0
 63 77  1  0  0  0  0
 64 78  1  0  0  0  0
 65 77  1  0  0  0  0
 66 68  1  0  0  0  0
 66 76  1  0  0  0  0
 67 79  1  0  0  0  0
 69 70  1  0  0  0  0
M  CHG  2  78   1  79   1
M  ISO  4  40 100  54 101  77 100  86 101
M  END
> <Batch ID>
0021

> <Smiles>
C=C1N(Cc2ccc(C[100N:0](CC)[100C:0](=O)N3CCCC(n4nc(-c5ccc(Oc6ccc(F)cc6F)cc5)c(C(N)=O)c4N)C3)cc2)CCC[101CH:1]1[101O:1]c1ccc2c(c1)CN(C(=O)C(NC(=O)C(C)NC)C(C)(C)C)C(C(=O)NC1CCCc3ccccc31)C2

> <Shape>
0.262

> <Color>
0.100

> <Negative vol penalty>
0.000

$$$$

  -OEChem-04042321113D

 84 93  0     1  0  0  0  0  0999 V2000
  -18.1122  -29.5557   24.1003 C   0  0  0  0  0  0  0  0  0  0  0  0
  -19.4997  -29.6371   24.0405 C   0  0  0  0  0  0  0  0  0  0  0  0
  -25.0847  -13.3105   19.5584 C   0  0  0  0  0  0  0  0  0  0  0  0
  -25.9701  -13.9078   21.7255 C   0  0  0  0  0  0  0  0  0  0  0  0
  -17.4525  -28.4757   23.5152 C   0  0  0  0  0  0  0  0  0  0  0  0
  -20.2284  -28.6378   23.3964 C   0  0  0  0  0  0  0  0  0  0  0  0
  -25.3954  -29.3390   20.1845 C   0  0  0  0  0  0  0  0  0  0  0  0
  -30.5261  -24.6917   21.2978 C   0  0  0  0  0  0  0  0  0  0  0  0
  -30.3139  -23.5437   20.5346 C   0  0  0  0  0  0  0  0  0  0  0  0
  -24.9608  -11.9849   19.9744 C   0  0  0  0  0  0  0  0  0  0  0  0
  -25.8462  -12.5822   22.1415 C   0  0  0  0  0  0  0  0  0  0  0  0
  -26.7369  -29.1474   20.5123 C   0  0  0  0  0  0  0  0  0  0  0  0
  -22.8271  -10.1522   21.8508 C   0  0  0  0  0  0  0  0  0  0  0  0
  -21.6397   -9.4859   21.5476 C   0  0  0  0  0  0  0  0  0  0  0  0
  -26.6511  -26.9385   19.5467 C   0  0  0  0  0  0  0  0  0  0  0  0
  -28.0459  -23.4158   21.3574 C   0  0  0  0  0  0  0  0  0  0  0  0
  -22.8832   -7.8457   20.2824 C   0  0  0  0  0  0  0  0  0  0  0  0
  -25.5895  -14.2720   20.4339 C   0  0  0  0  0  0  0  0  0  0  0  0
  -24.7549  -16.6617   20.1172 C   0  0  0  0  0  0  0  0  0  0  0  0
  -18.1729  -27.4677   22.8553 C   0  0  0  0  0  0  0  0  0  0  0  0
  -24.6675  -28.3259   19.5440 C   0  0  0  0  0  0  0  0  0  0  0  0
  -19.5779  -27.5426   22.8031 C   0  0  0  0  0  0  0  0  0  0  0  0
  -25.3012  -27.1207   19.2095 C   0  0  0  0  0  0  0  0  0  0  0  0
  -29.4981  -25.2018   22.0909 C   0  0  0  0  0  0  0  0  0  0  0  0
  -29.0739  -22.9057   20.5643 C   0  0  0  0  0  0  0  0  0  0  0  0
  -25.3415  -11.6208   21.2659 C   0  0  0  0  0  0  0  0  0  0  0  0
  -27.3642  -27.9459   20.1960 C   0  0  0  0  0  0  0  0  0  0  0  0
  -24.0425   -9.6653   21.3698 C   0  0  0  0  0  0  0  0  0  0  0  0
  -21.6678   -8.3327   20.7635 C   0  0  0  0  0  0  0  0  0  0  0  0
  -24.0705   -8.5120   20.5856 C   0  0  0  0  0  0  0  0  0  0  0  0
  -28.2581  -24.5638   22.1207 C   0  0  0  0  0  0  0  0  0  0  0  0
  -25.7183  -15.6413   20.0046 C   0  0  0  0  0  0  0  0  0  0  0  0
  -25.3586  -17.7660   19.5671 C   0  0  0  0  0  0  0  0  0  0  0  0
  -23.4327  -16.6155   20.6696 C   0  0  0  0  0  0  0  0  0  0  0  0
  -22.1085  -26.5918   20.2843 C   0  0  0  0  0  0  0  0  0  0  0  0
  -22.4412  -25.5142   17.2428 C   0  0  0  0  0  0  0  0  0  0  0  0
  -24.4879  -24.9888   14.5629 C   0  0  0  0  0  0  0  0  0  0  0  0
  -29.7725  -21.1034   18.9488 C   0  0  0  0  0  0  0  0  0  0  0  0
  -17.4191  -26.2954   22.2790 C   0  0  0  0  0  0  0  0  0  0  0  0
  -23.2284  -28.5583   19.1733 C   0  0  0  0  0  0  0  0  0  0  0  0
  -24.5696  -26.0092   18.5038 C   0  0  0  0  0  0  0  0  0  0  0  0
  -18.2390  -25.4706   21.2902 C   0  0  0  0  0  0  0  0  0  0  0  0
  -29.6395  -18.1943   16.9002 C   0  0  0  0  0  0  0  0  0  0  0  0
  -29.9512  -27.8141   24.6771 C   0  0  0  0  0  0  0  0  0  0  0  0
  -19.6283  -25.1887   21.8534 C   0  0  0  0  0  0  0  0  0  0  0  0
  -28.5282  -17.3547   17.5345 C   0  0  0  0  0  0  0  0  0  0  0  0
  -30.8539  -28.2874   23.5487 C   0  0  0  0  0  0  0  0  0  0  0  0
  -29.6309  -26.3722   24.2961 C   0  0  0  0  0  0  0  0  0  0  0  0
  -30.4629  -18.9338   17.9532 C   0  0  0  0  0  0  0  0  0  0  0  0
  -28.5701  -18.9052   19.5298 C   0  0  0  0  0  0  0  0  0  0  0  0
  -20.4017  -26.4912   22.0919 C   0  0  1  0  0  0  0  0  0  0  0  0
  -22.4439  -27.2639   18.9829 C   0  0  1  0  0  0  0  0  0  0  0  0
  -27.6727  -18.1928   18.5047 C   0  0  2  0  0  0  0  0  0  0  0  0
  -30.2755  -27.5993   22.3043 C   0  0  2  0  0  0  0  0  0  0  0  0
  -24.4824  -24.0571   12.2328 C   0  0  0  0  0  0  0  0  0  0  0  0
  -22.4287  -22.6819   18.3779 C   0  0  0  0  0  0  0  0  0  0  0  0
  -23.3611  -21.8788   16.1976 C   0  0  0  0  0  0  0  0  0  0  0  0
  -21.1170  -22.9659   16.2676 C   0  0  0  0  0  0  0  0  0  0  0  0
  -25.2627  -27.5952   13.3944 C   0  0  0  0  0  0  0  0  0  0  0  0
  -29.1655  -28.4360   21.6694 C   0  0  0  0  0  0  0  0  0  1  0  0
  -23.1892  -24.3788   16.5867 C   0  0  1  0  0  0  0  0  0  0  0  0
  -24.3169  -25.3038   13.0878 C   0  0  2  0  0  0  0  0  0  0  0  0
  -22.5375  -22.9964   16.8725 C   0  0  0  0  0  0  0  0  0  0  0  0
  -26.8480  -16.0601   19.4282 N   0  0  0  0  0  0  0  0  0  0  0  0
  -26.5984  -17.3558   19.1735 N   0  0  0  0  0  0  0  0  0  0  0  0
  -29.7384  -26.3408   22.8362 N   0  0  3  0  0  0  0  0  0  0  0  0
  -23.1624  -26.2821   18.1680 N   0  0  0  0  0  0  0  0  0  0  0  0
  -29.5863  -19.7096   18.8333 N   0  0  0  0  0  0  0  0  0  0  0  0
  -24.9445  -19.0381   19.3864 N   0  0  0  0  0  0  0  0  0  0  0  0
  -22.9693  -15.4006   21.1929 N   0  0  0  0  0  0  0  0  0  0  0  0
  -28.8590  -21.7395   19.7887 N   0  0  0  0  0  0  0  0  0  0  0  0
  -20.9155  -27.0099   20.8424 N   0  0  0  0  0  0  0  0  0  0  0  0
  -23.2805  -24.7149   15.1700 N   0  0  0  0  0  0  0  0  0  0  0  0
  -25.3267  -26.3097   12.6525 N   0  3  0  0  0  0  0  0  0  0  0  0
  -22.6782  -17.6175   20.6835 O   0  0  0  0  0  0  0  0  0  0  0  0
  -22.8746  -25.7547   20.7470 O   0  0  0  0  0  0  0  0  0  0  0  0
  -21.2627  -25.7168   16.9401 O   0  0  0  0  0  0  0  0  0  0  0  0
  -25.5834  -24.9823   15.1200 O   0  0  0  0  0  0  0  0  0  0  0  0
  -30.6587  -21.6935   18.3256 O   0  0  0  0  0  0  0  0  0  0  0  0
  -25.2205  -10.3274   21.6723 O   0  0  0  0  0  0  0  0  0  0  0  0
  -28.6733  -27.7561   20.5153 O   0  0  0  0  0  0  0  0  0  1  0  0
  -20.5277   -7.6921   20.4737 F   0  0  0  0  0  0  0  0  0  0  0  0
  -25.2352   -8.0388   20.1216 F   0  0  0  0  0  0  0  0  0  0  0  0
  -26.9586  -25.1622   23.0889 Cl  0  0  0  0  0  0  0  0  0  0  0  0
  1  2  1  0  0  0  0
  1  5  2  0  0  0  0
  2  6  2  0  0  0  0
  3 10  2  0  0  0  0
  3 18  1  0  0  0  0
  4 11  1  0  0  0  0
  4 18  2  0  0  0  0
  5 20  1  0  0  0  0
  6 22  1  0  0  0  0
  7 12  2  0  0  0  0
  7 21  1  0  0  0  0
  8  9  2  0  0  0  0
  8 24  1  0  0  0  0
  9 25  1  0  0  0  0
 10 26  1  0  0  0  0
 11 26  2  0  0  0  0
 12 27  1  0  0  0  0
 13 14  2  0  0  0  0
 13 28  1  0  0  0  0
 14 29  1  0  0  0  0
 15 23  1  0  0  0  0
 15 27  2  0  0  0  0
 16 25  2  0  0  0  0
 16 31  1  0  0  0  0
 17 29  2  0  0  0  0
 17 30  1  0  0  0  0
 18 32  1  0  0  0  0
 19 32  1  0  0  0  0
 19 33  2  0  0  0  0
 19 34  1  0  0  0  0
 20 22  2  0  0  0  0
 20 39  1  0  0  0  0
 21 23  2  0  0  0  0
 21 40  1  0  0  0  0
 22 51  1  0  0  0  0
 23 41  1  0  0  0  0
 24 31  2  0  0  0  0
 24 66  1  0  0  0  0
 25 71  1  0  0  0  0
 26 80  1  0  0  0  0
 27 81  1  0  0  0  0
 28 30  2  0  0  0  0
 28 80  1  0  0  0  0
 29 82  1  0  0  0  0
 30 83  1  0  0  0  0
 31 84  1  0  0  0  0
 32 64  2  0  0  0  0
 33 65  1  0  0  0  0
 33 69  1  0  0  0  0
 34 70  1  0  0  0  0
 34 75  2  0  0  0  0
 35 52  1  0  0  0  0
 35 72  1  0  0  0  0
 35 76  2  0  0  0  0
 36 61  1  0  0  0  0
 36 67  1  0  0  0  0
 36 77  2  0  0  0  0
 37 62  1  0  0  0  0
 37 73  1  0  0  0  0
 37 78  2  0  0  0  0
 38 68  1  0  0  0  0
 38 71  1  0  0  0  0
 38 79  2  0  0  0  0
 39 42  1  0  0  0  0
 40 52  1  0  0  0  0
 41 67  1  0  0  0  0
 42 45  1  0  0  0  0
 43 46  1  0  0  0  0
 43 49  1  0  0  0  0
 44 47  1  0  0  0  0
 44 48  1  0  0  0  0
 45 51  1  0  0  0  0
 46 53  1  0  0  0  0
 47 54  1  0  0  0  0
 48 66  1  0  0  0  0
 49 68  1  0  0  0  0
 50 53  1  0  0  0  0
 50 68  1  0  0  0  0
 51 72  1  0  0  0  0
 52 67  1  0  0  0  0
 53 65  1  0  0  0  0
 54 60  1  0  0  0  0
 54 66  1  0  0  0  0
 55 62  1  0  0  0  0
 56 63  1  0  0  0  0
 57 63  1  0  0  0  0
 58 63  1  0  0  0  0
 59 74  1  0  0  0  0
 60 81  1  0  0  0  0
 61 63  1  0  0  0  0
 61 73  1  0  0  0  0
 62 74  1  0  0  0  0
 64 65  1  0  0  0  0
M  CHG  1  74   1
M  ISO  4  38 100  60 101  71 100  81 101
M  END
> <Batch ID>
0021

> <Smiles>
CNC(C)C(=O)NC(C(=O)N1Cc2cc([101O:1][101CH2:1]C3CCCN3c3ccc([100NH:0][100C:0](=O)N4CCCC(n5nc(-c6ccc(Oc7ccc(F)cc7F)cc6)c(C(N)=O)c5N)C4)cc3Cl)ccc2CC1C(=O)NC1CCCc2ccccc21)C(C)(C)C

> <Shape>
0.238

> <Color>
0.066

> <Negative vol penalty>
0.000

$$$$

  -OEChem-04042321113D

 85 93  0     1  0  0  0  0  0999 V2000
  -34.4674  -31.2802   29.3627 C   0  0  0  0  0  0  0  0  0  0  0  0
  -34.8187  -29.9995   28.9482 C   0  0  0  0  0  0  0  0  0  0  0  0
  -22.9751  -10.0440   19.8769 C   0  0  0  0  0  0  0  0  0  0  0  0
  -23.8049   -9.8040   22.1332 C   0  0  0  0  0  0  0  0  0  0  0  0
  -33.2233  -31.8066   29.0176 C   0  0  0  0  0  0  0  0  0  0  0  0
  -33.9255  -29.2440   28.1893 C   0  0  0  0  0  0  0  0  0  0  0  0
  -35.3178  -25.2736   23.7392 C   0  0  0  0  0  0  0  0  0  0  0  0
  -32.9665  -16.9229   23.7391 C   0  0  0  0  0  0  0  0  0  0  0  0
  -32.2966  -16.1602   22.7825 C   0  0  0  0  0  0  0  0  0  0  0  0
  -22.1946   -8.8999   20.0423 C   0  0  0  0  0  0  0  0  0  0  0  0
  -23.0243   -8.6599   22.2986 C   0  0  0  0  0  0  0  0  0  0  0  0
  -35.4333  -23.8843   23.7240 C   0  0  0  0  0  0  0  0  0  0  0  0
  -23.1673   -5.3981   21.4203 C   0  0  0  0  0  0  0  0  0  0  0  0
  -23.7639   -4.2873   22.0167 C   0  0  0  0  0  0  0  0  0  0  0  0
  -33.1655  -23.7105   22.9203 C   0  0  0  0  0  0  0  0  0  0  0  0
  -22.1239   -4.3582   23.7894 C   0  0  0  0  0  0  0  0  0  0  0  0
  -23.7803  -10.4961   20.9224 C   0  0  0  0  0  0  0  0  0  0  0  0
  -24.2171  -13.0071   21.0297 C   0  0  0  0  0  0  0  0  0  0  0  0
  -32.3183  -31.0609   28.2459 C   0  0  0  0  0  0  0  0  0  0  0  0
  -34.1196  -25.8924   23.3547 C   0  0  0  0  0  0  0  0  0  0  0  0
  -32.6676  -29.7604   27.8347 C   0  0  0  0  0  0  0  0  0  0  0  0
  -33.0382  -25.1079   22.9290 C   0  0  0  0  0  0  0  0  0  0  0  0
  -30.8558  -17.8113   24.5090 C   0  0  0  0  0  0  0  0  0  0  0  0
  -30.1859  -17.0486   23.5523 C   0  0  0  0  0  0  0  0  0  0  0  0
  -32.2461  -17.7484   24.6024 C   0  0  0  0  0  0  0  0  0  0  0  0
  -30.9063  -16.2231   22.6891 C   0  0  0  0  0  0  0  0  0  0  0  0
  -22.2191   -8.2078   21.2531 C   0  0  0  0  0  0  0  0  0  0  0  0
  -34.3561  -23.1024   23.3173 C   0  0  0  0  0  0  0  0  0  0  0  0
  -22.0491   -5.9891   22.0086 C   0  0  0  0  0  0  0  0  0  0  0  0
  -23.2422   -3.7673   23.2012 C   0  0  0  0  0  0  0  0  0  0  0  0
  -21.5274   -5.4691   23.1931 C   0  0  0  0  0  0  0  0  0  0  0  0
  -24.5872  -11.6776   20.7520 C   0  0  0  0  0  0  0  0  0  0  0  0
  -25.3262  -13.7479   20.7016 C   0  0  0  0  0  0  0  0  0  0  0  0
  -22.9814  -13.5261   21.5389 C   0  0  0  0  0  0  0  0  0  0  0  0
  -31.9922  -27.7569   24.8044 C   0  0  0  0  0  0  0  0  0  0  0  0
  -30.6996  -27.9294   21.8343 C   0  0  0  0  0  0  0  0  0  0  0  0
  -30.3253  -26.5155   18.7509 C   0  0  0  0  0  0  0  0  0  0  0  0
  -30.8320  -14.5737   20.7863 C   0  0  0  0  0  0  0  0  0  0  0  0
  -30.9663  -31.6540   27.9377 C   0  0  0  0  0  0  0  0  0  0  0  0
  -34.0199  -27.3933   23.3512 C   0  0  0  0  0  0  0  0  0  0  0  0
  -31.7368  -25.7242   22.4873 C   0  0  0  0  0  0  0  0  0  0  0  0
  -30.2264  -30.9325   26.8142 C   0  0  0  0  0  0  0  0  0  0  0  0
  -29.5513  -12.4395   18.2403 C   0  0  0  0  0  0  0  0  0  0  0  0
  -30.2874  -29.4221   27.0187 C   0  0  0  0  0  0  0  0  0  0  0  0
  -28.1152  -12.1603   18.6897 C   0  0  0  0  0  0  0  0  0  0  0  0
  -30.5113  -12.5190   19.4261 C   0  0  0  0  0  0  0  0  0  0  0  0
  -28.6776  -13.1764   20.9343 C   0  0  0  0  0  0  0  0  0  0  0  0
  -31.7359  -28.9195   26.9893 C   0  0  1  0  0  0  0  0  0  0  0  0
  -32.5820  -27.8968   23.4296 C   0  0  1  0  0  0  0  0  0  0  0  0
  -27.6630  -13.1520   19.7795 C   0  0  2  0  0  0  0  0  0  0  0  0
  -30.0807  -18.6964   25.4345 C   0  0  0  0  0  0  0  0  0  0  0  0
  -28.2349  -17.9695   22.2747 C   0  0  0  0  0  0  0  0  0  0  0  0
  -29.1794  -26.8708   16.5468 C   0  0  0  0  0  0  0  0  0  0  0  0
  -28.0527  -27.0496   23.0713 C   0  0  0  0  0  0  0  0  0  0  0  0
  -27.2353  -26.5101   20.7672 C   0  0  0  0  0  0  0  0  0  0  0  0
  -27.8519  -28.8552   21.3526 C   0  0  0  0  0  0  0  0  0  0  0  0
  -33.1993  -17.9476   26.8854 C   0  0  0  0  0  0  0  0  0  0  0  0
  -32.9015  -26.6326   17.2988 C   0  0  0  0  0  0  0  0  0  0  0  0
  -28.6937  -17.1177   23.4526 C   0  0  0  0  0  0  0  0  0  0  0  0
  -34.8061  -19.7795   24.6349 C   0  0  0  0  0  0  0  0  0  0  0  0
  -33.4178  -19.8350   25.2610 C   0  0  0  0  0  0  0  0  0  0  0  0
  -35.3445  -21.1549   24.2588 C   0  0  0  0  0  0  0  0  0  1  0  0
  -29.6764  -27.1288   21.0655 C   0  0  1  0  0  0  0  0  0  0  0  0
  -30.4480  -27.0976   17.3542 C   0  0  2  0  0  0  0  0  0  0  0  0
  -28.2278  -27.3739   21.5742 C   0  0  0  0  0  0  0  0  0  0  0  0
  -25.8339  -11.5765   20.2833 N   0  0  0  0  0  0  0  0  0  0  0  0
  -26.2568  -12.8520   20.2640 N   0  0  0  0  0  0  0  0  0  0  0  0
  -31.6865  -27.1954   22.5074 N   0  0  0  0  0  0  0  0  0  0  0  0
  -30.0204  -13.4807   20.4156 N   0  0  0  0  0  0  0  0  0  0  0  0
  -25.5863  -15.0718   20.7475 N   0  0  0  0  0  0  0  0  0  0  0  0
  -21.9454  -12.6260   21.8234 N   0  0  0  0  0  0  0  0  0  0  0  0
  -30.2469  -15.4390   21.7102 N   0  0  0  0  0  0  0  0  0  0  0  0
  -32.2173  -28.8445   25.6265 N   0  0  0  0  0  0  0  0  0  0  0  0
  -29.8782  -27.4533   19.6575 N   0  0  0  0  0  0  0  0  0  0  0  0
  -32.9380  -18.5068   25.5577 N   0  0  3  0  0  0  0  0  0  0  0  0
  -31.5863  -26.4665   16.6283 N   0  3  0  0  0  0  0  0  0  0  0  0
  -22.7955  -14.7533   21.7203 O   0  0  0  0  0  0  0  0  0  0  0  0
  -31.3771  -26.7382   25.0972 O   0  0  0  0  0  0  0  0  0  0  0  0
  -30.6300  -29.1610   21.8317 O   0  0  0  0  0  0  0  0  0  0  0  0
  -30.5952  -25.3450   19.0108 O   0  0  0  0  0  0  0  0  0  0  0  0
  -31.9519  -14.7455   20.2982 O   0  0  0  0  0  0  0  0  0  0  0  0
  -21.4575   -7.0915   21.4149 O   0  0  0  0  0  0  0  0  0  0  0  0
  -34.4660  -21.7461   23.3022 O   0  0  0  0  0  0  0  0  0  1  0  0
  -23.8142   -2.6995   23.7729 F   0  0  0  0  0  0  0  0  0  0  0  0
  -20.4526   -6.0319   23.7622 F   0  0  0  0  0  0  0  0  0  0  0  0
  1  2  1  0  0  0  0
  1  5  2  0  0  0  0
  2  6  2  0  0  0  0
  3 10  2  0  0  0  0
  3 17  1  0  0  0  0
  4 11  1  0  0  0  0
  4 17  2  0  0  0  0
  5 19  1  0  0  0  0
  6 21  1  0  0  0  0
  7 12  2  0  0  0  0
  7 20  1  0  0  0  0
  8  9  1  0  0  0  0
  8 25  2  0  0  0  0
  9 26  2  0  0  0  0
 10 27  1  0  0  0  0
 11 27  2  0  0  0  0
 12 28  1  0  0  0  0
 13 14  2  0  0  0  0
 13 29  1  0  0  0  0
 14 30  1  0  0  0  0
 15 22  1  0  0  0  0
 15 28  2  0  0  0  0
 16 30  2  0  0  0  0
 16 31  1  0  0  0  0
 17 32  1  0  0  0  0
 18 32  1  0  0  0  0
 18 33  2  0  0  0  0
 18 34  1  0  0  0  0
 19 21  2  0  0  0  0
 19 39  1  0  0  0  0
 20 22  2  0  0  0  0
 20 40  1  0  0  0  0
 21 48  1  0  0  0  0
 22 41  1  0  0  0  0
 23 24  2  0  0  0  0
 23 25  1  0  0  0  0
 23 51  1  0  0  0  0
 24 26  1  0  0  0  0
 24 59  1  0  0  0  0
 25 75  1  0  0  0  0
 26 72  1  0  0  0  0
 27 82  1  0  0  0  0
 28 83  1  0  0  0  0
 29 31  2  0  0  0  0
 29 82  1  0  0  0  0
 30 84  1  0  0  0  0
 31 85  1  0  0  0  0
 32 66  2  0  0  0  0
 33 67  1  0  0  0  0
 33 70  1  0  0  0  0
 34 71  1  0  0  0  0
 34 77  2  0  0  0  0
 35 49  1  0  0  0  0
 35 73  1  0  0  0  0
 35 78  2  0  0  0  0
 36 63  1  0  0  0  0
 36 68  1  0  0  0  0
 36 79  2  0  0  0  0
 37 64  1  0  0  0  0
 37 74  1  0  0  0  0
 37 80  2  0  0  0  0
 38 69  1  0  0  0  0
 38 72  1  0  0  0  0
 38 81  2  0  0  0  0
 39 42  1  0  0  0  0
 40 49  1  0  0  0  0
 41 68  1  0  0  0  0
 42 44  1  0  0  0  0
 43 45  1  0  0  0  0
 43 46  1  0  0  0  0
 44 48  1  0  0  0  0
 45 50  1  0  0  0  0
 46 69  1  0  0  0  0
 47 50  1  0  0  0  0
 47 69  1  0  0  0  0
 48 73  1  0  0  0  0
 49 68  1  0  0  0  0
 50 67  1  0  0  0  0
 52 59  1  0  0  0  0
 53 64  1  0  0  0  0
 54 65  1  0  0  0  0
 55 65  1  0  0  0  0
 56 65  1  0  0  0  0
 57 75  1  0  0  0  0
 58 76  1  0  0  0  0
 60 61  1  0  0  0  0
 60 62  1  0  0  0  0
 61 75  1  0  0  0  0
 62 83  1  0  0  0  0
 63 65  1  0  0  0  0
 63 74  1  0  0  0  0
 64 76  1  0  0  0  0
 66 67  1  0  0  0  0
M  CHG  1  76   1
M  ISO  4  38 100  62 101  72 100  83 101
M  END
> <Batch ID>
0021

> <Smiles>
CCc1c([100NH:0][100C:0](=O)N2CCCC(n3nc(-c4ccc(Oc5ccc(F)cc5F)cc4)c(C(N)=O)c3N)C2)ccc(N(C)CC[101CH2:1][101O:1]c2ccc3c(c2)CN(C(=O)C(NC(=O)C(C)NC)C(C)(C)C)C(C(=O)NC2CCCc4ccccc42)C3)c1C

> <Shape>
0.226

> <Color>
0.208

> <Negative vol penalty>
0.000

$$$$

  -OEChem-04042321113D

 84 92  0     1  0  0  0  0  0999 V2000
  -32.6412  -26.2633   17.5210 C   0  0  0  0  0  0  0  0  0  0  0  0
  -31.3408  -25.9814   17.9269 C   0  0  0  0  0  0  0  0  0  0  0  0
  -24.6256   -9.2111   21.9708 C   0  0  0  0  0  0  0  0  0  0  0  0
  -23.0233  -10.3837   20.5944 C   0  0  0  0  0  0  0  0  0  0  0  0
  -33.4486  -27.0926   18.2984 C   0  0  0  0  0  0  0  0  0  0  0  0
  -30.8473  -26.5277   19.1112 C   0  0  0  0  0  0  0  0  0  0  0  0
  -26.1643  -28.3836   18.5910 C   0  0  0  0  0  0  0  0  0  0  0  0
  -22.9274  -19.3423   18.7082 C   0  0  0  0  0  0  0  0  0  0  0  0
  -23.8323  -18.3011   18.9143 C   0  0  0  0  0  0  0  0  0  0  0  0
  -23.5931   -8.4613   22.5340 C   0  0  0  0  0  0  0  0  0  0  0  0
  -21.9907   -9.6338   21.1576 C   0  0  0  0  0  0  0  0  0  0  0  0
  -25.1135  -27.4674   18.5843 C   0  0  0  0  0  0  0  0  0  0  0  0
  -21.6994   -5.7936   21.6796 C   0  0  0  0  0  0  0  0  0  0  0  0
  -21.8943   -4.4187   21.8118 C   0  0  0  0  0  0  0  0  0  0  0  0
  -24.6607  -27.9788   20.8979 C   0  0  0  0  0  0  0  0  0  0  0  0
  -25.0137  -19.6486   20.5347 C   0  0  0  0  0  0  0  0  0  0  0  0
  -21.6142   -4.6091   24.2039 C   0  0  0  0  0  0  0  0  0  0  0  0
  -24.3407  -10.1724   21.0010 C   0  0  0  0  0  0  0  0  0  0  0  0
  -26.1600  -10.6316   19.2727 C   0  0  0  0  0  0  0  0  0  0  0  0
  -32.9615  -27.6572   19.4878 C   0  0  0  0  0  0  0  0  0  0  0  0
  -26.4787  -29.0975   19.7563 C   0  0  0  0  0  0  0  0  0  0  0  0
  -31.6493  -27.3643   19.9059 C   0  0  0  0  0  0  0  0  0  0  0  0
  -25.7144  -28.9053   20.9161 C   0  0  0  0  0  0  0  0  0  0  0  0
  -23.0656  -20.5368   19.4153 C   0  0  0  0  0  0  0  0  0  0  0  0
  -24.8754  -18.4542   19.8276 C   0  0  0  0  0  0  0  0  0  0  0  0
  -22.2757   -8.6726   22.1274 C   0  0  0  0  0  0  0  0  0  0  0  0
  -24.3633  -27.2628   19.7386 C   0  0  0  0  0  0  0  0  0  0  0  0
  -21.4620   -6.5762   22.8096 C   0  0  0  0  0  0  0  0  0  0  0  0
  -21.8516   -3.8265   23.0739 C   0  0  0  0  0  0  0  0  0  0  0  0
  -24.1087  -20.6899   20.3285 C   0  0  0  0  0  0  0  0  0  0  0  0
  -21.4193   -5.9839   24.0717 C   0  0  0  0  0  0  0  0  0  0  0  0
  -25.4068  -10.9477   20.4193 C   0  0  0  0  0  0  0  0  0  0  0  0
  -27.0390  -11.6786   19.1399 C   0  0  0  0  0  0  0  0  0  0  0  0
  -26.0729   -9.4933   18.4053 C   0  0  0  0  0  0  0  0  0  0  0  0
  -29.0218  -29.2861   21.6539 C   0  0  0  0  0  0  0  0  0  0  0  0
  -27.2957  -31.6310   23.0837 C   0  0  0  0  0  0  0  0  0  0  0  0
  -22.7254  -24.0615   19.4462 C   0  0  0  0  0  0  0  0  0  0  0  0
  -24.2329  -32.9915   23.7279 C   0  0  0  0  0  0  0  0  0  0  0  0
  -26.8866  -17.3855   20.9043 C   0  0  0  0  0  0  0  0  0  0  0  0
  -33.8873  -28.5096   20.3191 C   0  0  0  0  0  0  0  0  0  0  0  0
  -27.5984  -30.1017   19.7396 C   0  0  0  0  0  0  0  0  0  0  0  0
  -25.9984  -29.6615   22.1873 C   0  0  0  0  0  0  0  0  0  0  0  0
  -33.1638  -29.3499   21.3682 C   0  0  0  0  0  0  0  0  0  0  0  0
  -29.3653  -14.9667   21.7305 C   0  0  0  0  0  0  0  0  0  0  0  0
  -32.1440  -28.5015   22.1213 C   0  0  0  0  0  0  0  0  0  0  0  0
  -28.7023  -13.6332   21.3779 C   0  0  0  0  0  0  0  0  0  0  0  0
  -28.3624  -15.9632   22.3093 C   0  0  0  0  0  0  0  0  0  0  0  0
  -26.5021  -14.8529   21.1364 C   0  0  0  0  0  0  0  0  0  0  0  0
  -31.0698  -27.9579   21.1715 C   0  0  1  0  0  0  0  0  0  0  0  0
  -28.1571  -30.3968   21.1282 C   0  0  1  0  0  0  0  0  0  0  0  0
  -27.4598  -13.8391   20.4894 C   0  0  2  0  0  0  0  0  0  0  0  0
  -23.1377  -34.8854   24.9571 C   0  0  0  0  0  0  0  0  0  0  0  0
  -27.7108  -30.1555   25.7220 C   0  0  0  0  0  0  0  0  0  0  0  0
  -25.8553  -31.5234   26.6987 C   0  0  0  0  0  0  0  0  0  0  0  0
  -27.9260  -32.6425   25.8726 C   0  0  0  0  0  0  0  0  0  0  0  0
  -23.4268  -22.7486   17.4371 C   0  0  0  0  0  0  0  0  0  0  0  0
  -23.1158  -34.1198   21.2303 C   0  0  0  0  0  0  0  0  0  0  0  0
  -22.0882  -21.6543   19.1918 C   0  0  0  0  0  0  0  0  0  0  0  0
  -23.4535  -25.2506   18.8557 C   0  0  0  0  0  0  0  0  0  1  0  0
  -26.2860  -31.6831   24.2047 C   0  0  1  0  0  0  0  0  0  0  0  0
  -23.7248  -34.4189   23.6341 C   0  0  2  0  0  0  0  0  0  0  0  0
  -26.9401  -31.4853   25.6013 C   0  0  0  0  0  0  0  0  0  0  0  0
  -25.7752  -12.1049   20.9753 N   0  0  0  0  0  0  0  0  0  0  0  0
  -26.7696  -12.5251   20.1749 N   0  0  0  0  0  0  0  0  0  0  0  0
  -27.1073  -30.6278   22.1225 N   0  0  0  0  0  0  0  0  0  0  0  0
  -27.2145  -16.1105   21.4119 N   0  0  0  0  0  0  0  0  0  0  0  0
  -28.0084  -11.9485   18.2401 N   0  0  0  0  0  0  0  0  0  0  0  0
  -25.1136   -8.5109   18.6864 N   0  0  0  0  0  0  0  0  0  0  0  0
  -25.7959  -17.3972   20.0355 N   0  0  0  0  0  0  0  0  0  0  0  0
  -30.1079  -28.9910   20.8522 N   0  0  0  0  0  0  0  0  0  0  0  0
  -25.5722  -32.9463   24.0528 N   0  0  0  0  0  0  0  0  0  0  0  0
  -22.7464  -22.8701   18.7205 N   0  0  0  0  0  0  0  0  0  0  0  0
  -22.6689  -34.5252   22.5878 N   0  3  0  0  0  0  0  0  0  0  0  0
  -26.8344   -9.3435   17.4198 O   0  0  0  0  0  0  0  0  0  0  0  0
  -28.7264  -28.7384   22.7096 O   0  0  0  0  0  0  0  0  0  0  0  0
  -28.2136  -32.4547   23.0578 O   0  0  0  0  0  0  0  0  0  0  0  0
  -22.1579  -24.1943   20.5349 O   0  0  0  0  0  0  0  0  0  0  0  0
  -23.5127  -32.0142   23.5360 O   0  0  0  0  0  0  0  0  0  0  0  0
  -27.5430  -18.3885   21.1959 O   0  0  0  0  0  0  0  0  0  0  0  0
  -21.2680   -7.9408   22.6766 O   0  0  0  0  0  0  0  0  0  0  0  0
  -23.3375  -26.3686   19.7349 O   0  0  0  0  0  0  0  0  0  1  0  0
  -22.0372   -2.5060   23.2006 F   0  0  0  0  0  0  0  0  0  0  0  0
  -24.2497  -21.8337   21.0127 F   0  0  0  0  0  0  0  0  0  0  0  0
  -21.1905   -6.7304   25.1608 F   0  0  0  0  0  0  0  0  0  0  0  0
  1  2  1  0  0  0  0
  1  5  2  0  0  0  0
  2  6  2  0  0  0  0
  3 10  2  0  0  0  0
  3 18  1  0  0  0  0
  4 11  1  0  0  0  0
  4 18  2  0  0  0  0
  5 20  1  0  0  0  0
  6 22  1  0  0  0  0
  7 12  2  0  0  0  0
  7 21  1  0  0  0  0
  8  9  2  0  0  0  0
  8 24  1  0  0  0  0
  9 25  1  0  0  0  0
 10 26  1  0  0  0  0
 11 26  2  0  0  0  0
 12 27  1  0  0  0  0
 13 14  2  0  0  0  0
 13 28  1  0  0  0  0
 14 29  1  0  0  0  0
 15 23  1  0  0  0  0
 15 27  2  0  0  0  0
 16 25  2  0  0  0  0
 16 30  1  0  0  0  0
 17 29  2  0  0  0  0
 17 31  1  0  0  0  0
 18 32  1  0  0  0  0
 19 32  1  0  0  0  0
 19 33  2  0  0  0  0
 19 34  1  0  0  0  0
 20 22  2  0  0  0  0
 20 40  1  0  0  0  0
 21 23  2  0  0  0  0
 21 41  1  0  0  0  0
 22 49  1  0  0  0  0
 23 42  1  0  0  0  0
 24 30  2  0  0  0  0
 24 58  1  0  0  0  0
 25 69  1  0  0  0  0
 26 80  1  0  0  0  0
 27 81  1  0  0  0  0
 28 31  2  0  0  0  0
 28 80  1  0  0  0  0
 29 82  1  0  0  0  0
 30 83  1  0  0  0  0
 31 84  1  0  0  0  0
 32 63  2  0  0  0  0
 33 64  1  0  0  0  0
 33 67  1  0  0  0  0
 34 68  1  0  0  0  0
 34 74  2  0  0  0  0
 35 50  1  0  0  0  0
 35 70  1  0  0  0  0
 35 75  2  0  0  0  0
 36 60  1  0  0  0  0
 36 65  1  0  0  0  0
 36 76  2  0  0  0  0
 37 59  1  0  0  0  0
 37 72  1  0  0  0  0
 37 77  2  0  0  0  0
 38 61  1  0  0  0  0
 38 71  1  0  0  0  0
 38 78  2  0  0  0  0
 39 66  1  0  0  0  0
 39 69  1  0  0  0  0
 39 79  2  0  0  0  0
 40 43  1  0  0  0  0
 41 50  1  0  0  0  0
 42 65  1  0  0  0  0
 43 45  1  0  0  0  0
 44 46  1  0  0  0  0
 44 47  1  0  0  0  0
 45 49  1  0  0  0  0
 46 51  1  0  0  0  0
 47 66  1  0  0  0  0
 48 51  1  0  0  0  0
 48 66  1  0  0  0  0
 49 70  1  0  0  0  0
 50 65  1  0  0  0  0
 51 64  1  0  0  0  0
 52 61  1  0  0  0  0
 53 62  1  0  0  0  0
 54 62  1  0  0  0  0
 55 62  1  0  0  0  0
 56 72  1  0  0  0  0
 57 73  1  0  0  0  0
 58 72  1  0  0  0  0
 59 81  1  0  0  0  0
 60 62  1  0  0  0  0
 60 71  1  0  0  0  0
 61 73  1  0  0  0  0
 63 64  1  0  0  0  0
M  CHG  1  73   1
M  ISO  4  39 100  59 101  69 100  81 101
M  END
> <Batch ID>
0021

> <Smiles>
CNC(C)C(=O)NC(C(=O)N1Cc2cc([101O:1][101CH2:1]C(=O)N(C)Cc3ccc([100NH:0][100C:0](=O)N4CCCC(n5nc(-c6ccc(Oc7ccc(F)cc7F)cc6)c(C(N)=O)c5N)C4)cc3F)ccc2CC1C(=O)NC1CCCc2ccccc21)C(C)(C)C

> <Shape>
0.264

> <Color>
0.096

> <Negative vol penalty>
0.000

$$$$

  -OEChem-04042321113D

 84 93  0     1  0  0  0  0  0999 V2000
  -31.4893  -34.8917   24.2340 C   0  0  0  0  0  0  0  0  0  0  0  0
  -31.6187  -33.5864   23.7702 C   0  0  0  0  0  0  0  0  0  0  0  0
  -23.2847   -9.7016   20.1107 C   0  0  0  0  0  0  0  0  0  0  0  0
  -23.7877  -10.0963   22.4405 C   0  0  0  0  0  0  0  0  0  0  0  0
  -30.4197  -35.2339   25.0602 C   0  0  0  0  0  0  0  0  0  0  0  0
  -30.6790  -32.6223   24.1334 C   0  0  0  0  0  0  0  0  0  0  0  0
  -28.6777  -27.9576   20.7069 C   0  0  0  0  0  0  0  0  0  0  0  0
  -22.5900   -8.5427   20.4570 C   0  0  0  0  0  0  0  0  0  0  0  0
  -23.0930   -8.9374   22.7869 C   0  0  0  0  0  0  0  0  0  0  0  0
  -29.0260  -26.6083   20.6639 C   0  0  0  0  0  0  0  0  0  0  0  0
  -19.8733   -7.9892   23.1805 C   0  0  0  0  0  0  0  0  0  0  0  0
  -18.9969   -8.0599   24.2633 C   0  0  0  0  0  0  0  0  0  0  0  0
  -27.1773  -26.0907   22.1246 C   0  0  0  0  0  0  0  0  0  0  0  0
  -30.7456  -18.1387   20.3732 C   0  0  0  0  0  0  0  0  0  0  0  0
  -29.0054  -19.8380   21.7393 C   0  0  0  0  0  0  0  0  0  0  0  0
  -20.2668   -6.3494   25.4029 C   0  0  0  0  0  0  0  0  0  0  0  0
  -23.8836  -10.4784   21.1025 C   0  0  0  0  0  0  0  0  0  0  0  0
  -24.0812  -12.9788   20.6371 C   0  0  0  0  0  0  0  0  0  0  0  0
  -29.4611  -34.2757   25.4259 C   0  0  0  0  0  0  0  0  0  0  0  0
  -27.5812  -28.3857   21.4692 C   0  0  0  0  0  0  0  0  0  0  0  0
  -29.5963  -32.9517   24.9664 C   0  0  0  0  0  0  0  0  0  0  0  0
  -26.8156  -27.4457   22.1736 C   0  0  0  0  0  0  0  0  0  0  0  0
  -30.8285  -19.5184   20.1865 C   0  0  0  0  0  0  0  0  0  0  0  0
  -29.9584  -20.3682   20.8695 C   0  0  0  0  0  0  0  0  0  0  0  0
  -29.7926  -17.6085   21.2430 C   0  0  0  0  0  0  0  0  0  0  0  0
  -22.4941   -8.1606   21.7951 C   0  0  0  0  0  0  0  0  0  0  0  0
  -28.2775  -25.6750   21.3751 C   0  0  0  0  0  0  0  0  0  0  0  0
  -20.9464   -7.0985   23.2089 C   0  0  0  0  0  0  0  0  0  0  0  0
  -19.1936   -7.2401   25.3746 C   0  0  0  0  0  0  0  0  0  0  0  0
  -28.9225  -18.4582   21.9260 C   0  0  0  0  0  0  0  0  0  0  0  0
  -21.1431   -6.2786   24.3201 C   0  0  0  0  0  0  0  0  0  0  0  0
  -24.6019  -11.6753   20.7453 C   0  0  0  0  0  0  0  0  0  0  0  0
  -25.1586  -13.7498   20.2748 C   0  0  0  0  0  0  0  0  0  0  0  0
  -22.7434  -13.4504   20.8456 C   0  0  0  0  0  0  0  0  0  0  0  0
  -27.2001  -30.3261   23.9578 C   0  0  0  0  0  0  0  0  0  0  0  0
  -24.0504  -29.7859   23.4007 C   0  0  0  0  0  0  0  0  0  0  0  0
  -21.6486  -27.7494   22.0851 C   0  0  0  0  0  0  0  0  0  0  0  0
  -30.4986  -15.2259   20.8296 C   0  0  0  0  0  0  0  0  0  0  0  0
  -28.3483  -34.6817   26.3595 C   0  0  0  0  0  0  0  0  0  0  0  0
  -27.2025  -29.8413   21.4837 C   0  0  0  0  0  0  0  0  0  0  0  0
  -25.6171  -27.8512   22.9907 C   0  0  0  0  0  0  0  0  0  0  0  0
  -27.1890  -33.6892   26.3933 C   0  0  0  0  0  0  0  0  0  0  0  0
  -29.7994  -12.4185   18.7542 C   0  0  0  0  0  0  0  0  0  0  0  0
  -27.7118  -32.2619   26.5216 C   0  0  0  0  0  0  0  0  0  0  0  0
  -28.3420  -12.0821   19.0783 C   0  0  0  0  0  0  0  0  0  0  0  0
  -30.2939  -23.8413   19.6759 C   0  0  0  0  0  0  0  0  0  0  0  0
  -30.5621  -12.8871   19.9922 C   0  0  0  0  0  0  0  0  0  0  0  0
  -29.8381  -22.4059   19.4141 C   0  0  0  0  0  0  0  0  0  0  0  0
  -28.4750  -13.6541   21.0528 C   0  0  0  0  0  0  0  0  0  0  0  0
  -30.2885  -22.6849   21.7785 C   0  0  0  0  0  0  0  0  0  0  0  0
  -28.5837  -31.8835   25.3183 C   0  0  1  0  0  0  0  0  0  0  0  0
  -26.3758  -30.2314   22.7051 C   0  0  1  0  0  0  0  0  0  0  0  0
  -27.6490  -13.2393   19.8242 C   0  0  2  0  0  0  0  0  0  0  0  0
  -29.9925  -24.0474   21.1532 C   0  0  2  0  0  0  0  0  0  1  0  0
  -31.8584  -20.0593   19.2488 C   0  0  0  0  0  0  0  0  0  0  0  0
  -19.1610  -27.5550   21.8175 C   0  0  0  0  0  0  0  0  0  0  0  0
  -23.8022  -28.9630   26.3284 C   0  0  0  0  0  0  0  0  0  0  0  0
  -21.6040  -27.9019   25.7714 C   0  0  0  0  0  0  0  0  0  0  0  0
  -21.9118  -30.3594   25.4733 C   0  0  0  0  0  0  0  0  0  0  0  0
  -21.8474  -27.7785   19.1324 C   0  0  0  0  0  0  0  0  0  0  0  0
  -23.0417  -28.7651   23.8690 C   0  0  1  0  0  0  0  0  0  0  0  0
  -20.4577  -28.0436   21.1909 C   0  0  2  0  0  0  0  0  0  0  0  0
  -22.6136  -28.9896   25.3468 C   0  0  0  0  0  0  0  0  0  0  0  0
  -25.9083  -11.6177   20.4735 N   0  0  0  0  0  0  0  0  0  0  0  0
  -26.2177  -12.8946   20.1909 N   0  0  0  0  0  0  0  0  0  0  0  0
  -30.0259  -21.7347   20.6969 N   0  0  3  0  0  0  0  0  0  0  0  0
  -25.2907  -29.2868   22.9783 N   0  0  0  0  0  0  0  0  0  0  0  0
  -29.8486  -13.9874   20.6443 N   0  0  0  0  0  0  0  0  0  0  0  0
  -25.2938  -15.0692   20.0228 N   0  0  0  0  0  0  0  0  0  0  0  0
  -21.7583  -12.5242   21.2145 N   0  0  0  0  0  0  0  0  0  0  0  0
  -29.7104  -16.2065   21.4309 N   0  0  0  0  0  0  0  0  0  0  0  0
  -27.7563  -31.5728   24.1723 N   0  0  0  0  0  0  0  0  0  0  0  0
  -21.9398  -28.8122   22.9140 N   0  0  0  0  0  0  0  0  0  0  0  0
  -20.6234  -27.3731   19.8703 N   0  3  0  0  0  0  0  0  0  0  0  0
  -22.4274  -14.6547   20.6929 O   0  0  0  0  0  0  0  0  0  0  0  0
  -27.3212  -29.3416   24.6772 O   0  0  0  0  0  0  0  0  0  0  0  0
  -23.7465  -30.9814   23.4026 O   0  0  0  0  0  0  0  0  0  0  0  0
  -22.2572  -26.6820   22.0543 O   0  0  0  0  0  0  0  0  0  0  0  0
  -31.6596  -15.4118   20.4559 O   0  0  0  0  0  0  0  0  0  0  0  0
  -21.8161   -7.0299   22.1334 O   0  0  0  0  0  0  0  0  0  0  0  0
  -28.6157  -24.3575   21.3354 O   0  0  0  0  0  0  0  0  0  1  0  0
  -18.3528   -7.3092   26.4150 F   0  0  0  0  0  0  0  0  0  0  0  0
  -28.0027  -17.9598   22.7644 F   0  0  0  0  0  0  0  0  0  0  0  0
  -22.1730   -5.4218   24.3535 F   0  0  0  0  0  0  0  0  0  0  0  0
  1  2  1  0  0  0  0
  1  5  2  0  0  0  0
  2  6  2  0  0  0  0
  3  8  2  0  0  0  0
  3 17  1  0  0  0  0
  4  9  1  0  0  0  0
  4 17  2  0  0  0  0
  5 19  1  0  0  0  0
  6 21  1  0  0  0  0
  7 10  2  0  0  0  0
  7 20  1  0  0  0  0
  8 26  1  0  0  0  0
  9 26  2  0  0  0  0
 10 27  1  0  0  0  0
 11 12  2  0  0  0  0
 11 28  1  0  0  0  0
 12 29  1  0  0  0  0
 13 22  1  0  0  0  0
 13 27  2  0  0  0  0
 14 23  1  0  0  0  0
 14 25  2  0  0  0  0
 15 24  1  0  0  0  0
 15 30  2  0  0  0  0
 16 29  2  0  0  0  0
 16 31  1  0  0  0  0
 17 32  1  0  0  0  0
 18 32  1  0  0  0  0
 18 33  2  0  0  0  0
 18 34  1  0  0  0  0
 19 21  2  0  0  0  0
 19 39  1  0  0  0  0
 20 22  2  0  0  0  0
 20 40  1  0  0  0  0
 21 51  1  0  0  0  0
 22 41  1  0  0  0  0
 23 24  2  0  0  0  0
 23 55  1  0  0  0  0
 24 66  1  0  0  0  0
 25 30  1  0  0  0  0
 25 71  1  0  0  0  0
 26 80  1  0  0  0  0
 27 81  1  0  0  0  0
 28 31  2  0  0  0  0
 28 80  1  0  0  0  0
 29 82  1  0  0  0  0
 30 83  1  0  0  0  0
 31 84  1  0  0  0  0
 32 64  2  0  0  0  0
 33 65  1  0  0  0  0
 33 69  1  0  0  0  0
 34 70  1  0  0  0  0
 34 75  2  0  0  0  0
 35 52  1  0  0  0  0
 35 72  1  0  0  0  0
 35 76  2  0  0  0  0
 36 61  1  0  0  0  0
 36 67  1  0  0  0  0
 36 77  2  0  0  0  0
 37 62  1  0  0  0  0
 37 73  1  0  0  0  0
 37 78  2  0  0  0  0
 38 68  1  0  0  0  0
 38 71  1  0  0  0  0
 38 79  2  0  0  0  0
 39 42  1  0  0  0  0
 40 52  1  0  0  0  0
 41 67  1  0  0  0  0
 42 44  1  0  0  0  0
 43 45  1  0  0  0  0
 43 47  1  0  0  0  0
 44 51  1  0  0  0  0
 45 53  1  0  0  0  0
 46 48  1  0  0  0  0
 46 54  1  0  0  0  0
 47 68  1  0  0  0  0
 48 66  1  0  0  0  0
 49 53  1  0  0  0  0
 49 68  1  0  0  0  0
 50 54  1  0  0  0  0
 50 66  1  0  0  0  0
 51 72  1  0  0  0  0
 52 67  1  0  0  0  0
 53 65  1  0  0  0  0
 54 81  1  0  0  0  0
 56 62  1  0  0  0  0
 57 63  1  0  0  0  0
 58 63  1  0  0  0  0
 59 63  1  0  0  0  0
 60 74  1  0  0  0  0
 61 63  1  0  0  0  0
 61 73  1  0  0  0  0
 62 74  1  0  0  0  0
 64 65  1  0  0  0  0
M  CHG  1  74   1
M  ISO  4  38 100  54 101  71 100  81 101
M  END
> <Batch ID>
0021

> <Smiles>
CNC(C)C(=O)NC(C(=O)N1Cc2cc([101O:1][101CH:1]3CCN(c4cc(F)c([100NH:0][100C:0](=O)N5CCCC(n6nc(-c7ccc(Oc8ccc(F)cc8F)cc7)c(C(N)=O)c6N)C5)cc4C)C3)ccc2CC1C(=O)NC1CCCc2ccccc21)C(C)(C)C

> <Shape>
0.342

> <Color>
0.185

> <Negative vol penalty>
0.000

$$$$

  -OEChem-04042321113D

 83 91  0     1  0  0  0  0  0999 V2000
  -24.6724  -34.0455   22.8493 C   0  0  0  0  0  0  0  0  0  0  0  0
  -23.7408  -33.0343   22.6375 C   0  0  0  0  0  0  0  0  0  0  0  0
  -24.8315   -8.6344   21.0541 C   0  0  0  0  0  0  0  0  0  0  0  0
  -23.0734   -9.8115   19.8875 C   0  0  0  0  0  0  0  0  0  0  0  0
  -25.8464  -34.0788   22.0980 C   0  0  0  0  0  0  0  0  0  0  0  0
  -23.9822  -32.0562   21.6733 C   0  0  0  0  0  0  0  0  0  0  0  0
  -22.3666  -26.1546   21.9311 C   0  0  0  0  0  0  0  0  0  0  0  0
  -23.9197   -7.6498   21.4347 C   0  0  0  0  0  0  0  0  0  0  0  0
  -22.1617   -8.8268   20.2681 C   0  0  0  0  0  0  0  0  0  0  0  0
  -21.2951  -25.4506   21.3834 C   0  0  0  0  0  0  0  0  0  0  0  0
  -21.9778   -5.0128   23.0156 C   0  0  0  0  0  0  0  0  0  0  0  0
  -22.0072   -4.5768   24.3402 C   0  0  0  0  0  0  0  0  0  0  0  0
  -22.6822  -24.8015   19.5195 C   0  0  0  0  0  0  0  0  0  0  0  0
  -22.2941  -19.5781   21.9442 C   0  0  0  0  0  0  0  0  0  0  0  0
  -22.0389  -19.3085   19.5570 C   0  0  0  0  0  0  0  0  0  0  0  0
  -21.5297   -6.8232   25.0903 C   0  0  0  0  0  0  0  0  0  0  0  0
  -24.4083   -9.7153   20.2805 C   0  0  0  0  0  0  0  0  0  0  0  0
  -26.1386  -10.7566   18.7219 C   0  0  0  0  0  0  0  0  0  0  0  0
  -26.1068  -33.0951   21.1309 C   0  0  0  0  0  0  0  0  0  0  0  0
  -23.6029  -26.1964   21.2706 C   0  0  0  0  0  0  0  0  0  0  0  0
  -25.1602  -32.0771   20.9074 C   0  0  0  0  0  0  0  0  0  0  0  0
  -23.7685  -25.5046   20.0623 C   0  0  0  0  0  0  0  0  0  0  0  0
  -21.6441  -19.9054   20.7543 C   0  0  0  0  0  0  0  0  0  0  0  0
  -23.7337  -18.0571   20.7395 C   0  0  0  0  0  0  0  0  0  0  0  0
  -22.5848   -7.7460   21.0417 C   0  0  0  0  0  0  0  0  0  0  0  0
  -21.4519  -24.7763   20.1760 C   0  0  0  0  0  0  0  0  0  0  0  0
  -21.7245   -6.3541   22.7283 C   0  0  0  0  0  0  0  0  0  0  0  0
  -21.7831   -5.4819   25.3776 C   0  0  0  0  0  0  0  0  0  0  0  0
  -23.3389  -18.6539   21.9369 C   0  0  0  0  0  0  0  0  0  0  0  0
  -21.5004   -7.2593   23.7657 C   0  0  0  0  0  0  0  0  0  0  0  0
  -23.0837  -18.3844   19.5496 C   0  0  0  0  0  0  0  0  0  0  0  0
  -25.3496  -10.7329   19.8875 C   0  0  0  0  0  0  0  0  0  0  0  0
  -26.8562  -11.9239   18.8167 C   0  0  0  0  0  0  0  0  0  0  0  0
  -26.2160   -9.8082   17.6494 C   0  0  0  0  0  0  0  0  0  0  0  0
  -25.3988  -28.4993   20.0156 C   0  0  0  0  0  0  0  0  0  0  0  0
  -27.5211  -26.0816   19.5995 C   0  0  0  0  0  0  0  0  0  0  0  0
  -28.0634  -22.7300   19.2535 C   0  0  0  0  0  0  0  0  0  0  0  0
  -25.8805  -17.0974   21.6430 C   0  0  0  0  0  0  0  0  0  0  0  0
  -27.3680  -33.1996   20.3104 C   0  0  0  0  0  0  0  0  0  0  0  0
  -24.7566  -26.9381   21.8881 C   0  0  0  0  0  0  0  0  0  0  0  0
  -25.0812  -25.5015   19.3238 C   0  0  0  0  0  0  0  0  0  0  0  0
  -27.7208  -31.9126   19.5692 C   0  0  0  0  0  0  0  0  0  0  0  0
  -28.6854  -14.9430   22.0530 C   0  0  0  0  0  0  0  0  0  0  0  0
  -26.4891  -31.3430   18.8726 C   0  0  0  0  0  0  0  0  0  0  0  0
  -28.2223  -13.6228   21.4326 C   0  0  0  0  0  0  0  0  0  0  0  0
  -27.5496  -15.6544   22.7862 C   0  0  0  0  0  0  0  0  0  0  0  0
  -25.8680  -14.5396   21.3725 C   0  0  0  0  0  0  0  0  0  0  0  0
  -25.3975  -30.9841   19.8880 C   0  0  1  0  0  0  0  0  0  0  0  0
  -25.8215  -27.3393   20.8720 C   0  0  1  0  0  0  0  0  0  0  0  0
  -26.9615  -13.8182   20.5679 C   0  0  2  0  0  0  0  0  0  0  0  0
  -29.8998  -21.0588   18.8906 C   0  0  0  0  0  0  0  0  0  0  0  0
  -27.6628  -26.8795   16.6579 C   0  0  0  0  0  0  0  0  0  0  0  0
  -28.7207  -24.6614   16.1792 C   0  0  0  0  0  0  0  0  0  0  0  0
  -29.8646  -26.2878   17.6855 C   0  0  0  0  0  0  0  0  0  0  0  0
  -27.4947  -21.3740   21.8219 C   0  0  0  0  0  0  0  0  0  0  0  0
  -18.8448  -22.2893   19.9184 C   0  0  0  0  0  0  0  0  0  0  0  0
  -19.8788  -21.2218   19.5811 C   0  0  0  0  0  0  0  0  0  0  0  0
  -19.4585  -23.5340   20.5486 C   0  0  0  0  0  0  0  0  0  1  0  0
  -27.7998  -25.0804   18.5046 C   0  0  1  0  0  0  0  0  0  0  0  0
  -29.0577  -21.7964   19.9199 C   0  0  2  0  0  0  0  0  0  0  0  0
  -28.4865  -25.7287   17.2695 C   0  0  0  0  0  0  0  0  0  0  0  0
  -25.5472  -11.8004   20.6657 N   0  0  0  0  0  0  0  0  0  0  0  0
  -26.4687  -12.5057   19.9878 N   0  0  0  0  0  0  0  0  0  0  0  0
  -26.1775  -26.2463   19.9649 N   0  0  0  0  0  0  0  0  0  0  0  0
  -26.3908  -15.8081   21.9039 N   0  0  0  0  0  0  0  0  0  0  0  0
  -27.7746  -12.4992   18.0117 N   0  0  0  0  0  0  0  0  0  0  0  0
  -25.4099   -8.6633   17.7105 N   0  0  0  0  0  0  0  0  0  0  0  0
  -24.7981  -17.1221   20.7642 N   0  0  0  0  0  0  0  0  0  0  0  0
  -20.6062  -20.8242   20.7622 N   0  0  0  0  0  0  0  0  0  0  0  0
  -25.7122  -29.7353   20.5482 N   0  0  0  0  0  0  0  0  0  0  0  0
  -28.5701  -24.0055   19.1208 N   0  0  0  0  0  0  0  0  0  0  0  0
  -28.3433  -20.7878   20.7526 N   0  3  0  0  0  0  0  0  0  0  0  0
  -26.9894   -9.9632   16.6740 O   0  0  0  0  0  0  0  0  0  0  0  0
  -24.8318  -28.2885   18.9499 O   0  0  0  0  0  0  0  0  0  0  0  0
  -28.4615  -26.6897   20.1166 O   0  0  0  0  0  0  0  0  0  0  0  0
  -26.9500  -22.3635   18.8839 O   0  0  0  0  0  0  0  0  0  0  0  0
  -26.3850  -18.1077   22.1397 O   0  0  0  0  0  0  0  0  0  0  0  0
  -21.6949   -6.7853   21.4127 O   0  0  0  0  0  0  0  0  0  0  0  0
  -20.4075  -24.0890   19.6388 O   0  0  0  0  0  0  0  0  0  1  0  0
  -21.8098   -5.0627   26.6495 F   0  0  0  0  0  0  0  0  0  0  0  0
  -23.9549  -18.3477   23.0879 F   0  0  0  0  0  0  0  0  0  0  0  0
  -21.2553   -8.5488   23.4959 F   0  0  0  0  0  0  0  0  0  0  0  0
  -23.5408  -17.6696   18.0445 Cl  0  0  0  0  0  0  0  0  0  0  0  0
  1  2  1  0  0  0  0
  1  5  2  0  0  0  0
  2  6  2  0  0  0  0
  3  8  2  0  0  0  0
  3 17  1  0  0  0  0
  4  9  1  0  0  0  0
  4 17  2  0  0  0  0
  5 19  1  0  0  0  0
  6 21  1  0  0  0  0
  7 10  2  0  0  0  0
  7 20  1  0  0  0  0
  8 25  1  0  0  0  0
  9 25  2  0  0  0  0
 10 26  1  0  0  0  0
 11 12  2  0  0  0  0
 11 27  1  0  0  0  0
 12 28  1  0  0  0  0
 13 22  1  0  0  0  0
 13 26  2  0  0  0  0
 14 23  1  0  0  0  0
 14 29  2  0  0  0  0
 15 23  2  0  0  0  0
 15 31  1  0  0  0  0
 16 28  2  0  0  0  0
 16 30  1  0  0  0  0
 17 32  1  0  0  0  0
 18 32  1  0  0  0  0
 18 33  2  0  0  0  0
 18 34  1  0  0  0  0
 19 21  2  0  0  0  0
 19 39  1  0  0  0  0
 20 22  2  0  0  0  0
 20 40  1  0  0  0  0
 21 48  1  0  0  0  0
 22 41  1  0  0  0  0
 23 69  1  0  0  0  0
 24 29  1  0  0  0  0
 24 31  2  0  0  0  0
 24 68  1  0  0  0  0
 25 78  1  0  0  0  0
 26 79  1  0  0  0  0
 27 30  2  0  0  0  0
 27 78  1  0  0  0  0
 28 80  1  0  0  0  0
 29 81  1  0  0  0  0
 30 82  1  0  0  0  0
 31 83  1  0  0  0  0
 32 62  2  0  0  0  0
 33 63  1  0  0  0  0
 33 66  1  0  0  0  0
 34 67  1  0  0  0  0
 34 73  2  0  0  0  0
 35 49  1  0  0  0  0
 35 70  1  0  0  0  0
 35 74  2  0  0  0  0
 36 59  1  0  0  0  0
 36 64  1  0  0  0  0
 36 75  2  0  0  0  0
 37 60  1  0  0  0  0
 37 71  1  0  0  0  0
 37 76  2  0  0  0  0
 38 65  1  0  0  0  0
 38 68  1  0  0  0  0
 38 77  2  0  0  0  0
 39 42  1  0  0  0  0
 40 49  1  0  0  0  0
 41 64  1  0  0  0  0
 42 44  1  0  0  0  0
 43 45  1  0  0  0  0
 43 46  1  0  0  0  0
 44 48  1  0  0  0  0
 45 50  1  0  0  0  0
 46 65  1  0  0  0  0
 47 50  1  0  0  0  0
 47 65  1  0  0  0  0
 48 70  1  0  0  0  0
 49 64  1  0  0  0  0
 50 63  1  0  0  0  0
 51 60  1  0  0  0  0
 52 61  1  0  0  0  0
 53 61  1  0  0  0  0
 54 61  1  0  0  0  0
 55 72  1  0  0  0  0
 56 57  1  0  0  0  0
 56 58  1  0  0  0  0
 57 69  1  0  0  0  0
 58 79  1  0  0  0  0
 59 61  1  0  0  0  0
 59 71  1  0  0  0  0
 60 72  1  0  0  0  0
 62 63  1  0  0  0  0
M  CHG  1  72   1
M  ISO  4  38 100  58 101  68 100  79 101
M  END
> <Batch ID>
0021

> <Smiles>
CNC(C)C(=O)NC(C(=O)N1Cc2cc([101O:1][101CH2:1]CCNc3cc(F)c([100NH:0][100C:0](=O)N4CCCC(n5nc(-c6ccc(Oc7ccc(F)cc7F)cc6)c(C(N)=O)c5N)C4)c(Cl)c3)ccc2CC1C(=O)NC1CCCc2ccccc21)C(C)(C)C

> <Shape>
0.218

> <Color>
0.077

> <Negative vol penalty>
0.000

$$$$

  -OEChem-04042321113D

 84 93  0     1  0  0  0  0  0999 V2000
  -28.3797  -23.8653   18.9948 C   0  0  0  0  0  0  0  0  0  0  0  0
  -27.1344  -24.2538   19.4783 C   0  0  0  0  0  0  0  0  0  0  0  0
  -27.8208  -15.8892   21.9131 C   0  0  0  0  0  0  0  0  0  0  0  0
  -25.9802  -16.4672   20.4587 C   0  0  0  0  0  0  0  0  0  0  0  0
  -29.5401  -24.4087   19.5444 C   0  0  0  0  0  0  0  0  0  0  0  0
  -27.0489  -25.1852   20.5125 C   0  0  0  0  0  0  0  0  0  0  0  0
  -23.5189  -28.7150   19.6613 C   0  0  0  0  0  0  0  0  0  0  0  0
  -20.4757  -25.0625   23.7932 C   0  0  0  0  0  0  0  0  0  0  0  0
  -21.2414  -24.0362   24.3465 C   0  0  0  0  0  0  0  0  0  0  0  0
  -27.7456  -14.5648   21.4820 C   0  0  0  0  0  0  0  0  0  0  0  0
  -25.9050  -15.1428   20.0275 C   0  0  0  0  0  0  0  0  0  0  0  0
  -22.1909  -28.3546   19.8858 C   0  0  0  0  0  0  0  0  0  0  0  0
  -28.7172  -12.7620   18.7915 C   0  0  0  0  0  0  0  0  0  0  0  0
  -29.9112  -12.1155   18.4718 C   0  0  0  0  0  0  0  0  0  0  0  0
  -22.2574  -29.4657   22.0259 C   0  0  0  0  0  0  0  0  0  0  0  0
  -20.0702  -23.7049   21.8363 C   0  0  0  0  0  0  0  0  0  0  0  0
  -29.4698  -10.4586   20.1739 C   0  0  0  0  0  0  0  0  0  0  0  0
  -26.9380  -16.8404   21.4015 C   0  0  0  0  0  0  0  0  0  0  0  0
  -27.7847  -19.2439   21.2837 C   0  0  0  0  0  0  0  0  0  0  0  0
  -29.4685  -25.3544   20.5794 C   0  0  0  0  0  0  0  0  0  0  0  0
  -24.2306  -29.4453   20.6238 C   0  0  0  0  0  0  0  0  0  0  0  0
  -28.2095  -25.7407   21.0774 C   0  0  0  0  0  0  0  0  0  0  0  0
  -23.5935  -29.8364   21.8101 C   0  0  0  0  0  0  0  0  0  0  0  0
  -19.8901  -24.8968   22.5381 C   0  0  0  0  0  0  0  0  0  0  0  0
  -21.4216  -22.8443   23.6447 C   0  0  0  0  0  0  0  0  0  0  0  0
  -26.7877  -14.1916   20.5392 C   0  0  0  0  0  0  0  0  0  0  0  0
  -21.5608  -28.7274   21.0694 C   0  0  0  0  0  0  0  0  0  0  0  0
  -27.8996  -12.2568   19.8024 C   0  0  0  0  0  0  0  0  0  0  0  0
  -30.2874  -10.9639   19.1630 C   0  0  0  0  0  0  0  0  0  0  0  0
  -28.2758  -11.1052   20.4936 C   0  0  0  0  0  0  0  0  0  0  0  0
  -20.8360  -22.6787   22.3895 C   0  0  0  0  0  0  0  0  0  0  0  0
  -27.0149  -18.2085   21.8469 C   0  0  0  0  0  0  0  0  0  0  0  0
  -27.5104  -20.3397   22.0650 C   0  0  0  0  0  0  0  0  0  0  0  0
  -28.6687  -19.2175   20.1552 C   0  0  0  0  0  0  0  0  0  0  0  0
  -26.8252  -28.9093   22.3801 C   0  0  0  0  0  0  0  0  0  0  0  0
  -26.3935  -32.0017   23.2590 C   0  0  0  0  0  0  0  0  0  0  0  0
  -24.2580  -34.6384   23.6258 C   0  0  0  0  0  0  0  0  0  0  0  0
  -22.8437  -21.8569   25.4746 C   0  0  0  0  0  0  0  0  0  0  0  0
  -30.7516  -25.8785   21.1739 C   0  0  0  0  0  0  0  0  0  0  0  0
  -25.6543  -29.8493   20.3549 C   0  0  0  0  0  0  0  0  0  0  0  0
  -24.3072  -30.6384   22.8664 C   0  0  0  0  0  0  0  0  0  0  0  0
  -30.5636  -27.1398   22.0129 C   0  0  0  0  0  0  0  0  0  0  0  0
  -26.2313  -21.5350   26.5225 C   0  0  0  0  0  0  0  0  0  0  0  0
  -17.7974  -27.1527   20.4768 C   0  0  0  0  0  0  0  0  0  0  0  0
  -29.3788  -26.9793   22.9601 C   0  0  0  0  0  0  0  0  0  0  0  0
  -26.8881  -20.7449   25.3883 C   0  0  0  0  0  0  0  0  0  0  0  0
  -17.5171  -27.6244   21.8949 C   0  0  0  0  0  0  0  0  0  0  0  0
  -18.4895  -25.8084   20.6786 C   0  0  0  0  0  0  0  0  0  0  0  0
  -24.8012  -21.0668   26.7858 C   0  0  0  0  0  0  0  0  0  0  0  0
  -24.5854  -20.2524   24.4707 C   0  0  0  0  0  0  0  0  0  0  0  0
  -28.0749  -26.7669   22.1815 C   0  0  1  0  0  0  0  0  0  0  0  0
  -26.4402  -30.1513   21.6272 C   0  0  1  0  0  0  0  0  0  0  0  0
  -26.0047  -20.7320   24.1254 C   0  0  2  0  0  0  0  0  0  0  0  0
  -18.7406  -27.1449   22.6884 C   0  0  2  0  0  0  0  0  0  0  0  0
  -24.1883  -37.0235   24.4027 C   0  0  0  0  0  0  0  0  0  0  0  0
  -26.4642  -31.0565   26.1593 C   0  0  0  0  0  0  0  0  0  0  0  0
  -25.4615  -33.2516   26.8261 C   0  0  0  0  0  0  0  0  0  0  0  0
  -27.6995  -33.1874   25.7262 C   0  0  0  0  0  0  0  0  0  0  0  0
  -23.4259  -35.6056   20.9554 C   0  0  0  0  0  0  0  0  0  0  0  0
  -19.8701  -28.1733   22.6475 C   0  0  0  0  0  0  0  0  0  1  0  0
  -25.6305  -32.7050   24.3555 C   0  0  1  0  0  0  0  0  0  0  0  0
  -24.3754  -36.0946   23.2133 C   0  0  2  0  0  0  0  0  0  0  0  0
  -26.3008  -32.5333   25.7479 C   0  0  0  0  0  0  0  0  0  0  0  0
  -26.3049  -18.6106   22.9044 N   0  0  0  0  0  0  0  0  0  0  0  0
  -26.6275  -19.9107   23.0120 N   0  0  0  0  0  0  0  0  0  0  0  0
  -19.1322  -25.9145   21.9900 N   0  0  3  0  0  0  0  0  0  0  0  0
  -25.7001  -31.0037   22.5598 N   0  0  0  0  0  0  0  0  0  0  0  0
  -24.0225  -21.0848   25.5455 N   0  0  0  0  0  0  0  0  0  0  0  0
  -27.9407  -21.6187   22.0276 N   0  0  0  0  0  0  0  0  0  0  0  0
  -28.8354  -18.0090   19.4652 N   0  0  0  0  0  0  0  0  0  0  0  0
  -22.2055  -21.8224   24.2353 N   0  0  0  0  0  0  0  0  0  0  0  0
  -27.5938  -28.0237   21.6490 N   0  0  0  0  0  0  0  0  0  0  0  0
  -25.4876  -34.0925   23.9281 N   0  0  0  0  0  0  0  0  0  0  0  0
  -23.3444  -36.4278   22.1900 N   0  3  0  0  0  0  0  0  0  0  0  0
  -29.3049  -20.2315   19.7801 O   0  0  0  0  0  0  0  0  0  0  0  0
  -26.4537  -28.7657   23.5390 O   0  0  0  0  0  0  0  0  0  0  0  0
  -27.5594  -32.3308   23.0267 O   0  0  0  0  0  0  0  0  0  0  0  0
  -23.1827  -34.0456   23.6784 O   0  0  0  0  0  0  0  0  0  0  0  0
  -22.4456  -22.5230   26.4337 O   0  0  0  0  0  0  0  0  0  0  0  0
  -26.7142  -12.8993   20.1181 O   0  0  0  0  0  0  0  0  0  0  0  0
  -20.2649  -28.3764   21.2913 O   0  0  0  0  0  0  0  0  0  1  0  0
  -31.4332  -10.3423   18.8548 F   0  0  0  0  0  0  0  0  0  0  0  0
  -27.4939  -10.6145   21.4649 F   0  0  0  0  0  0  0  0  0  0  0  0
  -21.0341  -21.2191   21.4862 Cl  0  0  0  0  0  0  0  0  0  0  0  0
  1  2  1  0  0  0  0
  1  5  2  0  0  0  0
  2  6  2  0  0  0  0
  3 10  2  0  0  0  0
  3 18  1  0  0  0  0
  4 11  1  0  0  0  0
  4 18  2  0  0  0  0
  5 20  1  0  0  0  0
  6 22  1  0  0  0  0
  7 12  2  0  0  0  0
  7 21  1  0  0  0  0
  8  9  2  0  0  0  0
  8 24  1  0  0  0  0
  9 25  1  0  0  0  0
 10 26  1  0  0  0  0
 11 26  2  0  0  0  0
 12 27  1  0  0  0  0
 13 14  2  0  0  0  0
 13 28  1  0  0  0  0
 14 29  1  0  0  0  0
 15 23  1  0  0  0  0
 15 27  2  0  0  0  0
 16 24  2  0  0  0  0
 16 31  1  0  0  0  0
 17 29  2  0  0  0  0
 17 30  1  0  0  0  0
 18 32  1  0  0  0  0
 19 32  1  0  0  0  0
 19 33  2  0  0  0  0
 19 34  1  0  0  0  0
 20 22  2  0  0  0  0
 20 39  1  0  0  0  0
 21 23  2  0  0  0  0
 21 40  1  0  0  0  0
 22 51  1  0  0  0  0
 23 41  1  0  0  0  0
 24 66  1  0  0  0  0
 25 31  2  0  0  0  0
 25 71  1  0  0  0  0
 26 80  1  0  0  0  0
 27 81  1  0  0  0  0
 28 30  2  0  0  0  0
 28 80  1  0  0  0  0
 29 82  1  0  0  0  0
 30 83  1  0  0  0  0
 31 84  1  0  0  0  0
 32 64  2  0  0  0  0
 33 65  1  0  0  0  0
 33 69  1  0  0  0  0
 34 70  1  0  0  0  0
 34 75  2  0  0  0  0
 35 52  1  0  0  0  0
 35 72  1  0  0  0  0
 35 76  2  0  0  0  0
 36 61  1  0  0  0  0
 36 67  1  0  0  0  0
 36 77  2  0  0  0  0
 37 62  1  0  0  0  0
 37 73  1  0  0  0  0
 37 78  2  0  0  0  0
 38 68  1  0  0  0  0
 38 71  1  0  0  0  0
 38 79  2  0  0  0  0
 39 42  1  0  0  0  0
 40 52  1  0  0  0  0
 41 67  1  0  0  0  0
 42 45  1  0  0  0  0
 43 46  1  0  0  0  0
 43 49  1  0  0  0  0
 44 47  1  0  0  0  0
 44 48  1  0  0  0  0
 45 51  1  0  0  0  0
 46 53  1  0  0  0  0
 47 54  1  0  0  0  0
 48 66  1  0  0  0  0
 49 68  1  0  0  0  0
 50 53  1  0  0  0  0
 50 68  1  0  0  0  0
 51 72  1  0  0  0  0
 52 67  1  0  0  0  0
 53 65  1  0  0  0  0
 54 60  1  0  0  0  0
 54 66  1  0  0  0  0
 55 62  1  0  0  0  0
 56 63  1  0  0  0  0
 57 63  1  0  0  0  0
 58 63  1  0  0  0  0
 59 74  1  0  0  0  0
 60 81  1  0  0  0  0
 61 63  1  0  0  0  0
 61 73  1  0  0  0  0
 62 74  1  0  0  0  0
 64 65  1  0  0  0  0
M  CHG  1  74   1
M  ISO  4  38 100  60 101  71 100  81 101
M  END
> <Batch ID>
0021

> <Smiles>
CNC(C)C(=O)NC(C(=O)N1Cc2cc([101O:1][101CH2:1]C3CCCN3c3ccc([100NH:0][100C:0](=O)N4CCCC(n5nc(-c6ccc(Oc7ccc(F)cc7F)cc6)c(C(N)=O)c5N)C4)c(Cl)c3)ccc2CC1C(=O)NC1CCCc2ccccc21)C(C)(C)C

> <Shape>
0.296

> <Color>
0.059

> <Negative vol penalty>
0.000

$$$$

  -OEChem-04042321113D

 85 94  0     1  0  0  0  0  0999 V2000
  -17.2461  -30.6608   23.9511 C   0  0  0  0  0  0  0  0  0  0  0  0
  -18.5957  -30.9984   23.9403 C   0  0  0  0  0  0  0  0  0  0  0  0
  -23.6112  -13.5010   22.5844 C   0  0  0  0  0  0  0  0  0  0  0  0
  -23.3274  -14.4479   20.3799 C   0  0  0  0  0  0  0  0  0  0  0  0
  -16.8438  -29.3885   23.5473 C   0  0  0  0  0  0  0  0  0  0  0  0
  -19.5439  -30.0634   23.5267 C   0  0  0  0  0  0  0  0  0  0  0  0
  -25.8630  -29.6257   20.1811 C   0  0  0  0  0  0  0  0  0  0  0  0
  -22.9867  -12.3279   22.1609 C   0  0  0  0  0  0  0  0  0  0  0  0
  -22.7028  -13.2748   19.9564 C   0  0  0  0  0  0  0  0  0  0  0  0
  -27.1362  -29.0834   20.3506 C   0  0  0  0  0  0  0  0  0  0  0  0
  -23.8061   -9.5724   20.3807 C   0  0  0  0  0  0  0  0  0  0  0  0
  -24.3937   -8.3593   20.7394 C   0  0  0  0  0  0  0  0  0  0  0  0
  -26.3177  -26.9422   19.5992 C   0  0  0  0  0  0  0  0  0  0  0  0
  -26.4141  -24.3650   23.4095 C   0  0  0  0  0  0  0  0  0  0  0  0
  -28.6028  -24.1389   21.6945 C   0  0  0  0  0  0  0  0  0  0  0  0
  -22.3800   -7.7325   21.9182 C   0  0  0  0  0  0  0  0  0  0  0  0
  -23.7816  -14.5610   21.6939 C   0  0  0  0  0  0  0  0  0  0  0  0
  -25.8013  -16.0704   22.0812 C   0  0  0  0  0  0  0  0  0  0  0  0
  -17.7866  -28.4406   23.1193 C   0  0  0  0  0  0  0  0  0  0  0  0
  -24.8033  -28.8263   19.7290 C   0  0  0  0  0  0  0  0  0  0  0  0
  -19.1539  -28.7767   23.1180 C   0  0  0  0  0  0  0  0  0  0  0  0
  -25.0326  -27.4774   19.4223 C   0  0  0  0  0  0  0  0  0  0  0  0
  -27.5188  -25.2004   23.5748 C   0  0  0  0  0  0  0  0  0  0  0  0
  -28.6132  -25.0874   22.7173 C   0  0  0  0  0  0  0  0  0  0  0  0
  -26.4037  -23.4165   22.3867 C   0  0  0  0  0  0  0  0  0  0  0  0
  -22.5325  -12.2148   20.8469 C   0  0  0  0  0  0  0  0  0  0  0  0
  -27.3631  -27.7408   20.0624 C   0  0  0  0  0  0  0  0  0  0  0  0
  -22.5055   -9.8656   20.7908 C   0  0  0  0  0  0  0  0  0  0  0  0
  -23.6807   -7.4393   21.5081 C   0  0  0  0  0  0  0  0  0  0  0  0
  -21.7925   -8.9457   21.5595 C   0  0  0  0  0  0  0  0  0  0  0  0
  -27.4981  -23.3035   21.5293 C   0  0  0  0  0  0  0  0  0  0  0  0
  -24.4262  -15.7733   22.1309 C   0  0  0  0  0  0  0  0  0  0  0  0
  -25.8989  -17.3340   22.6105 C   0  0  0  0  0  0  0  0  0  0  0  0
  -26.8929  -15.2753   21.5996 C   0  0  0  0  0  0  0  0  0  0  0  0
  -22.0087  -27.9129   20.9370 C   0  0  0  0  0  0  0  0  0  0  0  0
  -21.5895  -26.6398   17.9830 C   0  0  0  0  0  0  0  0  0  0  0  0
  -23.0034  -25.4354   15.1199 C   0  0  0  0  0  0  0  0  0  0  0  0
  -24.1121  -22.5909   23.0295 C   0  0  0  0  0  0  0  0  0  0  0  0
  -17.3082  -27.0623   22.7368 C   0  0  0  0  0  0  0  0  0  0  0  0
  -23.4420  -29.4328   19.5258 C   0  0  0  0  0  0  0  0  0  0  0  0
  -23.9334  -26.5815   18.9148 C   0  0  0  0  0  0  0  0  0  0  0  0
  -18.3414  -26.2536   21.9566 C   0  0  0  0  0  0  0  0  0  0  0  0
  -22.4779  -20.1568   25.0499 C   0  0  0  0  0  0  0  0  0  0  0  0
  -31.8794  -26.3947   23.6358 C   0  0  0  0  0  0  0  0  0  0  0  0
  -19.7093  -26.3489   22.6249 C   0  0  0  0  0  0  0  0  0  0  0  0
  -22.9522  -18.8239   24.4665 C   0  0  0  0  0  0  0  0  0  0  0  0
  -31.5550  -27.3502   22.5012 C   0  0  0  0  0  0  0  0  0  0  0  0
  -30.5055  -25.9234   24.0964 C   0  0  0  0  0  0  0  0  0  0  0  0
  -22.2693  -21.2095   23.9627 C   0  0  0  0  0  0  0  0  0  0  0  0
  -23.8925  -20.0859   22.4891 C   0  0  0  0  0  0  0  0  0  0  0  0
  -20.2101  -27.7981   22.6524 C   0  0  1  0  0  0  0  0  0  0  0  0
  -22.3185  -28.4011   19.5501 C   0  0  1  0  0  0  0  0  0  0  0  0
  -24.1789  -19.0133   23.5526 C   0  0  2  0  0  0  0  0  0  0  0  0
  -30.3476  -26.6998   21.8036 C   0  0  2  0  0  0  0  0  0  0  0  0
  -27.5035  -26.2074   24.6784 C   0  0  0  0  0  0  0  0  0  0  0  0
  -22.4059  -24.4310   12.8993 C   0  0  0  0  0  0  0  0  0  0  0  0
  -20.9804  -23.9818   19.3519 C   0  0  0  0  0  0  0  0  0  0  0  0
  -21.3321  -22.8461   17.1486 C   0  0  0  0  0  0  0  0  0  0  0  0
  -19.4994  -24.5182   17.4094 C   0  0  0  0  0  0  0  0  0  0  0  0
  -24.2723  -27.6626   13.6405 C   0  0  0  0  0  0  0  0  0  0  0  0
  -29.4254  -27.7793   21.2462 C   0  0  0  0  0  0  0  0  0  1  0  0
  -21.8993  -25.3105   17.3380 C   0  0  1  0  0  0  0  0  0  0  0  0
  -22.7096  -25.7141   13.6569 C   0  0  2  0  0  0  0  0  0  0  0  0
  -20.9483  -24.1803   17.8233 C   0  0  0  0  0  0  0  0  0  0  0  0
  -23.7022  -16.7681   22.6509 N   0  0  0  0  0  0  0  0  0  0  0  0
  -24.6259  -17.7025   22.9328 N   0  0  0  0  0  0  0  0  0  0  0  0
  -29.7148  -25.9062   22.8666 N   0  0  3  0  0  0  0  0  0  0  0  0
  -22.6184  -27.2197   18.7386 N   0  0  0  0  0  0  0  0  0  0  0  0
  -23.4736  -21.3375   23.1392 N   0  0  0  0  0  0  0  0  0  0  0  0
  -26.9487  -18.1548   22.8272 N   0  0  0  0  0  0  0  0  0  0  0  0
  -26.6159  -14.0000   21.0883 N   0  0  0  0  0  0  0  0  0  0  0  0
  -25.2661  -22.5836   22.2466 N   0  0  0  0  0  0  0  0  0  0  0  0
  -20.7187  -28.1818   21.3530 N   0  0  0  0  0  0  0  0  0  0  0  0
  -21.8694  -25.5390   15.8974 N   0  0  0  0  0  0  0  0  0  0  0  0
  -23.8781  -26.3761   13.0108 N   0  3  0  0  0  0  0  0  0  0  0  0
  -28.0806  -15.6770   21.6371 O   0  0  0  0  0  0  0  0  0  0  0  0
  -22.8753  -27.3337   21.5813 O   0  0  0  0  0  0  0  0  0  0  0  0
  -20.4781  -27.1483   17.8165 O   0  0  0  0  0  0  0  0  0  0  0  0
  -24.1260  -25.1504   15.5313 O   0  0  0  0  0  0  0  0  0  0  0  0
  -23.6832  -23.5908   23.6110 O   0  0  0  0  0  0  0  0  0  0  0  0
  -21.9232  -11.0701   20.4333 O   0  0  0  0  0  0  0  0  0  0  0  0
  -28.6047  -27.2089   20.2277 O   0  0  0  0  0  0  0  0  0  1  0  0
  -24.2445   -6.2738   21.8512 F   0  0  0  0  0  0  0  0  0  0  0  0
  -20.5422   -9.2212   21.9555 F   0  0  0  0  0  0  0  0  0  0  0  0
  -27.5266  -22.1427   20.2499 Cl  0  0  0  0  0  0  0  0  0  0  0  0
  1  2  1  0  0  0  0
  1  5  2  0  0  0  0
  2  6  2  0  0  0  0
  3  8  2  0  0  0  0
  3 17  1  0  0  0  0
  4  9  1  0  0  0  0
  4 17  2  0  0  0  0
  5 19  1  0  0  0  0
  6 21  1  0  0  0  0
  7 10  2  0  0  0  0
  7 20  1  0  0  0  0
  8 26  1  0  0  0  0
  9 26  2  0  0  0  0
 10 27  1  0  0  0  0
 11 12  2  0  0  0  0
 11 28  1  0  0  0  0
 12 29  1  0  0  0  0
 13 22  1  0  0  0  0
 13 27  2  0  0  0  0
 14 23  1  0  0  0  0
 14 25  2  0  0  0  0
 15 24  1  0  0  0  0
 15 31  2  0  0  0  0
 16 29  2  0  0  0  0
 16 30  1  0  0  0  0
 17 32  1  0  0  0  0
 18 32  1  0  0  0  0
 18 33  2  0  0  0  0
 18 34  1  0  0  0  0
 19 21  2  0  0  0  0
 19 39  1  0  0  0  0
 20 22  2  0  0  0  0
 20 40  1  0  0  0  0
 21 51  1  0  0  0  0
 22 41  1  0  0  0  0
 23 24  2  0  0  0  0
 23 55  1  0  0  0  0
 24 67  1  0  0  0  0
 25 31  1  0  0  0  0
 25 72  1  0  0  0  0
 26 81  1  0  0  0  0
 27 82  1  0  0  0  0
 28 30  2  0  0  0  0
 28 81  1  0  0  0  0
 29 83  1  0  0  0  0
 30 84  1  0  0  0  0
 31 85  1  0  0  0  0
 32 65  2  0  0  0  0
 33 66  1  0  0  0  0
 33 70  1  0  0  0  0
 34 71  1  0  0  0  0
 34 76  2  0  0  0  0
 35 52  1  0  0  0  0
 35 73  1  0  0  0  0
 35 77  2  0  0  0  0
 36 62  1  0  0  0  0
 36 68  1  0  0  0  0
 36 78  2  0  0  0  0
 37 63  1  0  0  0  0
 37 74  1  0  0  0  0
 37 79  2  0  0  0  0
 38 69  1  0  0  0  0
 38 72  1  0  0  0  0
 38 80  2  0  0  0  0
 39 42  1  0  0  0  0
 40 52  1  0  0  0  0
 41 68  1  0  0  0  0
 42 45  1  0  0  0  0
 43 46  1  0  0  0  0
 43 49  1  0  0  0  0
 44 47  1  0  0  0  0
 44 48  1  0  0  0  0
 45 51  1  0  0  0  0
 46 53  1  0  0  0  0
 47 54  1  0  0  0  0
 48 67  1  0  0  0  0
 49 69  1  0  0  0  0
 50 53  1  0  0  0  0
 50 69  1  0  0  0  0
 51 73  1  0  0  0  0
 52 68  1  0  0  0  0
 53 66  1  0  0  0  0
 54 61  1  0  0  0  0
 54 67  1  0  0  0  0
 56 63  1  0  0  0  0
 57 64  1  0  0  0  0
 58 64  1  0  0  0  0
 59 64  1  0  0  0  0
 60 75  1  0  0  0  0
 61 82  1  0  0  0  0
 62 64  1  0  0  0  0
 62 74  1  0  0  0  0
 63 75  1  0  0  0  0
 65 66  1  0  0  0  0
M  CHG  1  75   1
M  ISO  4  38 100  61 101  72 100  82 101
M  END
> <Batch ID>
0021

> <Smiles>
CNC(C)C(=O)NC(C(=O)N1Cc2cc([101O:1][101CH2:1]C3CCCN3c3cc(Cl)c([100NH:0][100C:0](=O)N4CCCC(n5nc(-c6ccc(Oc7ccc(F)cc7F)cc6)c(C(N)=O)c5N)C4)cc3C)ccc2CC1C(=O)NC1CCCc2ccccc21)C(C)(C)C

> <Shape>
0.202

> <Color>
0.077

> <Negative vol penalty>
0.000

$$$$

  -OEChem-04042321113D

 86 94  0     1  0  0  0  0  0999 V2000
  -17.6709  -26.5486   19.5259 C   0  0  0  0  0  0  0  0  0  0  0  0
  -18.9548  -26.8707   19.0978 C   0  0  0  0  0  0  0  0  0  0  0  0
  -27.0517  -13.1345   21.1745 C   0  0  0  0  0  0  0  0  0  0  0  0
  -26.7957  -13.7290   18.8469 C   0  0  0  0  0  0  0  0  0  0  0  0
  -17.3220  -26.7141   20.8656 C   0  0  0  0  0  0  0  0  0  0  0  0
  -19.8903  -27.3595   20.0091 C   0  0  0  0  0  0  0  0  0  0  0  0
  -24.4330  -25.1836   19.4856 C   0  0  0  0  0  0  0  0  0  0  0  0
  -26.3050  -11.9759   20.9608 C   0  0  0  0  0  0  0  0  0  0  0  0
  -26.0490  -12.5704   18.6331 C   0  0  0  0  0  0  0  0  0  0  0  0
  -25.2347  -25.6281   18.4352 C   0  0  0  0  0  0  0  0  0  0  0  0
  -23.0465  -11.1368   20.6414 C   0  0  0  0  0  0  0  0  0  0  0  0
  -22.0597  -10.8211   21.5754 C   0  0  0  0  0  0  0  0  0  0  0  0
  -26.4814  -27.0027   19.9764 C   0  0  0  0  0  0  0  0  0  0  0  0
  -31.2896  -22.2853   17.6514 C   0  0  0  0  0  0  0  0  0  0  0  0
  -29.6172  -23.9608   18.1339 C   0  0  0  0  0  0  0  0  0  0  0  0
  -23.1720   -8.7279   22.0429 C   0  0  0  0  0  0  0  0  0  0  0  0
  -27.2970  -14.0111   20.1176 C   0  0  0  0  0  0  0  0  0  0  0  0
  -29.4631  -15.3546   20.2215 C   0  0  0  0  0  0  0  0  0  0  0  0
  -18.2566  -27.1960   21.7956 C   0  0  0  0  0  0  0  0  0  0  0  0
  -24.6429  -25.6544   20.7898 C   0  0  0  0  0  0  0  0  0  0  0  0
  -19.5531  -27.5329   21.3622 C   0  0  0  0  0  0  0  0  0  0  0  0
  -25.6827  -26.5607   21.0421 C   0  0  0  0  0  0  0  0  0  0  0  0
  -31.8782  -23.1409   16.7203 C   0  0  0  0  0  0  0  0  0  0  0  0
  -31.3364  -24.4065   16.4960 C   0  0  0  0  0  0  0  0  0  0  0  0
  -30.1590  -22.6952   18.3582 C   0  0  0  0  0  0  0  0  0  0  0  0
  -30.2058  -24.8165   17.2029 C   0  0  0  0  0  0  0  0  0  0  0  0
  -25.8037  -11.6938   19.6901 C   0  0  0  0  0  0  0  0  0  0  0  0
  -26.2572  -26.5400   18.6800 C   0  0  0  0  0  0  0  0  0  0  0  0
  -24.0959  -10.2480   20.4081 C   0  0  0  0  0  0  0  0  0  0  0  0
  -22.1225   -9.6166   22.2761 C   0  0  0  0  0  0  0  0  0  0  0  0
  -24.1587   -9.0436   21.1089 C   0  0  0  0  0  0  0  0  0  0  0  0
  -28.0678  -15.2084   20.3379 C   0  0  0  0  0  0  0  0  0  0  0  0
  -29.6973  -16.6720   20.5313 C   0  0  0  0  0  0  0  0  0  0  0  0
  -30.4585  -14.3861   19.8652 C   0  0  0  0  0  0  0  0  0  0  0  0
  -22.9113  -27.3011   22.8859 C   0  0  0  0  0  0  0  0  0  0  0  0
  -25.4111  -26.6731   24.8555 C   0  0  0  0  0  0  0  0  0  0  0  0
  -28.7201  -25.9045   25.1823 C   0  0  0  0  0  0  0  0  0  0  0  0
  -28.4376  -22.0777   20.0907 C   0  0  0  0  0  0  0  0  0  0  0  0
  -17.8189  -27.4028   23.2240 C   0  0  0  0  0  0  0  0  0  0  0  0
  -23.7865  -25.1447   21.9164 C   0  0  0  0  0  0  0  0  0  0  0  0
  -25.9622  -27.0812   22.4275 C   0  0  0  0  0  0  0  0  0  0  0  0
  -18.9814  -27.5723   24.1988 C   0  0  0  0  0  0  0  0  0  0  0  0
  -26.6368  -20.1849   22.5098 C   0  0  0  0  0  0  0  0  0  0  0  0
  -20.0064  -28.5550   23.6416 C   0  0  0  0  0  0  0  0  0  0  0  0
  -26.9634  -18.7335   22.1508 C   0  0  0  0  0  0  0  0  0  0  0  0
  -26.4986  -21.0597   21.2651 C   0  0  0  0  0  0  0  0  0  0  0  0
  -27.9623  -19.5524   19.9786 C   0  0  0  0  0  0  0  0  0  0  0  0
  -20.6033  -28.0424   22.3254 C   0  0  1  0  0  0  0  0  0  0  0  0
  -23.7602  -26.0834   23.1187 C   0  0  1  0  0  0  0  0  0  0  0  0
  -28.1752  -18.6465   21.2024 C   0  0  2  0  0  0  0  0  0  0  0  0
  -31.9707  -25.3217   15.4962 C   0  0  0  0  0  0  0  0  0  0  0  0
  -30.4845  -25.4920   26.9184 C   0  0  0  0  0  0  0  0  0  0  0  0
  -25.5768  -29.6714   25.3960 C   0  0  0  0  0  0  0  0  0  0  0  0
  -27.8692  -29.3051   26.3336 C   0  0  0  0  0  0  0  0  0  0  0  0
  -25.8951  -28.2285   27.4137 C   0  0  0  0  0  0  0  0  0  0  0  0
  -30.0957  -27.2256   17.7893 C   0  0  0  0  0  0  0  0  0  0  0  0
  -29.1858  -23.1447   24.2203 C   0  0  0  0  0  0  0  0  0  0  0  0
  -28.6342  -26.3014   15.9842 C   0  0  0  0  0  0  0  0  0  0  0  0
  -27.2504  -26.0752   16.5696 C   0  0  0  0  0  0  0  0  0  1  0  0
  -26.7132  -27.3629   25.1836 C   0  0  1  0  0  0  0  0  0  0  0  0
  -29.4333  -24.8587   26.0202 C   0  0  2  0  0  0  0  0  0  0  0  0
  -33.0873  -22.6771   15.9759 C   0  0  0  0  0  0  0  0  0  0  0  0
  -26.5073  -28.6338   26.0552 C   0  0  0  0  0  0  0  0  0  0  0  0
  -27.4584  -16.3423   20.6940 N   0  0  0  0  0  0  0  0  0  0  0  0
  -28.4757  -17.2136   20.8042 N   0  0  0  0  0  0  0  0  0  0  0  0
  -25.0935  -26.5578   23.4947 N   0  0  0  0  0  0  0  0  0  0  0  0
  -27.6849  -20.9295   20.4163 N   0  0  0  0  0  0  0  0  0  0  0  0
  -30.8270  -17.4083   20.5944 N   0  0  0  0  0  0  0  0  0  0  0  0
  -30.0452  -13.0781   19.5774 N   0  0  0  0  0  0  0  0  0  0  0  0
  -29.5620  -21.8265   19.3051 N   0  0  0  0  0  0  0  0  0  0  0  0
  -21.5928  -27.0185   22.5840 N   0  0  0  0  0  0  0  0  0  0  0  0
  -27.5684  -26.3512   25.7949 N   0  0  0  0  0  0  0  0  0  0  0  0
  -29.6469  -26.0840   16.9917 N   0  0  3  0  0  0  0  0  0  0  0  0
  -30.1058  -23.8610   25.1409 N   0  3  0  0  0  0  0  0  0  0  0  0
  -31.6799  -14.6680   19.8198 O   0  0  0  0  0  0  0  0  0  0  0  0
  -23.4150  -28.4147   22.9751 O   0  0  0  0  0  0  0  0  0  0  0  0
  -24.7053  -26.2457   25.7724 O   0  0  0  0  0  0  0  0  0  0  0  0
  -29.1443  -26.2896   24.0949 O   0  0  0  0  0  0  0  0  0  0  0  0
  -28.1241  -23.1975   20.5028 O   0  0  0  0  0  0  0  0  0  0  0  0
  -25.0752  -10.5632   19.4811 O   0  0  0  0  0  0  0  0  0  0  0  0
  -27.0408  -26.9760   17.6564 O   0  0  0  0  0  0  0  0  0  1  0  0
  -21.1757   -9.3143   23.1741 F   0  0  0  0  0  0  0  0  0  0  0  0
  -25.1652   -8.1863   20.8899 F   0  0  0  0  0  0  0  0  0  0  0  0
  -33.4852  -21.4158   16.3140 F   0  0  0  0  0  0  0  0  0  0  0  0
  -32.9151  -22.6474   14.6222 F   0  0  0  0  0  0  0  0  0  0  0  0
  -34.1722  -23.4754   16.1916 F   0  0  0  0  0  0  0  0  0  0  0  0
  1  2  1  0  0  0  0
  1  5  2  0  0  0  0
  2  6  2  0  0  0  0
  3  8  2  0  0  0  0
  3 17  1  0  0  0  0
  4  9  1  0  0  0  0
  4 17  2  0  0  0  0
  5 19  1  0  0  0  0
  6 21  1  0  0  0  0
  7 10  2  0  0  0  0
  7 20  1  0  0  0  0
  8 27  1  0  0  0  0
  9 27  2  0  0  0  0
 10 28  1  0  0  0  0
 11 12  2  0  0  0  0
 11 29  1  0  0  0  0
 12 30  1  0  0  0  0
 13 22  1  0  0  0  0
 13 28  2  0  0  0  0
 14 23  2  0  0  0  0
 14 25  1  0  0  0  0
 15 25  2  0  0  0  0
 15 26  1  0  0  0  0
 16 30  2  0  0  0  0
 16 31  1  0  0  0  0
 17 32  1  0  0  0  0
 18 32  1  0  0  0  0
 18 33  2  0  0  0  0
 18 34  1  0  0  0  0
 19 21  2  0  0  0  0
 19 39  1  0  0  0  0
 20 22  2  0  0  0  0
 20 40  1  0  0  0  0
 21 48  1  0  0  0  0
 22 41  1  0  0  0  0
 23 24  1  0  0  0  0
 23 62  1  0  0  0  0
 24 26  2  0  0  0  0
 24 51  1  0  0  0  0
 25 70  1  0  0  0  0
 26 73  1  0  0  0  0
 27 80  1  0  0  0  0
 28 81  1  0  0  0  0
 29 31  2  0  0  0  0
 29 80  1  0  0  0  0
 30 82  1  0  0  0  0
 31 83  1  0  0  0  0
 32 64  2  0  0  0  0
 33 65  1  0  0  0  0
 33 68  1  0  0  0  0
 34 69  1  0  0  0  0
 34 75  2  0  0  0  0
 35 49  1  0  0  0  0
 35 71  1  0  0  0  0
 35 76  2  0  0  0  0
 36 60  1  0  0  0  0
 36 66  1  0  0  0  0
 36 77  2  0  0  0  0
 37 61  1  0  0  0  0
 37 72  1  0  0  0  0
 37 78  2  0  0  0  0
 38 67  1  0  0  0  0
 38 70  1  0  0  0  0
 38 79  2  0  0  0  0
 39 42  1  0  0  0  0
 40 49  1  0  0  0  0
 41 66  1  0  0  0  0
 42 44  1  0  0  0  0
 43 45  1  0  0  0  0
 43 46  1  0  0  0  0
 44 48  1  0  0  0  0
 45 50  1  0  0  0  0
 46 67  1  0  0  0  0
 47 50  1  0  0  0  0
 47 67  1  0  0  0  0
 48 71  1  0  0  0  0
 49 66  1  0  0  0  0
 50 65  1  0  0  0  0
 52 61  1  0  0  0  0
 53 63  1  0  0  0  0
 54 63  1  0  0  0  0
 55 63  1  0  0  0  0
 56 73  1  0  0  0  0
 57 74  1  0  0  0  0
 58 59  1  0  0  0  0
 58 73  1  0  0  0  0
 59 81  1  0  0  0  0
 60 63  1  0  0  0  0
 60 72  1  0  0  0  0
 61 74  1  0  0  0  0
 62 84  1  0  0  0  0
 62 85  1  0  0  0  0
 62 86  1  0  0  0  0
 64 65  1  0  0  0  0
M  CHG  1  74   1
M  ISO  4  38 100  59 101  70 100  81 101
M  END
> <Batch ID>
0021

> <Smiles>
CNC(C)C(=O)NC(C(=O)N1Cc2cc([101O:1][101CH2:1]CN(C)c3cc([100NH:0][100C:0](=O)N4CCCC(n5nc(-c6ccc(Oc7ccc(F)cc7F)cc6)c(C(N)=O)c5N)C4)cc(C(F)(F)F)c3C)ccc2CC1C(=O)NC1CCCc2ccccc21)C(C)(C)C

> <Shape>
0.235

> <Color>
0.078

> <Negative vol penalty>
0.000

$$$$

  -OEChem-04042321113D

 91101  0     1  0  0  0  0  0999 V2000
  -27.6295  -27.6341   25.4519 C   0  0  0  0  0  0  0  0  0  0  0  0
  -28.8098  -26.9825   25.7950 C   0  0  0  0  0  0  0  0  0  0  0  0
  -23.0323   -9.9652   19.8371 C   0  0  0  0  0  0  0  0  0  0  0  0
  -23.8818   -9.7132   22.0848 C   0  0  0  0  0  0  0  0  0  0  0  0
  -26.8842  -27.1943   24.3588 C   0  0  0  0  0  0  0  0  0  0  0  0
  -29.2449  -25.8899   25.0457 C   0  0  0  0  0  0  0  0  0  0  0  0
  -35.2515  -22.6824   22.8210 C   0  0  0  0  0  0  0  0  0  0  0  0
  -22.2953   -8.7901   19.9839 C   0  0  0  0  0  0  0  0  0  0  0  0
  -23.1448   -8.5381   22.2316 C   0  0  0  0  0  0  0  0  0  0  0  0
  -35.8623  -21.4292   22.8088 C   0  0  0  0  0  0  0  0  0  0  0  0
  -19.4040   -7.8299   21.4507 C   0  0  0  0  0  0  0  0  0  0  0  0
  -18.0789   -7.8371   21.0153 C   0  0  0  0  0  0  0  0  0  0  0  0
  -34.5342  -20.8072   20.8935 C   0  0  0  0  0  0  0  0  0  0  0  0
  -29.9789  -17.1534   23.6034 C   0  0  0  0  0  0  0  0  0  0  0  0
  -32.1357  -16.3816   22.8355 C   0  0  0  0  0  0  0  0  0  0  0  0
  -18.5803   -6.0572   19.4603 C   0  0  0  0  0  0  0  0  0  0  0  0
  -23.8256  -10.4267   20.8875 C   0  0  0  0  0  0  0  0  0  0  0  0
  -24.1702  -12.9497   21.0410 C   0  0  0  0  0  0  0  0  0  0  0  0
  -27.3153  -26.1018   23.5899 C   0  0  0  0  0  0  0  0  0  0  0  0
  -34.2680  -23.0041   21.8746 C   0  0  0  0  0  0  0  0  0  0  0  0
  -28.5039  -25.4343   23.9420 C   0  0  0  0  0  0  0  0  0  0  0  0
  -33.9143  -22.0661   20.8942 C   0  0  0  0  0  0  0  0  0  0  0  0
  -30.6042  -17.9313   24.5779 C   0  0  0  0  0  0  0  0  0  0  0  0
  -31.9952  -17.9344   24.6811 C   0  0  0  0  0  0  0  0  0  0  0  0
  -30.7447  -16.3785   22.7323 C   0  0  0  0  0  0  0  0  0  0  0  0
  -32.7610  -17.1596   23.8099 C   0  0  0  0  0  0  0  0  0  0  0  0
  -22.3515   -8.0765   21.1812 C   0  0  0  0  0  0  0  0  0  0  0  0
  -35.5016  -20.4903   21.8468 C   0  0  0  0  0  0  0  0  0  0  0  0
  -20.3173   -6.9364   20.8909 C   0  0  0  0  0  0  0  0  0  0  0  0
  -17.6670   -6.9508   20.0201 C   0  0  0  0  0  0  0  0  0  0  0  0
  -19.9054   -6.0501   19.8958 C   0  0  0  0  0  0  0  0  0  0  0  0
  -24.5876  -11.6403   20.7363 C   0  0  0  0  0  0  0  0  0  0  0  0
  -25.2495  -13.7371   20.7223 C   0  0  0  0  0  0  0  0  0  0  0  0
  -22.9187  -13.4129   21.5655 C   0  0  0  0  0  0  0  0  0  0  0  0
  -31.1894  -23.7828   22.0149 C   0  0  0  0  0  0  0  0  0  0  0  0
  -31.5693  -24.2734   18.8310 C   0  0  0  0  0  0  0  0  0  0  0  0
  -33.3139  -23.5812   15.9807 C   0  0  0  0  0  0  0  0  0  0  0  0
  -30.7215  -14.7639   20.7986 C   0  0  0  0  0  0  0  0  0  0  0  0
  -26.4515  -25.6333   22.4458 C   0  0  0  0  0  0  0  0  0  0  0  0
  -33.6378  -24.3698   21.8847 C   0  0  0  0  0  0  0  0  0  0  0  0
  -32.8786  -22.3693   19.8435 C   0  0  0  0  0  0  0  0  0  0  0  0
  -27.1759  -24.7017   21.4774 C   0  0  0  0  0  0  0  0  0  0  0  0
  -28.2565  -19.3018   27.1318 C   0  0  0  0  0  0  0  0  0  0  0  0
  -28.8351  -20.5684   26.5345 C   0  0  0  0  0  0  0  0  0  0  0  0
  -33.3203  -19.5401   27.7759 C   0  0  0  0  0  0  0  0  0  0  0  0
  -33.9434  -20.3978   26.6933 C   0  0  0  0  0  0  0  0  0  0  0  0
  -29.5074  -12.6325   18.2179 C   0  0  0  0  0  0  0  0  0  0  0  0
  -27.9479  -23.6317   22.2428 C   0  0  0  0  0  0  0  0  0  0  0  0
  -28.0849  -12.2921   18.6681 C   0  0  0  0  0  0  0  0  0  0  0  0
  -29.2820  -18.2448   26.7378 C   0  0  0  0  0  0  0  0  0  0  0  0
  -29.3889  -20.0876   25.1981 C   0  0  0  0  0  0  0  0  0  0  0  0
  -32.9489  -18.2668   27.0246 C   0  0  0  0  0  0  0  0  0  0  0  0
  -33.0590  -20.1099   25.4855 C   0  0  0  0  0  0  0  0  0  0  0  0
  -30.4698  -12.7250   19.4007 C   0  0  0  0  0  0  0  0  0  0  0  0
  -28.6208  -13.2855   20.9293 C   0  0  0  0  0  0  0  0  0  0  0  0
  -29.0217  -24.2609   23.1388 C   0  0  1  0  0  0  0  0  0  0  0  0
  -32.2799  -24.4064   21.1904 C   0  0  1  0  0  0  0  0  0  0  0  0
  -27.6019  -13.2454   19.7787 C   0  0  2  0  0  0  0  0  0  0  0  0
  -33.3649  -24.1027   13.5266 C   0  0  0  0  0  0  0  0  0  0  0  0
  -29.1978  -22.4055   18.3872 C   0  0  0  0  0  0  0  0  0  0  0  0
  -29.8869  -22.2140   15.9879 C   0  0  0  0  0  0  0  0  0  0  0  0
  -29.2201  -24.4300   16.9191 C   0  0  0  0  0  0  0  0  0  0  0  0
  -36.0169  -24.7714   16.1716 C   0  0  0  0  0  0  0  0  0  0  0  0
  -36.4327  -17.2232   23.0464 C   0  0  0  0  0  0  0  0  0  0  0  0
  -35.0095  -16.7287   22.8178 C   0  0  0  0  0  0  0  0  0  0  0  0
  -36.5353  -18.7434   23.0860 C   0  0  0  0  0  0  0  0  0  1  0  0
  -31.4365  -23.4181   17.5941 C   0  0  1  0  0  0  0  0  0  0  0  0
  -33.8839  -24.4864   14.9036 C   0  0  2  0  0  0  0  0  0  0  0  0
  -29.9535  -23.1102   17.2430 C   0  0  0  0  0  0  0  0  0  0  0  0
  -25.8347  -11.5943   20.2603 N   0  0  0  0  0  0  0  0  0  0  0  0
  -26.2102  -12.8846   20.2635 N   0  0  0  0  0  0  0  0  0  0  0  0
  -29.8106  -18.7037   25.4473 N   0  0  0  0  0  0  0  0  0  0  0  0
  -32.6261  -18.7187   25.6655 N   0  0  0  0  0  0  0  0  0  0  0  0
  -32.2865  -23.7161   19.8990 N   0  0  0  0  0  0  0  0  0  0  0  0
  -29.9489  -13.6489   20.4106 N   0  0  0  0  0  0  0  0  0  0  0  0
  -25.4609  -15.0686   20.7923 N   0  0  0  0  0  0  0  0  0  0  0  0
  -21.9181  -12.4699   21.8372 N   0  0  0  0  0  0  0  0  0  0  0  0
  -30.1096  -15.5893   21.7415 N   0  0  0  0  0  0  0  0  0  0  0  0
  -34.1445  -17.1467   23.8945 N   0  0  0  0  0  0  0  0  0  0  0  0
  -30.1705  -24.6536   22.3512 N   0  0  0  0  0  0  0  0  0  0  0  0
  -32.1692  -24.1096   16.5390 N   0  0  0  0  0  0  0  0  0  0  0  0
  -35.3714  -24.3983   14.8866 N   0  3  0  0  0  0  0  0  0  0  0  0
  -22.6887  -14.6288   21.7712 O   0  0  0  0  0  0  0  0  0  0  0  0
  -31.2660  -22.5990   22.3219 O   0  0  0  0  0  0  0  0  0  0  0  0
  -31.0616  -25.3976   18.8462 O   0  0  0  0  0  0  0  0  0  0  0  0
  -33.8303  -22.5104   16.2929 O   0  0  0  0  0  0  0  0  0  0  0  0
  -31.8318  -14.9862   20.3090 O   0  0  0  0  0  0  0  0  0  0  0  0
  -21.6323   -6.9300   21.3249 O   0  0  0  0  0  0  0  0  0  0  0  0
  -36.0958  -19.2661   21.8331 O   0  0  0  0  0  0  0  0  0  1  0  0
  -16.3941   -6.9567   19.6031 F   0  0  0  0  0  0  0  0  0  0  0  0
  -20.7779   -5.1886   19.3551 F   0  0  0  0  0  0  0  0  0  0  0  0
  1  2  1  0  0  0  0
  1  5  2  0  0  0  0
  2  6  2  0  0  0  0
  3  8  2  0  0  0  0
  3 17  1  0  0  0  0
  4  9  1  0  0  0  0
  4 17  2  0  0  0  0
  5 19  1  0  0  0  0
  6 21  1  0  0  0  0
  7 10  2  0  0  0  0
  7 20  1  0  0  0  0
  8 27  1  0  0  0  0
  9 27  2  0  0  0  0
 10 28  1  0  0  0  0
 11 12  2  0  0  0  0
 11 29  1  0  0  0  0
 12 30  1  0  0  0  0
 13 22  1  0  0  0  0
 13 28  2  0  0  0  0
 14 23  2  0  0  0  0
 14 25  1  0  0  0  0
 15 25  2  0  0  0  0
 15 26  1  0  0  0  0
 16 30  2  0  0  0  0
 16 31  1  0  0  0  0
 17 32  1  0  0  0  0
 18 32  1  0  0  0  0
 18 33  2  0  0  0  0
 18 34  1  0  0  0  0
 19 21  2  0  0  0  0
 19 39  1  0  0  0  0
 20 22  2  0  0  0  0
 20 40  1  0  0  0  0
 21 56  1  0  0  0  0
 22 41  1  0  0  0  0
 23 24  1  0  0  0  0
 23 72  1  0  0  0  0
 24 26  2  0  0  0  0
 24 73  1  0  0  0  0
 25 78  1  0  0  0  0
 26 79  1  0  0  0  0
 27 88  1  0  0  0  0
 28 89  1  0  0  0  0
 29 31  2  0  0  0  0
 29 88  1  0  0  0  0
 30 90  1  0  0  0  0
 31 91  1  0  0  0  0
 32 70  2  0  0  0  0
 33 71  1  0  0  0  0
 33 76  1  0  0  0  0
 34 77  1  0  0  0  0
 34 83  2  0  0  0  0
 35 57  1  0  0  0  0
 35 80  1  0  0  0  0
 35 84  2  0  0  0  0
 36 67  1  0  0  0  0
 36 74  1  0  0  0  0
 36 85  2  0  0  0  0
 37 68  1  0  0  0  0
 37 81  1  0  0  0  0
 37 86  2  0  0  0  0
 38 75  1  0  0  0  0
 38 78  1  0  0  0  0
 38 87  2  0  0  0  0
 39 42  1  0  0  0  0
 40 57  1  0  0  0  0
 41 74  1  0  0  0  0
 42 48  1  0  0  0  0
 43 44  1  0  0  0  0
 43 50  1  0  0  0  0
 44 51  1  0  0  0  0
 45 46  1  0  0  0  0
 45 52  1  0  0  0  0
 46 53  1  0  0  0  0
 47 49  1  0  0  0  0
 47 54  1  0  0  0  0
 48 56  1  0  0  0  0
 49 58  1  0  0  0  0
 50 72  1  0  0  0  0
 51 72  1  0  0  0  0
 52 73  1  0  0  0  0
 53 73  1  0  0  0  0
 54 75  1  0  0  0  0
 55 58  1  0  0  0  0
 55 75  1  0  0  0  0
 56 80  1  0  0  0  0
 57 74  1  0  0  0  0
 58 71  1  0  0  0  0
 59 68  1  0  0  0  0
 60 69  1  0  0  0  0
 61 69  1  0  0  0  0
 62 69  1  0  0  0  0
 63 82  1  0  0  0  0
 64 65  1  0  0  0  0
 64 66  1  0  0  0  0
 65 79  1  0  0  0  0
 66 89  1  0  0  0  0
 67 69  1  0  0  0  0
 67 81  1  0  0  0  0
 68 82  1  0  0  0  0
 70 71  1  0  0  0  0
M  CHG  1  82   1
M  ISO  4  38 100  66 101  78 100  89 101
M  END
> <Batch ID>
0021

> <Smiles>
CNC(C)C(=O)NC(C(=O)N1Cc2cc([101O:1][101CH2:1]CCNc3cc([100NH:0][100C:0](=O)N4CCCC(n5nc(-c6ccc(Oc7ccc(F)cc7F)cc6)c(C(N)=O)c5N)C4)cc(N4CCCC4)c3N3CCCC3)ccc2CC1C(=O)NC1CCCc2ccccc21)C(C)(C)C

> <Shape>
0.176

> <Color>
0.190

> <Negative vol penalty>
0.000

$$$$

  -OEChem-04042321113D

 89 98  0     1  0  0  0  0  0999 V2000
  -28.5380  -36.0651   27.6102 C   0  0  0  0  0  0  0  0  0  0  0  0
  -28.9572  -34.9713   26.8597 C   0  0  0  0  0  0  0  0  0  0  0  0
  -22.5100  -10.3319   20.6650 C   0  0  0  0  0  0  0  0  0  0  0  0
  -24.0290   -9.9670   22.5079 C   0  0  0  0  0  0  0  0  0  0  0  0
  -27.1764  -36.3146   27.7762 C   0  0  0  0  0  0  0  0  0  0  0  0
  -28.0148  -34.1256   26.2757 C   0  0  0  0  0  0  0  0  0  0  0  0
  -28.5064  -31.2123   20.9113 C   0  0  0  0  0  0  0  0  0  0  0  0
  -30.6914  -22.1839   22.5677 C   0  0  0  0  0  0  0  0  0  0  0  0
  -30.8349  -20.8253   22.2867 C   0  0  0  0  0  0  0  0  0  0  0  0
  -21.7247   -9.2648   21.1009 C   0  0  0  0  0  0  0  0  0  0  0  0
  -23.2437   -8.8999   22.9440 C   0  0  0  0  0  0  0  0  0  0  0  0
  -28.8658  -29.9059   20.5828 C   0  0  0  0  0  0  0  0  0  0  0  0
  -22.7622   -5.6583   22.1128 C   0  0  0  0  0  0  0  0  0  0  0  0
  -23.4147   -4.4832   22.4856 C   0  0  0  0  0  0  0  0  0  0  0  0
  -26.5343  -29.2929   20.4953 C   0  0  0  0  0  0  0  0  0  0  0  0
  -28.4323  -20.5929   22.1834 C   0  0  0  0  0  0  0  0  0  0  0  0
  -22.4892   -4.6746   24.7091 C   0  0  0  0  0  0  0  0  0  0  0  0
  -23.6622  -10.6830   21.3684 C   0  0  0  0  0  0  0  0  0  0  0  0
  -24.0796  -13.1285   20.7743 C   0  0  0  0  0  0  0  0  0  0  0  0
  -26.2169  -35.4771   27.1859 C   0  0  0  0  0  0  0  0  0  0  0  0
  -27.1563  -31.5668   21.0451 C   0  0  0  0  0  0  0  0  0  0  0  0
  -26.6390  -34.3633   26.4351 C   0  0  0  0  0  0  0  0  0  0  0  0
  -26.1603  -30.6051   20.8230 C   0  0  0  0  0  0  0  0  0  0  0  0
  -29.4184  -22.7471   22.6567 C   0  0  0  0  0  0  0  0  0  0  0  0
  -29.7054  -20.0297   22.0945 C   0  0  0  0  0  0  0  0  0  0  0  0
  -22.0915   -8.5488   22.2404 C   0  0  0  0  0  0  0  0  0  0  0  0
  -27.8798  -28.9453   20.3776 C   0  0  0  0  0  0  0  0  0  0  0  0
  -21.9731   -6.3416   23.0382 C   0  0  0  0  0  0  0  0  0  0  0  0
  -23.2782   -3.9914   23.7837 C   0  0  0  0  0  0  0  0  0  0  0  0
  -28.2888  -21.9516   22.4645 C   0  0  0  0  0  0  0  0  0  0  0  0
  -21.8366   -5.8497   24.3363 C   0  0  0  0  0  0  0  0  0  0  0  0
  -24.4742  -11.7849   20.9183 C   0  0  0  0  0  0  0  0  0  0  0  0
  -25.2060  -13.7706   20.3211 C   0  0  0  0  0  0  0  0  0  0  0  0
  -22.8085  -13.7415   21.0278 C   0  0  0  0  0  0  0  0  0  0  0  0
  -30.7196  -14.6511   20.6604 C   0  0  0  0  0  0  0  0  0  0  0  0
  -25.3490  -32.6602   23.4204 C   0  0  0  0  0  0  0  0  0  0  0  0
  -23.1070  -32.8932   21.0877 C   0  0  0  0  0  0  0  0  0  0  0  0
  -21.1495  -32.6196   18.3056 C   0  0  0  0  0  0  0  0  0  0  0  0
  -24.7561  -35.7599   27.4326 C   0  0  0  0  0  0  0  0  0  0  0  0
  -26.7843  -32.9867   21.3736 C   0  0  0  0  0  0  0  0  0  0  0  0
  -24.6960  -30.9395   20.9346 C   0  0  0  0  0  0  0  0  0  0  0  0
  -23.8233  -35.0305   26.4692 C   0  0  0  0  0  0  0  0  0  0  0  0
  -29.5906  -11.9348   18.6142 C   0  0  0  0  0  0  0  0  0  0  0  0
  -24.2304  -33.5664   26.3375 C   0  0  0  0  0  0  0  0  0  0  0  0
  -28.1357  -11.7444   19.0410 C   0  0  0  0  0  0  0  0  0  0  0  0
  -29.4151  -16.7363   20.3405 C   0  0  0  0  0  0  0  0  0  0  0  0
  -31.1423  -16.5923   22.1471 C   0  0  0  0  0  0  0  0  0  0  0  0
  -30.4680  -12.3500   19.7910 C   0  0  0  0  0  0  0  0  0  0  0  0
  -28.8369  -17.9902   20.9940 C   0  0  0  0  0  0  0  0  0  0  0  0
  -30.5584  -17.8423   22.8015 C   0  0  0  0  0  0  0  0  0  0  0  0
  -28.5319  -13.3821   20.9346 C   0  0  0  0  0  0  0  0  0  0  0  0
  -25.6472  -33.4371   25.7652 C   0  0  1  0  0  0  0  0  0  0  0  0
  -30.0827  -15.8230   21.3639 C   0  0  0  0  0  0  0  0  0  0  0  0
  -25.3938  -33.1132   21.9885 C   0  0  1  0  0  0  0  0  0  0  0  0
  -27.6055  -12.9921   19.7693 C   0  0  2  0  0  0  0  0  0  0  0  0
  -29.9059  -24.6144   24.2902 C   0  0  0  0  0  0  0  0  0  0  0  0
  -18.8024  -33.0001   17.5032 C   0  0  0  0  0  0  0  0  0  0  0  0
  -22.2034  -30.3663   22.5398 C   0  0  0  0  0  0  0  0  0  0  0  0
  -20.2336  -30.2683   20.9975 C   0  0  0  0  0  0  0  0  0  0  0  0
  -20.5232  -32.2186   22.5256 C   0  0  0  0  0  0  0  0  0  0  0  0
  -22.0366  -34.5909   16.2843 C   0  0  0  0  0  0  0  0  0  0  0  0
  -29.7929  -25.9179   19.5708 C   0  0  0  0  0  0  0  0  0  0  0  0
  -29.1823  -24.9519   20.5749 C   0  0  0  0  0  0  0  0  0  0  0  0
  -29.6219  -27.3842   19.9485 C   0  0  0  0  0  0  0  0  0  1  0  0
  -29.2665  -24.2195   22.9614 C   0  0  1  0  0  0  0  0  0  0  0  0
  -22.0499  -31.9738   20.5252 C   0  0  1  0  0  0  0  0  0  0  0  0
  -20.1936  -33.5974   17.6464 C   0  0  2  0  0  0  0  0  0  0  0  0
  -21.2790  -31.2071   21.6367 C   0  0  0  0  0  0  0  0  0  0  0  0
  -25.7515  -11.5839   20.5834 N   0  0  0  0  0  0  0  0  0  0  0  0
  -26.1693  -12.8098   20.2245 N   0  0  0  0  0  0  0  0  0  0  0  0
  -29.8501  -18.6655   21.8120 N   0  0  0  0  0  0  0  0  0  0  0  0
  -29.9186  -13.5250   20.4699 N   0  0  0  0  0  0  0  0  0  0  0  0
  -24.3831  -32.3399   21.2641 N   0  0  0  0  0  0  0  0  0  0  0  0
  -25.4566  -15.0575   19.9996 N   0  0  0  0  0  0  0  0  0  0  0  0
  -22.5562  -14.2515   22.3086 N   0  0  0  0  0  0  0  0  0  0  0  0
  -25.6363  -33.6557   24.3347 N   0  0  0  0  0  0  0  0  0  0  0  0
  -21.2028  -32.7998   19.6716 N   0  0  0  0  0  0  0  0  0  0  0  0
  -20.6871  -33.9697   16.2903 N   0  3  0  0  0  0  0  0  0  0  0  0
  -29.8387  -25.0888   21.8963 N   0  3  0  0  0  0  0  0  0  0  0  0
  -21.9165  -13.8194   20.1492 O   0  0  0  0  0  0  0  0  0  0  0  0
  -31.8931  -14.7370   20.2893 O   0  0  0  0  0  0  0  0  0  0  0  0
  -25.0727  -31.4942   23.6769 O   0  0  0  0  0  0  0  0  0  0  0  0
  -22.8131  -34.0613   21.3539 O   0  0  0  0  0  0  0  0  0  0  0  0
  -21.7824  -31.7774   17.6726 O   0  0  0  0  0  0  0  0  0  0  0  0
  -21.3252   -7.5076   22.6663 O   0  0  0  0  0  0  0  0  0  0  0  0
  -28.2279  -27.6692   20.0576 O   0  0  0  0  0  0  0  0  0  1  0  0
  -23.9037   -2.8622   24.1412 F   0  0  0  0  0  0  0  0  0  0  0  0
  -27.0615  -22.4835   22.5492 F   0  0  0  0  0  0  0  0  0  0  0  0
  -21.0790   -6.5011   25.2293 F   0  0  0  0  0  0  0  0  0  0  0  0
  1  2  1  0  0  0  0
  1  5  2  0  0  0  0
  2  6  2  0  0  0  0
  3 10  2  0  0  0  0
  3 18  1  0  0  0  0
  4 11  1  0  0  0  0
  4 18  2  0  0  0  0
  5 20  1  0  0  0  0
  6 22  1  0  0  0  0
  7 12  2  0  0  0  0
  7 21  1  0  0  0  0
  8  9  2  0  0  0  0
  8 24  1  0  0  0  0
  9 25  1  0  0  0  0
 10 26  1  0  0  0  0
 11 26  2  0  0  0  0
 12 27  1  0  0  0  0
 13 14  2  0  0  0  0
 13 28  1  0  0  0  0
 14 29  1  0  0  0  0
 15 23  1  0  0  0  0
 15 27  2  0  0  0  0
 16 25  2  0  0  0  0
 16 30  1  0  0  0  0
 17 29  2  0  0  0  0
 17 31  1  0  0  0  0
 18 32  1  0  0  0  0
 19 32  1  0  0  0  0
 19 33  2  0  0  0  0
 19 34  1  0  0  0  0
 20 22  2  0  0  0  0
 20 39  1  0  0  0  0
 21 23  2  0  0  0  0
 21 40  1  0  0  0  0
 22 52  1  0  0  0  0
 23 41  1  0  0  0  0
 24 30  2  0  0  0  0
 24 65  1  0  0  0  0
 25 71  1  0  0  0  0
 26 85  1  0  0  0  0
 27 86  1  0  0  0  0
 28 31  2  0  0  0  0
 28 85  1  0  0  0  0
 29 87  1  0  0  0  0
 30 88  1  0  0  0  0
 31 89  1  0  0  0  0
 32 69  2  0  0  0  0
 33 70  1  0  0  0  0
 33 74  1  0  0  0  0
 34 75  1  0  0  0  0
 34 80  2  0  0  0  0
 35 53  1  0  0  0  0
 35 72  1  0  0  0  0
 35 81  2  0  0  0  0
 36 54  1  0  0  0  0
 36 76  1  0  0  0  0
 36 82  2  0  0  0  0
 37 66  1  0  0  0  0
 37 73  1  0  0  0  0
 37 83  2  0  0  0  0
 38 67  1  0  0  0  0
 38 77  1  0  0  0  0
 38 84  2  0  0  0  0
 39 42  1  0  0  0  0
 40 54  1  0  0  0  0
 41 73  1  0  0  0  0
 42 44  1  0  0  0  0
 43 45  1  0  0  0  0
 43 48  1  0  0  0  0
 44 52  1  0  0  0  0
 45 55  1  0  0  0  0
 46 49  1  0  0  0  0
 46 53  1  0  0  0  0
 47 50  1  0  0  0  0
 47 53  1  0  0  0  0
 48 72  1  0  0  0  0
 49 71  1  0  0  0  0
 50 71  1  0  0  0  0
 51 55  1  0  0  0  0
 51 72  1  0  0  0  0
 52 76  1  0  0  0  0
 54 73  1  0  0  0  0
 55 70  1  0  0  0  0
 56 65  1  0  0  0  0
 57 67  1  0  0  0  0
 58 68  1  0  0  0  0
 59 68  1  0  0  0  0
 60 68  1  0  0  0  0
 61 78  1  0  0  0  0
 62 63  1  0  0  0  0
 62 64  1  0  0  0  0
 63 79  1  0  0  0  0
 64 86  1  0  0  0  0
 65 79  1  0  0  0  0
 66 68  1  0  0  0  0
 66 77  1  0  0  0  0
 67 78  1  0  0  0  0
 69 70  1  0  0  0  0
M  CHG  2  78   1  79   1
M  ISO  4  35 100  53 100  64 101  86 101
M  END
> <Batch ID>
0021

> <Smiles>
CNC(C)C(=O)NC(C(=O)N1Cc2cc([101O:1][101CH2:1]CCNC(C)c3ccc(N4CC[100CH:0]([100C:0](=O)N5CCCC(n6nc(-c7ccc(Oc8ccc(F)cc8F)cc7)c(C(N)=O)c6N)C5)CC4)cc3F)ccc2CC1C(=O)NC1CCCc2ccccc21)C(C)(C)C

> <Shape>
0.318

> <Color>
0.176

> <Negative vol penalty>
0.000

$$$$

  -OEChem-04042321113D

 83 91  0     1  0  0  0  0  0999 V2000
  -34.1375  -27.5140   22.1265 C   0  0  0  0  0  0  0  0  0  0  0  0
  -34.9316  -26.4913   22.6352 C   0  0  0  0  0  0  0  0  0  0  0  0
  -23.1922   -9.8177   19.9317 C   0  0  0  0  0  0  0  0  0  0  0  0
  -23.5697   -9.9990   22.3111 C   0  0  0  0  0  0  0  0  0  0  0  0
  -32.8264  -27.2475   21.7340 C   0  0  0  0  0  0  0  0  0  0  0  0
  -34.4146  -25.2015   22.7528 C   0  0  0  0  0  0  0  0  0  0  0  0
  -36.4089  -18.3317   22.3728 C   0  0  0  0  0  0  0  0  0  0  0  0
  -32.7677  -11.8546   26.3656 C   0  0  0  0  0  0  0  0  0  0  0  0
  -22.4271   -8.6702   20.1405 C   0  0  0  0  0  0  0  0  0  0  0  0
  -22.8046   -8.8515   22.5199 C   0  0  0  0  0  0  0  0  0  0  0  0
  -36.3455  -17.1495   23.1090 C   0  0  0  0  0  0  0  0  0  0  0  0
  -23.2094   -5.5052   22.2566 C   0  0  0  0  0  0  0  0  0  0  0  0
  -31.4236  -12.2133   26.4670 C   0  0  0  0  0  0  0  0  0  0  0  0
  -23.7087   -4.5446   23.1362 C   0  0  0  0  0  0  0  0  0  0  0  0
  -34.0926  -16.7893   22.3254 C   0  0  0  0  0  0  0  0  0  0  0  0
  -32.6561  -12.1149   23.9662 C   0  0  0  0  0  0  0  0  0  0  0  0
  -21.7515   -4.8027   24.5290 C   0  0  0  0  0  0  0  0  0  0  0  0
  -23.7635  -10.4820   21.0170 C   0  0  0  0  0  0  0  0  0  0  0  0
  -24.0995  -12.9990   20.7728 C   0  0  0  0  0  0  0  0  0  0  0  0
  -32.2963  -25.9518   21.8378 C   0  0  0  0  0  0  0  0  0  0  0  0
  -35.3088  -18.7579   21.6147 C   0  0  0  0  0  0  0  0  0  0  0  0
  -33.0948  -24.9177   22.3626 C   0  0  0  0  0  0  0  0  0  0  0  0
  -34.1455  -17.9760   21.5784 C   0  0  0  0  0  0  0  0  0  0  0  0
  -33.3840  -11.8054   25.1152 C   0  0  0  0  0  0  0  0  0  0  0  0
  -31.3119  -12.4736   24.0677 C   0  0  0  0  0  0  0  0  0  0  0  0
  -22.2333   -8.1871   21.4346 C   0  0  0  0  0  0  0  0  0  0  0  0
  -35.1862  -16.3795   23.0878 C   0  0  0  0  0  0  0  0  0  0  0  0
  -21.9813   -6.1147   22.5133 C   0  0  0  0  0  0  0  0  0  0  0  0
  -22.9797   -4.1933   24.2723 C   0  0  0  0  0  0  0  0  0  0  0  0
  -30.6957  -12.5228   25.3181 C   0  0  0  0  0  0  0  0  0  0  0  0
  -21.2523   -5.7634   23.6494 C   0  0  0  0  0  0  0  0  0  0  0  0
  -24.5544  -11.6671   20.8019 C   0  0  0  0  0  0  0  0  0  0  0  0
  -25.2299  -13.7429   20.5376 C   0  0  0  0  0  0  0  0  0  0  0  0
  -22.7737  -13.5175   20.9432 C   0  0  0  0  0  0  0  0  0  0  0  0
  -33.4065  -21.3041   21.6575 C   0  0  0  0  0  0  0  0  0  0  0  0
  -32.2132  -19.9733   18.9505 C   0  0  0  0  0  0  0  0  0  0  0  0
  -31.7294  -17.1651   17.0725 C   0  0  0  0  0  0  0  0  0  0  0  0
  -31.0352  -12.7889   21.5837 C   0  0  0  0  0  0  0  0  0  0  0  0
  -30.8584  -25.7222   21.4449 C   0  0  0  0  0  0  0  0  0  0  0  0
  -35.4027  -20.0219   20.8048 C   0  0  0  0  0  0  0  0  0  0  0  0
  -32.9441  -18.3792   20.7644 C   0  0  0  0  0  0  0  0  0  0  0  0
  -30.5075  -24.2491   21.2521 C   0  0  0  0  0  0  0  0  0  0  0  0
  -29.5227  -13.4682   18.4327 C   0  0  0  0  0  0  0  0  0  0  0  0
  -31.0487  -23.4154   22.4092 C   0  0  0  0  0  0  0  0  0  0  0  0
  -28.0349  -13.2105   18.6817 C   0  0  0  0  0  0  0  0  0  0  0  0
  -30.4048  -12.4843   19.1994 C   0  0  0  0  0  0  0  0  0  0  0  0
  -28.6449  -12.1412   20.8889 C   0  0  0  0  0  0  0  0  0  0  0  0
  -32.5780  -23.5004   22.4824 C   0  0  1  0  0  0  0  0  0  0  0  0
  -34.0398  -20.6240   20.4768 C   0  0  1  0  0  0  0  0  0  0  0  0
  -27.7181  -13.1486   20.1888 C   0  0  2  0  0  0  0  0  0  0  0  0
  -30.6881  -16.3857   14.9265 C   0  0  0  0  0  0  0  0  0  0  0  0
  -29.4484  -20.1576   20.2280 C   0  0  0  0  0  0  0  0  0  0  0  0
  -28.6201  -18.5437   18.5025 C   0  0  0  0  0  0  0  0  0  0  0  0
  -29.5193  -20.7628   17.8025 C   0  0  0  0  0  0  0  0  0  0  0  0
  -34.3311  -16.2332   16.0133 C   0  0  0  0  0  0  0  0  0  0  0  0
  -36.9185  -11.9115   23.7440 C   0  0  0  0  0  0  0  0  0  0  0  0
  -34.8296  -11.4189   25.0067 C   0  0  0  0  0  0  0  0  0  0  0  0
  -36.0002  -13.5918   25.3362 C   0  0  0  0  0  0  0  0  0  0  0  0
  -36.2782  -14.8635   24.5591 C   0  0  0  0  0  0  0  0  0  1  0  0
  -31.1132  -18.9874   18.6390 C   0  0  1  0  0  0  0  0  0  0  0  0
  -31.9570  -16.8883   15.5974 C   0  0  2  0  0  0  0  0  0  0  0  0
  -29.6970  -19.6060   18.8100 C   0  0  0  0  0  0  0  0  0  0  0  0
  -25.8711  -11.5674   20.6011 N   0  0  0  0  0  0  0  0  0  0  0  0
  -26.2533  -12.8462   20.4435 N   0  0  0  0  0  0  0  0  0  0  0  0
  -33.0825  -19.6264   19.9945 N   0  0  0  0  0  0  0  0  0  0  0  0
  -30.0507  -12.4827   20.6204 N   0  0  0  0  0  0  0  0  0  0  0  0
  -25.4384  -15.0699   20.4042 N   0  0  0  0  0  0  0  0  0  0  0  0
  -21.7279  -12.6141   21.1772 N   0  0  0  0  0  0  0  0  0  0  0  0
  -30.5741  -12.7884   22.8997 N   0  0  0  0  0  0  0  0  0  0  0  0
  -33.1801  -22.6548   21.4739 N   0  0  0  0  0  0  0  0  0  0  0  0
  -31.3863  -18.4814   17.2982 N   0  0  0  0  0  0  0  0  0  0  0  0
  -33.0207  -15.8595   15.4214 N   0  3  0  0  0  0  0  0  0  0  0  0
  -35.6845  -12.4958   24.3857 N   0  3  1  0  0  0  0  0  0  0  0  0
  -22.5211  -14.7442   20.8732 O   0  0  0  0  0  0  0  0  0  0  0  0
  -33.1414  -20.6513   22.6602 O   0  0  0  0  0  0  0  0  0  0  0  0
  -32.3023  -21.0095   18.2873 O   0  0  0  0  0  0  0  0  0  0  0  0
  -31.8411  -16.2993   17.9377 O   0  0  0  0  0  0  0  0  0  0  0  0
  -32.1950  -13.0602   21.2625 O   0  0  0  0  0  0  0  0  0  0  0  0
  -21.4866   -7.0676   21.6387 O   0  0  0  0  0  0  0  0  0  0  0  0
  -35.1215  -15.2255   23.8060 O   0  0  0  0  0  0  0  0  0  1  0  0
  -23.4585   -3.2697   25.1160 F   0  0  0  0  0  0  0  0  0  0  0  0
  -29.4042  -12.8656   25.4277 F   0  0  0  0  0  0  0  0  0  0  0  0
  -20.0712   -6.3446   23.9007 F   0  0  0  0  0  0  0  0  0  0  0  0
  1  2  1  0  0  0  0
  1  5  2  0  0  0  0
  2  6  2  0  0  0  0
  3  9  2  0  0  0  0
  3 18  1  0  0  0  0
  4 10  1  0  0  0  0
  4 18  2  0  0  0  0
  5 20  1  0  0  0  0
  6 22  1  0  0  0  0
  7 11  2  0  0  0  0
  7 21  1  0  0  0  0
  8 13  2  0  0  0  0
  8 24  1  0  0  0  0
  9 26  1  0  0  0  0
 10 26  2  0  0  0  0
 11 27  1  0  0  0  0
 12 14  2  0  0  0  0
 12 28  1  0  0  0  0
 13 30  1  0  0  0  0
 14 29  1  0  0  0  0
 15 23  1  0  0  0  0
 15 27  2  0  0  0  0
 16 24  2  0  0  0  0
 16 25  1  0  0  0  0
 17 29  2  0  0  0  0
 17 31  1  0  0  0  0
 18 32  1  0  0  0  0
 19 32  1  0  0  0  0
 19 33  2  0  0  0  0
 19 34  1  0  0  0  0
 20 22  2  0  0  0  0
 20 39  1  0  0  0  0
 21 23  2  0  0  0  0
 21 40  1  0  0  0  0
 22 48  1  0  0  0  0
 23 41  1  0  0  0  0
 24 57  1  0  0  0  0
 25 30  2  0  0  0  0
 25 69  1  0  0  0  0
 26 79  1  0  0  0  0
 27 80  1  0  0  0  0
 28 31  2  0  0  0  0
 28 79  1  0  0  0  0
 29 81  1  0  0  0  0
 30 82  1  0  0  0  0
 31 83  1  0  0  0  0
 32 63  2  0  0  0  0
 33 64  1  0  0  0  0
 33 67  1  0  0  0  0
 34 68  1  0  0  0  0
 34 74  2  0  0  0  0
 35 49  1  0  0  0  0
 35 70  1  0  0  0  0
 35 75  2  0  0  0  0
 36 60  1  0  0  0  0
 36 65  1  0  0  0  0
 36 76  2  0  0  0  0
 37 61  1  0  0  0  0
 37 71  1  0  0  0  0
 37 77  2  0  0  0  0
 38 66  1  0  0  0  0
 38 69  1  0  0  0  0
 38 78  2  0  0  0  0
 39 42  1  0  0  0  0
 40 49  1  0  0  0  0
 41 65  1  0  0  0  0
 42 44  1  0  0  0  0
 43 45  1  0  0  0  0
 43 46  1  0  0  0  0
 44 48  1  0  0  0  0
 45 50  1  0  0  0  0
 46 66  1  0  0  0  0
 47 50  1  0  0  0  0
 47 66  1  0  0  0  0
 48 70  1  0  0  0  0
 49 65  1  0  0  0  0
 50 64  1  0  0  0  0
 51 61  1  0  0  0  0
 52 62  1  0  0  0  0
 53 62  1  0  0  0  0
 54 62  1  0  0  0  0
 55 72  1  0  0  0  0
 56 73  1  0  0  0  0
 57 73  1  0  0  0  0
 58 59  1  0  0  0  0
 58 73  1  0  0  0  0
 59 80  1  0  0  0  0
 60 62  1  0  0  0  0
 60 71  1  0  0  0  0
 61 72  1  0  0  0  0
 63 64  1  0  0  0  0
M  CHG  2  72   1  73   1
M  ISO  4  38 100  59 101  69 100  80 101
M  END
> <Batch ID>
0021

> <Smiles>
CNC(C)C(=O)NC(C(=O)N1Cc2cc([101O:1][101CH2:1]CN(C)Cc3ccc(F)c([100NH:0][100C:0](=O)N4CCCC(n5nc(-c6ccc(Oc7ccc(F)cc7F)cc6)c(C(N)=O)c5N)C4)c3)ccc2CC1C(=O)NC1CCCc2ccccc21)C(C)(C)C

> <Shape>
0.171

> <Color>
0.182

> <Negative vol penalty>
0.000

$$$$

  -OEChem-04042321113D

 85 93  0     1  0  0  0  0  0999 V2000
  -37.3335  -31.4134   20.8296 C   0  0  0  0  0  0  0  0  0  0  0  0
  -36.3909  -30.4374   20.5228 C   0  0  0  0  0  0  0  0  0  0  0  0
  -23.2061   -9.8807   19.8645 C   0  0  0  0  0  0  0  0  0  0  0  0
  -23.7953   -9.9212   22.2072 C   0  0  0  0  0  0  0  0  0  0  0  0
  -37.1040  -32.2954   21.8848 C   0  0  0  0  0  0  0  0  0  0  0  0
  -35.2185  -30.3421   21.2716 C   0  0  0  0  0  0  0  0  0  0  0  0
  -31.1080  -29.7351   18.3767 C   0  0  0  0  0  0  0  0  0  0  0  0
  -22.4979   -8.6955   20.0630 C   0  0  0  0  0  0  0  0  0  0  0  0
  -23.0871   -8.7360   22.4058 C   0  0  0  0  0  0  0  0  0  0  0  0
  -30.8743  -28.4607   17.8620 C   0  0  0  0  0  0  0  0  0  0  0  0
  -23.5653   -5.4303   21.8815 C   0  0  0  0  0  0  0  0  0  0  0  0
  -24.1716   -4.4333   22.6457 C   0  0  0  0  0  0  0  0  0  0  0  0
  -29.2531  -28.0614   19.6031 C   0  0  0  0  0  0  0  0  0  0  0  0
  -30.1049  -19.2044   18.7480 C   0  0  0  0  0  0  0  0  0  0  0  0
  -28.9724  -20.3096   20.5736 C   0  0  0  0  0  0  0  0  0  0  0  0
  -22.3440   -4.5308   24.2229 C   0  0  0  0  0  0  0  0  0  0  0  0
  -23.8549  -10.4935   20.9365 C   0  0  0  0  0  0  0  0  0  0  0  0
  -24.0921  -13.0314   20.8339 C   0  0  0  0  0  0  0  0  0  0  0  0
  -35.9238  -32.2170   22.6408 C   0  0  0  0  0  0  0  0  0  0  0  0
  -30.4228  -30.1790   19.5169 C   0  0  0  0  0  0  0  0  0  0  0  0
  -34.9735  -31.2230   22.3388 C   0  0  0  0  0  0  0  0  0  0  0  0
  -29.4781  -29.3429   20.1288 C   0  0  0  0  0  0  0  0  0  0  0  0
  -29.8745  -17.9689   19.3529 C   0  0  0  0  0  0  0  0  0  0  0  0
  -29.1930  -17.9037   20.5682 C   0  0  0  0  0  0  0  0  0  0  0  0
  -29.6539  -20.3748   19.3583 C   0  0  0  0  0  0  0  0  0  0  0  0
  -22.4384   -8.1232   21.3337 C   0  0  0  0  0  0  0  0  0  0  0  0
  -29.9488  -27.6225   18.4769 C   0  0  0  0  0  0  0  0  0  0  0  0
  -22.3483   -5.9776   22.2880 C   0  0  0  0  0  0  0  0  0  0  0  0
  -23.5609   -3.9835   23.8163 C   0  0  0  0  0  0  0  0  0  0  0  0
  -28.7419  -19.0741   21.1786 C   0  0  0  0  0  0  0  0  0  0  0  0
  -21.7377   -5.5278   23.4587 C   0  0  0  0  0  0  0  0  0  0  0  0
  -24.5871  -11.7175   20.7319 C   0  0  0  0  0  0  0  0  0  0  0  0
  -25.1735  -13.8288   20.5490 C   0  0  0  0  0  0  0  0  0  0  0  0
  -22.7727  -13.4900   21.1573 C   0  0  0  0  0  0  0  0  0  0  0  0
  -31.2826  -31.0831   22.4404 C   0  0  0  0  0  0  0  0  0  0  0  0
  -28.1354  -31.8189   22.7162 C   0  0  0  0  0  0  0  0  0  0  0  0
  -24.9327  -31.2872   21.6641 C   0  0  0  0  0  0  0  0  0  0  0  0
  -30.6821  -14.7904   21.5724 C   0  0  0  0  0  0  0  0  0  0  0  0
  -35.7414  -33.1620   23.8020 C   0  0  0  0  0  0  0  0  0  0  0  0
  -30.6668  -31.5664   20.0439 C   0  0  0  0  0  0  0  0  0  0  0  0
  -28.7013  -29.7794   21.3431 C   0  0  0  0  0  0  0  0  0  0  0  0
  -34.3032  -33.2343   24.3085 C   0  0  0  0  0  0  0  0  0  0  0  0
  -29.7234  -12.6915   18.6782 C   0  0  0  0  0  0  0  0  0  0  0  0
  -33.7196  -31.8332   24.4603 C   0  0  0  0  0  0  0  0  0  0  0  0
  -28.2824  -12.3062   19.0089 C   0  0  0  0  0  0  0  0  0  0  0  0
  -30.5457  -12.9463   19.9377 C   0  0  0  0  0  0  0  0  0  0  0  0
  -28.5038  -13.5659   21.1871 C   0  0  0  0  0  0  0  0  0  0  0  0
  -33.6782  -31.1037   23.1122 C   0  0  1  0  0  0  0  0  0  0  0  0
  -30.2879  -31.7226   21.5134 C   0  0  1  0  0  0  0  0  0  0  0  0
  -27.6358  -13.3476   19.9387 C   0  0  2  0  0  0  0  0  0  0  0  0
  -30.3672  -16.7295   18.6809 C   0  0  0  0  0  0  0  0  0  0  0  0
  -22.5695  -32.0081   22.1036 C   0  0  0  0  0  0  0  0  0  0  0  0
  -28.0842  -30.1046   25.2398 C   0  0  0  0  0  0  0  0  0  0  0  0
  -25.5851  -30.0820   25.0898 C   0  0  0  0  0  0  0  0  0  0  0  0
  -26.7946  -32.2411   25.4037 C   0  0  0  0  0  0  0  0  0  0  0  0
  -30.9257  -17.0034   22.6321 C   0  0  0  0  0  0  0  0  0  0  0  0
  -24.6174  -32.3327   18.9134 C   0  0  0  0  0  0  0  0  0  0  0  0
  -28.9368  -16.5907   21.2323 C   0  0  0  0  0  0  0  0  0  0  0  0
  -29.8032  -24.0144   18.3842 C   0  0  0  0  0  0  0  0  0  0  0  0
  -29.4521  -22.8614   19.3168 C   0  0  0  0  0  0  0  0  0  0  0  0
  -29.3307  -25.3664   18.9055 C   0  0  0  0  0  0  0  0  0  1  0  0
  -26.8989  -31.0764   23.1621 C   0  0  1  0  0  0  0  0  0  0  0  0
  -23.8251  -32.2519   21.2808 C   0  0  2  0  0  0  0  0  0  0  0  0
  -26.8566  -30.8668   24.7021 C   0  0  0  0  0  0  0  0  0  0  0  0
  -25.8821  -11.6781   20.4074 N   0  0  0  0  0  0  0  0  0  0  0  0
  -26.2100  -12.9772   20.3029 N   0  0  0  0  0  0  0  0  0  0  0  0
  -28.9799  -31.1425   21.8245 N   0  0  0  0  0  0  0  0  0  0  0  0
  -29.8873  -13.9071   20.8236 N   0  0  0  0  0  0  0  0  0  0  0  0
  -25.3293  -15.1683   20.4874 N   0  0  0  0  0  0  0  0  0  0  0  0
  -21.7802  -12.5367   21.4227 N   0  0  0  0  0  0  0  0  0  0  0  0
  -29.8823  -21.6028   18.7573 N   0  0  0  0  0  0  0  0  0  0  0  0
  -32.5669  -31.5773   22.3152 N   0  0  0  0  0  0  0  0  0  0  0  0
  -25.7621  -31.8191   22.6287 N   0  0  0  0  0  0  0  0  0  0  0  0
  -30.1356  -16.0485   21.8681 N   0  0  0  0  0  0  0  0  0  0  0  0
  -23.4797  -32.0976   19.8393 N   0  3  0  0  0  0  0  0  0  0  0  0
  -22.4785  -14.7089   21.1934 O   0  0  0  0  0  0  0  0  0  0  0  0
  -30.9119  -30.2072   23.2132 O   0  0  0  0  0  0  0  0  0  0  0  0
  -28.3405  -32.9599   23.1378 O   0  0  0  0  0  0  0  0  0  0  0  0
  -25.0482  -30.1717   21.1611 O   0  0  0  0  0  0  0  0  0  0  0  0
  -31.8192  -14.4763   21.9468 O   0  0  0  0  0  0  0  0  0  0  0  0
  -21.7472   -6.9668   21.5279 O   0  0  0  0  0  0  0  0  0  0  0  0
  -29.7192  -26.3779   17.9769 O   0  0  0  0  0  0  0  0  0  1  0  0
  -24.1425   -3.0250   24.5493 F   0  0  0  0  0  0  0  0  0  0  0  0
  -28.0862  -19.0224   22.3466 F   0  0  0  0  0  0  0  0  0  0  0  0
  -20.5680   -6.0490   23.8537 F   0  0  0  0  0  0  0  0  0  0  0  0
  1  2  1  0  0  0  0
  1  5  2  0  0  0  0
  2  6  2  0  0  0  0
  3  8  2  0  0  0  0
  3 17  1  0  0  0  0
  4  9  1  0  0  0  0
  4 17  2  0  0  0  0
  5 19  1  0  0  0  0
  6 21  1  0  0  0  0
  7 10  2  0  0  0  0
  7 20  1  0  0  0  0
  8 26  1  0  0  0  0
  9 26  2  0  0  0  0
 10 27  1  0  0  0  0
 11 12  2  0  0  0  0
 11 28  1  0  0  0  0
 12 29  1  0  0  0  0
 13 22  1  0  0  0  0
 13 27  2  0  0  0  0
 14 23  2  0  0  0  0
 14 25  1  0  0  0  0
 15 25  2  0  0  0  0
 15 30  1  0  0  0  0
 16 29  2  0  0  0  0
 16 31  1  0  0  0  0
 17 32  1  0  0  0  0
 18 32  1  0  0  0  0
 18 33  2  0  0  0  0
 18 34  1  0  0  0  0
 19 21  2  0  0  0  0
 19 39  1  0  0  0  0
 20 22  2  0  0  0  0
 20 40  1  0  0  0  0
 21 48  1  0  0  0  0
 22 41  1  0  0  0  0
 23 24  1  0  0  0  0
 23 51  1  0  0  0  0
 24 30  2  0  0  0  0
 24 58  1  0  0  0  0
 25 71  1  0  0  0  0
 26 81  1  0  0  0  0
 27 82  1  0  0  0  0
 28 31  2  0  0  0  0
 28 81  1  0  0  0  0
 29 83  1  0  0  0  0
 30 84  1  0  0  0  0
 31 85  1  0  0  0  0
 32 65  2  0  0  0  0
 33 66  1  0  0  0  0
 33 69  1  0  0  0  0
 34 70  1  0  0  0  0
 34 76  2  0  0  0  0
 35 49  1  0  0  0  0
 35 72  1  0  0  0  0
 35 77  2  0  0  0  0
 36 62  1  0  0  0  0
 36 67  1  0  0  0  0
 36 78  2  0  0  0  0
 37 63  1  0  0  0  0
 37 73  1  0  0  0  0
 37 79  2  0  0  0  0
 38 68  1  0  0  0  0
 38 74  1  0  0  0  0
 38 80  2  0  0  0  0
 39 42  1  0  0  0  0
 40 49  1  0  0  0  0
 41 67  1  0  0  0  0
 42 44  1  0  0  0  0
 43 45  1  0  0  0  0
 43 46  1  0  0  0  0
 44 48  1  0  0  0  0
 45 50  1  0  0  0  0
 46 68  1  0  0  0  0
 47 50  1  0  0  0  0
 47 68  1  0  0  0  0
 48 72  1  0  0  0  0
 49 67  1  0  0  0  0
 50 66  1  0  0  0  0
 52 63  1  0  0  0  0
 53 64  1  0  0  0  0
 54 64  1  0  0  0  0
 55 64  1  0  0  0  0
 56 74  1  0  0  0  0
 57 75  1  0  0  0  0
 58 74  1  0  0  0  0
 59 60  1  0  0  0  0
 59 61  1  0  0  0  0
 60 71  1  0  0  0  0
 61 82  1  0  0  0  0
 62 64  1  0  0  0  0
 62 73  1  0  0  0  0
 63 75  1  0  0  0  0
 65 66  1  0  0  0  0
M  CHG  1  75   1
M  ISO  4  38 100  61 101  74 100  82 101
M  END
> <Batch ID>
0021

> <Smiles>
CNC(C)C(=O)NC(C(=O)N1Cc2cc([101O:1][101CH2:1]CCNc3cc(C)c(C[100N:0](C)[100C:0](=O)N4CCCC(n5nc(-c6ccc(Oc7ccc(F)cc7F)cc6)c(C(N)=O)c5N)C4)c(F)c3)ccc2CC1C(=O)NC1CCCc2ccccc21)C(C)(C)C

> <Shape>
0.331

> <Color>
0.195

> <Negative vol penalty>
0.000

$$$$

  -OEChem-04042321113D

 83 91  0     1  0  0  0  0  0999 V2000
  -29.9570  -33.7623   25.4587 C   0  0  0  0  0  0  0  0  0  0  0  0
  -30.4733  -33.0353   24.3909 C   0  0  0  0  0  0  0  0  0  0  0  0
  -23.0950   -9.8598   19.8871 C   0  0  0  0  0  0  0  0  0  0  0  0
  -24.2543   -9.6252   21.9938 C   0  0  0  0  0  0  0  0  0  0  0  0
  -28.8323  -33.2967   26.1386 C   0  0  0  0  0  0  0  0  0  0  0  0
  -29.8658  -31.8416   24.0029 C   0  0  0  0  0  0  0  0  0  0  0  0
  -28.5491  -27.8824   18.1799 C   0  0  0  0  0  0  0  0  0  0  0  0
  -28.5583  -19.1072   21.0998 C   0  0  0  0  0  0  0  0  0  0  0  0
  -28.5983  -20.4246   20.6433 C   0  0  0  0  0  0  0  0  0  0  0  0
  -22.4885   -8.6191   20.0826 C   0  0  0  0  0  0  0  0  0  0  0  0
  -23.6477   -8.3844   22.1894 C   0  0  0  0  0  0  0  0  0  0  0  0
  -28.7037  -26.5808   17.7049 C   0  0  0  0  0  0  0  0  0  0  0  0
  -20.6431   -7.2143   23.2012 C   0  0  0  0  0  0  0  0  0  0  0  0
  -20.1145   -6.9448   24.4636 C   0  0  0  0  0  0  0  0  0  0  0  0
  -26.7185  -25.9144   18.9025 C   0  0  0  0  0  0  0  0  0  0  0  0
  -29.2625  -19.6460   18.4547 C   0  0  0  0  0  0  0  0  0  0  0  0
  -21.5971   -5.0494   24.6797 C   0  0  0  0  0  0  0  0  0  0  0  0
  -23.9779  -10.3629   20.8427 C   0  0  0  0  0  0  0  0  0  0  0  0
  -24.1203  -12.9016   21.0481 C   0  0  0  0  0  0  0  0  0  0  0  0
  -28.2050  -32.1016   25.7526 C   0  0  0  0  0  0  0  0  0  0  0  0
  -27.4824  -28.2079   19.0300 C   0  0  0  0  0  0  0  0  0  0  0  0
  -28.7325  -31.3589   24.6791 C   0  0  0  0  0  0  0  0  0  0  0  0
  -26.5511  -27.2215   19.3848 C   0  0  0  0  0  0  0  0  0  0  0  0
  -28.8705  -18.0591   20.2338 C   0  0  0  0  0  0  0  0  0  0  0  0
  -29.2225  -18.3286   18.9112 C   0  0  0  0  0  0  0  0  0  0  0  0
  -28.9504  -20.6940   19.3208 C   0  0  0  0  0  0  0  0  0  0  0  0
  -22.7648   -7.8814   21.2338 C   0  0  0  0  0  0  0  0  0  0  0  0
  -27.7900  -25.5959   18.0685 C   0  0  0  0  0  0  0  0  0  0  0  0
  -21.6487   -6.4014   22.6781 C   0  0  0  0  0  0  0  0  0  0  0  0
  -20.5915   -5.8624   25.2029 C   0  0  0  0  0  0  0  0  0  0  0  0
  -22.1257   -5.3189   23.4173 C   0  0  0  0  0  0  0  0  0  0  0  0
  -24.6052  -11.6443   20.6410 C   0  0  0  0  0  0  0  0  0  0  0  0
  -25.0755  -13.7922   20.6227 C   0  0  0  0  0  0  0  0  0  0  0  0
  -22.9143  -13.2348   21.7484 C   0  0  0  0  0  0  0  0  0  0  0  0
  -27.2374  -29.2872   22.0097 C   0  0  0  0  0  0  0  0  0  0  0  0
  -24.0807  -29.4429   21.2797 C   0  0  0  0  0  0  0  0  0  0  0  0
  -21.4939  -28.3265   19.3538 C   0  0  0  0  0  0  0  0  0  0  0  0
  -30.6394  -14.9340   20.3855 C   0  0  0  0  0  0  0  0  0  0  0  0
  -27.0198  -31.6142   26.5479 C   0  0  0  0  0  0  0  0  0  0  0  0
  -27.3144  -29.6227   19.5122 C   0  0  0  0  0  0  0  0  0  0  0  0
  -25.3772  -27.5240   20.2786 C   0  0  0  0  0  0  0  0  0  0  0  0
  -26.2120  -30.5321   25.8360 C   0  0  0  0  0  0  0  0  0  0  0  0
  -29.0333  -13.1829   17.5471 C   0  0  0  0  0  0  0  0  0  0  0  0
  -27.1390  -29.4685   25.2562 C   0  0  0  0  0  0  0  0  0  0  0  0
  -27.7319  -12.6729   18.1638 C   0  0  0  0  0  0  0  0  0  0  0  0
  -30.1401  -13.3173   18.5887 C   0  0  0  0  0  0  0  0  0  0  0  0
  -28.4644  -13.6446   20.3773 C   0  0  0  0  0  0  0  0  0  0  0  0
  -28.0868  -30.0722   24.2127 C   0  0  1  0  0  0  0  0  0  0  0  0
  -26.4821  -29.7247   20.7867 C   0  0  1  0  0  0  0  0  0  0  0  0
  -27.3155  -13.5422   19.3630 C   0  0  2  0  0  0  0  0  0  0  0  0
  -29.5621  -17.2230   17.9663 C   0  0  0  0  0  0  0  0  0  0  0  0
  -19.0238  -28.6118   19.0155 C   0  0  0  0  0  0  0  0  0  0  0  0
  -23.5483  -27.7774   23.7802 C   0  0  0  0  0  0  0  0  0  0  0  0
  -21.2576  -27.3000   22.8899 C   0  0  0  0  0  0  0  0  0  0  0  0
  -21.9288  -29.6462   23.4072 C   0  0  0  0  0  0  0  0  0  0  0  0
  -31.0886  -16.9981   21.6572 C   0  0  0  0  0  0  0  0  0  0  0  0
  -21.8659  -29.2653   16.5718 C   0  0  0  0  0  0  0  0  0  0  0  0
  -28.8218  -16.6571   20.7457 C   0  0  0  0  0  0  0  0  0  0  0  0
  -29.3425  -22.3719   17.5162 C   0  0  0  0  0  0  0  0  0  0  0  0
  -29.2697  -23.8801   17.3455 C   0  0  0  0  0  0  0  0  0  1  0  0
  -22.9114  -28.4936   21.3828 C   0  0  1  0  0  0  0  0  0  0  0  0
  -20.4109  -29.0697   18.5926 C   0  0  2  0  0  0  0  0  0  0  0  0
  -22.4346  -28.2978   22.8497 C   0  0  0  0  0  0  0  0  0  0  0  0
  -25.7773  -11.7247   20.0056 N   0  0  0  0  0  0  0  0  0  0  0  0
  -26.0368  -13.0433   20.0102 N   0  0  0  0  0  0  0  0  0  0  0  0
  -25.2597  -28.9206   20.7294 N   0  0  0  0  0  0  0  0  0  0  0  0
  -29.7031  -14.1119   19.7371 N   0  0  0  0  0  0  0  0  0  0  0  0
  -25.1784  -15.1350   20.7165 N   0  0  0  0  0  0  0  0  0  0  0  0
  -22.0440  -12.1977   22.1109 N   0  0  0  0  0  0  0  0  0  0  0  0
  -28.9891  -22.0023   18.8677 N   0  0  0  0  0  0  0  0  0  0  0  0
  -27.3932  -30.2787   22.9595 N   0  0  0  0  0  0  0  0  0  0  0  0
  -21.8848  -29.0114   20.4849 N   0  0  0  0  0  0  0  0  0  0  0  0
  -30.1548  -16.1074   20.9829 N   0  0  0  0  0  0  0  0  0  0  0  0
  -20.5559  -28.8385   17.1275 N   0  3  0  0  0  0  0  0  0  0  0  0
  -22.6093  -14.4187   22.0293 O   0  0  0  0  0  0  0  0  0  0  0  0
  -27.6472  -28.1349   22.0867 O   0  0  0  0  0  0  0  0  0  0  0  0
  -23.9504  -30.6070   21.6663 O   0  0  0  0  0  0  0  0  0  0  0  0
  -21.9451  -27.2448   18.9840 O   0  0  0  0  0  0  0  0  0  0  0  0
  -31.8414  -14.6409   20.4197 O   0  0  0  0  0  0  0  0  0  0  0  0
  -22.1730   -6.6707   21.4250 O   0  0  0  0  0  0  0  0  0  0  0  0
  -27.9390  -24.3245   17.6069 O   0  0  0  0  0  0  0  0  0  1  0  0
  -20.0849   -5.6046   26.4157 F   0  0  0  0  0  0  0  0  0  0  0  0
  -23.0924   -4.5351   22.9205 F   0  0  0  0  0  0  0  0  0  0  0  0
  1  2  1  0  0  0  0
  1  5  2  0  0  0  0
  2  6  2  0  0  0  0
  3 10  2  0  0  0  0
  3 18  1  0  0  0  0
  4 11  1  0  0  0  0
  4 18  2  0  0  0  0
  5 20  1  0  0  0  0
  6 22  1  0  0  0  0
  7 12  2  0  0  0  0
  7 21  1  0  0  0  0
  8  9  2  0  0  0  0
  8 24  1  0  0  0  0
  9 26  1  0  0  0  0
 10 27  1  0  0  0  0
 11 27  2  0  0  0  0
 12 28  1  0  0  0  0
 13 14  2  0  0  0  0
 13 29  1  0  0  0  0
 14 30  1  0  0  0  0
 15 23  1  0  0  0  0
 15 28  2  0  0  0  0
 16 25  1  0  0  0  0
 16 26  2  0  0  0  0
 17 30  2  0  0  0  0
 17 31  1  0  0  0  0
 18 32  1  0  0  0  0
 19 32  1  0  0  0  0
 19 33  2  0  0  0  0
 19 34  1  0  0  0  0
 20 22  2  0  0  0  0
 20 39  1  0  0  0  0
 21 23  2  0  0  0  0
 21 40  1  0  0  0  0
 22 48  1  0  0  0  0
 23 41  1  0  0  0  0
 24 25  2  0  0  0  0
 24 58  1  0  0  0  0
 25 51  1  0  0  0  0
 26 70  1  0  0  0  0
 27 80  1  0  0  0  0
 28 81  1  0  0  0  0
 29 31  2  0  0  0  0
 29 80  1  0  0  0  0
 30 82  1  0  0  0  0
 31 83  1  0  0  0  0
 32 64  2  0  0  0  0
 33 65  1  0  0  0  0
 33 68  1  0  0  0  0
 34 69  1  0  0  0  0
 34 75  2  0  0  0  0
 35 49  1  0  0  0  0
 35 71  1  0  0  0  0
 35 76  2  0  0  0  0
 36 61  1  0  0  0  0
 36 66  1  0  0  0  0
 36 77  2  0  0  0  0
 37 62  1  0  0  0  0
 37 72  1  0  0  0  0
 37 78  2  0  0  0  0
 38 67  1  0  0  0  0
 38 73  1  0  0  0  0
 38 79  2  0  0  0  0
 39 42  1  0  0  0  0
 40 49  1  0  0  0  0
 41 66  1  0  0  0  0
 42 44  1  0  0  0  0
 43 45  1  0  0  0  0
 43 46  1  0  0  0  0
 44 48  1  0  0  0  0
 45 50  1  0  0  0  0
 46 67  1  0  0  0  0
 47 50  1  0  0  0  0
 47 67  1  0  0  0  0
 48 71  1  0  0  0  0
 49 66  1  0  0  0  0
 50 65  1  0  0  0  0
 52 62  1  0  0  0  0
 53 63  1  0  0  0  0
 54 63  1  0  0  0  0
 55 63  1  0  0  0  0
 56 73  1  0  0  0  0
 57 74  1  0  0  0  0
 58 73  1  0  0  0  0
 59 60  1  0  0  0  0
 59 70  1  0  0  0  0
 60 81  1  0  0  0  0
 61 63  1  0  0  0  0
 61 72  1  0  0  0  0
 62 74  1  0  0  0  0
 64 65  1  0  0  0  0
M  CHG  1  74   1
M  ISO  4  38 100  60 101  73 100  81 101
M  END
> <Batch ID>
0021

> <Smiles>
CNC(C)C(=O)NC(C(=O)N1Cc2cc([101O:1][101CH2:1]CNc3ccc(C[100N:0](C)[100C:0](=O)N4CCCC(n5nc(-c6ccc(Oc7ccc(F)cc7F)cc6)c(C(N)=O)c5N)C4)c(C)c3)ccc2CC1C(=O)NC1CCCc2ccccc21)C(C)(C)C

> <Shape>
0.392

> <Color>
0.180

> <Negative vol penalty>
0.000

$$$$

  -OEChem-04042321113D

 83 91  0     1  0  0  0  0  0999 V2000
  -28.5349  -24.1421   26.3292 C   0  0  0  0  0  0  0  0  0  0  0  0
  -27.3522  -23.9705   25.6171 C   0  0  0  0  0  0  0  0  0  0  0  0
  -28.7065  -28.0602   19.3677 C   0  0  0  0  0  0  0  0  0  0  0  0
  -27.6343  -26.0998   20.2865 C   0  0  0  0  0  0  0  0  0  0  0  0
  -29.6655  -23.4002   25.9898 C   0  0  0  0  0  0  0  0  0  0  0  0
  -27.2997  -23.0577   24.5643 C   0  0  0  0  0  0  0  0  0  0  0  0
  -23.1189  -20.2022   24.6753 C   0  0  0  0  0  0  0  0  0  0  0  0
  -20.0238  -27.0978   21.3614 C   0  0  0  0  0  0  0  0  0  0  0  0
  -21.9438  -26.8709   22.8103 C   0  0  0  0  0  0  0  0  0  0  0  0
  -20.0794  -25.7340   21.0741 C   0  0  0  0  0  0  0  0  0  0  0  0
  -21.9994  -25.5071   22.5231 C   0  0  0  0  0  0  0  0  0  0  0  0
  -29.8784  -27.3288   19.1745 C   0  0  0  0  0  0  0  0  0  0  0  0
  -28.8062  -25.3683   20.0932 C   0  0  0  0  0  0  0  0  0  0  0  0
  -21.9375  -20.7852   24.2192 C   0  0  0  0  0  0  0  0  0  0  0  0
  -31.4017  -22.8904   19.5087 C   0  0  0  0  0  0  0  0  0  0  0  0
  -31.2875  -21.6160   18.9535 C   0  0  0  0  0  0  0  0  0  0  0  0
  -22.2051  -19.6577   22.1034 C   0  0  0  0  0  0  0  0  0  0  0  0
  -30.2831  -22.5686   16.9734 C   0  0  0  0  0  0  0  0  0  0  0  0
  -27.5845  -27.4457   19.9238 C   0  0  0  0  0  0  0  0  0  0  0  0
  -25.3094  -28.3574   19.2163 C   0  0  0  0  0  0  0  0  0  0  0  0
  -29.6242  -22.4708   24.9385 C   0  0  0  0  0  0  0  0  0  0  0  0
  -23.8593  -19.3498   23.8436 C   0  0  0  0  0  0  0  0  0  0  0  0
  -28.4313  -22.3036   24.2096 C   0  0  0  0  0  0  0  0  0  0  0  0
  -23.3943  -19.0632   22.5522 C   0  0  0  0  0  0  0  0  0  0  0  0
  -20.9560  -27.6663   22.2294 C   0  0  0  0  0  0  0  0  0  0  0  0
  -21.0671  -24.9386   21.6550 C   0  0  0  0  0  0  0  0  0  0  0  0
  -29.9282  -25.9828   19.5372 C   0  0  0  0  0  0  0  0  0  0  0  0
  -21.4818  -20.5152   22.9320 C   0  0  0  0  0  0  0  0  0  0  0  0
  -30.9566  -24.0040   18.7963 C   0  0  0  0  0  0  0  0  0  0  0  0
  -30.7282  -21.4550   17.6859 C   0  0  0  0  0  0  0  0  0  0  0  0
  -30.3974  -23.8431   17.5286 C   0  0  0  0  0  0  0  0  0  0  0  0
  -26.3739  -28.2009   20.1242 C   0  0  0  0  0  0  0  0  0  0  0  0
  -24.4097  -29.1579   19.8768 C   0  0  0  0  0  0  0  0  0  0  0  0
  -25.1483  -27.8265   17.8942 C   0  0  0  0  0  0  0  0  0  0  0  0
  -26.7862  -19.4101   22.6052 C   0  0  0  0  0  0  0  0  0  0  0  0
  -25.9979  -16.4306   21.5936 C   0  0  0  0  0  0  0  0  0  0  0  0
  -23.5449  -14.2006   20.7831 C   0  0  0  0  0  0  0  0  0  0  0  0
  -21.6501  -30.0592   24.7645 C   0  0  0  0  0  0  0  0  0  0  0  0
  -30.8852  -21.7262   24.5779 C   0  0  0  0  0  0  0  0  0  0  0  0
  -25.1178  -18.7078   24.3600 C   0  0  0  0  0  0  0  0  0  0  0  0
  -24.1416  -18.1389   21.6272 C   0  0  0  0  0  0  0  0  0  0  0  0
  -30.6407  -20.5081   23.6909 C   0  0  0  0  0  0  0  0  0  0  0  0
  -24.8533  -31.8098   24.1506 C   0  0  0  0  0  0  0  0  0  0  0  0
  -29.6966  -20.8621   22.5463 C   0  0  0  0  0  0  0  0  0  0  0  0
  -25.4705  -30.9883   23.0201 C   0  0  0  0  0  0  0  0  0  0  0  0
  -23.9303  -30.9670   25.0255 C   0  0  0  0  0  0  0  0  0  0  0  0
  -23.4818  -29.4352   23.1370 C   0  0  0  0  0  0  0  0  0  0  0  0
  -28.3279  -21.3052   23.0771 C   0  0  1  0  0  0  0  0  0  0  0  0
  -26.0608  -18.2614   23.2470 C   0  0  1  0  0  0  0  0  0  0  0  0
  -24.3809  -30.2657   22.2089 C   0  0  2  0  0  0  0  0  0  0  0  0
  -23.2099  -11.8559   19.9538 C   0  0  0  0  0  0  0  0  0  0  0  0
  -19.0737  -20.5123   20.5436 C   0  0  0  0  0  0  0  0  0  0  0  0
  -26.7640  -17.3198   18.7771 C   0  0  0  0  0  0  0  0  0  0  0  0
  -25.5386  -15.3253   17.8893 C   0  0  0  0  0  0  0  0  0  0  0  0
  -27.5123  -15.0115   19.3821 C   0  0  0  0  0  0  0  0  0  0  0  0
  -19.3707  -29.1652   24.4739 C   0  0  0  0  0  0  0  0  0  0  0  0
  -22.0807  -13.4194   23.2335 C   0  0  0  0  0  0  0  0  0  0  0  0
  -20.8976  -29.1244   22.5368 C   0  0  0  0  0  0  0  0  0  0  0  0
  -20.0051  -22.8297   20.8487 C   0  0  0  0  0  0  0  0  0  0  0  0
  -25.3407  -15.8592   20.3604 C   0  0  1  0  0  0  0  0  0  0  0  0
  -23.3316  -12.7503   21.1777 C   0  0  2  0  0  0  0  0  0  0  0  0
  -20.2323  -21.3381   21.0834 C   0  0  1  0  0  0  0  0  0  1  0  0
  -26.2756  -15.8980   19.1187 C   0  0  0  0  0  0  0  0  0  0  0  0
  -26.1708  -28.8500   21.2737 N   0  0  0  0  0  0  0  0  0  0  0  0
  -24.9683  -29.4222   21.0926 N   0  0  0  0  0  0  0  0  0  0  0  0
  -25.3698  -17.5407   22.1758 N   0  0  0  0  0  0  0  0  0  0  0  0
  -22.9318  -30.2575   24.2251 N   0  0  0  0  0  0  0  0  0  0  0  0
  -23.2031  -29.6545   19.5303 N   0  0  0  0  0  0  0  0  0  0  0  0
  -26.1687  -27.0227   17.3680 N   0  0  0  0  0  0  0  0  0  0  0  0
  -21.1215  -23.5842   21.3715 N   0  0  0  0  0  0  0  0  0  0  0  0
  -27.5476  -20.1563   23.4843 N   0  0  0  0  0  0  0  0  0  0  0  0
  -24.8845  -14.5219   20.7235 N   0  0  0  0  0  0  0  0  0  0  0  0
  -20.7164  -29.3848   23.9632 N   0  0  0  0  0  0  0  0  0  0  0  0
  -22.0879  -12.6113   21.9869 N   0  3  0  0  0  0  0  0  0  0  0  0
  -24.1369  -28.0715   17.1938 O   0  0  0  0  0  0  0  0  0  0  0  0
  -26.6652  -19.6041   21.4013 O   0  0  0  0  0  0  0  0  0  0  0  0
  -27.0265  -15.9067   22.0285 O   0  0  0  0  0  0  0  0  0  0  0  0
  -22.6163  -14.9703   20.5473 O   0  0  0  0  0  0  0  0  0  0  0  0
  -21.3543  -30.4703   25.8938 O   0  0  0  0  0  0  0  0  0  0  0  0
  -31.0715  -25.2687   19.3485 O   0  0  0  0  0  0  0  0  0  0  0  0
  -20.3293  -21.0834   22.4841 O   0  0  0  0  0  0  0  0  0  1  0  0
  -30.6200  -20.2312   17.1522 F   0  0  0  0  0  0  0  0  0  0  0  0
  -29.9691  -24.9092   16.8389 F   0  0  0  0  0  0  0  0  0  0  0  0
  1  2  1  0  0  0  0
  1  5  2  0  0  0  0
  2  6  2  0  0  0  0
  3 12  2  0  0  0  0
  3 19  1  0  0  0  0
  4 13  1  0  0  0  0
  4 19  2  0  0  0  0
  5 21  1  0  0  0  0
  6 23  1  0  0  0  0
  7 14  2  0  0  0  0
  7 22  1  0  0  0  0
  8 10  2  0  0  0  0
  8 25  1  0  0  0  0
  9 11  1  0  0  0  0
  9 25  2  0  0  0  0
 10 26  1  0  0  0  0
 11 26  2  0  0  0  0
 12 27  1  0  0  0  0
 13 27  2  0  0  0  0
 14 28  1  0  0  0  0
 15 16  2  0  0  0  0
 15 29  1  0  0  0  0
 16 30  1  0  0  0  0
 17 24  1  0  0  0  0
 17 28  2  0  0  0  0
 18 30  2  0  0  0  0
 18 31  1  0  0  0  0
 19 32  1  0  0  0  0
 20 32  1  0  0  0  0
 20 33  2  0  0  0  0
 20 34  1  0  0  0  0
 21 23  2  0  0  0  0
 21 39  1  0  0  0  0
 22 24  2  0  0  0  0
 22 40  1  0  0  0  0
 23 48  1  0  0  0  0
 24 41  1  0  0  0  0
 25 58  1  0  0  0  0
 26 70  1  0  0  0  0
 27 80  1  0  0  0  0
 28 81  1  0  0  0  0
 29 31  2  0  0  0  0
 29 80  1  0  0  0  0
 30 82  1  0  0  0  0
 31 83  1  0  0  0  0
 32 64  2  0  0  0  0
 33 65  1  0  0  0  0
 33 68  1  0  0  0  0
 34 69  1  0  0  0  0
 34 75  2  0  0  0  0
 35 49  1  0  0  0  0
 35 71  1  0  0  0  0
 35 76  2  0  0  0  0
 36 60  1  0  0  0  0
 36 66  1  0  0  0  0
 36 77  2  0  0  0  0
 37 61  1  0  0  0  0
 37 72  1  0  0  0  0
 37 78  2  0  0  0  0
 38 67  1  0  0  0  0
 38 73  1  0  0  0  0
 38 79  2  0  0  0  0
 39 42  1  0  0  0  0
 40 49  1  0  0  0  0
 41 66  1  0  0  0  0
 42 44  1  0  0  0  0
 43 45  1  0  0  0  0
 43 46  1  0  0  0  0
 44 48  1  0  0  0  0
 45 50  1  0  0  0  0
 46 67  1  0  0  0  0
 47 50  1  0  0  0  0
 47 67  1  0  0  0  0
 48 71  1  0  0  0  0
 49 66  1  0  0  0  0
 50 65  1  0  0  0  0
 51 61  1  0  0  0  0
 52 62  1  0  0  0  0
 53 63  1  0  0  0  0
 54 63  1  0  0  0  0
 55 63  1  0  0  0  0
 56 73  1  0  0  0  0
 57 74  1  0  0  0  0
 58 73  1  0  0  0  0
 59 62  1  0  0  0  0
 59 70  1  0  0  0  0
 60 63  1  0  0  0  0
 60 72  1  0  0  0  0
 61 74  1  0  0  0  0
 62 81  1  0  0  0  0
 64 65  1  0  0  0  0
M  CHG  1  74   1
M  ISO  4  38 100  62 101  73 100  81 101
M  END
> <Batch ID>
0021

> <Smiles>
CNC(C)C(=O)NC(C(=O)N1Cc2cc([101O:1][101CH:1](C)CNc3ccc(C[100N:0](C)[100C:0](=O)N4CCCC(n5nc(-c6ccc(Oc7ccc(F)cc7F)cc6)c(C(N)=O)c5N)C4)cc3)ccc2CC1C(=O)NC1CCCc2ccccc21)C(C)(C)C

> <Shape>
0.212

> <Color>
0.073

> <Negative vol penalty>
0.000

$$$$

  -OEChem-04042321113D

 83 92  0     1  0  0  0  0  0999 V2000
  -27.7835  -34.3877   25.3963 C   0  0  0  0  0  0  0  0  0  0  0  0
  -28.2895  -33.1112   25.1729 C   0  0  0  0  0  0  0  0  0  0  0  0
  -23.1635   -9.7587   19.9028 C   0  0  0  0  0  0  0  0  0  0  0  0
  -23.9238   -9.7619   22.1961 C   0  0  0  0  0  0  0  0  0  0  0  0
  -26.4688  -34.6871   25.0416 C   0  0  0  0  0  0  0  0  0  0  0  0
  -27.4806  -32.1329   24.5957 C   0  0  0  0  0  0  0  0  0  0  0  0
  -29.2410  -27.6891   20.7669 C   0  0  0  0  0  0  0  0  0  0  0  0
  -30.9603  -19.3345   20.6999 C   0  0  0  0  0  0  0  0  0  0  0  0
  -30.8396  -17.9450   20.6928 C   0  0  0  0  0  0  0  0  0  0  0  0
  -22.4795   -8.5648   20.1312 C   0  0  0  0  0  0  0  0  0  0  0  0
  -23.2397   -8.5680   22.4245 C   0  0  0  0  0  0  0  0  0  0  0  0
  -29.5418  -26.3426   20.9677 C   0  0  0  0  0  0  0  0  0  0  0  0
  -20.0567   -7.5959   23.0115 C   0  0  0  0  0  0  0  0  0  0  0  0
  -19.3037   -7.4959   24.1813 C   0  0  0  0  0  0  0  0  0  0  0  0
  -27.2917  -25.7511   20.3300 C   0  0  0  0  0  0  0  0  0  0  0  0
  -29.3276  -19.4674   22.4758 C   0  0  0  0  0  0  0  0  0  0  0  0
  -20.6426   -5.6108   24.8820 C   0  0  0  0  0  0  0  0  0  0  0  0
  -23.8857  -10.3573   20.9353 C   0  0  0  0  0  0  0  0  0  0  0  0
  -24.0986  -12.8983   20.8621 C   0  0  0  0  0  0  0  0  0  0  0  0
  -25.6464  -33.7148   24.4508 C   0  0  0  0  0  0  0  0  0  0  0  0
  -27.9579  -28.0782   20.3560 C   0  0  0  0  0  0  0  0  0  0  0  0
  -26.1533  -32.4192   24.2339 C   0  0  0  0  0  0  0  0  0  0  0  0
  -26.9779  -27.1029   20.1223 C   0  0  0  0  0  0  0  0  0  0  0  0
  -30.2044  -20.0958   21.5915 C   0  0  0  0  0  0  0  0  0  0  0  0
  -29.9628  -17.3166   21.5772 C   0  0  0  0  0  0  0  0  0  0  0  0
  -22.5175   -7.9694   21.3921 C   0  0  0  0  0  0  0  0  0  0  0  0
  -28.5663  -25.3736   20.7520 C   0  0  0  0  0  0  0  0  0  0  0  0
  -21.1027   -6.7034   22.7769 C   0  0  0  0  0  0  0  0  0  0  0  0
  -19.5966   -6.5033   25.1166 C   0  0  0  0  0  0  0  0  0  0  0  0
  -21.3956   -5.7108   23.7121 C   0  0  0  0  0  0  0  0  0  0  0  0
  -29.2068  -18.0778   22.4687 C   0  0  0  0  0  0  0  0  0  0  0  0
  -24.5930  -11.5903   20.6998 C   0  0  0  0  0  0  0  0  0  0  0  0
  -25.1509  -13.7090   20.5130 C   0  0  0  0  0  0  0  0  0  0  0  0
  -22.8038  -13.3410   21.2903 C   0  0  0  0  0  0  0  0  0  0  0  0
  -25.6500  -29.8715   21.6055 C   0  0  0  0  0  0  0  0  0  0  0  0
  -24.2448  -29.3833   18.7229 C   0  0  0  0  0  0  0  0  0  0  0  0
  -23.9586  -27.4417   15.9310 C   0  0  0  0  0  0  0  0  0  0  0  0
  -30.5570  -15.0279   20.7082 C   0  0  0  0  0  0  0  0  0  0  0  0
  -24.2171  -34.0718   24.1277 C   0  0  0  0  0  0  0  0  0  0  0  0
  -27.6572  -29.5326   20.1181 C   0  0  0  0  0  0  0  0  0  0  0  0
  -25.5911  -27.4669   19.6611 C   0  0  0  0  0  0  0  0  0  0  0  0
  -23.5430  -33.0858   23.1772 C   0  0  0  0  0  0  0  0  0  0  0  0
  -29.5650  -12.6048   18.2953 C   0  0  0  0  0  0  0  0  0  0  0  0
  -23.8136  -31.6505   23.6168 C   0  0  0  0  0  0  0  0  0  0  0  0
  -28.1424  -12.2325   18.7192 C   0  0  0  0  0  0  0  0  0  0  0  0
  -31.2101  -23.6309   21.2895 C   0  0  0  0  0  0  0  0  0  0  0  0
  -30.4682  -12.8576   19.5012 C   0  0  0  0  0  0  0  0  0  0  0  0
  -31.2114  -22.2161   20.7108 C   0  0  0  0  0  0  0  0  0  0  0  0
  -28.5279  -13.4584   20.8953 C   0  0  0  0  0  0  0  0  0  0  0  0
  -29.5708  -22.3532   22.4886 C   0  0  0  0  0  0  0  0  0  0  0  0
  -25.3147  -31.3382   23.5872 C   0  0  1  0  0  0  0  0  0  0  0  0
  -26.1681  -29.8552   20.1952 C   0  0  1  0  0  0  0  0  0  0  0  0
  -27.5643  -13.2577   19.7143 C   0  0  2  0  0  0  0  0  0  0  0  0
  -29.8366  -23.7518   21.9333 C   0  0  2  0  0  0  0  0  0  1  0  0
  -22.7005  -27.2779   13.7659 C   0  0  0  0  0  0  0  0  0  0  0  0
  -21.7844  -28.3916   20.2305 C   0  0  0  0  0  0  0  0  0  0  0  0
  -20.9684  -27.3779   18.0916 C   0  0  0  0  0  0  0  0  0  0  0  0
  -21.2836  -29.8468   18.2591 C   0  0  0  0  0  0  0  0  0  0  0  0
  -26.4443  -27.6428   14.3373 C   0  0  0  0  0  0  0  0  0  0  0  0
  -23.3129  -28.3427   18.1503 C   0  0  1  0  0  0  0  0  0  0  0  0
  -23.9540  -27.7948   14.4546 C   0  0  2  0  0  0  0  0  0  0  0  0
  -21.8628  -28.4827   18.6934 C   0  0  0  0  0  0  0  0  0  0  0  0
  -25.8608  -11.5667   20.2801 N   0  0  0  0  0  0  0  0  0  0  0  0
  -26.1719  -12.8699   20.1756 N   0  0  0  0  0  0  0  0  0  0  0  0
  -30.3235  -21.4697   21.5973 N   0  0  3  0  0  0  0  0  0  0  0  0
  -25.3440  -28.9026   19.4485 N   0  0  0  0  0  0  0  0  0  0  0  0
  -29.8582  -13.8422   20.3974 N   0  0  0  0  0  0  0  0  0  0  0  0
  -25.2933  -15.0506   20.4648 N   0  0  0  0  0  0  0  0  0  0  0  0
  -21.8397  -12.3754   21.6105 N   0  0  0  0  0  0  0  0  0  0  0  0
  -29.8640  -15.9035   21.5435 N   0  0  0  0  0  0  0  0  0  0  0  0
  -25.7547  -31.1001   22.2292 N   0  0  0  0  0  0  0  0  0  0  0  0
  -23.4208  -28.4522   16.6995 N   0  0  0  0  0  0  0  0  0  0  0  0
  -25.1412  -27.2019   13.7764 N   0  3  0  0  0  0  0  0  0  0  0  0
  -22.5053  -14.5567   21.3704 O   0  0  0  0  0  0  0  0  0  0  0  0
  -25.1880  -28.8457   22.0913 O   0  0  0  0  0  0  0  0  0  0  0  0
  -24.0101  -30.5784   18.5273 O   0  0  0  0  0  0  0  0  0  0  0  0
  -24.3923  -26.3744   16.3592 O   0  0  0  0  0  0  0  0  0  0  0  0
  -31.6757  -15.2625   20.2440 O   0  0  0  0  0  0  0  0  0  0  0  0
  -21.8499   -6.8045   21.6154 O   0  0  0  0  0  0  0  0  0  0  0  0
  -28.8570  -24.0587   20.9478 O   0  0  0  0  0  0  0  0  0  1  0  0
  -18.8743   -6.4083   26.2406 F   0  0  0  0  0  0  0  0  0  0  0  0
  -22.4000   -4.8512   23.4928 F   0  0  0  0  0  0  0  0  0  0  0  0
  -28.1088  -17.3401   23.5803 Cl  0  0  0  0  0  0  0  0  0  0  0  0
  1  2  1  0  0  0  0
  1  5  2  0  0  0  0
  2  6  2  0  0  0  0
  3 10  2  0  0  0  0
  3 18  1  0  0  0  0
  4 11  1  0  0  0  0
  4 18  2  0  0  0  0
  5 20  1  0  0  0  0
  6 22  1  0  0  0  0
  7 12  2  0  0  0  0
  7 21  1  0  0  0  0
  8  9  2  0  0  0  0
  8 24  1  0  0  0  0
  9 25  1  0  0  0  0
 10 26  1  0  0  0  0
 11 26  2  0  0  0  0
 12 27  1  0  0  0  0
 13 14  2  0  0  0  0
 13 28  1  0  0  0  0
 14 29  1  0  0  0  0
 15 23  1  0  0  0  0
 15 27  2  0  0  0  0
 16 24  2  0  0  0  0
 16 31  1  0  0  0  0
 17 29  2  0  0  0  0
 17 30  1  0  0  0  0
 18 32  1  0  0  0  0
 19 32  1  0  0  0  0
 19 33  2  0  0  0  0
 19 34  1  0  0  0  0
 20 22  2  0  0  0  0
 20 39  1  0  0  0  0
 21 23  2  0  0  0  0
 21 40  1  0  0  0  0
 22 51  1  0  0  0  0
 23 41  1  0  0  0  0
 24 65  1  0  0  0  0
 25 31  2  0  0  0  0
 25 70  1  0  0  0  0
 26 79  1  0  0  0  0
 27 80  1  0  0  0  0
 28 30  2  0  0  0  0
 28 79  1  0  0  0  0
 29 81  1  0  0  0  0
 30 82  1  0  0  0  0
 31 83  1  0  0  0  0
 32 63  2  0  0  0  0
 33 64  1  0  0  0  0
 33 68  1  0  0  0  0
 34 69  1  0  0  0  0
 34 74  2  0  0  0  0
 35 52  1  0  0  0  0
 35 71  1  0  0  0  0
 35 75  2  0  0  0  0
 36 60  1  0  0  0  0
 36 66  1  0  0  0  0
 36 76  2  0  0  0  0
 37 61  1  0  0  0  0
 37 72  1  0  0  0  0
 37 77  2  0  0  0  0
 38 67  1  0  0  0  0
 38 70  1  0  0  0  0
 38 78  2  0  0  0  0
 39 42  1  0  0  0  0
 40 52  1  0  0  0  0
 41 66  1  0  0  0  0
 42 44  1  0  0  0  0
 43 45  1  0  0  0  0
 43 47  1  0  0  0  0
 44 51  1  0  0  0  0
 45 53  1  0  0  0  0
 46 48  1  0  0  0  0
 46 54  1  0  0  0  0
 47 67  1  0  0  0  0
 48 65  1  0  0  0  0
 49 53  1  0  0  0  0
 49 67  1  0  0  0  0
 50 54  1  0  0  0  0
 50 65  1  0  0  0  0
 51 71  1  0  0  0  0
 52 66  1  0  0  0  0
 53 64  1  0  0  0  0
 54 80  1  0  0  0  0
 55 61  1  0  0  0  0
 56 62  1  0  0  0  0
 57 62  1  0  0  0  0
 58 62  1  0  0  0  0
 59 73  1  0  0  0  0
 60 62  1  0  0  0  0
 60 72  1  0  0  0  0
 61 73  1  0  0  0  0
 63 64  1  0  0  0  0
M  CHG  1  73   1
M  ISO  4  38 100  54 101  70 100  80 101
M  END
> <Batch ID>
0021

> <Smiles>
CNC(C)C(=O)NC(C(=O)N1Cc2cc([101O:1][101CH:1]3CCN(c4ccc([100NH:0][100C:0](=O)N5CCCC(n6nc(-c7ccc(Oc8ccc(F)cc8F)cc7)c(C(N)=O)c6N)C5)c(Cl)c4)C3)ccc2CC1C(=O)NC1CCCc2ccccc21)C(C)(C)C

> <Shape>
0.352

> <Color>
0.203

> <Negative vol penalty>
0.000

$$$$

  -OEChem-04042321113D

 85 93  0     1  0  0  0  0  0999 V2000
  -20.4155  -32.8477   25.2188 C   0  0  0  0  0  0  0  0  0  0  0  0
  -21.6901  -32.4889   24.7921 C   0  0  0  0  0  0  0  0  0  0  0  0
  -24.3074  -14.1965   21.6264 C   0  0  0  0  0  0  0  0  0  0  0  0
  -26.5265  -14.0150   20.6886 C   0  0  0  0  0  0  0  0  0  0  0  0
  -19.3949  -31.8979   25.2381 C   0  0  0  0  0  0  0  0  0  0  0  0
  -21.9451  -31.1797   24.3854 C   0  0  0  0  0  0  0  0  0  0  0  0
  -25.7774  -29.3799   19.9604 C   0  0  0  0  0  0  0  0  0  0  0  0
  -29.3660  -24.0399   15.3387 C   0  0  0  0  0  0  0  0  0  0  0  0
  -28.2968  -23.2069   15.6684 C   0  0  0  0  0  0  0  0  0  0  0  0
  -24.2857  -12.8185   21.8419 C   0  0  0  0  0  0  0  0  0  0  0  0
  -26.5049  -12.6370   20.9041 C   0  0  0  0  0  0  0  0  0  0  0  0
  -27.0835  -28.8930   19.9914 C   0  0  0  0  0  0  0  0  0  0  0  0
  -23.7719  -10.0203   20.0170 C   0  0  0  0  0  0  0  0  0  0  0  0
  -22.6146   -9.3276   19.6614 C   0  0  0  0  0  0  0  0  0  0  0  0
  -26.2369  -26.6351   19.9259 C   0  0  0  0  0  0  0  0  0  0  0  0
  -30.2149  -23.8421   17.5920 C   0  0  0  0  0  0  0  0  0  0  0  0
  -22.3436   -8.6052   21.9509 C   0  0  0  0  0  0  0  0  0  0  0  0
  -25.4277  -14.7947   21.0497 C   0  0  0  0  0  0  0  0  0  0  0  0
  -25.9070  -17.2106   21.7141 C   0  0  0  0  0  0  0  0  0  0  0  0
  -19.6353  -30.5788   24.8222 C   0  0  0  0  0  0  0  0  0  0  0  0
  -24.6891  -28.4964   19.9229 C   0  0  0  0  0  0  0  0  0  0  0  0
  -20.9272  -30.2111   24.4004 C   0  0  0  0  0  0  0  0  0  0  0  0
  -24.9181  -27.1133   19.8920 C   0  0  0  0  0  0  0  0  0  0  0  0
  -30.3250  -24.3575   16.3005 C   0  0  0  0  0  0  0  0  0  0  0  0
  -28.1866  -22.6916   16.9599 C   0  0  0  0  0  0  0  0  0  0  0  0
  -25.3845  -12.0388   21.4808 C   0  0  0  0  0  0  0  0  0  0  0  0
  -27.3133  -27.5204   19.9771 C   0  0  0  0  0  0  0  0  0  0  0  0
  -24.2151  -10.0054   21.3395 C   0  0  0  0  0  0  0  0  0  0  0  0
  -21.9004   -8.6201   20.6284 C   0  0  0  0  0  0  0  0  0  0  0  0
  -23.5009   -9.2978   22.3065 C   0  0  0  0  0  0  0  0  0  0  0  0
  -29.1457  -23.0092   17.9217 C   0  0  0  0  0  0  0  0  0  0  0  0
  -25.4505  -16.2180   20.8264 C   0  0  0  0  0  0  0  0  0  0  0  0
  -25.7181  -18.3903   21.0366 C   0  0  0  0  0  0  0  0  0  0  0  0
  -30.9790  -26.9506   17.5344 C   0  0  0  0  0  0  0  0  0  0  0  0
  -30.6499  -26.9646   18.8346 C   0  0  0  0  0  0  0  0  0  0  0  0
  -26.4531  -17.0781   23.0331 C   0  0  0  0  0  0  0  0  0  0  0  0
  -22.2280  -27.8863   21.8398 C   0  0  0  0  0  0  0  0  0  0  0  0
  -21.3047  -25.9611   19.3978 C   0  0  0  0  0  0  0  0  0  0  0  0
  -22.1920  -24.1254   16.6610 C   0  0  0  0  0  0  0  0  0  0  0  0
  -26.0649  -21.4542   16.4002 C   0  0  0  0  0  0  0  0  0  0  0  0
  -18.5123  -29.5755   24.9054 C   0  0  0  0  0  0  0  0  0  0  0  0
  -23.2871  -29.0379   19.8629 C   0  0  0  0  0  0  0  0  0  0  0  0
  -23.7849  -26.1231   19.8314 C   0  0  0  0  0  0  0  0  0  0  0  0
  -18.7720  -28.3028   24.1035 C   0  0  0  0  0  0  0  0  0  0  0  0
  -23.2054  -19.3619   16.7512 C   0  0  0  0  0  0  0  0  0  0  0  0
  -20.1821  -27.7842   24.3669 C   0  0  0  0  0  0  0  0  0  0  0  0
  -23.5722  -18.4391   17.9157 C   0  0  0  0  0  0  0  0  0  0  0  0
  -24.4150  -19.6728   15.8714 C   0  0  0  0  0  0  0  0  0  0  0  0
  -25.9537  -19.2691   17.7525 C   0  0  0  0  0  0  0  0  0  0  0  0
  -21.2370  -28.8071   23.9281 C   0  0  1  0  0  0  0  0  0  0  0  0
  -22.2396  -28.0391   20.3451 C   0  0  1  0  0  0  0  0  0  0  0  0
  -24.7812  -18.9798   18.7040 C   0  0  2  0  0  0  0  0  0  0  0  0
  -32.4094  -23.8542   14.2011 C   0  0  0  0  0  0  0  0  0  0  0  0
  -21.2234  -22.6318   14.8924 C   0  0  0  0  0  0  0  0  0  0  0  0
  -21.0987  -23.6935   21.4290 C   0  0  0  0  0  0  0  0  0  0  0  0
  -21.0698  -22.0771   19.5174 C   0  0  0  0  0  0  0  0  0  0  0  0
  -19.2456  -23.7625   19.7510 C   0  0  0  0  0  0  0  0  0  0  0  0
  -23.0434  -25.9488   14.4909 C   0  0  0  0  0  0  0  0  0  0  0  0
  -32.0206  -26.0493   16.9508 C   0  0  0  0  0  0  0  0  0  0  0  0
  -29.5999  -27.8544   19.4151 C   0  0  0  0  0  0  0  0  0  1  0  0
  -31.9217  -25.2054   14.5999 C   0  0  0  0  0  0  0  0  0  0  0  0
  -21.5460  -24.5185   19.0238 C   0  0  1  0  0  0  0  0  0  0  0  0
  -21.6073  -24.0562   15.2618 C   0  0  2  0  0  0  0  0  0  0  0  0
  -20.7615  -23.5313   19.9334 C   0  0  0  0  0  0  0  0  0  0  0  0
  -25.0049  -16.7231   19.6730 N   0  0  0  0  0  0  0  0  0  0  0  0
  -25.1805  -18.0461   19.8313 N   0  0  0  0  0  0  0  0  0  0  0  0
  -22.4320  -26.7016   19.7807 N   0  0  0  0  0  0  0  0  0  0  0  0
  -25.5195  -20.1846   16.6857 N   0  0  0  0  0  0  0  0  0  0  0  0
  -25.9610  -19.6782   21.3602 N   0  0  0  0  0  0  0  0  0  0  0  0
  -26.5778  -15.7931   23.5787 N   0  0  0  0  0  0  0  0  0  0  0  0
  -27.0881  -21.8490   17.2615 N   0  0  0  0  0  0  0  0  0  0  0  0
  -21.3993  -28.7806   22.4902 N   0  0  0  0  0  0  0  0  0  0  0  0
  -21.2266  -24.4059   17.6047 N   0  0  0  0  0  0  0  0  0  0  0  0
  -31.3996  -25.1961   15.9686 N   0  0  3  0  0  0  0  0  0  0  0  0
  -22.5958  -24.5508   14.2623 N   0  3  0  0  0  0  0  0  0  0  0  0
  -26.8045  -18.0710   23.7144 O   0  0  0  0  0  0  0  0  0  0  0  0
  -22.9185  -27.0203   22.3640 O   0  0  0  0  0  0  0  0  0  0  0  0
  -20.1593  -26.4160   19.3451 O   0  0  0  0  0  0  0  0  0  0  0  0
  -23.3852  -23.9449   16.8940 O   0  0  0  0  0  0  0  0  0  0  0  0
  -25.6361  -22.1522   15.4779 O   0  0  0  0  0  0  0  0  0  0  0  0
  -25.3638  -10.6943   21.6911 O   0  0  0  0  0  0  0  0  0  0  0  0
  -28.5871  -27.0425   20.0079 O   0  0  0  0  0  0  0  0  0  1  0  0
  -20.7882   -7.9562   20.2871 F   0  0  0  0  0  0  0  0  0  0  0  0
  -23.9211   -9.2808   23.5789 F   0  0  0  0  0  0  0  0  0  0  0  0
  -29.0471  -22.3931   19.5330 Cl  0  0  0  0  0  0  0  0  0  0  0  0
  1  2  1  0  0  0  0
  1  5  2  0  0  0  0
  2  6  2  0  0  0  0
  3 10  2  0  0  0  0
  3 18  1  0  0  0  0
  4 11  1  0  0  0  0
  4 18  2  0  0  0  0
  5 20  1  0  0  0  0
  6 22  1  0  0  0  0
  7 12  2  0  0  0  0
  7 21  1  0  0  0  0
  8  9  2  0  0  0  0
  8 24  1  0  0  0  0
  9 25  1  0  0  0  0
 10 26  1  0  0  0  0
 11 26  2  0  0  0  0
 12 27  1  0  0  0  0
 13 14  2  0  0  0  0
 13 28  1  0  0  0  0
 14 29  1  0  0  0  0
 15 23  1  0  0  0  0
 15 27  2  0  0  0  0
 16 24  2  0  0  0  0
 16 31  1  0  0  0  0
 17 29  2  0  0  0  0
 17 30  1  0  0  0  0
 18 32  1  0  0  0  0
 19 32  1  0  0  0  0
 19 33  2  0  0  0  0
 19 36  1  0  0  0  0
 20 22  2  0  0  0  0
 20 41  1  0  0  0  0
 21 23  2  0  0  0  0
 21 42  1  0  0  0  0
 22 50  1  0  0  0  0
 23 43  1  0  0  0  0
 24 74  1  0  0  0  0
 25 31  2  0  0  0  0
 25 71  1  0  0  0  0
 26 81  1  0  0  0  0
 27 82  1  0  0  0  0
 28 30  2  0  0  0  0
 28 81  1  0  0  0  0
 29 83  1  0  0  0  0
 30 84  1  0  0  0  0
 31 85  1  0  0  0  0
 32 65  2  0  0  0  0
 33 66  1  0  0  0  0
 33 69  1  0  0  0  0
 34 35  2  0  0  0  0
 34 59  1  0  0  0  0
 35 60  1  0  0  0  0
 36 70  1  0  0  0  0
 36 76  2  0  0  0  0
 37 51  1  0  0  0  0
 37 72  1  0  0  0  0
 37 77  2  0  0  0  0
 38 62  1  0  0  0  0
 38 67  1  0  0  0  0
 38 78  2  0  0  0  0
 39 63  1  0  0  0  0
 39 73  1  0  0  0  0
 39 79  2  0  0  0  0
 40 68  1  0  0  0  0
 40 71  1  0  0  0  0
 40 80  2  0  0  0  0
 41 44  1  0  0  0  0
 42 51  1  0  0  0  0
 43 67  1  0  0  0  0
 44 46  1  0  0  0  0
 45 47  1  0  0  0  0
 45 48  1  0  0  0  0
 46 50  1  0  0  0  0
 47 52  1  0  0  0  0
 48 68  1  0  0  0  0
 49 52  1  0  0  0  0
 49 68  1  0  0  0  0
 50 72  1  0  0  0  0
 51 67  1  0  0  0  0
 52 66  1  0  0  0  0
 53 61  1  0  0  0  0
 54 63  1  0  0  0  0
 55 64  1  0  0  0  0
 56 64  1  0  0  0  0
 57 64  1  0  0  0  0
 58 75  1  0  0  0  0
 59 74  1  0  0  0  0
 60 82  1  0  0  0  0
 61 74  1  0  0  0  0
 62 64  1  0  0  0  0
 62 73  1  0  0  0  0
 63 75  1  0  0  0  0
 65 66  1  0  0  0  0
M  CHG  1  75   1
M  ISO  4  40 100  60 101  71 100  82 101
M  END
> <Batch ID>
0021

> <Smiles>
CCN(CC=C[101CH2:1][101O:1]c1ccc2c(c1)CN(C(=O)C(NC(=O)C(C)NC)C(C)(C)C)C(C(=O)NC1CCCc3ccccc31)C2)c1ccc([100NH:0][100C:0](=O)N2CCCC(n3nc(-c4ccc(Oc5ccc(F)cc5F)cc4)c(C(N)=O)c3N)C2)c(Cl)c1

> <Shape>
0.194

> <Color>
0.079

> <Negative vol penalty>
0.000

$$$$

  -OEChem-04042321113D

 87 96  0     1  0  0  0  0  0999 V2000
  -23.2904  -11.5036   22.1008 C   0  0  0  0  0  0  0  0  0  0  0  0
  -24.0812  -12.5635   21.6687 C   0  0  0  0  0  0  0  0  0  0  0  0
  -29.6837  -17.3733   19.4161 C   0  0  0  0  0  0  0  0  0  0  0  0
  -27.8278  -17.9133   20.8656 C   0  0  0  0  0  0  0  0  0  0  0  0
  -21.9010  -11.6176   22.0781 C   0  0  0  0  0  0  0  0  0  0  0  0
  -23.4830  -13.7376   21.2125 C   0  0  0  0  0  0  0  0  0  0  0  0
  -24.5241  -20.8224   21.0172 C   0  0  0  0  0  0  0  0  0  0  0  0
  -29.7026  -16.0744   19.9241 C   0  0  0  0  0  0  0  0  0  0  0  0
  -27.8467  -16.6144   21.3736 C   0  0  0  0  0  0  0  0  0  0  0  0
  -24.5473  -21.8831   20.1127 C   0  0  0  0  0  0  0  0  0  0  0  0
  -30.0062  -12.5117   20.5796 C   0  0  0  0  0  0  0  0  0  0  0  0
  -30.1284  -11.4613   19.6700 C   0  0  0  0  0  0  0  0  0  0  0  0
  -22.1390  -21.9963   20.1930 C   0  0  0  0  0  0  0  0  0  0  0  0
  -24.7426  -28.3080   19.4480 C   0  0  0  0  0  0  0  0  0  0  0  0
  -27.1423  -28.5173   20.8553 C   0  0  0  0  0  0  0  0  0  0  0  0
  -28.0813  -12.1569   18.5918 C   0  0  0  0  0  0  0  0  0  0  0  0
  -28.7463  -18.2928   19.8869 C   0  0  0  0  0  0  0  0  0  0  0  0
  -27.9970  -20.1040   18.2542 C   0  0  0  0  0  0  0  0  0  0  0  0
  -21.2856  -12.7973   21.6306 C   0  0  0  0  0  0  0  0  0  0  0  0
  -23.3055  -20.3327   21.5089 C   0  0  0  0  0  0  0  0  0  0  0  0
  -22.0841  -13.8669   21.1826 C   0  0  0  0  0  0  0  0  0  0  0  0
  -22.1032  -20.9309   21.1056 C   0  0  0  0  0  0  0  0  0  0  0  0
  -24.9696  -29.4040   20.2802 C   0  0  0  0  0  0  0  0  0  0  0  0
  -25.7154  -27.3165   19.3194 C   0  0  0  0  0  0  0  0  0  0  0  0
  -26.9152  -27.4212   20.0230 C   0  0  0  0  0  0  0  0  0  0  0  0
  -28.7841  -15.6949   20.9029 C   0  0  0  0  0  0  0  0  0  0  0  0
  -23.3544  -22.4683   19.6982 C   0  0  0  0  0  0  0  0  0  0  0  0
  -28.9215  -13.3847   20.4953 C   0  0  0  0  0  0  0  0  0  0  0  0
  -29.1660  -11.2839   18.6761 C   0  0  0  0  0  0  0  0  0  0  0  0
  -26.1695  -29.5088   20.9839 C   0  0  0  0  0  0  0  0  0  0  0  0
  -27.9591  -13.2073   19.5014 C   0  0  0  0  0  0  0  0  0  0  0  0
  -28.7267  -19.6349   19.3629 C   0  0  0  0  0  0  0  0  0  0  0  0
  -28.3184  -21.4367   18.1706 C   0  0  0  0  0  0  0  0  0  0  0  0
  -27.1081  -19.3982   17.3782 C   0  0  0  0  0  0  0  0  0  0  0  0
  -21.7846  -17.5454   21.3612 C   0  0  0  0  0  0  0  0  0  0  0  0
  -19.7251  -19.0040   23.3991 C   0  0  0  0  0  0  0  0  0  0  0  0
  -18.4188  -21.9168   24.6058 C   0  0  0  0  0  0  0  0  0  0  0  0
  -29.1594  -26.4026   20.5446 C   0  0  0  0  0  0  0  0  0  0  0  0
  -19.7794  -12.8562   21.5800 C   0  0  0  0  0  0  0  0  0  0  0  0
  -23.2990  -19.2054   22.5046 C   0  0  0  0  0  0  0  0  0  0  0  0
  -20.7695  -20.4557   21.6195 C   0  0  0  0  0  0  0  0  0  0  0  0
  -19.2298  -14.2729   21.4343 C   0  0  0  0  0  0  0  0  0  0  0  0
  -22.1389  -31.8085   19.9367 C   0  0  0  0  0  0  0  0  0  0  0  0
  -22.6982  -32.1834   21.2941 C   0  0  0  0  0  0  0  0  0  0  0  0
  -31.8912  -24.1191   20.5501 C   0  0  0  0  0  0  0  0  0  0  0  0
  -19.9873  -15.0303   20.3483 C   0  0  0  0  0  0  0  0  0  0  0  0
  -31.2514  -22.7875   20.1505 C   0  0  0  0  0  0  0  0  0  0  0  0
  -22.6885  -30.4027   19.7228 C   0  0  0  0  0  0  0  0  0  0  0  0
  -24.1060  -31.6003   21.2507 C   0  0  0  0  0  0  0  0  0  0  0  0
  -30.9659  -24.9489   21.4383 C   0  0  0  0  0  0  0  0  0  0  0  0
  -28.9789  -23.8373   20.4974 C   0  0  0  0  0  0  0  0  0  0  0  0
  -21.4728  -15.1660   20.7041 C   0  0  1  0  0  0  0  0  0  0  0  0
  -21.9733  -18.4514   22.5449 C   0  0  1  0  0  0  0  0  0  0  0  0
  -29.8475  -22.9948   19.5491 C   0  0  2  0  0  0  0  0  0  0  0  0
  -16.7253  -22.7884   26.2397 C   0  0  0  0  0  0  0  0  0  0  0  0
  -17.4825  -18.2548   21.4706 C   0  0  0  0  0  0  0  0  0  0  0  0
  -16.0220  -19.9257   22.6296 C   0  0  0  0  0  0  0  0  0  0  0  0
  -16.9173  -17.9679   23.8898 C   0  0  0  0  0  0  0  0  0  0  0  0
  -20.4878  -23.3485   26.1641 C   0  0  0  0  0  0  0  0  0  0  0  0
  -24.2703  -24.7470   16.9685 C   0  0  0  0  0  0  0  0  0  0  0  0
  -24.2515  -26.0652   17.7329 C   0  0  0  0  0  0  0  0  0  0  0  0
  -24.4482  -23.5354   17.8759 C   0  0  0  0  0  0  0  0  0  1  0  0
  -18.4816  -19.8454   23.2420 C   0  0  1  0  0  0  0  0  0  0  0  0
  -18.1804  -22.4025   26.0241 C   0  0  2  0  0  0  0  0  0  0  0  0
  -17.2507  -19.0064   22.7967 C   0  0  0  0  0  0  0  0  0  0  0  0
  -29.4567  -20.5918   19.9420 N   0  0  0  0  0  0  0  0  0  0  0  0
  -29.1875  -21.6755   19.1943 N   0  0  0  0  0  0  0  0  0  0  0  0
  -23.9862  -30.4032   20.4094 N   0  0  0  0  0  0  0  0  0  0  0  0
  -20.8151  -19.3465   22.5865 N   0  0  0  0  0  0  0  0  0  0  0  0
  -29.6562  -25.1074   20.8024 N   0  0  0  0  0  0  0  0  0  0  0  0
  -27.9396  -22.4160   17.3220 N   0  0  0  0  0  0  0  0  0  0  0  0
  -26.8899  -18.0327   17.6063 N   0  0  0  0  0  0  0  0  0  0  0  0
  -27.9194  -26.4283   19.9073 N   0  0  0  0  0  0  0  0  0  0  0  0
  -25.4695  -26.2352   18.4877 N   0  0  0  0  0  0  0  0  0  0  0  0
  -21.6632  -16.2087   21.6895 N   0  0  0  0  0  0  0  0  0  0  0  0
  -18.3004  -20.5465   24.5085 N   0  0  0  0  0  0  0  0  0  0  0  0
  -19.0300  -23.5920   26.3140 N   0  3  0  0  0  0  0  0  0  0  0  0
  -26.5373  -19.9580   16.4116 O   0  0  0  0  0  0  0  0  0  0  0  0
  -21.7502  -18.0239   20.2335 O   0  0  0  0  0  0  0  0  0  0  0  0
  -19.7316  -18.0815   24.2181 O   0  0  0  0  0  0  0  0  0  0  0  0
  -18.6800  -22.6773   23.6763 O   0  0  0  0  0  0  0  0  0  0  0  0
  -29.8002  -27.4143   20.8411 O   0  0  0  0  0  0  0  0  0  0  0  0
  -28.8021  -14.4275   21.3986 O   0  0  0  0  0  0  0  0  0  0  0  0
  -23.3742  -23.5033   18.8149 O   0  0  0  0  0  0  0  0  0  1  0  0
  -29.2843  -10.2761   17.8017 F   0  0  0  0  0  0  0  0  0  0  0  0
  -26.3991  -30.5591   21.7847 F   0  0  0  0  0  0  0  0  0  0  0  0
  -26.9155  -14.0435   19.4147 F   0  0  0  0  0  0  0  0  0  0  0  0
  1  2  1  0  0  0  0
  1  5  2  0  0  0  0
  2  6  2  0  0  0  0
  3  8  2  0  0  0  0
  3 17  1  0  0  0  0
  4  9  1  0  0  0  0
  4 17  2  0  0  0  0
  5 19  1  0  0  0  0
  6 21  1  0  0  0  0
  7 10  2  0  0  0  0
  7 20  1  0  0  0  0
  8 26  1  0  0  0  0
  9 26  2  0  0  0  0
 10 27  1  0  0  0  0
 11 12  2  0  0  0  0
 11 28  1  0  0  0  0
 12 29  1  0  0  0  0
 13 22  1  0  0  0  0
 13 27  2  0  0  0  0
 14 23  2  0  0  0  0
 14 24  1  0  0  0  0
 15 25  1  0  0  0  0
 15 30  2  0  0  0  0
 16 29  2  0  0  0  0
 16 31  1  0  0  0  0
 17 32  1  0  0  0  0
 18 32  1  0  0  0  0
 18 33  2  0  0  0  0
 18 34  1  0  0  0  0
 19 21  2  0  0  0  0
 19 39  1  0  0  0  0
 20 22  2  0  0  0  0
 20 40  1  0  0  0  0
 21 52  1  0  0  0  0
 22 41  1  0  0  0  0
 23 30  1  0  0  0  0
 23 68  1  0  0  0  0
 24 25  2  0  0  0  0
 24 74  1  0  0  0  0
 25 73  1  0  0  0  0
 26 83  1  0  0  0  0
 27 84  1  0  0  0  0
 28 31  2  0  0  0  0
 28 83  1  0  0  0  0
 29 85  1  0  0  0  0
 30 86  1  0  0  0  0
 31 87  1  0  0  0  0
 32 66  2  0  0  0  0
 33 67  1  0  0  0  0
 33 71  1  0  0  0  0
 34 72  1  0  0  0  0
 34 78  2  0  0  0  0
 35 53  1  0  0  0  0
 35 75  1  0  0  0  0
 35 79  2  0  0  0  0
 36 63  1  0  0  0  0
 36 69  1  0  0  0  0
 36 80  2  0  0  0  0
 37 64  1  0  0  0  0
 37 76  1  0  0  0  0
 37 81  2  0  0  0  0
 38 70  1  0  0  0  0
 38 73  1  0  0  0  0
 38 82  2  0  0  0  0
 39 42  1  0  0  0  0
 40 53  1  0  0  0  0
 41 69  1  0  0  0  0
 42 46  1  0  0  0  0
 43 44  1  0  0  0  0
 43 48  1  0  0  0  0
 44 49  1  0  0  0  0
 45 47  1  0  0  0  0
 45 50  1  0  0  0  0
 46 52  1  0  0  0  0
 47 54  1  0  0  0  0
 48 68  1  0  0  0  0
 49 68  1  0  0  0  0
 50 70  1  0  0  0  0
 51 54  1  0  0  0  0
 51 70  1  0  0  0  0
 52 75  1  0  0  0  0
 53 69  1  0  0  0  0
 54 67  1  0  0  0  0
 55 64  1  0  0  0  0
 56 65  1  0  0  0  0
 57 65  1  0  0  0  0
 58 65  1  0  0  0  0
 59 77  1  0  0  0  0
 60 61  1  0  0  0  0
 60 62  1  0  0  0  0
 61 74  1  0  0  0  0
 62 84  1  0  0  0  0
 63 65  1  0  0  0  0
 63 76  1  0  0  0  0
 64 77  1  0  0  0  0
 66 67  1  0  0  0  0
M  CHG  1  77   1
M  ISO  4  38 100  62 101  73 100  84 101
M  END
> <Batch ID>
0021

> <Smiles>
CNC(C)C(=O)NC(C(=O)N1Cc2cc([101O:1][101CH2:1]CCNc3cc(N4CCCC4)c(F)cc3[100NH:0][100C:0](=O)N3CCCC(n4nc(-c5ccc(Oc6ccc(F)cc6F)cc5)c(C(N)=O)c4N)C3)ccc2CC1C(=O)NC1CCCc2ccccc21)C(C)(C)C

> <Shape>
0.225

> <Color>
0.054

> <Negative vol penalty>
0.000

$$$$

  -OEChem-04042321113D

 84 93  0     1  0  0  0  0  0999 V2000
  -28.5221  -38.0779   24.1605 C   0  0  0  0  0  0  0  0  0  0  0  0
  -29.0371  -36.8779   23.6805 C   0  0  0  0  0  0  0  0  0  0  0  0
  -24.2029   -9.4402   21.7981 C   0  0  0  0  0  0  0  0  0  0  0  0
  -24.6146  -10.9386   23.6480 C   0  0  0  0  0  0  0  0  0  0  0  0
  -27.3874  -38.0737   24.9706 C   0  0  0  0  0  0  0  0  0  0  0  0
  -28.4183  -35.6730   24.0114 C   0  0  0  0  0  0  0  0  0  0  0  0
  -27.9302  -30.6937   20.4794 C   0  0  0  0  0  0  0  0  0  0  0  0
  -30.2912  -20.4463   19.8314 C   0  0  0  0  0  0  0  0  0  0  0  0
  -30.1229  -19.0801   19.6065 C   0  0  0  0  0  0  0  0  0  0  0  0
  -23.8449   -8.4327   22.6938 C   0  0  0  0  0  0  0  0  0  0  0  0
  -24.2566   -9.9311   24.5438 C   0  0  0  0  0  0  0  0  0  0  0  0
  -28.6613  -29.5079   20.4237 C   0  0  0  0  0  0  0  0  0  0  0  0
  -21.1488   -7.5973   24.5556 C   0  0  0  0  0  0  0  0  0  0  0  0
  -20.0016   -6.8561   24.2727 C   0  0  0  0  0  0  0  0  0  0  0  0
  -27.0265  -28.4404   21.8404 C   0  0  0  0  0  0  0  0  0  0  0  0
  -27.8973  -20.7096   20.0237 C   0  0  0  0  0  0  0  0  0  0  0  0
  -21.3252   -4.8363   24.1975 C   0  0  0  0  0  0  0  0  0  0  0  0
  -24.5878  -10.6932   22.2752 C   0  0  0  0  0  0  0  0  0  0  0  0
  -24.1094  -12.6919   20.7639 C   0  0  0  0  0  0  0  0  0  0  0  0
  -26.7487  -36.8688   25.3036 C   0  0  0  0  0  0  0  0  0  0  0  0
  -26.7454  -30.7650   21.2262 C   0  0  0  0  0  0  0  0  0  0  0  0
  -27.2747  -35.6526   24.8278 C   0  0  0  0  0  0  0  0  0  0  0  0
  -26.2809  -29.6276   21.9019 C   0  0  0  0  0  0  0  0  0  0  0  0
  -27.7290  -19.3434   19.7987 C   0  0  0  0  0  0  0  0  0  0  0  0
  -29.1784  -21.2611   20.0401 C   0  0  0  0  0  0  0  0  0  0  0  0
  -28.8418  -18.5286   19.5902 C   0  0  0  0  0  0  0  0  0  0  0  0
  -23.8717   -8.6781   24.0666 C   0  0  0  0  0  0  0  0  0  0  0  0
  -28.2110  -28.3819   21.1066 C   0  0  0  0  0  0  0  0  0  0  0  0
  -22.3843   -6.9581   24.6593 C   0  0  0  0  0  0  0  0  0  0  0  0
  -20.0897   -5.4756   24.0937 C   0  0  0  0  0  0  0  0  0  0  0  0
  -22.4724   -5.5776   24.4803 C   0  0  0  0  0  0  0  0  0  0  0  0
  -24.9583  -11.7342   21.3504 C   0  0  0  0  0  0  0  0  0  0  0  0
  -24.9388  -13.4456   19.9699 C   0  0  0  0  0  0  0  0  0  0  0  0
  -22.6973  -12.8832   20.9227 C   0  0  0  0  0  0  0  0  0  0  0  0
  -25.7736  -32.4581   23.7347 C   0  0  0  0  0  0  0  0  0  0  0  0
  -22.9314  -31.0253   23.1086 C   0  0  0  0  0  0  0  0  0  0  0  0
  -21.2557  -28.3980   21.7172 C   0  0  0  0  0  0  0  0  0  0  0  0
  -29.7037  -16.2045   19.1407 C   0  0  0  0  0  0  0  0  0  0  0  0
  -25.5524  -36.9108   26.2211 C   0  0  0  0  0  0  0  0  0  0  0  0
  -25.9543  -32.0440   21.2545 C   0  0  0  0  0  0  0  0  0  0  0  0
  -25.0045  -29.6462   22.7012 C   0  0  0  0  0  0  0  0  0  0  0  0
  -24.7367  -35.6204   26.2180 C   0  0  0  0  0  0  0  0  0  0  0  0
  -29.7457  -12.6893   18.5757 C   0  0  0  0  0  0  0  0  0  0  0  0
  -25.6551  -34.4081   26.3358 C   0  0  0  0  0  0  0  0  0  0  0  0
  -28.4341  -12.2063   19.1990 C   0  0  0  0  0  0  0  0  0  0  0  0
  -30.3290  -24.6665   20.8580 C   0  0  0  0  0  0  0  0  0  0  0  0
  -30.3735  -13.8238   19.3835 C   0  0  0  0  0  0  0  0  0  0  0  0
  -30.6431  -23.2804   20.2990 C   0  0  0  0  0  0  0  0  0  0  0  0
  -28.2458  -23.5448   20.4997 C   0  0  0  0  0  0  0  0  0  0  0  0
  -28.1722  -14.4777   20.2756 C   0  0  0  0  0  0  0  0  0  0  0  0
  -26.6170  -34.3269   25.1443 C   0  0  1  0  0  0  0  0  0  0  0  0
  -25.0319  -32.1493   22.4650 C   0  0  1  0  0  0  0  0  0  0  0  0
  -28.9047  -24.9231   20.3742 C   0  0  1  0  0  0  0  0  0  0  0  0
  -27.4693  -13.3792   19.4614 C   0  0  2  0  0  0  0  0  0  0  0  0
  -26.3452  -18.7794   19.7881 C   0  0  0  0  0  0  0  0  0  0  0  0
  -18.9401  -27.4851   21.3983 C   0  0  0  0  0  0  0  0  0  0  0  0
  -22.8947  -30.1087   26.0187 C   0  0  0  0  0  0  0  0  0  0  0  0
  -21.1152  -28.4585   25.4037 C   0  0  0  0  0  0  0  0  0  0  0  0
  -20.6892  -30.9030   25.1472 C   0  0  0  0  0  0  0  0  0  0  0  0
  -21.4795  -28.5422   18.7696 C   0  0  0  0  0  0  0  0  0  0  0  0
  -28.1893  -26.0045   21.1648 C   0  0  0  0  0  0  0  0  0  1  0  0
  -22.2617  -29.7438   23.5424 C   0  0  1  0  0  0  0  0  0  0  0  0
  -20.0440  -28.3460   20.8042 C   0  0  2  0  0  0  0  0  0  0  0  0
  -21.7653  -29.8034   25.0146 C   0  0  0  0  0  0  0  0  0  0  0  0
  -26.2295  -11.8652   20.9621 N   0  0  0  0  0  0  0  0  0  0  0  0
  -26.1855  -12.9140   20.1229 N   0  0  0  0  0  0  0  0  0  0  0  0
  -29.3450  -22.6115   20.2629 N   0  0  3  0  0  0  0  0  0  0  0  0
  -24.2697  -30.9220   22.7034 N   0  0  0  0  0  0  0  0  0  0  0  0
  -29.4027  -14.9010   19.5891 N   0  0  0  0  0  0  0  0  0  0  0  0
  -24.7161  -14.5045   19.1628 N   0  0  0  0  0  0  0  0  0  0  0  0
  -21.9980  -12.0196   21.7768 N   0  0  0  0  0  0  0  0  0  0  0  0
  -28.6919  -17.1382   19.3617 N   0  0  0  0  0  0  0  0  0  0  0  0
  -25.9345  -33.8088   23.9781 N   0  0  0  0  0  0  0  0  0  0  0  0
  -21.2088  -29.4830   22.5668 N   0  0  0  0  0  0  0  0  0  0  0  0
  -20.4190  -27.7799   19.4776 N   0  3  0  0  0  0  0  0  0  0  0  0
  -22.0714  -13.7826   20.3121 O   0  0  0  0  0  0  0  0  0  0  0  0
  -26.1692  -31.5389   24.4421 O   0  0  0  0  0  0  0  0  0  0  0  0
  -22.2887  -32.0781   23.1219 O   0  0  0  0  0  0  0  0  0  0  0  0
  -22.1522  -27.5580   21.6828 O   0  0  0  0  0  0  0  0  0  0  0  0
  -30.7687  -16.4667   18.5759 O   0  0  0  0  0  0  0  0  0  0  0  0
  -23.5222   -7.6953   24.9409 O   0  0  0  0  0  0  0  0  0  0  0  0
  -28.9231  -27.2234   21.0544 O   0  0  0  0  0  0  0  0  0  1  0  0
  -18.9877   -4.7636   23.8236 F   0  0  0  0  0  0  0  0  0  0  0  0
  -23.6563   -4.9577   24.5799 F   0  0  0  0  0  0  0  0  0  0  0  0
  1  2  1  0  0  0  0
  1  5  2  0  0  0  0
  2  6  2  0  0  0  0
  3 10  2  0  0  0  0
  3 18  1  0  0  0  0
  4 11  1  0  0  0  0
  4 18  2  0  0  0  0
  5 20  1  0  0  0  0
  6 22  1  0  0  0  0
  7 12  2  0  0  0  0
  7 21  1  0  0  0  0
  8  9  2  0  0  0  0
  8 25  1  0  0  0  0
  9 26  1  0  0  0  0
 10 27  1  0  0  0  0
 11 27  2  0  0  0  0
 12 28  1  0  0  0  0
 13 14  2  0  0  0  0
 13 29  1  0  0  0  0
 14 30  1  0  0  0  0
 15 23  1  0  0  0  0
 15 28  2  0  0  0  0
 16 24  1  0  0  0  0
 16 25  2  0  0  0  0
 17 30  2  0  0  0  0
 17 31  1  0  0  0  0
 18 32  1  0  0  0  0
 19 32  1  0  0  0  0
 19 33  2  0  0  0  0
 19 34  1  0  0  0  0
 20 22  2  0  0  0  0
 20 39  1  0  0  0  0
 21 23  2  0  0  0  0
 21 40  1  0  0  0  0
 22 51  1  0  0  0  0
 23 41  1  0  0  0  0
 24 26  2  0  0  0  0
 24 55  1  0  0  0  0
 25 67  1  0  0  0  0
 26 72  1  0  0  0  0
 27 81  1  0  0  0  0
 28 82  1  0  0  0  0
 29 31  2  0  0  0  0
 29 81  1  0  0  0  0
 30 83  1  0  0  0  0
 31 84  1  0  0  0  0
 32 65  2  0  0  0  0
 33 66  1  0  0  0  0
 33 70  1  0  0  0  0
 34 71  1  0  0  0  0
 34 76  2  0  0  0  0
 35 52  1  0  0  0  0
 35 73  1  0  0  0  0
 35 77  2  0  0  0  0
 36 62  1  0  0  0  0
 36 68  1  0  0  0  0
 36 78  2  0  0  0  0
 37 63  1  0  0  0  0
 37 74  1  0  0  0  0
 37 79  2  0  0  0  0
 38 69  1  0  0  0  0
 38 72  1  0  0  0  0
 38 80  2  0  0  0  0
 39 42  1  0  0  0  0
 40 52  1  0  0  0  0
 41 68  1  0  0  0  0
 42 44  1  0  0  0  0
 43 45  1  0  0  0  0
 43 47  1  0  0  0  0
 44 51  1  0  0  0  0
 45 54  1  0  0  0  0
 46 48  1  0  0  0  0
 46 53  1  0  0  0  0
 47 69  1  0  0  0  0
 48 67  1  0  0  0  0
 49 53  1  0  0  0  0
 49 67  1  0  0  0  0
 50 54  1  0  0  0  0
 50 69  1  0  0  0  0
 51 73  1  0  0  0  0
 52 68  1  0  0  0  0
 53 61  1  0  0  0  0
 54 66  1  0  0  0  0
 56 63  1  0  0  0  0
 57 64  1  0  0  0  0
 58 64  1  0  0  0  0
 59 64  1  0  0  0  0
 60 75  1  0  0  0  0
 61 82  1  0  0  0  0
 62 64  1  0  0  0  0
 62 74  1  0  0  0  0
 63 75  1  0  0  0  0
 65 66  1  0  0  0  0
M  CHG  1  75   1
M  ISO  4  38 100  61 101  72 100  82 101
M  END
> <Batch ID>
0021

> <Smiles>
CNC(C)C(=O)NC(C(=O)N1Cc2cc([101O:1][101CH2:1]C3CCN(c4ccc([100NH:0][100C:0](=O)N5CCCC(n6nc(-c7ccc(Oc8ccc(F)cc8F)cc7)c(C(N)=O)c6N)C5)c(C)c4)C3)ccc2CC1C(=O)NC1CCCc2ccccc21)C(C)(C)C

> <Shape>
0.358

> <Color>
0.117

> <Negative vol penalty>
0.000

$$$$

  -OEChem-04042321113D

 90100  0     1  0  0  0  0  0999 V2000
  -20.0297  -27.3040   16.4027 C   0  0  0  0  0  0  0  0  0  0  0  0
  -19.8301  -26.1315   17.1244 C   0  0  0  0  0  0  0  0  0  0  0  0
  -26.6740  -13.1794   19.9902 C   0  0  0  0  0  0  0  0  0  0  0  0
  -25.5943  -15.0573   21.0601 C   0  0  0  0  0  0  0  0  0  0  0  0
  -21.2137  -28.0237   16.5580 C   0  0  0  0  0  0  0  0  0  0  0  0
  -20.8148  -25.6774   18.0010 C   0  0  0  0  0  0  0  0  0  0  0  0
  -21.5840  -22.1905   24.2112 C   0  0  0  0  0  0  0  0  0  0  0  0
  -30.4508  -19.9901   23.1222 C   0  0  0  0  0  0  0  0  0  0  0  0
  -30.0226  -20.6819   21.9893 C   0  0  0  0  0  0  0  0  0  0  0  0
  -25.4613  -12.4905   19.9754 C   0  0  0  0  0  0  0  0  0  0  0  0
  -24.3815  -14.3685   21.0452 C   0  0  0  0  0  0  0  0  0  0  0  0
  -22.2647  -21.1042   24.7594 C   0  0  0  0  0  0  0  0  0  0  0  0
  -23.5680  -10.7342   22.1560 C   0  0  0  0  0  0  0  0  0  0  0  0
  -23.5792   -9.3952   22.5465 C   0  0  0  0  0  0  0  0  0  0  0  0
  -24.2365  -22.4719   25.0059 C   0  0  0  0  0  0  0  0  0  0  0  0
  -27.7352  -20.5075   22.7474 C   0  0  0  0  0  0  0  0  0  0  0  0
  -22.7372   -8.7547   20.3744 C   0  0  0  0  0  0  0  0  0  0  0  0
  -26.7406  -14.4628   20.5326 C   0  0  0  0  0  0  0  0  0  0  0  0
  -29.1873  -14.7798   21.1813 C   0  0  0  0  0  0  0  0  0  0  0  0
  -22.2094  -27.5834   17.4442 C   0  0  0  0  0  0  0  0  0  0  0  0
  -22.2289  -23.4247   24.0459 C   0  0  0  0  0  0  0  0  0  0  0  0
  -22.0138  -26.3912   18.1673 C   0  0  0  0  0  0  0  0  0  0  0  0
  -23.5610  -23.5730   24.4578 C   0  0  0  0  0  0  0  0  0  0  0  0
  -28.1635  -19.8156   23.8803 C   0  0  0  0  0  0  0  0  0  0  0  0
  -29.5212  -19.5569   24.0677 C   0  0  0  0  0  0  0  0  0  0  0  0
  -28.6648  -20.9407   21.8019 C   0  0  0  0  0  0  0  0  0  0  0  0
  -24.3150  -13.0850   20.5028 C   0  0  0  0  0  0  0  0  0  0  0  0
  -23.5920  -21.2440   25.1542 C   0  0  0  0  0  0  0  0  0  0  0  0
  -23.1412  -11.0835   20.8747 C   0  0  0  0  0  0  0  0  0  0  0  0
  -23.1639   -8.4054   21.6557 C   0  0  0  0  0  0  0  0  0  0  0  0
  -22.7259  -10.0937   19.9840 C   0  0  0  0  0  0  0  0  0  0  0  0
  -27.9932  -15.1746   20.5488 C   0  0  0  0  0  0  0  0  0  0  0  0
  -30.0745  -15.7903   20.9014 C   0  0  0  0  0  0  0  0  0  0  0  0
  -29.4694  -13.6046   21.9527 C   0  0  0  0  0  0  0  0  0  0  0  0
  -22.9612  -25.2570   21.5539 C   0  0  0  0  0  0  0  0  0  0  0  0
  -23.9152  -27.3334   23.8562 C   0  0  0  0  0  0  0  0  0  0  0  0
  -24.9937  -27.8135   27.0583 C   0  0  0  0  0  0  0  0  0  0  0  0
  -28.8934  -21.6047   19.3940 C   0  0  0  0  0  0  0  0  0  0  0  0
  -23.4926  -28.3698   17.5432 C   0  0  0  0  0  0  0  0  0  0  0  0
  -21.4726  -24.5941   23.4777 C   0  0  0  0  0  0  0  0  0  0  0  0
  -24.2924  -24.8824   24.3204 C   0  0  0  0  0  0  0  0  0  0  0  0
  -24.3278  -28.0204   18.7722 C   0  0  0  0  0  0  0  0  0  0  0  0
  -31.0514  -18.3684   27.2550 C   0  0  0  0  0  0  0  0  0  0  0  0
  -30.3259  -17.1258   26.7798 C   0  0  0  0  0  0  0  0  0  0  0  0
  -31.0499  -19.1552   17.6497 C   0  0  0  0  0  0  0  0  0  0  0  0
  -26.1319  -16.0201   24.4431 C   0  0  0  0  0  0  0  0  0  0  0  0
  -24.4310  -26.5073   18.9350 C   0  0  0  0  0  0  0  0  0  0  0  0
  -30.5498  -17.8171   18.1907 C   0  0  0  0  0  0  0  0  0  0  0  0
  -24.7704  -16.5387   24.8613 C   0  0  0  0  0  0  0  0  0  0  0  0
  -30.3580  -19.4812   26.4773 C   0  0  0  0  0  0  0  0  0  0  0  0
  -30.1236  -17.4018   25.2943 C   0  0  0  0  0  0  0  0  0  0  0  0
  -29.9485  -20.2109   17.6434 C   0  0  0  0  0  0  0  0  0  0  0  0
  -28.8035  -19.0675   19.5204 C   0  0  0  0  0  0  0  0  0  0  0  0
  -26.7362  -17.1792   23.6742 C   0  0  0  0  0  0  0  0  0  0  0  0
  -23.0480  -25.8795   19.1465 C   0  0  1  0  0  0  0  0  0  0  0  0
  -22.3841  -25.6620   22.8808 C   0  0  1  0  0  0  0  0  0  0  0  0
  -29.9051  -17.9985   19.5748 C   0  0  1  0  0  0  0  0  0  0  0  0
  -25.0741  -17.9642   25.2977 C   0  0  2  0  0  0  0  0  0  0  0  0
  -25.7294  -29.6180   28.6395 C   0  0  0  0  0  0  0  0  0  0  0  0
  -26.6106  -27.4778   22.4335 C   0  0  0  0  0  0  0  0  0  0  0  0
  -27.5734  -28.4935   24.5095 C   0  0  0  0  0  0  0  0  0  0  0  0
  -25.7555  -29.6727   23.2736 C   0  0  0  0  0  0  0  0  0  0  0  0
  -27.1899  -22.6768   20.8012 C   0  0  0  0  0  0  0  0  0  0  0  0
  -22.7817  -27.2307   28.9362 C   0  0  0  0  0  0  0  0  0  0  0  0
  -27.1424  -19.3600   24.8807 C   0  0  0  0  0  0  0  0  0  0  0  0
  -23.8677  -18.8839   25.2529 C   0  0  0  0  0  0  0  0  0  1  0  0
  -25.2056  -27.5897   24.5967 C   0  0  1  0  0  0  0  0  0  0  0  0
  -24.5566  -28.7934   28.1322 C   0  0  2  0  0  0  0  0  0  0  0  0
  -26.2733  -28.2831   23.7042 C   0  0  0  0  0  0  0  0  0  0  0  0
  -28.1079  -16.3448   19.9151 N   0  0  0  0  0  0  0  0  0  0  0  0
  -29.3846  -16.6940   20.1480 N   0  0  0  0  0  0  0  0  0  0  0  0
  -29.9713  -18.8592   25.2049 N   0  0  0  0  0  0  0  0  0  0  0  0
  -23.5120  -25.9945   23.7534 N   0  0  0  0  0  0  0  0  0  0  0  0
  -29.3034  -20.3300   18.9520 N   0  0  0  0  0  0  0  0  0  0  0  0
  -31.3695  -15.9852   21.2289 N   0  0  0  0  0  0  0  0  0  0  0  0
  -29.2529  -13.6461   23.3368 N   0  0  0  0  0  0  0  0  0  0  0  0
  -22.6023  -26.0855   20.5078 N   0  0  0  0  0  0  0  0  0  0  0  0
  -24.8468  -28.3428   25.7936 N   0  0  0  0  0  0  0  0  0  0  0  0
  -28.2222  -21.6567   20.6305 N   0  0  0  0  0  0  0  0  0  0  0  0
  -26.1276  -18.4235   24.2989 N   0  3  1  0  0  0  0  0  0  0  0  0
  -23.9603  -28.0643   29.2870 N   0  3  0  0  0  0  0  0  0  0  0  0
  -29.9162  -12.5543   21.4324 O   0  0  0  0  0  0  0  0  0  0  0  0
  -23.6801  -24.2671   21.4846 O   0  0  0  0  0  0  0  0  0  0  0  0
  -23.2845  -28.2868   23.3925 O   0  0  0  0  0  0  0  0  0  0  0  0
  -25.4260  -26.6922   27.3158 O   0  0  0  0  0  0  0  0  0  0  0  0
  -29.0634  -22.6208   18.7089 O   0  0  0  0  0  0  0  0  0  0  0  0
  -23.1314  -12.4132   20.4883 O   0  0  0  0  0  0  0  0  0  0  0  0
  -24.2588  -20.1852   25.6889 O   0  0  0  0  0  0  0  0  0  1  0  0
  -23.1762   -7.1194   22.0303 F   0  0  0  0  0  0  0  0  0  0  0  0
  -22.3160  -10.4231   18.7513 F   0  0  0  0  0  0  0  0  0  0  0  0
  1  2  1  0  0  0  0
  1  5  2  0  0  0  0
  2  6  2  0  0  0  0
  3 10  2  0  0  0  0
  3 18  1  0  0  0  0
  4 11  1  0  0  0  0
  4 18  2  0  0  0  0
  5 20  1  0  0  0  0
  6 22  1  0  0  0  0
  7 12  2  0  0  0  0
  7 21  1  0  0  0  0
  8  9  2  0  0  0  0
  8 25  1  0  0  0  0
  9 26  1  0  0  0  0
 10 27  1  0  0  0  0
 11 27  2  0  0  0  0
 12 28  1  0  0  0  0
 13 14  2  0  0  0  0
 13 29  1  0  0  0  0
 14 30  1  0  0  0  0
 15 23  1  0  0  0  0
 15 28  2  0  0  0  0
 16 24  1  0  0  0  0
 16 26  2  0  0  0  0
 17 30  2  0  0  0  0
 17 31  1  0  0  0  0
 18 32  1  0  0  0  0
 19 32  1  0  0  0  0
 19 33  2  0  0  0  0
 19 34  1  0  0  0  0
 20 22  2  0  0  0  0
 20 39  1  0  0  0  0
 21 23  2  0  0  0  0
 21 40  1  0  0  0  0
 22 55  1  0  0  0  0
 23 41  1  0  0  0  0
 24 25  2  0  0  0  0
 24 65  1  0  0  0  0
 25 72  1  0  0  0  0
 26 79  1  0  0  0  0
 27 87  1  0  0  0  0
 28 88  1  0  0  0  0
 29 31  2  0  0  0  0
 29 87  1  0  0  0  0
 30 89  1  0  0  0  0
 31 90  1  0  0  0  0
 32 70  2  0  0  0  0
 33 71  1  0  0  0  0
 33 75  1  0  0  0  0
 34 76  1  0  0  0  0
 34 82  2  0  0  0  0
 35 56  1  0  0  0  0
 35 77  1  0  0  0  0
 35 83  2  0  0  0  0
 36 67  1  0  0  0  0
 36 73  1  0  0  0  0
 36 84  2  0  0  0  0
 37 68  1  0  0  0  0
 37 78  1  0  0  0  0
 37 85  2  0  0  0  0
 38 74  1  0  0  0  0
 38 79  1  0  0  0  0
 38 86  2  0  0  0  0
 39 42  1  0  0  0  0
 40 56  1  0  0  0  0
 41 73  1  0  0  0  0
 42 47  1  0  0  0  0
 43 44  1  0  0  0  0
 43 50  1  0  0  0  0
 44 51  1  0  0  0  0
 45 48  1  0  0  0  0
 45 52  1  0  0  0  0
 46 49  1  0  0  0  0
 46 54  1  0  0  0  0
 47 55  1  0  0  0  0
 48 57  1  0  0  0  0
 49 58  1  0  0  0  0
 50 72  1  0  0  0  0
 51 72  1  0  0  0  0
 52 74  1  0  0  0  0
 53 57  1  0  0  0  0
 53 74  1  0  0  0  0
 54 80  1  0  0  0  0
 55 77  1  0  0  0  0
 56 73  1  0  0  0  0
 57 71  1  0  0  0  0
 58 66  1  0  0  0  0
 58 80  1  0  0  0  0
 59 68  1  0  0  0  0
 60 69  1  0  0  0  0
 61 69  1  0  0  0  0
 62 69  1  0  0  0  0
 63 79  1  0  0  0  0
 64 81  1  0  0  0  0
 65 80  1  0  0  0  0
 66 88  1  0  0  0  0
 67 69  1  0  0  0  0
 67 78  1  0  0  0  0
 68 81  1  0  0  0  0
 70 71  1  0  0  0  0
M  CHG  2  80   1  81   1
M  ISO  4  38 100  66 101  79 100  88 101
M  END
> <Batch ID>
0021

> <Smiles>
CNC(C)C(=O)NC(C(=O)N1Cc2cc([101O:1][101CH2:1]C3CCCN3Cc3cc([100N:0](C)[100C:0](=O)N4CCCC(n5nc(-c6ccc(Oc7ccc(F)cc7F)cc6)c(C(N)=O)c5N)C4)ccc3N3CCCC3)ccc2CC1C(=O)NC1CCCc2ccccc21)C(C)(C)C

> <Shape>
0.173

> <Color>
0.048

> <Negative vol penalty>
0.000

$$$$

  -OEChem-04042321113D

 85 93  0     1  0  0  0  0  0999 V2000
  -20.7352  -30.3310   27.5115 C   0  0  0  0  0  0  0  0  0  0  0  0
  -21.7133  -29.5339   26.9254 C   0  0  0  0  0  0  0  0  0  0  0  0
  -22.7473  -10.1920   20.6768 C   0  0  0  0  0  0  0  0  0  0  0  0
  -24.4712   -9.1863   22.0384 C   0  0  0  0  0  0  0  0  0  0  0  0
  -19.7982  -30.9840   26.7118 C   0  0  0  0  0  0  0  0  0  0  0  0
  -21.7541  -29.3885   25.5392 C   0  0  0  0  0  0  0  0  0  0  0  0
  -26.7480  -28.7767   22.0473 C   0  0  0  0  0  0  0  0  0  0  0  0
  -22.1023   -8.9588   20.5825 C   0  0  0  0  0  0  0  0  0  0  0  0
  -23.8262   -7.9531   21.9442 C   0  0  0  0  0  0  0  0  0  0  0  0
  -27.3731  -27.6612   21.4917 C   0  0  0  0  0  0  0  0  0  0  0  0
  -21.1771   -6.4141   23.3705 C   0  0  0  0  0  0  0  0  0  0  0  0
  -21.0409   -5.6648   24.5391 C   0  0  0  0  0  0  0  0  0  0  0  0
  -26.1939  -28.0391   19.4214 C   0  0  0  0  0  0  0  0  0  0  0  0
  -28.5235  -17.7353   20.1684 C   0  0  0  0  0  0  0  0  0  0  0  0
  -28.8294  -20.0102   21.7540 C   0  0  0  0  0  0  0  0  0  0  0  0
  -22.3054   -3.8680   23.5342 C   0  0  0  0  0  0  0  0  0  0  0  0
  -23.9318  -10.3057   21.4047 C   0  0  0  0  0  0  0  0  0  0  0  0
  -24.4018  -12.5693   22.4831 C   0  0  0  0  0  0  0  0  0  0  0  0
  -19.8335  -30.8542   25.3145 C   0  0  0  0  0  0  0  0  0  0  0  0
  -25.8314  -29.5266   21.2964 C   0  0  0  0  0  0  0  0  0  0  0  0
  -20.8159  -30.0393   24.7201 C   0  0  0  0  0  0  0  0  0  0  0  0
  -25.5605  -29.1652   19.9690 C   0  0  0  0  0  0  0  0  0  0  0  0
  -28.9062  -17.6084   21.5038 C   0  0  0  0  0  0  0  0  0  0  0  0
  -28.4468  -20.1371   20.4186 C   0  0  0  0  0  0  0  0  0  0  0  0
  -22.6417   -7.8394   21.2162 C   0  0  0  0  0  0  0  0  0  0  0  0
  -27.0939  -27.2906   20.1795 C   0  0  0  0  0  0  0  0  0  0  0  0
  -21.8774   -5.8904   22.2838 C   0  0  0  0  0  0  0  0  0  0  0  0
  -21.6050   -4.3917   24.6210 C   0  0  0  0  0  0  0  0  0  0  0  0
  -28.2939  -18.9997   19.6258 C   0  0  0  0  0  0  0  0  0  0  0  0
  -29.0590  -18.7459   22.2966 C   0  0  0  0  0  0  0  0  0  0  0  0
  -22.4416   -4.6174   22.3657 C   0  0  0  0  0  0  0  0  0  0  0  0
  -24.5988  -11.5792   21.5020 C   0  0  0  0  0  0  0  0  0  0  0  0
  -25.2672  -13.5767   22.1330 C   0  0  0  0  0  0  0  0  0  0  0  0
  -23.5157  -12.5776   23.6103 C   0  0  0  0  0  0  0  0  0  0  0  0
  -22.7415  -30.2201   21.5718 C   0  0  0  0  0  0  0  0  0  0  0  0
  -23.3437  -32.1352   19.0238 C   0  0  0  0  0  0  0  0  0  0  0  0
  -25.2973  -32.8176   16.3100 C   0  0  0  0  0  0  0  0  0  0  0  0
  -30.5711  -14.8480   20.5301 C   0  0  0  0  0  0  0  0  0  0  0  0
  -18.7705  -31.5415   24.4945 C   0  0  0  0  0  0  0  0  0  0  0  0
  -25.1857  -30.7429   21.9016 C   0  0  0  0  0  0  0  0  0  0  0  0
  -24.5996  -29.9489   19.1140 C   0  0  0  0  0  0  0  0  0  0  0  0
  -19.1124  -31.6354   23.0098 C   0  0  0  0  0  0  0  0  0  0  0  0
  -27.9856  -14.2967   17.9392 C   0  0  0  0  0  0  0  0  0  0  0  0
  -19.6227  -30.2938   22.4936 C   0  0  0  0  0  0  0  0  0  0  0  0
  -26.8932  -13.5580   18.7107 C   0  0  0  0  0  0  0  0  0  0  0  0
  -29.3686  -14.0424   18.5310 C   0  0  0  0  0  0  0  0  0  0  0  0
  -28.3763  -13.6131   20.7547 C   0  0  0  0  0  0  0  0  0  0  0  0
  -20.9081  -29.8767   23.2184 C   0  0  1  0  0  0  0  0  0  0  0  0
  -23.8809  -31.1317   21.2133 C   0  0  1  0  0  0  0  0  0  0  0  0
  -26.9651  -13.8853   20.2124 C   0  0  2  0  0  0  0  0  0  0  0  0
  -25.5185  -34.4260   14.3965 C   0  0  0  0  0  0  0  0  0  0  0  0
  -21.0330  -30.7478   17.5936 C   0  0  0  0  0  0  0  0  0  0  0  0
  -21.8953  -31.6859   15.4385 C   0  0  0  0  0  0  0  0  0  0  0  0
  -21.1366  -33.2229   17.2508 C   0  0  0  0  0  0  0  0  0  0  0  0
  -31.6112  -16.2682   22.2566 C   0  0  0  0  0  0  0  0  0  0  0  0
  -27.9649  -33.7171   17.2229 C   0  0  0  0  0  0  0  0  0  0  0  0
  -29.1506  -16.2551   22.0808 C   0  0  0  0  0  0  0  0  0  0  0  0
  -27.9754  -23.8214   19.7696 C   0  0  0  0  0  0  0  0  0  0  0  0
  -28.3544  -22.6216   20.6293 C   0  0  0  0  0  0  0  0  0  0  0  0
  -28.0566  -25.1433   20.5239 C   0  0  0  0  0  0  0  0  0  1  0  0
  -23.3106  -31.9618   17.5246 C   0  0  1  0  0  0  0  0  0  0  0  0
  -25.9323  -34.1083   15.8250 C   0  0  2  0  0  0  0  0  0  0  0  0
  -21.8606  -31.8885   16.9683 C   0  0  0  0  0  0  0  0  0  0  0  0
  -25.5172  -11.9262   20.5964 N   0  0  0  0  0  0  0  0  0  0  0  0
  -25.9049  -13.1457   21.0070 N   0  0  0  0  0  0  0  0  0  0  0  0
  -23.9889  -31.1263   19.7530 N   0  0  0  0  0  0  0  0  0  0  0  0
  -29.3975  -14.3201   19.9674 N   0  0  0  0  0  0  0  0  0  0  0  0
  -25.5373  -14.7803   22.6814 N   0  0  0  0  0  0  0  0  0  0  0  0
  -22.6952  -11.4615   23.8234 N   0  0  0  0  0  0  0  0  0  0  0  0
  -28.2194  -21.3947   19.8818 N   0  0  0  0  0  0  0  0  0  0  0  0
  -22.0423  -30.6097   22.6982 N   0  0  0  0  0  0  0  0  0  0  0  0
  -24.1091  -33.0496   16.9700 N   0  0  0  0  0  0  0  0  0  0  0  0
  -30.4245  -15.6871   21.6450 N   0  0  0  0  0  0  0  0  0  0  0  0
  -27.4182  -34.0040   15.8717 N   0  3  0  0  0  0  0  0  0  0  0  0
  -23.4416  -13.5530   24.3956 O   0  0  0  0  0  0  0  0  0  0  0  0
  -22.5128  -29.2370   20.8770 O   0  0  0  0  0  0  0  0  0  0  0  0
  -22.8228  -33.1329   19.5288 O   0  0  0  0  0  0  0  0  0  0  0  0
  -25.8027  -31.7137   16.1190 O   0  0  0  0  0  0  0  0  0  0  0  0
  -31.6857  -14.5921   20.0567 O   0  0  0  0  0  0  0  0  0  0  0  0
  -22.0125   -6.6360   21.1247 O   0  0  0  0  0  0  0  0  0  0  0  0
  -27.7022  -26.2018   19.6349 O   0  0  0  0  0  0  0  0  0  1  0  0
  -21.4755   -3.6729   25.7437 F   0  0  0  0  0  0  0  0  0  0  0  0
  -27.9266  -19.1102   18.3413 F   0  0  0  0  0  0  0  0  0  0  0  0
  -29.4264  -18.6339   23.5808 F   0  0  0  0  0  0  0  0  0  0  0  0
  -23.1165   -4.1094   21.3254 F   0  0  0  0  0  0  0  0  0  0  0  0
  1  2  1  0  0  0  0
  1  5  2  0  0  0  0
  2  6  2  0  0  0  0
  3  8  2  0  0  0  0
  3 17  1  0  0  0  0
  4  9  1  0  0  0  0
  4 17  2  0  0  0  0
  5 19  1  0  0  0  0
  6 21  1  0  0  0  0
  7 10  2  0  0  0  0
  7 20  1  0  0  0  0
  8 25  1  0  0  0  0
  9 25  2  0  0  0  0
 10 26  1  0  0  0  0
 11 12  2  0  0  0  0
 11 27  1  0  0  0  0
 12 28  1  0  0  0  0
 13 22  1  0  0  0  0
 13 26  2  0  0  0  0
 14 23  2  0  0  0  0
 14 29  1  0  0  0  0
 15 24  1  0  0  0  0
 15 30  2  0  0  0  0
 16 28  2  0  0  0  0
 16 31  1  0  0  0  0
 17 32  1  0  0  0  0
 18 32  1  0  0  0  0
 18 33  2  0  0  0  0
 18 34  1  0  0  0  0
 19 21  2  0  0  0  0
 19 39  1  0  0  0  0
 20 22  2  0  0  0  0
 20 40  1  0  0  0  0
 21 48  1  0  0  0  0
 22 41  1  0  0  0  0
 23 30  1  0  0  0  0
 23 57  1  0  0  0  0
 24 29  2  0  0  0  0
 24 70  1  0  0  0  0
 25 80  1  0  0  0  0
 26 81  1  0  0  0  0
 27 31  2  0  0  0  0
 27 80  1  0  0  0  0
 28 82  1  0  0  0  0
 29 83  1  0  0  0  0
 30 84  1  0  0  0  0
 31 85  1  0  0  0  0
 32 64  2  0  0  0  0
 33 65  1  0  0  0  0
 33 68  1  0  0  0  0
 34 69  1  0  0  0  0
 34 75  2  0  0  0  0
 35 49  1  0  0  0  0
 35 71  1  0  0  0  0
 35 76  2  0  0  0  0
 36 61  1  0  0  0  0
 36 66  1  0  0  0  0
 36 77  2  0  0  0  0
 37 62  1  0  0  0  0
 37 72  1  0  0  0  0
 37 78  2  0  0  0  0
 38 67  1  0  0  0  0
 38 73  1  0  0  0  0
 38 79  2  0  0  0  0
 39 42  1  0  0  0  0
 40 49  1  0  0  0  0
 41 66  1  0  0  0  0
 42 44  1  0  0  0  0
 43 45  1  0  0  0  0
 43 46  1  0  0  0  0
 44 48  1  0  0  0  0
 45 50  1  0  0  0  0
 46 67  1  0  0  0  0
 47 50  1  0  0  0  0
 47 67  1  0  0  0  0
 48 71  1  0  0  0  0
 49 66  1  0  0  0  0
 50 65  1  0  0  0  0
 51 62  1  0  0  0  0
 52 63  1  0  0  0  0
 53 63  1  0  0  0  0
 54 63  1  0  0  0  0
 55 73  1  0  0  0  0
 56 74  1  0  0  0  0
 57 73  1  0  0  0  0
 58 59  1  0  0  0  0
 58 60  1  0  0  0  0
 59 70  1  0  0  0  0
 60 81  1  0  0  0  0
 61 63  1  0  0  0  0
 61 72  1  0  0  0  0
 62 74  1  0  0  0  0
 64 65  1  0  0  0  0
M  CHG  1  74   1
M  ISO  4  38 100  60 101  73 100  81 101
M  END
> <Batch ID>
0021

> <Smiles>
CNC(C)C(=O)NC(C(=O)N1Cc2cc([101O:1][101CH2:1]CCNc3cc(F)c(C[100N:0](C)[100C:0](=O)N4CCCC(n5nc(-c6ccc(Oc7ccc(F)cc7F)cc6)c(C(N)=O)c5N)C4)cc3F)ccc2CC1C(=O)NC1CCCc2ccccc21)C(C)(C)C

> <Shape>
0.308

> <Color>
0.146

> <Negative vol penalty>
0.000

$$$$

  -OEChem-04042321113D

 84 92  0     1  0  0  0  0  0999 V2000
  -29.0259  -12.0041   18.9724 C   0  0  0  0  0  0  0  0  0  0  0  0
  -27.7715  -12.6001   18.8906 C   0  0  0  0  0  0  0  0  0  0  0  0
  -25.0904  -30.9708   21.2348 C   0  0  0  0  0  0  0  0  0  0  0  0
  -25.0832  -30.9281   23.6504 C   0  0  0  0  0  0  0  0  0  0  0  0
  -30.0215  -12.5830   19.7583 C   0  0  0  0  0  0  0  0  0  0  0  0
  -27.5117  -13.7748   19.5955 C   0  0  0  0  0  0  0  0  0  0  0  0
  -23.9131  -18.4062   17.8331 C   0  0  0  0  0  0  0  0  0  0  0  0
  -20.4427  -21.6034   24.0394 C   0  0  0  0  0  0  0  0  0  0  0  0
  -20.5232  -20.5672   23.1092 C   0  0  0  0  0  0  0  0  0  0  0  0
  -25.7518  -32.1987   21.2585 C   0  0  0  0  0  0  0  0  0  0  0  0
  -25.7447  -32.1559   23.6741 C   0  0  0  0  0  0  0  0  0  0  0  0
  -22.5968  -18.7428   18.1459 C   0  0  0  0  0  0  0  0  0  0  0  0
  -27.7521  -35.1064   24.3690 C   0  0  0  0  0  0  0  0  0  0  0  0
  -28.8251  -35.2490   25.2486 C   0  0  0  0  0  0  0  0  0  0  0  0
  -23.3941  -20.2509   19.8516 C   0  0  0  0  0  0  0  0  0  0  0  0
  -18.0352  -21.5985   23.8368 C   0  0  0  0  0  0  0  0  0  0  0  0
  -29.9750  -33.4366   24.1394 C   0  0  0  0  0  0  0  0  0  0  0  0
  -24.7560  -30.3355   22.4308 C   0  0  0  0  0  0  0  0  0  0  0  0
  -24.6566  -27.7868   22.3863 C   0  0  0  0  0  0  0  0  0  0  0  0
  -29.7767  -13.7707   20.4655 C   0  0  0  0  0  0  0  0  0  0  0  0
  -24.9812  -18.9822   18.5357 C   0  0  0  0  0  0  0  0  0  0  0  0
  -28.5045  -14.3694   20.3926 C   0  0  0  0  0  0  0  0  0  0  0  0
  -24.7231  -19.9219   19.5440 C   0  0  0  0  0  0  0  0  0  0  0  0
  -19.1987  -22.1190   24.4033 C   0  0  0  0  0  0  0  0  0  0  0  0
  -19.3596  -20.0467   22.5427 C   0  0  0  0  0  0  0  0  0  0  0  0
  -26.0789  -32.7912   22.4781 C   0  0  0  0  0  0  0  0  0  0  0  0
  -22.3370  -19.6631   19.1572 C   0  0  0  0  0  0  0  0  0  0  0  0
  -27.7904  -34.1289   23.3746 C   0  0  0  0  0  0  0  0  0  0  0  0
  -29.9366  -34.4141   25.1338 C   0  0  0  0  0  0  0  0  0  0  0  0
  -18.1157  -20.5623   22.9065 C   0  0  0  0  0  0  0  0  0  0  0  0
  -28.9019  -33.2940   23.2598 C   0  0  0  0  0  0  0  0  0  0  0  0
  -24.0723  -29.0674   22.4070 C   0  0  0  0  0  0  0  0  0  0  0  0
  -23.5892  -26.9226   22.3686 C   0  0  0  0  0  0  0  0  0  0  0  0
  -26.0405  -27.4120   22.3833 C   0  0  0  0  0  0  0  0  0  0  0  0
  -27.3078  -17.8652   20.3913 C   0  0  0  0  0  0  0  0  0  0  0  0
  -28.3325  -20.9414   20.2931 C   0  0  0  0  0  0  0  0  0  0  0  0
  -27.5702  -24.2357   19.8314 C   0  0  0  0  0  0  0  0  0  0  0  0
  -18.5697  -25.3496   24.2328 C   0  0  0  0  0  0  0  0  0  0  0  0
  -30.8695  -14.3335   21.3395 C   0  0  0  0  0  0  0  0  0  0  0  0
  -26.3962  -18.6287   18.1682 C   0  0  0  0  0  0  0  0  0  0  0  0
  -25.8351  -20.5840   20.3145 C   0  0  0  0  0  0  0  0  0  0  0  0
  -30.6297  -15.7819   21.7576 C   0  0  0  0  0  0  0  0  0  0  0  0
  -18.6593  -27.7940   21.6456 C   0  0  0  0  0  0  0  0  0  0  0  0
  -29.1948  -15.9675   22.2407 C   0  0  0  0  0  0  0  0  0  0  0  0
  -20.1217  -28.2417   21.6158 C   0  0  0  0  0  0  0  0  0  0  0  0
  -18.1872  -27.5023   23.0683 C   0  0  0  0  0  0  0  0  0  0  0  0
  -20.4897  -26.9960   23.7864 C   0  0  0  0  0  0  0  0  0  0  0  0
  -28.1919  -15.6575   21.1228 C   0  0  1  0  0  0  0  0  0  0  0  0
  -27.3898  -18.8905   19.2959 C   0  0  1  0  0  0  0  0  0  0  0  0
  -21.0277  -27.2480   22.3675 C   0  0  2  0  0  0  0  0  0  0  0  0
  -27.9589  -26.7006   19.5660 C   0  0  0  0  0  0  0  0  0  0  0  0
  -17.8269  -18.1281   20.0414 C   0  0  0  0  0  0  0  0  0  0  0  0
  -28.3640  -20.8968   23.3438 C   0  0  0  0  0  0  0  0  0  0  0  0
  -28.4712  -23.3979   23.3099 C   0  0  0  0  0  0  0  0  0  0  0  0
  -30.3159  -22.0584   22.2973 C   0  0  0  0  0  0  0  0  0  0  0  0
  -20.0485  -17.7299   21.9788 C   0  0  0  0  0  0  0  0  0  0  0  0
  -27.9635  -23.9768   16.9095 C   0  0  0  0  0  0  0  0  0  0  0  0
  -19.1127  -23.2268   25.3980 C   0  0  0  0  0  0  0  0  0  0  0  0
  -20.0577  -18.9919   19.2568 C   0  0  0  0  0  0  0  0  0  1  0  0
  -28.0814  -22.1788   21.1206 C   0  0  1  0  0  0  0  0  0  0  0  0
  -28.2365  -25.3168   18.9997 C   0  0  2  0  0  0  0  0  0  0  0  0
  -18.9235  -19.1608   20.2655 C   0  0  2  0  0  0  0  0  0  0  0  0
  -28.7869  -22.1192   22.5049 C   0  0  0  0  0  0  0  0  0  0  0  0
  -22.7373  -29.0252   22.4028 N   0  0  0  0  0  0  0  0  0  0  0  0
  -22.4739  -27.7076   22.3791 N   0  0  0  0  0  0  0  0  0  0  0  0
  -27.2014  -20.2006   19.9223 N   0  0  0  0  0  0  0  0  0  0  0  0
  -19.0883  -26.5522   23.7250 N   0  0  0  0  0  0  0  0  0  0  0  0
  -23.5053  -25.5755   22.3453 N   0  0  0  0  0  0  0  0  0  0  0  0
  -27.0075  -28.4263   22.4034 N   0  0  0  0  0  0  0  0  0  0  0  0
  -28.1160  -16.7624   20.1912 N   0  0  0  0  0  0  0  0  0  0  0  0
  -28.4831  -23.3115   20.2935 N   0  0  0  0  0  0  0  0  0  0  0  0
  -19.4928  -24.5029   24.8341 N   0  0  0  0  0  0  0  0  0  0  0  0
  -19.4430  -19.0075   21.6097 N   0  0  3  0  0  0  0  0  0  0  0  0
  -27.7352  -25.2739   17.5969 N   0  3  0  0  0  0  0  0  0  0  0  0
  -26.4087  -26.2134   22.3468 O   0  0  0  0  0  0  0  0  0  0  0  0
  -26.5674  -18.0610   21.3479 O   0  0  0  0  0  0  0  0  0  0  0  0
  -29.4890  -20.6470   19.9810 O   0  0  0  0  0  0  0  0  0  0  0  0
  -26.3614  -24.2154   20.0523 O   0  0  0  0  0  0  0  0  0  0  0  0
  -17.3736  -25.0501   24.1511 O   0  0  0  0  0  0  0  0  0  0  0  0
  -26.7246  -33.9892   22.5016 O   0  0  0  0  0  0  0  0  0  0  0  0
  -21.0531  -19.9929   19.4650 O   0  0  0  0  0  0  0  0  0  1  0  0
  -30.9677  -34.5521   25.9776 F   0  0  0  0  0  0  0  0  0  0  0  0
  -16.9910  -20.0694   22.3683 F   0  0  0  0  0  0  0  0  0  0  0  0
  -28.9450  -32.3539   22.3058 F   0  0  0  0  0  0  0  0  0  0  0  0
  1  2  1  0  0  0  0
  1  5  2  0  0  0  0
  2  6  2  0  0  0  0
  3 10  2  0  0  0  0
  3 18  1  0  0  0  0
  4 11  1  0  0  0  0
  4 18  2  0  0  0  0
  5 20  1  0  0  0  0
  6 22  1  0  0  0  0
  7 12  2  0  0  0  0
  7 21  1  0  0  0  0
  8  9  2  0  0  0  0
  8 24  1  0  0  0  0
  9 25  1  0  0  0  0
 10 26  1  0  0  0  0
 11 26  2  0  0  0  0
 12 27  1  0  0  0  0
 13 14  2  0  0  0  0
 13 28  1  0  0  0  0
 14 29  1  0  0  0  0
 15 23  1  0  0  0  0
 15 27  2  0  0  0  0
 16 24  2  0  0  0  0
 16 30  1  0  0  0  0
 17 29  2  0  0  0  0
 17 31  1  0  0  0  0
 18 32  1  0  0  0  0
 19 32  1  0  0  0  0
 19 33  2  0  0  0  0
 19 34  1  0  0  0  0
 20 22  2  0  0  0  0
 20 39  1  0  0  0  0
 21 23  2  0  0  0  0
 21 40  1  0  0  0  0
 22 48  1  0  0  0  0
 23 41  1  0  0  0  0
 24 58  1  0  0  0  0
 25 30  2  0  0  0  0
 25 73  1  0  0  0  0
 26 80  1  0  0  0  0
 27 81  1  0  0  0  0
 28 31  2  0  0  0  0
 28 80  1  0  0  0  0
 29 82  1  0  0  0  0
 30 83  1  0  0  0  0
 31 84  1  0  0  0  0
 32 64  2  0  0  0  0
 33 65  1  0  0  0  0
 33 68  1  0  0  0  0
 34 69  1  0  0  0  0
 34 75  2  0  0  0  0
 35 49  1  0  0  0  0
 35 70  1  0  0  0  0
 35 76  2  0  0  0  0
 36 60  1  0  0  0  0
 36 66  1  0  0  0  0
 36 77  2  0  0  0  0
 37 61  1  0  0  0  0
 37 71  1  0  0  0  0
 37 78  2  0  0  0  0
 38 67  1  0  0  0  0
 38 72  1  0  0  0  0
 38 79  2  0  0  0  0
 39 42  1  0  0  0  0
 40 49  1  0  0  0  0
 41 66  1  0  0  0  0
 42 44  1  0  0  0  0
 43 45  1  0  0  0  0
 43 46  1  0  0  0  0
 44 48  1  0  0  0  0
 45 50  1  0  0  0  0
 46 67  1  0  0  0  0
 47 50  1  0  0  0  0
 47 67  1  0  0  0  0
 48 70  1  0  0  0  0
 49 66  1  0  0  0  0
 50 65  1  0  0  0  0
 51 61  1  0  0  0  0
 52 62  1  0  0  0  0
 53 63  1  0  0  0  0
 54 63  1  0  0  0  0
 55 63  1  0  0  0  0
 56 73  1  0  0  0  0
 57 74  1  0  0  0  0
 58 72  1  0  0  0  0
 59 62  1  0  0  0  0
 59 81  1  0  0  0  0
 60 63  1  0  0  0  0
 60 71  1  0  0  0  0
 61 74  1  0  0  0  0
 62 73  1  0  0  0  0
 64 65  1  0  0  0  0
M  CHG  1  74   1
M  ISO  4  38 100  59 101  72 100  81 101
M  END
> <Batch ID>
0021

> <Smiles>
CNC(C)C(=O)NC(C(=O)N1Cc2cc([101O:1][101CH2:1]C(C)N(C)c3ccc(C[100NH:0][100C:0](=O)N4CCCC(n5nc(-c6ccc(Oc7ccc(F)cc7F)cc6)c(C(N)=O)c5N)C4)cc3F)ccc2CC1C(=O)NC1CCCc2ccccc21)C(C)(C)C

> <Shape>
0.202

> <Color>
0.065

> <Negative vol penalty>
0.000

$$$$

  -OEChem-04042321113D

 83 91  0     1  0  0  0  0  0999 V2000
  -20.8014  -29.2831   29.9056 C   0  0  0  0  0  0  0  0  0  0  0  0
  -21.7253  -28.2457   29.8298 C   0  0  0  0  0  0  0  0  0  0  0  0
  -23.1895   -9.6673   20.4679 C   0  0  0  0  0  0  0  0  0  0  0  0
  -23.8372  -10.1863   22.7368 C   0  0  0  0  0  0  0  0  0  0  0  0
  -20.2244  -29.7876   28.7410 C   0  0  0  0  0  0  0  0  0  0  0  0
  -22.0718  -27.7115   28.5893 C   0  0  0  0  0  0  0  0  0  0  0  0
  -27.5560  -25.5672   26.9065 C   0  0  0  0  0  0  0  0  0  0  0  0
  -32.2787  -18.3056   22.6669 C   0  0  0  0  0  0  0  0  0  0  0  0
  -31.7540  -17.2331   21.9459 C   0  0  0  0  0  0  0  0  0  0  0  0
  -22.4833   -8.5543   20.9241 C   0  0  0  0  0  0  0  0  0  0  0  0
  -23.1309   -9.0733   23.1930 C   0  0  0  0  0  0  0  0  0  0  0  0
  -28.0769  -24.2759   26.8359 C   0  0  0  0  0  0  0  0  0  0  0  0
  -23.5869   -5.7270   23.3522 C   0  0  0  0  0  0  0  0  0  0  0  0
  -24.2094   -4.9047   24.2913 C   0  0  0  0  0  0  0  0  0  0  0  0
  -27.5247  -24.1880   24.4893 C   0  0  0  0  0  0  0  0  0  0  0  0
  -30.0482  -19.1717   23.0017 C   0  0  0  0  0  0  0  0  0  0  0  0
  -22.4221   -5.3402   25.8575 C   0  0  0  0  0  0  0  0  0  0  0  0
  -23.8665  -10.4833   21.3743 C   0  0  0  0  0  0  0  0  0  0  0  0
  -24.1078  -12.9433   20.7436 C   0  0  0  0  0  0  0  0  0  0  0  0
  -20.5713  -29.2658   27.4848 C   0  0  0  0  0  0  0  0  0  0  0  0
  -27.0047  -26.1754   25.7696 C   0  0  0  0  0  0  0  0  0  0  0  0
  -21.4979  -28.2086   27.4069 C   0  0  0  0  0  0  0  0  0  0  0  0
  -26.9998  -25.4880   24.5475 C   0  0  0  0  0  0  0  0  0  0  0  0
  -29.5235  -18.0992   22.2806 C   0  0  0  0  0  0  0  0  0  0  0  0
  -31.4258  -19.2749   23.1949 C   0  0  0  0  0  0  0  0  0  0  0  0
  -30.3764  -17.1298   21.7527 C   0  0  0  0  0  0  0  0  0  0  0  0
  -22.4540   -8.2573   22.2866 C   0  0  0  0  0  0  0  0  0  0  0  0
  -28.0587  -23.5849   25.6278 C   0  0  0  0  0  0  0  0  0  0  0  0
  -22.3820   -6.3560   23.6658 C   0  0  0  0  0  0  0  0  0  0  0  0
  -23.6270   -4.7113   25.5439 C   0  0  0  0  0  0  0  0  0  0  0  0
  -21.7996   -6.1626   24.9184 C   0  0  0  0  0  0  0  0  0  0  0  0
  -24.5966  -11.6328   20.9036 C   0  0  0  0  0  0  0  0  0  0  0  0
  -25.1839  -13.6562   20.2742 C   0  0  0  0  0  0  0  0  0  0  0  0
  -22.7982  -13.4692   20.9966 C   0  0  0  0  0  0  0  0  0  0  0  0
  -24.1257  -27.2703   24.9846 C   0  0  0  0  0  0  0  0  0  0  0  0
  -25.6725  -28.3060   22.3281 C   0  0  0  0  0  0  0  0  0  0  0  0
  -28.3157  -27.9649   20.1965 C   0  0  0  0  0  0  0  0  0  0  0  0
  -30.5869  -14.9920   20.4367 C   0  0  0  0  0  0  0  0  0  0  0  0
  -19.8856  -29.8118   26.2574 C   0  0  0  0  0  0  0  0  0  0  0  0
  -26.4711  -27.5791   25.8562 C   0  0  0  0  0  0  0  0  0  0  0  0
  -26.4378  -26.1042   23.2933 C   0  0  0  0  0  0  0  0  0  0  0  0
  -20.5872  -29.4429   24.9529 C   0  0  0  0  0  0  0  0  0  0  0  0
  -29.6896  -12.0877   18.5829 C   0  0  0  0  0  0  0  0  0  0  0  0
  -20.9471  -27.9606   24.9409 C   0  0  0  0  0  0  0  0  0  0  0  0
  -28.2444  -11.8182   19.0082 C   0  0  0  0  0  0  0  0  0  0  0  0
  -30.5355  -12.6059   19.7446 C   0  0  0  0  0  0  0  0  0  0  0  0
  -28.5357  -13.5020   20.8702 C   0  0  0  0  0  0  0  0  0  0  0  0
  -21.9180  -27.6194   26.0778 C   0  0  1  0  0  0  0  0  0  0  0  0
  -25.4676  -27.9058   24.7545 C   0  0  1  0  0  0  0  0  0  0  0  0
  -27.6287  -13.0400   19.7179 C   0  0  2  0  0  0  0  0  0  0  0  0
  -28.0438  -18.0130   22.0904 C   0  0  0  0  0  0  0  0  0  0  0  0
  -29.2893  -28.9314   18.0952 C   0  0  0  0  0  0  0  0  0  0  0  0
  -23.5582  -26.8479   20.6808 C   0  0  0  0  0  0  0  0  0  0  0  0
  -25.0752  -27.0339   18.6978 C   0  0  0  0  0  0  0  0  0  0  0  0
  -24.2024  -29.0966   19.7960 C   0  0  0  0  0  0  0  0  0  0  0  0
  -33.3996  -20.4596   24.1227 C   0  0  0  0  0  0  0  0  0  0  0  0
  -30.8036  -28.7711   21.5819 C   0  0  0  0  0  0  0  0  0  0  0  0
  -30.5075  -20.9349   25.7995 C   0  0  0  0  0  0  0  0  0  0  0  0
  -31.1015  -21.3803   24.4687 C   0  0  0  0  0  0  0  0  0  0  0  0
  -29.6328  -22.0018   26.4474 C   0  0  0  0  0  0  0  0  0  1  0  0
  -25.9707  -27.7217   20.9685 C   0  0  1  0  0  0  0  0  0  0  0  0
  -29.2789  -28.9840   19.6150 C   0  0  2  0  0  0  0  0  0  0  0  0
  -24.7105  -27.6624   20.0596 C   0  0  0  0  0  0  0  0  0  0  0  0
  -25.8830  -11.5172   20.5634 N   0  0  0  0  0  0  0  0  0  0  0  0
  -26.2117  -12.7640   20.1848 N   0  0  0  0  0  0  0  0  0  0  0  0
  -25.9221  -27.4763   23.4305 N   0  0  0  0  0  0  0  0  0  0  0  0
  -29.8923  -13.7659   20.3656 N   0  0  0  0  0  0  0  0  0  0  0  0
  -25.3418  -14.9528   19.9333 N   0  0  0  0  0  0  0  0  0  0  0  0
  -21.8101  -12.5990   21.4770 N   0  0  0  0  0  0  0  0  0  0  0  0
  -29.8628  -16.0319   21.0188 N   0  0  0  0  0  0  0  0  0  0  0  0
  -23.2607  -28.0399   25.7390 N   0  0  0  0  0  0  0  0  0  0  0  0
  -27.0683  -28.5092   20.4175 N   0  0  0  0  0  0  0  0  0  0  0  0
  -31.9534  -20.3528   23.9203 N   0  0  3  0  0  0  0  0  0  0  0  0
  -30.6630  -28.7263   20.1037 N   0  3  0  0  0  0  0  0  0  0  0  0
  -22.5083  -14.6714   20.7870 O   0  0  0  0  0  0  0  0  0  0  0  0
  -23.8918  -26.1644   24.5115 O   0  0  0  0  0  0  0  0  0  0  0  0
  -25.2411  -29.4588   22.4096 O   0  0  0  0  0  0  0  0  0  0  0  0
  -28.6367  -26.8013   20.4278 O   0  0  0  0  0  0  0  0  0  0  0  0
  -31.7292  -15.1177   19.9879 O   0  0  0  0  0  0  0  0  0  0  0  0
  -21.7648   -7.1715   22.7321 O   0  0  0  0  0  0  0  0  0  0  0  0
  -28.5659  -22.3242   25.5563 O   0  0  0  0  0  0  0  0  0  1  0  0
  -24.2242   -3.9204   26.4451 F   0  0  0  0  0  0  0  0  0  0  0  0
  -20.6415   -6.7632   25.2250 F   0  0  0  0  0  0  0  0  0  0  0  0
  1  2  1  0  0  0  0
  1  5  2  0  0  0  0
  2  6  2  0  0  0  0
  3 10  2  0  0  0  0
  3 18  1  0  0  0  0
  4 11  1  0  0  0  0
  4 18  2  0  0  0  0
  5 20  1  0  0  0  0
  6 22  1  0  0  0  0
  7 12  2  0  0  0  0
  7 21  1  0  0  0  0
  8  9  2  0  0  0  0
  8 25  1  0  0  0  0
  9 26  1  0  0  0  0
 10 27  1  0  0  0  0
 11 27  2  0  0  0  0
 12 28  1  0  0  0  0
 13 14  2  0  0  0  0
 13 29  1  0  0  0  0
 14 30  1  0  0  0  0
 15 23  1  0  0  0  0
 15 28  2  0  0  0  0
 16 24  1  0  0  0  0
 16 25  2  0  0  0  0
 17 30  2  0  0  0  0
 17 31  1  0  0  0  0
 18 32  1  0  0  0  0
 19 32  1  0  0  0  0
 19 33  2  0  0  0  0
 19 34  1  0  0  0  0
 20 22  2  0  0  0  0
 20 39  1  0  0  0  0
 21 23  2  0  0  0  0
 21 40  1  0  0  0  0
 22 48  1  0  0  0  0
 23 41  1  0  0  0  0
 24 26  2  0  0  0  0
 24 51  1  0  0  0  0
 25 73  1  0  0  0  0
 26 70  1  0  0  0  0
 27 80  1  0  0  0  0
 28 81  1  0  0  0  0
 29 31  2  0  0  0  0
 29 80  1  0  0  0  0
 30 82  1  0  0  0  0
 31 83  1  0  0  0  0
 32 64  2  0  0  0  0
 33 65  1  0  0  0  0
 33 68  1  0  0  0  0
 34 69  1  0  0  0  0
 34 75  2  0  0  0  0
 35 49  1  0  0  0  0
 35 71  1  0  0  0  0
 35 76  2  0  0  0  0
 36 61  1  0  0  0  0
 36 66  1  0  0  0  0
 36 77  2  0  0  0  0
 37 62  1  0  0  0  0
 37 72  1  0  0  0  0
 37 78  2  0  0  0  0
 38 67  1  0  0  0  0
 38 70  1  0  0  0  0
 38 79  2  0  0  0  0
 39 42  1  0  0  0  0
 40 49  1  0  0  0  0
 41 66  1  0  0  0  0
 42 44  1  0  0  0  0
 43 45  1  0  0  0  0
 43 46  1  0  0  0  0
 44 48  1  0  0  0  0
 45 50  1  0  0  0  0
 46 67  1  0  0  0  0
 47 50  1  0  0  0  0
 47 67  1  0  0  0  0
 48 71  1  0  0  0  0
 49 66  1  0  0  0  0
 50 65  1  0  0  0  0
 52 62  1  0  0  0  0
 53 63  1  0  0  0  0
 54 63  1  0  0  0  0
 55 63  1  0  0  0  0
 56 73  1  0  0  0  0
 57 74  1  0  0  0  0
 58 59  1  0  0  0  0
 58 60  1  0  0  0  0
 59 73  1  0  0  0  0
 60 81  1  0  0  0  0
 61 63  1  0  0  0  0
 61 72  1  0  0  0  0
 62 74  1  0  0  0  0
 64 65  1  0  0  0  0
M  CHG  1  74   1
M  ISO  4  38 100  60 101  70 100  81 101
M  END
> <Batch ID>
0021

> <Smiles>
CNC(C)C(=O)NC(C(=O)N1Cc2cc([101O:1][101CH2:1]CCN(C)c3ccc([100NH:0][100C:0](=O)N4CCCC(n5nc(-c6ccc(Oc7ccc(F)cc7F)cc6)c(C(N)=O)c5N)C4)c(C)c3)ccc2CC1C(=O)NC1CCCc2ccccc21)C(C)(C)C

> <Shape>
0.230

> <Color>
0.188

> <Negative vol penalty>
0.000

$$$$

  -OEChem-04042321113D

 85 94  0     1  0  0  0  0  0999 V2000
  -23.0530   -7.7200   24.4857 C   0  0  0  0  0  0  0  0  0  0  0  0
  -24.2506   -8.4147   24.6220 C   0  0  0  0  0  0  0  0  0  0  0  0
  -25.0280  -30.7899   21.0033 C   0  0  0  0  0  0  0  0  0  0  0  0
  -24.6333  -29.3731   22.9200 C   0  0  0  0  0  0  0  0  0  0  0  0
  -22.3255   -7.8130   23.3000 C   0  0  0  0  0  0  0  0  0  0  0  0
  -24.7218   -9.2022   23.5721 C   0  0  0  0  0  0  0  0  0  0  0  0
  -28.4003  -15.2208   22.3225 C   0  0  0  0  0  0  0  0  0  0  0  0
  -24.3865  -31.8454   21.6513 C   0  0  0  0  0  0  0  0  0  0  0  0
  -23.9918  -30.4287   23.5681 C   0  0  0  0  0  0  0  0  0  0  0  0
  -29.4961  -15.6818   21.5941 C   0  0  0  0  0  0  0  0  0  0  0  0
  -25.1248  -34.1155   24.0460 C   0  0  0  0  0  0  0  0  0  0  0  0
  -25.7327  -35.3700   23.9996 C   0  0  0  0  0  0  0  0  0  0  0  0
  -28.1151  -15.8304   19.6219 C   0  0  0  0  0  0  0  0  0  0  0  0
  -29.9351  -20.1811   19.7458 C   0  0  0  0  0  0  0  0  0  0  0  0
  -27.8664  -20.3445   17.8813 C   0  0  0  0  0  0  0  0  0  0  0  0
  -23.7813  -36.2749   22.8994 C   0  0  0  0  0  0  0  0  0  0  0  0
  -25.1513  -29.5537   21.6376 C   0  0  0  0  0  0  0  0  0  0  0  0
  -27.1836  -28.1432   21.0146 C   0  0  0  0  0  0  0  0  0  0  0  0
  -22.7832   -8.6097   22.2387 C   0  0  0  0  0  0  0  0  0  0  0  0
  -27.1542  -15.0505   21.7023 C   0  0  0  0  0  0  0  0  0  0  0  0
  -24.0004   -9.3049   22.3706 C   0  0  0  0  0  0  0  0  0  0  0  0
  -27.0044  -15.3695   20.3451 C   0  0  0  0  0  0  0  0  0  0  0  0
  -30.0214  -19.4768   18.5449 C   0  0  0  0  0  0  0  0  0  0  0  0
  -27.7802  -21.0488   19.0822 C   0  0  0  0  0  0  0  0  0  0  0  0
  -23.8685  -31.6648   22.9338 C   0  0  0  0  0  0  0  0  0  0  0  0
  -29.3544  -15.9839   20.2430 C   0  0  0  0  0  0  0  0  0  0  0  0
  -23.8452  -33.9406   23.5190 C   0  0  0  0  0  0  0  0  0  0  0  0
  -25.0610  -36.4497   23.4264 C   0  0  0  0  0  0  0  0  0  0  0  0
  -28.8145  -20.9670   20.0145 C   0  0  0  0  0  0  0  0  0  0  0  0
  -28.9871  -19.5586   17.6126 C   0  0  0  0  0  0  0  0  0  0  0  0
  -23.1734  -35.0203   22.9458 C   0  0  0  0  0  0  0  0  0  0  0  0
  -25.8133  -28.4628   20.9684 C   0  0  0  0  0  0  0  0  0  0  0  0
  -27.3037  -27.0307   20.2181 C   0  0  0  0  0  0  0  0  0  0  0  0
  -28.2522  -28.7937   21.7149 C   0  0  0  0  0  0  0  0  0  0  0  0
  -25.2335  -12.5744   21.1695 C   0  0  0  0  0  0  0  0  0  0  0  0
  -23.2226  -14.8695   20.0690 C   0  0  0  0  0  0  0  0  0  0  0  0
  -22.8349  -17.9993   18.7648 C   0  0  0  0  0  0  0  0  0  0  0  0
  -25.5253  -22.0299   18.5353 C   0  0  0  0  0  0  0  0  0  0  0  0
  -21.9860   -8.6416   20.9587 C   0  0  0  0  0  0  0  0  0  0  0  0
  -25.9755  -14.5777   22.5082 C   0  0  0  0  0  0  0  0  0  0  0  0
  -25.6831  -15.2233   19.6373 C   0  0  0  0  0  0  0  0  0  0  0  0
  -22.3658   -9.7947   20.0333 C   0  0  0  0  0  0  0  0  0  0  0  0
  -23.9993  -24.8800   17.0436 C   0  0  0  0  0  0  0  0  0  0  0  0
  -33.0940  -18.1715   17.1040 C   0  0  0  0  0  0  0  0  0  0  0  0
  -23.8822   -9.8991   19.9051 C   0  0  0  0  0  0  0  0  0  0  0  0
  -24.4479  -26.0399   17.9355 C   0  0  0  0  0  0  0  0  0  0  0  0
  -33.1365  -17.4505   18.4396 C   0  0  0  0  0  0  0  0  0  0  0  0
  -31.6118  -18.4724   16.9190 C   0  0  0  0  0  0  0  0  0  0  0  0
  -23.7344  -23.6118   17.8530 C   0  0  0  0  0  0  0  0  0  0  0  0
  -25.2862  -24.3507   19.6180 C   0  0  0  0  0  0  0  0  0  0  0  0
  -24.5320  -10.1891   21.2634 C   0  0  1  0  0  0  0  0  0  0  0  0
  -24.8785  -13.9523   21.6521 C   0  0  1  0  0  0  0  0  0  0  0  0
  -25.6275  -25.6319   18.8398 C   0  0  2  0  0  0  0  0  0  0  0  0
  -32.0680  -18.1688   19.2820 C   0  0  2  0  0  0  0  0  0  0  0  0
  -21.0748  -19.5823   17.9321 C   0  0  0  0  0  0  0  0  0  0  0  0
  -23.0016  -13.2610   17.4856 C   0  0  0  0  0  0  0  0  0  0  0  0
  -22.0433  -15.2945   16.3834 C   0  0  0  0  0  0  0  0  0  0  0  0
  -20.8450  -14.2334   18.2968 C   0  0  0  0  0  0  0  0  0  0  0  0
  -23.5036  -20.0119   20.8291 C   0  0  0  0  0  0  0  0  0  0  0  0
  -31.4095  -17.1807   20.2393 C   0  0  0  0  0  0  0  0  0  1  0  0
  -22.9761  -15.5228   18.7305 C   0  0  1  0  0  0  0  0  0  0  0  0
  -21.8955  -19.1340   19.1314 C   0  0  2  0  0  0  0  0  0  0  0  0
  -22.2420  -14.5789   17.7367 C   0  0  0  0  0  0  0  0  0  0  0  0
  -25.1131  -27.6215   20.2030 N   0  0  0  0  0  0  0  0  0  0  0  0
  -26.0471  -26.7623   19.7608 N   0  0  0  0  0  0  0  0  0  0  0  0
  -31.1315  -18.6994   18.2812 N   0  0  3  0  0  0  0  0  0  0  0  0
  -24.5619  -14.7516   20.4667 N   0  0  0  0  0  0  0  0  0  0  0  0
  -24.8964  -23.2844   18.6822 N   0  0  0  0  0  0  0  0  0  0  0  0
  -28.3605  -26.2658   19.8712 N   0  0  0  0  0  0  0  0  0  0  0  0
  -27.9539  -29.9241   22.4881 N   0  0  0  0  0  0  0  0  0  0  0  0
  -26.6392  -21.8441   19.3533 N   0  0  0  0  0  0  0  0  0  0  0  0
  -24.3755  -11.5852   21.6108 N   0  0  0  0  0  0  0  0  0  0  0  0
  -22.2665  -16.7669   19.0080 N   0  0  0  0  0  0  0  0  0  0  0  0
  -22.6686  -20.3041   19.6356 N   0  3  0  0  0  0  0  0  0  0  0  0
  -29.4393  -28.3945   21.6437 O   0  0  0  0  0  0  0  0  0  0  0  0
  -26.2125  -12.4203   20.4487 O   0  0  0  0  0  0  0  0  0  0  0  0
  -22.2619  -14.4847   20.7402 O   0  0  0  0  0  0  0  0  0  0  0  0
  -23.9591  -18.1874   18.3050 O   0  0  0  0  0  0  0  0  0  0  0  0
  -25.1228  -21.1933   17.7228 O   0  0  0  0  0  0  0  0  0  0  0  0
  -23.2427  -32.6946   23.5665 O   0  0  0  0  0  0  0  0  0  0  0  0
  -30.4225  -16.4334   19.5296 O   0  0  0  0  0  0  0  0  0  1  0  0
  -25.6442  -37.6548   23.3833 F   0  0  0  0  0  0  0  0  0  0  0  0
  -28.7409  -21.6388   21.1724 F   0  0  0  0  0  0  0  0  0  0  0  0
  -29.0583  -18.8851   16.4556 F   0  0  0  0  0  0  0  0  0  0  0  0
  -21.9435  -34.8587   22.4389 F   0  0  0  0  0  0  0  0  0  0  0  0
  1  2  1  0  0  0  0
  1  5  2  0  0  0  0
  2  6  2  0  0  0  0
  3  8  2  0  0  0  0
  3 17  1  0  0  0  0
  4  9  1  0  0  0  0
  4 17  2  0  0  0  0
  5 19  1  0  0  0  0
  6 21  1  0  0  0  0
  7 10  2  0  0  0  0
  7 20  1  0  0  0  0
  8 25  1  0  0  0  0
  9 25  2  0  0  0  0
 10 26  1  0  0  0  0
 11 12  2  0  0  0  0
 11 27  1  0  0  0  0
 12 28  1  0  0  0  0
 13 22  1  0  0  0  0
 13 26  2  0  0  0  0
 14 23  1  0  0  0  0
 14 29  2  0  0  0  0
 15 24  2  0  0  0  0
 15 30  1  0  0  0  0
 16 28  2  0  0  0  0
 16 31  1  0  0  0  0
 17 32  1  0  0  0  0
 18 32  1  0  0  0  0
 18 33  2  0  0  0  0
 18 34  1  0  0  0  0
 19 21  2  0  0  0  0
 19 39  1  0  0  0  0
 20 22  2  0  0  0  0
 20 40  1  0  0  0  0
 21 51  1  0  0  0  0
 22 41  1  0  0  0  0
 23 30  2  0  0  0  0
 23 66  1  0  0  0  0
 24 29  1  0  0  0  0
 24 71  1  0  0  0  0
 25 80  1  0  0  0  0
 26 81  1  0  0  0  0
 27 31  2  0  0  0  0
 27 80  1  0  0  0  0
 28 82  1  0  0  0  0
 29 83  1  0  0  0  0
 30 84  1  0  0  0  0
 31 85  1  0  0  0  0
 32 64  2  0  0  0  0
 33 65  1  0  0  0  0
 33 69  1  0  0  0  0
 34 70  1  0  0  0  0
 34 75  2  0  0  0  0
 35 52  1  0  0  0  0
 35 72  1  0  0  0  0
 35 76  2  0  0  0  0
 36 61  1  0  0  0  0
 36 67  1  0  0  0  0
 36 77  2  0  0  0  0
 37 62  1  0  0  0  0
 37 73  1  0  0  0  0
 37 78  2  0  0  0  0
 38 68  1  0  0  0  0
 38 71  1  0  0  0  0
 38 79  2  0  0  0  0
 39 42  1  0  0  0  0
 40 52  1  0  0  0  0
 41 67  1  0  0  0  0
 42 45  1  0  0  0  0
 43 46  1  0  0  0  0
 43 49  1  0  0  0  0
 44 47  1  0  0  0  0
 44 48  1  0  0  0  0
 45 51  1  0  0  0  0
 46 53  1  0  0  0  0
 47 54  1  0  0  0  0
 48 66  1  0  0  0  0
 49 68  1  0  0  0  0
 50 53  1  0  0  0  0
 50 68  1  0  0  0  0
 51 72  1  0  0  0  0
 52 67  1  0  0  0  0
 53 65  1  0  0  0  0
 54 60  1  0  0  0  0
 54 66  1  0  0  0  0
 55 62  1  0  0  0  0
 56 63  1  0  0  0  0
 57 63  1  0  0  0  0
 58 63  1  0  0  0  0
 59 74  1  0  0  0  0
 60 81  1  0  0  0  0
 61 63  1  0  0  0  0
 61 73  1  0  0  0  0
 62 74  1  0  0  0  0
 64 65  1  0  0  0  0
M  CHG  1  74   1
M  ISO  4  38 100  60 101  71 100  81 101
M  END
> <Batch ID>
0021

> <Smiles>
CNC(C)C(=O)NC(C(=O)N1Cc2cc([101O:1][101CH2:1]C3CCCN3c3cc(F)c([100NH:0][100C:0](=O)N4CCCC(n5nc(-c6ccc(Oc7ccc(F)cc7F)cc6)c(C(N)=O)c5N)C4)cc3F)ccc2CC1C(=O)NC1CCCc2ccccc21)C(C)(C)C

> <Shape>
0.247

> <Color>
0.095

> <Negative vol penalty>
0.000

$$$$

  -OEChem-04042321113D

 88 97  0     1  0  0  0  0  0999 V2000
  -22.0807  -37.9403   19.3077 C   0  0  0  0  0  0  0  0  0  0  0  0
  -23.0040  -37.1842   18.5927 C   0  0  0  0  0  0  0  0  0  0  0  0
  -22.5656  -10.5324   21.3761 C   0  0  0  0  0  0  0  0  0  0  0  0
  -24.4825   -9.0710   21.5397 C   0  0  0  0  0  0  0  0  0  0  0  0
  -22.0914  -37.9155   20.7017 C   0  0  0  0  0  0  0  0  0  0  0  0
  -23.9393  -36.4037   19.2712 C   0  0  0  0  0  0  0  0  0  0  0  0
  -25.3956  -28.7474   18.7354 C   0  0  0  0  0  0  0  0  0  0  0  0
  -26.4319  -18.0937   22.3029 C   0  0  0  0  0  0  0  0  0  0  0  0
  -28.8187  -18.1374   22.6746 C   0  0  0  0  0  0  0  0  0  0  0  0
  -26.2785  -19.1839   23.1594 C   0  0  0  0  0  0  0  0  0  0  0  0
  -28.6654  -19.2276   23.5311 C   0  0  0  0  0  0  0  0  0  0  0  0
  -21.8854   -9.7442   22.3043 C   0  0  0  0  0  0  0  0  0  0  0  0
  -23.8024   -8.2828   22.4680 C   0  0  0  0  0  0  0  0  0  0  0  0
  -25.6381  -27.3779   18.8441 C   0  0  0  0  0  0  0  0  0  0  0  0
  -21.4162   -5.8878   22.4294 C   0  0  0  0  0  0  0  0  0  0  0  0
  -21.4736   -4.5033   22.2697 C   0  0  0  0  0  0  0  0  0  0  0  0
  -26.4021  -27.6829   21.1182 C   0  0  0  0  0  0  0  0  0  0  0  0
  -22.4960   -4.2942   24.4487 C   0  0  0  0  0  0  0  0  0  0  0  0
  -23.8642  -10.1958   20.9937 C   0  0  0  0  0  0  0  0  0  0  0  0
  -24.1828  -11.2832   18.7082 C   0  0  0  0  0  0  0  0  0  0  0  0
  -23.0210  -37.1268   21.3976 C   0  0  0  0  0  0  0  0  0  0  0  0
  -25.6412  -29.5887   19.8241 C   0  0  0  0  0  0  0  0  0  0  0  0
  -23.9632  -36.3694   20.6759 C   0  0  0  0  0  0  0  0  0  0  0  0
  -26.1494  -29.0537   21.0193 C   0  0  0  0  0  0  0  0  0  0  0  0
  -27.7020  -17.5704   22.0606 C   0  0  0  0  0  0  0  0  0  0  0  0
  -27.3953  -19.7509   23.7735 C   0  0  0  0  0  0  0  0  0  0  0  0
  -22.5038   -8.6194   22.8503 C   0  0  0  0  0  0  0  0  0  0  0  0
  -26.1403  -26.8471   20.0325 C   0  0  0  0  0  0  0  0  0  0  0  0
  -21.8988   -6.4755   23.5988 C   0  0  0  0  0  0  0  0  0  0  0  0
  -22.0135   -3.7065   23.2793 C   0  0  0  0  0  0  0  0  0  0  0  0
  -22.4387   -5.6788   24.6084 C   0  0  0  0  0  0  0  0  0  0  0  0
  -24.5671  -11.0093   20.0345 C   0  0  0  0  0  0  0  0  0  0  0  0
  -25.1780  -12.0961   18.2232 C   0  0  0  0  0  0  0  0  0  0  0  0
  -23.0292  -10.8423   17.9798 C   0  0  0  0  0  0  0  0  0  0  0  0
  -25.5571  -33.0775   21.2014 C   0  0  0  0  0  0  0  0  0  0  0  0
  -24.6057  -31.2115   23.4427 C   0  0  0  0  0  0  0  0  0  0  0  0
  -23.2150  -28.8719   25.4992 C   0  0  0  0  0  0  0  0  0  0  0  0
  -29.0460  -15.8213   20.8437 C   0  0  0  0  0  0  0  0  0  0  0  0
  -23.0244  -37.1690   22.9052 C   0  0  0  0  0  0  0  0  0  0  0  0
  -25.4528  -31.0786   19.7317 C   0  0  0  0  0  0  0  0  0  0  0  0
  -26.4313  -30.0016   22.1528 C   0  0  0  0  0  0  0  0  0  0  0  0
  -23.8063  -36.0245   23.5449 C   0  0  0  0  0  0  0  0  0  0  0  0
  -29.8414  -13.0394   18.7687 C   0  0  0  0  0  0  0  0  0  0  0  0
  -25.1559  -35.8494   22.8560 C   0  0  0  0  0  0  0  0  0  0  0  0
  -24.9970  -23.1310   22.6983 C   0  0  0  0  0  0  0  0  0  0  0  0
  -27.4449  -23.5556   23.1710 C   0  0  0  0  0  0  0  0  0  0  0  0
  -28.5423  -12.2312   18.7322 C   0  0  0  0  0  0  0  0  0  0  0  0
  -25.1265  -23.8796   21.3752 C   0  0  0  0  0  0  0  0  0  0  0  0
  -27.5675  -24.3036   21.8469 C   0  0  0  0  0  0  0  0  0  0  0  0
  -30.0768  -13.6730   20.1387 C   0  0  0  0  0  0  0  0  0  0  0  0
  -27.6599  -13.6666   20.6158 C   0  0  0  0  0  0  0  0  0  0  0  0
  -24.9774  -35.4909   21.3758 C   0  0  1  0  0  0  0  0  0  0  0  0
  -24.9638  -31.7078   21.0485 C   0  0  1  0  0  0  0  0  0  0  0  0
  -26.3305  -22.5010   23.1240 C   0  0  0  0  0  0  0  0  0  0  0  0
  -27.3468  -13.0628   19.2370 C   0  0  2  0  0  0  0  0  0  0  0  0
  -26.2377  -24.9248   21.4248 C   0  0  0  0  0  0  0  0  0  1  0  0
  -26.8176  -19.5628   27.3159 C   0  0  0  0  0  0  0  0  0  0  0  0
  -22.1833  -28.6106   27.7718 C   0  0  0  0  0  0  0  0  0  0  0  0
  -27.3749  -31.3605   24.7130 C   0  0  0  0  0  0  0  0  0  0  0  0
  -26.4413  -30.1846   26.7164 C   0  0  0  0  0  0  0  0  0  0  0  0
  -25.5516  -32.4200   26.0575 C   0  0  0  0  0  0  0  0  0  0  0  0
  -20.6417  -27.9633   24.3541 C   0  0  0  0  0  0  0  0  0  0  0  0
  -26.1903  -21.8039   24.4759 C   0  0  0  0  0  0  0  0  0  0  0  0
  -28.1850  -19.8211   26.6992 C   0  0  0  0  0  0  0  0  0  0  0  0
  -28.1888  -21.0174   25.7550 C   0  0  0  0  0  0  0  0  0  0  0  0
  -24.9807  -30.3960   24.6542 C   0  0  1  0  0  0  0  0  0  0  0  0
  -21.9231  -28.8714   26.2963 C   0  0  2  0  0  0  0  0  0  0  0  0
  -26.0852  -31.0785   25.5094 C   0  0  0  0  0  0  0  0  0  0  0  0
  -25.7169  -11.6001   20.3706 N   0  0  0  0  0  0  0  0  0  0  0  0
  -26.0636  -12.2533   19.2485 N   0  0  0  0  0  0  0  0  0  0  0  0
  -25.3393  -30.9803   22.2727 N   0  0  0  0  0  0  0  0  0  0  0  0
  -28.9045  -14.4485   20.5499 N   0  0  0  0  0  0  0  0  0  0  0  0
  -25.3732  -12.6846   17.0241 N   0  0  0  0  0  0  0  0  0  0  0  0
  -23.1137   -9.6455   17.2553 N   0  0  0  0  0  0  0  0  0  0  0  0
  -27.8572  -16.4619   21.1917 N   0  0  0  0  0  0  0  0  0  0  0  0
  -24.6228  -34.0951   21.2330 N   0  0  0  0  0  0  0  0  0  0  0  0
  -23.7383  -30.1416   25.3754 N   0  0  0  0  0  0  0  0  0  0  0  0
  -27.2396  -20.8552   24.6398 N   0  0  3  0  0  0  0  0  0  0  0  0
  -21.0013  -27.8165   25.7880 N   0  3  0  0  0  0  0  0  0  0  0  0
  -21.9606  -11.4989   17.9582 O   0  0  0  0  0  0  0  0  0  0  0  0
  -26.7732  -33.2032   21.2861 O   0  0  0  0  0  0  0  0  0  0  0  0
  -23.6915  -32.0360   23.5301 O   0  0  0  0  0  0  0  0  0  0  0  0
  -23.7124  -27.8478   25.0361 O   0  0  0  0  0  0  0  0  0  0  0  0
  -30.1363  -16.3930   20.7642 O   0  0  0  0  0  0  0  0  0  0  0  0
  -21.8404   -7.8501   23.7562 O   0  0  0  0  0  0  0  0  0  0  0  0
  -26.3705  -25.5086   20.1334 O   0  0  0  0  0  0  0  0  0  1  0  0
  -22.0671   -2.3769   23.1264 F   0  0  0  0  0  0  0  0  0  0  0  0
  -22.9028   -6.2376   25.7346 F   0  0  0  0  0  0  0  0  0  0  0  0
  1  2  1  0  0  0  0
  1  5  2  0  0  0  0
  2  6  2  0  0  0  0
  3 12  2  0  0  0  0
  3 19  1  0  0  0  0
  4 13  1  0  0  0  0
  4 19  2  0  0  0  0
  5 21  1  0  0  0  0
  6 23  1  0  0  0  0
  7 14  2  0  0  0  0
  7 22  1  0  0  0  0
  8 10  2  0  0  0  0
  8 25  1  0  0  0  0
  9 11  1  0  0  0  0
  9 25  2  0  0  0  0
 10 26  1  0  0  0  0
 11 26  2  0  0  0  0
 12 27  1  0  0  0  0
 13 27  2  0  0  0  0
 14 28  1  0  0  0  0
 15 16  2  0  0  0  0
 15 29  1  0  0  0  0
 16 30  1  0  0  0  0
 17 24  1  0  0  0  0
 17 28  2  0  0  0  0
 18 30  2  0  0  0  0
 18 31  1  0  0  0  0
 19 32  1  0  0  0  0
 20 32  1  0  0  0  0
 20 33  2  0  0  0  0
 20 34  1  0  0  0  0
 21 23  2  0  0  0  0
 21 39  1  0  0  0  0
 22 24  2  0  0  0  0
 22 40  1  0  0  0  0
 23 52  1  0  0  0  0
 24 41  1  0  0  0  0
 25 75  1  0  0  0  0
 26 78  1  0  0  0  0
 27 85  1  0  0  0  0
 28 86  1  0  0  0  0
 29 31  2  0  0  0  0
 29 85  1  0  0  0  0
 30 87  1  0  0  0  0
 31 88  1  0  0  0  0
 32 69  2  0  0  0  0
 33 70  1  0  0  0  0
 33 73  1  0  0  0  0
 34 74  1  0  0  0  0
 34 80  2  0  0  0  0
 35 53  1  0  0  0  0
 35 76  1  0  0  0  0
 35 81  2  0  0  0  0
 36 66  1  0  0  0  0
 36 71  1  0  0  0  0
 36 82  2  0  0  0  0
 37 67  1  0  0  0  0
 37 77  1  0  0  0  0
 37 83  2  0  0  0  0
 38 72  1  0  0  0  0
 38 75  1  0  0  0  0
 38 84  2  0  0  0  0
 39 42  1  0  0  0  0
 40 53  1  0  0  0  0
 41 71  1  0  0  0  0
 42 44  1  0  0  0  0
 43 47  1  0  0  0  0
 43 50  1  0  0  0  0
 44 52  1  0  0  0  0
 45 48  1  0  0  0  0
 45 54  1  0  0  0  0
 46 49  1  0  0  0  0
 46 54  1  0  0  0  0
 47 55  1  0  0  0  0
 48 56  1  0  0  0  0
 49 56  1  0  0  0  0
 50 72  1  0  0  0  0
 51 55  1  0  0  0  0
 51 72  1  0  0  0  0
 52 76  1  0  0  0  0
 53 71  1  0  0  0  0
 54 63  1  0  0  0  0
 55 70  1  0  0  0  0
 56 86  1  0  0  0  0
 57 64  1  0  0  0  0
 58 67  1  0  0  0  0
 59 68  1  0  0  0  0
 60 68  1  0  0  0  0
 61 68  1  0  0  0  0
 62 79  1  0  0  0  0
 63 78  1  0  0  0  0
 64 65  1  0  0  0  0
 65 78  1  0  0  0  0
 66 68  1  0  0  0  0
 66 77  1  0  0  0  0
 67 79  1  0  0  0  0
 69 70  1  0  0  0  0
M  CHG  1  79   1
M  ISO  4  38 100  56 101  75 100  86 101
M  END
> <Batch ID>
0021

> <Smiles>
CCCN(CC1CC[101CH:1]([101O:1]c2ccc3c(c2)CN(C(=O)C(NC(=O)C(C)NC)C(C)(C)C)C(C(=O)NC2CCCc4ccccc42)C3)CC1)c1ccc([100NH:0][100C:0](=O)N2CCCC(n3nc(-c4ccc(Oc5ccc(F)cc5F)cc4)c(C(N)=O)c3N)C2)cc1

> <Shape>
0.255

> <Color>
0.125

> <Negative vol penalty>
0.000

$$$$

  -OEChem-04042321113D

 89 98  0     1  0  0  0  0  0999 V2000
  -31.9886   -8.6345   33.4688 C   0  0  0  0  0  0  0  0  0  0  0  0
  -30.9482   -9.1598   32.7092 C   0  0  0  0  0  0  0  0  0  0  0  0
  -22.8013  -10.1481   20.1160 C   0  0  0  0  0  0  0  0  0  0  0  0
  -24.2324   -9.5745   21.9761 C   0  0  0  0  0  0  0  0  0  0  0  0
  -31.7359   -8.1399   34.7476 C   0  0  0  0  0  0  0  0  0  0  0  0
  -29.6541   -9.1898   33.2277 C   0  0  0  0  0  0  0  0  0  0  0  0
  -27.3373  -13.6186   32.4134 C   0  0  0  0  0  0  0  0  0  0  0  0
  -28.4711  -14.1990   23.6912 C   0  0  0  0  0  0  0  0  0  0  0  0
  -27.5690  -14.9281   24.4659 C   0  0  0  0  0  0  0  0  0  0  0  0
  -22.0824   -8.9678   20.3051 C   0  0  0  0  0  0  0  0  0  0  0  0
  -23.5134   -8.3942   22.1653 C   0  0  0  0  0  0  0  0  0  0  0  0
  -26.8233  -13.8431   31.1370 C   0  0  0  0  0  0  0  0  0  0  0  0
  -23.3526   -5.3228   20.7611 C   0  0  0  0  0  0  0  0  0  0  0  0
  -24.0768   -4.1501   20.9751 C   0  0  0  0  0  0  0  0  0  0  0  0
  -24.6207  -13.2575   31.9274 C   0  0  0  0  0  0  0  0  0  0  0  0
  -27.1313  -12.9647   25.8041 C   0  0  0  0  0  0  0  0  0  0  0  0
  -23.0073   -3.8819   23.1249 C   0  0  0  0  0  0  0  0  0  0  0  0
  -23.8764  -10.4514   20.9514 C   0  0  0  0  0  0  0  0  0  0  0  0
  -24.1245  -12.9866   20.8147 C   0  0  0  0  0  0  0  0  0  0  0  0
  -30.4398   -8.1727   35.2858 C   0  0  0  0  0  0  0  0  0  0  0  0
  -26.4973  -13.2007   33.4555 C   0  0  0  0  0  0  0  0  0  0  0  0
  -29.3835   -8.6940   34.5145 C   0  0  0  0  0  0  0  0  0  0  0  0
  -25.1261  -13.0309   33.2168 C   0  0  0  0  0  0  0  0  0  0  0  0
  -28.7033  -12.8527   23.9728 C   0  0  0  0  0  0  0  0  0  0  0  0
  -28.0334  -12.2355   25.0293 C   0  0  0  0  0  0  0  0  0  0  0  0
  -26.8991  -14.3110   25.5224 C   0  0  0  0  0  0  0  0  0  0  0  0
  -22.4384   -8.0909   21.3298 C   0  0  0  0  0  0  0  0  0  0  0  0
  -25.4654  -13.6598   30.8931 C   0  0  0  0  0  0  0  0  0  0  0  0
  -22.4558   -5.7752   21.7290 C   0  0  0  0  0  0  0  0  0  0  0  0
  -23.9042   -3.4296   22.1570 C   0  0  0  0  0  0  0  0  0  0  0  0
  -22.2831   -5.0547   22.9109 C   0  0  0  0  0  0  0  0  0  0  0  0
  -24.6197  -11.6701   20.7562 C   0  0  0  0  0  0  0  0  0  0  0  0
  -25.2190  -13.7768   20.5612 C   0  0  0  0  0  0  0  0  0  0  0  0
  -22.7941  -13.4535   21.0751 C   0  0  0  0  0  0  0  0  0  0  0  0
  -26.3330  -10.6224   35.3073 C   0  0  0  0  0  0  0  0  0  0  0  0
  -24.0176  -12.3271   36.8090 C   0  0  0  0  0  0  0  0  0  0  0  0
  -21.6778  -14.8061   36.6455 C   0  0  0  0  0  0  0  0  0  0  0  0
  -31.0285  -13.0969   21.2424 C   0  0  0  0  0  0  0  0  0  0  0  0
  -30.2069   -7.5832   36.6544 C   0  0  0  0  0  0  0  0  0  0  0  0
  -27.0626  -12.9886   34.8332 C   0  0  0  0  0  0  0  0  0  0  0  0
  -24.1784  -12.6028   34.3063 C   0  0  0  0  0  0  0  0  0  0  0  0
  -28.8748   -7.9946   37.2761 C   0  0  0  0  0  0  0  0  0  0  0  0
  -29.4010  -13.7699   18.2550 C   0  0  0  0  0  0  0  0  0  0  0  0
  -24.7138  -16.8285   27.1360 C   0  0  0  0  0  0  0  0  0  0  0  0
  -27.7451   -7.8514   36.2612 C   0  0  0  0  0  0  0  0  0  0  0  0
  -27.9393  -13.4360   18.5495 C   0  0  0  0  0  0  0  0  0  0  0  0
  -24.0128  -15.5154   27.4466 C   0  0  0  0  0  0  0  0  0  0  0  0
  -25.7162  -16.4492   26.0506 C   0  0  0  0  0  0  0  0  0  0  0  0
  -30.3324  -12.7462   18.8931 C   0  0  0  0  0  0  0  0  0  0  0  0
  -28.6926  -12.2734   20.6844 C   0  0  0  0  0  0  0  0  0  0  0  0
  -27.9707   -8.7667   35.0517 C   0  0  1  0  0  0  0  0  0  0  0  0
  -26.2047  -12.0681   35.6959 C   0  0  1  0  0  0  0  0  0  0  0  0
  -27.7034  -13.2802   20.0621 C   0  0  2  0  0  0  0  0  0  0  0  0
  -25.1271  -14.4671   27.3206 C   0  0  2  0  0  0  0  0  0  0  0  0
  -19.9129  -15.9429   38.0203 C   0  0  0  0  0  0  0  0  0  0  0  0
  -22.1751   -9.9255   36.4251 C   0  0  0  0  0  0  0  0  0  0  0  0
  -20.2331  -11.4229   36.9298 C   0  0  0  0  0  0  0  0  0  0  0  0
  -21.9897  -11.0361   38.6582 C   0  0  0  0  0  0  0  0  0  0  0  0
  -31.7023  -13.4164   23.5922 C   0  0  0  0  0  0  0  0  0  0  0  0
  -23.0377  -17.4263   36.4357 C   0  0  0  0  0  0  0  0  0  0  0  0
  -29.6727  -12.0925   23.1287 C   0  0  0  0  0  0  0  0  0  0  0  0
  -25.8806  -14.2925   28.6385 C   0  0  0  0  0  0  0  0  0  1  0  0
  -22.5238  -12.4740   36.6483 C   0  0  1  0  0  0  0  0  0  0  0  0
  -21.3682  -15.9622   37.5793 C   0  0  2  0  0  0  0  0  0  0  0  0
  -28.2647  -10.7950   25.3486 C   0  0  0  0  0  0  0  0  0  0  0  0
  -21.7483  -11.2208   37.1442 C   0  0  0  0  0  0  0  0  0  0  0  0
  -25.9270  -11.6225   20.4865 N   0  0  0  0  0  0  0  0  0  0  0  0
  -26.2625  -12.9190   20.3732 N   0  0  0  0  0  0  0  0  0  0  0  0
  -26.0060  -15.0341   26.2904 N   0  0  3  0  0  0  0  0  0  0  0  0
  -24.7802  -12.4018   35.6349 N   0  0  0  0  0  0  0  0  0  0  0  0
  -30.0772  -12.6202   20.3283 N   0  0  0  0  0  0  0  0  0  0  0  0
  -25.3808  -15.1147   20.4829 N   0  0  0  0  0  0  0  0  0  0  0  0
  -22.4243  -13.7116   22.4021 N   0  0  0  0  0  0  0  0  0  0  0  0
  -27.6231  -10.1327   35.3799 N   0  0  0  0  0  0  0  0  0  0  0  0
  -22.1594  -13.7108   37.3308 N   0  0  0  0  0  0  0  0  0  0  0  0
  -30.7398  -12.9443   22.6070 N   0  0  0  0  0  0  0  0  0  0  0  0
  -21.6366  -17.2619   36.9013 N   0  3  0  0  0  0  0  0  0  0  0  0
  -21.9529  -13.6207   20.1598 O   0  0  0  0  0  0  0  0  0  0  0  0
  -25.3352   -9.9970   34.9684 O   0  0  0  0  0  0  0  0  0  0  0  0
  -24.4911  -12.1596   37.9357 O   0  0  0  0  0  0  0  0  0  0  0  0
  -21.5058  -14.8671   35.4301 O   0  0  0  0  0  0  0  0  0  0  0  0
  -32.0821  -13.6232   20.8616 O   0  0  0  0  0  0  0  0  0  0  0  0
  -21.7370   -6.9393   21.5148 O   0  0  0  0  0  0  0  0  0  0  0  0
  -24.9613  -13.8776   29.6480 O   0  0  0  0  0  0  0  0  0  1  0  0
  -24.5985   -2.3026   22.3617 F   0  0  0  0  0  0  0  0  0  0  0  0
  -21.4221   -5.4837   23.8439 F   0  0  0  0  0  0  0  0  0  0  0  0
  -27.5311  -10.3468   26.4090 F   0  0  0  0  0  0  0  0  0  0  0  0
  -27.9573   -9.9528   24.3193 F   0  0  0  0  0  0  0  0  0  0  0  0
  -29.5655  -10.5315   25.6637 F   0  0  0  0  0  0  0  0  0  0  0  0
  1  2  1  0  0  0  0
  1  5  2  0  0  0  0
  2  6  2  0  0  0  0
  3 10  2  0  0  0  0
  3 18  1  0  0  0  0
  4 11  1  0  0  0  0
  4 18  2  0  0  0  0
  5 20  1  0  0  0  0
  6 22  1  0  0  0  0
  7 12  2  0  0  0  0
  7 21  1  0  0  0  0
  8  9  2  0  0  0  0
  8 24  1  0  0  0  0
  9 26  1  0  0  0  0
 10 27  1  0  0  0  0
 11 27  2  0  0  0  0
 12 28  1  0  0  0  0
 13 14  2  0  0  0  0
 13 29  1  0  0  0  0
 14 30  1  0  0  0  0
 15 23  1  0  0  0  0
 15 28  2  0  0  0  0
 16 25  1  0  0  0  0
 16 26  2  0  0  0  0
 17 30  2  0  0  0  0
 17 31  1  0  0  0  0
 18 32  1  0  0  0  0
 19 32  1  0  0  0  0
 19 33  2  0  0  0  0
 19 34  1  0  0  0  0
 20 22  2  0  0  0  0
 20 39  1  0  0  0  0
 21 23  2  0  0  0  0
 21 40  1  0  0  0  0
 22 51  1  0  0  0  0
 23 41  1  0  0  0  0
 24 25  2  0  0  0  0
 24 61  1  0  0  0  0
 25 65  1  0  0  0  0
 26 69  1  0  0  0  0
 27 83  1  0  0  0  0
 28 84  1  0  0  0  0
 29 31  2  0  0  0  0
 29 83  1  0  0  0  0
 30 85  1  0  0  0  0
 31 86  1  0  0  0  0
 32 67  2  0  0  0  0
 33 68  1  0  0  0  0
 33 72  1  0  0  0  0
 34 73  1  0  0  0  0
 34 78  2  0  0  0  0
 35 52  1  0  0  0  0
 35 74  1  0  0  0  0
 35 79  2  0  0  0  0
 36 63  1  0  0  0  0
 36 70  1  0  0  0  0
 36 80  2  0  0  0  0
 37 64  1  0  0  0  0
 37 75  1  0  0  0  0
 37 81  2  0  0  0  0
 38 71  1  0  0  0  0
 38 76  1  0  0  0  0
 38 82  2  0  0  0  0
 39 42  1  0  0  0  0
 40 52  1  0  0  0  0
 41 70  1  0  0  0  0
 42 45  1  0  0  0  0
 43 46  1  0  0  0  0
 43 49  1  0  0  0  0
 44 47  1  0  0  0  0
 44 48  1  0  0  0  0
 45 51  1  0  0  0  0
 46 53  1  0  0  0  0
 47 54  1  0  0  0  0
 48 69  1  0  0  0  0
 49 71  1  0  0  0  0
 50 53  1  0  0  0  0
 50 71  1  0  0  0  0
 51 74  1  0  0  0  0
 52 70  1  0  0  0  0
 53 68  1  0  0  0  0
 54 62  1  0  0  0  0
 54 69  1  0  0  0  0
 55 64  1  0  0  0  0
 56 66  1  0  0  0  0
 57 66  1  0  0  0  0
 58 66  1  0  0  0  0
 59 76  1  0  0  0  0
 60 77  1  0  0  0  0
 61 76  1  0  0  0  0
 62 84  1  0  0  0  0
 63 66  1  0  0  0  0
 63 75  1  0  0  0  0
 64 77  1  0  0  0  0
 65 87  1  0  0  0  0
 65 88  1  0  0  0  0
 65 89  1  0  0  0  0
 67 68  1  0  0  0  0
M  CHG  1  77   1
M  ISO  4  38 100  62 101  76 100  84 101
M  END
> <Batch ID>
0021

> <Smiles>
CNC(C)C(=O)NC(C(=O)N1Cc2cc([101O:1][101CH2:1]C3CCCN3c3ccc(C[100N:0](C)[100C:0](=O)N4CCCC(n5nc(-c6ccc(Oc7ccc(F)cc7F)cc6)c(C(N)=O)c5N)C4)c(C(F)(F)F)c3)ccc2CC1C(=O)NC1CCCc2ccccc21)C(C)(C)C

> <Shape>
0.138

> <Color>
0.164

> <Negative vol penalty>
0.000

$$$$

  -OEChem-04042321113D

 82 91  0     1  0  0  0  0  0999 V2000
  -17.1753  -32.1323   20.9462 C   0  0  0  0  0  0  0  0  0  0  0  0
  -18.4993  -32.5429   21.0636 C   0  0  0  0  0  0  0  0  0  0  0  0
  -26.7813  -12.4050   21.2096 C   0  0  0  0  0  0  0  0  0  0  0  0
  -25.4884  -14.0683   20.0267 C   0  0  0  0  0  0  0  0  0  0  0  0
  -16.7379  -30.9923   21.6193 C   0  0  0  0  0  0  0  0  0  0  0  0
  -19.3864  -31.8144   21.8552 C   0  0  0  0  0  0  0  0  0  0  0  0
  -25.4279  -29.0984   19.1104 C   0  0  0  0  0  0  0  0  0  0  0  0
  -25.9147  -11.4099   20.7575 C   0  0  0  0  0  0  0  0  0  0  0  0
  -24.6219  -13.0731   19.5746 C   0  0  0  0  0  0  0  0  0  0  0  0
  -26.7282  -28.7678   18.7278 C   0  0  0  0  0  0  0  0  0  0  0  0
  -23.8336   -8.4789   20.2079 C   0  0  0  0  0  0  0  0  0  0  0  0
  -23.3980   -7.5279   21.1306 C   0  0  0  0  0  0  0  0  0  0  0  0
  -27.1314  -27.7929   20.9036 C   0  0  0  0  0  0  0  0  0  0  0  0
  -22.4090   -9.2793   22.4691 C   0  0  0  0  0  0  0  0  0  0  0  0
  -26.5681  -13.7342   20.8442 C   0  0  0  0  0  0  0  0  0  0  0  0
  -28.8473  -14.8565   21.0754 C   0  0  0  0  0  0  0  0  0  0  0  0
  -17.6225  -30.2440   22.4119 C   0  0  0  0  0  0  0  0  0  0  0  0
  -24.9684  -28.7636   20.3875 C   0  0  0  0  0  0  0  0  0  0  0  0
  -18.9601  -30.6641   22.5407 C   0  0  0  0  0  0  0  0  0  0  0  0
  -25.8258  -28.1100   21.2877 C   0  0  0  0  0  0  0  0  0  0  0  0
  -24.8350  -11.7439   19.9400 C   0  0  0  0  0  0  0  0  0  0  0  0
  -27.5779  -28.1171   19.6224 C   0  0  0  0  0  0  0  0  0  0  0  0
  -23.5569   -9.8302   20.4158 C   0  0  0  0  0  0  0  0  0  0  0  0
  -22.6857   -7.9280   22.2612 C   0  0  0  0  0  0  0  0  0  0  0  0
  -22.8446  -10.2304   21.5463 C   0  0  0  0  0  0  0  0  0  0  0  0
  -27.4626  -14.7627   21.3114 C   0  0  0  0  0  0  0  0  0  0  0  0
  -29.2297  -16.0032   21.7275 C   0  0  0  0  0  0  0  0  0  0  0  0
  -29.7106  -13.9851   20.3331 C   0  0  0  0  0  0  0  0  0  0  0  0
  -22.1866  -28.8948   22.8759 C   0  0  0  0  0  0  0  0  0  0  0  0
  -30.3848  -26.0439   18.8378 C   0  0  0  0  0  0  0  0  0  0  0  0
  -23.6119  -26.0566   23.1316 C   0  0  0  0  0  0  0  0  0  0  0  0
  -20.6341  -24.9027   24.8108 C   0  0  0  0  0  0  0  0  0  0  0  0
  -28.3986  -21.3636   23.0394 C   0  0  0  0  0  0  0  0  0  0  0  0
  -17.0920  -29.0457   23.1584 C   0  0  0  0  0  0  0  0  0  0  0  0
  -23.5957  -29.1594   20.8612 C   0  0  0  0  0  0  0  0  0  0  0  0
  -25.3011  -27.7988   22.6613 C   0  0  0  0  0  0  0  0  0  0  0  0
  -18.1871  -28.1174   23.6772 C   0  0  0  0  0  0  0  0  0  0  0  0
  -26.7155  -18.9201   25.0073 C   0  0  0  0  0  0  0  0  0  0  0  0
  -19.2906  -28.9216   24.3574 C   0  0  0  0  0  0  0  0  0  0  0  0
  -26.8687  -17.6305   24.1989 C   0  0  0  0  0  0  0  0  0  0  0  0
  -32.3050  -22.9063   19.0226 C   0  0  0  0  0  0  0  0  0  0  0  0
  -31.6747  -22.0382   21.3546 C   0  0  0  0  0  0  0  0  0  0  0  0
  -29.7883  -23.4736   20.8687 C   0  0  0  0  0  0  0  0  0  0  0  0
  -26.5280  -20.1351   24.1015 C   0  0  0  0  0  0  0  0  0  0  0  0
  -32.0012  -24.2337   18.3491 C   0  0  0  0  0  0  0  0  0  0  0  0
  -27.7192  -19.0130   22.2588 C   0  0  0  0  0  0  0  0  0  0  0  0
  -19.9587  -29.8863   23.3701 C   0  0  1  0  0  0  0  0  0  0  0  0
  -22.9627  -28.1443   21.8339 C   0  0  1  0  0  0  0  0  0  0  0  0
  -32.1623  -23.2226   20.5149 C   0  0  2  0  0  0  0  0  0  0  0  0
  -27.9668  -17.7677   23.1273 C   0  0  2  0  0  0  0  0  0  0  0  0
  -31.0473  -24.2783   20.5528 C   0  0  1  0  0  0  0  0  0  0  0  0
  -30.3028  -22.4607   21.8863 C   0  0  1  0  0  0  0  0  0  0  0  0
  -20.0603  -22.6470   25.7488 C   0  0  0  0  0  0  0  0  0  0  0  0
  -22.2970  -25.5841   20.4190 C   0  0  0  0  0  0  0  0  0  0  0  0
  -20.4587  -24.3626   21.6008 C   0  0  0  0  0  0  0  0  0  0  0  0
  -22.7978  -23.5029   21.7122 C   0  0  0  0  0  0  0  0  0  0  0  0
  -20.0583  -26.0325   27.4849 C   0  0  0  0  0  0  0  0  0  0  0  0
  -29.4258  -26.6351   19.8388 C   0  0  0  0  0  0  0  0  0  1  0  0
  -22.1820  -25.5907   22.9983 C   0  0  1  0  0  0  0  0  0  0  0  0
  -20.5708  -24.0449   26.0617 C   0  0  2  0  0  0  0  0  0  0  0  0
  -21.9402  -24.7869   21.6895 C   0  0  0  0  0  0  0  0  0  0  0  0
  -26.9969  -15.7694   22.0554 N   0  0  0  0  0  0  0  0  0  0  0  0
  -28.0952  -16.5067   22.2927 N   0  0  0  0  0  0  0  0  0  0  0  0
  -23.9237  -27.3012   22.5706 N   0  0  0  0  0  0  0  0  0  0  0  0
  -31.0596  -24.9026   19.2351 N   0  0  0  0  0  0  0  0  0  0  0  0
  -27.6030  -20.2081   23.1091 N   0  0  0  0  0  0  0  0  0  0  0  0
  -30.4225  -16.6199   21.8670 N   0  0  0  0  0  0  0  0  0  0  0  0
  -29.1537  -12.8511   19.7263 N   0  0  0  0  0  0  0  0  0  0  0  0
  -20.8825  -29.1736   22.5139 N   0  0  0  0  0  0  0  0  0  0  0  0
  -21.8782  -24.8510   24.2185 N   0  0  0  0  0  0  0  0  0  0  0  0
  -29.3990  -21.3479   22.0752 N   0  0  0  0  0  0  0  0  0  0  0  0
  -19.6617  -24.6629   27.0680 N   0  3  0  0  0  0  0  0  0  0  0  0
  -30.9423  -14.1968   20.2253 O   0  0  0  0  0  0  0  0  0  0  0  0
  -22.7294  -29.1978   23.9320 O   0  0  0  0  0  0  0  0  0  0  0  0
  -30.5234  -26.5711   17.7317 O   0  0  0  0  0  0  0  0  0  0  0  0
  -24.4275  -25.3326   23.7086 O   0  0  0  0  0  0  0  0  0  0  0  0
  -19.6747  -25.5506   24.3981 O   0  0  0  0  0  0  0  0  0  0  0  0
  -28.2333  -22.3350   23.7851 O   0  0  0  0  0  0  0  0  0  0  0  0
  -23.9893  -10.7731   19.4984 O   0  0  0  0  0  0  0  0  0  0  0  0
  -28.8446  -27.7934   19.2412 O   0  0  0  0  0  0  0  0  0  1  0  0
  -22.2662   -7.0145   23.1464 F   0  0  0  0  0  0  0  0  0  0  0  0
  -22.5748  -11.5270   21.7508 F   0  0  0  0  0  0  0  0  0  0  0  0
  1  2  1  0  0  0  0
  1  5  2  0  0  0  0
  2  6  2  0  0  0  0
  3  8  2  0  0  0  0
  3 15  1  0  0  0  0
  4  9  1  0  0  0  0
  4 15  2  0  0  0  0
  5 17  1  0  0  0  0
  6 19  1  0  0  0  0
  7 10  2  0  0  0  0
  7 18  1  0  0  0  0
  8 21  1  0  0  0  0
  9 21  2  0  0  0  0
 10 22  1  0  0  0  0
 11 12  2  0  0  0  0
 11 23  1  0  0  0  0
 12 24  1  0  0  0  0
 13 20  1  0  0  0  0
 13 22  2  0  0  0  0
 14 24  2  0  0  0  0
 14 25  1  0  0  0  0
 15 26  1  0  0  0  0
 16 26  1  0  0  0  0
 16 27  2  0  0  0  0
 16 28  1  0  0  0  0
 17 19  2  0  0  0  0
 17 34  1  0  0  0  0
 18 20  2  0  0  0  0
 18 35  1  0  0  0  0
 19 47  1  0  0  0  0
 20 36  1  0  0  0  0
 21 79  1  0  0  0  0
 22 80  1  0  0  0  0
 23 25  2  0  0  0  0
 23 79  1  0  0  0  0
 24 81  1  0  0  0  0
 25 82  1  0  0  0  0
 26 62  2  0  0  0  0
 27 63  1  0  0  0  0
 27 67  1  0  0  0  0
 28 68  1  0  0  0  0
 28 73  2  0  0  0  0
 29 48  1  0  0  0  0
 29 69  1  0  0  0  0
 29 74  2  0  0  0  0
 30 58  1  0  0  0  0
 30 65  1  0  0  0  0
 30 75  2  0  0  0  0
 31 59  1  0  0  0  0
 31 64  1  0  0  0  0
 31 76  2  0  0  0  0
 32 60  1  0  0  0  0
 32 70  1  0  0  0  0
 32 77  2  0  0  0  0
 33 66  1  0  0  0  0
 33 71  1  0  0  0  0
 33 78  2  0  0  0  0
 34 37  1  0  0  0  0
 35 48  1  0  0  0  0
 36 64  1  0  0  0  0
 37 39  1  0  0  0  0
 38 40  1  0  0  0  0
 38 44  1  0  0  0  0
 39 47  1  0  0  0  0
 40 50  1  0  0  0  0
 41 45  1  0  0  0  0
 41 49  1  0  0  0  0
 42 49  1  0  0  0  0
 42 52  1  0  0  0  0
 43 51  1  0  0  0  0
 43 52  1  0  0  0  0
 44 66  1  0  0  0  0
 45 65  1  0  0  0  0
 46 50  1  0  0  0  0
 46 66  1  0  0  0  0
 47 69  1  0  0  0  0
 48 64  1  0  0  0  0
 49 51  1  0  0  0  0
 50 63  1  0  0  0  0
 51 65  1  0  0  0  0
 52 71  1  0  0  0  0
 53 60  1  0  0  0  0
 54 61  1  0  0  0  0
 55 61  1  0  0  0  0
 56 61  1  0  0  0  0
 57 72  1  0  0  0  0
 58 80  1  0  0  0  0
 59 61  1  0  0  0  0
 59 70  1  0  0  0  0
 60 72  1  0  0  0  0
 62 63  1  0  0  0  0
M  CHG  1  72   1
M  ISO  4  33 100  58 101  71 100  80 101
M  END
> <Batch ID>
0021

> <Smiles>
CNC(C)C(=O)NC(C(=O)N1Cc2cc([101O:1][101CH2:1]C(=O)N3CCC4CC([100NH:0][100C:0](=O)N5CCCC(n6nc(-c7ccc(Oc8ccc(F)cc8F)cc7)c(C(N)=O)c6N)C5)CC43)ccc2CC1C(=O)NC1CCCc2ccccc21)C(C)(C)C

> <Shape>
0.238

> <Color>
0.093

> <Negative vol penalty>
0.000

$$$$

  -OEChem-04042321113D

 86 95  0     1  0  0  0  0  0999 V2000
  -30.1734  -35.1177   22.6261 C   0  0  0  0  0  0  0  0  0  0  0  0
  -30.4417  -33.7748   22.3813 C   0  0  0  0  0  0  0  0  0  0  0  0
  -22.5241  -10.3091   20.5807 C   0  0  0  0  0  0  0  0  0  0  0  0
  -24.4496   -9.2108   21.5415 C   0  0  0  0  0  0  0  0  0  0  0  0
  -28.8847  -35.5173   22.9773 C   0  0  0  0  0  0  0  0  0  0  0  0
  -29.4214  -32.8304   22.4886 C   0  0  0  0  0  0  0  0  0  0  0  0
  -28.7061  -27.7818   19.0965 C   0  0  0  0  0  0  0  0  0  0  0  0
  -21.8075   -9.1145   20.6511 C   0  0  0  0  0  0  0  0  0  0  0  0
  -23.7330   -8.0161   21.6120 C   0  0  0  0  0  0  0  0  0  0  0  0
  -29.0288  -26.4449   19.3248 C   0  0  0  0  0  0  0  0  0  0  0  0
  -22.2952   -4.7660   22.3786 C   0  0  0  0  0  0  0  0  0  0  0  0
  -22.3810   -4.0260   23.5578 C   0  0  0  0  0  0  0  0  0  0  0  0
  -26.7749  -26.0363   20.0811 C   0  0  0  0  0  0  0  0  0  0  0  0
  -29.3220  -18.5137   22.1019 C   0  0  0  0  0  0  0  0  0  0  0  0
  -29.8761  -19.3437   19.4967 C   0  0  0  0  0  0  0  0  0  0  0  0
  -21.4726   -5.8919   24.7949 C   0  0  0  0  0  0  0  0  0  0  0  0
  -23.8452  -10.3573   21.0259 C   0  0  0  0  0  0  0  0  0  0  0  0
  -24.2677  -12.8120   21.5768 C   0  0  0  0  0  0  0  0  0  0  0  0
  -27.8459  -34.5786   23.0796 C   0  0  0  0  0  0  0  0  0  0  0  0
  -27.4162  -28.2594   19.3695 C   0  0  0  0  0  0  0  0  0  0  0  0
  -28.1178  -33.2175   22.8429 C   0  0  0  0  0  0  0  0  0  0  0  0
  -26.4376  -27.3792   19.8530 C   0  0  0  0  0  0  0  0  0  0  0  0
  -29.4547  -17.5706   21.0829 C   0  0  0  0  0  0  0  0  0  0  0  0
  -29.7433  -20.2868   20.5158 C   0  0  0  0  0  0  0  0  0  0  0  0
  -22.4119   -7.9680   21.1667 C   0  0  0  0  0  0  0  0  0  0  0  0
  -28.0640  -25.5725   19.8199 C   0  0  0  0  0  0  0  0  0  0  0  0
  -21.7982   -6.0691   22.4075 C   0  0  0  0  0  0  0  0  0  0  0  0
  -21.9696   -4.5889   24.7660 C   0  0  0  0  0  0  0  0  0  0  0  0
  -29.4663  -19.8718   21.8184 C   0  0  0  0  0  0  0  0  0  0  0  0
  -29.7317  -17.9855   19.7803 C   0  0  0  0  0  0  0  0  0  0  0  0
  -21.3868   -6.6320   23.6156 C   0  0  0  0  0  0  0  0  0  0  0  0
  -24.5862  -11.5909   20.9529 C   0  0  0  0  0  0  0  0  0  0  0  0
  -25.2760  -13.6643   21.1981 C   0  0  0  0  0  0  0  0  0  0  0  0
  -23.1596  -13.1460   22.4231 C   0  0  0  0  0  0  0  0  0  0  0  0
  -26.2015  -30.4400   21.3376 C   0  0  0  0  0  0  0  0  0  0  0  0
  -23.4486  -29.7636   19.7607 C   0  0  0  0  0  0  0  0  0  0  0  0
  -21.6441  -27.5393   17.9052 C   0  0  0  0  0  0  0  0  0  0  0  0
  -30.8950  -14.3094   20.6254 C   0  0  0  0  0  0  0  0  0  0  0  0
  -26.4796  -35.0517   23.5084 C   0  0  0  0  0  0  0  0  0  0  0  0
  -27.0766  -29.6983   19.0926 C   0  0  0  0  0  0  0  0  0  0  0  0
  -25.0326  -27.8374   20.1432 C   0  0  0  0  0  0  0  0  0  0  0  0
  -25.3707  -34.0388   23.2350 C   0  0  0  0  0  0  0  0  0  0  0  0
  -28.9046  -13.1616   17.7231 C   0  0  0  0  0  0  0  0  0  0  0  0
  -25.7945  -32.6467   23.6927 C   0  0  0  0  0  0  0  0  0  0  0  0
  -27.6073  -12.6871   18.3757 C   0  0  0  0  0  0  0  0  0  0  0  0
  -30.5279  -23.6228   19.1538 C   0  0  0  0  0  0  0  0  0  0  0  0
  -30.0948  -13.0347   18.6692 C   0  0  0  0  0  0  0  0  0  0  0  0
  -30.1756  -22.1567   18.9029 C   0  0  0  0  0  0  0  0  0  0  0  0
  -28.6026  -13.2426   20.6299 C   0  0  0  0  0  0  0  0  0  0  0  0
  -29.7599  -22.6938   21.2287 C   0  0  0  0  0  0  0  0  0  0  0  0
  -27.0321  -32.1666   22.9250 C   0  0  1  0  0  0  0  0  0  0  0  0
  -25.8751  -30.1931   19.8918 C   0  0  1  0  0  0  0  0  0  0  0  0
  -27.3759  -13.4007   19.7190 C   0  0  2  0  0  0  0  0  0  0  0  0
  -29.7238  -23.9751   20.3968 C   0  0  2  0  0  0  0  0  0  1  0  0
  -19.4117  -27.2542   16.7950 C   0  0  0  0  0  0  0  0  0  0  0  0
  -22.1649  -29.2466   22.4801 C   0  0  0  0  0  0  0  0  0  0  0  0
  -20.2942  -28.0769   21.2967 C   0  0  0  0  0  0  0  0  0  0  0  0
  -20.7208  -30.4965   20.8655 C   0  0  0  0  0  0  0  0  0  0  0  0
  -31.6526  -16.1080   22.1322 C   0  0  0  0  0  0  0  0  0  0  0  0
  -22.8798  -27.2633   15.2302 C   0  0  0  0  0  0  0  0  0  0  0  0
  -29.3002  -16.1192   21.3895 C   0  0  0  0  0  0  0  0  0  0  0  0
  -22.3256  -28.7721   19.9473 C   0  0  1  0  0  0  0  0  0  0  0  0
  -20.8529  -27.7074   16.6206 C   0  0  2  0  0  0  0  0  0  0  0  0
  -21.4033  -29.1395   21.1439 C   0  0  0  0  0  0  0  0  0  0  0  0
  -25.7089  -11.6573   20.2324 N   0  0  0  0  0  0  0  0  0  0  0  0
  -26.1046  -12.9305   20.4011 N   0  0  0  0  0  0  0  0  0  0  0  0
  -29.8862  -21.6289   20.2329 N   0  0  3  0  0  0  0  0  0  0  0  0
  -24.7512  -29.2549   19.8620 N   0  0  0  0  0  0  0  0  0  0  0  0
  -29.8315  -13.6844   19.9536 N   0  0  0  0  0  0  0  0  0  0  0  0
  -25.5257  -14.9623   21.4723 N   0  0  0  0  0  0  0  0  0  0  0  0
  -23.2975  -12.9671   23.8063 N   0  0  0  0  0  0  0  0  0  0  0  0
  -26.6619  -31.7161   21.6004 N   0  0  0  0  0  0  0  0  0  0  0  0
  -21.6359  -28.6904   18.6643 N   0  0  0  0  0  0  0  0  0  0  0  0
  -30.5824  -15.4192   21.4249 N   0  0  0  0  0  0  0  0  0  0  0  0
  -21.4681  -26.9063   15.5248 N   0  3  0  0  0  0  0  0  0  0  0  0
  -22.0733  -13.5745   21.9648 O   0  0  0  0  0  0  0  0  0  0  0  0
  -26.0458  -29.5398   22.1543 O   0  0  0  0  0  0  0  0  0  0  0  0
  -23.1800  -30.9445   19.5265 O   0  0  0  0  0  0  0  0  0  0  0  0
  -22.2094  -26.4906   18.2070 O   0  0  0  0  0  0  0  0  0  0  0  0
  -32.0588  -13.9046   20.5091 O   0  0  0  0  0  0  0  0  0  0  0  0
  -21.7129   -6.8022   21.2358 O   0  0  0  0  0  0  0  0  0  0  0  0
  -28.3765  -24.2672   20.0443 O   0  0  0  0  0  0  0  0  0  1  0  0
  -22.0506   -3.8776   25.8981 F   0  0  0  0  0  0  0  0  0  0  0  0
  -29.3367  -20.7698   22.8054 F   0  0  0  0  0  0  0  0  0  0  0  0
  -29.8610  -17.0866   18.7944 F   0  0  0  0  0  0  0  0  0  0  0  0
  -20.9074   -7.8829   23.6495 F   0  0  0  0  0  0  0  0  0  0  0  0
  1  2  1  0  0  0  0
  1  5  2  0  0  0  0
  2  6  2  0  0  0  0
  3  8  2  0  0  0  0
  3 17  1  0  0  0  0
  4  9  1  0  0  0  0
  4 17  2  0  0  0  0
  5 19  1  0  0  0  0
  6 21  1  0  0  0  0
  7 10  2  0  0  0  0
  7 20  1  0  0  0  0
  8 25  1  0  0  0  0
  9 25  2  0  0  0  0
 10 26  1  0  0  0  0
 11 12  2  0  0  0  0
 11 27  1  0  0  0  0
 12 28  1  0  0  0  0
 13 22  1  0  0  0  0
 13 26  2  0  0  0  0
 14 23  2  0  0  0  0
 14 29  1  0  0  0  0
 15 24  1  0  0  0  0
 15 30  2  0  0  0  0
 16 28  2  0  0  0  0
 16 31  1  0  0  0  0
 17 32  1  0  0  0  0
 18 32  1  0  0  0  0
 18 33  2  0  0  0  0
 18 34  1  0  0  0  0
 19 21  2  0  0  0  0
 19 39  1  0  0  0  0
 20 22  2  0  0  0  0
 20 40  1  0  0  0  0
 21 51  1  0  0  0  0
 22 41  1  0  0  0  0
 23 30  1  0  0  0  0
 23 61  1  0  0  0  0
 24 29  2  0  0  0  0
 24 67  1  0  0  0  0
 25 81  1  0  0  0  0
 26 82  1  0  0  0  0
 27 31  2  0  0  0  0
 27 81  1  0  0  0  0
 28 83  1  0  0  0  0
 29 84  1  0  0  0  0
 30 85  1  0  0  0  0
 31 86  1  0  0  0  0
 32 65  2  0  0  0  0
 33 66  1  0  0  0  0
 33 70  1  0  0  0  0
 34 71  1  0  0  0  0
 34 76  2  0  0  0  0
 35 52  1  0  0  0  0
 35 72  1  0  0  0  0
 35 77  2  0  0  0  0
 36 62  1  0  0  0  0
 36 68  1  0  0  0  0
 36 78  2  0  0  0  0
 37 63  1  0  0  0  0
 37 73  1  0  0  0  0
 37 79  2  0  0  0  0
 38 69  1  0  0  0  0
 38 74  1  0  0  0  0
 38 80  2  0  0  0  0
 39 42  1  0  0  0  0
 40 52  1  0  0  0  0
 41 68  1  0  0  0  0
 42 44  1  0  0  0  0
 43 45  1  0  0  0  0
 43 47  1  0  0  0  0
 44 51  1  0  0  0  0
 45 53  1  0  0  0  0
 46 48  1  0  0  0  0
 46 54  1  0  0  0  0
 47 69  1  0  0  0  0
 48 67  1  0  0  0  0
 49 53  1  0  0  0  0
 49 69  1  0  0  0  0
 50 54  1  0  0  0  0
 50 67  1  0  0  0  0
 51 72  1  0  0  0  0
 52 68  1  0  0  0  0
 53 66  1  0  0  0  0
 54 82  1  0  0  0  0
 55 63  1  0  0  0  0
 56 64  1  0  0  0  0
 57 64  1  0  0  0  0
 58 64  1  0  0  0  0
 59 74  1  0  0  0  0
 60 75  1  0  0  0  0
 61 74  1  0  0  0  0
 62 64  1  0  0  0  0
 62 73  1  0  0  0  0
 63 75  1  0  0  0  0
 65 66  1  0  0  0  0
M  CHG  1  75   1
M  ISO  4  38 100  54 101  74 100  82 101
M  END
> <Batch ID>
0021

> <Smiles>
CNC(C)C(=O)NC(C(=O)N1Cc2cc([101O:1][101CH:1]3CCN(c4cc(F)c(C[100N:0](C)[100C:0](=O)N5CCCC(n6nc(-c7ccc(Oc8ccc(F)cc8F)cc7)c(C(N)=O)c6N)C5)cc4F)C3)ccc2CC1C(=O)NC1CCCc2ccccc21)C(C)(C)C

> <Shape>
0.402

> <Color>
0.150

> <Negative vol penalty>
0.000

$$$$

  -OEChem-04042321113D

 85 94  0     1  0  0  0  0  0999 V2000
  -17.0990  -30.9966   23.7320 C   0  0  0  0  0  0  0  0  0  0  0  0
  -18.3637  -31.5410   23.9309 C   0  0  0  0  0  0  0  0  0  0  0  0
  -24.4697  -14.0580   20.1889 C   0  0  0  0  0  0  0  0  0  0  0  0
  -26.4378  -14.0683   21.5902 C   0  0  0  0  0  0  0  0  0  0  0  0
  -16.9661  -29.6507   23.3929 C   0  0  0  0  0  0  0  0  0  0  0  0
  -19.4963  -30.7395   23.7919 C   0  0  0  0  0  0  0  0  0  0  0  0
  -26.3411  -31.0611   21.7035 C   0  0  0  0  0  0  0  0  0  0  0  0
  -28.9875  -24.2566   24.5302 C   0  0  0  0  0  0  0  0  0  0  0  0
  -28.3403  -23.3956   23.6440 C   0  0  0  0  0  0  0  0  0  0  0  0
  -24.5452  -12.6685   20.0932 C   0  0  0  0  0  0  0  0  0  0  0  0
  -26.5132  -12.6788   21.4945 C   0  0  0  0  0  0  0  0  0  0  0  0
  -27.6209  -30.7401   22.1540 C   0  0  0  0  0  0  0  0  0  0  0  0
  -23.7500   -9.9933   22.0021 C   0  0  0  0  0  0  0  0  0  0  0  0
  -22.5697   -9.2675   22.1620 C   0  0  0  0  0  0  0  0  0  0  0  0
  -27.2739  -28.4478   21.4877 C   0  0  0  0  0  0  0  0  0  0  0  0
  -29.7645  -24.1692   21.8523 C   0  0  0  0  0  0  0  0  0  0  0  0
  -22.8265   -8.3596   19.9379 C   0  0  0  0  0  0  0  0  0  0  0  0
  -25.4161  -14.7580   20.9374 C   0  0  0  0  0  0  0  0  0  0  0  0
  -24.6454  -16.9428   22.0052 C   0  0  0  0  0  0  0  0  0  0  0  0
  -18.0981  -28.8347   23.2403 C   0  0  0  0  0  0  0  0  0  0  0  0
  -25.5127  -30.0739   21.1507 C   0  0  0  0  0  0  0  0  0  0  0  0
  -19.3783  -29.3812   23.4518 C   0  0  0  0  0  0  0  0  0  0  0  0
  -25.9850  -28.7594   21.0286 C   0  0  0  0  0  0  0  0  0  0  0  0
  -30.0232  -25.0740   24.0775 C   0  0  0  0  0  0  0  0  0  0  0  0
  -28.7288  -23.3519   22.3051 C   0  0  0  0  0  0  0  0  0  0  0  0
  -25.5669  -11.9789   20.7460 C   0  0  0  0  0  0  0  0  0  0  0  0
  -28.0864  -29.4327   22.0488 C   0  0  0  0  0  0  0  0  0  0  0  0
  -24.4686   -9.9024   20.8100 C   0  0  0  0  0  0  0  0  0  0  0  0
  -22.1080   -8.4506   21.1300 C   0  0  0  0  0  0  0  0  0  0  0  0
  -30.4117  -25.0302   22.7385 C   0  0  0  0  0  0  0  0  0  0  0  0
  -24.0069   -9.0855   19.7779 C   0  0  0  0  0  0  0  0  0  0  0  0
  -25.3390  -16.1934   21.0362 C   0  0  0  0  0  0  0  0  0  0  0  0
  -24.8835  -18.2513   21.6625 C   0  0  0  0  0  0  0  0  0  0  0  0
  -31.6725  -28.2130   24.3008 C   0  0  0  0  0  0  0  0  0  0  0  0
  -23.8564  -16.4960   23.1159 C   0  0  0  0  0  0  0  0  0  0  0  0
  -22.6943  -28.8218   21.9206 C   0  0  0  0  0  0  0  0  0  0  0  0
  -23.0391  -27.2870   19.0837 C   0  0  0  0  0  0  0  0  0  0  0  0
  -25.1363  -26.1156   16.6596 C   0  0  0  0  0  0  0  0  0  0  0  0
  -28.3320  -22.3126   20.0448 C   0  0  0  0  0  0  0  0  0  0  0  0
  -17.9021  -27.3742   22.9192 C   0  0  0  0  0  0  0  0  0  0  0  0
  -24.1448  -30.4419   20.6450 C   0  0  0  0  0  0  0  0  0  0  0  0
  -25.1425  -27.6669   20.4242 C   0  0  0  0  0  0  0  0  0  0  0  0
  -31.1070  -29.5938   24.0596 C   0  0  0  0  0  0  0  0  0  0  0  0
  -19.1705  -26.6838   22.4241 C   0  0  0  0  0  0  0  0  0  0  0  0
  -26.9590  -20.2399   17.4960 C   0  0  0  0  0  0  0  0  0  0  0  0
  -20.3556  -27.0419   23.3152 C   0  0  0  0  0  0  0  0  0  0  0  0
  -26.3581  -19.0640   18.2696 C   0  0  0  0  0  0  0  0  0  0  0  0
  -28.2595  -20.7304   18.1300 C   0  0  0  0  0  0  0  0  0  0  0  0
  -27.5703  -19.8730   20.3343 C   0  0  0  0  0  0  0  0  0  0  0  0
  -29.3347  -28.0717   24.6453 C   0  0  0  0  0  0  0  0  0  0  0  0
  -20.6320  -28.5500   23.2859 C   0  0  1  0  0  0  0  0  0  0  0  0
  -23.1948  -29.2505   20.5703 C   0  0  1  0  0  0  0  0  0  0  0  0
  -26.2252  -19.3861   19.7710 C   0  0  2  0  0  0  0  0  0  0  0  0
  -29.6138  -29.3438   23.8662 C   0  0  2  0  0  0  0  0  0  1  0  0
  -25.1280  -24.8707   14.4807 C   0  0  0  0  0  0  0  0  0  0  0  0
  -22.5576  -24.6729   20.5819 C   0  0  0  0  0  0  0  0  0  0  0  0
  -23.4860  -23.4497   18.6046 C   0  0  0  0  0  0  0  0  0  0  0  0
  -21.4204  -24.8266   18.3598 C   0  0  0  0  0  0  0  0  0  0  0  0
  -26.3406  -28.4013   15.2159 C   0  0  0  0  0  0  0  0  0  0  0  0
  -30.7185  -25.9979   25.0351 C   0  0  0  0  0  0  0  0  0  0  0  0
  -23.6524  -25.9799   18.6430 C   0  0  1  0  0  0  0  0  0  0  0  0
  -25.0951  -26.2373   15.1470 C   0  0  2  0  0  0  0  0  0  0  0  0
  -22.7945  -24.7522   19.0605 C   0  0  0  0  0  0  0  0  0  0  0  0
  -25.9704  -16.9619   20.1447 N   0  0  0  0  0  0  0  0  0  0  0  0
  -25.6743  -18.2079   20.5521 N   0  0  0  0  0  0  0  0  0  0  0  0
  -30.6059  -27.3826   24.6299 N   0  0  0  0  0  0  0  0  0  0  0  0
  -23.8099  -28.0753   19.9500 N   0  0  0  0  0  0  0  0  0  0  0  0
  -28.0563  -21.0199   19.5512 N   0  0  0  0  0  0  0  0  0  0  0  0
  -24.4915  -19.4234   22.2057 N   0  0  0  0  0  0  0  0  0  0  0  0
  -23.7150  -15.1171   23.3233 N   0  0  0  0  0  0  0  0  0  0  0  0
  -28.0700  -22.4786   21.4044 N   0  0  0  0  0  0  0  0  0  0  0  0
  -21.3234  -28.9135   22.0676 N   0  0  0  0  0  0  0  0  0  0  0  0
  -23.8701  -26.0954   17.2050 N   0  0  0  0  0  0  0  0  0  0  0  0
  -26.2613  -27.0264   14.6589 N   0  3  0  0  0  0  0  0  0  0  0  0
  -32.8610  -27.9323   24.2505 O   0  0  0  0  0  0  0  0  0  0  0  0
  -23.2799  -17.2957   23.8915 O   0  0  0  0  0  0  0  0  0  0  0  0
  -23.4926  -28.4349   22.7660 O   0  0  0  0  0  0  0  0  0  0  0  0
  -21.9206  -27.6006   18.6688 O   0  0  0  0  0  0  0  0  0  0  0  0
  -26.1867  -26.0418   17.2935 O   0  0  0  0  0  0  0  0  0  0  0  0
  -28.7424  -23.2142   19.3095 O   0  0  0  0  0  0  0  0  0  0  0  0
  -25.6406  -10.6230   20.6530 O   0  0  0  0  0  0  0  0  0  0  0  0
  -29.3348  -29.1165   22.4884 O   0  0  0  0  0  0  0  0  0  1  0  0
  -20.9753   -7.7525   21.2843 F   0  0  0  0  0  0  0  0  0  0  0  0
  -31.4058  -25.8117   22.2942 F   0  0  0  0  0  0  0  0  0  0  0  0
  -24.6935   -8.9932   18.6308 F   0  0  0  0  0  0  0  0  0  0  0  0
  1  2  1  0  0  0  0
  1  5  2  0  0  0  0
  2  6  2  0  0  0  0
  3 10  2  0  0  0  0
  3 18  1  0  0  0  0
  4 11  1  0  0  0  0
  4 18  2  0  0  0  0
  5 20  1  0  0  0  0
  6 22  1  0  0  0  0
  7 12  2  0  0  0  0
  7 21  1  0  0  0  0
  8  9  2  0  0  0  0
  8 24  1  0  0  0  0
  9 25  1  0  0  0  0
 10 26  1  0  0  0  0
 11 26  2  0  0  0  0
 12 27  1  0  0  0  0
 13 14  2  0  0  0  0
 13 28  1  0  0  0  0
 14 29  1  0  0  0  0
 15 23  1  0  0  0  0
 15 27  2  0  0  0  0
 16 25  2  0  0  0  0
 16 30  1  0  0  0  0
 17 29  2  0  0  0  0
 17 31  1  0  0  0  0
 18 32  1  0  0  0  0
 19 32  1  0  0  0  0
 19 33  2  0  0  0  0
 19 35  1  0  0  0  0
 20 22  2  0  0  0  0
 20 40  1  0  0  0  0
 21 23  2  0  0  0  0
 21 41  1  0  0  0  0
 22 51  1  0  0  0  0
 23 42  1  0  0  0  0
 24 30  2  0  0  0  0
 24 60  1  0  0  0  0
 25 71  1  0  0  0  0
 26 81  1  0  0  0  0
 27 82  1  0  0  0  0
 28 31  2  0  0  0  0
 28 81  1  0  0  0  0
 29 83  1  0  0  0  0
 30 84  1  0  0  0  0
 31 85  1  0  0  0  0
 32 64  2  0  0  0  0
 33 65  1  0  0  0  0
 33 69  1  0  0  0  0
 34 43  1  0  0  0  0
 34 66  1  0  0  0  0
 34 75  2  0  0  0  0
 35 70  1  0  0  0  0
 35 76  2  0  0  0  0
 36 52  1  0  0  0  0
 36 72  1  0  0  0  0
 36 77  2  0  0  0  0
 37 61  1  0  0  0  0
 37 67  1  0  0  0  0
 37 78  2  0  0  0  0
 38 62  1  0  0  0  0
 38 73  1  0  0  0  0
 38 79  2  0  0  0  0
 39 68  1  0  0  0  0
 39 71  1  0  0  0  0
 39 80  2  0  0  0  0
 40 44  1  0  0  0  0
 41 52  1  0  0  0  0
 42 67  1  0  0  0  0
 43 54  1  0  0  0  0
 44 46  1  0  0  0  0
 45 47  1  0  0  0  0
 45 48  1  0  0  0  0
 46 51  1  0  0  0  0
 47 53  1  0  0  0  0
 48 68  1  0  0  0  0
 49 53  1  0  0  0  0
 49 68  1  0  0  0  0
 50 54  1  0  0  0  0
 50 66  1  0  0  0  0
 51 72  1  0  0  0  0
 52 67  1  0  0  0  0
 53 65  1  0  0  0  0
 54 82  1  0  0  0  0
 55 62  1  0  0  0  0
 56 63  1  0  0  0  0
 57 63  1  0  0  0  0
 58 63  1  0  0  0  0
 59 74  1  0  0  0  0
 60 66  1  0  0  0  0
 61 63  1  0  0  0  0
 61 73  1  0  0  0  0
 62 74  1  0  0  0  0
 64 65  1  0  0  0  0
M  CHG  1  74   1
M  ISO  4  39 100  54 101  71 100  82 101
M  END
> <Batch ID>
0021

> <Smiles>
CNC(C)C(=O)NC(C(=O)N1Cc2cc([101O:1][101CH:1]3CC(=O)N(Cc4ccc([100NH:0][100C:0](=O)N5CCCC(n6nc(-c7ccc(Oc8ccc(F)cc8F)cc7)c(C(N)=O)c6N)C5)cc4F)C3)ccc2CC1C(=O)NC1CCCc2ccccc21)C(C)(C)C

> <Shape>
0.232

> <Color>
0.107

> <Negative vol penalty>
0.000

$$$$

  -OEChem-04042321113D

 90 98  0     1  0  0  0  0  0999 V2000
  -19.5057  -28.3318   15.3266 C   0  0  0  0  0  0  0  0  0  0  0  0
  -20.1529  -27.2000   15.8120 C   0  0  0  0  0  0  0  0  0  0  0  0
  -23.2851   -9.7970   19.9090 C   0  0  0  0  0  0  0  0  0  0  0  0
  -23.7202   -9.9391   22.2812 C   0  0  0  0  0  0  0  0  0  0  0  0
  -19.5068  -29.5086   16.0744 C   0  0  0  0  0  0  0  0  0  0  0  0
  -20.8025  -27.2446   17.0450 C   0  0  0  0  0  0  0  0  0  0  0  0
  -21.2629  -22.7051   21.1300 C   0  0  0  0  0  0  0  0  0  0  0  0
  -22.5528   -8.6276   20.1133 C   0  0  0  0  0  0  0  0  0  0  0  0
  -22.9878   -8.7697   22.4856 C   0  0  0  0  0  0  0  0  0  0  0  0
  -22.2783  -21.7902   21.4050 C   0  0  0  0  0  0  0  0  0  0  0  0
  -19.7358   -7.8716   22.6819 C   0  0  0  0  0  0  0  0  0  0  0  0
  -18.8261   -7.8549   23.7391 C   0  0  0  0  0  0  0  0  0  0  0  0
  -23.0788  -23.2200   23.1753 C   0  0  0  0  0  0  0  0  0  0  0  0
  -25.6193  -14.9138   24.3648 C   0  0  0  0  0  0  0  0  0  0  0  0
  -27.1486  -16.2174   25.7060 C   0  0  0  0  0  0  0  0  0  0  0  0
  -20.0178   -6.0044   24.7353 C   0  0  0  0  0  0  0  0  0  0  0  0
  -23.8689  -10.4528   20.9929 C   0  0  0  0  0  0  0  0  0  0  0  0
  -24.1395  -12.9815   20.7926 C   0  0  0  0  0  0  0  0  0  0  0  0
  -20.1485  -29.5648   17.3217 C   0  0  0  0  0  0  0  0  0  0  0  0
  -21.1542  -23.8915   21.8696 C   0  0  0  0  0  0  0  0  0  0  0  0
  -20.8133  -28.4236   17.8096 C   0  0  0  0  0  0  0  0  0  0  0  0
  -22.0596  -24.1471   22.9093 C   0  0  0  0  0  0  0  0  0  0  0  0
  -27.9397  -14.2611   24.5295 C   0  0  0  0  0  0  0  0  0  0  0  0
  -25.8654  -16.0003   25.2041 C   0  0  0  0  0  0  0  0  0  0  0  0
  -22.4041   -8.1140   21.4016 C   0  0  0  0  0  0  0  0  0  0  0  0
  -23.1882  -22.0489   22.4259 C   0  0  0  0  0  0  0  0  0  0  0  0
  -20.7865   -6.9547   22.6513 C   0  0  0  0  0  0  0  0  0  0  0  0
  -18.9671   -6.9214   24.7658 C   0  0  0  0  0  0  0  0  0  0  0  0
  -26.6565  -14.0441   24.0276 C   0  0  0  0  0  0  0  0  0  0  0  0
  -20.9275   -6.0211   23.6781 C   0  0  0  0  0  0  0  0  0  0  0  0
  -28.1858  -15.3477   25.3687 C   0  0  0  0  0  0  0  0  0  0  0  0
  -24.6260  -11.6605   20.7824 C   0  0  0  0  0  0  0  0  0  0  0  0
  -25.2457  -13.7567   20.5442 C   0  0  0  0  0  0  0  0  0  0  0  0
  -22.8068  -13.4646   21.0076 C   0  0  0  0  0  0  0  0  0  0  0  0
  -21.3185  -26.9894   21.1773 C   0  0  0  0  0  0  0  0  0  0  0  0
  -20.4464  -27.3314   24.2829 C   0  0  0  0  0  0  0  0  0  0  0  0
  -20.3360  -26.0024   27.4243 C   0  0  0  0  0  0  0  0  0  0  0  0
  -31.1484  -12.3520   21.3948 C   0  0  0  0  0  0  0  0  0  0  0  0
  -20.1631  -30.8729   18.0722 C   0  0  0  0  0  0  0  0  0  0  0  0
  -20.0371  -24.8556   21.5780 C   0  0  0  0  0  0  0  0  0  0  0  0
  -21.9740  -25.3965   23.7461 C   0  0  0  0  0  0  0  0  0  0  0  0
  -20.5549  -30.7284   19.5405 C   0  0  0  0  0  0  0  0  0  0  0  0
  -29.4902  -13.6522   18.3514 C   0  0  0  0  0  0  0  0  0  0  0  0
  -21.7863  -29.8389   19.6793 C   0  0  0  0  0  0  0  0  0  0  0  0
  -28.0193  -13.3306   18.6104 C   0  0  0  0  0  0  0  0  0  0  0  0
  -30.4186  -12.6694   19.0585 C   0  0  0  0  0  0  0  0  0  0  0  0
  -28.6989  -12.2298   20.7799 C   0  0  0  0  0  0  0  0  0  0  0  0
  -21.5079  -28.4254   19.1541 C   0  0  1  0  0  0  0  0  0  0  0  0
  -20.3319  -26.2740   22.0562 C   0  0  1  0  0  0  0  0  0  0  0  0
  -27.7374  -13.2292   20.1195 C   0  0  2  0  0  0  0  0  0  0  0  0
  -23.3155  -15.3042   26.6398 C   0  0  0  0  0  0  0  0  0  0  0  0
  -19.5974  -26.5335   29.7631 C   0  0  0  0  0  0  0  0  0  0  0  0
  -24.6525  -18.5401   27.2807 C   0  0  0  0  0  0  0  0  0  0  0  0
  -22.8725  -29.1481   24.6339 C   0  0  0  0  0  0  0  0  0  0  0  0
  -22.6331  -28.8728   27.1108 C   0  0  0  0  0  0  0  0  0  0  0  0
  -20.8019  -29.9373   25.7932 C   0  0  0  0  0  0  0  0  0  0  0  0
  -32.0514  -12.7007   23.6625 C   0  0  0  0  0  0  0  0  0  0  0  0
  -18.4359  -23.7338   27.4635 C   0  0  0  0  0  0  0  0  0  0  0  0
  -29.0257  -13.3074   24.1478 C   0  0  0  0  0  0  0  0  0  0  0  0
  -24.6906  -18.9008   23.3994 C   0  0  0  0  0  0  0  0  0  0  0  0
  -24.3096  -19.1660   24.8625 C   0  0  0  0  0  0  0  0  0  0  0  0
  -23.4482  -16.3821   25.6185 C   0  0  0  0  0  0  0  0  0  0  0  0
  -29.9523  -13.8438   23.0520 C   0  0  0  0  0  0  0  0  0  0  0  0
  -23.9078  -19.7822   22.4325 C   0  0  0  0  0  0  0  0  0  1  0  0
  -21.1852  -27.4462   25.5944 C   0  0  1  0  0  0  0  0  0  0  0  0
  -19.2088  -25.9007   28.4360 C   0  0  2  0  0  0  0  0  0  0  0  0
  -25.0764  -18.2657   25.8412 C   0  0  2  0  0  0  0  0  0  0  0  0
  -21.8762  -28.8284   25.7662 C   0  0  0  0  0  0  0  0  0  0  0  0
  -25.9390  -11.5964   20.5459 N   0  0  0  0  0  0  0  0  0  0  0  0
  -26.2869  -12.8868   20.4053 N   0  0  0  0  0  0  0  0  0  0  0  0
  -20.8680  -26.3113   23.4183 N   0  0  0  0  0  0  0  0  0  0  0  0
  -30.1008  -12.5600   20.4826 N   0  0  0  0  0  0  0  0  0  0  0  0
  -25.4196  -15.0908   20.4331 N   0  0  0  0  0  0  0  0  0  0  0  0
  -21.7889  -12.5319   21.2494 N   0  0  0  0  0  0  0  0  0  0  0  0
  -20.7418  -27.6687   20.1211 N   0  0  0  0  0  0  0  0  0  0  0  0
  -20.2164  -27.1287   26.6378 N   0  0  0  0  0  0  0  0  0  0  0  0
  -24.8236  -16.8712   25.5436 N   0  0  3  0  0  0  0  0  0  0  0  0
  -30.9877  -12.8803   22.6846 N   0  0  0  0  0  0  0  0  0  0  0  0
  -18.8596  -24.4727   28.6806 N   0  3  0  0  0  0  0  0  0  0  0  0
  -22.5239  -14.6861   20.9697 O   0  0  0  0  0  0  0  0  0  0  0  0
  -22.5142  -26.9309   21.4389 O   0  0  0  0  0  0  0  0  0  0  0  0
  -19.5243  -28.1132   24.0378 O   0  0  0  0  0  0  0  0  0  0  0  0
  -21.2350  -25.1683   27.3426 O   0  0  0  0  0  0  0  0  0  0  0  0
  -32.1733  -11.7379   21.0716 O   0  0  0  0  0  0  0  0  0  0  0  0
  -21.6893   -6.9730   21.6014 O   0  0  0  0  0  0  0  0  0  0  0  0
  -24.1806  -21.1579   22.6960 O   0  0  0  0  0  0  0  0  0  1  0  0
  -18.0943   -6.9065   25.7818 F   0  0  0  0  0  0  0  0  0  0  0  0
  -26.4085  -13.0016   23.2222 F   0  0  0  0  0  0  0  0  0  0  0  0
  -21.9356   -5.1385   23.6548 F   0  0  0  0  0  0  0  0  0  0  0  0
  -29.7605  -15.6483   26.0087 Cl  0  0  0  0  0  0  0  0  0  0  0  0
  1  2  1  0  0  0  0
  1  5  2  0  0  0  0
  2  6  2  0  0  0  0
  3  8  2  0  0  0  0
  3 17  1  0  0  0  0
  4  9  1  0  0  0  0
  4 17  2  0  0  0  0
  5 19  1  0  0  0  0
  6 21  1  0  0  0  0
  7 10  2  0  0  0  0
  7 20  1  0  0  0  0
  8 25  1  0  0  0  0
  9 25  2  0  0  0  0
 10 26  1  0  0  0  0
 11 12  2  0  0  0  0
 11 27  1  0  0  0  0
 12 28  1  0  0  0  0
 13 22  1  0  0  0  0
 13 26  2  0  0  0  0
 14 24  1  0  0  0  0
 14 29  2  0  0  0  0
 15 24  2  0  0  0  0
 15 31  1  0  0  0  0
 16 28  2  0  0  0  0
 16 30  1  0  0  0  0
 17 32  1  0  0  0  0
 18 32  1  0  0  0  0
 18 33  2  0  0  0  0
 18 34  1  0  0  0  0
 19 21  2  0  0  0  0
 19 39  1  0  0  0  0
 20 22  2  0  0  0  0
 20 40  1  0  0  0  0
 21 48  1  0  0  0  0
 22 41  1  0  0  0  0
 23 29  1  0  0  0  0
 23 31  2  0  0  0  0
 23 59  1  0  0  0  0
 24 77  1  0  0  0  0
 25 85  1  0  0  0  0
 26 86  1  0  0  0  0
 27 30  2  0  0  0  0
 27 85  1  0  0  0  0
 28 87  1  0  0  0  0
 29 88  1  0  0  0  0
 30 89  1  0  0  0  0
 31 90  1  0  0  0  0
 32 69  2  0  0  0  0
 33 70  1  0  0  0  0
 33 73  1  0  0  0  0
 34 74  1  0  0  0  0
 34 80  2  0  0  0  0
 35 49  1  0  0  0  0
 35 75  1  0  0  0  0
 35 81  2  0  0  0  0
 36 65  1  0  0  0  0
 36 71  1  0  0  0  0
 36 82  2  0  0  0  0
 37 66  1  0  0  0  0
 37 76  1  0  0  0  0
 37 83  2  0  0  0  0
 38 72  1  0  0  0  0
 38 78  1  0  0  0  0
 38 84  2  0  0  0  0
 39 42  1  0  0  0  0
 40 49  1  0  0  0  0
 41 71  1  0  0  0  0
 42 44  1  0  0  0  0
 43 45  1  0  0  0  0
 43 46  1  0  0  0  0
 44 48  1  0  0  0  0
 45 50  1  0  0  0  0
 46 72  1  0  0  0  0
 47 50  1  0  0  0  0
 47 72  1  0  0  0  0
 48 75  1  0  0  0  0
 49 71  1  0  0  0  0
 50 70  1  0  0  0  0
 51 62  1  0  0  0  0
 52 66  1  0  0  0  0
 53 67  1  0  0  0  0
 54 68  1  0  0  0  0
 55 68  1  0  0  0  0
 56 68  1  0  0  0  0
 57 78  1  0  0  0  0
 58 79  1  0  0  0  0
 59 63  1  0  0  0  0
 60 61  1  0  0  0  0
 60 64  1  0  0  0  0
 61 67  1  0  0  0  0
 62 77  1  0  0  0  0
 63 78  1  0  0  0  0
 64 86  1  0  0  0  0
 65 68  1  0  0  0  0
 65 76  1  0  0  0  0
 66 79  1  0  0  0  0
 67 77  1  0  0  0  0
 69 70  1  0  0  0  0
M  CHG  1  79   1
M  ISO  4  38 100  64 101  78 100  86 101
M  END
> <Batch ID>
0021

> <Smiles>
CCN(c1cc(F)c(CC[100N:0](C)[100C:0](=O)N2CCCC(n3nc(-c4ccc(Oc5ccc(F)cc5F)cc4)c(C(N)=O)c3N)C2)c(Cl)c1)C(C)CC[101CH2:1][101O:1]c1ccc2c(c1)CN(C(=O)C(NC(=O)C(C)NC)C(C)(C)C)C(C(=O)NC1CCCc3ccccc31)C2

> <Shape>
0.173

> <Color>
0.185

> <Negative vol penalty>
0.000

$$$$

  -OEChem-04042321113D

 85 93  0     1  0  0  0  0  0999 V2000
  -20.2918  -30.4630   24.7795 C   0  0  0  0  0  0  0  0  0  0  0  0
  -21.5670  -29.9775   24.5083 C   0  0  0  0  0  0  0  0  0  0  0  0
  -26.1007  -17.8327   20.2745 C   0  0  0  0  0  0  0  0  0  0  0  0
  -27.4096  -18.0605   22.2924 C   0  0  0  0  0  0  0  0  0  0  0  0
  -19.1763  -29.8368   24.2251 C   0  0  0  0  0  0  0  0  0  0  0  0
  -21.7274  -28.8649   23.6833 C   0  0  0  0  0  0  0  0  0  0  0  0
  -25.4398  -29.4783   20.2940 C   0  0  0  0  0  0  0  0  0  0  0  0
  -32.9311  -24.5728   21.2162 C   0  0  0  0  0  0  0  0  0  0  0  0
  -32.3766  -25.7222   20.6532 C   0  0  0  0  0  0  0  0  0  0  0  0
  -25.6056  -16.6121   20.7333 C   0  0  0  0  0  0  0  0  0  0  0  0
  -26.9145  -16.8398   22.7513 C   0  0  0  0  0  0  0  0  0  0  0  0
  -26.7486  -29.3214   20.7479 C   0  0  0  0  0  0  0  0  0  0  0  0
  -26.6713  -13.4111   20.9380 C   0  0  0  0  0  0  0  0  0  0  0  0
  -26.6349  -12.3473   20.0366 C   0  0  0  0  0  0  0  0  0  0  0  0
  -26.7899  -27.0876   19.8383 C   0  0  0  0  0  0  0  0  0  0  0  0
  -34.5292  -26.3055   19.7240 C   0  0  0  0  0  0  0  0  0  0  0  0
  -24.2391  -12.1973   20.3104 C   0  0  0  0  0  0  0  0  0  0  0  0
  -27.0027  -18.5569   21.0540 C   0  0  0  0  0  0  0  0  0  0  0  0
  -26.9622  -21.0944   20.7950 C   0  0  0  0  0  0  0  0  0  0  0  0
  -19.3236  -28.7217   23.3851 C   0  0  0  0  0  0  0  0  0  0  0  0
  -24.7912  -28.4353   19.6173 C   0  0  0  0  0  0  0  0  0  0  0  0
  -20.6127  -28.2223   23.1182 C   0  0  0  0  0  0  0  0  0  0  0  0
  -25.4736  -27.2347   19.3746 C   0  0  0  0  0  0  0  0  0  0  0  0
  -34.2846  -24.2898   21.0332 C   0  0  0  0  0  0  0  0  0  0  0  0
  -33.1756  -26.5886   19.9071 C   0  0  0  0  0  0  0  0  0  0  0  0
  -26.0125  -16.1157   21.9717 C   0  0  0  0  0  0  0  0  0  0  0  0
  -27.4229  -28.1249   20.5226 C   0  0  0  0  0  0  0  0  0  0  0  0
  -25.4917  -13.8680   21.5257 C   0  0  0  0  0  0  0  0  0  0  0  0
  -25.4188  -11.7404   19.7227 C   0  0  0  0  0  0  0  0  0  0  0  0
  -24.2756  -13.2611   21.2119 C   0  0  0  0  0  0  0  0  0  0  0  0
  -35.0837  -25.1561   20.2871 C   0  0  0  0  0  0  0  0  0  0  0  0
  -27.5149  -19.8176   20.5803 C   0  0  0  0  0  0  0  0  0  0  0  0
  -27.8161  -21.9519   20.1453 C   0  0  0  0  0  0  0  0  0  0  0  0
  -25.7824  -21.4716   21.5172 C   0  0  0  0  0  0  0  0  0  0  0  0
  -22.2053  -26.6705   20.1672 C   0  0  0  0  0  0  0  0  0  0  0  0
  -22.8343  -25.5234   17.1989 C   0  0  0  0  0  0  0  0  0  0  0  0
  -25.1270  -24.9709   14.7321 C   0  0  0  0  0  0  0  0  0  0  0  0
  -33.6020  -21.5871   18.6485 C   0  0  0  0  0  0  0  0  0  0  0  0
  -18.0853  -28.0495   22.8470 C   0  0  0  0  0  0  0  0  0  0  0  0
  -23.3885  -28.6301   19.1106 C   0  0  0  0  0  0  0  0  0  0  0  0
  -24.8291  -26.0917   18.6352 C   0  0  0  0  0  0  0  0  0  0  0  0
  -18.3634  -27.1036   21.6816 C   0  0  0  0  0  0  0  0  0  0  0  0
  -30.8525  -22.1277   16.4521 C   0  0  0  0  0  0  0  0  0  0  0  0
  -19.5555  -26.2053   21.9958 C   0  0  0  0  0  0  0  0  0  0  0  0
  -29.6355  -21.7122   17.2804 C   0  0  0  0  0  0  0  0  0  0  0  0
  -32.0611  -21.2399   16.7403 C   0  0  0  0  0  0  0  0  0  0  0  0
  -31.2095  -20.7192   18.9936 C   0  0  0  0  0  0  0  0  0  0  0  0
  -20.8290  -27.0328   22.2081 C   0  0  1  0  0  0  0  0  0  0  0  0
  -22.6471  -27.3161   18.8843 C   0  0  1  0  0  0  0  0  0  0  0  0
  -29.9817  -21.6206   18.7787 C   0  0  2  0  0  0  0  0  0  0  0  0
  -25.3514  -23.9809   12.4371 C   0  0  0  0  0  0  0  0  0  0  0  0
  -22.7664  -22.7209   18.4038 C   0  0  0  0  0  0  0  0  0  0  0  0
  -23.9087  -21.8816   16.3401 C   0  0  0  0  0  0  0  0  0  0  0  0
  -21.6492  -22.9259   16.1757 C   0  0  0  0  0  0  0  0  0  0  0  0
  -33.4577  -28.6524   18.5576 C   0  0  0  0  0  0  0  0  0  0  0  0
  -25.9607  -27.5617   13.5696 C   0  0  0  0  0  0  0  0  0  0  0  0
  -34.8403  -23.0489   21.6540 C   0  0  0  0  0  0  0  0  0  0  0  0
  -30.9679  -28.7437   20.8367 C   0  0  0  0  0  0  0  0  0  0  0  0
  -35.0221  -21.8972   20.6601 C   0  0  0  0  0  0  0  0  0  0  0  0
  -31.2189  -28.0597   19.4982 C   0  0  0  0  0  0  0  0  0  0  0  0
  -29.5103  -29.1414   21.0376 C   0  0  0  0  0  0  0  0  0  1  0  0
  -23.6587  -24.3867   16.6445 C   0  0  1  0  0  0  0  0  0  0  0  0
  -25.0866  -25.2453   13.2396 C   0  0  2  0  0  0  0  0  0  0  0  0
  -23.0075  -22.9994   16.9067 C   0  0  0  0  0  0  0  0  0  0  0  0
  -28.6333  -19.8559   19.8511 N   0  0  0  0  0  0  0  0  0  0  0  0
  -28.7902  -21.1671   19.6019 N   0  0  0  0  0  0  0  0  0  0  0  0
  -23.4542  -26.3284   18.1651 N   0  0  0  0  0  0  0  0  0  0  0  0
  -32.3372  -21.1971   18.1783 N   0  0  0  0  0  0  0  0  0  0  0  0
  -27.8211  -23.2931   19.9915 N   0  0  0  0  0  0  0  0  0  0  0  0
  -25.0201  -20.4644   22.1244 N   0  0  0  0  0  0  0  0  0  0  0  0
  -21.3719  -27.4600   20.9364 N   0  0  0  0  0  0  0  0  0  0  0  0
  -23.8739  -24.6888   15.2336 N   0  0  0  0  0  0  0  0  0  0  0  0
  -33.7781  -21.5226   20.0253 N   0  0  0  0  0  0  0  0  0  0  0  0
  -32.6180  -27.7438   19.3406 N   0  0  3  0  0  0  0  0  0  0  0  0
  -26.1146  -26.2595   12.8714 N   0  3  0  0  0  0  0  0  0  0  0  0
  -25.4061  -22.6649   21.6070 O   0  0  0  0  0  0  0  0  0  0  0  0
  -22.5908  -25.5393   20.4384 O   0  0  0  0  0  0  0  0  0  0  0  0
  -21.6852  -25.6951   16.7845 O   0  0  0  0  0  0  0  0  0  0  0  0
  -26.1667  -24.9999   15.3868 O   0  0  0  0  0  0  0  0  0  0  0  0
  -34.5056  -21.9698   17.8975 O   0  0  0  0  0  0  0  0  0  0  0  0
  -25.5295  -14.9247   22.4199 O   0  0  0  0  0  0  0  0  0  0  0  0
  -28.7003  -27.9688   20.9652 O   0  0  0  0  0  0  0  0  0  1  0  0
  -25.3837  -10.7199   18.8559 F   0  0  0  0  0  0  0  0  0  0  0  0
  -23.1389  -13.6965   21.7724 F   0  0  0  0  0  0  0  0  0  0  0  0
  -36.7624  -24.8387   20.0413 Cl  0  0  0  0  0  0  0  0  0  0  0  0
  1  2  1  0  0  0  0
  1  5  2  0  0  0  0
  2  6  2  0  0  0  0
  3 10  2  0  0  0  0
  3 18  1  0  0  0  0
  4 11  1  0  0  0  0
  4 18  2  0  0  0  0
  5 20  1  0  0  0  0
  6 22  1  0  0  0  0
  7 12  2  0  0  0  0
  7 21  1  0  0  0  0
  8  9  2  0  0  0  0
  8 24  1  0  0  0  0
  9 25  1  0  0  0  0
 10 26  1  0  0  0  0
 11 26  2  0  0  0  0
 12 27  1  0  0  0  0
 13 14  2  0  0  0  0
 13 28  1  0  0  0  0
 14 29  1  0  0  0  0
 15 23  1  0  0  0  0
 15 27  2  0  0  0  0
 16 25  2  0  0  0  0
 16 31  1  0  0  0  0
 17 29  2  0  0  0  0
 17 30  1  0  0  0  0
 18 32  1  0  0  0  0
 19 32  1  0  0  0  0
 19 33  2  0  0  0  0
 19 34  1  0  0  0  0
 20 22  2  0  0  0  0
 20 39  1  0  0  0  0
 21 23  2  0  0  0  0
 21 40  1  0  0  0  0
 22 48  1  0  0  0  0
 23 41  1  0  0  0  0
 24 31  2  0  0  0  0
 24 57  1  0  0  0  0
 25 74  1  0  0  0  0
 26 81  1  0  0  0  0
 27 82  1  0  0  0  0
 28 30  2  0  0  0  0
 28 81  1  0  0  0  0
 29 83  1  0  0  0  0
 30 84  1  0  0  0  0
 31 85  1  0  0  0  0
 32 65  2  0  0  0  0
 33 66  1  0  0  0  0
 33 69  1  0  0  0  0
 34 70  1  0  0  0  0
 34 76  2  0  0  0  0
 35 49  1  0  0  0  0
 35 71  1  0  0  0  0
 35 77  2  0  0  0  0
 36 62  1  0  0  0  0
 36 67  1  0  0  0  0
 36 78  2  0  0  0  0
 37 63  1  0  0  0  0
 37 72  1  0  0  0  0
 37 79  2  0  0  0  0
 38 68  1  0  0  0  0
 38 73  1  0  0  0  0
 38 80  2  0  0  0  0
 39 42  1  0  0  0  0
 40 49  1  0  0  0  0
 41 67  1  0  0  0  0
 42 44  1  0  0  0  0
 43 45  1  0  0  0  0
 43 46  1  0  0  0  0
 44 48  1  0  0  0  0
 45 50  1  0  0  0  0
 46 68  1  0  0  0  0
 47 50  1  0  0  0  0
 47 68  1  0  0  0  0
 48 71  1  0  0  0  0
 49 67  1  0  0  0  0
 50 66  1  0  0  0  0
 51 63  1  0  0  0  0
 52 64  1  0  0  0  0
 53 64  1  0  0  0  0
 54 64  1  0  0  0  0
 55 74  1  0  0  0  0
 56 75  1  0  0  0  0
 57 59  1  0  0  0  0
 58 60  1  0  0  0  0
 58 61  1  0  0  0  0
 59 73  1  0  0  0  0
 60 74  1  0  0  0  0
 61 82  1  0  0  0  0
 62 64  1  0  0  0  0
 62 72  1  0  0  0  0
 63 75  1  0  0  0  0
 65 66  1  0  0  0  0
M  CHG  1  75   1
M  ISO  4  38 100  61 101  73 100  82 101
M  END
> <Batch ID>
0021

> <Smiles>
CNC(C)C(=O)NC(C(=O)N1Cc2cc([101O:1][101CH2:1]CCN(C)c3ccc(CC[100NH:0][100C:0](=O)N4CCCC(n5nc(-c6ccc(Oc7ccc(F)cc7F)cc6)c(C(N)=O)c5N)C4)c(Cl)c3)ccc2CC1C(=O)NC1CCCc2ccccc21)C(C)(C)C

> <Shape>
0.196

> <Color>
0.069

> <Negative vol penalty>
0.000

$$$$

  -OEChem-04042321113D

 84 93  0     1  0  0  0  0  0999 V2000
  -28.3797  -23.8653   18.9948 C   0  0  0  0  0  0  0  0  0  0  0  0
  -27.1344  -24.2538   19.4783 C   0  0  0  0  0  0  0  0  0  0  0  0
  -27.8208  -15.8892   21.9131 C   0  0  0  0  0  0  0  0  0  0  0  0
  -25.9802  -16.4672   20.4587 C   0  0  0  0  0  0  0  0  0  0  0  0
  -29.5401  -24.4087   19.5444 C   0  0  0  0  0  0  0  0  0  0  0  0
  -27.0489  -25.1852   20.5125 C   0  0  0  0  0  0  0  0  0  0  0  0
  -23.5189  -28.7150   19.6613 C   0  0  0  0  0  0  0  0  0  0  0  0
  -20.4757  -25.0625   23.7932 C   0  0  0  0  0  0  0  0  0  0  0  0
  -21.2414  -24.0362   24.3465 C   0  0  0  0  0  0  0  0  0  0  0  0
  -27.7456  -14.5648   21.4820 C   0  0  0  0  0  0  0  0  0  0  0  0
  -25.9050  -15.1428   20.0275 C   0  0  0  0  0  0  0  0  0  0  0  0
  -22.1909  -28.3546   19.8858 C   0  0  0  0  0  0  0  0  0  0  0  0
  -28.7172  -12.7620   18.7915 C   0  0  0  0  0  0  0  0  0  0  0  0
  -29.9112  -12.1155   18.4718 C   0  0  0  0  0  0  0  0  0  0  0  0
  -22.2574  -29.4657   22.0259 C   0  0  0  0  0  0  0  0  0  0  0  0
  -20.0702  -23.7049   21.8363 C   0  0  0  0  0  0  0  0  0  0  0  0
  -29.4698  -10.4586   20.1739 C   0  0  0  0  0  0  0  0  0  0  0  0
  -26.9380  -16.8404   21.4015 C   0  0  0  0  0  0  0  0  0  0  0  0
  -27.7847  -19.2439   21.2837 C   0  0  0  0  0  0  0  0  0  0  0  0
  -29.4685  -25.3544   20.5794 C   0  0  0  0  0  0  0  0  0  0  0  0
  -24.2306  -29.4453   20.6238 C   0  0  0  0  0  0  0  0  0  0  0  0
  -28.2095  -25.7407   21.0774 C   0  0  0  0  0  0  0  0  0  0  0  0
  -23.5935  -29.8364   21.8101 C   0  0  0  0  0  0  0  0  0  0  0  0
  -19.8901  -24.8968   22.5381 C   0  0  0  0  0  0  0  0  0  0  0  0
  -21.4216  -22.8443   23.6447 C   0  0  0  0  0  0  0  0  0  0  0  0
  -26.7877  -14.1916   20.5392 C   0  0  0  0  0  0  0  0  0  0  0  0
  -21.5608  -28.7274   21.0694 C   0  0  0  0  0  0  0  0  0  0  0  0
  -27.8996  -12.2568   19.8024 C   0  0  0  0  0  0  0  0  0  0  0  0
  -30.2874  -10.9639   19.1630 C   0  0  0  0  0  0  0  0  0  0  0  0
  -28.2758  -11.1052   20.4936 C   0  0  0  0  0  0  0  0  0  0  0  0
  -20.8360  -22.6787   22.3895 C   0  0  0  0  0  0  0  0  0  0  0  0
  -27.0149  -18.2085   21.8469 C   0  0  0  0  0  0  0  0  0  0  0  0
  -27.5104  -20.3397   22.0650 C   0  0  0  0  0  0  0  0  0  0  0  0
  -28.6687  -19.2175   20.1552 C   0  0  0  0  0  0  0  0  0  0  0  0
  -26.8252  -28.9093   22.3801 C   0  0  0  0  0  0  0  0  0  0  0  0
  -26.3935  -32.0017   23.2590 C   0  0  0  0  0  0  0  0  0  0  0  0
  -24.2580  -34.6384   23.6258 C   0  0  0  0  0  0  0  0  0  0  0  0
  -22.8437  -21.8569   25.4746 C   0  0  0  0  0  0  0  0  0  0  0  0
  -30.7516  -25.8785   21.1739 C   0  0  0  0  0  0  0  0  0  0  0  0
  -25.6543  -29.8493   20.3549 C   0  0  0  0  0  0  0  0  0  0  0  0
  -24.3072  -30.6384   22.8664 C   0  0  0  0  0  0  0  0  0  0  0  0
  -30.5636  -27.1398   22.0129 C   0  0  0  0  0  0  0  0  0  0  0  0
  -26.2313  -21.5350   26.5225 C   0  0  0  0  0  0  0  0  0  0  0  0
  -17.7974  -27.1527   20.4768 C   0  0  0  0  0  0  0  0  0  0  0  0
  -29.3788  -26.9793   22.9601 C   0  0  0  0  0  0  0  0  0  0  0  0
  -26.8881  -20.7449   25.3883 C   0  0  0  0  0  0  0  0  0  0  0  0
  -17.5171  -27.6244   21.8949 C   0  0  0  0  0  0  0  0  0  0  0  0
  -18.4895  -25.8084   20.6786 C   0  0  0  0  0  0  0  0  0  0  0  0
  -24.8012  -21.0668   26.7858 C   0  0  0  0  0  0  0  0  0  0  0  0
  -24.5854  -20.2524   24.4707 C   0  0  0  0  0  0  0  0  0  0  0  0
  -28.0749  -26.7669   22.1815 C   0  0  1  0  0  0  0  0  0  0  0  0
  -26.4402  -30.1513   21.6272 C   0  0  1  0  0  0  0  0  0  0  0  0
  -26.0047  -20.7320   24.1254 C   0  0  2  0  0  0  0  0  0  0  0  0
  -18.7406  -27.1449   22.6884 C   0  0  2  0  0  0  0  0  0  0  0  0
  -24.1883  -37.0235   24.4027 C   0  0  0  0  0  0  0  0  0  0  0  0
  -26.4642  -31.0565   26.1593 C   0  0  0  0  0  0  0  0  0  0  0  0
  -25.4615  -33.2516   26.8261 C   0  0  0  0  0  0  0  0  0  0  0  0
  -27.6995  -33.1874   25.7262 C   0  0  0  0  0  0  0  0  0  0  0  0
  -23.4259  -35.6056   20.9554 C   0  0  0  0  0  0  0  0  0  0  0  0
  -19.8701  -28.1733   22.6475 C   0  0  0  0  0  0  0  0  0  1  0  0
  -25.6305  -32.7050   24.3555 C   0  0  1  0  0  0  0  0  0  0  0  0
  -24.3754  -36.0946   23.2133 C   0  0  2  0  0  0  0  0  0  0  0  0
  -26.3008  -32.5333   25.7479 C   0  0  0  0  0  0  0  0  0  0  0  0
  -26.3049  -18.6106   22.9044 N   0  0  0  0  0  0  0  0  0  0  0  0
  -26.6275  -19.9107   23.0120 N   0  0  0  0  0  0  0  0  0  0  0  0
  -19.1322  -25.9145   21.9900 N   0  0  3  0  0  0  0  0  0  0  0  0
  -25.7001  -31.0037   22.5598 N   0  0  0  0  0  0  0  0  0  0  0  0
  -24.0225  -21.0848   25.5455 N   0  0  0  0  0  0  0  0  0  0  0  0
  -27.9407  -21.6187   22.0276 N   0  0  0  0  0  0  0  0  0  0  0  0
  -28.8354  -18.0090   19.4652 N   0  0  0  0  0  0  0  0  0  0  0  0
  -22.2055  -21.8224   24.2353 N   0  0  0  0  0  0  0  0  0  0  0  0
  -27.5938  -28.0237   21.6490 N   0  0  0  0  0  0  0  0  0  0  0  0
  -25.4876  -34.0925   23.9281 N   0  0  0  0  0  0  0  0  0  0  0  0
  -23.3444  -36.4278   22.1900 N   0  3  0  0  0  0  0  0  0  0  0  0
  -29.3049  -20.2315   19.7801 O   0  0  0  0  0  0  0  0  0  0  0  0
  -26.4537  -28.7657   23.5390 O   0  0  0  0  0  0  0  0  0  0  0  0
  -27.5594  -32.3308   23.0267 O   0  0  0  0  0  0  0  0  0  0  0  0
  -23.1827  -34.0456   23.6784 O   0  0  0  0  0  0  0  0  0  0  0  0
  -22.4456  -22.5230   26.4337 O   0  0  0  0  0  0  0  0  0  0  0  0
  -26.7142  -12.8993   20.1181 O   0  0  0  0  0  0  0  0  0  0  0  0
  -20.2649  -28.3764   21.2913 O   0  0  0  0  0  0  0  0  0  1  0  0
  -31.4332  -10.3423   18.8548 F   0  0  0  0  0  0  0  0  0  0  0  0
  -27.4939  -10.6145   21.4649 F   0  0  0  0  0  0  0  0  0  0  0  0
  -21.0341  -21.2191   21.4862 Cl  0  0  0  0  0  0  0  0  0  0  0  0
  1  2  1  0  0  0  0
  1  5  2  0  0  0  0
  2  6  2  0  0  0  0
  3 10  2  0  0  0  0
  3 18  1  0  0  0  0
  4 11  1  0  0  0  0
  4 18  2  0  0  0  0
  5 20  1  0  0  0  0
  6 22  1  0  0  0  0
  7 12  2  0  0  0  0
  7 21  1  0  0  0  0
  8  9  2  0  0  0  0
  8 24  1  0  0  0  0
  9 25  1  0  0  0  0
 10 26  1  0  0  0  0
 11 26  2  0  0  0  0
 12 27  1  0  0  0  0
 13 14  2  0  0  0  0
 13 28  1  0  0  0  0
 14 29  1  0  0  0  0
 15 23  1  0  0  0  0
 15 27  2  0  0  0  0
 16 24  2  0  0  0  0
 16 31  1  0  0  0  0
 17 29  2  0  0  0  0
 17 30  1  0  0  0  0
 18 32  1  0  0  0  0
 19 32  1  0  0  0  0
 19 33  2  0  0  0  0
 19 34  1  0  0  0  0
 20 22  2  0  0  0  0
 20 39  1  0  0  0  0
 21 23  2  0  0  0  0
 21 40  1  0  0  0  0
 22 51  1  0  0  0  0
 23 41  1  0  0  0  0
 24 66  1  0  0  0  0
 25 31  2  0  0  0  0
 25 71  1  0  0  0  0
 26 80  1  0  0  0  0
 27 81  1  0  0  0  0
 28 30  2  0  0  0  0
 28 80  1  0  0  0  0
 29 82  1  0  0  0  0
 30 83  1  0  0  0  0
 31 84  1  0  0  0  0
 32 64  2  0  0  0  0
 33 65  1  0  0  0  0
 33 69  1  0  0  0  0
 34 70  1  0  0  0  0
 34 75  2  0  0  0  0
 35 52  1  0  0  0  0
 35 72  1  0  0  0  0
 35 76  2  0  0  0  0
 36 61  1  0  0  0  0
 36 67  1  0  0  0  0
 36 77  2  0  0  0  0
 37 62  1  0  0  0  0
 37 73  1  0  0  0  0
 37 78  2  0  0  0  0
 38 68  1  0  0  0  0
 38 71  1  0  0  0  0
 38 79  2  0  0  0  0
 39 42  1  0  0  0  0
 40 52  1  0  0  0  0
 41 67  1  0  0  0  0
 42 45  1  0  0  0  0
 43 46  1  0  0  0  0
 43 49  1  0  0  0  0
 44 47  1  0  0  0  0
 44 48  1  0  0  0  0
 45 51  1  0  0  0  0
 46 53  1  0  0  0  0
 47 54  1  0  0  0  0
 48 66  1  0  0  0  0
 49 68  1  0  0  0  0
 50 53  1  0  0  0  0
 50 68  1  0  0  0  0
 51 72  1  0  0  0  0
 52 67  1  0  0  0  0
 53 65  1  0  0  0  0
 54 60  1  0  0  0  0
 54 66  1  0  0  0  0
 55 62  1  0  0  0  0
 56 63  1  0  0  0  0
 57 63  1  0  0  0  0
 58 63  1  0  0  0  0
 59 74  1  0  0  0  0
 60 81  1  0  0  0  0
 61 63  1  0  0  0  0
 61 73  1  0  0  0  0
 62 74  1  0  0  0  0
 64 65  1  0  0  0  0
M  CHG  1  74   1
M  ISO  4  38 100  60 101  71 100  81 101
M  END
> <Batch ID>
0021

> <Smiles>
CNC(C)C(=O)NC(C(=O)N1Cc2cc([101O:1][101CH2:1]C3CCCN3c3ccc([100NH:0][100C:0](=O)N4CCCC(n5nc(-c6ccc(Oc7ccc(F)cc7F)cc6)c(C(N)=O)c5N)C4)c(Cl)c3)ccc2CC1C(=O)NC1CCCc2ccccc21)C(C)(C)C

> <Shape>
0.296

> <Color>
0.059

> <Negative vol penalty>
0.000

$$$$

  -OEChem-04042321113D

 91 99  0     1  0  0  0  0  0999 V2000
  -18.9235  -25.7509   31.7806 C   0  0  0  0  0  0  0  0  0  0  0  0
  -19.9008  -25.0256   31.1067 C   0  0  0  0  0  0  0  0  0  0  0  0
  -23.0846   -9.9295   21.4996 C   0  0  0  0  0  0  0  0  0  0  0  0
  -23.9906  -10.8151   23.5567 C   0  0  0  0  0  0  0  0  0  0  0  0
  -18.1083  -26.6387   31.0797 C   0  0  0  0  0  0  0  0  0  0  0  0
  -20.0629  -25.1869   29.7311 C   0  0  0  0  0  0  0  0  0  0  0  0
  -24.9263  -25.6082   28.3841 C   0  0  0  0  0  0  0  0  0  0  0  0
  -27.0051  -17.0714   25.0159 C   0  0  0  0  0  0  0  0  0  0  0  0
  -26.9266  -18.1437   25.9044 C   0  0  0  0  0  0  0  0  0  0  0  0
  -22.3894   -8.9605   22.2229 C   0  0  0  0  0  0  0  0  0  0  0  0
  -23.2954   -9.8461   24.2801 C   0  0  0  0  0  0  0  0  0  0  0  0
  -25.6753  -24.4336   28.3273 C   0  0  0  0  0  0  0  0  0  0  0  0
  -20.6599   -6.0281   23.5011 C   0  0  0  0  0  0  0  0  0  0  0  0
  -20.6899   -4.7168   23.0267 C   0  0  0  0  0  0  0  0  0  0  0  0
  -25.3999  -24.3810   25.9314 C   0  0  0  0  0  0  0  0  0  0  0  0
  -24.6916  -18.6267   25.1241 C   0  0  0  0  0  0  0  0  0  0  0  0
  -23.0958   -4.6927   23.2455 C   0  0  0  0  0  0  0  0  0  0  0  0
  -23.8853  -10.8568   22.1665 C   0  0  0  0  0  0  0  0  0  0  0  0
  -24.1513  -13.1429   21.0662 C   0  0  0  0  0  0  0  0  0  0  0  0
  -18.2669  -26.8181   29.6965 C   0  0  0  0  0  0  0  0  0  0  0  0
  -24.3984  -26.1730   27.2142 C   0  0  0  0  0  0  0  0  0  0  0  0
  -19.2482  -26.0770   29.0108 C   0  0  0  0  0  0  0  0  0  0  0  0
  -24.6467  -25.5641   25.9757 C   0  0  0  0  0  0  0  0  0  0  0  0
  -25.9269  -16.7767   24.1813 C   0  0  0  0  0  0  0  0  0  0  0  0
  -24.7702  -17.5544   24.2355 C   0  0  0  0  0  0  0  0  0  0  0  0
  -25.7699  -18.9213   25.9586 C   0  0  0  0  0  0  0  0  0  0  0  0
  -22.4948   -8.9187   23.6132 C   0  0  0  0  0  0  0  0  0  0  0  0
  -25.9097  -23.8183   27.1012 C   0  0  0  0  0  0  0  0  0  0  0  0
  -21.8479   -6.6718   23.8477 C   0  0  0  0  0  0  0  0  0  0  0  0
  -21.9078   -4.0491   22.8989 C   0  0  0  0  0  0  0  0  0  0  0  0
  -23.0658   -6.0040   23.7199 C   0  0  0  0  0  0  0  0  0  0  0  0
  -24.6041  -11.8578   21.4198 C   0  0  0  0  0  0  0  0  0  0  0  0
  -25.1973  -13.6957   20.3685 C   0  0  0  0  0  0  0  0  0  0  0  0
  -22.8972  -13.7802   21.3437 C   0  0  0  0  0  0  0  0  0  0  0  0
  -21.4692  -26.7901   26.1452 C   0  0  0  0  0  0  0  0  0  0  0  0
  -23.0774  -28.2258   23.7215 C   0  0  0  0  0  0  0  0  0  0  0  0
  -28.2303  -15.6521   22.0617 C   0  0  0  0  0  0  0  0  0  0  0  0
  -25.9497  -28.4703   21.8948 C   0  0  0  0  0  0  0  0  0  0  0  0
  -30.8105  -14.5900   20.2735 C   0  0  0  0  0  0  0  0  0  0  0  0
  -17.3306  -27.7540   28.9738 C   0  0  0  0  0  0  0  0  0  0  0  0
  -23.6151  -27.4549   27.2894 C   0  0  0  0  0  0  0  0  0  0  0  0
  -24.1193  -26.1413   24.6884 C   0  0  0  0  0  0  0  0  0  0  0  0
  -17.8159  -28.1450   27.5803 C   0  0  0  0  0  0  0  0  0  0  0  0
  -29.4261  -11.6215   18.5492 C   0  0  0  0  0  0  0  0  0  0  0  0
  -18.2881  -26.9133   26.8144 C   0  0  0  0  0  0  0  0  0  0  0  0
  -28.0377  -11.4913   19.1731 C   0  0  0  0  0  0  0  0  0  0  0  0
  -30.4181  -12.2777   19.5048 C   0  0  0  0  0  0  0  0  0  0  0  0
  -28.5785  -13.4648   20.6541 C   0  0  0  0  0  0  0  0  0  0  0  0
  -19.4711  -26.2428   27.5232 C   0  0  1  0  0  0  0  0  0  0  0  0
  -22.6917  -27.6620   26.0927 C   0  0  1  0  0  0  0  0  0  0  0  0
  -27.5435  -12.8497   19.7002 C   0  0  2  0  0  0  0  0  0  0  0  0
  -26.9509  -29.7071   19.9543 C   0  0  0  0  0  0  0  0  0  0  0  0
  -26.7480  -19.4139   28.9392 C   0  0  0  0  0  0  0  0  0  0  0  0
  -21.4464  -26.5146   21.7924 C   0  0  0  0  0  0  0  0  0  0  0  0
  -23.1068  -27.0724   20.0035 C   0  0  0  0  0  0  0  0  0  0  0  0
  -21.7660  -28.8868   21.0679 C   0  0  0  0  0  0  0  0  0  0  0  0
  -31.1776  -16.9101   21.0233 C   0  0  0  0  0  0  0  0  0  0  0  0
  -28.0911  -29.6205   23.5832 C   0  0  0  0  0  0  0  0  0  0  0  0
  -26.0348  -15.6244   23.2375 C   0  0  0  0  0  0  0  0  0  0  0  0
  -28.8553  -16.1193   20.7644 C   0  0  0  0  0  0  0  0  0  0  0  0
  -26.5847  -21.8080   28.1778 C   0  0  0  0  0  0  0  0  0  1  0  0
  -23.6182  -27.7789   22.3848 C   0  0  1  0  0  0  0  0  0  0  0  0
  -26.7702  -29.6727   21.4639 C   0  0  2  0  0  0  0  0  0  0  0  0
  -26.7640  -20.3553   27.7421 C   0  0  2  0  0  0  0  0  0  0  0  0
  -23.6038  -17.2588   23.3507 C   0  0  0  0  0  0  0  0  0  0  0  0
  -22.4928  -27.5510   21.3364 C   0  0  0  0  0  0  0  0  0  0  0  0
  -25.8414  -11.6087   20.9827 N   0  0  0  0  0  0  0  0  0  0  0  0
  -26.1749  -12.7449   20.3472 N   0  0  0  0  0  0  0  0  0  0  0  0
  -23.3538  -27.3925   24.8147 N   0  0  0  0  0  0  0  0  0  0  0  0
  -29.9048  -13.5458   20.0241 N   0  0  0  0  0  0  0  0  0  0  0  0
  -25.3670  -14.8974   19.7773 N   0  0  0  0  0  0  0  0  0  0  0  0
  -21.9338  -13.0700   22.0728 N   0  0  0  0  0  0  0  0  0  0  0  0
  -25.6922  -19.9836   26.8403 N   0  0  0  0  0  0  0  0  0  0  0  0
  -20.6926  -26.9773   27.2728 N   0  0  0  0  0  0  0  0  0  0  0  0
  -26.8678  -15.9253   22.1019 N   0  0  0  0  0  0  0  0  0  0  0  0
  -24.6085  -28.7753   21.9912 N   0  0  0  0  0  0  0  0  0  0  0  0
  -30.2800  -15.7943   20.7603 N   0  0  0  0  0  0  0  0  0  0  0  0
  -28.1183  -29.6339   22.0979 N   0  3  0  0  0  0  0  0  0  0  0  0
  -22.6325  -14.9388   20.9423 O   0  0  0  0  0  0  0  0  0  0  0  0
  -21.2460  -26.0066   25.2298 O   0  0  0  0  0  0  0  0  0  0  0  0
  -22.4396  -29.2791   23.7943 O   0  0  0  0  0  0  0  0  0  0  0  0
  -28.8728  -15.1325   22.9705 O   0  0  0  0  0  0  0  0  0  0  0  0
  -26.4483  -27.3697   22.1194 O   0  0  0  0  0  0  0  0  0  0  0  0
  -32.0230  -14.4567   20.0636 O   0  0  0  0  0  0  0  0  0  0  0  0
  -21.8164   -7.9734   24.3193 O   0  0  0  0  0  0  0  0  0  0  0  0
  -26.6399  -22.6714   27.0430 O   0  0  0  0  0  0  0  0  0  1  0  0
  -21.9363   -2.7893   22.4447 F   0  0  0  0  0  0  0  0  0  0  0  0
  -24.2103   -6.6168   24.0524 F   0  0  0  0  0  0  0  0  0  0  0  0
  -22.5544  -18.1139   23.5278 F   0  0  0  0  0  0  0  0  0  0  0  0
  -23.8992  -17.3257   22.0197 F   0  0  0  0  0  0  0  0  0  0  0  0
  -23.0976  -16.0084   23.5529 F   0  0  0  0  0  0  0  0  0  0  0  0
  1  2  1  0  0  0  0
  1  5  2  0  0  0  0
  2  6  2  0  0  0  0
  3 10  2  0  0  0  0
  3 18  1  0  0  0  0
  4 11  1  0  0  0  0
  4 18  2  0  0  0  0
  5 20  1  0  0  0  0
  6 22  1  0  0  0  0
  7 12  2  0  0  0  0
  7 21  1  0  0  0  0
  8  9  2  0  0  0  0
  8 24  1  0  0  0  0
  9 26  1  0  0  0  0
 10 27  1  0  0  0  0
 11 27  2  0  0  0  0
 12 28  1  0  0  0  0
 13 14  2  0  0  0  0
 13 29  1  0  0  0  0
 14 30  1  0  0  0  0
 15 23  1  0  0  0  0
 15 28  2  0  0  0  0
 16 25  1  0  0  0  0
 16 26  2  0  0  0  0
 17 30  2  0  0  0  0
 17 31  1  0  0  0  0
 18 32  1  0  0  0  0
 19 32  1  0  0  0  0
 19 33  2  0  0  0  0
 19 34  1  0  0  0  0
 20 22  2  0  0  0  0
 20 40  1  0  0  0  0
 21 23  2  0  0  0  0
 21 41  1  0  0  0  0
 22 49  1  0  0  0  0
 23 42  1  0  0  0  0
 24 25  2  0  0  0  0
 24 59  1  0  0  0  0
 25 65  1  0  0  0  0
 26 73  1  0  0  0  0
 27 85  1  0  0  0  0
 28 86  1  0  0  0  0
 29 31  2  0  0  0  0
 29 85  1  0  0  0  0
 30 87  1  0  0  0  0
 31 88  1  0  0  0  0
 32 67  2  0  0  0  0
 33 68  1  0  0  0  0
 33 71  1  0  0  0  0
 34 72  1  0  0  0  0
 34 79  2  0  0  0  0
 35 50  1  0  0  0  0
 35 74  1  0  0  0  0
 35 80  2  0  0  0  0
 36 62  1  0  0  0  0
 36 69  1  0  0  0  0
 36 81  2  0  0  0  0
 37 60  1  0  0  0  0
 37 75  1  0  0  0  0
 37 82  2  0  0  0  0
 38 63  1  0  0  0  0
 38 76  1  0  0  0  0
 38 83  2  0  0  0  0
 39 70  1  0  0  0  0
 39 77  1  0  0  0  0
 39 84  2  0  0  0  0
 40 43  1  0  0  0  0
 41 50  1  0  0  0  0
 42 69  1  0  0  0  0
 43 45  1  0  0  0  0
 44 46  1  0  0  0  0
 44 47  1  0  0  0  0
 45 49  1  0  0  0  0
 46 51  1  0  0  0  0
 47 70  1  0  0  0  0
 48 51  1  0  0  0  0
 48 70  1  0  0  0  0
 49 74  1  0  0  0  0
 50 69  1  0  0  0  0
 51 68  1  0  0  0  0
 52 63  1  0  0  0  0
 53 64  1  0  0  0  0
 54 66  1  0  0  0  0
 55 66  1  0  0  0  0
 56 66  1  0  0  0  0
 57 77  1  0  0  0  0
 58 78  1  0  0  0  0
 59 75  1  0  0  0  0
 60 77  1  0  0  0  0
 61 64  1  0  0  0  0
 61 86  1  0  0  0  0
 62 66  1  0  0  0  0
 62 76  1  0  0  0  0
 63 78  1  0  0  0  0
 64 73  1  0  0  0  0
 65 89  1  0  0  0  0
 65 90  1  0  0  0  0
 65 91  1  0  0  0  0
 67 68  1  0  0  0  0
M  CHG  1  78   1
M  ISO  4  39 100  61 101  77 100  86 101
M  END
> <Batch ID>
0021

> <Smiles>
CNC(C)C(=O)NC(C(=O)N1Cc2cc([101O:1][101CH2:1]C(C)Nc3ccc(CNC(=O)C[100N:0](C)[100C:0](=O)N4CCCC(n5nc(-c6ccc(Oc7ccc(F)cc7F)cc6)c(C(N)=O)c5N)C4)c(C(F)(F)F)c3)ccc2CC1C(=O)NC1CCCc2ccccc21)C(C)(C)C

> <Shape>
0.195

> <Color>
0.159

> <Negative vol penalty>
0.000

$$$$

  -OEChem-04042321113D

 90 99  0     1  0  0  0  0  0999 V2000
  -23.3246  -37.3493   22.0360 C   0  0  0  0  0  0  0  0  0  0  0  0
  -23.3099  -36.0401   21.5657 C   0  0  0  0  0  0  0  0  0  0  0  0
  -23.8194  -11.2467   23.6517 C   0  0  0  0  0  0  0  0  0  0  0  0
  -24.2970   -9.5524   21.9970 C   0  0  0  0  0  0  0  0  0  0  0  0
  -24.2917  -37.7465   22.9584 C   0  0  0  0  0  0  0  0  0  0  0  0
  -24.2630  -35.1276   22.0168 C   0  0  0  0  0  0  0  0  0  0  0  0
  -23.4599  -29.1304   22.9625 C   0  0  0  0  0  0  0  0  0  0  0  0
  -31.0402  -18.3496   18.9662 C   0  0  0  0  0  0  0  0  0  0  0  0
  -23.2761  -10.2740   24.4909 C   0  0  0  0  0  0  0  0  0  0  0  0
  -23.7537   -8.5796   22.8362 C   0  0  0  0  0  0  0  0  0  0  0  0
  -23.7593  -28.0103   22.1881 C   0  0  0  0  0  0  0  0  0  0  0  0
  -20.6786   -7.4872   23.7201 C   0  0  0  0  0  0  0  0  0  0  0  0
  -31.3051  -19.6945   18.7082 C   0  0  0  0  0  0  0  0  0  0  0  0
  -19.8118   -6.5530   23.1532 C   0  0  0  0  0  0  0  0  0  0  0  0
  -28.9005  -18.9525   19.9125 C   0  0  0  0  0  0  0  0  0  0  0  0
  -25.8310  -27.7381   23.3935 C   0  0  0  0  0  0  0  0  0  0  0  0
  -21.2962   -4.7687   23.8240 C   0  0  0  0  0  0  0  0  0  0  0  0
  -24.3298  -10.8859   22.4047 C   0  0  0  0  0  0  0  0  0  0  0  0
  -29.1655  -20.2975   19.6546 C   0  0  0  0  0  0  0  0  0  0  0  0
  -24.2364  -13.0198   21.0100 C   0  0  0  0  0  0  0  0  0  0  0  0
  -25.2512  -36.8359   23.4284 C   0  0  0  0  0  0  0  0  0  0  0  0
  -24.3505  -29.5698   23.9526 C   0  0  0  0  0  0  0  0  0  0  0  0
  -25.2446  -35.5134   22.9453 C   0  0  0  0  0  0  0  0  0  0  0  0
  -25.5394  -28.8624   24.1808 C   0  0  0  0  0  0  0  0  0  0  0  0
  -29.8378  -17.9786   19.5683 C   0  0  0  0  0  0  0  0  0  0  0  0
  -23.2432   -8.9405   24.0832 C   0  0  0  0  0  0  0  0  0  0  0  0
  -24.9463  -27.3157   22.4016 C   0  0  0  0  0  0  0  0  0  0  0  0
  -21.8542   -7.0623   24.3389 C   0  0  0  0  0  0  0  0  0  0  0  0
  -20.1206   -5.1937   23.2051 C   0  0  0  0  0  0  0  0  0  0  0  0
  -30.3678  -20.6685   19.0524 C   0  0  0  0  0  0  0  0  0  0  0  0
  -22.1630   -5.7030   24.3909 C   0  0  0  0  0  0  0  0  0  0  0  0
  -24.8906  -11.8903   21.5371 C   0  0  0  0  0  0  0  0  0  0  0  0
  -25.1945  -13.6501   20.2542 C   0  0  0  0  0  0  0  0  0  0  0  0
  -28.1838  -21.3133   20.0157 C   0  0  0  0  0  0  0  0  0  0  0  0
  -22.8835  -13.4601   21.1878 C   0  0  0  0  0  0  0  0  0  0  0  0
  -26.0229  -32.2276   24.4456 C   0  0  0  0  0  0  0  0  0  0  0  0
  -26.7495  -30.7843   27.2583 C   0  0  0  0  0  0  0  0  0  0  0  0
  -27.6173  -27.4622   28.3663 C   0  0  0  0  0  0  0  0  0  0  0  0
  -30.3914  -15.5210   19.5509 C   0  0  0  0  0  0  0  0  0  0  0  0
  -26.3058  -37.3241   24.3896 C   0  0  0  0  0  0  0  0  0  0  0  0
  -24.0005  -30.7640   24.7974 C   0  0  0  0  0  0  0  0  0  0  0  0
  -26.5196  -29.2813   25.2449 C   0  0  0  0  0  0  0  0  0  0  0  0
  -27.0500  -36.1971   25.1012 C   0  0  0  0  0  0  0  0  0  0  0  0
  -29.7842  -12.0960   18.7908 C   0  0  0  0  0  0  0  0  0  0  0  0
  -28.8328  -22.2263   23.5687 C   0  0  0  0  0  0  0  0  0  0  0  0
  -27.4692  -35.1214   24.1043 C   0  0  0  0  0  0  0  0  0  0  0  0
  -28.4031  -11.8301   19.3942 C   0  0  0  0  0  0  0  0  0  0  0  0
  -28.0827  -23.4388   23.0301 C   0  0  0  0  0  0  0  0  0  0  0  0
  -29.3054  -21.5302   22.3014 C   0  0  0  0  0  0  0  0  0  0  0  0
  -30.6077  -13.0478   19.6567 C   0  0  0  0  0  0  0  0  0  0  0  0
  -28.5617  -14.0470   20.5972 C   0  0  0  0  0  0  0  0  0  0  0  0
  -26.2465  -34.4879   23.4296 C   0  0  1  0  0  0  0  0  0  0  0  0
  -25.2203  -31.4260   25.4309 C   0  0  1  0  0  0  0  0  0  0  0  0
  -27.6710  -13.1449   19.7274 C   0  0  2  0  0  0  0  0  0  0  0  0
  -27.3812  -22.8937   21.7834 C   0  0  2  0  0  0  0  0  0  0  0  0
  -27.2998  -26.3502   30.5935 C   0  0  0  0  0  0  0  0  0  0  0  0
  -29.5924  -31.7416   27.8162 C   0  0  0  0  0  0  0  0  0  0  0  0
  -30.0130  -29.5786   29.0048 C   0  0  0  0  0  0  0  0  0  0  0  0
  -28.2720  -31.1493   29.8558 C   0  0  0  0  0  0  0  0  0  0  0  0
  -26.1440  -25.1985   27.1563 C   0  0  0  0  0  0  0  0  0  0  0  0
  -23.8606  -23.0513   23.1479 C   0  0  0  0  0  0  0  0  0  0  0  0
  -26.0022  -22.3206   22.1085 C   0  0  0  0  0  0  0  0  0  0  0  0
  -24.5779  -24.0136   20.9659 C   0  0  0  0  0  0  0  0  0  0  0  0
  -24.1420  -25.4523   21.1618 C   0  0  0  0  0  0  0  0  0  1  0  0
  -27.8371  -29.8501   27.7309 C   0  0  1  0  0  0  0  0  0  0  0  0
  -26.7513  -26.5222   29.1855 C   0  0  2  0  0  0  0  0  0  0  0  0
  -28.9199  -30.5801   28.5748 C   0  0  0  0  0  0  0  0  0  0  0  0
  -26.1658  -11.8052   21.1489 N   0  0  0  0  0  0  0  0  0  0  0  0
  -26.3205  -12.8892   20.3698 N   0  0  0  0  0  0  0  0  0  0  0  0
  -28.2949  -21.8573   21.2941 N   0  0  0  0  0  0  0  0  0  0  0  0
  -26.1353  -30.4589   26.0406 N   0  0  0  0  0  0  0  0  0  0  0  0
  -29.8523  -14.2728   19.9278 N   0  0  0  0  0  0  0  0  0  0  0  0
  -25.1752  -14.7753   19.5086 N   0  0  0  0  0  0  0  0  0  0  0  0
  -22.0326  -12.6946   21.9967 N   0  0  0  0  0  0  0  0  0  0  0  0
  -29.5690  -16.6122   19.8297 N   0  0  0  0  0  0  0  0  0  0  0  0
  -25.6115  -33.5409   24.3209 N   0  0  0  0  0  0  0  0  0  0  0  0
  -27.1644  -28.7628   28.4335 N   0  0  0  0  0  0  0  0  0  0  0  0
  -26.6873  -25.1811   28.5389 N   0  3  0  0  0  0  0  0  0  0  0  0
  -25.0185  -23.4534   22.2683 N   0  3  1  0  0  0  0  0  0  0  0  0
  -27.3077  -21.6323   19.2136 O   0  0  0  0  0  0  0  0  0  0  0  0
  -22.4376  -14.4925   20.6321 O   0  0  0  0  0  0  0  0  0  0  0  0
  -26.9480  -31.6946   23.8441 O   0  0  0  0  0  0  0  0  0  0  0  0
  -26.4508  -31.7626   27.9477 O   0  0  0  0  0  0  0  0  0  0  0  0
  -28.5995  -27.0813   27.7333 O   0  0  0  0  0  0  0  0  0  0  0  0
  -31.4890  -15.6127   18.9952 O   0  0  0  0  0  0  0  0  0  0  0  0
  -22.7134   -7.9910   24.9019 O   0  0  0  0  0  0  0  0  0  0  0  0
  -25.2412  -26.2225   21.6467 O   0  0  0  0  0  0  0  0  0  1  0  0
  -19.2874   -4.2965   22.6621 F   0  0  0  0  0  0  0  0  0  0  0  0
  -30.6327  -21.9580   18.8000 F   0  0  0  0  0  0  0  0  0  0  0  0
  -23.2904   -5.2887   24.9851 F   0  0  0  0  0  0  0  0  0  0  0  0
  1  2  1  0  0  0  0
  1  5  2  0  0  0  0
  2  6  2  0  0  0  0
  3  9  2  0  0  0  0
  3 18  1  0  0  0  0
  4 10  1  0  0  0  0
  4 18  2  0  0  0  0
  5 21  1  0  0  0  0
  6 23  1  0  0  0  0
  7 11  2  0  0  0  0
  7 22  1  0  0  0  0
  8 13  2  0  0  0  0
  8 25  1  0  0  0  0
  9 26  1  0  0  0  0
 10 26  2  0  0  0  0
 11 27  1  0  0  0  0
 12 14  2  0  0  0  0
 12 28  1  0  0  0  0
 13 30  1  0  0  0  0
 14 29  1  0  0  0  0
 15 19  1  0  0  0  0
 15 25  2  0  0  0  0
 16 24  1  0  0  0  0
 16 27  2  0  0  0  0
 17 29  2  0  0  0  0
 17 31  1  0  0  0  0
 18 32  1  0  0  0  0
 19 30  2  0  0  0  0
 19 34  1  0  0  0  0
 20 32  1  0  0  0  0
 20 33  2  0  0  0  0
 20 35  1  0  0  0  0
 21 23  2  0  0  0  0
 21 40  1  0  0  0  0
 22 24  2  0  0  0  0
 22 41  1  0  0  0  0
 23 52  1  0  0  0  0
 24 42  1  0  0  0  0
 25 75  1  0  0  0  0
 26 86  1  0  0  0  0
 27 87  1  0  0  0  0
 28 31  2  0  0  0  0
 28 86  1  0  0  0  0
 29 88  1  0  0  0  0
 30 89  1  0  0  0  0
 31 90  1  0  0  0  0
 32 68  2  0  0  0  0
 33 69  1  0  0  0  0
 33 73  1  0  0  0  0
 34 70  1  0  0  0  0
 34 80  2  0  0  0  0
 35 74  1  0  0  0  0
 35 81  2  0  0  0  0
 36 53  1  0  0  0  0
 36 76  1  0  0  0  0
 36 82  2  0  0  0  0
 37 65  1  0  0  0  0
 37 71  1  0  0  0  0
 37 83  2  0  0  0  0
 38 66  1  0  0  0  0
 38 77  1  0  0  0  0
 38 84  2  0  0  0  0
 39 72  1  0  0  0  0
 39 75  1  0  0  0  0
 39 85  2  0  0  0  0
 40 43  1  0  0  0  0
 41 53  1  0  0  0  0
 42 71  1  0  0  0  0
 43 46  1  0  0  0  0
 44 47  1  0  0  0  0
 44 50  1  0  0  0  0
 45 48  1  0  0  0  0
 45 49  1  0  0  0  0
 46 52  1  0  0  0  0
 47 54  1  0  0  0  0
 48 55  1  0  0  0  0
 49 70  1  0  0  0  0
 50 72  1  0  0  0  0
 51 54  1  0  0  0  0
 51 72  1  0  0  0  0
 52 76  1  0  0  0  0
 53 71  1  0  0  0  0
 54 69  1  0  0  0  0
 55 62  1  0  0  0  0
 55 70  1  0  0  0  0
 56 66  1  0  0  0  0
 57 67  1  0  0  0  0
 58 67  1  0  0  0  0
 59 67  1  0  0  0  0
 60 78  1  0  0  0  0
 61 79  1  0  0  0  0
 62 79  1  0  0  0  0
 63 64  1  0  0  0  0
 63 79  1  0  0  0  0
 64 87  1  0  0  0  0
 65 67  1  0  0  0  0
 65 77  1  0  0  0  0
 66 78  1  0  0  0  0
 68 69  1  0  0  0  0
M  CHG  2  78   1  79   1
M  ISO  4  39 100  64 101  75 100  87 101
M  END
> <Batch ID>
0021

> <Smiles>
CNC(C)C(=O)NC(C(=O)N1Cc2cc([101O:1][101CH2:1]CN(C)CC3CCCN3C(=O)c3cc([100NH:0][100C:0](=O)N4CCCC(n5nc(-c6ccc(Oc7ccc(F)cc7F)cc6)c(C(N)=O)c5N)C4)ccc3F)ccc2CC1C(=O)NC1CCCc2ccccc21)C(C)(C)C

> <Shape>
0.290

> <Color>
0.126

> <Negative vol penalty>
0.000

$$$$

  -OEChem-04042321113D

 85 94  0     1  0  0  0  0  0999 V2000
  -16.8163  -29.8668   23.7632 C   0  0  0  0  0  0  0  0  0  0  0  0
  -17.4408  -29.2844   22.6650 C   0  0  0  0  0  0  0  0  0  0  0  0
  -28.4002  -15.9018   22.0657 C   0  0  0  0  0  0  0  0  0  0  0  0
  -28.5464  -16.8803   19.8615 C   0  0  0  0  0  0  0  0  0  0  0  0
  -17.4862  -30.8321   24.5138 C   0  0  0  0  0  0  0  0  0  0  0  0
  -18.7352  -29.6678   22.3160 C   0  0  0  0  0  0  0  0  0  0  0  0
  -24.7621  -27.0372   19.4745 C   0  0  0  0  0  0  0  0  0  0  0  0
  -27.2256  -15.2463   21.6968 C   0  0  0  0  0  0  0  0  0  0  0  0
  -27.3718  -16.2247   19.4926 C   0  0  0  0  0  0  0  0  0  0  0  0
  -25.6796  -27.3031   18.4591 C   0  0  0  0  0  0  0  0  0  0  0  0
  -26.3566  -12.4985   19.9283 C   0  0  0  0  0  0  0  0  0  0  0  0
  -26.2268  -11.1547   20.2787 C   0  0  0  0  0  0  0  0  0  0  0  0
  -26.7692  -28.9231   19.8760 C   0  0  0  0  0  0  0  0  0  0  0  0
  -30.9186  -25.4862   17.8263 C   0  0  0  0  0  0  0  0  0  0  0  0
  -30.9113  -26.0287   20.5628 C   0  0  0  0  0  0  0  0  0  0  0  0
  -24.2548  -11.6821   21.5710 C   0  0  0  0  0  0  0  0  0  0  0  0
  -29.0606  -16.7189   21.1481 C   0  0  0  0  0  0  0  0  0  0  0  0
  -31.5911  -16.9169   21.4028 C   0  0  0  0  0  0  0  0  0  0  0  0
  -18.7931  -31.2205   24.1796 C   0  0  0  0  0  0  0  0  0  0  0  0
  -24.8347  -27.7212   20.6965 C   0  0  0  0  0  0  0  0  0  0  0  0
  -19.4228  -30.6401   23.0620 C   0  0  0  0  0  0  0  0  0  0  0  0
  -25.8529  -28.6621   20.9063 C   0  0  0  0  0  0  0  0  0  0  0  0
  -30.6039  -26.7662   18.2827 C   0  0  0  0  0  0  0  0  0  0  0  0
  -31.2259  -24.7487   20.1064 C   0  0  0  0  0  0  0  0  0  0  0  0
  -26.7114  -15.4076   20.4102 C   0  0  0  0  0  0  0  0  0  0  0  0
  -26.6816  -28.2483   18.6586 C   0  0  0  0  0  0  0  0  0  0  0  0
  -25.4356  -13.4342   20.3993 C   0  0  0  0  0  0  0  0  0  0  0  0
  -25.1759  -10.7464   21.1000 C   0  0  0  0  0  0  0  0  0  0  0  0
  -31.2295  -24.4775   18.7382 C   0  0  0  0  0  0  0  0  0  0  0  0
  -24.3847  -13.0260   21.2206 C   0  0  0  0  0  0  0  0  0  0  0  0
  -30.6003  -27.0375   19.6509 C   0  0  0  0  0  0  0  0  0  0  0  0
  -30.2737  -17.3969   21.5287 C   0  0  0  0  0  0  0  0  0  0  0  0
  -32.3743  -17.9284   21.9029 C   0  0  0  0  0  0  0  0  0  0  0  0
  -32.0646  -15.6684   20.8805 C   0  0  0  0  0  0  0  0  0  0  0  0
  -22.9072  -29.6877   22.2844 C   0  0  0  0  0  0  0  0  0  0  0  0
  -25.1682  -29.4115   24.5939 C   0  0  0  0  0  0  0  0  0  0  0  0
  -28.4110  -28.7252   25.4063 C   0  0  0  0  0  0  0  0  0  0  0  0
  -31.5812  -23.8279   22.4242 C   0  0  0  0  0  0  0  0  0  0  0  0
  -19.4593  -32.3022   24.9925 C   0  0  0  0  0  0  0  0  0  0  0  0
  -23.8536  -27.4036   21.7915 C   0  0  0  0  0  0  0  0  0  0  0  0
  -25.9866  -29.4091   22.2073 C   0  0  0  0  0  0  0  0  0  0  0  0
  -20.9689  -32.3813   24.7802 C   0  0  0  0  0  0  0  0  0  0  0  0
  -32.2748  -21.5319   25.0556 C   0  0  0  0  0  0  0  0  0  0  0  0
  -30.8617  -29.4104   15.8002 C   0  0  0  0  0  0  0  0  0  0  0  0
  -21.3021  -32.3315   23.2925 C   0  0  0  0  0  0  0  0  0  0  0  0
  -31.9660  -20.1668   24.4364 C   0  0  0  0  0  0  0  0  0  0  0  0
  -29.4406  -28.9583   15.5145 C   0  0  0  0  0  0  0  0  0  0  0  0
  -31.0814  -28.9738   17.2435 C   0  0  0  0  0  0  0  0  0  0  0  0
  -31.3039  -22.6071   24.5708 C   0  0  0  0  0  0  0  0  0  0  0  0
  -30.8732  -21.3561   22.4927 C   0  0  0  0  0  0  0  0  0  0  0  0
  -20.8355  -31.0116   22.6666 C   0  0  1  0  0  0  0  0  0  0  0  0
  -23.7089  -28.5305   22.8096 C   0  0  1  0  0  0  0  0  0  0  0  0
  -31.8647  -20.2544   22.9009 C   0  0  2  0  0  0  0  0  0  0  0  0
  -29.3188  -27.6224   16.2682 C   0  0  2  0  0  0  0  0  0  0  0  0
  -29.9696  -28.6187   27.3702 C   0  0  0  0  0  0  0  0  0  0  0  0
  -25.3145  -32.4589   24.6400 C   0  0  0  0  0  0  0  0  0  0  0  0
  -27.4857  -32.2665   25.8718 C   0  0  0  0  0  0  0  0  0  0  0  0
  -25.3911  -31.3766   26.8933 C   0  0  0  0  0  0  0  0  0  0  0  0
  -28.9415  -25.8455   24.9768 C   0  0  0  0  0  0  0  0  0  0  0  0
  -27.8927  -27.4409   16.7779 C   0  0  0  0  0  0  0  0  0  1  0  0
  -26.4360  -30.1531   24.9430 C   0  0  1  0  0  0  0  0  0  0  0  0
  -29.0143  -27.8384   26.4806 C   0  0  2  0  0  0  0  0  0  0  0  0
  -26.1534  -31.5513   25.5617 C   0  0  0  0  0  0  0  0  0  0  0  0
  -30.2190  -18.6182   22.0667 N   0  0  0  0  0  0  0  0  0  0  0  0
  -31.5119  -18.9142   22.2834 N   0  0  0  0  0  0  0  0  0  0  0  0
  -30.2994  -27.7436   17.3563 N   0  0  3  0  0  0  0  0  0  0  0  0
  -24.9996  -29.0679   23.2451 N   0  0  0  0  0  0  0  0  0  0  0  0
  -31.2635  -22.6348   23.1071 N   0  0  0  0  0  0  0  0  0  0  0  0
  -33.7095  -18.0618   22.0499 N   0  0  0  0  0  0  0  0  0  0  0  0
  -31.1247  -14.7424   20.4079 N   0  0  0  0  0  0  0  0  0  0  0  0
  -31.5405  -23.7250   21.0341 N   0  0  0  0  0  0  0  0  0  0  0  0
  -21.7524  -29.9425   22.9992 N   0  0  0  0  0  0  0  0  0  0  0  0
  -27.2055  -29.2626   25.8052 N   0  0  0  0  0  0  0  0  0  0  0  0
  -29.7652  -26.7107   25.8600 N   0  3  0  0  0  0  0  0  0  0  0  0
  -33.2840  -15.3758   20.8494 O   0  0  0  0  0  0  0  0  0  0  0  0
  -23.3074  -30.3047   21.3042 O   0  0  0  0  0  0  0  0  0  0  0  0
  -24.3608  -29.1405   25.4863 O   0  0  0  0  0  0  0  0  0  0  0  0
  -28.9566  -28.9244   24.3232 O   0  0  0  0  0  0  0  0  0  0  0  0
  -31.8947  -24.8573   23.0276 O   0  0  0  0  0  0  0  0  0  0  0  0
  -25.5654  -14.7679   20.0498 O   0  0  0  0  0  0  0  0  0  0  0  0
  -27.5780  -28.5103   17.6689 O   0  0  0  0  0  0  0  0  0  1  0  0
  -25.0505   -9.4557   21.4352 F   0  0  0  0  0  0  0  0  0  0  0  0
  -31.5281  -23.2505   18.2878 F   0  0  0  0  0  0  0  0  0  0  0  0
  -23.4960  -13.9201   21.6752 F   0  0  0  0  0  0  0  0  0  0  0  0
  -30.2170  -28.6088   20.2582 Cl  0  0  0  0  0  0  0  0  0  0  0  0
  1  2  1  0  0  0  0
  1  5  2  0  0  0  0
  2  6  2  0  0  0  0
  3  8  2  0  0  0  0
  3 17  1  0  0  0  0
  4  9  1  0  0  0  0
  4 17  2  0  0  0  0
  5 19  1  0  0  0  0
  6 21  1  0  0  0  0
  7 10  2  0  0  0  0
  7 20  1  0  0  0  0
  8 25  1  0  0  0  0
  9 25  2  0  0  0  0
 10 26  1  0  0  0  0
 11 12  2  0  0  0  0
 11 27  1  0  0  0  0
 12 28  1  0  0  0  0
 13 22  1  0  0  0  0
 13 26  2  0  0  0  0
 14 23  1  0  0  0  0
 14 29  2  0  0  0  0
 15 24  2  0  0  0  0
 15 31  1  0  0  0  0
 16 28  2  0  0  0  0
 16 30  1  0  0  0  0
 17 32  1  0  0  0  0
 18 32  1  0  0  0  0
 18 33  2  0  0  0  0
 18 34  1  0  0  0  0
 19 21  2  0  0  0  0
 19 39  1  0  0  0  0
 20 22  2  0  0  0  0
 20 40  1  0  0  0  0
 21 51  1  0  0  0  0
 22 41  1  0  0  0  0
 23 31  2  0  0  0  0
 23 66  1  0  0  0  0
 24 29  1  0  0  0  0
 24 71  1  0  0  0  0
 25 80  1  0  0  0  0
 26 81  1  0  0  0  0
 27 30  2  0  0  0  0
 27 80  1  0  0  0  0
 28 82  1  0  0  0  0
 29 83  1  0  0  0  0
 30 84  1  0  0  0  0
 31 85  1  0  0  0  0
 32 64  2  0  0  0  0
 33 65  1  0  0  0  0
 33 69  1  0  0  0  0
 34 70  1  0  0  0  0
 34 75  2  0  0  0  0
 35 52  1  0  0  0  0
 35 72  1  0  0  0  0
 35 76  2  0  0  0  0
 36 61  1  0  0  0  0
 36 67  1  0  0  0  0
 36 77  2  0  0  0  0
 37 62  1  0  0  0  0
 37 73  1  0  0  0  0
 37 78  2  0  0  0  0
 38 68  1  0  0  0  0
 38 71  1  0  0  0  0
 38 79  2  0  0  0  0
 39 42  1  0  0  0  0
 40 52  1  0  0  0  0
 41 67  1  0  0  0  0
 42 45  1  0  0  0  0
 43 46  1  0  0  0  0
 43 49  1  0  0  0  0
 44 47  1  0  0  0  0
 44 48  1  0  0  0  0
 45 51  1  0  0  0  0
 46 53  1  0  0  0  0
 47 54  1  0  0  0  0
 48 66  1  0  0  0  0
 49 68  1  0  0  0  0
 50 53  1  0  0  0  0
 50 68  1  0  0  0  0
 51 72  1  0  0  0  0
 52 67  1  0  0  0  0
 53 65  1  0  0  0  0
 54 60  1  0  0  0  0
 54 66  1  0  0  0  0
 55 62  1  0  0  0  0
 56 63  1  0  0  0  0
 57 63  1  0  0  0  0
 58 63  1  0  0  0  0
 59 74  1  0  0  0  0
 60 81  1  0  0  0  0
 61 63  1  0  0  0  0
 61 73  1  0  0  0  0
 62 74  1  0  0  0  0
 64 65  1  0  0  0  0
M  CHG  1  74   1
M  ISO  4  38 100  60 101  71 100  81 101
M  END
> <Batch ID>
0021

> <Smiles>
CNC(C)C(=O)NC(C(=O)N1Cc2cc([101O:1][101CH2:1]C3CCCN3c3cc(F)c([100NH:0][100C:0](=O)N4CCCC(n5nc(-c6ccc(Oc7ccc(F)cc7F)cc6)c(C(N)=O)c5N)C4)cc3Cl)ccc2CC1C(=O)NC1CCCc2ccccc21)C(C)(C)C

> <Shape>
0.267

> <Color>
0.071

> <Negative vol penalty>
0.000

$$$$

  -OEChem-04042321113D

 82 90  0     1  0  0  0  0  0999 V2000
  -17.8854  -31.6791   19.9947 C   0  0  0  0  0  0  0  0  0  0  0  0
  -19.1940  -31.5015   19.5571 C   0  0  0  0  0  0  0  0  0  0  0  0
  -26.7294  -13.4274   21.4200 C   0  0  0  0  0  0  0  0  0  0  0  0
  -25.1292  -13.3662   19.6109 C   0  0  0  0  0  0  0  0  0  0  0  0
  -17.5624  -31.4547   21.3324 C   0  0  0  0  0  0  0  0  0  0  0  0
  -20.1807  -31.1006   20.4573 C   0  0  0  0  0  0  0  0  0  0  0  0
  -24.9668  -27.4613   19.2933 C   0  0  0  0  0  0  0  0  0  0  0  0
  -25.9257  -12.5604   22.1603 C   0  0  0  0  0  0  0  0  0  0  0  0
  -24.3255  -12.4991   20.3512 C   0  0  0  0  0  0  0  0  0  0  0  0
  -26.3050  -27.7329   19.0117 C   0  0  0  0  0  0  0  0  0  0  0  0
  -24.2600   -9.2080   21.1157 C   0  0  0  0  0  0  0  0  0  0  0  0
  -23.7279   -8.0992   20.4577 C   0  0  0  0  0  0  0  0  0  0  0  0
  -26.8544  -27.4066   21.3379 C   0  0  0  0  0  0  0  0  0  0  0  0
  -30.7292  -24.3146   19.9596 C   0  0  0  0  0  0  0  0  0  0  0  0
  -30.2977  -24.1710   17.5868 C   0  0  0  0  0  0  0  0  0  0  0  0
  -21.4949   -8.8733   20.9592 C   0  0  0  0  0  0  0  0  0  0  0  0
  -26.3311  -13.8303   20.1453 C   0  0  0  0  0  0  0  0  0  0  0  0
  -30.4406  -22.1564   18.9128 C   0  0  0  0  0  0  0  0  0  0  0  0
  -28.1877  -14.3767   18.4834 C   0  0  0  0  0  0  0  0  0  0  0  0
  -18.5436  -31.0415   22.2473 C   0  0  0  0  0  0  0  0  0  0  0  0
  -24.5599  -27.1706   20.6034 C   0  0  0  0  0  0  0  0  0  0  0  0
  -19.8707  -30.8718   21.8087 C   0  0  0  0  0  0  0  0  0  0  0  0
  -25.5108  -27.1292   21.6330 C   0  0  0  0  0  0  0  0  0  0  0  0
  -30.6806  -22.9237   20.0527 C   0  0  0  0  0  0  0  0  0  0  0  0
  -30.5377  -24.9382   18.7267 C   0  0  0  0  0  0  0  0  0  0  0  0
  -24.7238  -12.0963   21.6259 C   0  0  0  0  0  0  0  0  0  0  0  0
  -27.2485  -27.7084   20.0346 C   0  0  0  0  0  0  0  0  0  0  0  0
  -23.4096  -10.1494   21.6956 C   0  0  0  0  0  0  0  0  0  0  0  0
  -22.3453   -7.9318   20.3794 C   0  0  0  0  0  0  0  0  0  0  0  0
  -22.0270   -9.9820   21.6173 C   0  0  0  0  0  0  0  0  0  0  0  0
  -30.2491  -22.7800   17.6799 C   0  0  0  0  0  0  0  0  0  0  0  0
  -27.1606  -14.7263   19.3804 C   0  0  0  0  0  0  0  0  0  0  0  0
  -28.6635  -15.5792   18.0207 C   0  0  0  0  0  0  0  0  0  0  0  0
  -30.3930  -20.6938   19.0305 C   0  0  0  0  0  0  0  0  0  0  0  0
  -28.6686  -13.0808   18.1024 C   0  0  0  0  0  0  0  0  0  0  0  0
  -22.5882  -28.5298   22.6936 C   0  0  0  0  0  0  0  0  0  0  0  0
  -23.2374  -25.8754   24.4416 C   0  0  0  0  0  0  0  0  0  0  0  0
  -25.3719  -23.2983   25.1119 C   0  0  0  0  0  0  0  0  0  0  0  0
  -18.1563  -30.8571   23.6932 C   0  0  0  0  0  0  0  0  0  0  0  0
  -23.1169  -26.8537   20.8861 C   0  0  0  0  0  0  0  0  0  0  0  0
  -25.1287  -26.8026   23.0528 C   0  0  0  0  0  0  0  0  0  0  0  0
  -19.1841  -30.0717   24.5037 C   0  0  0  0  0  0  0  0  0  0  0  0
  -26.8278  -20.2635   18.5103 C   0  0  0  0  0  0  0  0  0  0  0  0
  -20.5917  -30.5902   24.2267 C   0  0  0  0  0  0  0  0  0  0  0  0
  -26.6832  -18.7464   18.6372 C   0  0  0  0  0  0  0  0  0  0  0  0
  -27.8856  -20.8031   19.4682 C   0  0  0  0  0  0  0  0  0  0  0  0
  -29.0827  -18.6398   19.4497 C   0  0  0  0  0  0  0  0  0  0  0  0
  -20.9639  -30.4137   22.7496 C   0  0  1  0  0  0  0  0  0  0  0  0
  -22.7313  -27.0751   22.3454 C   0  0  1  0  0  0  0  0  0  0  0  0
  -28.0441  -18.0425   18.4843 C   0  0  1  0  0  0  0  0  0  0  0  0
  -30.8897  -22.2862   21.3881 C   0  0  0  0  0  0  0  0  0  0  0  0
  -25.6494  -21.3118   26.6199 C   0  0  0  0  0  0  0  0  0  0  0  0
  -24.0151  -27.7294   26.7367 C   0  0  0  0  0  0  0  0  0  0  0  0
  -25.1549  -25.7858   27.8283 C   0  0  0  0  0  0  0  0  0  0  0  0
  -22.6947  -25.7189   27.4214 C   0  0  0  0  0  0  0  0  0  0  0  0
  -30.3859  -26.9917   17.3410 C   0  0  0  0  0  0  0  0  0  0  0  0
  -25.3894  -21.4191   22.8256 C   0  0  0  0  0  0  0  0  0  0  0  0
  -30.8195  -27.1598   19.7970 C   0  0  0  0  0  0  0  0  0  0  0  0
  -29.5321  -27.3365   20.5848 C   0  0  0  0  0  0  0  0  0  1  0  0
  -24.2810  -25.4982   25.4651 C   0  0  1  0  0  0  0  0  0  0  0  0
  -25.1315  -21.8088   25.2792 C   0  0  2  0  0  0  0  0  0  0  0  0
  -24.0436  -26.1912   26.8366 C   0  0  0  0  0  0  0  0  0  0  0  0
  -26.9932  -16.0475   19.4830 N   0  0  0  0  0  0  0  0  0  0  0  0
  -27.9216  -16.5386   18.6446 N   0  0  0  0  0  0  0  0  0  0  0  0
  -29.1584  -20.0932   19.2886 N   0  0  0  0  0  0  0  0  0  0  0  0
  -23.7046  -26.5062   23.2798 N   0  0  0  0  0  0  0  0  0  0  0  0
  -29.6401  -15.8989   17.1451 N   0  0  0  0  0  0  0  0  0  0  0  0
  -28.0676  -11.9507   18.6733 N   0  0  0  0  0  0  0  0  0  0  0  0
  -21.3210  -29.0375   22.4794 N   0  0  0  0  0  0  0  0  0  0  0  0
  -24.2858  -24.0405   25.5251 N   0  0  0  0  0  0  0  0  0  0  0  0
  -30.5865  -26.3355   18.6333 N   0  0  3  0  0  0  0  0  0  0  0  0
  -25.8200  -21.0483   24.1982 N   0  3  0  0  0  0  0  0  0  0  0  0
  -31.4611  -20.1025   18.8796 O   0  0  0  0  0  0  0  0  0  0  0  0
  -29.6146  -12.9300   17.2926 O   0  0  0  0  0  0  0  0  0  0  0  0
  -23.5554  -29.1455   23.1261 O   0  0  0  0  0  0  0  0  0  0  0  0
  -22.0522  -25.6135   24.6615 O   0  0  0  0  0  0  0  0  0  0  0  0
  -26.4199  -23.7576   24.6633 O   0  0  0  0  0  0  0  0  0  0  0  0
  -23.9394  -11.2501   22.3479 O   0  0  0  0  0  0  0  0  0  0  0  0
  -28.5553  -27.9737   19.7626 O   0  0  0  0  0  0  0  0  0  1  0  0
  -21.8345   -6.8678   19.7461 F   0  0  0  0  0  0  0  0  0  0  0  0
  -21.2049  -10.8837   22.1713 F   0  0  0  0  0  0  0  0  0  0  0  0
  -29.9499  -21.8703   16.2418 Cl  0  0  0  0  0  0  0  0  0  0  0  0
  1  2  1  0  0  0  0
  1  5  2  0  0  0  0
  2  6  2  0  0  0  0
  3  8  2  0  0  0  0
  3 17  1  0  0  0  0
  4  9  1  0  0  0  0
  4 17  2  0  0  0  0
  5 20  1  0  0  0  0
  6 22  1  0  0  0  0
  7 10  2  0  0  0  0
  7 21  1  0  0  0  0
  8 26  1  0  0  0  0
  9 26  2  0  0  0  0
 10 27  1  0  0  0  0
 11 12  2  0  0  0  0
 11 28  1  0  0  0  0
 12 29  1  0  0  0  0
 13 23  1  0  0  0  0
 13 27  2  0  0  0  0
 14 24  2  0  0  0  0
 14 25  1  0  0  0  0
 15 25  2  0  0  0  0
 15 31  1  0  0  0  0
 16 29  2  0  0  0  0
 16 30  1  0  0  0  0
 17 32  1  0  0  0  0
 18 24  1  0  0  0  0
 18 31  2  0  0  0  0
 18 34  1  0  0  0  0
 19 32  1  0  0  0  0
 19 33  2  0  0  0  0
 19 35  1  0  0  0  0
 20 22  2  0  0  0  0
 20 39  1  0  0  0  0
 21 23  2  0  0  0  0
 21 40  1  0  0  0  0
 22 48  1  0  0  0  0
 23 41  1  0  0  0  0
 24 51  1  0  0  0  0
 25 71  1  0  0  0  0
 26 78  1  0  0  0  0
 27 79  1  0  0  0  0
 28 30  2  0  0  0  0
 28 78  1  0  0  0  0
 29 80  1  0  0  0  0
 30 81  1  0  0  0  0
 31 82  1  0  0  0  0
 32 63  2  0  0  0  0
 33 64  1  0  0  0  0
 33 67  1  0  0  0  0
 34 65  1  0  0  0  0
 34 73  2  0  0  0  0
 35 68  1  0  0  0  0
 35 74  2  0  0  0  0
 36 49  1  0  0  0  0
 36 69  1  0  0  0  0
 36 75  2  0  0  0  0
 37 60  1  0  0  0  0
 37 66  1  0  0  0  0
 37 76  2  0  0  0  0
 38 61  1  0  0  0  0
 38 70  1  0  0  0  0
 38 77  2  0  0  0  0
 39 42  1  0  0  0  0
 40 49  1  0  0  0  0
 41 66  1  0  0  0  0
 42 44  1  0  0  0  0
 43 45  1  0  0  0  0
 43 46  1  0  0  0  0
 44 48  1  0  0  0  0
 45 50  1  0  0  0  0
 46 65  1  0  0  0  0
 47 50  1  0  0  0  0
 47 65  1  0  0  0  0
 48 69  1  0  0  0  0
 49 66  1  0  0  0  0
 50 64  1  0  0  0  0
 52 61  1  0  0  0  0
 53 62  1  0  0  0  0
 54 62  1  0  0  0  0
 55 62  1  0  0  0  0
 56 71  1  0  0  0  0
 57 72  1  0  0  0  0
 58 59  1  0  0  0  0
 58 71  1  0  0  0  0
 59 79  1  0  0  0  0
 60 62  1  0  0  0  0
 60 70  1  0  0  0  0
 61 72  1  0  0  0  0
 63 64  1  0  0  0  0
M  CHG  1  72   1
M  ISO  4  18 100  34 100  59 101  79 101
M  END
> <Batch ID>
0021

> <Smiles>
CNC(C)C(=O)NC(C(=O)N1Cc2cc([101O:1][101CH2:1]CN(C)c3cc(C)[100c:0]([100C:0](=O)N4CCCC(n5nc(-c6ccc(Oc7ccc(F)cc7F)cc6)c(C(N)=O)c5N)C4)c(Cl)c3)ccc2CC1C(=O)NC1CCCc2ccccc21)C(C)(C)C

> <Shape>
0.245

> <Color>
0.085

> <Negative vol penalty>
0.000

$$$$

  -OEChem-04042321113D

 87 96  0     1  0  0  0  0  0999 V2000
  -28.8842  -26.0870   15.9998 C   0  0  0  0  0  0  0  0  0  0  0  0
  -27.6891  -26.0755   16.7117 C   0  0  0  0  0  0  0  0  0  0  0  0
  -26.2923  -12.1673   21.1861 C   0  0  0  0  0  0  0  0  0  0  0  0
  -24.7999  -13.7646   20.1574 C   0  0  0  0  0  0  0  0  0  0  0  0
  -30.0234  -26.6620   16.5615 C   0  0  0  0  0  0  0  0  0  0  0  0
  -27.6327  -26.6382   17.9864 C   0  0  0  0  0  0  0  0  0  0  0  0
  -23.5237  -29.5211   18.6573 C   0  0  0  0  0  0  0  0  0  0  0  0
  -25.3246  -23.6718   19.7469 C   0  0  0  0  0  0  0  0  0  0  0  0
  -24.0749  -24.2000   20.0705 C   0  0  0  0  0  0  0  0  0  0  0  0
  -25.2137  -11.3177   21.4320 C   0  0  0  0  0  0  0  0  0  0  0  0
  -23.7212  -12.9150   20.4032 C   0  0  0  0  0  0  0  0  0  0  0  0
  -22.3182  -28.8646   18.9016 C   0  0  0  0  0  0  0  0  0  0  0  0
  -22.9054   -8.5689   22.0070 C   0  0  0  0  0  0  0  0  0  0  0  0
  -23.0686   -7.2138   21.7195 C   0  0  0  0  0  0  0  0  0  0  0  0
  -22.5612  -29.3092   21.2601 C   0  0  0  0  0  0  0  0  0  0  0  0
  -24.9626  -25.0181   22.1634 C   0  0  0  0  0  0  0  0  0  0  0  0
  -23.4950   -7.7562   19.4041 C   0  0  0  0  0  0  0  0  0  0  0  0
  -26.0854  -13.3907   20.5489 C   0  0  0  0  0  0  0  0  0  0  0  0
  -28.3422  -13.9907   19.5220 C   0  0  0  0  0  0  0  0  0  0  0  0
  -29.9785  -27.2406   17.8397 C   0  0  0  0  0  0  0  0  0  0  0  0
  -24.2636  -30.0680   19.7155 C   0  0  0  0  0  0  0  0  0  0  0  0
  -28.7726  -27.2203   18.5662 C   0  0  0  0  0  0  0  0  0  0  0  0
  -23.7744  -29.9743   21.0263 C   0  0  0  0  0  0  0  0  0  0  0  0
  -26.3934  -23.8167   20.6315 C   0  0  0  0  0  0  0  0  0  0  0  0
  -23.8939  -24.8731   21.2787 C   0  0  0  0  0  0  0  0  0  0  0  0
  -23.9282  -11.6916   21.0405 C   0  0  0  0  0  0  0  0  0  0  0  0
  -21.8382  -28.7560   20.2035 C   0  0  0  0  0  0  0  0  0  0  0  0
  -23.0369   -9.5177   20.9929 C   0  0  0  0  0  0  0  0  0  0  0  0
  -23.3634   -6.8074   20.4182 C   0  0  0  0  0  0  0  0  0  0  0  0
  -23.3318   -9.1113   19.6916 C   0  0  0  0  0  0  0  0  0  0  0  0
  -26.2123  -24.4898   21.8397 C   0  0  0  0  0  0  0  0  0  0  0  0
  -27.1991  -14.2690   20.2952 C   0  0  0  0  0  0  0  0  0  0  0  0
  -29.0925  -15.1390   19.5928 C   0  0  0  0  0  0  0  0  0  0  0  0
  -28.6942  -12.8008   18.8039 C   0  0  0  0  0  0  0  0  0  0  0  0
  -27.1576  -29.5588   20.9276 C   0  0  0  0  0  0  0  0  0  0  0  0
  -26.4151  -32.1290   22.7620 C   0  0  0  0  0  0  0  0  0  0  0  0
  -23.9962  -34.0918   24.1560 C   0  0  0  0  0  0  0  0  0  0  0  0
  -27.5850  -20.7719   20.5168 C   0  0  0  0  0  0  0  0  0  0  0  0
  -31.2476  -27.8082   18.4246 C   0  0  0  0  0  0  0  0  0  0  0  0
  -25.5487  -30.7964   19.4323 C   0  0  0  0  0  0  0  0  0  0  0  0
  -24.5207  -30.5621   22.1951 C   0  0  0  0  0  0  0  0  0  0  0  0
  -31.0104  -28.7170   19.6280 C   0  0  0  0  0  0  0  0  0  0  0  0
  -18.8471  -25.8887   23.5573 C   0  0  0  0  0  0  0  0  0  0  0  0
  -19.0836  -27.3786   23.7807 C   0  0  0  0  0  0  0  0  0  0  0  0
  -29.9699  -18.8679   22.4621 C   0  0  0  0  0  0  0  0  0  0  0  0
  -30.0310  -28.0690   20.6015 C   0  0  0  0  0  0  0  0  0  0  0  0
  -20.0065  -25.2422   22.8035 C   0  0  0  0  0  0  0  0  0  0  0  0
  -29.6293  -17.4363   22.0443 C   0  0  0  0  0  0  0  0  0  0  0  0
  -19.3644  -28.1001   22.4685 C   0  0  0  0  0  0  0  0  0  0  0  0
  -28.7127  -19.7255   22.5725 C   0  0  0  0  0  0  0  0  0  0  0  0
  -27.5363  -18.3268   20.9192 C   0  0  0  0  0  0  0  0  0  0  0  0
  -28.6654  -27.8428   19.9415 C   0  0  1  0  0  0  0  0  0  0  0  0
  -26.4749  -30.8666   20.6425 C   0  0  1  0  0  0  0  0  0  0  0  0
  -20.2951  -25.9585   21.4769 C   0  0  1  0  0  0  0  0  0  0  0  0
  -28.7675  -17.4150   20.7680 C   0  0  2  0  0  0  0  0  0  0  0  0
  -20.5259  -27.4622   21.7045 C   0  0  1  0  0  0  0  0  0  1  0  0
  -23.6961  -36.0962   25.6358 C   0  0  0  0  0  0  0  0  0  0  0  0
  -27.0922  -30.4261   25.2016 C   0  0  0  0  0  0  0  0  0  0  0  0
  -25.8928  -32.1051   26.6196 C   0  0  0  0  0  0  0  0  0  0  0  0
  -27.9087  -32.7871   25.3182 C   0  0  0  0  0  0  0  0  0  0  0  0
  -22.6099  -35.6040   22.0228 C   0  0  0  0  0  0  0  0  0  0  0  0
  -27.7157  -23.2351   20.2480 C   0  0  0  0  0  0  0  0  0  0  0  0
  -21.4901  -25.3105   20.7725 C   0  0  0  0  0  0  0  0  0  0  0  0
  -25.7419  -32.3302   24.0982 C   0  0  1  0  0  0  0  0  0  0  0  0
  -23.8263  -35.5995   24.2043 C   0  0  2  0  0  0  0  0  0  0  0  0
  -26.6455  -31.8993   25.2878 C   0  0  0  0  0  0  0  0  0  0  0  0
  -27.2174  -15.4976   20.8189 N   0  0  0  0  0  0  0  0  0  0  0  0
  -28.3811  -16.0015   20.3740 N   0  0  0  0  0  0  0  0  0  0  0  0
  -25.7754  -31.2591   21.8676 N   0  0  0  0  0  0  0  0  0  0  0  0
  -27.9473  -19.6769   21.3188 N   0  0  0  0  0  0  0  0  0  0  0  0
  -30.2848  -15.4849   19.0626 N   0  0  0  0  0  0  0  0  0  0  0  0
  -28.2870  -12.6814   17.4681 N   0  0  0  0  0  0  0  0  0  0  0  0
  -22.6418  -25.4028   21.6027 N   0  0  0  0  0  0  0  0  0  0  0  0
  -27.9223  -29.0831   19.8796 N   0  0  0  0  0  0  0  0  0  0  0  0
  -25.3260  -33.7279   24.1394 N   0  0  0  0  0  0  0  0  0  0  0  0
  -28.0070  -22.0161   20.9690 N   0  0  0  0  0  0  0  0  0  0  0  0
  -22.6060  -36.0077   23.4525 N   0  3  0  0  0  0  0  0  0  0  0  0
  -29.3363  -11.8637   19.3360 O   0  0  0  0  0  0  0  0  0  0  0  0
  -27.0032  -29.0218   22.0183 O   0  0  0  0  0  0  0  0  0  0  0  0
  -27.4658  -32.7274   22.5180 O   0  0  0  0  0  0  0  0  0  0  0  0
  -23.0443  -33.3145   24.1387 O   0  0  0  0  0  0  0  0  0  0  0  0
  -26.9374  -20.6494   19.4714 O   0  0  0  0  0  0  0  0  0  0  0  0
  -22.8754  -10.8627   21.2800 O   0  0  0  0  0  0  0  0  0  0  0  0
  -20.6623  -28.1152   20.4449 O   0  0  0  0  0  0  0  0  0  1  0  0
  -23.5216   -5.5062   20.1426 F   0  0  0  0  0  0  0  0  0  0  0  0
  -23.4605  -10.0183   18.7135 F   0  0  0  0  0  0  0  0  0  0  0  0
  -27.5115  -24.6868   22.9590 Cl  0  0  0  0  0  0  0  0  0  0  0  0
  1  2  1  0  0  0  0
  1  5  2  0  0  0  0
  2  6  2  0  0  0  0
  3 10  2  0  0  0  0
  3 18  1  0  0  0  0
  4 11  1  0  0  0  0
  4 18  2  0  0  0  0
  5 20  1  0  0  0  0
  6 22  1  0  0  0  0
  7 12  2  0  0  0  0
  7 21  1  0  0  0  0
  8  9  2  0  0  0  0
  8 24  1  0  0  0  0
  9 25  1  0  0  0  0
 10 26  1  0  0  0  0
 11 26  2  0  0  0  0
 12 27  1  0  0  0  0
 13 14  2  0  0  0  0
 13 28  1  0  0  0  0
 14 29  1  0  0  0  0
 15 23  1  0  0  0  0
 15 27  2  0  0  0  0
 16 25  2  0  0  0  0
 16 31  1  0  0  0  0
 17 29  2  0  0  0  0
 17 30  1  0  0  0  0
 18 32  1  0  0  0  0
 19 32  1  0  0  0  0
 19 33  2  0  0  0  0
 19 34  1  0  0  0  0
 20 22  2  0  0  0  0
 20 39  1  0  0  0  0
 21 23  2  0  0  0  0
 21 40  1  0  0  0  0
 22 52  1  0  0  0  0
 23 41  1  0  0  0  0
 24 31  2  0  0  0  0
 24 62  1  0  0  0  0
 25 73  1  0  0  0  0
 26 83  1  0  0  0  0
 27 84  1  0  0  0  0
 28 30  2  0  0  0  0
 28 83  1  0  0  0  0
 29 85  1  0  0  0  0
 30 86  1  0  0  0  0
 31 87  1  0  0  0  0
 32 67  2  0  0  0  0
 33 68  1  0  0  0  0
 33 71  1  0  0  0  0
 34 72  1  0  0  0  0
 34 78  2  0  0  0  0
 35 53  1  0  0  0  0
 35 74  1  0  0  0  0
 35 79  2  0  0  0  0
 36 64  1  0  0  0  0
 36 69  1  0  0  0  0
 36 80  2  0  0  0  0
 37 65  1  0  0  0  0
 37 75  1  0  0  0  0
 37 81  2  0  0  0  0
 38 70  1  0  0  0  0
 38 76  1  0  0  0  0
 38 82  2  0  0  0  0
 39 42  1  0  0  0  0
 40 53  1  0  0  0  0
 41 69  1  0  0  0  0
 42 46  1  0  0  0  0
 43 44  1  0  0  0  0
 43 47  1  0  0  0  0
 44 49  1  0  0  0  0
 45 48  1  0  0  0  0
 45 50  1  0  0  0  0
 46 52  1  0  0  0  0
 47 54  1  0  0  0  0
 48 55  1  0  0  0  0
 49 56  1  0  0  0  0
 50 70  1  0  0  0  0
 51 55  1  0  0  0  0
 51 70  1  0  0  0  0
 52 74  1  0  0  0  0
 53 69  1  0  0  0  0
 54 56  1  0  0  0  0
 54 63  1  0  0  0  0
 55 68  1  0  0  0  0
 56 84  1  0  0  0  0
 57 65  1  0  0  0  0
 58 66  1  0  0  0  0
 59 66  1  0  0  0  0
 60 66  1  0  0  0  0
 61 77  1  0  0  0  0
 62 76  1  0  0  0  0
 63 73  1  0  0  0  0
 64 66  1  0  0  0  0
 64 75  1  0  0  0  0
 65 77  1  0  0  0  0
 67 68  1  0  0  0  0
M  CHG  1  77   1
M  ISO  4  38 100  56 101  76 100  84 101
M  END
> <Batch ID>
0021

> <Smiles>
CNC(C)C(=O)NC(C(=O)N1Cc2cc([101O:1][101CH:1]3CCCCC3CNc3ccc(C[100NH:0][100C:0](=O)N4CCCC(n5nc(-c6ccc(Oc7ccc(F)cc7F)cc6)c(C(N)=O)c5N)C4)c(Cl)c3)ccc2CC1C(=O)NC1CCCc2ccccc21)C(C)(C)C

> <Shape>
0.342

> <Color>
0.080

> <Negative vol penalty>
0.000

$$$$

  -OEChem-04042321113D

 89 98  0     1  0  0  0  0  0999 V2000
  -22.6660  -31.5278   26.2903 C   0  0  0  0  0  0  0  0  0  0  0  0
  -23.5933  -30.7099   25.6526 C   0  0  0  0  0  0  0  0  0  0  0  0
  -26.5980  -13.0473   21.3023 C   0  0  0  0  0  0  0  0  0  0  0  0
  -25.2011  -14.3847   19.8542 C   0  0  0  0  0  0  0  0  0  0  0  0
  -21.3022  -31.3319   26.0766 C   0  0  0  0  0  0  0  0  0  0  0  0
  -23.1572  -29.6949   24.8018 C   0  0  0  0  0  0  0  0  0  0  0  0
  -25.8004  -29.5081   20.4863 C   0  0  0  0  0  0  0  0  0  0  0  0
  -31.5769  -23.3529   18.6426 C   0  0  0  0  0  0  0  0  0  0  0  0
  -30.4887  -22.6326   19.1349 C   0  0  0  0  0  0  0  0  0  0  0  0
  -25.6752  -12.0040   21.2290 C   0  0  0  0  0  0  0  0  0  0  0  0
  -24.2782  -13.3413   19.7809 C   0  0  0  0  0  0  0  0  0  0  0  0
  -27.0609  -28.9144   20.5368 C   0  0  0  0  0  0  0  0  0  0  0  0
  -22.6992  -11.2091   22.6206 C   0  0  0  0  0  0  0  0  0  0  0  0
  -22.3582  -10.5618   23.8081 C   0  0  0  0  0  0  0  0  0  0  0  0
  -26.1338  -26.8828   19.6246 C   0  0  0  0  0  0  0  0  0  0  0  0
  -30.9669  -23.4331   21.3637 C   0  0  0  0  0  0  0  0  0  0  0  0
  -23.1708   -8.4741   22.9036 C   0  0  0  0  0  0  0  0  0  0  0  0
  -26.3610  -14.2377   20.6150 C   0  0  0  0  0  0  0  0  0  0  0  0
  -28.4118  -15.5416   19.8394 C   0  0  0  0  0  0  0  0  0  0  0  0
  -20.8495  -30.3202   25.2152 C   0  0  0  0  0  0  0  0  0  0  0  0
  -24.6933  -28.7888   20.0139 C   0  0  0  0  0  0  0  0  0  0  0  0
  -21.7861  -29.4844   24.5774 C   0  0  0  0  0  0  0  0  0  0  0  0
  -24.8609  -27.4705   19.5666 C   0  0  0  0  0  0  0  0  0  0  0  0
  -32.0553  -24.1534   20.8714 C   0  0  0  0  0  0  0  0  0  0  0  0
  -32.3603  -24.1133   19.5109 C   0  0  0  0  0  0  0  0  0  0  0  0
  -30.1836  -22.6726   20.4954 C   0  0  0  0  0  0  0  0  0  0  0  0
  -24.5153  -12.1510   20.4683 C   0  0  0  0  0  0  0  0  0  0  0  0
  -27.2272  -27.6006   20.1086 C   0  0  0  0  0  0  0  0  0  0  0  0
  -23.2760  -10.4888   21.5744 C   0  0  0  0  0  0  0  0  0  0  0  0
  -22.5940   -9.1944   23.9497 C   0  0  0  0  0  0  0  0  0  0  0  0
  -23.5118   -9.1213   21.7160 C   0  0  0  0  0  0  0  0  0  0  0  0
  -27.3136  -15.3161   20.6908 C   0  0  0  0  0  0  0  0  0  0  0  0
  -28.9967  -16.6839   20.3287 C   0  0  0  0  0  0  0  0  0  0  0  0
  -28.8628  -14.7861   18.7073 C   0  0  0  0  0  0  0  0  0  0  0  0
  -21.9303  -27.8440   21.2697 C   0  0  0  0  0  0  0  0  0  0  0  0
  -21.3255  -26.8809   18.2318 C   0  0  0  0  0  0  0  0  0  0  0  0
  -22.5573  -25.9231   15.1966 C   0  0  0  0  0  0  0  0  0  0  0  0
  -28.6380  -21.8726   22.3167 C   0  0  0  0  0  0  0  0  0  0  0  0
  -19.3640  -30.1163   25.0524 C   0  0  0  0  0  0  0  0  0  0  0  0
  -23.3454  -29.4524   19.9407 C   0  0  0  0  0  0  0  0  0  0  0  0
  -23.7082  -26.6619   19.0318 C   0  0  0  0  0  0  0  0  0  0  0  0
  -18.9957  -29.2595   23.8438 C   0  0  0  0  0  0  0  0  0  0  0  0
  -34.8116  -26.1207   17.5426 C   0  0  0  0  0  0  0  0  0  0  0  0
  -35.5907  -25.8420   18.8120 C   0  0  0  0  0  0  0  0  0  0  0  0
  -28.1889  -19.2115   24.6392 C   0  0  0  0  0  0  0  0  0  0  0  0
  -19.8742  -28.0139   23.7848 C   0  0  0  0  0  0  0  0  0  0  0  0
  -28.0115  -17.9794   23.7490 C   0  0  0  0  0  0  0  0  0  0  0  0
  -33.3689  -25.8834   17.9742 C   0  0  0  0  0  0  0  0  0  0  0  0
  -34.8535  -24.6460   19.4035 C   0  0  0  0  0  0  0  0  0  0  0  0
  -27.5348  -20.4504   24.0300 C   0  0  0  0  0  0  0  0  0  0  0  0
  -27.7620  -19.5191   21.7605 C   0  0  0  0  0  0  0  0  0  0  0  0
  -21.3529  -28.3886   23.6278 C   0  0  1  0  0  0  0  0  0  0  0  0
  -22.1895  -28.4570   19.9226 C   0  0  1  0  0  0  0  0  0  0  0  0
  -28.4601  -18.2607   22.3015 C   0  0  2  0  0  0  0  0  0  0  0  0
  -33.7545  -24.4586   24.5094 C   0  0  0  0  0  0  0  0  0  0  0  0
  -21.8190  -25.1604   12.9227 C   0  0  0  0  0  0  0  0  0  0  0  0
  -20.6919  -24.1202   19.3662 C   0  0  0  0  0  0  0  0  0  0  0  0
  -20.8975  -23.1971   17.0480 C   0  0  0  0  0  0  0  0  0  0  0  0
  -19.1383  -24.8889   17.5635 C   0  0  0  0  0  0  0  0  0  0  0  0
  -23.8293  -28.2466   13.8767 C   0  0  0  0  0  0  0  0  0  0  0  0
  -32.8818  -24.9619   21.8275 C   0  0  0  0  0  0  0  0  0  0  0  0
  -30.2711  -26.3111   21.5573 C   0  0  0  0  0  0  0  0  0  0  0  0
  -32.9839  -25.7225   24.1964 C   0  0  0  0  0  0  0  0  0  0  0  0
  -31.2578  -26.6550   22.6629 C   0  0  0  0  0  0  0  0  0  0  0  0
  -29.3443  -27.4613   21.1830 C   0  0  0  0  0  0  0  0  0  1  0  0
  -21.5578  -25.6131   17.4459 C   0  0  1  0  0  0  0  0  0  0  0  0
  -22.2030  -26.3531   13.7845 C   0  0  2  0  0  0  0  0  0  0  0  0
  -20.5929  -24.4691   17.8677 C   0  0  0  0  0  0  0  0  0  0  0  0
  -27.2052  -16.2407   21.6485 N   0  0  0  0  0  0  0  0  0  0  0  0
  -28.2429  -17.0584   21.4019 N   0  0  0  0  0  0  0  0  0  0  0  0
  -33.4555  -24.8334   18.9967 N   0  0  0  0  0  0  0  0  0  0  0  0
  -22.4090  -27.3529   18.9861 N   0  0  0  0  0  0  0  0  0  0  0  0
  -28.0105  -20.6564   22.6603 N   0  0  0  0  0  0  0  0  0  0  0  0
  -30.0772  -17.3945   19.9415 N   0  0  0  0  0  0  0  0  0  0  0  0
  -28.1457  -13.6390   18.3409 N   0  0  0  0  0  0  0  0  0  0  0  0
  -29.0777  -21.9413   20.9951 N   0  0  0  0  0  0  0  0  0  0  0  0
  -21.6368  -28.7630   22.2590 N   0  0  0  0  0  0  0  0  0  0  0  0
  -21.4663  -25.9831   16.0377 N   0  0  0  0  0  0  0  0  0  0  0  0
  -23.3610  -27.0406   13.1464 N   0  3  0  0  0  0  0  0  0  0  0  0
  -32.0896  -25.4774   23.0049 N   0  3  1  0  0  0  0  0  0  0  0  0
  -29.8814  -15.1093   18.0504 O   0  0  0  0  0  0  0  0  0  0  0  0
  -21.9906  -26.6271   21.4015 O   0  0  0  0  0  0  0  0  0  0  0  0
  -20.2255  -27.4360   18.1727 O   0  0  0  0  0  0  0  0  0  0  0  0
  -23.6879  -25.5659   15.5202 O   0  0  0  0  0  0  0  0  0  0  0  0
  -28.7994  -22.7753   23.1419 O   0  0  0  0  0  0  0  0  0  0  0  0
  -23.6147  -11.1330   20.3963 O   0  0  0  0  0  0  0  0  0  0  0  0
  -28.4562  -27.0185   20.1575 O   0  0  0  0  0  0  0  0  0  1  0  0
  -22.2679   -8.5733   25.0908 F   0  0  0  0  0  0  0  0  0  0  0  0
  -24.0666   -8.4243   20.7150 F   0  0  0  0  0  0  0  0  0  0  0  0
  1  2  1  0  0  0  0
  1  5  2  0  0  0  0
  2  6  2  0  0  0  0
  3 10  2  0  0  0  0
  3 18  1  0  0  0  0
  4 11  1  0  0  0  0
  4 18  2  0  0  0  0
  5 20  1  0  0  0  0
  6 22  1  0  0  0  0
  7 12  2  0  0  0  0
  7 21  1  0  0  0  0
  8  9  2  0  0  0  0
  8 25  1  0  0  0  0
  9 26  1  0  0  0  0
 10 27  1  0  0  0  0
 11 27  2  0  0  0  0
 12 28  1  0  0  0  0
 13 14  2  0  0  0  0
 13 29  1  0  0  0  0
 14 30  1  0  0  0  0
 15 23  1  0  0  0  0
 15 28  2  0  0  0  0
 16 24  1  0  0  0  0
 16 26  2  0  0  0  0
 17 30  2  0  0  0  0
 17 31  1  0  0  0  0
 18 32  1  0  0  0  0
 19 32  1  0  0  0  0
 19 33  2  0  0  0  0
 19 34  1  0  0  0  0
 20 22  2  0  0  0  0
 20 39  1  0  0  0  0
 21 23  2  0  0  0  0
 21 40  1  0  0  0  0
 22 52  1  0  0  0  0
 23 41  1  0  0  0  0
 24 25  2  0  0  0  0
 24 61  1  0  0  0  0
 25 71  1  0  0  0  0
 26 76  1  0  0  0  0
 27 86  1  0  0  0  0
 28 87  1  0  0  0  0
 29 31  2  0  0  0  0
 29 86  1  0  0  0  0
 30 88  1  0  0  0  0
 31 89  1  0  0  0  0
 32 69  2  0  0  0  0
 33 70  1  0  0  0  0
 33 74  1  0  0  0  0
 34 75  1  0  0  0  0
 34 81  2  0  0  0  0
 35 53  1  0  0  0  0
 35 77  1  0  0  0  0
 35 82  2  0  0  0  0
 36 66  1  0  0  0  0
 36 72  1  0  0  0  0
 36 83  2  0  0  0  0
 37 67  1  0  0  0  0
 37 78  1  0  0  0  0
 37 84  2  0  0  0  0
 38 73  1  0  0  0  0
 38 76  1  0  0  0  0
 38 85  2  0  0  0  0
 39 42  1  0  0  0  0
 40 53  1  0  0  0  0
 41 72  1  0  0  0  0
 42 46  1  0  0  0  0
 43 44  1  0  0  0  0
 43 48  1  0  0  0  0
 44 49  1  0  0  0  0
 45 47  1  0  0  0  0
 45 50  1  0  0  0  0
 46 52  1  0  0  0  0
 47 54  1  0  0  0  0
 48 71  1  0  0  0  0
 49 71  1  0  0  0  0
 50 73  1  0  0  0  0
 51 54  1  0  0  0  0
 51 73  1  0  0  0  0
 52 77  1  0  0  0  0
 53 72  1  0  0  0  0
 54 70  1  0  0  0  0
 55 63  1  0  0  0  0
 56 67  1  0  0  0  0
 57 68  1  0  0  0  0
 58 68  1  0  0  0  0
 59 68  1  0  0  0  0
 60 79  1  0  0  0  0
 61 80  1  0  0  0  0
 62 64  1  0  0  0  0
 62 65  1  0  0  0  0
 63 80  1  0  0  0  0
 64 80  1  0  0  0  0
 65 87  1  0  0  0  0
 66 68  1  0  0  0  0
 66 78  1  0  0  0  0
 67 79  1  0  0  0  0
 69 70  1  0  0  0  0
M  CHG  2  79   1  80   1
M  ISO  4  38 100  65 101  76 100  87 101
M  END
> <Batch ID>
0021

> <Smiles>
CCN(CC[101CH2:1][101O:1]c1ccc2c(c1)CN(C(=O)C(NC(=O)C(C)NC)C(C)(C)C)C(C(=O)NC1CCCc3ccccc31)C2)Cc1cc([100NH:0][100C:0](=O)N2CCCC(n3nc(-c4ccc(Oc5ccc(F)cc5F)cc4)c(C(N)=O)c3N)C2)ccc1N1CCCC1

> <Shape>
0.220

> <Color>
0.079

> <Negative vol penalty>
0.000

$$$$

  -OEChem-04042321113D

 83 91  0     1  0  0  0  0  0999 V2000
  -16.6306  -29.6430   23.9562 C   0  0  0  0  0  0  0  0  0  0  0  0
  -17.7209  -30.2688   24.5521 C   0  0  0  0  0  0  0  0  0  0  0  0
  -31.3922  -23.4175   16.5672 C   0  0  0  0  0  0  0  0  0  0  0  0
  -29.2301  -22.9944   15.5757 C   0  0  0  0  0  0  0  0  0  0  0  0
  -16.8335  -28.5843   23.0719 C   0  0  0  0  0  0  0  0  0  0  0  0
  -19.0148  -29.8355   24.2648 C   0  0  0  0  0  0  0  0  0  0  0  0
  -25.7019  -32.3057   23.5595 C   0  0  0  0  0  0  0  0  0  0  0  0
  -31.3318  -25.0024   24.3452 C   0  0  0  0  0  0  0  0  0  0  0  0
  -31.4562  -23.6427   24.0601 C   0  0  0  0  0  0  0  0  0  0  0  0
  -32.0128  -23.0281   15.3803 C   0  0  0  0  0  0  0  0  0  0  0  0
  -29.8506  -22.6050   14.3887 C   0  0  0  0  0  0  0  0  0  0  0  0
  -26.9942  -32.0631   24.0230 C   0  0  0  0  0  0  0  0  0  0  0  0
  -32.6427  -24.3712   12.3418 C   0  0  0  0  0  0  0  0  0  0  0  0
  -33.6811  -25.1689   11.8613 C   0  0  0  0  0  0  0  0  0  0  0  0
  -27.2276  -30.2766   22.4190 C   0  0  0  0  0  0  0  0  0  0  0  0
  -29.0733  -24.6334   25.1198 C   0  0  0  0  0  0  0  0  0  0  0  0
  -35.1929  -23.2901   12.0095 C   0  0  0  0  0  0  0  0  0  0  0  0
  -30.0009  -23.4006   16.6650 C   0  0  0  0  0  0  0  0  0  0  0  0
  -28.9420  -25.0987   18.2471 C   0  0  0  0  0  0  0  0  0  0  0  0
  -18.1310  -28.1442   22.7662 C   0  0  0  0  0  0  0  0  0  0  0  0
  -25.1578  -31.5271   22.5279 C   0  0  0  0  0  0  0  0  0  0  0  0
  -19.2352  -28.7691   23.3766 C   0  0  0  0  0  0  0  0  0  0  0  0
  -25.9291  -30.5130   21.9424 C   0  0  0  0  0  0  0  0  0  0  0  0
  -30.1403  -25.4978   24.8752 C   0  0  0  0  0  0  0  0  0  0  0  0
  -30.3892  -22.7783   24.3048 C   0  0  0  0  0  0  0  0  0  0  0  0
  -31.2420  -22.6219   14.2910 C   0  0  0  0  0  0  0  0  0  0  0  0
  -27.7562  -31.0465   23.4547 C   0  0  0  0  0  0  0  0  0  0  0  0
  -32.8794  -23.0330   12.6563 C   0  0  0  0  0  0  0  0  0  0  0  0
  -34.9562  -24.6284   11.6951 C   0  0  0  0  0  0  0  0  0  0  0  0
  -29.1977  -23.2736   24.8347 C   0  0  0  0  0  0  0  0  0  0  0  0
  -34.1545  -22.4925   12.4901 C   0  0  0  0  0  0  0  0  0  0  0  0
  -29.3593  -23.8022   17.8910 C   0  0  0  0  0  0  0  0  0  0  0  0
  -28.3958  -24.9520   19.4987 C   0  0  0  0  0  0  0  0  0  0  0  0
  -29.0394  -26.3259   17.5121 C   0  0  0  0  0  0  0  0  0  0  0  0
  -22.6699  -29.5654   22.2714 C   0  0  0  0  0  0  0  0  0  0  0  0
  -23.5192  -29.5268   19.1410 C   0  0  0  0  0  0  0  0  0  0  0  0
  -25.9625  -29.9513   16.7964 C   0  0  0  0  0  0  0  0  0  0  0  0
  -29.4362  -20.5579   23.6319 C   0  0  0  0  0  0  0  0  0  0  0  0
  -18.2983  -26.9651   21.8407 C   0  0  0  0  0  0  0  0  0  0  0  0
  -23.7720  -31.8190   22.0211 C   0  0  0  0  0  0  0  0  0  0  0  0
  -25.3987  -29.6620   20.8186 C   0  0  0  0  0  0  0  0  0  0  0  0
  -19.7179  -26.8112   21.3009 C   0  0  0  0  0  0  0  0  0  0  0  0
  -26.2002  -21.7630   22.3018 C   0  0  0  0  0  0  0  0  0  0  0  0
  -20.7360  -26.9544   22.4278 C   0  0  0  0  0  0  0  0  0  0  0  0
  -26.6052  -22.4604   21.0045 C   0  0  0  0  0  0  0  0  0  0  0  0
  -27.1616  -20.6344   22.6621 C   0  0  0  0  0  0  0  0  0  0  0  0
  -28.9954  -21.7692   21.4411 C   0  0  0  0  0  0  0  0  0  0  0  0
  -20.6551  -28.3440   23.0711 C   0  0  1  0  0  0  0  0  0  0  0  0
  -23.1310  -30.6284   21.3148 C   0  0  1  0  0  0  0  0  0  0  0  0
  -28.0655  -22.9364   21.0776 C   0  0  1  0  0  0  0  0  0  0  0  0
  -26.3649  -29.8128   14.3233 C   0  0  0  0  0  0  0  0  0  0  0  0
  -23.5768  -26.4816   19.3234 C   0  0  0  0  0  0  0  0  0  0  0  0
  -24.8726  -26.4473   17.1814 C   0  0  0  0  0  0  0  0  0  0  0  0
  -22.5601  -27.3818   17.2233 C   0  0  0  0  0  0  0  0  0  0  0  0
  -31.7759  -20.7133   24.3624 C   0  0  0  0  0  0  0  0  0  0  0  0
  -26.6800  -32.8180   16.6353 C   0  0  0  0  0  0  0  0  0  0  0  0
  -30.5065  -29.2302   24.9331 C   0  0  0  0  0  0  0  0  0  0  0  0
  -31.0675  -27.8133   24.9386 C   0  0  0  0  0  0  0  0  0  0  0  0
  -29.4953  -29.4654   23.8172 C   0  0  0  0  0  0  0  0  0  1  0  0
  -24.4432  -28.6853   18.2942 C   0  0  1  0  0  0  0  0  0  0  0  0
  -25.9780  -30.7152   15.4847 C   0  0  2  0  0  0  0  0  0  0  0  0
  -23.8727  -27.2636   18.0280 C   0  0  0  0  0  0  0  0  0  0  0  0
  -29.1004  -22.8985   18.8398 N   0  0  0  0  0  0  0  0  0  0  0  0
  -28.5148  -23.6282   19.8045 N   0  0  0  0  0  0  0  0  0  0  0  0
  -24.0361  -29.9820   20.3622 N   0  0  0  0  0  0  0  0  0  0  0  0
  -28.5532  -21.0883   22.6690 N   0  0  0  0  0  0  0  0  0  0  0  0
  -27.8303  -25.8276   20.3566 N   0  0  0  0  0  0  0  0  0  0  0  0
  -29.6287  -26.2983   16.2407 N   0  0  0  0  0  0  0  0  0  0  0  0
  -30.0170  -26.8489   25.1590 N   0  0  0  0  0  0  0  0  0  0  0  0
  -21.3093  -29.3271   22.2344 N   0  0  0  0  0  0  0  0  0  0  0  0
  -24.7075  -29.4589   17.0859 N   0  0  0  0  0  0  0  0  0  0  0  0
  -30.5209  -21.3728   24.0084 N   0  0  0  0  0  0  0  0  0  0  0  0
  -26.9538  -31.8395   15.5516 N   0  3  0  0  0  0  0  0  0  0  0  0
  -28.6313  -27.4176   17.9760 O   0  0  0  0  0  0  0  0  0  0  0  0
  -23.4882  -29.0021   22.9889 O   0  0  0  0  0  0  0  0  0  0  0  0
  -22.3831  -29.7771   18.7306 O   0  0  0  0  0  0  0  0  0  0  0  0
  -26.9643  -29.8028   17.4927 O   0  0  0  0  0  0  0  0  0  0  0  0
  -29.3005  -19.4146   24.0848 O   0  0  0  0  0  0  0  0  0  0  0  0
  -31.8472  -22.2421   13.1325 O   0  0  0  0  0  0  0  0  0  0  0  0
  -29.0176  -30.8072   23.9057 O   0  0  0  0  0  0  0  0  0  1  0  0
  -35.9530  -25.3941   11.2321 F   0  0  0  0  0  0  0  0  0  0  0  0
  -28.1656  -22.4519   25.0734 F   0  0  0  0  0  0  0  0  0  0  0  0
  -34.3876  -21.2072   12.7893 F   0  0  0  0  0  0  0  0  0  0  0  0
  1  2  1  0  0  0  0
  1  5  2  0  0  0  0
  2  6  2  0  0  0  0
  3 10  2  0  0  0  0
  3 18  1  0  0  0  0
  4 11  1  0  0  0  0
  4 18  2  0  0  0  0
  5 20  1  0  0  0  0
  6 22  1  0  0  0  0
  7 12  2  0  0  0  0
  7 21  1  0  0  0  0
  8  9  2  0  0  0  0
  8 24  1  0  0  0  0
  9 25  1  0  0  0  0
 10 26  1  0  0  0  0
 11 26  2  0  0  0  0
 12 27  1  0  0  0  0
 13 14  2  0  0  0  0
 13 28  1  0  0  0  0
 14 29  1  0  0  0  0
 15 23  1  0  0  0  0
 15 27  2  0  0  0  0
 16 24  2  0  0  0  0
 16 30  1  0  0  0  0
 17 29  2  0  0  0  0
 17 31  1  0  0  0  0
 18 32  1  0  0  0  0
 19 32  1  0  0  0  0
 19 33  2  0  0  0  0
 19 34  1  0  0  0  0
 20 22  2  0  0  0  0
 20 39  1  0  0  0  0
 21 23  2  0  0  0  0
 21 40  1  0  0  0  0
 22 48  1  0  0  0  0
 23 41  1  0  0  0  0
 24 69  1  0  0  0  0
 25 30  2  0  0  0  0
 25 72  1  0  0  0  0
 26 79  1  0  0  0  0
 27 80  1  0  0  0  0
 28 31  2  0  0  0  0
 28 79  1  0  0  0  0
 29 81  1  0  0  0  0
 30 82  1  0  0  0  0
 31 83  1  0  0  0  0
 32 63  2  0  0  0  0
 33 64  1  0  0  0  0
 33 67  1  0  0  0  0
 34 68  1  0  0  0  0
 34 74  2  0  0  0  0
 35 49  1  0  0  0  0
 35 70  1  0  0  0  0
 35 75  2  0  0  0  0
 36 60  1  0  0  0  0
 36 65  1  0  0  0  0
 36 76  2  0  0  0  0
 37 61  1  0  0  0  0
 37 71  1  0  0  0  0
 37 77  2  0  0  0  0
 38 66  1  0  0  0  0
 38 72  1  0  0  0  0
 38 78  2  0  0  0  0
 39 42  1  0  0  0  0
 40 49  1  0  0  0  0
 41 65  1  0  0  0  0
 42 44  1  0  0  0  0
 43 45  1  0  0  0  0
 43 46  1  0  0  0  0
 44 48  1  0  0  0  0
 45 50  1  0  0  0  0
 46 66  1  0  0  0  0
 47 50  1  0  0  0  0
 47 66  1  0  0  0  0
 48 70  1  0  0  0  0
 49 65  1  0  0  0  0
 50 64  1  0  0  0  0
 51 61  1  0  0  0  0
 52 62  1  0  0  0  0
 53 62  1  0  0  0  0
 54 62  1  0  0  0  0
 55 72  1  0  0  0  0
 56 73  1  0  0  0  0
 57 58  1  0  0  0  0
 57 59  1  0  0  0  0
 58 69  1  0  0  0  0
 59 80  1  0  0  0  0
 60 62  1  0  0  0  0
 60 71  1  0  0  0  0
 61 73  1  0  0  0  0
 63 64  1  0  0  0  0
M  CHG  1  73   1
M  ISO  4  38 100  59 101  72 100  80 101
M  END
> <Batch ID>
0021

> <Smiles>
CNC(C)C(=O)NC(C(=O)N1Cc2cc([101O:1][101CH2:1]CCNc3ccc([100N:0](C)[100C:0](=O)N4CCCC(n5nc(-c6ccc(Oc7ccc(F)cc7F)cc6)c(C(N)=O)c5N)C4)c(F)c3)ccc2CC1C(=O)NC1CCCc2ccccc21)C(C)(C)C

> <Shape>
0.202

> <Color>
0.115

> <Negative vol penalty>
0.000

$$$$
