
  -OEChem-04042321143D

 82 90  0     1  0  0  0  0  0999 V2000
  -39.3964  -28.9430   21.8906 C   0  0  0  0  0  0  0  0  0  0  0  0
  -38.3722  -28.2573   22.5358 C   0  0  0  0  0  0  0  0  0  0  0  0
  -23.0070   -9.8885   19.9649 C   0  0  0  0  0  0  0  0  0  0  0  0
  -23.7378   -9.9140   22.2676 C   0  0  0  0  0  0  0  0  0  0  0  0
  -39.2260  -29.3716   20.5748 C   0  0  0  0  0  0  0  0  0  0  0  0
  -37.1765  -28.0006   21.8658 C   0  0  0  0  0  0  0  0  0  0  0  0
  -35.5522  -23.2518   22.5407 C   0  0  0  0  0  0  0  0  0  0  0  0
  -32.6297  -17.4393   23.5072 C   0  0  0  0  0  0  0  0  0  0  0  0
  -32.0404  -16.5521   22.6065 C   0  0  0  0  0  0  0  0  0  0  0  0
  -22.2463   -8.7473   20.2189 C   0  0  0  0  0  0  0  0  0  0  0  0
  -22.9771   -8.7728   22.5216 C   0  0  0  0  0  0  0  0  0  0  0  0
  -34.9279  -22.9586   23.7523 C   0  0  0  0  0  0  0  0  0  0  0  0
  -23.2354   -5.4411   22.0073 C   0  0  0  0  0  0  0  0  0  0  0  0
  -23.8294   -4.4173   22.7451 C   0  0  0  0  0  0  0  0  0  0  0  0
  -32.7744  -23.1502   22.6822 C   0  0  0  0  0  0  0  0  0  0  0  0
  -30.4510  -18.3240   24.0615 C   0  0  0  0  0  0  0  0  0  0  0  0
  -22.1088   -4.6313   24.4275 C   0  0  0  0  0  0  0  0  0  0  0  0
  -23.7528  -10.4719   20.9892 C   0  0  0  0  0  0  0  0  0  0  0  0
  -24.1262  -12.9912   20.8438 C   0  0  0  0  0  0  0  0  0  0  0  0
  -38.0312  -29.1116   19.8852 C   0  0  0  0  0  0  0  0  0  0  0  0
  -34.7907  -23.5076   21.3912 C   0  0  0  0  0  0  0  0  0  0  0  0
  -36.9894  -28.4273   20.5400 C   0  0  0  0  0  0  0  0  0  0  0  0
  -33.3915  -23.4440   21.4566 C   0  0  0  0  0  0  0  0  0  0  0  0
  -31.8350  -18.3252   24.2348 C   0  0  0  0  0  0  0  0  0  0  0  0
  -30.6564  -16.5510   22.4332 C   0  0  0  0  0  0  0  0  0  0  0  0
  -22.2313   -8.1894   21.4972 C   0  0  0  0  0  0  0  0  0  0  0  0
  -33.5387  -22.9106   23.8238 C   0  0  0  0  0  0  0  0  0  0  0  0
  -22.0780   -6.0602   22.4796 C   0  0  0  0  0  0  0  0  0  0  0  0
  -23.2661   -4.0124   23.9552 C   0  0  0  0  0  0  0  0  0  0  0  0
  -29.8616  -17.4369   23.1607 C   0  0  0  0  0  0  0  0  0  0  0  0
  -21.5147   -5.6552   23.6897 C   0  0  0  0  0  0  0  0  0  0  0  0
  -24.5392  -11.6504   20.7273 C   0  0  0  0  0  0  0  0  0  0  0  0
  -25.2318  -13.7234   20.4857 C   0  0  0  0  0  0  0  0  0  0  0  0
  -22.8568  -13.5269   21.2403 C   0  0  0  0  0  0  0  0  0  0  0  0
  -34.4288  -25.9973   19.4485 C   0  0  0  0  0  0  0  0  0  0  0  0
  -32.6381  -23.9044   17.7352 C   0  0  0  0  0  0  0  0  0  0  0  0
  -30.7454  -21.0649   17.6969 C   0  0  0  0  0  0  0  0  0  0  0  0
  -30.7074  -14.7065   20.7181 C   0  0  0  0  0  0  0  0  0  0  0  0
  -37.8754  -29.6360   18.4797 C   0  0  0  0  0  0  0  0  0  0  0  0
  -35.4799  -23.7962   20.0858 C   0  0  0  0  0  0  0  0  0  0  0  0
  -32.5291  -23.6908   20.2468 C   0  0  0  0  0  0  0  0  0  0  0  0
  -36.7195  -28.9958   17.7154 C   0  0  0  0  0  0  0  0  0  0  0  0
  -29.5944  -12.2778   18.3644 C   0  0  0  0  0  0  0  0  0  0  0  0
  -35.4640  -28.9567   18.5808 C   0  0  0  0  0  0  0  0  0  0  0  0
  -28.1460  -12.0084   18.7789 C   0  0  0  0  0  0  0  0  0  0  0  0
  -30.4968  -12.5102   19.5749 C   0  0  0  0  0  0  0  0  0  0  0  0
  -28.5813  -13.2735   20.9229 C   0  0  0  0  0  0  0  0  0  0  0  0
  -35.6871  -28.1081   19.8385 C   0  0  1  0  0  0  0  0  0  0  0  0
  -34.5944  -24.5462   19.0956 C   0  0  1  0  0  0  0  0  0  0  0  0
  -27.6215  -13.0977   19.7349 C   0  0  2  0  0  0  0  0  0  0  0  0
  -29.3819  -19.6270   16.1572 C   0  0  0  0  0  0  0  0  0  0  0  0
  -30.3855  -25.9611   17.8133 C   0  0  0  0  0  0  0  0  0  0  0  0
  -28.8006  -24.1483   17.1275 C   0  0  0  0  0  0  0  0  0  0  0  0
  -30.6694  -24.8079   15.6124 C   0  0  0  0  0  0  0  0  0  0  0  0
  -32.4886  -18.7178   18.1566 C   0  0  0  0  0  0  0  0  0  0  0  0
  -32.6187  -21.0152   26.7581 C   0  0  0  0  0  0  0  0  0  0  0  0
  -31.6773  -20.1554   25.9232 C   0  0  0  0  0  0  0  0  0  0  0  0
  -33.6314  -21.7804   25.9143 C   0  0  0  0  0  0  0  0  0  1  0  0
  -31.1818  -23.5069   17.7188 C   0  0  1  0  0  0  0  0  0  0  0  0
  -30.7531  -19.8616   16.7714 C   0  0  2  0  0  0  0  0  0  0  0  0
  -30.2752  -24.6032   17.0914 C   0  0  0  0  0  0  0  0  0  0  0  0
  -25.8081  -11.5347   20.3264 N   0  0  0  0  0  0  0  0  0  0  0  0
  -26.2019  -12.8121   20.1878 N   0  0  0  0  0  0  0  0  0  0  0  0
  -33.2497  -23.9752   18.9949 N   0  0  0  0  0  0  0  0  0  0  0  0
  -29.9391  -13.5580   20.4328 N   0  0  0  0  0  0  0  0  0  0  0  0
  -25.4590  -15.0513   20.3997 N   0  0  0  0  0  0  0  0  0  0  0  0
  -21.8299  -12.6338   21.5753 N   0  0  0  0  0  0  0  0  0  0  0  0
  -30.0608  -15.6488   21.5171 N   0  0  0  0  0  0  0  0  0  0  0  0
  -32.4207  -19.2063   25.1303 N   0  0  0  0  0  0  0  0  0  0  0  0
  -35.6174  -26.6989   19.5163 N   0  0  0  0  0  0  0  0  0  0  0  0
  -31.1182  -22.2177   17.0388 N   0  0  0  0  0  0  0  0  0  0  0  0
  -31.1490  -18.6351   17.5197 N   0  3  0  0  0  0  0  0  0  0  0  0
  -22.6345  -14.7608   21.2800 O   0  0  0  0  0  0  0  0  0  0  0  0
  -33.3058  -26.4474   19.6433 O   0  0  0  0  0  0  0  0  0  0  0  0
  -33.2136  -24.1364   16.6691 O   0  0  0  0  0  0  0  0  0  0  0  0
  -30.4357  -20.9902   18.8839 O   0  0  0  0  0  0  0  0  0  0  0  0
  -31.8442  -14.8563   20.2630 O   0  0  0  0  0  0  0  0  0  0  0  0
  -21.4890   -7.0760   21.7455 O   0  0  0  0  0  0  0  0  0  0  0  0
  -32.9268  -22.6252   25.0054 O   0  0  0  0  0  0  0  0  0  1  0  0
  -23.8359   -3.0281   24.6629 F   0  0  0  0  0  0  0  0  0  0  0  0
  -28.5304  -17.4447   23.0017 F   0  0  0  0  0  0  0  0  0  0  0  0
  -20.4022   -6.2454   24.1480 F   0  0  0  0  0  0  0  0  0  0  0  0
  1  2  1  0  0  0  0
  1  5  2  0  0  0  0
  2  6  2  0  0  0  0
  3 10  2  0  0  0  0
  3 18  1  0  0  0  0
  4 11  1  0  0  0  0
  4 18  2  0  0  0  0
  5 20  1  0  0  0  0
  6 22  1  0  0  0  0
  7 12  2  0  0  0  0
  7 21  1  0  0  0  0
  8  9  2  0  0  0  0
  8 24  1  0  0  0  0
  9 25  1  0  0  0  0
 10 26  1  0  0  0  0
 11 26  2  0  0  0  0
 12 27  1  0  0  0  0
 13 14  2  0  0  0  0
 13 28  1  0  0  0  0
 14 29  1  0  0  0  0
 15 23  1  0  0  0  0
 15 27  2  0  0  0  0
 16 24  2  0  0  0  0
 16 30  1  0  0  0  0
 17 29  2  0  0  0  0
 17 31  1  0  0  0  0
 18 32  1  0  0  0  0
 19 32  1  0  0  0  0
 19 33  2  0  0  0  0
 19 34  1  0  0  0  0
 20 22  2  0  0  0  0
 20 39  1  0  0  0  0
 21 23  2  0  0  0  0
 21 40  1  0  0  0  0
 22 48  1  0  0  0  0
 23 41  1  0  0  0  0
 24 69  1  0  0  0  0
 25 30  2  0  0  0  0
 25 68  1  0  0  0  0
 26 78  1  0  0  0  0
 27 79  1  0  0  0  0
 28 31  2  0  0  0  0
 28 78  1  0  0  0  0
 29 80  1  0  0  0  0
 30 81  1  0  0  0  0
 31 82  1  0  0  0  0
 32 62  2  0  0  0  0
 33 63  1  0  0  0  0
 33 66  1  0  0  0  0
 34 67  1  0  0  0  0
 34 73  2  0  0  0  0
 35 49  1  0  0  0  0
 35 70  1  0  0  0  0
 35 74  2  0  0  0  0
 36 59  1  0  0  0  0
 36 64  1  0  0  0  0
 36 75  2  0  0  0  0
 37 60  1  0  0  0  0
 37 71  1  0  0  0  0
 37 76  2  0  0  0  0
 38 65  1  0  0  0  0
 38 68  1  0  0  0  0
 38 77  2  0  0  0  0
 39 42  1  0  0  0  0
 40 49  1  0  0  0  0
 41 64  1  0  0  0  0
 42 44  1  0  0  0  0
 43 45  1  0  0  0  0
 43 46  1  0  0  0  0
 44 48  1  0  0  0  0
 45 50  1  0  0  0  0
 46 65  1  0  0  0  0
 47 50  1  0  0  0  0
 47 65  1  0  0  0  0
 48 70  1  0  0  0  0
 49 64  1  0  0  0  0
 50 63  1  0  0  0  0
 51 60  1  0  0  0  0
 52 61  1  0  0  0  0
 53 61  1  0  0  0  0
 54 61  1  0  0  0  0
 55 72  1  0  0  0  0
 56 57  1  0  0  0  0
 56 58  1  0  0  0  0
 57 69  1  0  0  0  0
 58 79  1  0  0  0  0
 59 61  1  0  0  0  0
 59 71  1  0  0  0  0
 60 72  1  0  0  0  0
 62 63  1  0  0  0  0
M  CHG  1  72   1
M  ISO  4  38 100  58 101  68 100  79 101
M  END
> <Batch ID>
0022

> <Smiles>
CNC(C)C(=O)NC(C(=O)N1Cc2cc([101O:1][101CH2:1]CCNc3ccc([100NH:0][100C:0](=O)N4CCCC(n5nc(-c6ccc(Oc7ccc(F)cc7F)cc6)c(C(N)=O)c5N)C4)c(F)c3)ccc2CC1C(=O)NC1CCCc2ccccc21)C(C)(C)C

> <Shape>
0.207

> <Color>
0.204

> <Negative vol penalty>
0.000

$$$$

  -OEChem-04042321143D

 85 94  0     1  0  0  0  0  0999 V2000
  -28.3853  -23.8723   19.0176 C   0  0  0  0  0  0  0  0  0  0  0  0
  -27.1424  -24.2582   19.5093 C   0  0  0  0  0  0  0  0  0  0  0  0
  -27.8397  -15.8875   21.9220 C   0  0  0  0  0  0  0  0  0  0  0  0
  -25.9863  -16.4717   20.4865 C   0  0  0  0  0  0  0  0  0  0  0  0
  -29.5480  -24.4219   19.5560 C   0  0  0  0  0  0  0  0  0  0  0  0
  -27.0617  -25.1933   20.5406 C   0  0  0  0  0  0  0  0  0  0  0  0
  -23.5124  -28.7071   19.7033 C   0  0  0  0  0  0  0  0  0  0  0  0
  -20.5138  -25.0626   23.8734 C   0  0  0  0  0  0  0  0  0  0  0  0
  -21.2873  -24.0425   24.4274 C   0  0  0  0  0  0  0  0  0  0  0  0
  -27.7585  -14.5643   21.4883 C   0  0  0  0  0  0  0  0  0  0  0  0
  -25.9052  -15.1485   20.0528 C   0  0  0  0  0  0  0  0  0  0  0  0
  -22.1875  -28.3428   19.9396 C   0  0  0  0  0  0  0  0  0  0  0  0
  -28.7023  -12.7669   18.7843 C   0  0  0  0  0  0  0  0  0  0  0  0
  -29.8922  -12.1196   18.4518 C   0  0  0  0  0  0  0  0  0  0  0  0
  -22.2668  -29.4626   22.0748 C   0  0  0  0  0  0  0  0  0  0  0  0
  -29.4645  -10.4590   20.1538 C   0  0  0  0  0  0  0  0  0  0  0  0
  -26.9535  -16.8412   21.4212 C   0  0  0  0  0  0  0  0  0  0  0  0
  -27.8025  -19.2438   21.3015 C   0  0  0  0  0  0  0  0  0  0  0  0
  -29.4811  -25.3715   20.5878 C   0  0  0  0  0  0  0  0  0  0  0  0
  -24.2290  -29.4438   20.6573 C   0  0  0  0  0  0  0  0  0  0  0  0
  -28.2246  -25.7552   21.0942 C   0  0  0  0  0  0  0  0  0  0  0  0
  -23.5998  -29.8372   21.8470 C   0  0  0  0  0  0  0  0  0  0  0  0
  -20.8733  -22.6719   22.4813 C   0  0  0  0  0  0  0  0  0  0  0  0
  -19.9200  -24.8873   22.6235 C   0  0  0  0  0  0  0  0  0  0  0  0
  -21.4670  -22.8472   23.7313 C   0  0  0  0  0  0  0  0  0  0  0  0
  -26.7913  -14.1947   20.5537 C   0  0  0  0  0  0  0  0  0  0  0  0
  -21.5654  -28.7181   21.1267 C   0  0  0  0  0  0  0  0  0  0  0  0
  -27.8934  -12.2603   19.8016 C   0  0  0  0  0  0  0  0  0  0  0  0
  -30.2733  -10.9656   19.1365 C   0  0  0  0  0  0  0  0  0  0  0  0
  -28.2745  -11.1064   20.4863 C   0  0  0  0  0  0  0  0  0  0  0  0
  -20.0998  -23.6920   21.9274 C   0  0  0  0  0  0  0  0  0  0  0  0
  -27.0365  -18.2081   21.8692 C   0  0  0  0  0  0  0  0  0  0  0  0
  -27.5371  -20.3380   22.0881 C   0  0  0  0  0  0  0  0  0  0  0  0
  -28.6758  -19.2190   20.1646 C   0  0  0  0  0  0  0  0  0  0  0  0
  -26.8392  -28.9239   22.3952 C   0  0  0  0  0  0  0  0  0  0  0  0
  -26.4032  -32.0183   23.2655 C   0  0  0  0  0  0  0  0  0  0  0  0
  -24.2612  -34.6487   23.6387 C   0  0  0  0  0  0  0  0  0  0  0  0
  -22.9050  -21.8532   25.5453 C   0  0  0  0  0  0  0  0  0  0  0  0
  -30.7670  -25.9025   21.1701 C   0  0  0  0  0  0  0  0  0  0  0  0
  -25.6491  -29.8518   20.3757 C   0  0  0  0  0  0  0  0  0  0  0  0
  -24.3189  -30.6459   22.8946 C   0  0  0  0  0  0  0  0  0  0  0  0
  -30.5810  -27.1665   22.0056 C   0  0  0  0  0  0  0  0  0  0  0  0
  -26.3018  -21.5239   26.5604 C   0  0  0  0  0  0  0  0  0  0  0  0
  -17.8031  -27.1275   20.5698 C   0  0  0  0  0  0  0  0  0  0  0  0
  -29.4042  -27.0054   22.9627 C   0  0  0  0  0  0  0  0  0  0  0  0
  -26.9467  -20.7357   25.4181 C   0  0  0  0  0  0  0  0  0  0  0  0
  -17.5323  -27.6038   21.9882 C   0  0  0  0  0  0  0  0  0  0  0  0
  -18.5017  -25.7865   20.7715 C   0  0  0  0  0  0  0  0  0  0  0  0
  -24.8735  -21.0569   26.8360 C   0  0  0  0  0  0  0  0  0  0  0  0
  -24.6348  -20.2488   24.5210 C   0  0  0  0  0  0  0  0  0  0  0  0
  -28.0950  -26.7853   22.1952 C   0  0  1  0  0  0  0  0  0  0  0  0
  -26.4438  -30.1616   21.6405 C   0  0  1  0  0  0  0  0  0  0  0  0
  -26.0514  -20.7272   24.1635 C   0  0  2  0  0  0  0  0  0  0  0  0
  -18.7637  -27.1319   22.7740 C   0  0  2  0  0  0  0  0  0  0  0  0
  -21.0504  -21.4000   21.7167 C   0  0  0  0  0  0  0  0  0  0  0  0
  -24.1889  -37.0366   24.4068 C   0  0  0  0  0  0  0  0  0  0  0  0
  -26.5001  -31.0847   26.1688 C   0  0  0  0  0  0  0  0  0  0  0  0
  -25.4947  -33.2788   26.8348 C   0  0  0  0  0  0  0  0  0  0  0  0
  -27.7242  -33.2184   25.7176 C   0  0  0  0  0  0  0  0  0  0  0  0
  -23.4047  -35.6023   20.9711 C   0  0  0  0  0  0  0  0  0  0  0  0
  -19.8891  -28.1642   22.7202 C   0  0  0  0  0  0  0  0  0  1  0  0
  -25.6464  -32.7231   24.3652 C   0  0  1  0  0  0  0  0  0  0  0  0
  -24.3700  -36.1037   23.2195 C   0  0  2  0  0  0  0  0  0  0  0  0
  -26.3281  -32.5594   25.7529 C   0  0  0  0  0  0  0  0  0  0  0  0
  -26.3371  -18.6085   22.9344 N   0  0  0  0  0  0  0  0  0  0  0  0
  -26.6626  -19.9079   23.0422 N   0  0  0  0  0  0  0  0  0  0  0  0
  -19.1543  -25.9001   22.0773 N   0  0  3  0  0  0  0  0  0  0  0  0
  -25.7080  -31.0151   22.5756 N   0  0  0  0  0  0  0  0  0  0  0  0
  -24.0832  -21.0792   25.6032 N   0  0  0  0  0  0  0  0  0  0  0  0
  -27.9688  -21.6165   22.0498 N   0  0  0  0  0  0  0  0  0  0  0  0
  -28.8343  -18.0121   19.4700 N   0  0  0  0  0  0  0  0  0  0  0  0
  -22.2550  -21.8226   24.3120 N   0  0  0  0  0  0  0  0  0  0  0  0
  -27.6052  -28.0382   21.6616 N   0  0  0  0  0  0  0  0  0  0  0  0
  -25.4951  -34.1084   23.9335 N   0  0  0  0  0  0  0  0  0  0  0  0
  -23.3299  -36.4291   22.2031 N   0  3  0  0  0  0  0  0  0  0  0  0
  -29.3099  -20.2330   19.7861 O   0  0  0  0  0  0  0  0  0  0  0  0
  -26.4773  -28.7836   23.5576 O   0  0  0  0  0  0  0  0  0  0  0  0
  -27.5661  -32.3506   23.0226 O   0  0  0  0  0  0  0  0  0  0  0  0
  -23.1885  -34.0522   23.7020 O   0  0  0  0  0  0  0  0  0  0  0  0
  -22.5168  -22.5174   26.5098 O   0  0  0  0  0  0  0  0  0  0  0  0
  -26.7120  -12.9037   20.1301 O   0  0  0  0  0  0  0  0  0  0  0  0
  -20.2726  -28.3632   21.3602 O   0  0  0  0  0  0  0  0  0  1  0  0
  -31.4153  -10.3432   18.8160 F   0  0  0  0  0  0  0  0  0  0  0  0
  -27.5011  -10.6143   21.4638 F   0  0  0  0  0  0  0  0  0  0  0  0
  -19.5275  -23.5223   20.7259 F   0  0  0  0  0  0  0  0  0  0  0  0
  1  2  1  0  0  0  0
  1  5  2  0  0  0  0
  2  6  2  0  0  0  0
  3 10  2  0  0  0  0
  3 17  1  0  0  0  0
  4 11  1  0  0  0  0
  4 17  2  0  0  0  0
  5 19  1  0  0  0  0
  6 21  1  0  0  0  0
  7 12  2  0  0  0  0
  7 20  1  0  0  0  0
  8  9  2  0  0  0  0
  8 24  1  0  0  0  0
  9 25  1  0  0  0  0
 10 26  1  0  0  0  0
 11 26  2  0  0  0  0
 12 27  1  0  0  0  0
 13 14  2  0  0  0  0
 13 28  1  0  0  0  0
 14 29  1  0  0  0  0
 15 22  1  0  0  0  0
 15 27  2  0  0  0  0
 16 29  2  0  0  0  0
 16 30  1  0  0  0  0
 17 32  1  0  0  0  0
 18 32  1  0  0  0  0
 18 33  2  0  0  0  0
 18 34  1  0  0  0  0
 19 21  2  0  0  0  0
 19 39  1  0  0  0  0
 20 22  2  0  0  0  0
 20 40  1  0  0  0  0
 21 51  1  0  0  0  0
 22 41  1  0  0  0  0
 23 25  2  0  0  0  0
 23 31  1  0  0  0  0
 23 55  1  0  0  0  0
 24 31  2  0  0  0  0
 24 67  1  0  0  0  0
 25 72  1  0  0  0  0
 26 81  1  0  0  0  0
 27 82  1  0  0  0  0
 28 30  2  0  0  0  0
 28 81  1  0  0  0  0
 29 83  1  0  0  0  0
 30 84  1  0  0  0  0
 31 85  1  0  0  0  0
 32 65  2  0  0  0  0
 33 66  1  0  0  0  0
 33 70  1  0  0  0  0
 34 71  1  0  0  0  0
 34 76  2  0  0  0  0
 35 52  1  0  0  0  0
 35 73  1  0  0  0  0
 35 77  2  0  0  0  0
 36 62  1  0  0  0  0
 36 68  1  0  0  0  0
 36 78  2  0  0  0  0
 37 63  1  0  0  0  0
 37 74  1  0  0  0  0
 37 79  2  0  0  0  0
 38 69  1  0  0  0  0
 38 72  1  0  0  0  0
 38 80  2  0  0  0  0
 39 42  1  0  0  0  0
 40 52  1  0  0  0  0
 41 68  1  0  0  0  0
 42 45  1  0  0  0  0
 43 46  1  0  0  0  0
 43 49  1  0  0  0  0
 44 47  1  0  0  0  0
 44 48  1  0  0  0  0
 45 51  1  0  0  0  0
 46 53  1  0  0  0  0
 47 54  1  0  0  0  0
 48 67  1  0  0  0  0
 49 69  1  0  0  0  0
 50 53  1  0  0  0  0
 50 69  1  0  0  0  0
 51 73  1  0  0  0  0
 52 68  1  0  0  0  0
 53 66  1  0  0  0  0
 54 61  1  0  0  0  0
 54 67  1  0  0  0  0
 56 63  1  0  0  0  0
 57 64  1  0  0  0  0
 58 64  1  0  0  0  0
 59 64  1  0  0  0  0
 60 75  1  0  0  0  0
 61 82  1  0  0  0  0
 62 64  1  0  0  0  0
 62 74  1  0  0  0  0
 63 75  1  0  0  0  0
 65 66  1  0  0  0  0
M  CHG  1  75   1
M  ISO  4  38 100  61 101  72 100  82 101
M  END
> <Batch ID>
0022

> <Smiles>
CNC(C)C(=O)NC(C(=O)N1Cc2cc([101O:1][101CH2:1]C3CCCN3c3ccc([100NH:0][100C:0](=O)N4CCCC(n5nc(-c6ccc(Oc7ccc(F)cc7F)cc6)c(C(N)=O)c5N)C4)c(C)c3F)ccc2CC1C(=O)NC1CCCc2ccccc21)C(C)(C)C

> <Shape>
0.295

> <Color>
0.058

> <Negative vol penalty>
0.000

$$$$

  -OEChem-04042321143D

 89 99  0     1  0  0  0  0  0999 V2000
  -18.4981  -28.2298   23.3260 C   0  0  0  0  0  0  0  0  0  0  0  0
  -19.8294  -28.2525   23.7261 C   0  0  0  0  0  0  0  0  0  0  0  0
  -24.2128  -13.1874   21.4756 C   0  0  0  0  0  0  0  0  0  0  0  0
  -25.6925  -13.1175   19.5670 C   0  0  0  0  0  0  0  0  0  0  0  0
  -18.1432  -27.6017   22.1341 C   0  0  0  0  0  0  0  0  0  0  0  0
  -20.8077  -27.6577   22.9285 C   0  0  0  0  0  0  0  0  0  0  0  0
  -25.4935  -28.3164   24.2750 C   0  0  0  0  0  0  0  0  0  0  0  0
  -27.3808  -22.5929   26.1714 C   0  0  0  0  0  0  0  0  0  0  0  0
  -27.4259  -21.9632   24.9276 C   0  0  0  0  0  0  0  0  0  0  0  0
  -24.4127  -11.8223   21.6806 C   0  0  0  0  0  0  0  0  0  0  0  0
  -25.8925  -11.7524   19.7720 C   0  0  0  0  0  0  0  0  0  0  0  0
  -26.0522  -27.6928   25.3897 C   0  0  0  0  0  0  0  0  0  0  0  0
  -23.3009   -8.9165   20.3597 C   0  0  0  0  0  0  0  0  0  0  0  0
  -22.1793   -8.1305   20.6239 C   0  0  0  0  0  0  0  0  0  0  0  0
  -27.1777  -26.1258   23.9416 C   0  0  0  0  0  0  0  0  0  0  0  0
  -23.1269   -7.4942   22.7533 C   0  0  0  0  0  0  0  0  0  0  0  0
  -24.8527  -13.8350   20.4188 C   0  0  0  0  0  0  0  0  0  0  0  0
  -23.4252  -15.8955   19.9453 C   0  0  0  0  0  0  0  0  0  0  0  0
  -19.1165  -26.9883   21.3283 C   0  0  0  0  0  0  0  0  0  0  0  0
  -25.7645  -27.8419   22.9835 C   0  0  0  0  0  0  0  0  0  0  0  0
  -20.4726  -27.0397   21.7102 C   0  0  0  0  0  0  0  0  0  0  0  0
  -26.6233  -26.7468   22.8120 C   0  0  0  0  0  0  0  0  0  0  0  0
  -25.0238  -22.1491   24.7465 C   0  0  0  0  0  0  0  0  0  0  0  0
  -26.1573  -23.0007   26.7028 C   0  0  0  0  0  0  0  0  0  0  0  0
  -26.2474  -21.7413   24.2151 C   0  0  0  0  0  0  0  0  0  0  0  0
  -25.2526  -11.1047   20.8289 C   0  0  0  0  0  0  0  0  0  0  0  0
  -26.8921  -26.5956   25.2234 C   0  0  0  0  0  0  0  0  0  0  0  0
  -24.3356   -8.9913   21.2922 C   0  0  0  0  0  0  0  0  0  0  0  0
  -22.0923   -7.4194   21.8207 C   0  0  0  0  0  0  0  0  0  0  0  0
  -24.2486   -8.2801   22.4890 C   0  0  0  0  0  0  0  0  0  0  0  0
  -24.9788  -22.7788   25.9903 C   0  0  0  0  0  0  0  0  0  0  0  0
  -24.6461  -15.2451   20.2061 C   0  0  0  0  0  0  0  0  0  0  0  0
  -23.7619  -17.2214   19.8223 C   0  0  0  0  0  0  0  0  0  0  0  0
  -22.1047  -15.3501   19.8250 C   0  0  0  0  0  0  0  0  0  0  0  0
  -24.0106  -26.6347   20.6234 C   0  0  0  0  0  0  0  0  0  0  0  0
  -26.8106  -26.7784   18.9920 C   0  0  0  0  0  0  0  0  0  0  0  0
  -30.3893  -26.4178   18.7081 C   0  0  0  0  0  0  0  0  0  0  0  0
  -27.3720  -21.1464   22.0408 C   0  0  0  0  0  0  0  0  0  0  0  0
  -18.6779  -26.3295   20.0443 C   0  0  0  0  0  0  0  0  0  0  0  0
  -25.1753  -28.5422   21.7899 C   0  0  0  0  0  0  0  0  0  0  0  0
  -26.9620  -26.2111   21.4457 C   0  0  0  0  0  0  0  0  0  0  0  0
  -19.7105  -25.3502   19.4956 C   0  0  0  0  0  0  0  0  0  0  0  0
  -22.8584  -20.3850   22.3018 C   0  0  0  0  0  0  0  0  0  0  0  0
  -23.6033  -21.4793   21.5584 C   0  0  0  0  0  0  0  0  0  0  0  0
  -27.9448  -19.6786   18.8479 C   0  0  0  0  0  0  0  0  0  0  0  0
  -26.1599  -23.6251   30.2848 C   0  0  0  0  0  0  0  0  0  0  0  0
  -23.4955  -20.4126   23.6828 C   0  0  0  0  0  0  0  0  0  0  0  0
  -23.7233  -22.5991   22.5859 C   0  0  0  0  0  0  0  0  0  0  0  0
  -21.0822  -26.0071   19.4597 C   0  0  0  0  0  0  0  0  0  0  0  0
  -27.0337  -18.4490   18.8454 C   0  0  0  0  0  0  0  0  0  0  0  0
  -26.6234  -24.9903   29.8085 C   0  0  0  0  0  0  0  0  0  0  0  0
  -25.4180  -23.0689   29.0756 C   0  0  0  0  0  0  0  0  0  0  0  0
  -28.5551  -19.9296   20.2257 C   0  0  0  0  0  0  0  0  0  0  0  0
  -26.6773  -18.7753   21.3261 C   0  0  0  0  0  0  0  0  0  0  0  0
  -23.7610  -21.9030   23.9616 C   0  0  0  0  0  0  0  0  0  0  0  0
  -21.5498  -26.3728   20.8741 C   0  0  1  0  0  0  0  0  0  0  0  0
  -25.1098  -27.6564   20.5495 C   0  0  1  0  0  0  0  0  0  0  0  0
  -25.9882  -18.5200   19.9757 C   0  0  2  0  0  0  0  0  0  0  0  0
  -26.9863  -24.7629   28.3307 C   0  0  2  0  0  0  0  0  0  0  0  0
  -31.9298  -26.8953   16.7856 C   0  0  0  0  0  0  0  0  0  0  0  0
  -26.4340  -23.8232   18.3329 C   0  0  0  0  0  0  0  0  0  0  0  0
  -28.8515  -23.7304   17.6885 C   0  0  0  0  0  0  0  0  0  0  0  0
  -27.2850  -25.2146   16.4371 C   0  0  0  0  0  0  0  0  0  0  0  0
  -32.0704  -28.2161   20.3510 C   0  0  0  0  0  0  0  0  0  0  0  0
  -26.6858  -26.0206   27.5218 C   0  0  0  0  0  0  0  0  0  1  0  0
  -27.9773  -25.8428   18.7861 C   0  0  1  0  0  0  0  0  0  0  0  0
  -31.3573  -27.4139   18.0956 C   0  0  2  0  0  0  0  0  0  0  0  0
  -27.6292  -24.6614   17.8371 C   0  0  0  0  0  0  0  0  0  0  0  0
  -25.6812  -16.0882   20.2465 N   0  0  0  0  0  0  0  0  0  0  0  0
  -25.1116  -17.2821   20.0093 N   0  0  0  0  0  0  0  0  0  0  0  0
  -26.1494  -23.6209   27.9362 N   0  0  3  0  0  0  0  0  0  0  0  0
  -26.3562  -26.9260   20.3101 N   0  0  0  0  0  0  0  0  0  0  0  0
  -27.5052  -19.9889   21.2450 N   0  0  0  0  0  0  0  0  0  0  0  0
  -23.0323  -18.3296   19.5734 N   0  0  0  0  0  0  0  0  0  0  0  0
  -21.3144  -15.2526   20.9783 N   0  0  0  0  0  0  0  0  0  0  0  0
  -26.3185  -21.1008   22.9532 N   0  0  0  0  0  0  0  0  0  0  0  0
  -22.7491  -27.1759   20.7819 N   0  0  0  0  0  0  0  0  0  0  0  0
  -29.0881  -26.6700   18.3278 N   0  0  0  0  0  0  0  0  0  0  0  0
  -32.4875  -27.6795   19.0300 N   0  3  0  0  0  0  0  0  0  0  0  0
  -21.6454  -14.9454   18.7300 O   0  0  0  0  0  0  0  0  0  0  0  0
  -24.2864  -25.4435   20.5411 O   0  0  0  0  0  0  0  0  0  0  0  0
  -26.3251  -27.3625   18.0200 O   0  0  0  0  0  0  0  0  0  0  0  0
  -30.7516  -25.5048   19.4469 O   0  0  0  0  0  0  0  0  0  0  0  0
  -28.1193  -22.1183   21.9029 O   0  0  0  0  0  0  0  0  0  0  0  0
  -25.4481   -9.7727   21.0287 O   0  0  0  0  0  0  0  0  0  0  0  0
  -27.4382  -25.9846   26.3098 O   0  0  0  0  0  0  0  0  0  1  0  0
  -21.0145   -6.6658   22.0750 F   0  0  0  0  0  0  0  0  0  0  0  0
  -25.2389   -8.3490   23.3892 F   0  0  0  0  0  0  0  0  0  0  0  0
  -23.4569  -23.2843   26.6503 Cl  0  0  0  0  0  0  0  0  0  0  0  0
  1  2  1  0  0  0  0
  1  5  2  0  0  0  0
  2  6  2  0  0  0  0
  3 10  2  0  0  0  0
  3 17  1  0  0  0  0
  4 11  1  0  0  0  0
  4 17  2  0  0  0  0
  5 19  1  0  0  0  0
  6 21  1  0  0  0  0
  7 12  2  0  0  0  0
  7 20  1  0  0  0  0
  8  9  2  0  0  0  0
  8 24  1  0  0  0  0
  9 25  1  0  0  0  0
 10 26  1  0  0  0  0
 11 26  2  0  0  0  0
 12 27  1  0  0  0  0
 13 14  2  0  0  0  0
 13 28  1  0  0  0  0
 14 29  1  0  0  0  0
 15 22  1  0  0  0  0
 15 27  2  0  0  0  0
 16 29  2  0  0  0  0
 16 30  1  0  0  0  0
 17 32  1  0  0  0  0
 18 32  1  0  0  0  0
 18 33  2  0  0  0  0
 18 34  1  0  0  0  0
 19 21  2  0  0  0  0
 19 39  1  0  0  0  0
 20 22  2  0  0  0  0
 20 40  1  0  0  0  0
 21 56  1  0  0  0  0
 22 41  1  0  0  0  0
 23 25  2  0  0  0  0
 23 31  1  0  0  0  0
 23 55  1  0  0  0  0
 24 31  2  0  0  0  0
 24 71  1  0  0  0  0
 25 76  1  0  0  0  0
 26 85  1  0  0  0  0
 27 86  1  0  0  0  0
 28 30  2  0  0  0  0
 28 85  1  0  0  0  0
 29 87  1  0  0  0  0
 30 88  1  0  0  0  0
 31 89  1  0  0  0  0
 32 69  2  0  0  0  0
 33 70  1  0  0  0  0
 33 74  1  0  0  0  0
 34 75  1  0  0  0  0
 34 80  2  0  0  0  0
 35 57  1  0  0  0  0
 35 77  1  0  0  0  0
 35 81  2  0  0  0  0
 36 66  1  0  0  0  0
 36 72  1  0  0  0  0
 36 82  2  0  0  0  0
 37 67  1  0  0  0  0
 37 78  1  0  0  0  0
 37 83  2  0  0  0  0
 38 73  1  0  0  0  0
 38 76  1  0  0  0  0
 38 84  2  0  0  0  0
 39 42  1  0  0  0  0
 40 57  1  0  0  0  0
 41 72  1  0  0  0  0
 42 49  1  0  0  0  0
 43 44  1  0  0  0  0
 43 47  1  0  0  0  0
 44 48  1  0  0  0  0
 45 50  1  0  0  0  0
 45 53  1  0  0  0  0
 46 51  1  0  0  0  0
 46 52  1  0  0  0  0
 47 55  1  0  0  0  0
 48 55  1  0  0  0  0
 49 56  1  0  0  0  0
 50 58  1  0  0  0  0
 51 59  1  0  0  0  0
 52 71  1  0  0  0  0
 53 73  1  0  0  0  0
 54 58  1  0  0  0  0
 54 73  1  0  0  0  0
 56 77  1  0  0  0  0
 57 72  1  0  0  0  0
 58 70  1  0  0  0  0
 59 65  1  0  0  0  0
 59 71  1  0  0  0  0
 60 67  1  0  0  0  0
 61 68  1  0  0  0  0
 62 68  1  0  0  0  0
 63 68  1  0  0  0  0
 64 79  1  0  0  0  0
 65 86  1  0  0  0  0
 66 68  1  0  0  0  0
 66 78  1  0  0  0  0
 67 79  1  0  0  0  0
 69 70  1  0  0  0  0
M  CHG  1  79   1
M  ISO  4  38 100  65 101  76 100  86 101
M  END
> <Batch ID>
0022

> <Smiles>
CNC(C)C(=O)NC(C(=O)N1Cc2cc([101O:1][101CH2:1]C3CCCN3c3ccc([100NH:0][100C:0](=O)N4CCCC(n5nc(-c6ccc(Oc7ccc(F)cc7F)cc6)c(C(N)=O)c5N)C4)c(C4CCCC4)c3Cl)ccc2CC1C(=O)NC1CCCc2ccccc21)C(C)(C)C

> <Shape>
0.202

> <Color>
0.070

> <Negative vol penalty>
0.000

$$$$

  -OEChem-04042321143D

 84 92  0     1  0  0  0  0  0999 V2000
  -18.4402  -28.4278   22.7882 C   0  0  0  0  0  0  0  0  0  0  0  0
  -19.7179  -28.6707   23.2819 C   0  0  0  0  0  0  0  0  0  0  0  0
  -24.7798  -14.9665   20.7727 C   0  0  0  0  0  0  0  0  0  0  0  0
  -24.9246  -14.3798   23.1119 C   0  0  0  0  0  0  0  0  0  0  0  0
  -18.2270  -27.3787   21.8950 C   0  0  0  0  0  0  0  0  0  0  0  0
  -20.7831  -27.8638   22.8835 C   0  0  0  0  0  0  0  0  0  0  0  0
  -24.9177  -30.5430   21.7123 C   0  0  0  0  0  0  0  0  0  0  0  0
  -26.8159  -25.6640   27.4312 C   0  0  0  0  0  0  0  0  0  0  0  0
  -27.0829  -27.0327   27.4019 C   0  0  0  0  0  0  0  0  0  0  0  0
  -25.5967  -13.8829   20.4503 C   0  0  0  0  0  0  0  0  0  0  0  0
  -25.7415  -13.2961   22.7895 C   0  0  0  0  0  0  0  0  0  0  0  0
  -25.6868  -31.0228   22.7716 C   0  0  0  0  0  0  0  0  0  0  0  0
  -27.9385  -11.4808   19.0468 C   0  0  0  0  0  0  0  0  0  0  0  0
  -28.9716  -11.6944   18.1343 C   0  0  0  0  0  0  0  0  0  0  0  0
  -27.2344  -29.1976   22.4667 C   0  0  0  0  0  0  0  0  0  0  0  0
  -29.9288  -13.3539   19.6065 C   0  0  0  0  0  0  0  0  0  0  0  0
  -24.4437  -15.2150   22.1035 C   0  0  0  0  0  0  0  0  0  0  0  0
  -22.1955  -16.3437   22.5267 C   0  0  0  0  0  0  0  0  0  0  0  0
  -19.2918  -26.5646   21.4780 C   0  0  0  0  0  0  0  0  0  0  0  0
  -25.2960  -29.3789   21.0281 C   0  0  0  0  0  0  0  0  0  0  0  0
  -20.5837  -26.8020   21.9849 C   0  0  0  0  0  0  0  0  0  0  0  0
  -26.4698  -28.7066   21.3974 C   0  0  0  0  0  0  0  0  0  0  0  0
  -25.5181  -25.2017   27.2126 C   0  0  0  0  0  0  0  0  0  0  0  0
  -26.0521  -27.9392   27.1543 C   0  0  0  0  0  0  0  0  0  0  0  0
  -26.0775  -13.0477   21.4586 C   0  0  0  0  0  0  0  0  0  0  0  0
  -26.8438  -30.3484   23.1508 C   0  0  0  0  0  0  0  0  0  0  0  0
  -27.9004  -12.2038   20.2391 C   0  0  0  0  0  0  0  0  0  0  0  0
  -29.9667  -12.6309   18.4141 C   0  0  0  0  0  0  0  0  0  0  0  0
  -28.8956  -13.1403   20.5189 C   0  0  0  0  0  0  0  0  0  0  0  0
  -24.4873  -26.1082   26.9650 C   0  0  0  0  0  0  0  0  0  0  0  0
  -24.7543  -27.4770   26.9358 C   0  0  0  0  0  0  0  0  0  0  0  0
  -23.6004  -16.3346   22.4372 C   0  0  0  0  0  0  0  0  0  0  0  0
  -21.8817  -17.6357   22.8711 C   0  0  0  0  0  0  0  0  0  0  0  0
  -21.2579  -15.2793   22.3173 C   0  0  0  0  0  0  0  0  0  0  0  0
  -23.9876  -26.5176   20.5758 C   0  0  0  0  0  0  0  0  0  0  0  0
  -26.5245  -26.1015   18.5976 C   0  0  0  0  0  0  0  0  0  0  0  0
  -29.7080  -26.9861   17.7435 C   0  0  0  0  0  0  0  0  0  0  0  0
  -24.9412  -21.7981   25.7293 C   0  0  0  0  0  0  0  0  0  0  0  0
  -19.0040  -25.4130   20.5475 C   0  0  0  0  0  0  0  0  0  0  0  0
  -24.4700  -28.8894   19.8703 C   0  0  0  0  0  0  0  0  0  0  0  0
  -26.9304  -27.4638   20.6821 C   0  0  0  0  0  0  0  0  0  0  0  0
  -20.2534  -24.8383   19.8850 C   0  0  0  0  0  0  0  0  0  0  0  0
  -23.4864  -22.1234   22.4316 C   0  0  0  0  0  0  0  0  0  0  0  0
  -21.3581  -24.6329   20.9166 C   0  0  0  0  0  0  0  0  0  0  0  0
  -23.2177  -20.6609   22.0721 C   0  0  0  0  0  0  0  0  0  0  0  0
  -24.7904  -22.2707   23.2101 C   0  0  0  0  0  0  0  0  0  0  0  0
  -24.6016  -19.9747   24.0855 C   0  0  0  0  0  0  0  0  0  0  0  0
  -21.7692  -25.9642   21.5572 C   0  0  1  0  0  0  0  0  0  0  0  0
  -24.6727  -27.4062   19.5765 C   0  0  1  0  0  0  0  0  0  0  0  0
  -23.2857  -19.7563   23.3168 C   0  0  2  0  0  0  0  0  0  0  0  0
  -31.5308  -26.4447   16.1059 C   0  0  0  0  0  0  0  0  0  0  0  0
  -27.1531  -23.5481   20.1452 C   0  0  0  0  0  0  0  0  0  0  0  0
  -29.4392  -23.5753   19.1247 C   0  0  0  0  0  0  0  0  0  0  0  0
  -27.4267  -23.3597   17.6665 C   0  0  0  0  0  0  0  0  0  0  0  0
  -29.7021  -29.7364   16.6504 C   0  0  0  0  0  0  0  0  0  0  0  0
  -25.2842  -23.7253   27.2542 C   0  0  0  0  0  0  0  0  0  0  0  0
  -27.6403  -31.2809   26.5385 C   0  0  0  0  0  0  0  0  0  0  0  0
  -27.6879  -29.8107   26.9367 C   0  0  0  0  0  0  0  0  0  0  0  0
  -26.9113  -31.5171   25.2210 C   0  0  0  0  0  0  0  0  0  1  0  0
  -27.9328  -25.5825   18.7598 C   0  0  1  0  0  0  0  0  0  0  0  0
  -30.3322  -27.3320   16.4036 C   0  0  2  0  0  0  0  0  0  0  0  0
  -27.9785  -24.0387   18.9390 C   0  0  0  0  0  0  0  0  0  0  0  0
  -24.1417  -17.5263   22.7032 N   0  0  0  0  0  0  0  0  0  0  0  0
  -23.0714  -18.2964   22.9631 N   0  0  0  0  0  0  0  0  0  0  0  0
  -26.0854  -27.0211   19.5606 N   0  0  0  0  0  0  0  0  0  0  0  0
  -24.7832  -21.3974   24.3922 N   0  0  0  0  0  0  0  0  0  0  0  0
  -20.7070  -18.2598   23.1011 N   0  0  0  0  0  0  0  0  0  0  0  0
  -21.7502  -14.0142   21.9687 N   0  0  0  0  0  0  0  0  0  0  0  0
  -26.3560  -29.2915   27.1333 N   0  0  0  0  0  0  0  0  0  0  0  0
  -22.6225  -26.7143   20.6607 N   0  0  0  0  0  0  0  0  0  0  0  0
  -28.6837  -26.0729   17.6091 N   0  0  0  0  0  0  0  0  0  0  0  0
  -25.1149  -23.1615   25.9335 N   0  0  0  0  0  0  0  0  0  0  0  0
  -30.7848  -28.7519   16.3942 N   0  3  0  0  0  0  0  0  0  0  0  0
  -20.0193  -15.4492   22.4197 O   0  0  0  0  0  0  0  0  0  0  0  0
  -24.6483  -25.7120   21.2210 O   0  0  0  0  0  0  0  0  0  0  0  0
  -25.8418  -25.7110   17.6474 O   0  0  0  0  0  0  0  0  0  0  0  0
  -30.0933  -27.4740   18.8036 O   0  0  0  0  0  0  0  0  0  0  0  0
  -24.9233  -21.0001   26.6727 O   0  0  0  0  0  0  0  0  0  0  0  0
  -26.8745  -11.9900   21.1444 O   0  0  0  0  0  0  0  0  0  0  0  0
  -27.5959  -30.8142   24.1849 O   0  0  0  0  0  0  0  0  0  1  0  0
  -30.9596  -12.8348   17.5385 F   0  0  0  0  0  0  0  0  0  0  0  0
  -28.8650  -13.8370   21.6633 F   0  0  0  0  0  0  0  0  0  0  0  0
  -22.8838  -25.4998   26.6966 Cl  0  0  0  0  0  0  0  0  0  0  0  0
  -23.4881  -28.6276   26.6295 Cl  0  0  0  0  0  0  0  0  0  0  0  0
  1  2  1  0  0  0  0
  1  5  2  0  0  0  0
  2  6  2  0  0  0  0
  3 10  2  0  0  0  0
  3 17  1  0  0  0  0
  4 11  1  0  0  0  0
  4 17  2  0  0  0  0
  5 19  1  0  0  0  0
  6 21  1  0  0  0  0
  7 12  2  0  0  0  0
  7 20  1  0  0  0  0
  8  9  2  0  0  0  0
  8 23  1  0  0  0  0
  9 24  1  0  0  0  0
 10 25  1  0  0  0  0
 11 25  2  0  0  0  0
 12 26  1  0  0  0  0
 13 14  2  0  0  0  0
 13 27  1  0  0  0  0
 14 28  1  0  0  0  0
 15 22  1  0  0  0  0
 15 26  2  0  0  0  0
 16 28  2  0  0  0  0
 16 29  1  0  0  0  0
 17 32  1  0  0  0  0
 18 32  1  0  0  0  0
 18 33  2  0  0  0  0
 18 34  1  0  0  0  0
 19 21  2  0  0  0  0
 19 39  1  0  0  0  0
 20 22  2  0  0  0  0
 20 40  1  0  0  0  0
 21 48  1  0  0  0  0
 22 41  1  0  0  0  0
 23 30  2  0  0  0  0
 23 56  1  0  0  0  0
 24 31  2  0  0  0  0
 24 69  1  0  0  0  0
 25 79  1  0  0  0  0
 26 80  1  0  0  0  0
 27 29  2  0  0  0  0
 27 79  1  0  0  0  0
 28 81  1  0  0  0  0
 29 82  1  0  0  0  0
 30 31  1  0  0  0  0
 30 83  1  0  0  0  0
 31 84  1  0  0  0  0
 32 63  2  0  0  0  0
 33 64  1  0  0  0  0
 33 67  1  0  0  0  0
 34 68  1  0  0  0  0
 34 74  2  0  0  0  0
 35 49  1  0  0  0  0
 35 70  1  0  0  0  0
 35 75  2  0  0  0  0
 36 60  1  0  0  0  0
 36 65  1  0  0  0  0
 36 76  2  0  0  0  0
 37 61  1  0  0  0  0
 37 71  1  0  0  0  0
 37 77  2  0  0  0  0
 38 66  1  0  0  0  0
 38 72  1  0  0  0  0
 38 78  2  0  0  0  0
 39 42  1  0  0  0  0
 40 49  1  0  0  0  0
 41 65  1  0  0  0  0
 42 44  1  0  0  0  0
 43 45  1  0  0  0  0
 43 46  1  0  0  0  0
 44 48  1  0  0  0  0
 45 50  1  0  0  0  0
 46 66  1  0  0  0  0
 47 50  1  0  0  0  0
 47 66  1  0  0  0  0
 48 70  1  0  0  0  0
 49 65  1  0  0  0  0
 50 64  1  0  0  0  0
 51 61  1  0  0  0  0
 52 62  1  0  0  0  0
 53 62  1  0  0  0  0
 54 62  1  0  0  0  0
 55 73  1  0  0  0  0
 56 72  1  0  0  0  0
 57 58  1  0  0  0  0
 57 59  1  0  0  0  0
 58 69  1  0  0  0  0
 59 80  1  0  0  0  0
 60 62  1  0  0  0  0
 60 71  1  0  0  0  0
 61 73  1  0  0  0  0
 63 64  1  0  0  0  0
M  CHG  1  73   1
M  ISO  4  38 100  59 101  72 100  80 101
M  END
> <Batch ID>
0022

> <Smiles>
CNC(C)C(=O)NC(C(=O)N1Cc2cc([101O:1][101CH2:1]CCNc3ccc(C[100NH:0][100C:0](=O)N4CCCC(n5nc(-c6ccc(Oc7ccc(F)cc7F)cc6)c(C(N)=O)c5N)C4)c(Cl)c3Cl)ccc2CC1C(=O)NC1CCCc2ccccc21)C(C)(C)C

> <Shape>
0.227

> <Color>
0.060

> <Negative vol penalty>
0.000

$$$$

  -OEChem-04042321143D

 84 93  0     1  0  0  0  0  0999 V2000
  -17.2335  -30.9334   24.3553 C   0  0  0  0  0  0  0  0  0  0  0  0
  -18.5400  -31.2934   24.6695 C   0  0  0  0  0  0  0  0  0  0  0  0
  -24.6429  -14.1166   19.9132 C   0  0  0  0  0  0  0  0  0  0  0  0
  -26.2429  -14.2985   21.7143 C   0  0  0  0  0  0  0  0  0  0  0  0
  -16.9843  -29.7424   23.6746 C   0  0  0  0  0  0  0  0  0  0  0  0
  -19.5982  -30.4620   24.3041 C   0  0  0  0  0  0  0  0  0  0  0  0
  -26.4583  -30.7286   22.2586 C   0  0  0  0  0  0  0  0  0  0  0  0
  -30.0640  -25.3431   22.4915 C   0  0  0  0  0  0  0  0  0  0  0  0
  -29.6016  -24.3813   21.5933 C   0  0  0  0  0  0  0  0  0  0  0  0
  -24.7139  -12.7257   19.9906 C   0  0  0  0  0  0  0  0  0  0  0  0
  -26.3139  -12.9076   21.7917 C   0  0  0  0  0  0  0  0  0  0  0  0
  -27.7016  -30.1896   22.5862 C   0  0  0  0  0  0  0  0  0  0  0  0
  -23.4614  -10.2728   21.9520 C   0  0  0  0  0  0  0  0  0  0  0  0
  -22.2631   -9.5597   21.9192 C   0  0  0  0  0  0  0  0  0  0  0  0
  -27.1577  -28.1951   21.3431 C   0  0  0  0  0  0  0  0  0  0  0  0
  -28.2698  -24.7867   24.0108 C   0  0  0  0  0  0  0  0  0  0  0  0
  -23.0006   -8.4124   19.9249 C   0  0  0  0  0  0  0  0  0  0  0  0
  -25.4074  -14.9030   20.7750 C   0  0  0  0  0  0  0  0  0  0  0  0
  -24.4531  -17.1866   21.3933 C   0  0  0  0  0  0  0  0  0  0  0  0
  -18.0407  -28.9007   23.2921 C   0  0  0  0  0  0  0  0  0  0  0  0
  -25.5494  -29.9992   21.4786 C   0  0  0  0  0  0  0  0  0  0  0  0
  -19.3628  -29.2580   23.6187 C   0  0  0  0  0  0  0  0  0  0  0  0
  -25.9045  -28.7281   21.0049 C   0  0  0  0  0  0  0  0  0  0  0  0
  -27.8074  -23.8250   23.1126 C   0  0  0  0  0  0  0  0  0  0  0  0
  -29.3981  -25.5458   23.7003 C   0  0  0  0  0  0  0  0  0  0  0  0
  -28.4733  -23.6223   21.9038 C   0  0  0  0  0  0  0  0  0  0  0  0
  -25.5494  -12.1212   20.9298 C   0  0  0  0  0  0  0  0  0  0  0  0
  -28.0503  -28.9214   22.1309 C   0  0  0  0  0  0  0  0  0  0  0  0
  -24.4293  -10.0558   20.9713 C   0  0  0  0  0  0  0  0  0  0  0  0
  -22.0327   -8.6295   20.9056 C   0  0  0  0  0  0  0  0  0  0  0  0
  -24.1989   -9.1256   19.9577 C   0  0  0  0  0  0  0  0  0  0  0  0
  -25.3349  -16.3398   20.6952 C   0  0  0  0  0  0  0  0  0  0  0  0
  -24.7852  -18.4509   20.9716 C   0  0  0  0  0  0  0  0  0  0  0  0
  -23.4257  -16.8596   22.3384 C   0  0  0  0  0  0  0  0  0  0  0  0
  -22.6263  -28.8381   21.9377 C   0  0  0  0  0  0  0  0  0  0  0  0
  -22.8529  -28.0862   18.7904 C   0  0  0  0  0  0  0  0  0  0  0  0
  -24.8543  -27.4213   16.1072 C   0  0  0  0  0  0  0  0  0  0  0  0
  -28.5800  -22.3352   19.7408 C   0  0  0  0  0  0  0  0  0  0  0  0
  -17.7184  -27.6003   22.5994 C   0  0  0  0  0  0  0  0  0  0  0  0
  -24.2228  -30.6058   21.1116 C   0  0  0  0  0  0  0  0  0  0  0  0
  -24.9726  -27.9126   20.1475 C   0  0  0  0  0  0  0  0  0  0  0  0
  -18.9240  -26.9582   21.9177 C   0  0  0  0  0  0  0  0  0  0  0  0
  -27.7834  -19.9810   17.1912 C   0  0  0  0  0  0  0  0  0  0  0  0
  -30.3113  -27.6483   26.6094 C   0  0  0  0  0  0  0  0  0  0  0  0
  -20.1302  -26.9628   22.8514 C   0  0  0  0  0  0  0  0  0  0  0  0
  -27.0028  -18.8935   17.9330 C   0  0  0  0  0  0  0  0  0  0  0  0
  -31.3537  -28.0287   25.5699 C   0  0  0  0  0  0  0  0  0  0  0  0
  -29.6869  -26.3784   26.0399 C   0  0  0  0  0  0  0  0  0  0  0  0
  -28.9151  -20.5495   18.0455 C   0  0  0  0  0  0  0  0  0  0  0  0
  -27.7305  -19.9367   20.1168 C   0  0  0  0  0  0  0  0  0  0  0  0
  -20.5391  -28.3946   23.2175 C   0  0  1  0  0  0  0  0  0  0  0  0
  -23.1718  -29.5641   20.7406 C   0  0  1  0  0  0  0  0  0  0  0  0
  -26.5394  -19.3793   19.3204 C   0  0  2  0  0  0  0  0  0  0  0  0
  -30.6950  -27.6503   24.2358 C   0  0  2  0  0  0  0  0  0  0  0  0
  -26.5972  -23.0253   23.4719 C   0  0  0  0  0  0  0  0  0  0  0  0
  -24.7503  -26.8041   13.6771 C   0  0  0  0  0  0  0  0  0  0  0  0
  -22.1321  -25.2207   19.5515 C   0  0  0  0  0  0  0  0  0  0  0  0
  -22.9618  -24.4893   17.3054 C   0  0  0  0  0  0  0  0  0  0  0  0
  -21.0277  -26.0562   17.4690 C   0  0  0  0  0  0  0  0  0  0  0  0
  -26.2655  -29.8941   15.2994 C   0  0  0  0  0  0  0  0  0  0  0  0
  -29.8405  -28.7942   23.6913 C   0  0  0  0  0  0  0  0  0  1  0  0
  -23.3510  -26.8944   18.0091 C   0  0  1  0  0  0  0  0  0  0  0  0
  -24.8340  -27.9427   14.6817 C   0  0  2  0  0  0  0  0  0  0  0  0
  -22.3851  -25.6795   18.1015 C   0  0  0  0  0  0  0  0  0  0  0  0
  -26.1647  -17.0097   19.8910 N   0  0  0  0  0  0  0  0  0  0  0  0
  -25.8057  -18.2907   20.0811 N   0  0  0  0  0  0  0  0  0  0  0  0
  -29.8568  -26.4984   24.5905 N   0  0  3  0  0  0  0  0  0  0  0  0
  -23.6845  -28.5465   19.8211 N   0  0  0  0  0  0  0  0  0  0  0  0
  -28.4008  -20.9934   19.3429 N   0  0  0  0  0  0  0  0  0  0  0  0
  -24.3009  -19.6728   21.2794 N   0  0  0  0  0  0  0  0  0  0  0  0
  -23.2173  -15.5112   22.6588 N   0  0  0  0  0  0  0  0  0  0  0  0
  -28.0203  -22.6491   20.9789 N   0  0  0  0  0  0  0  0  0  0  0  0
  -21.2680  -29.0065   22.1271 N   0  0  0  0  0  0  0  0  0  0  0  0
  -23.5876  -27.3675   16.6495 N   0  0  0  0  0  0  0  0  0  0  0  0
  -26.0686  -28.7283   14.3999 N   0  3  0  0  0  0  0  0  0  0  0  0
  -22.7027  -17.7358   22.8703 O   0  0  0  0  0  0  0  0  0  0  0  0
  -23.3817  -28.1730   22.6368 O   0  0  0  0  0  0  0  0  0  0  0  0
  -21.7692  -28.5946   18.4924 O   0  0  0  0  0  0  0  0  0  0  0  0
  -25.8897  -27.0910   16.6810 O   0  0  0  0  0  0  0  0  0  0  0  0
  -29.1617  -23.1528   19.0231 O   0  0  0  0  0  0  0  0  0  0  0  0
  -25.6188  -10.7640   21.0057 O   0  0  0  0  0  0  0  0  0  0  0  0
  -29.2630  -28.3927   22.4497 O   0  0  0  0  0  0  0  0  0  1  0  0
  -20.8825   -7.9436   20.8751 F   0  0  0  0  0  0  0  0  0  0  0  0
  -25.1255   -8.9119   19.0135 F   0  0  0  0  0  0  0  0  0  0  0  0
  1  2  1  0  0  0  0
  1  5  2  0  0  0  0
  2  6  2  0  0  0  0
  3 10  2  0  0  0  0
  3 18  1  0  0  0  0
  4 11  1  0  0  0  0
  4 18  2  0  0  0  0
  5 20  1  0  0  0  0
  6 22  1  0  0  0  0
  7 12  2  0  0  0  0
  7 21  1  0  0  0  0
  8  9  2  0  0  0  0
  8 25  1  0  0  0  0
  9 26  1  0  0  0  0
 10 27  1  0  0  0  0
 11 27  2  0  0  0  0
 12 28  1  0  0  0  0
 13 14  2  0  0  0  0
 13 29  1  0  0  0  0
 14 30  1  0  0  0  0
 15 23  1  0  0  0  0
 15 28  2  0  0  0  0
 16 24  1  0  0  0  0
 16 25  2  0  0  0  0
 17 30  2  0  0  0  0
 17 31  1  0  0  0  0
 18 32  1  0  0  0  0
 19 32  1  0  0  0  0
 19 33  2  0  0  0  0
 19 34  1  0  0  0  0
 20 22  2  0  0  0  0
 20 39  1  0  0  0  0
 21 23  2  0  0  0  0
 21 40  1  0  0  0  0
 22 51  1  0  0  0  0
 23 41  1  0  0  0  0
 24 26  2  0  0  0  0
 24 55  1  0  0  0  0
 25 67  1  0  0  0  0
 26 72  1  0  0  0  0
 27 81  1  0  0  0  0
 28 82  1  0  0  0  0
 29 31  2  0  0  0  0
 29 81  1  0  0  0  0
 30 83  1  0  0  0  0
 31 84  1  0  0  0  0
 32 65  2  0  0  0  0
 33 66  1  0  0  0  0
 33 70  1  0  0  0  0
 34 71  1  0  0  0  0
 34 76  2  0  0  0  0
 35 52  1  0  0  0  0
 35 73  1  0  0  0  0
 35 77  2  0  0  0  0
 36 62  1  0  0  0  0
 36 68  1  0  0  0  0
 36 78  2  0  0  0  0
 37 63  1  0  0  0  0
 37 74  1  0  0  0  0
 37 79  2  0  0  0  0
 38 69  1  0  0  0  0
 38 72  1  0  0  0  0
 38 80  2  0  0  0  0
 39 42  1  0  0  0  0
 40 52  1  0  0  0  0
 41 68  1  0  0  0  0
 42 45  1  0  0  0  0
 43 46  1  0  0  0  0
 43 49  1  0  0  0  0
 44 47  1  0  0  0  0
 44 48  1  0  0  0  0
 45 51  1  0  0  0  0
 46 53  1  0  0  0  0
 47 54  1  0  0  0  0
 48 67  1  0  0  0  0
 49 69  1  0  0  0  0
 50 53  1  0  0  0  0
 50 69  1  0  0  0  0
 51 73  1  0  0  0  0
 52 68  1  0  0  0  0
 53 66  1  0  0  0  0
 54 61  1  0  0  0  0
 54 67  1  0  0  0  0
 56 63  1  0  0  0  0
 57 64  1  0  0  0  0
 58 64  1  0  0  0  0
 59 64  1  0  0  0  0
 60 75  1  0  0  0  0
 61 82  1  0  0  0  0
 62 64  1  0  0  0  0
 62 74  1  0  0  0  0
 63 75  1  0  0  0  0
 65 66  1  0  0  0  0
M  CHG  1  75   1
M  ISO  4  38 100  61 101  72 100  82 101
M  END
> <Batch ID>
0022

> <Smiles>
CNC(C)C(=O)NC(C(=O)N1Cc2cc([101O:1][101CH2:1]C3CCCN3c3ccc([100NH:0][100C:0](=O)N4CCCC(n5nc(-c6ccc(Oc7ccc(F)cc7F)cc6)c(C(N)=O)c5N)C4)c(C)c3)ccc2CC1C(=O)NC1CCCc2ccccc21)C(C)(C)C

> <Shape>
0.238

> <Color>
0.110

> <Negative vol penalty>
0.000

$$$$

  -OEChem-04042321143D

 86 95  0     1  0  0  0  0  0999 V2000
  -35.7206  -13.5632   20.9017 C   0  0  0  0  0  0  0  0  0  0  0  0
  -34.9814  -14.7201   20.6768 C   0  0  0  0  0  0  0  0  0  0  0  0
  -23.3705  -10.2139   22.2059 C   0  0  0  0  0  0  0  0  0  0  0  0
  -23.6233   -9.6056   19.8814 C   0  0  0  0  0  0  0  0  0  0  0  0
  -36.2862  -13.3312   22.1547 C   0  0  0  0  0  0  0  0  0  0  0  0
  -34.8065  -15.6453   21.7054 C   0  0  0  0  0  0  0  0  0  0  0  0
  -35.5013  -20.4187   20.1636 C   0  0  0  0  0  0  0  0  0  0  0  0
  -29.0678  -18.8965   20.9727 C   0  0  0  0  0  0  0  0  0  0  0  0
  -29.2923  -20.1358   20.3733 C   0  0  0  0  0  0  0  0  0  0  0  0
  -22.6389   -9.0480   22.4315 C   0  0  0  0  0  0  0  0  0  0  0  0
  -22.8917   -8.4396   20.1070 C   0  0  0  0  0  0  0  0  0  0  0  0
  -34.4591  -21.0177   19.4573 C   0  0  0  0  0  0  0  0  0  0  0  0
  -23.4338   -5.3778   21.4305 C   0  0  0  0  0  0  0  0  0  0  0  0
  -23.9251   -4.1909   20.8869 C   0  0  0  0  0  0  0  0  0  0  0  0
  -33.7622  -22.1586   21.4653 C   0  0  0  0  0  0  0  0  0  0  0  0
  -29.9836  -17.7909   19.0294 C   0  0  0  0  0  0  0  0  0  0  0  0
  -21.8926   -3.9364   19.6058 C   0  0  0  0  0  0  0  0  0  0  0  0
  -23.8627  -10.4928   20.9309 C   0  0  0  0  0  0  0  0  0  0  0  0
  -24.1837  -13.0231   20.8854 C   0  0  0  0  0  0  0  0  0  0  0  0
  -36.1263  -14.2586   23.1963 C   0  0  0  0  0  0  0  0  0  0  0  0
  -35.6754  -20.6770   21.5308 C   0  0  0  0  0  0  0  0  0  0  0  0
  -35.3695  -15.4249   22.9739 C   0  0  0  0  0  0  0  0  0  0  0  0
  -34.8089  -21.5635   22.1860 C   0  0  0  0  0  0  0  0  0  0  0  0
  -29.4135  -17.7240   20.3007 C   0  0  0  0  0  0  0  0  0  0  0  0
  -29.8624  -20.2028   19.1021 C   0  0  0  0  0  0  0  0  0  0  0  0
  -22.3995   -8.1608   21.3820 C   0  0  0  0  0  0  0  0  0  0  0  0
  -33.5877  -21.8856   20.1088 C   0  0  0  0  0  0  0  0  0  0  0  0
  -22.1719   -5.8439   21.0618 C   0  0  0  0  0  0  0  0  0  0  0  0
  -23.1545   -3.4702   19.9745 C   0  0  0  0  0  0  0  0  0  0  0  0
  -30.2080  -19.0303   18.4301 C   0  0  0  0  0  0  0  0  0  0  0  0
  -21.4013   -5.1233   20.1494 C   0  0  0  0  0  0  0  0  0  0  0  0
  -24.6180  -11.6973   20.6971 C   0  0  0  0  0  0  0  0  0  0  0  0
  -25.2633  -13.7924   20.5260 C   0  0  0  0  0  0  0  0  0  0  0  0
  -22.9176  -13.5152   21.3443 C   0  0  0  0  0  0  0  0  0  0  0  0
  -35.6122  -18.9114   24.1732 C   0  0  0  0  0  0  0  0  0  0  0  0
  -36.5799  -21.6723   25.5742 C   0  0  0  0  0  0  0  0  0  0  0  0
  -36.5135  -25.2534   26.0085 C   0  0  0  0  0  0  0  0  0  0  0  0
  -30.8746  -14.5295   21.0618 C   0  0  0  0  0  0  0  0  0  0  0  0
  -36.7168  -13.9417   24.5475 C   0  0  0  0  0  0  0  0  0  0  0  0
  -36.8207  -20.0437   22.2723 C   0  0  0  0  0  0  0  0  0  0  0  0
  -34.9650  -21.8899   23.6481 C   0  0  0  0  0  0  0  0  0  0  0  0
  -36.7996  -15.1514   25.4749 C   0  0  0  0  0  0  0  0  0  0  0  0
  -29.5765  -12.5652   18.2055 C   0  0  0  0  0  0  0  0  0  0  0  0
  -29.6921  -23.0795   16.8848 C   0  0  0  0  0  0  0  0  0  0  0  0
  -35.4858  -15.9264   25.4600 C   0  0  0  0  0  0  0  0  0  0  0  0
  -28.1587  -12.2183   18.6567 C   0  0  0  0  0  0  0  0  0  0  0  0
  -30.3581  -23.7420   18.0777 C   0  0  0  0  0  0  0  0  0  0  0  0
  -30.0498  -21.6087   17.0600 C   0  0  0  0  0  0  0  0  0  0  0  0
  -30.5200  -12.7484   19.3904 C   0  0  0  0  0  0  0  0  0  0  0  0
  -28.6260  -13.3941   20.8430 C   0  0  0  0  0  0  0  0  0  0  0  0
  -35.1783  -16.4641   24.0573 C   0  0  1  0  0  0  0  0  0  0  0  0
  -36.5937  -19.9788   23.7795 C   0  0  1  0  0  0  0  0  0  0  0  0
  -27.6395  -13.2486   19.6746 C   0  0  2  0  0  0  0  0  0  0  0  0
  -30.1868  -22.7178   19.2131 C   0  0  2  0  0  0  0  0  0  0  0  0
  -37.8664  -26.7401   27.5108 C   0  0  0  0  0  0  0  0  0  0  0  0
  -34.2360  -21.3683   27.5038 C   0  0  0  0  0  0  0  0  0  0  0  0
  -34.5311  -23.7739   28.1316 C   0  0  0  0  0  0  0  0  0  0  0  0
  -36.3659  -22.1399   28.5632 C   0  0  0  0  0  0  0  0  0  0  0  0
  -31.2967  -16.6952   22.1624 C   0  0  0  0  0  0  0  0  0  0  0  0
  -37.4263  -26.9146   23.7356 C   0  0  0  0  0  0  0  0  0  0  0  0
  -29.1736  -16.3989   20.9415 C   0  0  0  0  0  0  0  0  0  0  0  0
  -31.3847  -22.7803   20.1551 C   0  0  0  0  0  0  0  0  0  1  0  0
  -35.8816  -22.8612   26.1889 C   0  0  1  0  0  0  0  0  0  0  0  0
  -37.7124  -26.1795   26.1055 C   0  0  2  0  0  0  0  0  0  0  0  0
  -35.2493  -22.5284   27.5698 C   0  0  0  0  0  0  0  0  0  0  0  0
  -25.8754  -11.6249   20.2524 N   0  0  0  0  0  0  0  0  0  0  0  0
  -26.2404  -12.9149   20.1583 N   0  0  0  0  0  0  0  0  0  0  0  0
  -30.0835  -21.4307   18.5109 N   0  0  3  0  0  0  0  0  0  0  0  0
  -36.0962  -21.2407   24.3310 N   0  0  0  0  0  0  0  0  0  0  0  0
  -29.9820  -13.7001   20.3631 N   0  0  0  0  0  0  0  0  0  0  0  0
  -25.4625  -15.1272   20.4918 N   0  0  0  0  0  0  0  0  0  0  0  0
  -22.7366  -13.7135   22.7199 N   0  0  0  0  0  0  0  0  0  0  0  0
  -35.9776  -17.6382   23.7796 N   0  0  0  0  0  0  0  0  0  0  0  0
  -36.8652  -23.9381   26.2261 N   0  0  0  0  0  0  0  0  0  0  0  0
  -30.4048  -15.7946   21.4459 N   0  0  0  0  0  0  0  0  0  0  0  0
  -37.5638  -27.3203   25.1582 N   0  3  0  0  0  0  0  0  0  0  0  0
  -21.9693  -13.7560   20.5594 O   0  0  0  0  0  0  0  0  0  0  0  0
  -34.5991  -19.2199   24.7898 O   0  0  0  0  0  0  0  0  0  0  0  0
  -37.5246  -21.1504   26.1717 O   0  0  0  0  0  0  0  0  0  0  0  0
  -35.3778  -25.6570   25.7678 O   0  0  0  0  0  0  0  0  0  0  0  0
  -32.0288  -14.1640   21.3188 O   0  0  0  0  0  0  0  0  0  0  0  0
  -21.6858   -7.0229   21.6018 O   0  0  0  0  0  0  0  0  0  0  0  0
  -32.5692  -22.4711   19.4219 O   0  0  0  0  0  0  0  0  0  1  0  0
  -23.6270   -2.3312   19.4514 F   0  0  0  0  0  0  0  0  0  0  0  0
  -30.7566  -19.0830   17.2079 F   0  0  0  0  0  0  0  0  0  0  0  0
  -20.1887   -5.5667   19.7905 F   0  0  0  0  0  0  0  0  0  0  0  0
  1  2  1  0  0  0  0
  1  5  2  0  0  0  0
  2  6  2  0  0  0  0
  3 10  2  0  0  0  0
  3 18  1  0  0  0  0
  4 11  1  0  0  0  0
  4 18  2  0  0  0  0
  5 20  1  0  0  0  0
  6 22  1  0  0  0  0
  7 12  2  0  0  0  0
  7 21  1  0  0  0  0
  8  9  2  0  0  0  0
  8 24  1  0  0  0  0
  9 25  1  0  0  0  0
 10 26  1  0  0  0  0
 11 26  2  0  0  0  0
 12 27  1  0  0  0  0
 13 14  2  0  0  0  0
 13 28  1  0  0  0  0
 14 29  1  0  0  0  0
 15 23  1  0  0  0  0
 15 27  2  0  0  0  0
 16 24  2  0  0  0  0
 16 30  1  0  0  0  0
 17 29  2  0  0  0  0
 17 31  1  0  0  0  0
 18 32  1  0  0  0  0
 19 32  1  0  0  0  0
 19 33  2  0  0  0  0
 19 34  1  0  0  0  0
 20 22  2  0  0  0  0
 20 39  1  0  0  0  0
 21 23  2  0  0  0  0
 21 40  1  0  0  0  0
 22 51  1  0  0  0  0
 23 41  1  0  0  0  0
 24 61  1  0  0  0  0
 25 30  2  0  0  0  0
 25 68  1  0  0  0  0
 26 82  1  0  0  0  0
 27 83  1  0  0  0  0
 28 31  2  0  0  0  0
 28 82  1  0  0  0  0
 29 84  1  0  0  0  0
 30 85  1  0  0  0  0
 31 86  1  0  0  0  0
 32 66  2  0  0  0  0
 33 67  1  0  0  0  0
 33 71  1  0  0  0  0
 34 72  1  0  0  0  0
 34 77  2  0  0  0  0
 35 52  1  0  0  0  0
 35 73  1  0  0  0  0
 35 78  2  0  0  0  0
 36 63  1  0  0  0  0
 36 69  1  0  0  0  0
 36 79  2  0  0  0  0
 37 64  1  0  0  0  0
 37 74  1  0  0  0  0
 37 80  2  0  0  0  0
 38 70  1  0  0  0  0
 38 75  1  0  0  0  0
 38 81  2  0  0  0  0
 39 42  1  0  0  0  0
 40 52  1  0  0  0  0
 41 69  1  0  0  0  0
 42 45  1  0  0  0  0
 43 46  1  0  0  0  0
 43 49  1  0  0  0  0
 44 47  1  0  0  0  0
 44 48  1  0  0  0  0
 45 51  1  0  0  0  0
 46 53  1  0  0  0  0
 47 54  1  0  0  0  0
 48 68  1  0  0  0  0
 49 70  1  0  0  0  0
 50 53  1  0  0  0  0
 50 70  1  0  0  0  0
 51 73  1  0  0  0  0
 52 69  1  0  0  0  0
 53 67  1  0  0  0  0
 54 62  1  0  0  0  0
 54 68  1  0  0  0  0
 55 64  1  0  0  0  0
 56 65  1  0  0  0  0
 57 65  1  0  0  0  0
 58 65  1  0  0  0  0
 59 75  1  0  0  0  0
 60 76  1  0  0  0  0
 61 75  1  0  0  0  0
 62 83  1  0  0  0  0
 63 65  1  0  0  0  0
 63 74  1  0  0  0  0
 64 76  1  0  0  0  0
 66 67  1  0  0  0  0
M  CHG  1  76   1
M  ISO  4  38 100  62 101  75 100  83 101
M  END
> <Batch ID>
0022

> <Smiles>
CNC(C)C(=O)NC(C(=O)N1Cc2cc([101O:1][101CH2:1]C3CCCN3c3ccc(C[100N:0](C)[100C:0](=O)N4CCCC(n5nc(-c6ccc(Oc7ccc(F)cc7F)cc6)c(C(N)=O)c5N)C4)cc3F)ccc2CC1C(=O)NC1CCCc2ccccc21)C(C)(C)C

> <Shape>
0.199

> <Color>
0.161

> <Negative vol penalty>
0.000

$$$$

  -OEChem-04042321143D

 83 91  0     1  0  0  0  0  0999 V2000
  -28.3285  -38.0351   24.2571 C   0  0  0  0  0  0  0  0  0  0  0  0
  -28.7517  -36.9823   23.4522 C   0  0  0  0  0  0  0  0  0  0  0  0
  -26.4991  -12.5879   21.6264 C   0  0  0  0  0  0  0  0  0  0  0  0
  -26.1070  -13.6197   19.4773 C   0  0  0  0  0  0  0  0  0  0  0  0
  -27.4171  -37.8016   25.2860 C   0  0  0  0  0  0  0  0  0  0  0  0
  -28.2645  -35.6951   23.6764 C   0  0  0  0  0  0  0  0  0  0  0  0
  -27.1077  -31.4095   19.4573 C   0  0  0  0  0  0  0  0  0  0  0  0
  -29.0467  -22.6258   19.6565 C   0  0  0  0  0  0  0  0  0  0  0  0
  -28.5588  -23.6722   18.8738 C   0  0  0  0  0  0  0  0  0  0  0  0
  -25.2362  -11.9981   21.5737 C   0  0  0  0  0  0  0  0  0  0  0  0
  -24.8441  -13.0299   19.4245 C   0  0  0  0  0  0  0  0  0  0  0  0
  -27.8403  -30.3103   19.0115 C   0  0  0  0  0  0  0  0  0  0  0  0
  -23.7877   -9.3441   20.0601 C   0  0  0  0  0  0  0  0  0  0  0  0
  -23.6854   -7.9985   20.4128 C   0  0  0  0  0  0  0  0  0  0  0  0
  -26.6178  -28.8879   20.5285 C   0  0  0  0  0  0  0  0  0  0  0  0
  -28.7901  -21.1113   17.7917 C   0  0  0  0  0  0  0  0  0  0  0  0
  -22.1565   -8.5806   22.1906 C   0  0  0  0  0  0  0  0  0  0  0  0
  -26.9345  -13.3987   20.5782 C   0  0  0  0  0  0  0  0  0  0  0  0
  -29.4489  -13.4719   20.1537 C   0  0  0  0  0  0  0  0  0  0  0  0
  -26.9111  -36.5127   25.5169 C   0  0  0  0  0  0  0  0  0  0  0  0
  -26.1306  -31.2578   20.4515 C   0  0  0  0  0  0  0  0  0  0  0  0
  -27.3465  -35.4440   24.7103 C   0  0  0  0  0  0  0  0  0  0  0  0
  -25.8724  -29.9863   20.9834 C   0  0  0  0  0  0  0  0  0  0  0  0
  -29.1624  -21.3453   19.1154 C   0  0  0  0  0  0  0  0  0  0  0  0
  -28.1865  -23.4382   17.5501 C   0  0  0  0  0  0  0  0  0  0  0  0
  -24.4087  -12.2191   20.4727 C   0  0  0  0  0  0  0  0  0  0  0  0
  -27.5974  -29.0497   19.5492 C   0  0  0  0  0  0  0  0  0  0  0  0
  -23.0744  -10.3080   20.7727 C   0  0  0  0  0  0  0  0  0  0  0  0
  -22.8698   -7.6167   21.4780 C   0  0  0  0  0  0  0  0  0  0  0  0
  -28.3022  -22.1577   17.0090 C   0  0  0  0  0  0  0  0  0  0  0  0
  -22.2588   -9.9263   21.8379 C   0  0  0  0  0  0  0  0  0  0  0  0
  -28.2388  -14.0087   20.6324 C   0  0  0  0  0  0  0  0  0  0  0  0
  -30.3882  -14.4315   20.4421 C   0  0  0  0  0  0  0  0  0  0  0  0
  -29.7013  -12.2178   19.5061 C   0  0  0  0  0  0  0  0  0  0  0  0
  -25.7265  -32.3961   23.3917 C   0  0  0  0  0  0  0  0  0  0  0  0
  -22.8610  -30.8934   23.1599 C   0  0  0  0  0  0  0  0  0  0  0  0
  -20.9842  -28.4426   21.7046 C   0  0  0  0  0  0  0  0  0  0  0  0
  -30.0704  -20.3446   21.2416 C   0  0  0  0  0  0  0  0  0  0  0  0
  -25.9638  -36.3008   26.6712 C   0  0  0  0  0  0  0  0  0  0  0  0
  -25.3304  -32.4489   20.9025 C   0  0  0  0  0  0  0  0  0  0  0  0
  -24.8201  -29.7667   22.0384 C   0  0  0  0  0  0  0  0  0  0  0  0
  -25.2094  -34.9754   26.6045 C   0  0  0  0  0  0  0  0  0  0  0  0
  -31.3155  -17.9463   23.5599 C   0  0  0  0  0  0  0  0  0  0  0  0
  -26.1655  -33.8328   26.2771 C   0  0  0  0  0  0  0  0  0  0  0  0
  -30.7830  -16.6148   23.0253 C   0  0  0  0  0  0  0  0  0  0  0  0
  -30.3084  -19.0786   23.3665 C   0  0  0  0  0  0  0  0  0  0  0  0
  -29.2779  -17.9075   21.4598 C   0  0  0  0  0  0  0  0  0  0  0  0
  -26.8218  -34.0382   24.9065 C   0  0  1  0  0  0  0  0  0  0  0  0
  -24.7162  -32.2667   22.2870 C   0  0  1  0  0  0  0  0  0  0  0  0
  -30.2833  -16.7499   21.5735 C   0  0  2  0  0  0  0  0  0  0  0  0
  -18.6870  -27.4335   21.7472 C   0  0  0  0  0  0  0  0  0  0  0  0
  -23.5380  -29.4686   25.7717 C   0  0  0  0  0  0  0  0  0  0  0  0
  -21.7139  -27.8290   25.2690 C   0  0  0  0  0  0  0  0  0  0  0  0
  -21.1666  -30.2416   25.5893 C   0  0  0  0  0  0  0  0  0  0  0  0
  -27.3043  -24.2478   15.3761 C   0  0  0  0  0  0  0  0  0  0  0  0
  -20.5032  -29.1303   18.8665 C   0  0  0  0  0  0  0  0  0  0  0  0
  -28.8778  -26.5714   17.2541 C   0  0  0  0  0  0  0  0  0  0  0  0
  -27.5504  -25.8242   17.3004 C   0  0  0  0  0  0  0  0  0  0  0  0
  -28.7728  -28.0031   17.7662 C   0  0  0  0  0  0  0  0  0  1  0  0
  -22.3510  -29.5089   23.4792 C   0  0  1  0  0  0  0  0  0  0  0  0
  -19.5937  -28.4663   21.0960 C   0  0  2  0  0  0  0  0  0  0  0  0
  -22.2136  -29.2662   25.0088 C   0  0  0  0  0  0  0  0  0  0  0  0
  -28.3924  -15.2158   21.1833 N   0  0  0  0  0  0  0  0  0  0  0  0
  -29.7101  -15.4452   21.0526 N   0  0  0  0  0  0  0  0  0  0  0  0
  -24.0687  -30.9636   22.4510 N   0  0  0  0  0  0  0  0  0  0  0  0
  -29.8832  -19.1490   21.9669 N   0  0  0  0  0  0  0  0  0  0  0  0
  -31.7198  -14.4987   20.2306 N   0  0  0  0  0  0  0  0  0  0  0  0
  -28.6228  -11.3500   19.2870 N   0  0  0  0  0  0  0  0  0  0  0  0
  -29.6577  -20.2825   19.9110 N   0  0  0  0  0  0  0  0  0  0  0  0
  -25.8997  -33.6892   23.8471 N   0  0  0  0  0  0  0  0  0  0  0  0
  -21.1062  -29.3508   22.7350 N   0  0  0  0  0  0  0  0  0  0  0  0
  -27.6955  -24.4918   16.7658 N   0  0  3  0  0  0  0  0  0  0  0  0
  -19.6625  -28.1771   19.6356 N   0  3  0  0  0  0  0  0  0  0  0  0
  -30.8519  -11.8699   19.1475 O   0  0  0  0  0  0  0  0  0  0  0  0
  -26.3048  -31.3965   23.8017 O   0  0  0  0  0  0  0  0  0  0  0  0
  -22.2082  -31.8763   23.5197 O   0  0  0  0  0  0  0  0  0  0  0  0
  -21.8721  -27.6910   21.3082 O   0  0  0  0  0  0  0  0  0  0  0  0
  -30.5858  -21.3411   21.7549 O   0  0  0  0  0  0  0  0  0  0  0  0
  -23.1764  -11.6435   20.4208 O   0  0  0  0  0  0  0  0  0  0  0  0
  -28.3115  -27.9752   19.1163 O   0  0  0  0  0  0  0  0  0  1  0  0
  -22.7705   -6.3243   21.8156 F   0  0  0  0  0  0  0  0  0  0  0  0
  -27.9456  -21.9214   15.7384 F   0  0  0  0  0  0  0  0  0  0  0  0
  -21.5702  -10.8477   22.5254 F   0  0  0  0  0  0  0  0  0  0  0  0
  1  2  1  0  0  0  0
  1  5  2  0  0  0  0
  2  6  2  0  0  0  0
  3 10  2  0  0  0  0
  3 18  1  0  0  0  0
  4 11  1  0  0  0  0
  4 18  2  0  0  0  0
  5 20  1  0  0  0  0
  6 22  1  0  0  0  0
  7 12  2  0  0  0  0
  7 21  1  0  0  0  0
  8  9  2  0  0  0  0
  8 24  1  0  0  0  0
  9 25  1  0  0  0  0
 10 26  1  0  0  0  0
 11 26  2  0  0  0  0
 12 27  1  0  0  0  0
 13 14  2  0  0  0  0
 13 28  1  0  0  0  0
 14 29  1  0  0  0  0
 15 23  1  0  0  0  0
 15 27  2  0  0  0  0
 16 24  2  0  0  0  0
 16 30  1  0  0  0  0
 17 29  2  0  0  0  0
 17 31  1  0  0  0  0
 18 32  1  0  0  0  0
 19 32  1  0  0  0  0
 19 33  2  0  0  0  0
 19 34  1  0  0  0  0
 20 22  2  0  0  0  0
 20 39  1  0  0  0  0
 21 23  2  0  0  0  0
 21 40  1  0  0  0  0
 22 48  1  0  0  0  0
 23 41  1  0  0  0  0
 24 69  1  0  0  0  0
 25 30  2  0  0  0  0
 25 72  1  0  0  0  0
 26 79  1  0  0  0  0
 27 80  1  0  0  0  0
 28 31  2  0  0  0  0
 28 79  1  0  0  0  0
 29 81  1  0  0  0  0
 30 82  1  0  0  0  0
 31 83  1  0  0  0  0
 32 63  2  0  0  0  0
 33 64  1  0  0  0  0
 33 67  1  0  0  0  0
 34 68  1  0  0  0  0
 34 74  2  0  0  0  0
 35 49  1  0  0  0  0
 35 70  1  0  0  0  0
 35 75  2  0  0  0  0
 36 60  1  0  0  0  0
 36 65  1  0  0  0  0
 36 76  2  0  0  0  0
 37 61  1  0  0  0  0
 37 71  1  0  0  0  0
 37 77  2  0  0  0  0
 38 66  1  0  0  0  0
 38 69  1  0  0  0  0
 38 78  2  0  0  0  0
 39 42  1  0  0  0  0
 40 49  1  0  0  0  0
 41 65  1  0  0  0  0
 42 44  1  0  0  0  0
 43 45  1  0  0  0  0
 43 46  1  0  0  0  0
 44 48  1  0  0  0  0
 45 50  1  0  0  0  0
 46 66  1  0  0  0  0
 47 50  1  0  0  0  0
 47 66  1  0  0  0  0
 48 70  1  0  0  0  0
 49 65  1  0  0  0  0
 50 64  1  0  0  0  0
 51 61  1  0  0  0  0
 52 62  1  0  0  0  0
 53 62  1  0  0  0  0
 54 62  1  0  0  0  0
 55 72  1  0  0  0  0
 56 73  1  0  0  0  0
 57 58  1  0  0  0  0
 57 59  1  0  0  0  0
 58 72  1  0  0  0  0
 59 80  1  0  0  0  0
 60 62  1  0  0  0  0
 60 71  1  0  0  0  0
 61 73  1  0  0  0  0
 63 64  1  0  0  0  0
M  CHG  1  73   1
M  ISO  4  38 100  59 101  69 100  80 101
M  END
> <Batch ID>
0022

> <Smiles>
CNC(C)C(=O)NC(C(=O)N1Cc2cc([101O:1][101CH2:1]CCN(C)c3ccc([100NH:0][100C:0](=O)N4CCCC(n5nc(-c6ccc(Oc7ccc(F)cc7F)cc6)c(C(N)=O)c5N)C4)cc3F)ccc2CC1C(=O)NC1CCCc2ccccc21)C(C)(C)C

> <Shape>
0.328

> <Color>
0.095

> <Negative vol penalty>
0.000

$$$$

  -OEChem-04042321143D

 89 98  0     1  0  0  0  0  0999 V2000
  -22.4061   -6.3418   24.8478 C   0  0  0  0  0  0  0  0  0  0  0  0
  -23.3038   -6.3768   23.7856 C   0  0  0  0  0  0  0  0  0  0  0  0
  -24.8150  -29.7713   22.4607 C   0  0  0  0  0  0  0  0  0  0  0  0
  -24.1500  -29.6607   20.1407 C   0  0  0  0  0  0  0  0  0  0  0  0
  -21.3319   -7.2300   24.8806 C   0  0  0  0  0  0  0  0  0  0  0  0
  -23.1271   -7.2992   22.7549 C   0  0  0  0  0  0  0  0  0  0  0  0
  -28.2469  -12.1115   21.1670 C   0  0  0  0  0  0  0  0  0  0  0  0
  -25.3032  -31.0623   22.2592 C   0  0  0  0  0  0  0  0  0  0  0  0
  -24.6381  -30.9517   19.9392 C   0  0  0  0  0  0  0  0  0  0  0  0
  -29.2633  -12.9245   20.6649 C   0  0  0  0  0  0  0  0  0  0  0  0
  -24.0441  -34.1900   22.0044 C   0  0  0  0  0  0  0  0  0  0  0  0
  -23.7277  -35.1587   22.9567 C   0  0  0  0  0  0  0  0  0  0  0  0
  -29.9499  -18.8958   21.4651 C   0  0  0  0  0  0  0  0  0  0  0  0
  -27.7426  -13.8240   19.0137 C   0  0  0  0  0  0  0  0  0  0  0  0
  -30.2488  -21.1325   20.5710 C   0  0  0  0  0  0  0  0  0  0  0  0
  -26.0795  -35.4950   23.3961 C   0  0  0  0  0  0  0  0  0  0  0  0
  -24.2384  -29.0705   21.4014 C   0  0  0  0  0  0  0  0  0  0  0  0
  -22.4322  -27.3711   21.9993 C   0  0  0  0  0  0  0  0  0  0  0  0
  -21.1474   -8.1702   23.8547 C   0  0  0  0  0  0  0  0  0  0  0  0
  -26.9689  -12.1629   20.6036 C   0  0  0  0  0  0  0  0  0  0  0  0
  -22.0486   -8.1999   22.7734 C   0  0  0  0  0  0  0  0  0  0  0  0
  -28.8517  -19.3627   22.1707 C   0  0  0  0  0  0  0  0  0  0  0  0
  -26.7173  -13.0211   19.5205 C   0  0  0  0  0  0  0  0  0  0  0  0
  -30.6496  -19.7920   20.6569 C   0  0  0  0  0  0  0  0  0  0  0  0
  -28.4290  -20.6869   22.0606 C   0  0  0  0  0  0  0  0  0  0  0  0
  -25.2148  -31.6525   20.9985 C   0  0  0  0  0  0  0  0  0  0  0  0
  -29.0118  -13.7785   19.5908 C   0  0  0  0  0  0  0  0  0  0  0  0
  -25.3783  -33.8737   21.7479 C   0  0  0  0  0  0  0  0  0  0  0  0
  -24.7453  -35.8113   23.6526 C   0  0  0  0  0  0  0  0  0  0  0  0
  -29.1362  -21.5918   21.2815 C   0  0  0  0  0  0  0  0  0  0  0  0
  -26.3959  -34.5263   22.4438 C   0  0  0  0  0  0  0  0  0  0  0  0
  -23.7344  -27.7366   21.6088 C   0  0  0  0  0  0  0  0  0  0  0  0
  -22.4630  -25.9991   22.0551 C   0  0  0  0  0  0  0  0  0  0  0  0
  -21.2964  -28.1978   22.2859 C   0  0  0  0  0  0  0  0  0  0  0  0
  -23.4384  -10.8948   20.6618 C   0  0  0  0  0  0  0  0  0  0  0  0
  -23.2922  -13.9141   20.1394 C   0  0  0  0  0  0  0  0  0  0  0  0
  -23.5456  -17.3132   20.0012 C   0  0  0  0  0  0  0  0  0  0  0  0
  -26.6035  -22.1055   23.0359 C   0  0  0  0  0  0  0  0  0  0  0  0
  -19.9445   -9.0783   23.9099 C   0  0  0  0  0  0  0  0  0  0  0  0
  -25.8601  -11.2603   21.0723 C   0  0  0  0  0  0  0  0  0  0  0  0
  -27.9720  -18.5831   23.0969 C   0  0  0  0  0  0  0  0  0  0  0  0
  -25.3365  -13.0178   18.9237 C   0  0  0  0  0  0  0  0  0  0  0  0
  -20.0409  -10.2750   22.9671 C   0  0  0  0  0  0  0  0  0  0  0  0
  -24.6601  -22.2119   20.1355 C   0  0  0  0  0  0  0  0  0  0  0  0
  -20.5066   -9.8293   21.5847 C   0  0  0  0  0  0  0  0  0  0  0  0
  -24.0571  -23.6143   20.2244 C   0  0  0  0  0  0  0  0  0  0  0  0
  -26.1334  -22.1985   20.5461 C   0  0  0  0  0  0  0  0  0  0  0  0
  -25.7897  -24.1893   21.9696 C   0  0  0  0  0  0  0  0  0  0  0  0
  -21.9047   -9.2025   21.6490 C   0  0  1  0  0  0  0  0  0  0  0  0
  -24.4731  -11.9248   21.0080 C   0  0  1  0  0  0  0  0  0  0  0  0
  -24.2952  -24.2345   21.6134 C   0  0  1  0  0  0  0  0  0  0  0  0
  -27.1281  -19.7076   23.7689 C   0  0  0  0  0  0  0  0  0  0  0  0
  -25.6554  -19.2815   23.8404 C   0  0  0  0  0  0  0  0  0  0  0  0
  -27.6632  -19.9818   25.1863 C   0  0  0  0  0  0  0  0  0  0  0  0
  -32.4831  -18.6715   16.1969 C   0  0  0  0  0  0  0  0  0  0  0  0
  -22.3322  -17.9123   22.1145 C   0  0  0  0  0  0  0  0  0  0  0  0
  -22.8662  -13.3581   17.1707 C   0  0  0  0  0  0  0  0  0  0  0  0
  -22.3465  -15.7878   16.8628 C   0  0  0  0  0  0  0  0  0  0  0  0
  -20.9026  -14.3819   18.3329 C   0  0  0  0  0  0  0  0  0  0  0  0
  -21.9883  -19.4323   18.6435 C   0  0  0  0  0  0  0  0  0  0  0  0
  -31.8423  -19.3267   19.8910 C   0  0  0  0  0  0  0  0  0  0  0  0
  -30.7504  -16.8247   18.7229 C   0  0  0  0  0  0  0  0  0  0  0  0
  -32.8168  -18.7632   17.6699 C   0  0  0  0  0  0  0  0  0  0  0  0
  -30.4409  -18.2055   18.1645 C   0  0  0  0  0  0  0  0  0  0  0  0
  -29.6225  -15.8185   18.5302 C   0  0  0  0  0  0  0  0  0  1  0  0
  -23.2208  -15.0187   19.1156 C   0  0  1  0  0  0  0  0  0  0  0  0
  -22.8232  -18.4092   20.7636 C   0  0  2  0  0  0  0  0  0  0  0  0
  -22.3588  -14.6285   17.8819 C   0  0  0  0  0  0  0  0  0  0  0  0
  -24.5341  -26.6820   21.4294 N   0  0  0  0  0  0  0  0  0  0  0  0
  -23.7323  -25.6402   21.7084 N   0  0  0  0  0  0  0  0  0  0  0  0
  -27.2986  -20.9073   22.8841 N   0  0  0  0  0  0  0  0  0  0  0  0
  -24.3269  -12.9822   19.9934 N   0  0  0  0  0  0  0  0  0  0  0  0
  -26.3038  -22.8223   21.8665 N   0  0  0  0  0  0  0  0  0  0  0  0
  -21.5277  -25.0766   22.3664 N   0  0  0  0  0  0  0  0  0  0  0  0
  -21.4382  -29.5881   22.1798 N   0  0  0  0  0  0  0  0  0  0  0  0
  -22.9158  -10.2323   21.7561 N   0  0  0  0  0  0  0  0  0  0  0  0
  -22.7477  -16.2026   19.8248 N   0  0  0  0  0  0  0  0  0  0  0  0
  -21.6481  -18.8935   19.9855 N   0  3  0  0  0  0  0  0  0  0  0  0
  -31.5793  -19.1551   18.4357 N   0  3  1  0  0  0  0  0  0  0  0  0
  -20.1932  -27.7186   22.6420 O   0  0  0  0  0  0  0  0  0  0  0  0
  -23.1344  -10.7145   19.4884 O   0  0  0  0  0  0  0  0  0  0  0  0
  -22.4512  -13.8729   21.0418 O   0  0  0  0  0  0  0  0  0  0  0  0
  -24.7008  -17.4319   19.5988 O   0  0  0  0  0  0  0  0  0  0  0  0
  -26.2211  -22.4972   24.1449 O   0  0  0  0  0  0  0  0  0  0  0  0
  -25.6909  -32.9123   20.8015 O   0  0  0  0  0  0  0  0  0  0  0  0
  -30.0143  -14.5783   19.1051 O   0  0  0  0  0  0  0  0  0  1  0  0
  -24.4413  -36.7426   24.5660 F   0  0  0  0  0  0  0  0  0  0  0  0
  -28.8407  -22.8957   21.2472 F   0  0  0  0  0  0  0  0  0  0  0  0
  -27.6795  -34.2275   22.2009 F   0  0  0  0  0  0  0  0  0  0  0  0
  1  2  1  0  0  0  0
  1  5  2  0  0  0  0
  2  6  2  0  0  0  0
  3  8  2  0  0  0  0
  3 17  1  0  0  0  0
  4  9  1  0  0  0  0
  4 17  2  0  0  0  0
  5 19  1  0  0  0  0
  6 21  1  0  0  0  0
  7 10  2  0  0  0  0
  7 20  1  0  0  0  0
  8 26  1  0  0  0  0
  9 26  2  0  0  0  0
 10 27  1  0  0  0  0
 11 12  2  0  0  0  0
 11 28  1  0  0  0  0
 12 29  1  0  0  0  0
 13 22  1  0  0  0  0
 13 24  2  0  0  0  0
 14 23  1  0  0  0  0
 14 27  2  0  0  0  0
 15 24  1  0  0  0  0
 15 30  2  0  0  0  0
 16 29  2  0  0  0  0
 16 31  1  0  0  0  0
 17 32  1  0  0  0  0
 18 32  1  0  0  0  0
 18 33  2  0  0  0  0
 18 34  1  0  0  0  0
 19 21  2  0  0  0  0
 19 39  1  0  0  0  0
 20 23  2  0  0  0  0
 20 40  1  0  0  0  0
 21 49  1  0  0  0  0
 22 25  2  0  0  0  0
 22 41  1  0  0  0  0
 23 42  1  0  0  0  0
 24 61  1  0  0  0  0
 25 30  1  0  0  0  0
 25 71  1  0  0  0  0
 26 85  1  0  0  0  0
 27 86  1  0  0  0  0
 28 31  2  0  0  0  0
 28 85  1  0  0  0  0
 29 87  1  0  0  0  0
 30 88  1  0  0  0  0
 31 89  1  0  0  0  0
 32 69  2  0  0  0  0
 33 70  1  0  0  0  0
 33 74  1  0  0  0  0
 34 75  1  0  0  0  0
 34 80  2  0  0  0  0
 35 50  1  0  0  0  0
 35 76  1  0  0  0  0
 35 81  2  0  0  0  0
 36 66  1  0  0  0  0
 36 72  1  0  0  0  0
 36 82  2  0  0  0  0
 37 67  1  0  0  0  0
 37 77  1  0  0  0  0
 37 83  2  0  0  0  0
 38 71  1  0  0  0  0
 38 73  1  0  0  0  0
 38 84  2  0  0  0  0
 39 43  1  0  0  0  0
 40 50  1  0  0  0  0
 41 52  1  0  0  0  0
 42 72  1  0  0  0  0
 43 45  1  0  0  0  0
 44 46  1  0  0  0  0
 44 47  1  0  0  0  0
 45 49  1  0  0  0  0
 46 51  1  0  0  0  0
 47 73  1  0  0  0  0
 48 51  1  0  0  0  0
 48 73  1  0  0  0  0
 49 76  1  0  0  0  0
 50 72  1  0  0  0  0
 51 70  1  0  0  0  0
 52 53  1  0  0  0  0
 52 54  1  0  0  0  0
 52 71  1  0  0  0  0
 55 63  1  0  0  0  0
 56 67  1  0  0  0  0
 57 68  1  0  0  0  0
 58 68  1  0  0  0  0
 59 68  1  0  0  0  0
 60 78  1  0  0  0  0
 61 79  1  0  0  0  0
 62 64  1  0  0  0  0
 62 65  1  0  0  0  0
 63 79  1  0  0  0  0
 64 79  1  0  0  0  0
 65 86  1  0  0  0  0
 66 68  1  0  0  0  0
 66 77  1  0  0  0  0
 67 78  1  0  0  0  0
 69 70  1  0  0  0  0
M  CHG  2  78   1  79   1
M  ISO  4  38 100  65 101  71 100  86 101
M  END
> <Batch ID>
0022

> <Smiles>
CCN(CC[101CH2:1][101O:1]c1ccc2c(c1)CN(C(=O)C(NC(=O)C(C)NC)C(C)(C)C)C(C(=O)NC1CCCc3ccccc31)C2)Cc1cc(F)c2c(c1)CC(C)(C)[100N:0]2[100C:0](=O)N1CCCC(n2nc(-c3ccc(Oc4ccc(F)cc4F)cc3)c(C(N)=O)c2N)C1

> <Shape>
0.233

> <Color>
0.061

> <Negative vol penalty>
0.000

$$$$

  -OEChem-04042321143D

 93103  0     1  0  0  0  0  0999 V2000
  -28.5743  -31.2273   27.2152 C   0  0  0  0  0  0  0  0  0  0  0  0
  -28.5278  -30.2437   26.2323 C   0  0  0  0  0  0  0  0  0  0  0  0
  -22.9780  -10.1131   19.9497 C   0  0  0  0  0  0  0  0  0  0  0  0
  -24.0811   -9.9764   22.0948 C   0  0  0  0  0  0  0  0  0  0  0  0
  -27.3926  -31.8013   27.6818 C   0  0  0  0  0  0  0  0  0  0  0  0
  -27.2992  -29.8329   25.7164 C   0  0  0  0  0  0  0  0  0  0  0  0
  -27.3492  -29.4293   20.6686 C   0  0  0  0  0  0  0  0  0  0  0  0
  -29.8293  -17.6586   19.5199 C   0  0  0  0  0  0  0  0  0  0  0  0
  -32.1195  -18.3864   19.2708 C   0  0  0  0  0  0  0  0  0  0  0  0
  -30.0499  -24.8057   17.1300 C   0  0  0  0  0  0  0  0  0  0  0  0
  -29.4114  -18.9886   19.5640 C   0  0  0  0  0  0  0  0  0  0  0  0
  -31.7016  -19.7165   19.3149 C   0  0  0  0  0  0  0  0  0  0  0  0
  -21.7464   -9.9018   20.5695 C   0  0  0  0  0  0  0  0  0  0  0  0
  -22.8495   -9.7651   22.7146 C   0  0  0  0  0  0  0  0  0  0  0  0
  -27.9485  -28.2932   20.1266 C   0  0  0  0  0  0  0  0  0  0  0  0
  -20.6908   -7.2010   23.1577 C   0  0  0  0  0  0  0  0  0  0  0  0
  -20.6125   -6.1904   24.1158 C   0  0  0  0  0  0  0  0  0  0  0  0
  -30.4654  -23.6048   16.5401 C   0  0  0  0  0  0  0  0  0  0  0  0
  -25.7720  -27.3011   19.8148 C   0  0  0  0  0  0  0  0  0  0  0  0
  -19.9585   -7.8171   25.7781 C   0  0  0  0  0  0  0  0  0  0  0  0
  -24.1454  -10.1504   20.7123 C   0  0  0  0  0  0  0  0  0  0  0  0
  -26.0188   -9.5692   19.0814 C   0  0  0  0  0  0  0  0  0  0  0  0
  -26.1495  -31.4042   27.1644 C   0  0  0  0  0  0  0  0  0  0  0  0
  -25.9549  -29.5055   20.7980 C   0  0  0  0  0  0  0  0  0  0  0  0
  -26.0996  -30.4012   26.1775 C   0  0  0  0  0  0  0  0  0  0  0  0
  -25.1572  -28.4403   20.3564 C   0  0  0  0  0  0  0  0  0  0  0  0
  -29.6005  -23.6307   19.1551 C   0  0  0  0  0  0  0  0  0  0  0  0
  -31.1834  -17.3575   19.3734 C   0  0  0  0  0  0  0  0  0  0  0  0
  -29.6119  -24.8249   18.4522 C   0  0  0  0  0  0  0  0  0  0  0  0
  -30.3475  -20.0176   19.4615 C   0  0  0  0  0  0  0  0  0  0  0  0
  -30.0348  -22.4249   18.5889 C   0  0  0  0  0  0  0  0  0  0  0  0
  -21.6822   -9.7278   21.9519 C   0  0  0  0  0  0  0  0  0  0  0  0
  -27.1601  -27.2277   19.7023 C   0  0  0  0  0  0  0  0  0  0  0  0
  -20.4031   -8.5198   23.5097 C   0  0  0  0  0  0  0  0  0  0  0  0
  -20.2463   -6.4984   25.4260 C   0  0  0  0  0  0  0  0  0  0  0  0
  -20.0369   -8.8278   24.8199 C   0  0  0  0  0  0  0  0  0  0  0  0
  -30.4566  -22.4086   17.2667 C   0  0  0  0  0  0  0  0  0  0  0  0
  -25.4179  -10.3681   20.0725 C   0  0  0  0  0  0  0  0  0  0  0  0
  -27.2088  -10.1982   18.8081 C   0  0  0  0  0  0  0  0  0  0  0  0
  -25.5438   -8.3660   18.4629 C   0  0  0  0  0  0  0  0  0  0  0  0
  -23.9413  -29.7935   23.2406 C   0  0  0  0  0  0  0  0  0  0  0  0
  -21.7302  -30.0552   20.8816 C   0  0  0  0  0  0  0  0  0  0  0  0
  -20.8502  -29.4007   17.6499 C   0  0  0  0  0  0  0  0  0  0  0  0
  -30.1695  -14.5718   17.7749 C   0  0  0  0  0  0  0  0  0  0  0  0
  -24.8960  -32.0199   27.7339 C   0  0  0  0  0  0  0  0  0  0  0  0
  -25.3223  -30.7489   21.3602 C   0  0  0  0  0  0  0  0  0  0  0  0
  -29.2006  -23.4088   20.5731 C   0  0  0  0  0  0  0  0  0  0  0  0
  -23.6548  -28.4808   20.4547 C   0  0  0  0  0  0  0  0  0  0  0  0
  -23.6593  -31.7954   26.8675 C   0  0  0  0  0  0  0  0  0  0  0  0
  -29.5880  -13.9527   21.2028 C   0  0  0  0  0  0  0  0  0  0  0  0
  -23.5738  -30.3376   26.4267 C   0  0  0  0  0  0  0  0  0  0  0  0
  -28.4849  -12.8974   21.1368 C   0  0  0  0  0  0  0  0  0  0  0  0
  -29.1284  -21.8724   20.6286 C   0  0  0  0  0  0  0  0  0  0  0  0
  -29.4024  -15.0446   20.1476 C   0  0  0  0  0  0  0  0  0  0  0  0
  -28.1551  -13.4700   18.7027 C   0  0  0  0  0  0  0  0  0  0  0  0
  -24.7878  -29.9466   25.5753 C   0  0  1  0  0  0  0  0  0  0  0  0
  -23.9233  -30.5074   21.9186 C   0  0  1  0  0  0  0  0  0  0  0  0
  -28.3513  -12.3294   19.7132 C   0  0  2  0  0  0  0  0  0  0  0  0
  -32.3150  -17.1136   14.8147 C   0  0  0  0  0  0  0  0  0  0  0  0
  -18.9654  -29.7049   16.0213 C   0  0  0  0  0  0  0  0  0  0  0  0
  -32.7281  -14.4758   16.2190 C   0  0  0  0  0  0  0  0  0  0  0  0
  -20.1906  -27.8018   22.2460 C   0  0  0  0  0  0  0  0  0  0  0  0
  -18.8802  -27.5114   20.1326 C   0  0  0  0  0  0  0  0  0  0  0  0
  -18.7645  -29.6664   21.3836 C   0  0  0  0  0  0  0  0  0  0  0  0
  -22.5311  -31.0182   15.8287 C   0  0  0  0  0  0  0  0  0  0  0  0
  -31.6312  -15.9357   19.3266 C   0  0  0  0  0  0  0  0  0  0  0  0
  -29.1668  -26.1115   19.0830 C   0  0  0  0  0  0  0  0  0  1  0  0
  -31.4347  -16.6208   15.9560 C   0  0  0  0  0  0  0  0  0  0  0  0
  -20.8696  -29.0839   20.1103 C   0  0  1  0  0  0  0  0  0  0  0  0
  -20.2601  -30.2864   16.5675 C   0  0  2  0  0  0  0  0  0  0  0  0
  -32.1882  -15.7102   16.9340 C   0  0  1  0  0  0  0  0  0  0  0  0
  -19.7046  -28.5140   20.9679 C   0  0  0  0  0  0  0  0  0  0  0  0
  -26.1646  -11.4240   20.4065 N   0  0  0  0  0  0  0  0  0  0  0  0
  -27.2470  -11.2929   19.6207 N   0  0  0  0  0  0  0  0  0  0  0  0
  -29.9289  -21.3507   19.5037 N   0  0  0  0  0  0  0  0  0  0  0  0
  -23.0838  -29.7157   21.0172 N   0  0  0  0  0  0  0  0  0  0  0  0
  -29.2313  -14.4579   18.8114 N   0  0  0  0  0  0  0  0  0  0  0  0
  -28.2158   -9.9162   17.9543 N   0  0  0  0  0  0  0  0  0  0  0  0
  -25.8763   -7.1372   19.0492 N   0  0  0  0  0  0  0  0  0  0  0  0
  -24.6454  -30.4557   24.2281 N   0  0  0  0  0  0  0  0  0  0  0  0
  -20.4376  -29.7873   18.9075 N   0  0  0  0  0  0  0  0  0  0  0  0
  -31.3369  -15.3023   18.0427 N   0  0  0  0  0  0  0  0  0  0  0  0
  -21.2216  -30.4351   15.4386 N   0  3  0  0  0  0  0  0  0  0  0  0
  -24.8588   -8.3796   17.4121 O   0  0  0  0  0  0  0  0  0  0  0  0
  -23.3582  -28.7219   23.3565 O   0  0  0  0  0  0  0  0  0  0  0  0
  -21.2217  -31.0811   21.3406 O   0  0  0  0  0  0  0  0  0  0  0  0
  -21.5990  -28.4576   17.4042 O   0  0  0  0  0  0  0  0  0  0  0  0
  -29.9724  -14.0560   16.6671 O   0  0  0  0  0  0  0  0  0  0  0  0
  -20.4806   -9.5219   22.5571 O   0  0  0  0  0  0  0  0  0  0  0  0
  -27.7426  -26.1173   19.1734 O   0  0  0  0  0  0  0  0  0  1  0  0
  -20.1696   -5.5276   26.3457 F   0  0  0  0  0  0  0  0  0  0  0  0
  -19.7581  -10.0926   25.1639 F   0  0  0  0  0  0  0  0  0  0  0  0
  -30.9539  -20.9717   16.4548 Cl  0  0  0  0  0  0  0  0  0  0  0  0
  1  2  1  0  0  0  0
  1  5  2  0  0  0  0
  2  6  2  0  0  0  0
  3 13  2  0  0  0  0
  3 21  1  0  0  0  0
  4 14  1  0  0  0  0
  4 21  2  0  0  0  0
  5 23  1  0  0  0  0
  6 25  1  0  0  0  0
  7 15  2  0  0  0  0
  7 24  1  0  0  0  0
  8 11  2  0  0  0  0
  8 28  1  0  0  0  0
  9 12  1  0  0  0  0
  9 28  2  0  0  0  0
 10 18  1  0  0  0  0
 10 29  2  0  0  0  0
 11 30  1  0  0  0  0
 12 30  2  0  0  0  0
 13 32  1  0  0  0  0
 14 32  2  0  0  0  0
 15 33  1  0  0  0  0
 16 17  2  0  0  0  0
 16 34  1  0  0  0  0
 17 35  1  0  0  0  0
 18 37  2  0  0  0  0
 19 26  1  0  0  0  0
 19 33  2  0  0  0  0
 20 35  2  0  0  0  0
 20 36  1  0  0  0  0
 21 38  1  0  0  0  0
 22 38  1  0  0  0  0
 22 39  2  0  0  0  0
 22 40  1  0  0  0  0
 23 25  2  0  0  0  0
 23 45  1  0  0  0  0
 24 26  2  0  0  0  0
 24 46  1  0  0  0  0
 25 56  1  0  0  0  0
 26 48  1  0  0  0  0
 27 29  1  0  0  0  0
 27 31  2  0  0  0  0
 27 47  1  0  0  0  0
 28 66  1  0  0  0  0
 29 67  1  0  0  0  0
 30 75  1  0  0  0  0
 31 37  1  0  0  0  0
 31 75  1  0  0  0  0
 32 89  1  0  0  0  0
 33 90  1  0  0  0  0
 34 36  2  0  0  0  0
 34 89  1  0  0  0  0
 35 91  1  0  0  0  0
 36 92  1  0  0  0  0
 37 93  1  0  0  0  0
 38 73  2  0  0  0  0
 39 74  1  0  0  0  0
 39 78  1  0  0  0  0
 40 79  1  0  0  0  0
 40 84  2  0  0  0  0
 41 57  1  0  0  0  0
 41 80  1  0  0  0  0
 41 85  2  0  0  0  0
 42 69  1  0  0  0  0
 42 76  1  0  0  0  0
 42 86  2  0  0  0  0
 43 70  1  0  0  0  0
 43 81  1  0  0  0  0
 43 87  2  0  0  0  0
 44 77  1  0  0  0  0
 44 82  1  0  0  0  0
 44 88  2  0  0  0  0
 45 49  1  0  0  0  0
 46 57  1  0  0  0  0
 47 53  1  0  0  0  0
 48 76  1  0  0  0  0
 49 51  1  0  0  0  0
 50 52  1  0  0  0  0
 50 54  1  0  0  0  0
 51 56  1  0  0  0  0
 52 58  1  0  0  0  0
 53 75  1  0  0  0  0
 54 77  1  0  0  0  0
 55 58  1  0  0  0  0
 55 77  1  0  0  0  0
 56 80  1  0  0  0  0
 57 76  1  0  0  0  0
 58 74  1  0  0  0  0
 59 68  1  0  0  0  0
 60 70  1  0  0  0  0
 61 71  1  0  0  0  0
 62 72  1  0  0  0  0
 63 72  1  0  0  0  0
 64 72  1  0  0  0  0
 65 83  1  0  0  0  0
 66 82  1  0  0  0  0
 67 90  1  0  0  0  0
 68 71  1  0  0  0  0
 69 72  1  0  0  0  0
 69 81  1  0  0  0  0
 70 83  1  0  0  0  0
 71 82  1  0  0  0  0
 73 74  1  0  0  0  0
M  CHG  1  83   1
M  ISO  4  44 100  67 101  82 100  90 101
M  END
> <Batch ID>
0022

> <Smiles>
CCC(C)[100N:0](Cc1ccc(N2CCc3c([101CH2:1][101O:1]c4ccc5c(c4)CN(C(=O)C(NC(=O)C(C)NC)C(C)(C)C)C(C(=O)NC4CCCc6ccccc64)C5)ccc(Cl)c32)cc1)[100C:0](=O)N1CCCC(n2nc(-c3ccc(Oc4ccc(F)cc4F)cc3)c(C(N)=O)c2N)C1

> <Shape>
0.295

> <Color>
0.086

> <Negative vol penalty>
0.000

$$$$

  -OEChem-04042321143D

 86 95  0     1  0  0  0  0  0999 V2000
  -31.8616  -33.1265   10.1841 C   0  0  0  0  0  0  0  0  0  0  0  0
  -32.3871  -32.6528   11.3820 C   0  0  0  0  0  0  0  0  0  0  0  0
  -23.0791   -9.9367   19.8870 C   0  0  0  0  0  0  0  0  0  0  0  0
  -23.8853   -9.8453   22.1627 C   0  0  0  0  0  0  0  0  0  0  0  0
  -30.5781  -32.7504    9.7903 C   0  0  0  0  0  0  0  0  0  0  0  0
  -31.6290  -31.8036   12.1873 C   0  0  0  0  0  0  0  0  0  0  0  0
  -32.3390  -26.3103   16.7299 C   0  0  0  0  0  0  0  0  0  0  0  0
  -22.3340   -8.7778   20.1044 C   0  0  0  0  0  0  0  0  0  0  0  0
  -23.1402   -8.6863   22.3801 C   0  0  0  0  0  0  0  0  0  0  0  0
  -31.9719  -25.9236   18.0181 C   0  0  0  0  0  0  0  0  0  0  0  0
  -19.9205   -7.8796   23.0151 C   0  0  0  0  0  0  0  0  0  0  0  0
  -19.1872   -7.7949   24.1986 C   0  0  0  0  0  0  0  0  0  0  0  0
  -29.7972  -25.2776   17.1980 C   0  0  0  0  0  0  0  0  0  0  0  0
  -31.2098  -17.6928   20.6999 C   0  0  0  0  0  0  0  0  0  0  0  0
  -29.7931  -19.2012   22.5709 C   0  0  0  0  0  0  0  0  0  0  0  0
  -20.4324   -5.8228   24.8290 C   0  0  0  0  0  0  0  0  0  0  0  0
  -23.8548  -10.4705   20.9162 C   0  0  0  0  0  0  0  0  0  0  0  0
  -24.2083  -12.9968   20.8934 C   0  0  0  0  0  0  0  0  0  0  0  0
  -29.8075  -31.8884   10.5864 C   0  0  0  0  0  0  0  0  0  0  0  0
  -31.4326  -26.1935   15.6663 C   0  0  0  0  0  0  0  0  0  0  0  0
  -30.3334  -31.4167   11.8043 C   0  0  0  0  0  0  0  0  0  0  0  0
  -30.1561  -25.6612   15.8968 C   0  0  0  0  0  0  0  0  0  0  0  0
  -31.3866  -19.0751   20.7593 C   0  0  0  0  0  0  0  0  0  0  0  0
  -30.6784  -19.8293   21.6948 C   0  0  0  0  0  0  0  0  0  0  0  0
  -30.3245  -17.0647   21.5760 C   0  0  0  0  0  0  0  0  0  0  0  0
  -22.3645   -8.1526   21.3509 C   0  0  0  0  0  0  0  0  0  0  0  0
  -30.6999  -25.4098   18.2529 C   0  0  0  0  0  0  0  0  0  0  0  0
  -20.9097   -6.9359   22.7385 C   0  0  0  0  0  0  0  0  0  0  0  0
  -19.4431   -6.7665   25.1056 C   0  0  0  0  0  0  0  0  0  0  0  0
  -29.6162  -17.8188   22.5115 C   0  0  0  0  0  0  0  0  0  0  0  0
  -21.1657   -5.9075   23.6455 C   0  0  0  0  0  0  0  0  0  0  0  0
  -24.6252  -11.6673   20.6921 C   0  0  0  0  0  0  0  0  0  0  0  0
  -25.2970  -13.7554   20.5391 C   0  0  0  0  0  0  0  0  0  0  0  0
  -30.5910  -22.1789   20.7457 C   0  0  0  0  0  0  0  0  0  0  0  0
  -22.9495  -13.5008   21.3592 C   0  0  0  0  0  0  0  0  0  0  0  0
  -30.0458  -28.2381   13.6662 C   0  0  0  0  0  0  0  0  0  0  0  0
  -28.9463  -25.5239   12.2710 C   0  0  0  0  0  0  0  0  0  0  0  0
  -28.1682  -22.2158   12.5838 C   0  0  0  0  0  0  0  0  0  0  0  0
  -30.7714  -14.7669   20.6449 C   0  0  0  0  0  0  0  0  0  0  0  0
  -28.4072  -31.5476   10.1420 C   0  0  0  0  0  0  0  0  0  0  0  0
  -31.8532  -26.5902   14.2777 C   0  0  0  0  0  0  0  0  0  0  0  0
  -29.1531  -25.4964   14.7854 C   0  0  0  0  0  0  0  0  0  0  0  0
  -27.8127  -30.3450   10.8706 C   0  0  0  0  0  0  0  0  0  0  0  0
  -29.5958  -12.4584   18.2024 C   0  0  0  0  0  0  0  0  0  0  0  0
  -28.0518  -30.4592   12.3727 C   0  0  0  0  0  0  0  0  0  0  0  0
  -28.1635  -12.1561   18.6490 C   0  0  0  0  0  0  0  0  0  0  0  0
  -31.6934  -23.2877   22.5400 C   0  0  0  0  0  0  0  0  0  0  0  0
  -30.5363  -12.6329   19.3935 C   0  0  0  0  0  0  0  0  0  0  0  0
  -31.2621  -21.9071   22.9928 C   0  0  0  0  0  0  0  0  0  0  0  0
  -28.6618  -13.3087   20.8422 C   0  0  0  0  0  0  0  0  0  0  0  0
  -29.5514  -30.4740   12.6931 C   0  0  1  0  0  0  0  0  0  0  0  0
  -30.7871  -23.5606   21.3483 C   0  0  1  0  0  0  0  0  0  0  0  0
  -30.6735  -26.9069   13.3637 C   0  0  1  0  0  0  0  0  0  0  0  0
  -27.6644  -13.1890   19.6784 C   0  0  2  0  0  0  0  0  0  0  0  0
  -32.3412  -19.7216   19.8085 C   0  0  0  0  0  0  0  0  0  0  0  0
  -27.2548  -20.2753   11.2810 C   0  0  0  0  0  0  0  0  0  0  0  0
  -26.1356  -26.6857   12.5158 C   0  0  0  0  0  0  0  0  0  0  0  0
  -25.2260  -24.3899   12.1032 C   0  0  0  0  0  0  0  0  0  0  0  0
  -26.5976  -25.5195   10.3523 C   0  0  0  0  0  0  0  0  0  0  0  0
  -30.6553  -20.6530   12.9452 C   0  0  0  0  0  0  0  0  0  0  0  0
  -31.3752  -24.5581   20.3682 C   0  0  0  0  0  0  0  0  0  1  0  0
  -27.7254  -24.6527   12.4424 C   0  0  1  0  0  0  0  0  0  0  0  0
  -28.5089  -21.0149   11.7201 C   0  0  2  0  0  0  0  0  0  0  0  0
  -26.4391  -25.3167   11.8749 C   0  0  0  0  0  0  0  0  0  0  0  0
  -25.8808  -11.5828   20.2444 N   0  0  0  0  0  0  0  0  0  0  0  0
  -26.2622  -12.8688   20.1615 N   0  0  0  0  0  0  0  0  0  0  0  0
  -30.8444  -21.2447   21.7712 N   0  0  0  0  0  0  0  0  0  0  0  0
  -29.6093  -25.9044   13.4464 N   0  0  0  0  0  0  0  0  0  0  0  0
  -30.0010  -13.6293   20.3239 N   0  0  0  0  0  0  0  0  0  0  0  0
  -25.5134  -15.0877   20.5168 N   0  0  0  0  0  0  0  0  0  0  0  0
  -21.9395  -12.5833   21.6793 N   0  0  0  0  0  0  0  0  0  0  0  0
  -30.1459  -15.6604   21.5139 N   0  0  0  0  0  0  0  0  0  0  0  0
  -30.0977  -29.1361   12.6172 N   0  0  0  0  0  0  0  0  0  0  0  0
  -28.0524  -23.3675   11.8344 N   0  0  0  0  0  0  0  0  0  0  0  0
  -29.3756  -20.0646   12.4730 N   0  3  0  0  0  0  0  0  0  0  0  0
  -30.2192  -21.9968   19.5954 O   0  0  0  0  0  0  0  0  0  0  0  0
  -22.7213  -14.7291   21.4720 O   0  0  0  0  0  0  0  0  0  0  0  0
  -29.5498  -28.4355   14.7693 O   0  0  0  0  0  0  0  0  0  0  0  0
  -29.3029  -25.8488   11.1357 O   0  0  0  0  0  0  0  0  0  0  0  0
  -28.0159  -22.1393   13.8010 O   0  0  0  0  0  0  0  0  0  0  0  0
  -31.8917  -14.9494   20.1617 O   0  0  0  0  0  0  0  0  0  0  0  0
  -21.6374   -7.0218   21.5635 O   0  0  0  0  0  0  0  0  0  0  0  0
  -30.3388  -25.0322   19.5094 O   0  0  0  0  0  0  0  0  0  1  0  0
  -18.7399   -6.6862   26.2428 F   0  0  0  0  0  0  0  0  0  0  0  0
  -28.7636  -17.2248   23.3585 F   0  0  0  0  0  0  0  0  0  0  0  0
  -22.1156   -4.9986   23.3858 F   0  0  0  0  0  0  0  0  0  0  0  0
  1  2  1  0  0  0  0
  1  5  2  0  0  0  0
  2  6  2  0  0  0  0
  3  8  2  0  0  0  0
  3 17  1  0  0  0  0
  4  9  1  0  0  0  0
  4 17  2  0  0  0  0
  5 19  1  0  0  0  0
  6 21  1  0  0  0  0
  7 10  2  0  0  0  0
  7 20  1  0  0  0  0
  8 26  1  0  0  0  0
  9 26  2  0  0  0  0
 10 27  1  0  0  0  0
 11 12  2  0  0  0  0
 11 28  1  0  0  0  0
 12 29  1  0  0  0  0
 13 22  1  0  0  0  0
 13 27  2  0  0  0  0
 14 23  1  0  0  0  0
 14 25  2  0  0  0  0
 15 24  1  0  0  0  0
 15 30  2  0  0  0  0
 16 29  2  0  0  0  0
 16 31  1  0  0  0  0
 17 32  1  0  0  0  0
 18 32  1  0  0  0  0
 18 33  2  0  0  0  0
 18 35  1  0  0  0  0
 19 21  2  0  0  0  0
 19 40  1  0  0  0  0
 20 22  2  0  0  0  0
 20 41  1  0  0  0  0
 21 51  1  0  0  0  0
 22 42  1  0  0  0  0
 23 24  2  0  0  0  0
 23 55  1  0  0  0  0
 24 67  1  0  0  0  0
 25 30  1  0  0  0  0
 25 72  1  0  0  0  0
 26 82  1  0  0  0  0
 27 83  1  0  0  0  0
 28 31  2  0  0  0  0
 28 82  1  0  0  0  0
 29 84  1  0  0  0  0
 30 85  1  0  0  0  0
 31 86  1  0  0  0  0
 32 65  2  0  0  0  0
 33 66  1  0  0  0  0
 33 70  1  0  0  0  0
 34 52  1  0  0  0  0
 34 67  1  0  0  0  0
 34 76  2  0  0  0  0
 35 71  1  0  0  0  0
 35 77  2  0  0  0  0
 36 53  1  0  0  0  0
 36 73  1  0  0  0  0
 36 78  2  0  0  0  0
 37 62  1  0  0  0  0
 37 68  1  0  0  0  0
 37 79  2  0  0  0  0
 38 63  1  0  0  0  0
 38 74  1  0  0  0  0
 38 80  2  0  0  0  0
 39 69  1  0  0  0  0
 39 72  1  0  0  0  0
 39 81  2  0  0  0  0
 40 43  1  0  0  0  0
 41 53  1  0  0  0  0
 42 68  1  0  0  0  0
 43 45  1  0  0  0  0
 44 46  1  0  0  0  0
 44 48  1  0  0  0  0
 45 51  1  0  0  0  0
 46 54  1  0  0  0  0
 47 49  1  0  0  0  0
 47 52  1  0  0  0  0
 48 69  1  0  0  0  0
 49 67  1  0  0  0  0
 50 54  1  0  0  0  0
 50 69  1  0  0  0  0
 51 73  1  0  0  0  0
 52 61  1  0  0  0  0
 53 68  1  0  0  0  0
 54 66  1  0  0  0  0
 56 63  1  0  0  0  0
 57 64  1  0  0  0  0
 58 64  1  0  0  0  0
 59 64  1  0  0  0  0
 60 75  1  0  0  0  0
 61 83  1  0  0  0  0
 62 64  1  0  0  0  0
 62 74  1  0  0  0  0
 63 75  1  0  0  0  0
 65 66  1  0  0  0  0
M  CHG  1  75   1
M  ISO  4  39 100  61 101  72 100  83 101
M  END
> <Batch ID>
0022

> <Smiles>
CNC(C)C(=O)NC(C(=O)N1Cc2cc([101O:1][101CH2:1]C3CCN(c4cc(F)c([100NH:0][100C:0](=O)N5CCCC(n6nc(-c7ccc(Oc8ccc(F)cc8F)cc7)c(C(N)=O)c6N)C5)cc4C)C3=O)ccc2CC1C(=O)NC1CCCc2ccccc21)C(C)(C)C

> <Shape>
0.215

> <Color>
0.211

> <Negative vol penalty>
0.000

$$$$

  -OEChem-04042321143D

 84 93  0     1  0  0  0  0  0999 V2000
  -17.2056  -30.8773   24.3281 C   0  0  0  0  0  0  0  0  0  0  0  0
  -18.5084  -31.2411   24.6534 C   0  0  0  0  0  0  0  0  0  0  0  0
  -24.6459  -14.1347   19.9150 C   0  0  0  0  0  0  0  0  0  0  0  0
  -26.2514  -14.3130   21.7116 C   0  0  0  0  0  0  0  0  0  0  0  0
  -16.9664  -29.6899   23.6376 C   0  0  0  0  0  0  0  0  0  0  0  0
  -19.5727  -30.4170   24.2895 C   0  0  0  0  0  0  0  0  0  0  0  0
  -26.4451  -30.7284   22.2920 C   0  0  0  0  0  0  0  0  0  0  0  0
  -30.0735  -25.3576   22.5126 C   0  0  0  0  0  0  0  0  0  0  0  0
  -29.6215  -24.3999   21.6049 C   0  0  0  0  0  0  0  0  0  0  0  0
  -24.7154  -12.7437   19.9909 C   0  0  0  0  0  0  0  0  0  0  0  0
  -26.3208  -12.9219   21.7876 C   0  0  0  0  0  0  0  0  0  0  0  0
  -27.6886  -30.1927   22.6242 C   0  0  0  0  0  0  0  0  0  0  0  0
  -23.4653  -10.2907   21.9539 C   0  0  0  0  0  0  0  0  0  0  0  0
  -22.2660   -9.5792   21.9238 C   0  0  0  0  0  0  0  0  0  0  0  0
  -27.1620  -28.2043   21.3641 C   0  0  0  0  0  0  0  0  0  0  0  0
  -28.2718  -24.7829   24.0162 C   0  0  0  0  0  0  0  0  0  0  0  0
  -22.9962   -8.4327   19.9264 C   0  0  0  0  0  0  0  0  0  0  0  0
  -25.4140  -14.9194   20.7753 C   0  0  0  0  0  0  0  0  0  0  0  0
  -24.4645  -17.2037   21.3982 C   0  0  0  0  0  0  0  0  0  0  0  0
  -18.0291  -28.8556   23.2565 C   0  0  0  0  0  0  0  0  0  0  0  0
  -25.5448  -30.0002   21.5010 C   0  0  0  0  0  0  0  0  0  0  0  0
  -19.3474  -29.2166   23.5945 C   0  0  0  0  0  0  0  0  0  0  0  0
  -25.9087  -28.7340   21.0211 C   0  0  0  0  0  0  0  0  0  0  0  0
  -29.3987  -25.5491   23.7183 C   0  0  0  0  0  0  0  0  0  0  0  0
  -28.4946  -23.6337   21.9028 C   0  0  0  0  0  0  0  0  0  0  0  0
  -25.5528  -12.1373   20.9272 C   0  0  0  0  0  0  0  0  0  0  0  0
  -28.0461  -28.9293   22.1627 C   0  0  0  0  0  0  0  0  0  0  0  0
  -24.4301  -10.0733   20.9701 C   0  0  0  0  0  0  0  0  0  0  0  0
  -22.0314   -8.6502   20.9101 C   0  0  0  0  0  0  0  0  0  0  0  0
  -27.8197  -23.8252   23.1084 C   0  0  0  0  0  0  0  0  0  0  0  0
  -24.1955   -9.1443   19.9565 C   0  0  0  0  0  0  0  0  0  0  0  0
  -25.3431  -16.3564   20.6969 C   0  0  0  0  0  0  0  0  0  0  0  0
  -24.7970  -18.4679   20.9768 C   0  0  0  0  0  0  0  0  0  0  0  0
  -23.4394  -16.8772   22.3460 C   0  0  0  0  0  0  0  0  0  0  0  0
  -22.6240  -28.8228   21.9326 C   0  0  0  0  0  0  0  0  0  0  0  0
  -22.8749  -28.0934   18.7818 C   0  0  0  0  0  0  0  0  0  0  0  0
  -24.8972  -27.4558   16.1077 C   0  0  0  0  0  0  0  0  0  0  0  0
  -28.5933  -22.3483   19.7384 C   0  0  0  0  0  0  0  0  0  0  0  0
  -17.7174  -27.5585   22.5529 C   0  0  0  0  0  0  0  0  0  0  0  0
  -24.2179  -30.6033   21.1292 C   0  0  0  0  0  0  0  0  0  0  0  0
  -24.9864  -27.9201   20.1520 C   0  0  0  0  0  0  0  0  0  0  0  0
  -18.9304  -26.9265   21.8750 C   0  0  0  0  0  0  0  0  0  0  0  0
  -27.7863  -19.9974   17.1891 C   0  0  0  0  0  0  0  0  0  0  0  0
  -30.2829  -27.6359   26.6476 C   0  0  0  0  0  0  0  0  0  0  0  0
  -20.1304  -26.9301   22.8168 C   0  0  0  0  0  0  0  0  0  0  0  0
  -27.0064  -18.9103   17.9321 C   0  0  0  0  0  0  0  0  0  0  0  0
  -31.3304  -28.0281   25.6177 C   0  0  0  0  0  0  0  0  0  0  0  0
  -29.6681  -26.3671   26.0654 C   0  0  0  0  0  0  0  0  0  0  0  0
  -28.9212  -20.5637   18.0406 C   0  0  0  0  0  0  0  0  0  0  0  0
  -27.7417  -19.9507   20.1148 C   0  0  0  0  0  0  0  0  0  0  0  0
  -20.5303  -28.3613   23.1953 C   0  0  1  0  0  0  0  0  0  0  0  0
  -23.1741  -29.5595   20.7441 C   0  0  1  0  0  0  0  0  0  0  0  0
  -26.5477  -19.3955   19.3212 C   0  0  2  0  0  0  0  0  0  0  0  0
  -30.6824  -27.6558   24.2767 C   0  0  2  0  0  0  0  0  0  0  0  0
  -24.8123  -26.8546   13.6728 C   0  0  0  0  0  0  0  0  0  0  0  0
  -22.1621  -25.2196   19.5187 C   0  0  0  0  0  0  0  0  0  0  0  0
  -23.0101  -24.5072   17.2733 C   0  0  0  0  0  0  0  0  0  0  0  0
  -21.0679  -26.0642   17.4345 C   0  0  0  0  0  0  0  0  0  0  0  0
  -26.3026  -29.9403   15.3262 C   0  0  0  0  0  0  0  0  0  0  0  0
  -29.8264  -28.7995   23.7343 C   0  0  0  0  0  0  0  0  0  1  0  0
  -23.3837  -26.9092   17.9958 C   0  0  1  0  0  0  0  0  0  0  0  0
  -24.8841  -27.9868   14.6857 C   0  0  2  0  0  0  0  0  0  0  0  0
  -22.4228  -25.6893   18.0736 C   0  0  0  0  0  0  0  0  0  0  0  0
  -26.1715  -17.0259   19.8909 N   0  0  0  0  0  0  0  0  0  0  0  0
  -25.8148  -18.3072   20.0831 N   0  0  0  0  0  0  0  0  0  0  0  0
  -29.8471  -26.4978   24.6180 N   0  0  3  0  0  0  0  0  0  0  0  0
  -23.6976  -28.5504   19.8212 N   0  0  0  0  0  0  0  0  0  0  0  0
  -28.4112  -21.0071   19.3398 N   0  0  0  0  0  0  0  0  0  0  0  0
  -24.3152  -19.6902   21.2870 N   0  0  0  0  0  0  0  0  0  0  0  0
  -23.2301  -15.5288   22.6659 N   0  0  0  0  0  0  0  0  0  0  0  0
  -28.0376  -22.6619   20.9783 N   0  0  0  0  0  0  0  0  0  0  0  0
  -21.2636  -28.9839   22.1140 N   0  0  0  0  0  0  0  0  0  0  0  0
  -23.6272  -27.3926   16.6411 N   0  0  0  0  0  0  0  0  0  0  0  0
  -26.1170  -28.7798   14.4175 N   0  3  0  0  0  0  0  0  0  0  0  0
  -22.7190  -17.7540   22.8807 O   0  0  0  0  0  0  0  0  0  0  0  0
  -23.3776  -28.1564   22.6322 O   0  0  0  0  0  0  0  0  0  0  0  0
  -21.7910  -28.5990   18.4800 O   0  0  0  0  0  0  0  0  0  0  0  0
  -25.9303  -27.1262   16.6862 O   0  0  0  0  0  0  0  0  0  0  0  0
  -29.1740  -23.1657   19.0197 O   0  0  0  0  0  0  0  0  0  0  0  0
  -25.6206  -10.7799   21.0018 O   0  0  0  0  0  0  0  0  0  0  0  0
  -29.2590  -28.4038   22.4861 O   0  0  0  0  0  0  0  0  0  1  0  0
  -20.8803   -7.9659   20.8823 F   0  0  0  0  0  0  0  0  0  0  0  0
  -26.7353  -23.0947   23.4048 F   0  0  0  0  0  0  0  0  0  0  0  0
  -25.1191   -8.9303   19.0094 F   0  0  0  0  0  0  0  0  0  0  0  0
  1  2  1  0  0  0  0
  1  5  2  0  0  0  0
  2  6  2  0  0  0  0
  3 10  2  0  0  0  0
  3 18  1  0  0  0  0
  4 11  1  0  0  0  0
  4 18  2  0  0  0  0
  5 20  1  0  0  0  0
  6 22  1  0  0  0  0
  7 12  2  0  0  0  0
  7 21  1  0  0  0  0
  8  9  2  0  0  0  0
  8 24  1  0  0  0  0
  9 25  1  0  0  0  0
 10 26  1  0  0  0  0
 11 26  2  0  0  0  0
 12 27  1  0  0  0  0
 13 14  2  0  0  0  0
 13 28  1  0  0  0  0
 14 29  1  0  0  0  0
 15 23  1  0  0  0  0
 15 27  2  0  0  0  0
 16 24  2  0  0  0  0
 16 30  1  0  0  0  0
 17 29  2  0  0  0  0
 17 31  1  0  0  0  0
 18 32  1  0  0  0  0
 19 32  1  0  0  0  0
 19 33  2  0  0  0  0
 19 34  1  0  0  0  0
 20 22  2  0  0  0  0
 20 39  1  0  0  0  0
 21 23  2  0  0  0  0
 21 40  1  0  0  0  0
 22 51  1  0  0  0  0
 23 41  1  0  0  0  0
 24 66  1  0  0  0  0
 25 30  2  0  0  0  0
 25 71  1  0  0  0  0
 26 80  1  0  0  0  0
 27 81  1  0  0  0  0
 28 31  2  0  0  0  0
 28 80  1  0  0  0  0
 29 82  1  0  0  0  0
 30 83  1  0  0  0  0
 31 84  1  0  0  0  0
 32 64  2  0  0  0  0
 33 65  1  0  0  0  0
 33 69  1  0  0  0  0
 34 70  1  0  0  0  0
 34 75  2  0  0  0  0
 35 52  1  0  0  0  0
 35 72  1  0  0  0  0
 35 76  2  0  0  0  0
 36 61  1  0  0  0  0
 36 67  1  0  0  0  0
 36 77  2  0  0  0  0
 37 62  1  0  0  0  0
 37 73  1  0  0  0  0
 37 78  2  0  0  0  0
 38 68  1  0  0  0  0
 38 71  1  0  0  0  0
 38 79  2  0  0  0  0
 39 42  1  0  0  0  0
 40 52  1  0  0  0  0
 41 67  1  0  0  0  0
 42 45  1  0  0  0  0
 43 46  1  0  0  0  0
 43 49  1  0  0  0  0
 44 47  1  0  0  0  0
 44 48  1  0  0  0  0
 45 51  1  0  0  0  0
 46 53  1  0  0  0  0
 47 54  1  0  0  0  0
 48 66  1  0  0  0  0
 49 68  1  0  0  0  0
 50 53  1  0  0  0  0
 50 68  1  0  0  0  0
 51 72  1  0  0  0  0
 52 67  1  0  0  0  0
 53 65  1  0  0  0  0
 54 60  1  0  0  0  0
 54 66  1  0  0  0  0
 55 62  1  0  0  0  0
 56 63  1  0  0  0  0
 57 63  1  0  0  0  0
 58 63  1  0  0  0  0
 59 74  1  0  0  0  0
 60 81  1  0  0  0  0
 61 63  1  0  0  0  0
 61 73  1  0  0  0  0
 62 74  1  0  0  0  0
 64 65  1  0  0  0  0
M  CHG  1  74   1
M  ISO  4  38 100  60 101  71 100  81 101
M  END
> <Batch ID>
0022

> <Smiles>
CNC(C)C(=O)NC(C(=O)N1Cc2cc([101O:1][101CH2:1]C3CCCN3c3ccc([100NH:0][100C:0](=O)N4CCCC(n5nc(-c6ccc(Oc7ccc(F)cc7F)cc6)c(C(N)=O)c5N)C4)c(F)c3)ccc2CC1C(=O)NC1CCCc2ccccc21)C(C)(C)C

> <Shape>
0.238

> <Color>
0.111

> <Negative vol penalty>
0.000

$$$$

  -OEChem-04042321143D

 85 94  0     1  0  0  0  0  0999 V2000
  -28.2863  -26.4020   30.6116 C   0  0  0  0  0  0  0  0  0  0  0  0
  -28.9286  -25.9559   29.4610 C   0  0  0  0  0  0  0  0  0  0  0  0
  -23.2985   -9.6651   21.2158 C   0  0  0  0  0  0  0  0  0  0  0  0
  -24.0218  -10.5188   23.3571 C   0  0  0  0  0  0  0  0  0  0  0  0
  -27.0673  -27.0715   30.5129 C   0  0  0  0  0  0  0  0  0  0  0  0
  -28.3517  -26.1779   28.2111 C   0  0  0  0  0  0  0  0  0  0  0  0
  -31.2801  -27.3203   22.9551 C   0  0  0  0  0  0  0  0  0  0  0  0
  -30.7996  -19.1522   18.5659 C   0  0  0  0  0  0  0  0  0  0  0  0
  -30.7382  -17.8410   19.0376 C   0  0  0  0  0  0  0  0  0  0  0  0
  -22.6418   -8.6145   21.8565 C   0  0  0  0  0  0  0  0  0  0  0  0
  -23.3650   -9.4682   23.9978 C   0  0  0  0  0  0  0  0  0  0  0  0
  -31.6323  -26.5042   21.8811 C   0  0  0  0  0  0  0  0  0  0  0  0
  -20.1991   -8.6797   24.8786 C   0  0  0  0  0  0  0  0  0  0  0  0
  -19.4303   -8.9866   26.0013 C   0  0  0  0  0  0  0  0  0  0  0  0
  -29.6398  -27.1955   20.7101 C   0  0  0  0  0  0  0  0  0  0  0  0
  -29.0716  -18.5018   20.6572 C   0  0  0  0  0  0  0  0  0  0  0  0
  -20.8058   -7.5223   27.3434 C   0  0  0  0  0  0  0  0  0  0  0  0
  -23.9886  -10.6173   21.9661 C   0  0  0  0  0  0  0  0  0  0  0  0
  -24.1374  -12.9655   20.9807 C   0  0  0  0  0  0  0  0  0  0  0  0
  -26.4798  -27.3104   29.2606 C   0  0  0  0  0  0  0  0  0  0  0  0
  -30.0975  -28.0731   22.9192 C   0  0  0  0  0  0  0  0  0  0  0  0
  -27.1230  -26.8500   28.0957 C   0  0  0  0  0  0  0  0  0  0  0  0
  -29.2761  -28.0224   21.7840 C   0  0  0  0  0  0  0  0  0  0  0  0
  -29.9971  -20.1383   19.1398 C   0  0  0  0  0  0  0  0  0  0  0  0
  -29.8742  -17.5158   20.0832 C   0  0  0  0  0  0  0  0  0  0  0  0
  -22.6750   -8.5160   23.2475 C   0  0  0  0  0  0  0  0  0  0  0  0
  -30.8107  -26.4394   20.7596 C   0  0  0  0  0  0  0  0  0  0  0  0
  -21.2712   -7.7941   24.9883 C   0  0  0  0  0  0  0  0  0  0  0  0
  -19.7337   -8.4079   27.2337 C   0  0  0  0  0  0  0  0  0  0  0  0
  -21.5746   -7.2155   26.2207 C   0  0  0  0  0  0  0  0  0  0  0  0
  -29.1331  -19.8131   20.1854 C   0  0  0  0  0  0  0  0  0  0  0  0
  -24.6678  -11.7024   21.3049 C   0  0  0  0  0  0  0  0  0  0  0  0
  -25.1740  -13.6263   20.3681 C   0  0  0  0  0  0  0  0  0  0  0  0
  -30.4552  -22.6228   19.3553 C   0  0  0  0  0  0  0  0  0  0  0  0
  -22.8250  -13.4943   21.2127 C   0  0  0  0  0  0  0  0  0  0  0  0
  -27.4322  -28.1472   24.6498 C   0  0  0  0  0  0  0  0  0  0  0  0
  -26.7619  -30.7218   22.7939 C   0  0  0  0  0  0  0  0  0  0  0  0
  -27.2714  -32.3905   19.8609 C   0  0  0  0  0  0  0  0  0  0  0  0
  -30.5406  -15.0865   20.1035 C   0  0  0  0  0  0  0  0  0  0  0  0
  -25.1379  -27.9966   29.2073 C   0  0  0  0  0  0  0  0  0  0  0  0
  -29.7452  -28.9691   24.0749 C   0  0  0  0  0  0  0  0  0  0  0  0
  -28.0062  -28.8264   21.6874 C   0  0  0  0  0  0  0  0  0  0  0  0
  -24.7771  -28.5220   27.8202 C   0  0  0  0  0  0  0  0  0  0  0  0
  -29.6498  -11.9272   18.7241 C   0  0  0  0  0  0  0  0  0  0  0  0
  -25.0528  -27.4613   26.7592 C   0  0  0  0  0  0  0  0  0  0  0  0
  -28.2306  -11.6910   19.2459 C   0  0  0  0  0  0  0  0  0  0  0  0
  -29.6394  -23.2829   17.2192 C   0  0  0  0  0  0  0  0  0  0  0  0
  -30.5268  -12.6251   19.7621 C   0  0  0  0  0  0  0  0  0  0  0  0
  -29.8407  -21.7808   17.2371 C   0  0  0  0  0  0  0  0  0  0  0  0
  -28.5498  -13.6309   20.8339 C   0  0  0  0  0  0  0  0  0  0  0  0
  -26.5410  -27.0937   26.7202 C   0  0  1  0  0  0  0  0  0  0  0  0
  -30.5293  -23.7654   18.3555 C   0  0  1  0  0  0  0  0  0  0  0  0
  -28.2570  -29.2971   24.1446 C   0  0  1  0  0  0  0  0  0  0  0  0
  -27.6106  -12.9888   19.7999 C   0  0  2  0  0  0  0  0  0  0  0  0
  -26.5552  -34.4476   18.6147 C   0  0  0  0  0  0  0  0  0  0  0  0
  -24.1090  -29.3796   22.1079 C   0  0  0  0  0  0  0  0  0  0  0  0
  -23.8829  -30.9669   20.1851 C   0  0  0  0  0  0  0  0  0  0  0  0
  -23.9566  -31.8415   22.5201 C   0  0  0  0  0  0  0  0  0  0  0  0
  -30.0306  -33.4597   19.8071 C   0  0  0  0  0  0  0  0  0  0  0  0
  -30.0849  -25.0940   18.9378 C   0  0  0  0  0  0  0  0  0  1  0  0
  -26.0694  -30.9337   21.4693 C   0  0  1  0  0  0  0  0  0  0  0  0
  -27.5747  -33.8496   19.5716 C   0  0  2  0  0  0  0  0  0  0  0  0
  -24.5274  -30.7637   21.5729 C   0  0  0  0  0  0  0  0  0  0  0  0
  -25.9423  -11.5665   20.9291 N   0  0  0  0  0  0  0  0  0  0  0  0
  -26.2214  -12.7527   20.3625 N   0  0  0  0  0  0  0  0  0  0  0  0
  -30.0849  -21.4696   18.6331 N   0  0  0  0  0  0  0  0  0  0  0  0
  -27.7017  -29.6827   22.8457 N   0  0  0  0  0  0  0  0  0  0  0  0
  -29.8775  -13.8484   20.2385 N   0  0  0  0  0  0  0  0  0  0  0  0
  -25.2826  -14.8635   19.8390 N   0  0  0  0  0  0  0  0  0  0  0  0
  -21.8810  -12.6814   21.8548 N   0  0  0  0  0  0  0  0  0  0  0  0
  -29.8122  -16.1836   20.5620 N   0  0  0  0  0  0  0  0  0  0  0  0
  -27.2955  -28.1140   26.0244 N   0  0  0  0  0  0  0  0  0  0  0  0
  -26.4952  -32.2446   20.9911 N   0  0  0  0  0  0  0  0  0  0  0  0
  -28.9279  -33.9865   18.9624 N   0  3  0  0  0  0  0  0  0  0  0  0
  -30.7414  -22.7478   20.5373 O   0  0  0  0  0  0  0  0  0  0  0  0
  -22.4942  -14.6475   20.8463 O   0  0  0  0  0  0  0  0  0  0  0  0
  -26.9540  -27.3500   23.8514 O   0  0  0  0  0  0  0  0  0  0  0  0
  -26.4846  -31.4561   23.7455 O   0  0  0  0  0  0  0  0  0  0  0  0
  -27.6790  -31.4724   19.1528 O   0  0  0  0  0  0  0  0  0  0  0  0
  -31.6602  -15.1707   19.5922 O   0  0  0  0  0  0  0  0  0  0  0  0
  -22.0340   -7.4911   23.8730 O   0  0  0  0  0  0  0  0  0  0  0  0
  -31.1518  -25.6431   19.7101 O   0  0  0  0  0  0  0  0  0  1  0  0
  -18.9963   -8.7038   28.3120 F   0  0  0  0  0  0  0  0  0  0  0  0
  -22.6041   -6.3649   26.3325 F   0  0  0  0  0  0  0  0  0  0  0  0
  -28.1220  -21.0032   20.9246 Cl  0  0  0  0  0  0  0  0  0  0  0  0
  1  2  1  0  0  0  0
  1  5  2  0  0  0  0
  2  6  2  0  0  0  0
  3 10  2  0  0  0  0
  3 18  1  0  0  0  0
  4 11  1  0  0  0  0
  4 18  2  0  0  0  0
  5 20  1  0  0  0  0
  6 22  1  0  0  0  0
  7 12  2  0  0  0  0
  7 21  1  0  0  0  0
  8  9  2  0  0  0  0
  8 24  1  0  0  0  0
  9 25  1  0  0  0  0
 10 26  1  0  0  0  0
 11 26  2  0  0  0  0
 12 27  1  0  0  0  0
 13 14  2  0  0  0  0
 13 28  1  0  0  0  0
 14 29  1  0  0  0  0
 15 23  1  0  0  0  0
 15 27  2  0  0  0  0
 16 25  2  0  0  0  0
 16 31  1  0  0  0  0
 17 29  2  0  0  0  0
 17 30  1  0  0  0  0
 18 32  1  0  0  0  0
 19 32  1  0  0  0  0
 19 33  2  0  0  0  0
 19 35  1  0  0  0  0
 20 22  2  0  0  0  0
 20 40  1  0  0  0  0
 21 23  2  0  0  0  0
 21 41  1  0  0  0  0
 22 51  1  0  0  0  0
 23 42  1  0  0  0  0
 24 31  2  0  0  0  0
 24 66  1  0  0  0  0
 25 71  1  0  0  0  0
 26 81  1  0  0  0  0
 27 82  1  0  0  0  0
 28 30  2  0  0  0  0
 28 81  1  0  0  0  0
 29 83  1  0  0  0  0
 30 84  1  0  0  0  0
 31 85  1  0  0  0  0
 32 64  2  0  0  0  0
 33 65  1  0  0  0  0
 33 69  1  0  0  0  0
 34 52  1  0  0  0  0
 34 66  1  0  0  0  0
 34 75  2  0  0  0  0
 35 70  1  0  0  0  0
 35 76  2  0  0  0  0
 36 53  1  0  0  0  0
 36 72  1  0  0  0  0
 36 77  2  0  0  0  0
 37 61  1  0  0  0  0
 37 67  1  0  0  0  0
 37 78  2  0  0  0  0
 38 62  1  0  0  0  0
 38 73  1  0  0  0  0
 38 79  2  0  0  0  0
 39 68  1  0  0  0  0
 39 71  1  0  0  0  0
 39 80  2  0  0  0  0
 40 43  1  0  0  0  0
 41 53  1  0  0  0  0
 42 67  1  0  0  0  0
 43 45  1  0  0  0  0
 44 46  1  0  0  0  0
 44 48  1  0  0  0  0
 45 51  1  0  0  0  0
 46 54  1  0  0  0  0
 47 49  1  0  0  0  0
 47 52  1  0  0  0  0
 48 68  1  0  0  0  0
 49 66  1  0  0  0  0
 50 54  1  0  0  0  0
 50 68  1  0  0  0  0
 51 72  1  0  0  0  0
 52 60  1  0  0  0  0
 53 67  1  0  0  0  0
 54 65  1  0  0  0  0
 55 62  1  0  0  0  0
 56 63  1  0  0  0  0
 57 63  1  0  0  0  0
 58 63  1  0  0  0  0
 59 74  1  0  0  0  0
 60 82  1  0  0  0  0
 61 63  1  0  0  0  0
 61 73  1  0  0  0  0
 62 74  1  0  0  0  0
 64 65  1  0  0  0  0
M  CHG  1  74   1
M  ISO  4  39 100  60 101  71 100  82 101
M  END
> <Batch ID>
0022

> <Smiles>
CNC(C)C(=O)NC(C(=O)N1Cc2cc([101O:1][101CH2:1]C3CCN(c4ccc([100NH:0][100C:0](=O)N5CCCC(n6nc(-c7ccc(Oc8ccc(F)cc8F)cc7)c(C(N)=O)c6N)C5)cc4Cl)C3=O)ccc2CC1C(=O)NC1CCCc2ccccc21)C(C)(C)C

> <Shape>
0.288

> <Color>
0.153

> <Negative vol penalty>
0.000

$$$$

  -OEChem-04042321143D

 86 95  0     1  0  0  0  0  0999 V2000
  -30.0578  -33.8701   25.2514 C   0  0  0  0  0  0  0  0  0  0  0  0
  -29.8616  -32.6183   24.6769 C   0  0  0  0  0  0  0  0  0  0  0  0
  -23.7882   -8.7377   19.5533 C   0  0  0  0  0  0  0  0  0  0  0  0
  -23.3046  -10.1782   21.4316 C   0  0  0  0  0  0  0  0  0  0  0  0
  -28.9764  -34.5656   25.7905 C   0  0  0  0  0  0  0  0  0  0  0  0
  -28.5839  -32.0609   24.6422 C   0  0  0  0  0  0  0  0  0  0  0  0
  -27.4756  -30.0219   20.1412 C   0  0  0  0  0  0  0  0  0  0  0  0
  -30.4244  -19.4779   21.2175 C   0  0  0  0  0  0  0  0  0  0  0  0
  -30.3563  -18.1232   20.8923 C   0  0  0  0  0  0  0  0  0  0  0  0
  -23.0058   -7.7330   20.1224 C   0  0  0  0  0  0  0  0  0  0  0  0
  -22.5221   -9.1735   22.0007 C   0  0  0  0  0  0  0  0  0  0  0  0
  -28.0213  -28.7708   19.8572 C   0  0  0  0  0  0  0  0  0  0  0  0
  -19.4142   -7.9094   21.5968 C   0  0  0  0  0  0  0  0  0  0  0  0
  -18.1742   -8.2743   22.1209 C   0  0  0  0  0  0  0  0  0  0  0  0
  -25.9213  -27.7314   20.4306 C   0  0  0  0  0  0  0  0  0  0  0  0
  -28.1782  -18.4695   19.9058 C   0  0  0  0  0  0  0  0  0  0  0  0
  -18.8618   -7.4842   24.2980 C   0  0  0  0  0  0  0  0  0  0  0  0
  -23.9377   -9.9604   20.2079 C   0  0  0  0  0  0  0  0  0  0  0  0
  -24.3222  -12.0089   18.7371 C   0  0  0  0  0  0  0  0  0  0  0  0
  -27.6832  -34.0206   25.7538 C   0  0  0  0  0  0  0  0  0  0  0  0
  -26.1497  -30.1364   20.5832 C   0  0  0  0  0  0  0  0  0  0  0  0
  -27.4844  -32.7492   25.1825 C   0  0  0  0  0  0  0  0  0  0  0  0
  -25.3604  -28.9853   20.7171 C   0  0  0  0  0  0  0  0  0  0  0  0
  -29.3693  -20.3284   20.8870 C   0  0  0  0  0  0  0  0  0  0  0  0
  -29.2333  -17.6190   20.2364 C   0  0  0  0  0  0  0  0  0  0  0  0
  -22.3727   -7.9508   21.3461 C   0  0  0  0  0  0  0  0  0  0  0  0
  -27.2451  -27.6250   20.0046 C   0  0  0  0  0  0  0  0  0  0  0  0
  -20.3780   -7.3318   22.4232 C   0  0  0  0  0  0  0  0  0  0  0  0
  -17.8980   -8.0618   23.4715 C   0  0  0  0  0  0  0  0  0  0  0  0
  -20.1019   -7.1192   23.7739 C   0  0  0  0  0  0  0  0  0  0  0  0
  -28.2463  -19.8242   20.2311 C   0  0  0  0  0  0  0  0  0  0  0  0
  -24.7462  -10.9985   19.6209 C   0  0  0  0  0  0  0  0  0  0  0  0
  -25.4585  -12.7343   18.4743 C   0  0  0  0  0  0  0  0  0  0  0  0
  -23.0177  -12.2685   18.2016 C   0  0  0  0  0  0  0  0  0  0  0  0
  -24.7519  -31.2107   23.2282 C   0  0  0  0  0  0  0  0  0  0  0  0
  -22.0333  -30.6833   21.5390 C   0  0  0  0  0  0  0  0  0  0  0  0
  -20.4730  -29.0038   19.0109 C   0  0  0  0  0  0  0  0  0  0  0  0
  -30.1224  -15.2631   20.1643 C   0  0  0  0  0  0  0  0  0  0  0  0
  -26.5531  -34.7892   26.3916 C   0  0  0  0  0  0  0  0  0  0  0  0
  -25.5677  -31.4955   20.8598 C   0  0  0  0  0  0  0  0  0  0  0  0
  -23.9254  -29.0559   21.1691 C   0  0  0  0  0  0  0  0  0  0  0  0
  -25.1698  -34.2927   25.9792 C   0  0  0  0  0  0  0  0  0  0  0  0
  -30.3089  -11.7616   19.5462 C   0  0  0  0  0  0  0  0  0  0  0  0
  -31.4438  -23.3887   18.3960 C   0  0  0  0  0  0  0  0  0  0  0  0
  -25.1025  -32.7710   26.0610 C   0  0  0  0  0  0  0  0  0  0  0  0
  -30.9945  -24.8356   18.5707 C   0  0  0  0  0  0  0  0  0  0  0  0
  -28.8434  -11.3340   19.4378 C   0  0  0  0  0  0  0  0  0  0  0  0
  -30.5063  -12.8474   20.6026 C   0  0  0  0  0  0  0  0  0  0  0  0
  -28.1729  -13.5951   20.3461 C   0  0  0  0  0  0  0  0  0  0  0  0
  -31.2268  -22.5731   19.6614 C   0  0  0  0  0  0  0  0  0  0  0  0
  -29.3380  -24.0881   20.3231 C   0  0  0  0  0  0  0  0  0  0  0  0
  -26.1094  -32.1221   25.1037 C   0  0  1  0  0  0  0  0  0  0  0  0
  -24.3644  -31.4509   21.7965 C   0  0  1  0  0  0  0  0  0  0  0  0
  -29.5416  -24.9149   19.0523 C   0  0  1  0  0  0  0  0  0  0  0  0
  -27.9143  -12.5492   19.2493 C   0  0  2  0  0  0  0  0  0  0  0  0
  -18.2390  -28.7563   17.8949 C   0  0  0  0  0  0  0  0  0  0  0  0
  -21.0486  -29.0031   23.8879 C   0  0  0  0  0  0  0  0  0  0  0  0
  -19.3053  -28.0347   22.3741 C   0  0  0  0  0  0  0  0  0  0  0  0
  -19.3116  -30.4811   22.8618 C   0  0  0  0  0  0  0  0  0  0  0  0
  -21.5390  -29.9333   16.4112 C   0  0  0  0  0  0  0  0  0  0  0  0
  -29.4818  -21.7788   21.2541 C   0  0  0  0  0  0  0  0  0  0  0  0
  -29.1337  -26.3673   19.2925 C   0  0  0  0  0  0  0  0  0  1  0  0
  -21.0977  -29.5126   21.3573 C   0  0  1  0  0  0  0  0  0  0  0  0
  -19.5739  -29.4849   17.8864 C   0  0  2  0  0  0  0  0  0  0  0  0
  -20.2184  -29.2560   22.6136 C   0  0  0  0  0  0  0  0  0  0  0  0
  -26.0502  -11.0721   19.9007 N   0  0  0  0  0  0  0  0  0  0  0  0
  -26.4553  -12.1374   19.1886 N   0  0  0  0  0  0  0  0  0  0  0  0
  -23.4038  -30.4071   21.4332 N   0  0  0  0  0  0  0  0  0  0  0  0
  -29.5961  -13.9683   20.3576 N   0  0  0  0  0  0  0  0  0  0  0  0
  -25.6922  -13.8182   17.7042 N   0  0  0  0  0  0  0  0  0  0  0  0
  -21.9622  -11.4256   18.5753 N   0  0  0  0  0  0  0  0  0  0  0  0
  -29.1638  -16.2426   19.9071 N   0  0  0  0  0  0  0  0  0  0  0  0
  -25.6123  -32.1605   23.7451 N   0  0  0  0  0  0  0  0  0  0  0  0
  -20.3382  -29.7820   20.1412 N   0  0  0  0  0  0  0  0  0  0  0  0
  -29.7780  -22.6641   20.0746 N   0  3  2  0  0  0  0  0  0  0  0  0
  -20.2267  -29.2545   16.5667 N   0  3  0  0  0  0  0  0  0  0  0  0
  -22.7982  -13.2099   17.4021 O   0  0  0  0  0  0  0  0  0  0  0  0
  -24.3024  -30.2367   23.8205 O   0  0  0  0  0  0  0  0  0  0  0  0
  -21.5650  -31.8031   21.7594 O   0  0  0  0  0  0  0  0  0  0  0  0
  -21.2174  -28.0323   18.8992 O   0  0  0  0  0  0  0  0  0  0  0  0
  -31.3362  -15.4816   20.1957 O   0  0  0  0  0  0  0  0  0  0  0  0
  -21.6090   -6.9707   21.9016 O   0  0  0  0  0  0  0  0  0  0  0  0
  -27.7754  -26.4026   19.7288 O   0  0  0  0  0  0  0  0  0  1  0  0
  -16.7077   -8.4137   23.9750 F   0  0  0  0  0  0  0  0  0  0  0  0
  -21.0243   -6.5658   24.5731 F   0  0  0  0  0  0  0  0  0  0  0  0
  -26.9216  -20.8464   19.8067 Cl  0  0  0  0  0  0  0  0  0  0  0  0
  1  2  1  0  0  0  0
  1  5  2  0  0  0  0
  2  6  2  0  0  0  0
  3 10  2  0  0  0  0
  3 18  1  0  0  0  0
  4 11  1  0  0  0  0
  4 18  2  0  0  0  0
  5 20  1  0  0  0  0
  6 22  1  0  0  0  0
  7 12  2  0  0  0  0
  7 21  1  0  0  0  0
  8  9  2  0  0  0  0
  8 24  1  0  0  0  0
  9 25  1  0  0  0  0
 10 26  1  0  0  0  0
 11 26  2  0  0  0  0
 12 27  1  0  0  0  0
 13 14  2  0  0  0  0
 13 28  1  0  0  0  0
 14 29  1  0  0  0  0
 15 23  1  0  0  0  0
 15 27  2  0  0  0  0
 16 25  2  0  0  0  0
 16 31  1  0  0  0  0
 17 29  2  0  0  0  0
 17 30  1  0  0  0  0
 18 32  1  0  0  0  0
 19 32  1  0  0  0  0
 19 33  2  0  0  0  0
 19 34  1  0  0  0  0
 20 22  2  0  0  0  0
 20 39  1  0  0  0  0
 21 23  2  0  0  0  0
 21 40  1  0  0  0  0
 22 52  1  0  0  0  0
 23 41  1  0  0  0  0
 24 31  2  0  0  0  0
 24 61  1  0  0  0  0
 25 72  1  0  0  0  0
 26 82  1  0  0  0  0
 27 83  1  0  0  0  0
 28 30  2  0  0  0  0
 28 82  1  0  0  0  0
 29 84  1  0  0  0  0
 30 85  1  0  0  0  0
 31 86  1  0  0  0  0
 32 66  2  0  0  0  0
 33 67  1  0  0  0  0
 33 70  1  0  0  0  0
 34 71  1  0  0  0  0
 34 77  2  0  0  0  0
 35 53  1  0  0  0  0
 35 73  1  0  0  0  0
 35 78  2  0  0  0  0
 36 63  1  0  0  0  0
 36 68  1  0  0  0  0
 36 79  2  0  0  0  0
 37 64  1  0  0  0  0
 37 74  1  0  0  0  0
 37 80  2  0  0  0  0
 38 69  1  0  0  0  0
 38 72  1  0  0  0  0
 38 81  2  0  0  0  0
 39 42  1  0  0  0  0
 40 53  1  0  0  0  0
 41 68  1  0  0  0  0
 42 45  1  0  0  0  0
 43 47  1  0  0  0  0
 43 48  1  0  0  0  0
 44 46  1  0  0  0  0
 44 50  1  0  0  0  0
 45 52  1  0  0  0  0
 46 54  1  0  0  0  0
 47 55  1  0  0  0  0
 48 69  1  0  0  0  0
 49 55  1  0  0  0  0
 49 69  1  0  0  0  0
 50 75  1  0  0  0  0
 51 54  1  0  0  0  0
 51 75  1  0  0  0  0
 52 73  1  0  0  0  0
 53 68  1  0  0  0  0
 54 62  1  0  0  0  0
 55 67  1  0  0  0  0
 56 64  1  0  0  0  0
 57 65  1  0  0  0  0
 58 65  1  0  0  0  0
 59 65  1  0  0  0  0
 60 76  1  0  0  0  0
 61 75  1  0  0  0  0
 62 83  1  0  0  0  0
 63 65  1  0  0  0  0
 63 74  1  0  0  0  0
 64 76  1  0  0  0  0
 66 67  1  0  0  0  0
M  CHG  2  75   1  76   1
M  ISO  4  38 100  62 101  72 100  83 101
M  END
> <Batch ID>
0022

> <Smiles>
CNC(C)C(=O)NC(C(=O)N1Cc2cc([101O:1][101CH2:1]C3CCCN(Cc4ccc([100NH:0][100C:0](=O)N5CCCC(n6nc(-c7ccc(Oc8ccc(F)cc8F)cc7)c(C(N)=O)c6N)C5)cc4Cl)C3)ccc2CC1C(=O)NC1CCCc2ccccc21)C(C)(C)C

> <Shape>
0.345

> <Color>
0.105

> <Negative vol penalty>
0.000

$$$$

  -OEChem-04042321143D

 85 93  0     1  0  0  0  0  0999 V2000
  -27.5972  -36.2005   25.3445 C   0  0  0  0  0  0  0  0  0  0  0  0
  -28.1069  -35.0594   24.7333 C   0  0  0  0  0  0  0  0  0  0  0  0
  -30.0040  -21.8396   14.7147 C   0  0  0  0  0  0  0  0  0  0  0  0
  -29.4366  -22.3054   13.5287 C   0  0  0  0  0  0  0  0  0  0  0  0
  -25.1908  -15.0440   21.4498 C   0  0  0  0  0  0  0  0  0  0  0  0
  -25.7851  -13.6782   19.5476 C   0  0  0  0  0  0  0  0  0  0  0  0
  -26.2948  -36.2006   25.8421 C   0  0  0  0  0  0  0  0  0  0  0  0
  -27.3148  -33.9173   24.6205 C   0  0  0  0  0  0  0  0  0  0  0  0
  -27.3101  -29.8805   20.0152 C   0  0  0  0  0  0  0  0  0  0  0  0
  -29.3603  -22.0652   15.9315 C   0  0  0  0  0  0  0  0  0  0  0  0
  -28.2255  -22.9967   13.5593 C   0  0  0  0  0  0  0  0  0  0  0  0
  -24.1507  -14.1663   21.7551 C   0  0  0  0  0  0  0  0  0  0  0  0
  -24.7449  -12.8004   19.8529 C   0  0  0  0  0  0  0  0  0  0  0  0
  -27.9179  -28.6356   19.8584 C   0  0  0  0  0  0  0  0  0  0  0  0
  -24.1672  -10.2904   22.0407 C   0  0  0  0  0  0  0  0  0  0  0  0
  -24.4413   -8.9235   21.9988 C   0  0  0  0  0  0  0  0  0  0  0  0
  -25.8785  -27.5577   20.5644 C   0  0  0  0  0  0  0  0  0  0  0  0
  -22.7481   -8.6360   20.2995 C   0  0  0  0  0  0  0  0  0  0  0  0
  -26.0080  -14.8000   20.3460 C   0  0  0  0  0  0  0  0  0  0  0  0
  -28.4113  -15.6434   20.4900 C   0  0  0  0  0  0  0  0  0  0  0  0
  -25.4831  -35.0612   25.7268 C   0  0  0  0  0  0  0  0  0  0  0  0
  -25.9831  -29.9738   20.4589 C   0  0  0  0  0  0  0  0  0  0  0  0
  -26.0008  -33.9018   25.1184 C   0  0  0  0  0  0  0  0  0  0  0  0
  -25.2554  -28.8049   20.7235 C   0  0  0  0  0  0  0  0  0  0  0  0
  -28.1492  -22.7566   15.9621 C   0  0  0  0  0  0  0  0  0  0  0  0
  -27.5818  -23.2223   14.7761 C   0  0  0  0  0  0  0  0  0  0  0  0
  -23.9277  -13.0445   20.9567 C   0  0  0  0  0  0  0  0  0  0  0  0
  -27.2031  -27.4740   20.1358 C   0  0  0  0  0  0  0  0  0  0  0  0
  -23.1834  -10.8302   21.2121 C   0  0  0  0  0  0  0  0  0  0  0  0
  -23.7319   -8.0963   21.1282 C   0  0  0  0  0  0  0  0  0  0  0  0
  -22.4739  -10.0030   20.3415 C   0  0  0  0  0  0  0  0  0  0  0  0
  -27.0824  -15.7066   20.0298 C   0  0  0  0  0  0  0  0  0  0  0  0
  -29.0284  -16.7229   19.9066 C   0  0  0  0  0  0  0  0  0  0  0  0
  -29.0324  -14.6938   21.3665 C   0  0  0  0  0  0  0  0  0  0  0  0
  -24.5498  -31.2509   22.9924 C   0  0  0  0  0  0  0  0  0  0  0  0
  -21.8506  -30.4096   21.4021 C   0  0  0  0  0  0  0  0  0  0  0  0
  -20.3620  -28.3938   19.0853 C   0  0  0  0  0  0  0  0  0  0  0  0
  -27.1049  -21.8973   18.0508 C   0  0  0  0  0  0  0  0  0  0  0  0
  -24.0977  -35.0935   26.3221 C   0  0  0  0  0  0  0  0  0  0  0  0
  -25.3334  -31.3233   20.5972 C   0  0  0  0  0  0  0  0  0  0  0  0
  -23.8218  -28.8502   21.1831 C   0  0  0  0  0  0  0  0  0  0  0  0
  -23.1960  -33.9652   25.8281 C   0  0  0  0  0  0  0  0  0  0  0  0
  -28.8281  -19.5230   16.0417 C   0  0  0  0  0  0  0  0  0  0  0  0
  -23.9359  -32.6320   25.8729 C   0  0  0  0  0  0  0  0  0  0  0  0
  -28.6933  -18.2563   16.8860 C   0  0  0  0  0  0  0  0  0  0  0  0
  -27.5524  -20.3655   16.0658 C   0  0  0  0  0  0  0  0  0  0  0  0
  -26.9414  -19.4294   18.2737 C   0  0  0  0  0  0  0  0  0  0  0  0
  -25.1640  -32.6515   24.9549 C   0  0  1  0  0  0  0  0  0  0  0  0
  -24.1405  -31.3175   21.5482 C   0  0  1  0  0  0  0  0  0  0  0  0
  -28.2289  -18.5915   18.3143 C   0  0  1  0  0  0  0  0  0  0  0  0
  -24.4283  -22.5790   14.1972 C   0  0  0  0  0  0  0  0  0  0  0  0
  -18.1363  -27.9161   18.0293 C   0  0  0  0  0  0  0  0  0  0  0  0
  -20.9703  -28.9407   23.9275 C   0  0  0  0  0  0  0  0  0  0  0  0
  -19.2692  -27.7297   22.5463 C   0  0  0  0  0  0  0  0  0  0  0  0
  -19.1521  -30.2112   22.7723 C   0  0  0  0  0  0  0  0  0  0  0  0
  -26.2886  -25.2811   14.2768 C   0  0  0  0  0  0  0  0  0  0  0  0
  -21.3606  -29.0947   16.3889 C   0  0  0  0  0  0  0  0  0  0  0  0
  -25.1537  -23.2953   15.2851 C   0  0  0  0  0  0  0  0  0  0  0  0
  -27.4785  -24.3391   17.7798 C   0  0  0  0  0  0  0  0  0  0  0  0
  -28.8066  -26.1475   18.9848 C   0  0  0  0  0  0  0  0  0  1  0  0
  -20.9757  -29.1802   21.3568 C   0  0  1  0  0  0  0  0  0  0  0  0
  -19.4315  -28.7064   17.9273 C   0  0  2  0  0  0  0  0  0  0  0  0
  -28.7946  -24.7285   18.4376 C   0  0  1  0  0  0  0  0  0  0  0  0
  -20.1194  -29.0143   22.6439 C   0  0  0  0  0  0  0  0  0  0  0  0
  -26.8670  -16.7443   19.2168 N   0  0  0  0  0  0  0  0  0  0  0  0
  -28.0689  -17.3431   19.1617 N   0  0  0  0  0  0  0  0  0  0  0  0
  -23.2328  -30.1936   21.3093 N   0  0  0  0  0  0  0  0  0  0  0  0
  -27.1256  -20.6254   17.4481 N   0  0  0  0  0  0  0  0  0  0  0  0
  -30.2927  -17.1927   19.9633 N   0  0  0  0  0  0  0  0  0  0  0  0
  -28.2534  -13.6462   21.8763 N   0  0  0  0  0  0  0  0  0  0  0  0
  -24.7652  -32.4858   23.5736 N   0  0  0  0  0  0  0  0  0  0  0  0
  -20.1948  -29.2799   20.1284 N   0  0  0  0  0  0  0  0  0  0  0  0
  -27.5016  -22.9778   17.2337 N   0  0  0  0  0  0  0  0  0  0  0  0
  -26.3565  -23.9264   14.7835 N   0  0  3  0  0  0  0  0  0  0  0  0
  -20.0863  -28.3705   16.6314 N   0  3  0  0  0  0  0  0  0  0  0  0
  -30.2382  -14.7814   21.7010 O   0  0  0  0  0  0  0  0  0  0  0  0
  -24.6603  -30.1598   23.5393 O   0  0  0  0  0  0  0  0  0  0  0  0
  -21.3265  -31.5212   21.5086 O   0  0  0  0  0  0  0  0  0  0  0  0
  -21.1550  -27.4549   19.0679 O   0  0  0  0  0  0  0  0  0  0  0  0
  -26.7356  -22.0589   19.2202 O   0  0  0  0  0  0  0  0  0  0  0  0
  -22.9129  -12.1877   21.2544 O   0  0  0  0  0  0  0  0  0  0  0  0
  -27.7941  -26.2577   19.9843 O   0  0  0  0  0  0  0  0  0  1  0  0
  -23.9963   -6.7838   21.0869 F   0  0  0  0  0  0  0  0  0  0  0  0
  -21.5285  -10.5160   19.5422 F   0  0  0  0  0  0  0  0  0  0  0  0
  -29.0242  -23.8709   19.4742 F   0  0  0  0  0  0  0  0  0  0  0  0
  1  2  1  0  0  0  0
  1  7  2  0  0  0  0
  2  8  2  0  0  0  0
  3  4  1  0  0  0  0
  3 10  2  0  0  0  0
  4 11  2  0  0  0  0
  5 12  2  0  0  0  0
  5 19  1  0  0  0  0
  6 13  1  0  0  0  0
  6 19  2  0  0  0  0
  7 21  1  0  0  0  0
  8 23  1  0  0  0  0
  9 14  2  0  0  0  0
  9 22  1  0  0  0  0
 10 25  1  0  0  0  0
 11 26  1  0  0  0  0
 12 27  1  0  0  0  0
 13 27  2  0  0  0  0
 14 28  1  0  0  0  0
 15 16  2  0  0  0  0
 15 29  1  0  0  0  0
 16 30  1  0  0  0  0
 17 24  1  0  0  0  0
 17 28  2  0  0  0  0
 18 30  2  0  0  0  0
 18 31  1  0  0  0  0
 19 32  1  0  0  0  0
 20 32  1  0  0  0  0
 20 33  2  0  0  0  0
 20 34  1  0  0  0  0
 21 23  2  0  0  0  0
 21 39  1  0  0  0  0
 22 24  2  0  0  0  0
 22 40  1  0  0  0  0
 23 48  1  0  0  0  0
 24 41  1  0  0  0  0
 25 26  2  0  0  0  0
 25 73  1  0  0  0  0
 26 74  1  0  0  0  0
 27 81  1  0  0  0  0
 28 82  1  0  0  0  0
 29 31  2  0  0  0  0
 29 81  1  0  0  0  0
 30 83  1  0  0  0  0
 31 84  1  0  0  0  0
 32 65  2  0  0  0  0
 33 66  1  0  0  0  0
 33 69  1  0  0  0  0
 34 70  1  0  0  0  0
 34 76  2  0  0  0  0
 35 49  1  0  0  0  0
 35 71  1  0  0  0  0
 35 77  2  0  0  0  0
 36 61  1  0  0  0  0
 36 67  1  0  0  0  0
 36 78  2  0  0  0  0
 37 62  1  0  0  0  0
 37 72  1  0  0  0  0
 37 79  2  0  0  0  0
 38 68  1  0  0  0  0
 38 73  1  0  0  0  0
 38 80  2  0  0  0  0
 39 42  1  0  0  0  0
 40 49  1  0  0  0  0
 41 67  1  0  0  0  0
 42 44  1  0  0  0  0
 43 45  1  0  0  0  0
 43 46  1  0  0  0  0
 44 48  1  0  0  0  0
 45 50  1  0  0  0  0
 46 68  1  0  0  0  0
 47 50  1  0  0  0  0
 47 68  1  0  0  0  0
 48 71  1  0  0  0  0
 49 67  1  0  0  0  0
 50 66  1  0  0  0  0
 51 58  1  0  0  0  0
 52 62  1  0  0  0  0
 53 64  1  0  0  0  0
 54 64  1  0  0  0  0
 55 64  1  0  0  0  0
 56 74  1  0  0  0  0
 57 75  1  0  0  0  0
 58 74  1  0  0  0  0
 59 63  1  0  0  0  0
 59 73  1  0  0  0  0
 60 63  1  0  0  0  0
 60 82  1  0  0  0  0
 61 64  1  0  0  0  0
 61 72  1  0  0  0  0
 62 75  1  0  0  0  0
 63 85  1  0  0  0  0
 65 66  1  0  0  0  0
M  CHG  1  75   1
M  ISO  4  38 100  60 101  73 100  82 101
M  END
> <Batch ID>
0022

> <Smiles>
CCN(C)c1ccccc1[100N:0](CC(F)[101CH2:1][101O:1]c1ccc2c(c1)CN(C(=O)C(NC(=O)C(C)NC)C(C)(C)C)C(C(=O)NC1CCCc3ccccc31)C2)[100C:0](=O)N1CCCC(n2nc(-c3ccc(Oc4ccc(F)cc4F)cc3)c(C(N)=O)c2N)C1

> <Shape>
0.279

> <Color>
0.083

> <Negative vol penalty>
0.000

$$$$

  -OEChem-04042321143D

 84 93  0     1  0  0  0  0  0999 V2000
  -16.7588  -28.2462   25.9918 C   0  0  0  0  0  0  0  0  0  0  0  0
  -17.3563  -26.9948   26.1028 C   0  0  0  0  0  0  0  0  0  0  0  0
  -22.9838  -10.1894   20.3584 C   0  0  0  0  0  0  0  0  0  0  0  0
  -24.3726   -9.2380   22.0914 C   0  0  0  0  0  0  0  0  0  0  0  0
  -17.0022  -29.0366   24.8693 C   0  0  0  0  0  0  0  0  0  0  0  0
  -18.1968  -26.5325   25.0907 C   0  0  0  0  0  0  0  0  0  0  0  0
  -24.0361  -22.5061   24.0871 C   0  0  0  0  0  0  0  0  0  0  0  0
  -29.7330  -16.1852   20.2868 C   0  0  0  0  0  0  0  0  0  0  0  0
  -28.8956  -17.2998   20.2059 C   0  0  0  0  0  0  0  0  0  0  0  0
  -22.1802   -9.0495   20.3765 C   0  0  0  0  0  0  0  0  0  0  0  0
  -23.5690   -8.0980   22.1096 C   0  0  0  0  0  0  0  0  0  0  0  0
  -24.4821  -21.4264   23.3262 C   0  0  0  0  0  0  0  0  0  0  0  0
  -20.5760   -7.1824   23.3840 C   0  0  0  0  0  0  0  0  0  0  0  0
  -20.1973   -6.6781   24.6281 C   0  0  0  0  0  0  0  0  0  0  0  0
  -29.3119  -17.7780   22.5257 C   0  0  0  0  0  0  0  0  0  0  0  0
  -24.8924  -22.9115   21.4701 C   0  0  0  0  0  0  0  0  0  0  0  0
  -21.2922   -4.5868   24.1137 C   0  0  0  0  0  0  0  0  0  0  0  0
  -24.0800  -10.2837   21.2158 C   0  0  0  0  0  0  0  0  0  0  0  0
  -24.7491  -12.6277   21.9678 C   0  0  0  0  0  0  0  0  0  0  0  0
  -17.8537  -28.5878   23.8475 C   0  0  0  0  0  0  0  0  0  0  0  0
  -24.0046  -23.7972   23.5406 C   0  0  0  0  0  0  0  0  0  0  0  0
  -18.4508  -27.3171   23.9528 C   0  0  0  0  0  0  0  0  0  0  0  0
  -30.1509  -16.6548   22.6239 C   0  0  0  0  0  0  0  0  0  0  0  0
  -24.4480  -24.0064   22.2270 C   0  0  0  0  0  0  0  0  0  0  0  0
  -30.3526  -15.8304   21.4968 C   0  0  0  0  0  0  0  0  0  0  0  0
  -28.6788  -18.0919   21.3263 C   0  0  0  0  0  0  0  0  0  0  0  0
  -22.4728   -8.0038   21.2521 C   0  0  0  0  0  0  0  0  0  0  0  0
  -24.9076  -21.6285   22.0166 C   0  0  0  0  0  0  0  0  0  0  0  0
  -21.3128   -6.3889   22.5047 C   0  0  0  0  0  0  0  0  0  0  0  0
  -20.5554   -5.3803   24.9930 C   0  0  0  0  0  0  0  0  0  0  0  0
  -21.6709   -5.0911   22.8696 C   0  0  0  0  0  0  0  0  0  0  0  0
  -24.9108  -11.4607   21.1972 C   0  0  0  0  0  0  0  0  0  0  0  0
  -25.7875  -13.4401   21.5827 C   0  0  0  0  0  0  0  0  0  0  0  0
  -23.7496  -12.9487   22.9443 C   0  0  0  0  0  0  0  0  0  0  0  0
  -21.7196  -25.9235   22.9399 C   0  0  0  0  0  0  0  0  0  0  0  0
  -24.2318  -27.8245   22.1670 C   0  0  0  0  0  0  0  0  0  0  0  0
  -27.4808  -28.0610   21.1497 C   0  0  0  0  0  0  0  0  0  0  0  0
  -31.3798  -13.7285   20.5757 C   0  0  0  0  0  0  0  0  0  0  0  0
  -18.0492  -29.4578   22.6311 C   0  0  0  0  0  0  0  0  0  0  0  0
  -23.5459  -24.9556   24.3833 C   0  0  0  0  0  0  0  0  0  0  0  0
  -30.8602  -16.4140   23.9349 C   0  0  0  0  0  0  0  0  0  0  0  0
  -24.4531  -25.3760   21.6004 C   0  0  0  0  0  0  0  0  0  0  0  0
  -19.2487  -29.0521   21.7785 C   0  0  0  0  0  0  0  0  0  0  0  0
  -29.0569  -13.0812   17.7598 C   0  0  0  0  0  0  0  0  0  0  0  0
  -19.2603  -27.5429   21.5571 C   0  0  0  0  0  0  0  0  0  0  0  0
  -27.7888  -12.6110   18.4686 C   0  0  0  0  0  0  0  0  0  0  0  0
  -30.3089  -12.7611   18.5702 C   0  0  0  0  0  0  0  0  0  0  0  0
  -29.0003  -12.8439   20.6741 C   0  0  0  0  0  0  0  0  0  0  0  0
  -32.1500  -14.6511   22.7179 C   0  0  0  0  0  0  0  0  0  0  0  0
  -19.3882  -26.7911   22.8875 C   0  0  1  0  0  0  0  0  0  0  0  0
  -23.0721  -26.1461   23.5554 C   0  0  1  0  0  0  0  0  0  0  0  0
  -27.7225  -13.1847   19.8928 C   0  0  2  0  0  0  0  0  0  0  0  0
  -31.4889  -15.0287   24.0365 C   0  0  2  0  0  0  0  0  0  0  0  0
  -29.2452  -29.7481   20.5685 C   0  0  0  0  0  0  0  0  0  0  0  0
  -22.8689  -28.3216   19.4827 C   0  0  0  0  0  0  0  0  0  0  0  0
  -25.0497  -29.1941   18.6160 C   0  0  0  0  0  0  0  0  0  0  0  0
  -23.9128  -30.3470   20.5136 C   0  0  0  0  0  0  0  0  0  0  0  0
  -29.2593  -27.1206   23.3203 C   0  0  0  0  0  0  0  0  0  0  0  0
  -27.1725  -19.6071   20.0377 C   0  0  0  0  0  0  0  0  0  0  0  0
  -26.3276  -20.8474   20.2760 C   0  0  0  0  0  0  0  0  0  1  0  0
  -25.0124  -28.1043   20.9055 C   0  0  1  0  0  0  0  0  0  0  0  0
  -28.6412  -28.8902   21.6694 C   0  0  2  0  0  0  0  0  0  0  0  0
  -24.2092  -28.9655   19.8903 C   0  0  0  0  0  0  0  0  0  0  0  0
  -25.9686  -11.5223   20.3840 N   0  0  0  0  0  0  0  0  0  0  0  0
  -26.4809  -12.7378   20.6414 N   0  0  0  0  0  0  0  0  0  0  0  0
  -31.2091  -14.6792   21.5954 N   0  0  0  0  0  0  0  0  0  0  0  0
  -23.9895  -26.4755   22.4626 N   0  0  0  0  0  0  0  0  0  0  0  0
  -30.2120  -13.2537   19.9454 N   0  0  0  0  0  0  0  0  0  0  0  0
  -26.1659  -14.6795   21.9609 N   0  0  0  0  0  0  0  0  0  0  0  0
  -22.7552  -12.0001   23.2193 N   0  0  0  0  0  0  0  0  0  0  0  0
  -27.8369  -19.2193   21.2439 N   0  0  0  0  0  0  0  0  0  0  0  0
  -20.7569  -26.8230   23.3566 N   0  0  0  0  0  0  0  0  0  0  0  0
  -26.2736  -28.7023   21.3301 N   0  0  0  0  0  0  0  0  0  0  0  0
  -29.7086  -28.0038   22.2134 N   0  3  0  0  0  0  0  0  0  0  0  0
  -23.7291  -14.0508   23.5430 O   0  0  0  0  0  0  0  0  0  0  0  0
  -21.5614  -25.0047   22.1446 O   0  0  0  0  0  0  0  0  0  0  0  0
  -23.8572  -28.7678   22.8682 O   0  0  0  0  0  0  0  0  0  0  0  0
  -27.6306  -26.9565   20.6318 O   0  0  0  0  0  0  0  0  0  0  0  0
  -32.5012  -13.2850   20.2979 O   0  0  0  0  0  0  0  0  0  0  0  0
  -21.6887   -6.8914   21.2702 O   0  0  0  0  0  0  0  0  0  0  0  0
  -25.3459  -20.5688   21.2663 O   0  0  0  0  0  0  0  0  0  1  0  0
  -20.1929   -4.8967   26.1884 F   0  0  0  0  0  0  0  0  0  0  0  0
  -22.3797   -4.3245   22.0295 F   0  0  0  0  0  0  0  0  0  0  0  0
  -30.2574  -13.8079   24.4950 Cl  0  0  0  0  0  0  0  0  0  0  0  0
  1  2  1  0  0  0  0
  1  5  2  0  0  0  0
  2  6  2  0  0  0  0
  3 10  2  0  0  0  0
  3 18  1  0  0  0  0
  4 11  1  0  0  0  0
  4 18  2  0  0  0  0
  5 20  1  0  0  0  0
  6 22  1  0  0  0  0
  7 12  2  0  0  0  0
  7 21  1  0  0  0  0
  8  9  2  0  0  0  0
  8 25  1  0  0  0  0
  9 26  1  0  0  0  0
 10 27  1  0  0  0  0
 11 27  2  0  0  0  0
 12 28  1  0  0  0  0
 13 14  2  0  0  0  0
 13 29  1  0  0  0  0
 14 30  1  0  0  0  0
 15 23  1  0  0  0  0
 15 26  2  0  0  0  0
 16 24  1  0  0  0  0
 16 28  2  0  0  0  0
 17 30  2  0  0  0  0
 17 31  1  0  0  0  0
 18 32  1  0  0  0  0
 19 32  1  0  0  0  0
 19 33  2  0  0  0  0
 19 34  1  0  0  0  0
 20 22  2  0  0  0  0
 20 39  1  0  0  0  0
 21 24  2  0  0  0  0
 21 40  1  0  0  0  0
 22 50  1  0  0  0  0
 23 25  2  0  0  0  0
 23 41  1  0  0  0  0
 24 42  1  0  0  0  0
 25 66  1  0  0  0  0
 26 71  1  0  0  0  0
 27 80  1  0  0  0  0
 28 81  1  0  0  0  0
 29 31  2  0  0  0  0
 29 80  1  0  0  0  0
 30 82  1  0  0  0  0
 31 83  1  0  0  0  0
 32 64  2  0  0  0  0
 33 65  1  0  0  0  0
 33 69  1  0  0  0  0
 34 70  1  0  0  0  0
 34 75  2  0  0  0  0
 35 51  1  0  0  0  0
 35 72  1  0  0  0  0
 35 76  2  0  0  0  0
 36 61  1  0  0  0  0
 36 67  1  0  0  0  0
 36 77  2  0  0  0  0
 37 62  1  0  0  0  0
 37 73  1  0  0  0  0
 37 78  2  0  0  0  0
 38 66  1  0  0  0  0
 38 68  1  0  0  0  0
 38 79  2  0  0  0  0
 39 43  1  0  0  0  0
 40 51  1  0  0  0  0
 41 53  1  0  0  0  0
 42 67  1  0  0  0  0
 43 45  1  0  0  0  0
 44 46  1  0  0  0  0
 44 47  1  0  0  0  0
 45 50  1  0  0  0  0
 46 52  1  0  0  0  0
 47 68  1  0  0  0  0
 48 52  1  0  0  0  0
 48 68  1  0  0  0  0
 49 53  1  0  0  0  0
 49 66  1  0  0  0  0
 50 72  1  0  0  0  0
 51 67  1  0  0  0  0
 52 65  1  0  0  0  0
 53 84  1  0  0  0  0
 54 62  1  0  0  0  0
 55 63  1  0  0  0  0
 56 63  1  0  0  0  0
 57 63  1  0  0  0  0
 58 74  1  0  0  0  0
 59 60  1  0  0  0  0
 59 71  1  0  0  0  0
 60 81  1  0  0  0  0
 61 63  1  0  0  0  0
 61 73  1  0  0  0  0
 62 74  1  0  0  0  0
 64 65  1  0  0  0  0
M  CHG  1  74   1
M  ISO  4  38 100  60 101  66 100  81 101
M  END
> <Batch ID>
0022

> <Smiles>
CNC(C)C(=O)NC(C(=O)N1Cc2cc([101O:1][101CH2:1]CNc3ccc4c(c3)CC(Cl)C[100N:0]4[100C:0](=O)N3CCCC(n4nc(-c5ccc(Oc6ccc(F)cc6F)cc5)c(C(N)=O)c4N)C3)ccc2CC1C(=O)NC1CCCc2ccccc21)C(C)(C)C

> <Shape>
0.306

> <Color>
0.136

> <Negative vol penalty>
0.000

$$$$

  -OEChem-04042321143D

 86 95  0     1  0  0  0  0  0999 V2000
  -29.0109  -36.3674   22.3521 C   0  0  0  0  0  0  0  0  0  0  0  0
  -29.2689  -35.1114   21.8123 C   0  0  0  0  0  0  0  0  0  0  0  0
  -24.4186   -9.5154   21.6234 C   0  0  0  0  0  0  0  0  0  0  0  0
  -22.5167  -10.5382   20.5401 C   0  0  0  0  0  0  0  0  0  0  0  0
  -28.0851  -36.5039   23.3856 C   0  0  0  0  0  0  0  0  0  0  0  0
  -28.6019  -33.9910   22.3065 C   0  0  0  0  0  0  0  0  0  0  0  0
  -26.7941  -29.0812   19.1234 C   0  0  0  0  0  0  0  0  0  0  0  0
  -28.5311  -18.9124   19.1703 C   0  0  0  0  0  0  0  0  0  0  0  0
  -28.7259  -20.2627   19.4606 C   0  0  0  0  0  0  0  0  0  0  0  0
  -23.7257   -8.3072   21.6994 C   0  0  0  0  0  0  0  0  0  0  0  0
  -21.8237   -9.3300   20.6160 C   0  0  0  0  0  0  0  0  0  0  0  0
  -27.3548  -27.8164   18.9512 C   0  0  0  0  0  0  0  0  0  0  0  0
  -21.3181   -6.9346   23.6343 C   0  0  0  0  0  0  0  0  0  0  0  0
  -21.3643   -6.2366   24.8411 C   0  0  0  0  0  0  0  0  0  0  0  0
  -25.9531  -26.9610   20.7182 C   0  0  0  0  0  0  0  0  0  0  0  0
  -30.0381  -18.3101   20.9601 C   0  0  0  0  0  0  0  0  0  0  0  0
  -22.3698   -4.3518   23.7125 C   0  0  0  0  0  0  0  0  0  0  0  0
  -23.8141  -10.6309   21.0438 C   0  0  0  0  0  0  0  0  0  0  0  0
  -25.0374  -12.6366   22.0380 C   0  0  0  0  0  0  0  0  0  0  0  0
  -27.3993  -35.3860   23.8862 C   0  0  0  0  0  0  0  0  0  0  0  0
  -25.8148  -29.2982   20.1034 C   0  0  0  0  0  0  0  0  0  0  0  0
  -27.6670  -34.1125   23.3486 C   0  0  0  0  0  0  0  0  0  0  0  0
  -25.3797  -28.2289   20.8992 C   0  0  0  0  0  0  0  0  0  0  0  0
  -29.1872  -17.9361   19.9200 C   0  0  0  0  0  0  0  0  0  0  0  0
  -29.5767  -20.6368   20.5007 C   0  0  0  0  0  0  0  0  0  0  0  0
  -22.4283   -8.2145   21.1957 C   0  0  0  0  0  0  0  0  0  0  0  0
  -26.9364  -26.7567   19.7506 C   0  0  0  0  0  0  0  0  0  0  0  0
  -21.7977   -6.3411   22.4666 C   0  0  0  0  0  0  0  0  0  0  0  0
  -21.8901   -4.9453   24.8802 C   0  0  0  0  0  0  0  0  0  0  0  0
  -30.2329  -19.6605   21.2504 C   0  0  0  0  0  0  0  0  0  0  0  0
  -22.3235   -5.0498   22.5057 C   0  0  0  0  0  0  0  0  0  0  0  0
  -24.5292  -11.8794   20.9655 C   0  0  0  0  0  0  0  0  0  0  0  0
  -25.6258  -13.7249   21.4414 C   0  0  0  0  0  0  0  0  0  0  0  0
  -24.9828  -12.3791   23.4474 C   0  0  0  0  0  0  0  0  0  0  0  0
  -25.6086  -31.1121   22.7054 C   0  0  0  0  0  0  0  0  0  0  0  0
  -22.5531  -30.0238   22.7476 C   0  0  0  0  0  0  0  0  0  0  0  0
  -20.3261  -27.6054   21.8321 C   0  0  0  0  0  0  0  0  0  0  0  0
  -29.0843  -15.4894   17.2890 C   0  0  0  0  0  0  0  0  0  0  0  0
  -26.4424  -35.5764   25.0362 C   0  0  0  0  0  0  0  0  0  0  0  0
  -25.2007  -30.6624   20.2585 C   0  0  0  0  0  0  0  0  0  0  0  0
  -24.3168  -28.4048   21.9517 C   0  0  0  0  0  0  0  0  0  0  0  0
  -25.5027  -34.3924   25.2491 C   0  0  0  0  0  0  0  0  0  0  0  0
  -25.4343  -15.3962   16.6806 C   0  0  0  0  0  0  0  0  0  0  0  0
  -26.2793  -33.0802   25.2072 C   0  0  0  0  0  0  0  0  0  0  0  0
  -24.9347  -14.4751   17.7923 C   0  0  0  0  0  0  0  0  0  0  0  0
  -29.8738  -23.3924   18.7797 C   0  0  0  0  0  0  0  0  0  0  0  0
  -29.5157  -24.8544   18.4900 C   0  0  0  0  0  0  0  0  0  0  0  0
  -29.1812  -24.3596   20.8486 C   0  0  0  0  0  0  0  0  0  0  0  0
  -26.8706  -15.0740   16.2797 C   0  0  0  0  0  0  0  0  0  0  0  0
  -27.3296  -14.1574   18.5299 C   0  0  0  0  0  0  0  0  0  0  0  0
  -26.9454  -32.8768   23.8411 C   0  0  1  0  0  0  0  0  0  0  0  0
  -24.5798  -30.8853   21.6341 C   0  0  1  0  0  0  0  0  0  0  0  0
  -25.9012  -14.4858   18.9895 C   0  0  2  0  0  0  0  0  0  0  0  0
  -29.1336  -23.0532   20.0667 C   0  0  2  0  0  0  0  0  0  0  0  0
  -28.8896  -25.4036   19.7748 C   0  0  2  0  0  0  0  0  0  1  0  0
  -17.9071  -26.9725   22.0449 C   0  0  0  0  0  0  0  0  0  0  0  0
  -23.0406  -29.1381   25.6265 C   0  0  0  0  0  0  0  0  0  0  0  0
  -20.9929  -27.7074   25.4596 C   0  0  0  0  0  0  0  0  0  0  0  0
  -20.8051  -30.1834   25.2210 C   0  0  0  0  0  0  0  0  0  0  0  0
  -31.0660  -16.5563   18.2961 C   0  0  0  0  0  0  0  0  0  0  0  0
  -19.9231  -27.7016   18.9017 C   0  0  0  0  0  0  0  0  0  0  0  0
  -28.9789  -16.4924   19.6097 C   0  0  0  0  0  0  0  0  0  0  0  0
  -21.8502  -28.8342   23.3557 C   0  0  1  0  0  0  0  0  0  0  0  0
  -18.9480  -27.6917   21.2012 C   0  0  2  0  0  0  0  0  0  0  0  0
  -21.6937  -28.9626   24.8973 C   0  0  0  0  0  0  0  0  0  0  0  0
  -24.7730  -12.4393   19.7777 N   0  0  0  0  0  0  0  0  0  0  0  0
  -25.4410  -13.5600   20.1002 N   0  0  0  0  0  0  0  0  0  0  0  0
  -23.7513  -29.7590   22.0694 N   0  0  0  0  0  0  0  0  0  0  0  0
  -27.7596  -15.0483   17.4418 N   0  0  0  0  0  0  0  0  0  0  0  0
  -26.2779  -14.7973   21.9385 N   0  0  0  0  0  0  0  0  0  0  0  0
  -23.8919  -12.8739   24.1751 N   0  0  0  0  0  0  0  0  0  0  0  0
  -29.7689  -21.9808   20.7875 N   0  0  0  0  0  0  0  0  0  0  0  0
  -25.9723  -32.4357   22.8649 N   0  0  0  0  0  0  0  0  0  0  0  0
  -20.5886  -28.6940   22.6366 N   0  0  0  0  0  0  0  0  0  0  0  0
  -29.6971  -16.0730   18.4082 N   0  0  0  0  0  0  0  0  0  0  0  0
  -18.9601  -27.0760   19.8441 N   0  3  0  0  0  0  0  0  0  0  0  0
  -25.8831  -11.7437   24.0466 O   0  0  0  0  0  0  0  0  0  0  0  0
  -26.0394  -30.1573   23.3413 O   0  0  0  0  0  0  0  0  0  0  0  0
  -22.0536  -31.1457   22.8639 O   0  0  0  0  0  0  0  0  0  0  0  0
  -21.0915  -26.6643   21.6342 O   0  0  0  0  0  0  0  0  0  0  0  0
  -29.6818  -15.3772   16.2109 O   0  0  0  0  0  0  0  0  0  0  0  0
  -21.7519   -7.0357   21.2694 O   0  0  0  0  0  0  0  0  0  0  0  0
  -27.4826  -25.5213   19.5850 O   0  0  0  0  0  0  0  0  0  1  0  0
  -21.9358   -4.2757   26.0394 F   0  0  0  0  0  0  0  0  0  0  0  0
  -31.0528  -20.0088   22.2523 F   0  0  0  0  0  0  0  0  0  0  0  0
  -22.7869   -4.4749   21.3874 F   0  0  0  0  0  0  0  0  0  0  0  0
  1  2  1  0  0  0  0
  1  5  2  0  0  0  0
  2  6  2  0  0  0  0
  3 10  2  0  0  0  0
  3 18  1  0  0  0  0
  4 11  1  0  0  0  0
  4 18  2  0  0  0  0
  5 20  1  0  0  0  0
  6 22  1  0  0  0  0
  7 12  2  0  0  0  0
  7 21  1  0  0  0  0
  8  9  2  0  0  0  0
  8 24  1  0  0  0  0
  9 25  1  0  0  0  0
 10 26  1  0  0  0  0
 11 26  2  0  0  0  0
 12 27  1  0  0  0  0
 13 14  2  0  0  0  0
 13 28  1  0  0  0  0
 14 29  1  0  0  0  0
 15 23  1  0  0  0  0
 15 27  2  0  0  0  0
 16 24  2  0  0  0  0
 16 30  1  0  0  0  0
 17 29  2  0  0  0  0
 17 31  1  0  0  0  0
 18 32  1  0  0  0  0
 19 32  1  0  0  0  0
 19 33  2  0  0  0  0
 19 34  1  0  0  0  0
 20 22  2  0  0  0  0
 20 39  1  0  0  0  0
 21 23  2  0  0  0  0
 21 40  1  0  0  0  0
 22 51  1  0  0  0  0
 23 41  1  0  0  0  0
 24 62  1  0  0  0  0
 25 30  2  0  0  0  0
 25 72  1  0  0  0  0
 26 82  1  0  0  0  0
 27 83  1  0  0  0  0
 28 31  2  0  0  0  0
 28 82  1  0  0  0  0
 29 84  1  0  0  0  0
 30 85  1  0  0  0  0
 31 86  1  0  0  0  0
 32 66  2  0  0  0  0
 33 67  1  0  0  0  0
 33 70  1  0  0  0  0
 34 71  1  0  0  0  0
 34 77  2  0  0  0  0
 35 52  1  0  0  0  0
 35 73  1  0  0  0  0
 35 78  2  0  0  0  0
 36 63  1  0  0  0  0
 36 68  1  0  0  0  0
 36 79  2  0  0  0  0
 37 64  1  0  0  0  0
 37 74  1  0  0  0  0
 37 80  2  0  0  0  0
 38 69  1  0  0  0  0
 38 75  1  0  0  0  0
 38 81  2  0  0  0  0
 39 42  1  0  0  0  0
 40 52  1  0  0  0  0
 41 68  1  0  0  0  0
 42 44  1  0  0  0  0
 43 45  1  0  0  0  0
 43 49  1  0  0  0  0
 44 51  1  0  0  0  0
 45 53  1  0  0  0  0
 46 47  1  0  0  0  0
 46 54  1  0  0  0  0
 47 55  1  0  0  0  0
 48 54  1  0  0  0  0
 48 55  1  0  0  0  0
 49 69  1  0  0  0  0
 50 53  1  0  0  0  0
 50 69  1  0  0  0  0
 51 73  1  0  0  0  0
 52 68  1  0  0  0  0
 53 67  1  0  0  0  0
 54 72  1  0  0  0  0
 55 83  1  0  0  0  0
 56 64  1  0  0  0  0
 57 65  1  0  0  0  0
 58 65  1  0  0  0  0
 59 65  1  0  0  0  0
 60 75  1  0  0  0  0
 61 76  1  0  0  0  0
 62 75  1  0  0  0  0
 63 65  1  0  0  0  0
 63 74  1  0  0  0  0
 64 76  1  0  0  0  0
 66 67  1  0  0  0  0
M  CHG  1  76   1
M  ISO  4  38 100  55 101  75 100  83 101
M  END
> <Batch ID>
0022

> <Smiles>
CNC(C)C(=O)NC(C(=O)N1Cc2cc([101O:1][101CH:1]3CCC(Nc4ccc(C[100N:0](C)[100C:0](=O)N5CCCC(n6nc(-c7ccc(Oc8ccc(F)cc8F)cc7)c(C(N)=O)c6N)C5)cc4F)C3)ccc2CC1C(=O)NC1CCCc2ccccc21)C(C)(C)C

> <Shape>
0.362

> <Color>
0.115

> <Negative vol penalty>
0.000

$$$$

  -OEChem-04042321143D

 90 98  0     1  0  0  0  0  0999 V2000
  -20.0023  -23.3940   22.5325 C   0  0  0  0  0  0  0  0  0  0  0  0
  -21.1495  -23.8008   21.8588 C   0  0  0  0  0  0  0  0  0  0  0  0
  -24.5935  -15.5170   21.6423 C   0  0  0  0  0  0  0  0  0  0  0  0
  -26.9617  -15.0504   21.7467 C   0  0  0  0  0  0  0  0  0  0  0  0
  -19.0801  -24.3427   22.9723 C   0  0  0  0  0  0  0  0  0  0  0  0
  -21.3746  -25.1566   21.6235 C   0  0  0  0  0  0  0  0  0  0  0  0
  -26.1427  -26.5368   22.6264 C   0  0  0  0  0  0  0  0  0  0  0  0
  -24.3580  -14.2198   21.1869 C   0  0  0  0  0  0  0  0  0  0  0  0
  -26.7262  -13.7531   21.2914 C   0  0  0  0  0  0  0  0  0  0  0  0
  -27.1111  -26.2183   21.6754 C   0  0  0  0  0  0  0  0  0  0  0  0
  -24.1450  -11.1155   22.5103 C   0  0  0  0  0  0  0  0  0  0  0  0
  -23.0907  -10.4075   23.0870 C   0  0  0  0  0  0  0  0  0  0  0  0
  -27.0241  -28.4791   20.8385 C   0  0  0  0  0  0  0  0  0  0  0  0
  -31.8376  -23.3834   20.4047 C   0  0  0  0  0  0  0  0  0  0  0  0
  -33.7737  -21.4927   21.0825 C   0  0  0  0  0  0  0  0  0  0  0  0
  -22.0402  -10.2072   20.9206 C   0  0  0  0  0  0  0  0  0  0  0  0
  -25.8954  -15.9323   21.9221 C   0  0  0  0  0  0  0  0  0  0  0  0
  -26.1674  -17.7126   23.7288 C   0  0  0  0  0  0  0  0  0  0  0  0
  -19.2989  -25.7116   22.7508 C   0  0  0  0  0  0  0  0  0  0  0  0
  -25.5988  -27.8280   22.6837 C   0  0  0  0  0  0  0  0  0  0  0  0
  -20.4539  -26.1245   22.0596 C   0  0  0  0  0  0  0  0  0  0  0  0
  -26.0507  -28.8121   21.7929 C   0  0  0  0  0  0  0  0  0  0  0  0
  -33.1022  -23.7988   20.8217 C   0  0  0  0  0  0  0  0  0  0  0  0
  -31.5410  -22.0227   20.3266 C   0  0  0  0  0  0  0  0  0  0  0  0
  -34.0702  -22.8535   21.1606 C   0  0  0  0  0  0  0  0  0  0  0  0
  -25.4243  -13.3378   21.0115 C   0  0  0  0  0  0  0  0  0  0  0  0
  -27.5499  -27.1887   20.7794 C   0  0  0  0  0  0  0  0  0  0  0  0
  -24.1469  -11.3695   21.1387 C   0  0  0  0  0  0  0  0  0  0  0  0
  -22.0383   -9.9533   22.2922 C   0  0  0  0  0  0  0  0  0  0  0  0
  -32.5090  -21.0773   20.6656 C   0  0  0  0  0  0  0  0  0  0  0  0
  -23.0945  -10.9152   20.3439 C   0  0  0  0  0  0  0  0  0  0  0  0
  -26.1395  -17.2724   22.3920 C   0  0  0  0  0  0  0  0  0  0  0  0
  -26.4369  -19.0566   23.6422 C   0  0  0  0  0  0  0  0  0  0  0  0
  -25.9678  -16.9728   24.9406 C   0  0  0  0  0  0  0  0  0  0  0  0
  -22.6898  -29.0551   22.3156 C   0  0  0  0  0  0  0  0  0  0  0  0
  -24.1521  -31.7961   23.2487 C   0  0  0  0  0  0  0  0  0  0  0  0
  -31.3833  -26.5890   20.1886 C   0  0  0  0  0  0  0  0  0  0  0  0
  -27.0429  -33.5892   23.5229 C   0  0  0  0  0  0  0  0  0  0  0  0
  -29.1828  -22.4127   19.5310 C   0  0  0  0  0  0  0  0  0  0  0  0
  -18.2504  -26.6968   23.2032 C   0  0  0  0  0  0  0  0  0  0  0  0
  -24.5743  -28.1628   23.7328 C   0  0  0  0  0  0  0  0  0  0  0  0
  -25.5133  -30.2187   21.8259 C   0  0  0  0  0  0  0  0  0  0  0  0
  -18.7474  -28.1396   23.2438 C   0  0  0  0  0  0  0  0  0  0  0  0
  -25.8539  -22.8126   20.7290 C   0  0  0  0  0  0  0  0  0  0  0  0
  -19.5075  -28.4785   21.9654 C   0  0  0  0  0  0  0  0  0  0  0  0
  -25.5540  -21.4796   21.4184 C   0  0  0  0  0  0  0  0  0  0  0  0
  -26.7074  -22.6239   19.4762 C   0  0  0  0  0  0  0  0  0  0  0  0
  -27.6458  -20.5275   20.3671 C   0  0  0  0  0  0  0  0  0  0  0  0
  -20.7457  -27.5878   21.8071 C   0  0  1  0  0  0  0  0  0  0  0  0
  -23.7165  -29.3700   23.3665 C   0  0  1  0  0  0  0  0  0  0  0  0
  -26.8430  -20.6730   21.6702 C   0  0  2  0  0  0  0  0  0  0  0  0
  -37.1794  -22.1818   20.4019 C   0  0  0  0  0  0  0  0  0  0  0  0
  -35.8557  -22.2175   23.7185 C   0  0  0  0  0  0  0  0  0  0  0  0
  -27.9164  -35.8128   24.2909 C   0  0  0  0  0  0  0  0  0  0  0  0
  -23.0341  -33.1030   20.7284 C   0  0  0  0  0  0  0  0  0  0  0  0
  -24.6754  -34.9660   21.0504 C   0  0  0  0  0  0  0  0  0  0  0  0
  -22.9297  -34.5316   22.7785 C   0  0  0  0  0  0  0  0  0  0  0  0
  -33.2740  -26.1616   18.6032 C   0  0  0  0  0  0  0  0  0  0  0  0
  -28.7879  -32.3320   25.5559 C   0  0  0  0  0  0  0  0  0  0  0  0
  -33.3942  -25.2696   20.8968 C   0  0  0  0  0  0  0  0  0  0  0  0
  -30.7175  -27.3539   19.0494 C   0  0  0  0  0  0  0  0  0  0  0  0
  -36.4192  -23.4455   20.6202 C   0  0  0  0  0  0  0  0  0  0  0  0
  -35.6212  -23.4961   22.9886 C   0  0  0  0  0  0  0  0  0  0  0  0
  -29.3611  -27.9337   19.4301 C   0  0  0  0  0  0  0  0  0  1  0  0
  -24.8650  -32.9223   22.5398 C   0  0  1  0  0  0  0  0  0  0  0  0
  -27.6382  -34.3695   24.6810 C   0  0  2  0  0  0  0  0  0  0  0  0
  -23.8850  -33.8538   21.7721 C   0  0  0  0  0  0  0  0  0  0  0  0
  -26.3724  -18.2569   21.5199 N   0  0  0  0  0  0  0  0  0  0  0  0
  -26.5493  -19.3292   22.3105 N   0  0  0  0  0  0  0  0  0  0  0  0
  -24.5086  -30.4952   22.8659 N   0  0  0  0  0  0  0  0  0  0  0  0
  -27.9133  -21.8551   19.7921 N   0  0  0  0  0  0  0  0  0  0  0  0
  -26.5863  -20.0200   24.5759 N   0  0  0  0  0  0  0  0  0  0  0  0
  -25.7006  -15.6000   24.8490 N   0  0  0  0  0  0  0  0  0  0  0  0
  -30.2556  -21.6032   19.9028 N   0  0  0  0  0  0  0  0  0  0  0  0
  -21.8127  -28.0478   22.6699 N   0  0  0  0  0  0  0  0  0  0  0  0
  -25.6644  -33.6016   23.5537 N   0  0  0  0  0  0  0  0  0  0  0  0
  -35.3557  -23.2556   21.5851 N   0  0  0  0  0  0  0  0  0  0  0  0
  -32.6344  -26.0292   19.9065 N   0  0  0  0  0  0  0  0  0  0  0  0
  -28.9184  -33.7466   25.1215 N   0  3  0  0  0  0  0  0  0  0  0  0
  -26.0084  -17.5162   26.0705 O   0  0  0  0  0  0  0  0  0  0  0  0
  -22.6922  -29.6807   21.2619 O   0  0  0  0  0  0  0  0  0  0  0  0
  -23.3152  -32.0607   24.1154 O   0  0  0  0  0  0  0  0  0  0  0  0
  -30.8270  -26.4872   21.2851 O   0  0  0  0  0  0  0  0  0  0  0  0
  -27.7318  -33.0281   22.6736 O   0  0  0  0  0  0  0  0  0  0  0  0
  -29.3091  -23.5376   19.0405 O   0  0  0  0  0  0  0  0  0  0  0  0
  -25.1948  -12.0718   20.5675 O   0  0  0  0  0  0  0  0  0  0  0  0
  -28.4946  -26.8804   19.8498 O   0  0  0  0  0  0  0  0  0  1  0  0
  -21.0266   -9.2720   22.8460 F   0  0  0  0  0  0  0  0  0  0  0  0
  -32.2351  -19.7668   20.5943 F   0  0  0  0  0  0  0  0  0  0  0  0
  -23.0914  -11.1551   19.0254 F   0  0  0  0  0  0  0  0  0  0  0  0
  1  2  1  0  0  0  0
  1  5  2  0  0  0  0
  2  6  2  0  0  0  0
  3  8  2  0  0  0  0
  3 17  1  0  0  0  0
  4  9  1  0  0  0  0
  4 17  2  0  0  0  0
  5 19  1  0  0  0  0
  6 21  1  0  0  0  0
  7 10  2  0  0  0  0
  7 20  1  0  0  0  0
  8 26  1  0  0  0  0
  9 26  2  0  0  0  0
 10 27  1  0  0  0  0
 11 12  2  0  0  0  0
 11 28  1  0  0  0  0
 12 29  1  0  0  0  0
 13 22  1  0  0  0  0
 13 27  2  0  0  0  0
 14 23  1  0  0  0  0
 14 24  2  0  0  0  0
 15 25  1  0  0  0  0
 15 30  2  0  0  0  0
 16 29  2  0  0  0  0
 16 31  1  0  0  0  0
 17 32  1  0  0  0  0
 18 32  1  0  0  0  0
 18 33  2  0  0  0  0
 18 34  1  0  0  0  0
 19 21  2  0  0  0  0
 19 40  1  0  0  0  0
 20 22  2  0  0  0  0
 20 41  1  0  0  0  0
 21 49  1  0  0  0  0
 22 42  1  0  0  0  0
 23 25  2  0  0  0  0
 23 60  1  0  0  0  0
 24 30  1  0  0  0  0
 24 74  1  0  0  0  0
 25 77  1  0  0  0  0
 26 86  1  0  0  0  0
 27 87  1  0  0  0  0
 28 31  2  0  0  0  0
 28 86  1  0  0  0  0
 29 88  1  0  0  0  0
 30 89  1  0  0  0  0
 31 90  1  0  0  0  0
 32 68  2  0  0  0  0
 33 69  1  0  0  0  0
 33 72  1  0  0  0  0
 34 73  1  0  0  0  0
 34 80  2  0  0  0  0
 35 50  1  0  0  0  0
 35 75  1  0  0  0  0
 35 81  2  0  0  0  0
 36 65  1  0  0  0  0
 36 70  1  0  0  0  0
 36 82  2  0  0  0  0
 37 61  1  0  0  0  0
 37 78  1  0  0  0  0
 37 83  2  0  0  0  0
 38 66  1  0  0  0  0
 38 76  1  0  0  0  0
 38 84  2  0  0  0  0
 39 71  1  0  0  0  0
 39 74  1  0  0  0  0
 39 85  2  0  0  0  0
 40 43  1  0  0  0  0
 41 50  1  0  0  0  0
 42 70  1  0  0  0  0
 43 45  1  0  0  0  0
 44 46  1  0  0  0  0
 44 47  1  0  0  0  0
 45 49  1  0  0  0  0
 46 51  1  0  0  0  0
 47 71  1  0  0  0  0
 48 51  1  0  0  0  0
 48 71  1  0  0  0  0
 49 75  1  0  0  0  0
 50 70  1  0  0  0  0
 51 69  1  0  0  0  0
 52 62  1  0  0  0  0
 53 63  1  0  0  0  0
 54 66  1  0  0  0  0
 55 67  1  0  0  0  0
 56 67  1  0  0  0  0
 57 67  1  0  0  0  0
 58 78  1  0  0  0  0
 59 79  1  0  0  0  0
 60 78  1  0  0  0  0
 61 64  1  0  0  0  0
 62 77  1  0  0  0  0
 63 77  1  0  0  0  0
 64 87  1  0  0  0  0
 65 67  1  0  0  0  0
 65 76  1  0  0  0  0
 66 79  1  0  0  0  0
 68 69  1  0  0  0  0
M  CHG  1  79   1
M  ISO  4  39 100  64 101  74 100  87 101
M  END
> <Batch ID>
0022

> <Smiles>
CCN(CC)c1cc(F)c([100NH:0][100C:0](=O)N2CCCC(n3nc(-c4ccc(Oc5ccc(F)cc5F)cc4)c(C(N)=O)c3N)C2)cc1CN(C)C(=O)C[101CH2:1][101O:1]c1ccc2c(c1)CN(C(=O)C(NC(=O)C(C)NC)C(C)(C)C)C(C(=O)NC1CCCc3ccccc31)C2

> <Shape>
0.239

> <Color>
0.092

> <Negative vol penalty>
0.000

$$$$

  -OEChem-04042321143D

 84 93  0     1  0  0  0  0  0999 V2000
  -18.1122  -29.5557   24.1003 C   0  0  0  0  0  0  0  0  0  0  0  0
  -19.4997  -29.6371   24.0405 C   0  0  0  0  0  0  0  0  0  0  0  0
  -25.0847  -13.3105   19.5584 C   0  0  0  0  0  0  0  0  0  0  0  0
  -25.9701  -13.9078   21.7255 C   0  0  0  0  0  0  0  0  0  0  0  0
  -17.4525  -28.4757   23.5152 C   0  0  0  0  0  0  0  0  0  0  0  0
  -20.2284  -28.6378   23.3964 C   0  0  0  0  0  0  0  0  0  0  0  0
  -25.3954  -29.3390   20.1845 C   0  0  0  0  0  0  0  0  0  0  0  0
  -30.5261  -24.6917   21.2978 C   0  0  0  0  0  0  0  0  0  0  0  0
  -30.3139  -23.5437   20.5346 C   0  0  0  0  0  0  0  0  0  0  0  0
  -24.9608  -11.9849   19.9744 C   0  0  0  0  0  0  0  0  0  0  0  0
  -25.8462  -12.5822   22.1415 C   0  0  0  0  0  0  0  0  0  0  0  0
  -26.7369  -29.1474   20.5123 C   0  0  0  0  0  0  0  0  0  0  0  0
  -22.8271  -10.1522   21.8508 C   0  0  0  0  0  0  0  0  0  0  0  0
  -21.6397   -9.4859   21.5476 C   0  0  0  0  0  0  0  0  0  0  0  0
  -26.6511  -26.9385   19.5467 C   0  0  0  0  0  0  0  0  0  0  0  0
  -28.0459  -23.4158   21.3574 C   0  0  0  0  0  0  0  0  0  0  0  0
  -22.8832   -7.8457   20.2824 C   0  0  0  0  0  0  0  0  0  0  0  0
  -25.5895  -14.2720   20.4339 C   0  0  0  0  0  0  0  0  0  0  0  0
  -24.7549  -16.6617   20.1172 C   0  0  0  0  0  0  0  0  0  0  0  0
  -18.1729  -27.4677   22.8553 C   0  0  0  0  0  0  0  0  0  0  0  0
  -24.6675  -28.3259   19.5440 C   0  0  0  0  0  0  0  0  0  0  0  0
  -19.5779  -27.5426   22.8031 C   0  0  0  0  0  0  0  0  0  0  0  0
  -25.3012  -27.1207   19.2095 C   0  0  0  0  0  0  0  0  0  0  0  0
  -29.4981  -25.2018   22.0909 C   0  0  0  0  0  0  0  0  0  0  0  0
  -29.0739  -22.9057   20.5643 C   0  0  0  0  0  0  0  0  0  0  0  0
  -25.3415  -11.6208   21.2659 C   0  0  0  0  0  0  0  0  0  0  0  0
  -27.3642  -27.9459   20.1960 C   0  0  0  0  0  0  0  0  0  0  0  0
  -24.0425   -9.6653   21.3698 C   0  0  0  0  0  0  0  0  0  0  0  0
  -21.6678   -8.3327   20.7635 C   0  0  0  0  0  0  0  0  0  0  0  0
  -24.0705   -8.5120   20.5856 C   0  0  0  0  0  0  0  0  0  0  0  0
  -28.2581  -24.5638   22.1207 C   0  0  0  0  0  0  0  0  0  0  0  0
  -25.7183  -15.6413   20.0046 C   0  0  0  0  0  0  0  0  0  0  0  0
  -25.3586  -17.7660   19.5671 C   0  0  0  0  0  0  0  0  0  0  0  0
  -23.4327  -16.6155   20.6696 C   0  0  0  0  0  0  0  0  0  0  0  0
  -22.1085  -26.5918   20.2843 C   0  0  0  0  0  0  0  0  0  0  0  0
  -22.4412  -25.5142   17.2428 C   0  0  0  0  0  0  0  0  0  0  0  0
  -24.4879  -24.9888   14.5629 C   0  0  0  0  0  0  0  0  0  0  0  0
  -29.7725  -21.1034   18.9488 C   0  0  0  0  0  0  0  0  0  0  0  0
  -17.4191  -26.2954   22.2790 C   0  0  0  0  0  0  0  0  0  0  0  0
  -23.2284  -28.5583   19.1733 C   0  0  0  0  0  0  0  0  0  0  0  0
  -24.5696  -26.0092   18.5038 C   0  0  0  0  0  0  0  0  0  0  0  0
  -18.2390  -25.4706   21.2902 C   0  0  0  0  0  0  0  0  0  0  0  0
  -29.6395  -18.1943   16.9002 C   0  0  0  0  0  0  0  0  0  0  0  0
  -29.9512  -27.8141   24.6771 C   0  0  0  0  0  0  0  0  0  0  0  0
  -19.6283  -25.1887   21.8534 C   0  0  0  0  0  0  0  0  0  0  0  0
  -28.5282  -17.3547   17.5345 C   0  0  0  0  0  0  0  0  0  0  0  0
  -30.8539  -28.2874   23.5487 C   0  0  0  0  0  0  0  0  0  0  0  0
  -29.6309  -26.3722   24.2961 C   0  0  0  0  0  0  0  0  0  0  0  0
  -30.4629  -18.9338   17.9532 C   0  0  0  0  0  0  0  0  0  0  0  0
  -28.5701  -18.9052   19.5298 C   0  0  0  0  0  0  0  0  0  0  0  0
  -20.4017  -26.4912   22.0919 C   0  0  1  0  0  0  0  0  0  0  0  0
  -22.4439  -27.2639   18.9829 C   0  0  1  0  0  0  0  0  0  0  0  0
  -27.6727  -18.1928   18.5047 C   0  0  2  0  0  0  0  0  0  0  0  0
  -30.2755  -27.5993   22.3043 C   0  0  2  0  0  0  0  0  0  0  0  0
  -24.4824  -24.0571   12.2328 C   0  0  0  0  0  0  0  0  0  0  0  0
  -22.4287  -22.6819   18.3779 C   0  0  0  0  0  0  0  0  0  0  0  0
  -23.3611  -21.8788   16.1976 C   0  0  0  0  0  0  0  0  0  0  0  0
  -21.1170  -22.9659   16.2676 C   0  0  0  0  0  0  0  0  0  0  0  0
  -25.2627  -27.5952   13.3944 C   0  0  0  0  0  0  0  0  0  0  0  0
  -29.1655  -28.4360   21.6694 C   0  0  0  0  0  0  0  0  0  1  0  0
  -23.1892  -24.3788   16.5867 C   0  0  1  0  0  0  0  0  0  0  0  0
  -24.3169  -25.3038   13.0878 C   0  0  2  0  0  0  0  0  0  0  0  0
  -22.5375  -22.9964   16.8725 C   0  0  0  0  0  0  0  0  0  0  0  0
  -26.8480  -16.0601   19.4282 N   0  0  0  0  0  0  0  0  0  0  0  0
  -26.5984  -17.3558   19.1735 N   0  0  0  0  0  0  0  0  0  0  0  0
  -29.7384  -26.3408   22.8362 N   0  0  3  0  0  0  0  0  0  0  0  0
  -23.1624  -26.2821   18.1680 N   0  0  0  0  0  0  0  0  0  0  0  0
  -29.5863  -19.7096   18.8333 N   0  0  0  0  0  0  0  0  0  0  0  0
  -24.9445  -19.0381   19.3864 N   0  0  0  0  0  0  0  0  0  0  0  0
  -22.9693  -15.4006   21.1929 N   0  0  0  0  0  0  0  0  0  0  0  0
  -28.8590  -21.7395   19.7887 N   0  0  0  0  0  0  0  0  0  0  0  0
  -20.9155  -27.0099   20.8424 N   0  0  0  0  0  0  0  0  0  0  0  0
  -23.2805  -24.7149   15.1700 N   0  0  0  0  0  0  0  0  0  0  0  0
  -25.3267  -26.3097   12.6525 N   0  3  0  0  0  0  0  0  0  0  0  0
  -22.6782  -17.6175   20.6835 O   0  0  0  0  0  0  0  0  0  0  0  0
  -22.8746  -25.7547   20.7470 O   0  0  0  0  0  0  0  0  0  0  0  0
  -21.2627  -25.7168   16.9401 O   0  0  0  0  0  0  0  0  0  0  0  0
  -25.5834  -24.9823   15.1200 O   0  0  0  0  0  0  0  0  0  0  0  0
  -30.6587  -21.6935   18.3256 O   0  0  0  0  0  0  0  0  0  0  0  0
  -25.2205  -10.3274   21.6723 O   0  0  0  0  0  0  0  0  0  0  0  0
  -28.6733  -27.7561   20.5153 O   0  0  0  0  0  0  0  0  0  1  0  0
  -20.5277   -7.6921   20.4737 F   0  0  0  0  0  0  0  0  0  0  0  0
  -25.2352   -8.0388   20.1216 F   0  0  0  0  0  0  0  0  0  0  0  0
  -26.9586  -25.1622   23.0889 Cl  0  0  0  0  0  0  0  0  0  0  0  0
  1  2  1  0  0  0  0
  1  5  2  0  0  0  0
  2  6  2  0  0  0  0
  3 10  2  0  0  0  0
  3 18  1  0  0  0  0
  4 11  1  0  0  0  0
  4 18  2  0  0  0  0
  5 20  1  0  0  0  0
  6 22  1  0  0  0  0
  7 12  2  0  0  0  0
  7 21  1  0  0  0  0
  8  9  2  0  0  0  0
  8 24  1  0  0  0  0
  9 25  1  0  0  0  0
 10 26  1  0  0  0  0
 11 26  2  0  0  0  0
 12 27  1  0  0  0  0
 13 14  2  0  0  0  0
 13 28  1  0  0  0  0
 14 29  1  0  0  0  0
 15 23  1  0  0  0  0
 15 27  2  0  0  0  0
 16 25  2  0  0  0  0
 16 31  1  0  0  0  0
 17 29  2  0  0  0  0
 17 30  1  0  0  0  0
 18 32  1  0  0  0  0
 19 32  1  0  0  0  0
 19 33  2  0  0  0  0
 19 34  1  0  0  0  0
 20 22  2  0  0  0  0
 20 39  1  0  0  0  0
 21 23  2  0  0  0  0
 21 40  1  0  0  0  0
 22 51  1  0  0  0  0
 23 41  1  0  0  0  0
 24 31  2  0  0  0  0
 24 66  1  0  0  0  0
 25 71  1  0  0  0  0
 26 80  1  0  0  0  0
 27 81  1  0  0  0  0
 28 30  2  0  0  0  0
 28 80  1  0  0  0  0
 29 82  1  0  0  0  0
 30 83  1  0  0  0  0
 31 84  1  0  0  0  0
 32 64  2  0  0  0  0
 33 65  1  0  0  0  0
 33 69  1  0  0  0  0
 34 70  1  0  0  0  0
 34 75  2  0  0  0  0
 35 52  1  0  0  0  0
 35 72  1  0  0  0  0
 35 76  2  0  0  0  0
 36 61  1  0  0  0  0
 36 67  1  0  0  0  0
 36 77  2  0  0  0  0
 37 62  1  0  0  0  0
 37 73  1  0  0  0  0
 37 78  2  0  0  0  0
 38 68  1  0  0  0  0
 38 71  1  0  0  0  0
 38 79  2  0  0  0  0
 39 42  1  0  0  0  0
 40 52  1  0  0  0  0
 41 67  1  0  0  0  0
 42 45  1  0  0  0  0
 43 46  1  0  0  0  0
 43 49  1  0  0  0  0
 44 47  1  0  0  0  0
 44 48  1  0  0  0  0
 45 51  1  0  0  0  0
 46 53  1  0  0  0  0
 47 54  1  0  0  0  0
 48 66  1  0  0  0  0
 49 68  1  0  0  0  0
 50 53  1  0  0  0  0
 50 68  1  0  0  0  0
 51 72  1  0  0  0  0
 52 67  1  0  0  0  0
 53 65  1  0  0  0  0
 54 60  1  0  0  0  0
 54 66  1  0  0  0  0
 55 62  1  0  0  0  0
 56 63  1  0  0  0  0
 57 63  1  0  0  0  0
 58 63  1  0  0  0  0
 59 74  1  0  0  0  0
 60 81  1  0  0  0  0
 61 63  1  0  0  0  0
 61 73  1  0  0  0  0
 62 74  1  0  0  0  0
 64 65  1  0  0  0  0
M  CHG  1  74   1
M  ISO  4  38 100  60 101  71 100  81 101
M  END
> <Batch ID>
0022

> <Smiles>
CNC(C)C(=O)NC(C(=O)N1Cc2cc([101O:1][101CH2:1]C3CCCN3c3ccc([100NH:0][100C:0](=O)N4CCCC(n5nc(-c6ccc(Oc7ccc(F)cc7F)cc6)c(C(N)=O)c5N)C4)cc3Cl)ccc2CC1C(=O)NC1CCCc2ccccc21)C(C)(C)C

> <Shape>
0.238

> <Color>
0.066

> <Negative vol penalty>
0.000

$$$$

  -OEChem-04042321143D

 88 96  0     1  0  0  0  0  0999 V2000
  -16.9288  -30.9071   23.2016 C   0  0  0  0  0  0  0  0  0  0  0  0
  -18.2139  -31.3670   22.9324 C   0  0  0  0  0  0  0  0  0  0  0  0
  -24.9520  -13.4466   21.1452 C   0  0  0  0  0  0  0  0  0  0  0  0
  -26.9037  -12.7775   19.8882 C   0  0  0  0  0  0  0  0  0  0  0  0
  -16.7130  -29.5531   23.4547 C   0  0  0  0  0  0  0  0  0  0  0  0
  -19.2841  -30.4733   22.9171 C   0  0  0  0  0  0  0  0  0  0  0  0
  -25.5583  -29.3319   19.6540 C   0  0  0  0  0  0  0  0  0  0  0  0
  -24.2903  -12.2897   20.7337 C   0  0  0  0  0  0  0  0  0  0  0  0
  -26.2421  -11.6205   19.4767 C   0  0  0  0  0  0  0  0  0  0  0  0
  -26.8993  -29.0931   19.9515 C   0  0  0  0  0  0  0  0  0  0  0  0
  -24.2550   -9.0118   21.5626 C   0  0  0  0  0  0  0  0  0  0  0  0
  -23.5492   -8.2912   22.5261 C   0  0  0  0  0  0  0  0  0  0  0  0
  -26.3955  -26.7638   20.3248 C   0  0  0  0  0  0  0  0  0  0  0  0
  -30.0869  -24.3228   17.0243 C   0  0  0  0  0  0  0  0  0  0  0  0
  -29.1088  -25.0364   14.5110 C   0  0  0  0  0  0  0  0  0  0  0  0
  -21.5092   -8.6127   21.2722 C   0  0  0  0  0  0  0  0  0  0  0  0
  -26.2587  -13.6905   20.7224 C   0  0  0  0  0  0  0  0  0  0  0  0
  -27.7385  -15.0469   22.2965 C   0  0  0  0  0  0  0  0  0  0  0  0
  -17.7797  -28.6408   23.4330 C   0  0  0  0  0  0  0  0  0  0  0  0
  -24.6223  -28.2888   19.7004 C   0  0  0  0  0  0  0  0  0  0  0  0
  -19.0826  -29.1060   23.1715 C   0  0  0  0  0  0  0  0  0  0  0  0
  -25.0437  -26.9914   20.0250 C   0  0  0  0  0  0  0  0  0  0  0  0
  -29.7862  -23.3349   16.0867 C   0  0  0  0  0  0  0  0  0  0  0  0
  -29.8985  -25.6676   16.7053 C   0  0  0  0  0  0  0  0  0  0  0  0
  -29.4095  -26.0244   15.4486 C   0  0  0  0  0  0  0  0  0  0  0  0
  -24.9353  -11.3766   19.8995 C   0  0  0  0  0  0  0  0  0  0  0  0
  -27.3176  -27.8095   20.2898 C   0  0  0  0  0  0  0  0  0  0  0  0
  -23.5879   -9.5330   20.4540 C   0  0  0  0  0  0  0  0  0  0  0  0
  -22.1764   -8.0916   22.3809 C   0  0  0  0  0  0  0  0  0  0  0  0
  -29.2972  -23.6917   14.8300 C   0  0  0  0  0  0  0  0  0  0  0  0
  -22.2150   -9.3334   20.3088 C   0  0  0  0  0  0  0  0  0  0  0  0
  -26.9425  -14.8857   21.1467 C   0  0  0  0  0  0  0  0  0  0  0  0
  -28.1549  -16.3548   22.2453 C   0  0  0  0  0  0  0  0  0  0  0  0
  -28.0719  -14.0992   23.3194 C   0  0  0  0  0  0  0  0  0  0  0  0
  -22.0069  -27.6962   21.4070 C   0  0  0  0  0  0  0  0  0  0  0  0
  -21.7440  -25.1610   19.4004 C   0  0  0  0  0  0  0  0  0  0  0  0
  -23.2851  -22.9571   17.2993 C   0  0  0  0  0  0  0  0  0  0  0  0
  -28.9128  -20.0668   17.7173 C   0  0  0  0  0  0  0  0  0  0  0  0
  -17.5044  -27.1942   23.7593 C   0  0  0  0  0  0  0  0  0  0  0  0
  -23.1843  -28.5575   19.3508 C   0  0  0  0  0  0  0  0  0  0  0  0
  -24.0820  -25.8331   20.0693 C   0  0  0  0  0  0  0  0  0  0  0  0
  -18.6359  -26.2527   23.3548 C   0  0  0  0  0  0  0  0  0  0  0  0
  -26.8172  -20.6493   20.6098 C   0  0  0  0  0  0  0  0  0  0  0  0
  -19.9828  -26.8159   23.7966 C   0  0  0  0  0  0  0  0  0  0  0  0
  -26.6914  -19.2369   21.1837 C   0  0  0  0  0  0  0  0  0  0  0  0
  -26.8130  -20.6285   19.0842 C   0  0  0  0  0  0  0  0  0  0  0  0
  -27.7321  -18.3421   19.0492 C   0  0  0  0  0  0  0  0  0  0  0  0
  -20.2655  -28.1635   23.1216 C   0  0  1  0  0  0  0  0  0  0  0  0
  -22.2249  -27.5226   19.9305 C   0  0  1  0  0  0  0  0  0  0  0  0
  -27.7529  -18.2933   20.5878 C   0  0  2  0  0  0  0  0  0  0  0  0
  -31.2261  -28.5370   14.4092 C   0  0  0  0  0  0  0  0  0  0  0  0
  -26.9143  -28.1320   15.2879 C   0  0  0  0  0  0  0  0  0  0  0  0
  -22.8150  -20.9745   15.8346 C   0  0  0  0  0  0  0  0  0  0  0  0
  -21.5486  -23.3838   21.8730 C   0  0  0  0  0  0  0  0  0  0  0  0
  -22.0369  -21.4124   20.4089 C   0  0  0  0  0  0  0  0  0  0  0  0
  -19.9817  -22.7723   20.0222 C   0  0  0  0  0  0  0  0  0  0  0  0
  -24.1950  -24.3873   14.8733 C   0  0  0  0  0  0  0  0  0  0  0  0
  -29.9864  -21.8977   16.4321 C   0  0  0  0  0  0  0  0  0  0  0  0
  -30.8884  -27.6091   19.7823 C   0  0  0  0  0  0  0  0  0  0  0  0
  -29.9196  -27.9602   13.9814 C   0  0  0  0  0  0  0  0  0  0  0  0
  -28.2890  -28.2004   15.8607 C   0  0  0  0  0  0  0  0  0  0  0  0
  -30.7139  -26.3332   18.9675 C   0  0  0  0  0  0  0  0  0  0  0  0
  -29.5941  -28.3992   19.9351 C   0  0  0  0  0  0  0  0  0  1  0  0
  -22.2380  -23.7345   19.4097 C   0  0  1  0  0  0  0  0  0  0  0  0
  -22.9359  -22.4891   15.8981 C   0  0  2  0  0  0  0  0  0  0  0  0
  -21.4693  -22.8478   20.4296 C   0  0  0  0  0  0  0  0  0  0  0  0
  -26.8567  -16.0020   20.4183 N   0  0  0  0  0  0  0  0  0  0  0  0
  -27.6042  -16.8772   21.1121 N   0  0  0  0  0  0  0  0  0  0  0  0
  -22.6855  -26.1478   19.7256 N   0  0  0  0  0  0  0  0  0  0  0  0
  -27.8584  -19.7263   18.5809 N   0  0  0  0  0  0  0  0  0  0  0  0
  -28.9347  -17.0974   23.0594 N   0  0  0  0  0  0  0  0  0  0  0  0
  -27.5596  -12.7986   23.2178 N   0  0  0  0  0  0  0  0  0  0  0  0
  -30.2044  -26.6335   17.6513 N   0  0  0  0  0  0  0  0  0  0  0  0
  -20.6965  -27.9635   21.7546 N   0  0  0  0  0  0  0  0  0  0  0  0
  -22.1575  -23.2657   18.0305 N   0  0  0  0  0  0  0  0  0  0  0  0
  -28.9569  -21.3960   17.3148 N   0  0  0  0  0  0  0  0  0  0  0  0
  -29.2119  -27.3802   15.1038 N   0  0  0  0  0  0  0  0  0  0  0  0
  -23.9866  -22.9176   14.9320 N   0  3  0  0  0  0  0  0  0  0  0  0
  -28.7889  -14.4014   24.3033 O   0  0  0  0  0  0  0  0  0  0  0  0
  -22.9570  -27.5936   22.1742 O   0  0  0  0  0  0  0  0  0  0  0  0
  -20.5680  -25.3918   19.1083 O   0  0  0  0  0  0  0  0  0  0  0  0
  -24.4421  -23.0371   17.7059 O   0  0  0  0  0  0  0  0  0  0  0  0
  -29.7563  -19.2476   17.3371 O   0  0  0  0  0  0  0  0  0  0  0  0
  -24.2901  -10.2475   19.4979 O   0  0  0  0  0  0  0  0  0  0  0  0
  -28.6258  -27.5738   20.5812 O   0  0  0  0  0  0  0  0  0  1  0  0
  -21.4991   -7.3983   23.3054 F   0  0  0  0  0  0  0  0  0  0  0  0
  -29.0038  -22.7492   13.9231 F   0  0  0  0  0  0  0  0  0  0  0  0
  -21.5688   -9.8306   19.2453 F   0  0  0  0  0  0  0  0  0  0  0  0
  1  2  1  0  0  0  0
  1  5  2  0  0  0  0
  2  6  2  0  0  0  0
  3  8  2  0  0  0  0
  3 17  1  0  0  0  0
  4  9  1  0  0  0  0
  4 17  2  0  0  0  0
  5 19  1  0  0  0  0
  6 21  1  0  0  0  0
  7 10  2  0  0  0  0
  7 20  1  0  0  0  0
  8 26  1  0  0  0  0
  9 26  2  0  0  0  0
 10 27  1  0  0  0  0
 11 12  2  0  0  0  0
 11 28  1  0  0  0  0
 12 29  1  0  0  0  0
 13 22  1  0  0  0  0
 13 27  2  0  0  0  0
 14 23  2  0  0  0  0
 14 24  1  0  0  0  0
 15 25  1  0  0  0  0
 15 30  2  0  0  0  0
 16 29  2  0  0  0  0
 16 31  1  0  0  0  0
 17 32  1  0  0  0  0
 18 32  1  0  0  0  0
 18 33  2  0  0  0  0
 18 34  1  0  0  0  0
 19 21  2  0  0  0  0
 19 39  1  0  0  0  0
 20 22  2  0  0  0  0
 20 40  1  0  0  0  0
 21 48  1  0  0  0  0
 22 41  1  0  0  0  0
 23 30  1  0  0  0  0
 23 58  1  0  0  0  0
 24 25  2  0  0  0  0
 24 73  1  0  0  0  0
 25 77  1  0  0  0  0
 26 84  1  0  0  0  0
 27 85  1  0  0  0  0
 28 31  2  0  0  0  0
 28 84  1  0  0  0  0
 29 86  1  0  0  0  0
 30 87  1  0  0  0  0
 31 88  1  0  0  0  0
 32 67  2  0  0  0  0
 33 68  1  0  0  0  0
 33 71  1  0  0  0  0
 34 72  1  0  0  0  0
 34 79  2  0  0  0  0
 35 49  1  0  0  0  0
 35 74  1  0  0  0  0
 35 80  2  0  0  0  0
 36 64  1  0  0  0  0
 36 69  1  0  0  0  0
 36 81  2  0  0  0  0
 37 65  1  0  0  0  0
 37 75  1  0  0  0  0
 37 82  2  0  0  0  0
 38 70  1  0  0  0  0
 38 76  1  0  0  0  0
 38 83  2  0  0  0  0
 39 42  1  0  0  0  0
 40 49  1  0  0  0  0
 41 69  1  0  0  0  0
 42 44  1  0  0  0  0
 43 45  1  0  0  0  0
 43 46  1  0  0  0  0
 44 48  1  0  0  0  0
 45 50  1  0  0  0  0
 46 70  1  0  0  0  0
 47 50  1  0  0  0  0
 47 70  1  0  0  0  0
 48 74  1  0  0  0  0
 49 69  1  0  0  0  0
 50 68  1  0  0  0  0
 51 60  1  0  0  0  0
 52 61  1  0  0  0  0
 53 65  1  0  0  0  0
 54 66  1  0  0  0  0
 55 66  1  0  0  0  0
 56 66  1  0  0  0  0
 57 78  1  0  0  0  0
 58 76  1  0  0  0  0
 59 62  1  0  0  0  0
 59 63  1  0  0  0  0
 60 77  1  0  0  0  0
 61 77  1  0  0  0  0
 62 73  1  0  0  0  0
 63 85  1  0  0  0  0
 64 66  1  0  0  0  0
 64 75  1  0  0  0  0
 65 78  1  0  0  0  0
 67 68  1  0  0  0  0
M  CHG  1  78   1
M  ISO  4  38 100  63 101  76 100  85 101
M  END
> <Batch ID>
0022

> <Smiles>
CCN(CC)c1cc(F)c(C[100NH:0][100C:0](=O)N2CCCC(n3nc(-c4ccc(Oc5ccc(F)cc5F)cc4)c(C(N)=O)c3N)C2)cc1NCC[101CH2:1][101O:1]c1ccc2c(c1)CN(C(=O)C(NC(=O)C(C)NC)C(C)(C)C)C(C(=O)NC1CCCc3ccccc31)C2

> <Shape>
0.244

> <Color>
0.078

> <Negative vol penalty>
0.000

$$$$

  -OEChem-04042321143D

 84 93  0     1  0  0  0  0  0999 V2000
  -18.0836  -29.4373   24.0067 C   0  0  0  0  0  0  0  0  0  0  0  0
  -19.4710  -29.5280   23.9579 C   0  0  0  0  0  0  0  0  0  0  0  0
  -25.0972  -13.2720   19.5490 C   0  0  0  0  0  0  0  0  0  0  0  0
  -25.9793  -13.8708   21.7170 C   0  0  0  0  0  0  0  0  0  0  0  0
  -17.4357  -28.3542   23.4142 C   0  0  0  0  0  0  0  0  0  0  0  0
  -20.2114  -28.5350   23.3175 C   0  0  0  0  0  0  0  0  0  0  0  0
  -25.3985  -29.2773   20.1476 C   0  0  0  0  0  0  0  0  0  0  0  0
  -30.5429  -24.6516   21.2870 C   0  0  0  0  0  0  0  0  0  0  0  0
  -30.3319  -23.5027   20.5247 C   0  0  0  0  0  0  0  0  0  0  0  0
  -24.9716  -11.9469   19.9660 C   0  0  0  0  0  0  0  0  0  0  0  0
  -25.8537  -12.5457   22.1341 C   0  0  0  0  0  0  0  0  0  0  0  0
  -26.7387  -29.0939   20.4855 C   0  0  0  0  0  0  0  0  0  0  0  0
  -22.8333  -10.1175   21.8405 C   0  0  0  0  0  0  0  0  0  0  0  0
  -21.6460   -9.4518   21.5359 C   0  0  0  0  0  0  0  0  0  0  0  0
  -26.6751  -26.8866   19.5145 C   0  0  0  0  0  0  0  0  0  0  0  0
  -28.0621  -23.3769   21.3429 C   0  0  0  0  0  0  0  0  0  0  0  0
  -22.8905   -7.8095   20.2744 C   0  0  0  0  0  0  0  0  0  0  0  0
  -25.6011  -14.2340   20.4245 C   0  0  0  0  0  0  0  0  0  0  0  0
  -24.7688  -16.6240   20.1040 C   0  0  0  0  0  0  0  0  0  0  0  0
  -18.1679  -27.3524   22.7578 C   0  0  0  0  0  0  0  0  0  0  0  0
  -24.6824  -28.2608   19.4993 C   0  0  0  0  0  0  0  0  0  0  0  0
  -19.5727  -27.4368   22.7168 C   0  0  0  0  0  0  0  0  0  0  0  0
  -25.3267  -27.0605   19.1672 C   0  0  0  0  0  0  0  0  0  0  0  0
  -28.2732  -24.5258   22.1052 C   0  0  0  0  0  0  0  0  0  0  0  0
  -29.5136  -25.1632   22.0772 C   0  0  0  0  0  0  0  0  0  0  0  0
  -29.0915  -22.8653   20.5527 C   0  0  0  0  0  0  0  0  0  0  0  0
  -25.3498  -11.5837   21.2585 C   0  0  0  0  0  0  0  0  0  0  0  0
  -27.3764  -27.8973   20.1715 C   0  0  0  0  0  0  0  0  0  0  0  0
  -24.0492   -9.6293   21.3620 C   0  0  0  0  0  0  0  0  0  0  0  0
  -21.6746   -8.2978   20.7529 C   0  0  0  0  0  0  0  0  0  0  0  0
  -24.0778   -8.4753   20.5789 C   0  0  0  0  0  0  0  0  0  0  0  0
  -25.7316  -15.6028   19.9941 C   0  0  0  0  0  0  0  0  0  0  0  0
  -25.3742  -17.7274   19.5540 C   0  0  0  0  0  0  0  0  0  0  0  0
  -23.4456  -16.5792   20.6543 C   0  0  0  0  0  0  0  0  0  0  0  0
  -22.1292  -26.5082   20.2158 C   0  0  0  0  0  0  0  0  0  0  0  0
  -22.4929  -25.4395   17.1747 C   0  0  0  0  0  0  0  0  0  0  0  0
  -24.5638  -24.9335   14.5098 C   0  0  0  0  0  0  0  0  0  0  0  0
  -29.7915  -21.0610   18.9400 C   0  0  0  0  0  0  0  0  0  0  0  0
  -17.4264  -26.1764   22.1730 C   0  0  0  0  0  0  0  0  0  0  0  0
  -23.2447  -28.4846   19.1178 C   0  0  0  0  0  0  0  0  0  0  0  0
  -24.6080  -25.9459   18.4534 C   0  0  0  0  0  0  0  0  0  0  0  0
  -18.2595  -25.3592   21.1890 C   0  0  0  0  0  0  0  0  0  0  0  0
  -29.6599  -18.1501   16.8939 C   0  0  0  0  0  0  0  0  0  0  0  0
  -29.9291  -27.7727   24.6724 C   0  0  0  0  0  0  0  0  0  0  0  0
  -19.6462  -25.0853   21.7624 C   0  0  0  0  0  0  0  0  0  0  0  0
  -28.5470  -17.3119   17.5271 C   0  0  0  0  0  0  0  0  0  0  0  0
  -30.8374  -28.2545   23.5522 C   0  0  0  0  0  0  0  0  0  0  0  0
  -29.6214  -26.3296   24.2859 C   0  0  0  0  0  0  0  0  0  0  0  0
  -30.4821  -18.8900   17.9477 C   0  0  0  0  0  0  0  0  0  0  0  0
  -28.5866  -18.8642   19.5211 C   0  0  0  0  0  0  0  0  0  0  0  0
  -20.4091  -26.3924   22.0098 C   0  0  1  0  0  0  0  0  0  0  0  0
  -22.4703  -27.1854   18.9185 C   0  0  1  0  0  0  0  0  0  0  0  0
  -27.6904  -18.1515   18.4951 C   0  0  2  0  0  0  0  0  0  0  0  0
  -30.2733  -27.5653   22.3018 C   0  0  2  0  0  0  0  0  0  0  0  0
  -27.1540  -25.0516   22.9438 C   0  0  0  0  0  0  0  0  0  0  0  0
  -24.5827  -24.0069   12.1777 C   0  0  0  0  0  0  0  0  0  0  0  0
  -22.4902  -22.6048   18.3036 C   0  0  0  0  0  0  0  0  0  0  0  0
  -23.4450  -21.8126   16.1289 C   0  0  0  0  0  0  0  0  0  0  0  0
  -21.1932  -22.8846   16.1837 C   0  0  0  0  0  0  0  0  0  0  0  0
  -25.3304  -27.5475   13.3530 C   0  0  0  0  0  0  0  0  0  0  0  0
  -29.1628  -28.3960   21.6601 C   0  0  0  0  0  0  0  0  0  1  0  0
  -23.2534  -24.3105   16.5220 C   0  0  1  0  0  0  0  0  0  0  0  0
  -24.4023  -25.2507   13.0341 C   0  0  2  0  0  0  0  0  0  0  0  0
  -22.6088  -22.9232   16.7997 C   0  0  0  0  0  0  0  0  0  0  0  0
  -26.8626  -16.0203   19.4192 N   0  0  0  0  0  0  0  0  0  0  0  0
  -26.6143  -17.3159   19.1629 N   0  0  0  0  0  0  0  0  0  0  0  0
  -29.7404  -26.3021   22.8268 N   0  0  3  0  0  0  0  0  0  0  0  0
  -23.2017  -26.2101   18.1072 N   0  0  0  0  0  0  0  0  0  0  0  0
  -29.6045  -19.6672   18.8256 N   0  0  0  0  0  0  0  0  0  0  0  0
  -24.9613  -18.9996   19.3714 N   0  0  0  0  0  0  0  0  0  0  0  0
  -22.9805  -15.3652   21.1780 N   0  0  0  0  0  0  0  0  0  0  0  0
  -28.8771  -21.6986   19.7778 N   0  0  0  0  0  0  0  0  0  0  0  0
  -20.9292  -26.9172   20.7654 N   0  0  0  0  0  0  0  0  0  0  0  0
  -23.3536  -24.6504   15.1068 N   0  0  0  0  0  0  0  0  0  0  0  0
  -25.4087  -26.2642   12.6088 N   0  3  0  0  0  0  0  0  0  0  0  0
  -22.6918  -17.5818   20.6659 O   0  0  0  0  0  0  0  0  0  0  0  0
  -22.8972  -25.6752   20.6827 O   0  0  0  0  0  0  0  0  0  0  0  0
  -21.3154  -25.6350   16.8632 O   0  0  0  0  0  0  0  0  0  0  0  0
  -25.6550  -24.9331   15.0754 O   0  0  0  0  0  0  0  0  0  0  0  0
  -30.6792  -21.6500   18.3178 O   0  0  0  0  0  0  0  0  0  0  0  0
  -25.2272  -10.2908   21.6659 O   0  0  0  0  0  0  0  0  0  0  0  0
  -28.6842  -27.7154   20.5007 O   0  0  0  0  0  0  0  0  0  1  0  0
  -20.5345   -7.6578   20.4618 F   0  0  0  0  0  0  0  0  0  0  0  0
  -25.2429   -8.0008   20.1173 F   0  0  0  0  0  0  0  0  0  0  0  0
  1  2  1  0  0  0  0
  1  5  2  0  0  0  0
  2  6  2  0  0  0  0
  3 10  2  0  0  0  0
  3 18  1  0  0  0  0
  4 11  1  0  0  0  0
  4 18  2  0  0  0  0
  5 20  1  0  0  0  0
  6 22  1  0  0  0  0
  7 12  2  0  0  0  0
  7 21  1  0  0  0  0
  8  9  2  0  0  0  0
  8 25  1  0  0  0  0
  9 26  1  0  0  0  0
 10 27  1  0  0  0  0
 11 27  2  0  0  0  0
 12 28  1  0  0  0  0
 13 14  2  0  0  0  0
 13 29  1  0  0  0  0
 14 30  1  0  0  0  0
 15 23  1  0  0  0  0
 15 28  2  0  0  0  0
 16 24  1  0  0  0  0
 16 26  2  0  0  0  0
 17 30  2  0  0  0  0
 17 31  1  0  0  0  0
 18 32  1  0  0  0  0
 19 32  1  0  0  0  0
 19 33  2  0  0  0  0
 19 34  1  0  0  0  0
 20 22  2  0  0  0  0
 20 39  1  0  0  0  0
 21 23  2  0  0  0  0
 21 40  1  0  0  0  0
 22 51  1  0  0  0  0
 23 41  1  0  0  0  0
 24 25  2  0  0  0  0
 24 55  1  0  0  0  0
 25 67  1  0  0  0  0
 26 72  1  0  0  0  0
 27 81  1  0  0  0  0
 28 82  1  0  0  0  0
 29 31  2  0  0  0  0
 29 81  1  0  0  0  0
 30 83  1  0  0  0  0
 31 84  1  0  0  0  0
 32 65  2  0  0  0  0
 33 66  1  0  0  0  0
 33 70  1  0  0  0  0
 34 71  1  0  0  0  0
 34 76  2  0  0  0  0
 35 52  1  0  0  0  0
 35 73  1  0  0  0  0
 35 77  2  0  0  0  0
 36 62  1  0  0  0  0
 36 68  1  0  0  0  0
 36 78  2  0  0  0  0
 37 63  1  0  0  0  0
 37 74  1  0  0  0  0
 37 79  2  0  0  0  0
 38 69  1  0  0  0  0
 38 72  1  0  0  0  0
 38 80  2  0  0  0  0
 39 42  1  0  0  0  0
 40 52  1  0  0  0  0
 41 68  1  0  0  0  0
 42 45  1  0  0  0  0
 43 46  1  0  0  0  0
 43 49  1  0  0  0  0
 44 47  1  0  0  0  0
 44 48  1  0  0  0  0
 45 51  1  0  0  0  0
 46 53  1  0  0  0  0
 47 54  1  0  0  0  0
 48 67  1  0  0  0  0
 49 69  1  0  0  0  0
 50 53  1  0  0  0  0
 50 69  1  0  0  0  0
 51 73  1  0  0  0  0
 52 68  1  0  0  0  0
 53 66  1  0  0  0  0
 54 61  1  0  0  0  0
 54 67  1  0  0  0  0
 56 63  1  0  0  0  0
 57 64  1  0  0  0  0
 58 64  1  0  0  0  0
 59 64  1  0  0  0  0
 60 75  1  0  0  0  0
 61 82  1  0  0  0  0
 62 64  1  0  0  0  0
 62 74  1  0  0  0  0
 63 75  1  0  0  0  0
 65 66  1  0  0  0  0
M  CHG  1  75   1
M  ISO  4  38 100  61 101  72 100  82 101
M  END
> <Batch ID>
0022

> <Smiles>
CNC(C)C(=O)NC(C(=O)N1Cc2cc([101O:1][101CH2:1]C3CCCN3c3ccc([100NH:0][100C:0](=O)N4CCCC(n5nc(-c6ccc(Oc7ccc(F)cc7F)cc6)c(C(N)=O)c5N)C4)cc3C)ccc2CC1C(=O)NC1CCCc2ccccc21)C(C)(C)C

> <Shape>
0.236

> <Color>
0.066

> <Negative vol penalty>
0.000

$$$$

  -OEChem-04042321143D

 87 95  0     1  0  0  0  0  0999 V2000
  -19.7859  -10.2054   20.4085 C   0  0  0  0  0  0  0  0  0  0  0  0
  -20.3044  -11.3744   20.9561 C   0  0  0  0  0  0  0  0  0  0  0  0
  -25.2010  -32.6754   23.4008 C   0  0  0  0  0  0  0  0  0  0  0  0
  -24.1157  -33.5643   21.4338 C   0  0  0  0  0  0  0  0  0  0  0  0
  -20.5950   -9.0769   20.2834 C   0  0  0  0  0  0  0  0  0  0  0  0
  -21.6323  -11.4153   21.3800 C   0  0  0  0  0  0  0  0  0  0  0  0
  -25.4406  -16.2032   21.0997 C   0  0  0  0  0  0  0  0  0  0  0  0
  -28.5578  -21.4854   20.2826 C   0  0  0  0  0  0  0  0  0  0  0  0
  -28.2342  -22.7229   19.7264 C   0  0  0  0  0  0  0  0  0  0  0  0
  -25.1003  -33.9215   24.0194 C   0  0  0  0  0  0  0  0  0  0  0  0
  -24.0150  -34.8104   22.0524 C   0  0  0  0  0  0  0  0  0  0  0  0
  -25.8304  -17.1483   22.0476 C   0  0  0  0  0  0  0  0  0  0  0  0
  -26.7157  -36.8888   23.9206 C   0  0  0  0  0  0  0  0  0  0  0  0
  -27.8397  -37.3715   24.5907 C   0  0  0  0  0  0  0  0  0  0  0  0
  -27.7997  -15.8419   22.5315 C   0  0  0  0  0  0  0  0  0  0  0  0
  -29.3683  -22.5912   22.2719 C   0  0  0  0  0  0  0  0  0  0  0  0
  -26.5794  -37.4464   26.6506 C   0  0  0  0  0  0  0  0  0  0  0  0
  -24.7087  -32.4968   22.1079 C   0  0  0  0  0  0  0  0  0  0  0  0
  -23.8753  -30.1608   21.5110 C   0  0  0  0  0  0  0  0  0  0  0  0
  -21.9362   -9.1069   20.6970 C   0  0  0  0  0  0  0  0  0  0  0  0
  -26.2232  -15.0628   20.8680 C   0  0  0  0  0  0  0  0  0  0  0  0
  -22.4597  -10.2857   21.2615 C   0  0  0  0  0  0  0  0  0  0  0  0
  -27.4190  -14.8851   21.5784 C   0  0  0  0  0  0  0  0  0  0  0  0
  -29.0447  -23.8288   21.7157 C   0  0  0  0  0  0  0  0  0  0  0  0
  -29.1248  -21.4195   21.5553 C   0  0  0  0  0  0  0  0  0  0  0  0
  -28.4777  -23.8947   20.4430 C   0  0  0  0  0  0  0  0  0  0  0  0
  -24.5073  -34.9889   23.3453 C   0  0  0  0  0  0  0  0  0  0  0  0
  -27.0086  -16.9664   22.7657 C   0  0  0  0  0  0  0  0  0  0  0  0
  -25.5235  -36.6850   24.6154 C   0  0  0  0  0  0  0  0  0  0  0  0
  -27.7716  -37.6503   25.9557 C   0  0  0  0  0  0  0  0  0  0  0  0
  -25.4553  -36.9638   25.9804 C   0  0  0  0  0  0  0  0  0  0  0  0
  -24.8130  -31.2100   21.4681 C   0  0  0  0  0  0  0  0  0  0  0  0
  -24.4383  -29.1658   20.7498 C   0  0  0  0  0  0  0  0  0  0  0  0
  -22.6087  -30.0918   22.1792 C   0  0  0  0  0  0  0  0  0  0  0  0
  -25.7667  -11.9311   21.1635 C   0  0  0  0  0  0  0  0  0  0  0  0
  -28.6878  -11.7672   19.7625 C   0  0  0  0  0  0  0  0  0  0  0  0
  -31.6717  -13.2845   19.0984 C   0  0  0  0  0  0  0  0  0  0  0  0
  -29.1134  -26.1558   19.6192 C   0  0  0  0  0  0  0  0  0  0  0  0
  -22.7586   -7.8476   20.5853 C   0  0  0  0  0  0  0  0  0  0  0  0
  -25.8025  -14.0660   19.8231 C   0  0  0  0  0  0  0  0  0  0  0  0
  -28.3050  -13.6882   21.3527 C   0  0  0  0  0  0  0  0  0  0  0  0
  -24.2607   -8.0877   20.7134 C   0  0  0  0  0  0  0  0  0  0  0  0
  -28.4409  -29.2164   17.6724 C   0  0  0  0  0  0  0  0  0  0  0  0
  -24.5559   -9.0024   21.8979 C   0  0  0  0  0  0  0  0  0  0  0  0
  -27.4086  -29.9458   18.5304 C   0  0  0  0  0  0  0  0  0  0  0  0
  -29.3775  -28.3593   18.5186 C   0  0  0  0  0  0  0  0  0  0  0  0
  -27.6363  -28.1200   20.2625 C   0  0  0  0  0  0  0  0  0  0  0  0
  -23.9022  -10.3768   21.7100 C   0  0  1  0  0  0  0  0  0  0  0  0
  -26.4131  -12.6842   20.0354 C   0  0  1  0  0  0  0  0  0  0  0  0
  -26.6506  -28.9585   19.4347 C   0  0  1  0  0  0  0  0  0  0  0  0
  -29.3151  -25.0677   22.5064 C   0  0  0  0  0  0  0  0  0  0  0  0
  -33.4663  -20.0006   20.2486 C   0  0  0  0  0  0  0  0  0  0  0  0
  -33.8744  -12.8868   17.9639 C   0  0  0  0  0  0  0  0  0  0  0  0
  -29.5705  -10.0120   22.0970 C   0  0  0  0  0  0  0  0  0  0  0  0
  -31.9453  -10.4351   21.4265 C   0  0  0  0  0  0  0  0  0  0  0  0
  -30.3981   -9.2644   19.8585 C   0  0  0  0  0  0  0  0  0  0  0  0
  -26.7986  -25.3270   19.2657 C   0  0  0  0  0  0  0  0  0  0  0  0
  -31.2357  -15.5225   17.2116 C   0  0  0  0  0  0  0  0  0  0  0  0
  -32.2797  -19.7297   21.1604 C   0  0  0  0  0  0  0  0  0  0  0  0
  -31.0217  -19.3952   20.3557 C   0  0  0  0  0  0  0  0  0  0  0  0
  -28.0292  -20.1642   24.1004 C   0  0  0  0  0  0  0  0  0  0  0  0
  -29.8291  -19.0599   21.2452 C   0  0  0  0  0  0  0  0  0  0  0  0
  -29.4328  -19.9637   23.5418 C   0  0  0  0  0  0  0  0  0  0  0  0
  -26.9979  -19.2398   23.4639 C   0  0  0  0  0  0  0  0  0  1  0  0
  -30.1126  -11.7441   20.2607 C   0  0  1  0  0  0  0  0  0  0  0  0
  -32.4627  -13.4311   17.8110 C   0  0  2  0  0  0  0  0  0  0  0  0
  -30.4892  -10.3856   20.9166 C   0  0  0  0  0  0  0  0  0  0  0  0
  -25.8899  -30.9095   20.7374 N   0  0  0  0  0  0  0  0  0  0  0  0
  -25.6326  -29.6601   20.3143 N   0  0  0  0  0  0  0  0  0  0  0  0
  -27.8475  -12.7385   20.3249 N   0  0  0  0  0  0  0  0  0  0  0  0
  -28.6313  -27.4621   19.4017 N   0  0  0  0  0  0  0  0  0  0  0  0
  -24.0234  -27.9250   20.4171 N   0  0  0  0  0  0  0  0  0  0  0  0
  -22.1816  -31.2036   22.9181 N   0  0  0  0  0  0  0  0  0  0  0  0
  -24.6710  -11.1797   20.7834 N   0  0  0  0  0  0  0  0  0  0  0  0
  -30.9490  -12.1105   19.1229 N   0  0  0  0  0  0  0  0  0  0  0  0
  -28.1339  -25.1657   19.8503 N   0  0  0  0  0  0  0  0  0  0  0  0
  -29.4495  -20.1752   22.1145 N   0  0  3  0  0  0  0  0  0  0  0  0
  -32.5522  -14.8661   17.4187 N   0  3  0  0  0  0  0  0  0  0  0  0
  -21.8847  -29.0684   22.1363 O   0  0  0  0  0  0  0  0  0  0  0  0
  -26.2287  -12.0235   22.2947 O   0  0  0  0  0  0  0  0  0  0  0  0
  -28.3353  -10.9580   18.9008 O   0  0  0  0  0  0  0  0  0  0  0  0
  -31.6957  -14.1254   19.9944 O   0  0  0  0  0  0  0  0  0  0  0  0
  -30.3208  -25.8909   19.5800 O   0  0  0  0  0  0  0  0  0  0  0  0
  -24.4086  -36.2049   23.9488 O   0  0  0  0  0  0  0  0  0  0  0  0
  -27.3911  -17.8871   23.6919 O   0  0  0  0  0  0  0  0  0  1  0  0
  -28.8515  -38.1124   26.5995 F   0  0  0  0  0  0  0  0  0  0  0  0
  -24.3131  -36.7688   26.6535 F   0  0  0  0  0  0  0  0  0  0  0  0
  1  2  1  0  0  0  0
  1  5  2  0  0  0  0
  2  6  2  0  0  0  0
  3 10  2  0  0  0  0
  3 18  1  0  0  0  0
  4 11  1  0  0  0  0
  4 18  2  0  0  0  0
  5 20  1  0  0  0  0
  6 22  1  0  0  0  0
  7 12  2  0  0  0  0
  7 21  1  0  0  0  0
  8  9  2  0  0  0  0
  8 25  1  0  0  0  0
  9 26  1  0  0  0  0
 10 27  1  0  0  0  0
 11 27  2  0  0  0  0
 12 28  1  0  0  0  0
 13 14  2  0  0  0  0
 13 29  1  0  0  0  0
 14 30  1  0  0  0  0
 15 23  1  0  0  0  0
 15 28  2  0  0  0  0
 16 24  1  0  0  0  0
 16 25  2  0  0  0  0
 17 30  2  0  0  0  0
 17 31  1  0  0  0  0
 18 32  1  0  0  0  0
 19 32  1  0  0  0  0
 19 33  2  0  0  0  0
 19 34  1  0  0  0  0
 20 22  2  0  0  0  0
 20 39  1  0  0  0  0
 21 23  2  0  0  0  0
 21 40  1  0  0  0  0
 22 48  1  0  0  0  0
 23 41  1  0  0  0  0
 24 26  2  0  0  0  0
 24 51  1  0  0  0  0
 25 77  1  0  0  0  0
 26 76  1  0  0  0  0
 27 84  1  0  0  0  0
 28 85  1  0  0  0  0
 29 31  2  0  0  0  0
 29 84  1  0  0  0  0
 30 86  1  0  0  0  0
 31 87  1  0  0  0  0
 32 68  2  0  0  0  0
 33 69  1  0  0  0  0
 33 72  1  0  0  0  0
 34 73  1  0  0  0  0
 34 79  2  0  0  0  0
 35 49  1  0  0  0  0
 35 74  1  0  0  0  0
 35 80  2  0  0  0  0
 36 65  1  0  0  0  0
 36 70  1  0  0  0  0
 36 81  2  0  0  0  0
 37 66  1  0  0  0  0
 37 75  1  0  0  0  0
 37 82  2  0  0  0  0
 38 71  1  0  0  0  0
 38 76  1  0  0  0  0
 38 83  2  0  0  0  0
 39 42  1  0  0  0  0
 40 49  1  0  0  0  0
 41 70  1  0  0  0  0
 42 44  1  0  0  0  0
 43 45  1  0  0  0  0
 43 46  1  0  0  0  0
 44 48  1  0  0  0  0
 45 50  1  0  0  0  0
 46 71  1  0  0  0  0
 47 50  1  0  0  0  0
 47 71  1  0  0  0  0
 48 74  1  0  0  0  0
 49 70  1  0  0  0  0
 50 69  1  0  0  0  0
 52 59  1  0  0  0  0
 53 66  1  0  0  0  0
 54 67  1  0  0  0  0
 55 67  1  0  0  0  0
 56 67  1  0  0  0  0
 57 76  1  0  0  0  0
 58 78  1  0  0  0  0
 59 60  1  0  0  0  0
 60 62  1  0  0  0  0
 61 63  1  0  0  0  0
 61 64  1  0  0  0  0
 62 77  1  0  0  0  0
 63 77  1  0  0  0  0
 64 85  1  0  0  0  0
 65 67  1  0  0  0  0
 65 75  1  0  0  0  0
 66 78  1  0  0  0  0
 68 69  1  0  0  0  0
M  CHG  1  78   1
M  ISO  4  38 100  64 101  76 100  85 101
M  END
> <Batch ID>
0022

> <Smiles>
CCCCN(CC[101CH2:1][101O:1]c1ccc2c(c1)CN(C(=O)C(NC(=O)C(C)NC)C(C)(C)C)C(C(=O)NC1CCCc3ccccc31)C2)c1ccc([100N:0](C)[100C:0](=O)N2CCCC(n3nc(-c4ccc(Oc5ccc(F)cc5F)cc4)c(C(N)=O)c3N)C2)c(C)c1

> <Shape>
0.308

> <Color>
0.066

> <Negative vol penalty>
0.000

$$$$

  -OEChem-04042321143D

 86 95  0     1  0  0  0  0  0999 V2000
  -34.3738  -11.5618   18.6140 C   0  0  0  0  0  0  0  0  0  0  0  0
  -33.8017  -12.8165   18.4300 C   0  0  0  0  0  0  0  0  0  0  0  0
  -24.7559  -28.9949   22.4552 C   0  0  0  0  0  0  0  0  0  0  0  0
  -24.6847  -30.5568   20.6133 C   0  0  0  0  0  0  0  0  0  0  0  0
  -33.5968  -10.4138   18.4646 C   0  0  0  0  0  0  0  0  0  0  0  0
  -32.4523  -12.9239   18.0954 C   0  0  0  0  0  0  0  0  0  0  0  0
  -28.5641  -17.3201   19.8449 C   0  0  0  0  0  0  0  0  0  0  0  0
  -26.6081  -22.3438   20.8557 C   0  0  0  0  0  0  0  0  0  0  0  0
  -27.2417  -22.5557   18.5339 C   0  0  0  0  0  0  0  0  0  0  0  0
  -27.8807  -22.7649   21.2414 C   0  0  0  0  0  0  0  0  0  0  0  0
  -28.5143  -22.9768   18.9196 C   0  0  0  0  0  0  0  0  0  0  0  0
  -24.2998  -29.9915   23.3179 C   0  0  0  0  0  0  0  0  0  0  0  0
  -24.2285  -31.5534   21.4760 C   0  0  0  0  0  0  0  0  0  0  0  0
  -28.1035  -18.4724   19.2093 C   0  0  0  0  0  0  0  0  0  0  0  0
  -21.3541  -31.4612   24.0902 C   0  0  0  0  0  0  0  0  0  0  0  0
  -20.3415  -31.1267   24.9893 C   0  0  0  0  0  0  0  0  0  0  0  0
  -26.1390  -17.2775   18.4799 C   0  0  0  0  0  0  0  0  0  0  0  0
  -21.7939  -31.6921   26.8354 C   0  0  0  0  0  0  0  0  0  0  0  0
  -24.9484  -29.2776   21.1029 C   0  0  0  0  0  0  0  0  0  0  0  0
  -24.6386  -27.3409   19.4715 C   0  0  0  0  0  0  0  0  0  0  0  0
  -32.2348  -10.5076   18.1374 C   0  0  0  0  0  0  0  0  0  0  0  0
  -27.8196  -16.1329   19.7934 C   0  0  0  0  0  0  0  0  0  0  0  0
  -31.6566  -11.7761   17.9401 C   0  0  0  0  0  0  0  0  0  0  0  0
  -26.5911  -16.1122   19.1178 C   0  0  0  0  0  0  0  0  0  0  0  0
  -26.2886  -22.2392   19.5019 C   0  0  0  0  0  0  0  0  0  0  0  0
  -28.8338  -23.0814   20.2734 C   0  0  0  0  0  0  0  0  0  0  0  0
  -24.0361  -31.2708   22.8283 C   0  0  0  0  0  0  0  0  0  0  0  0
  -26.8922  -18.4504   18.5242 C   0  0  0  0  0  0  0  0  0  0  0  0
  -22.5867  -31.9110   24.5637 C   0  0  0  0  0  0  0  0  0  0  0  0
  -20.5613  -31.2422   26.3619 C   0  0  0  0  0  0  0  0  0  0  0  0
  -22.8065  -32.0266   25.9363 C   0  0  0  0  0  0  0  0  0  0  0  0
  -25.4201  -28.2486   20.2113 C   0  0  0  0  0  0  0  0  0  0  0  0
  -25.5535  -26.5778   18.7880 C   0  0  0  0  0  0  0  0  0  0  0  0
  -23.2132  -27.2002   19.4079 C   0  0  0  0  0  0  0  0  0  0  0  0
  -28.3257  -13.2162   18.6357 C   0  0  0  0  0  0  0  0  0  0  0  0
  -25.4889  -12.5766   20.0731 C   0  0  0  0  0  0  0  0  0  0  0  0
  -22.5139  -13.7515   21.2629 C   0  0  0  0  0  0  0  0  0  0  0  0
  -30.9368  -24.3982   19.9067 C   0  0  0  0  0  0  0  0  0  0  0  0
  -31.4465   -9.2370   17.9401 C   0  0  0  0  0  0  0  0  0  0  0  0
  -28.3173  -14.9058   20.5068 C   0  0  0  0  0  0  0  0  0  0  0  0
  -25.7441  -14.8686   19.0500 C   0  0  0  0  0  0  0  0  0  0  0  0
  -29.9350   -9.4500   17.9521 C   0  0  0  0  0  0  0  0  0  0  0  0
  -30.2782  -27.0986   17.4639 C   0  0  0  0  0  0  0  0  0  0  0  0
  -22.6955  -21.4165   19.1407 C   0  0  0  0  0  0  0  0  0  0  0  0
  -29.5566  -10.6403   17.0764 C   0  0  0  0  0  0  0  0  0  0  0  0
  -28.9218  -27.6389   17.9130 C   0  0  0  0  0  0  0  0  0  0  0  0
  -23.1828  -21.4668   17.7013 C   0  0  0  0  0  0  0  0  0  0  0  0
  -23.8303  -22.0686   19.9242 C   0  0  0  0  0  0  0  0  0  0  0  0
  -31.0688  -26.5131   18.6300 C   0  0  0  0  0  0  0  0  0  0  0  0
  -28.9652  -26.0010   19.8357 C   0  0  0  0  0  0  0  0  0  0  0  0
  -30.1903  -11.9345   17.6008 C   0  0  1  0  0  0  0  0  0  0  0  0
  -27.7255  -13.6125   19.9550 C   0  0  1  0  0  0  0  0  0  0  0  0
  -28.1324  -26.5598   18.6722 C   0  0  1  0  0  0  0  0  0  0  0  0
  -24.6947  -21.2277   17.8183 C   0  0  2  0  0  0  0  0  0  0  0  0
  -32.0458  -20.7334   22.5081 C   0  0  0  0  0  0  0  0  0  0  0  0
  -20.3848  -12.9843   22.3473 C   0  0  0  0  0  0  0  0  0  0  0  0
  -24.5183  -11.4892   17.3925 C   0  0  0  0  0  0  0  0  0  0  0  0
  -22.1750  -11.6312   18.2624 C   0  0  0  0  0  0  0  0  0  0  0  0
  -23.8294  -10.1348   19.3789 C   0  0  0  0  0  0  0  0  0  0  0  0
  -23.0040  -15.4089   23.6654 C   0  0  0  0  0  0  0  0  0  0  0  0
  -25.0265  -19.7362   17.8018 C   0  0  0  0  0  0  0  0  0  1  0  0
  -31.3933  -21.4817   21.3540 C   0  0  0  0  0  0  0  0  0  0  0  0
  -30.7956  -22.8171   21.7807 C   0  0  0  0  0  0  0  0  0  0  0  0
  -24.0400  -12.6392   19.6541 C   0  0  1  0  0  0  0  0  0  0  0  0
  -21.7910  -13.5162   22.5769 C   0  0  2  0  0  0  0  0  0  0  0  0
  -23.6573  -11.4967   18.6714 C   0  0  0  0  0  0  0  0  0  0  0  0
  -26.7305  -28.0791   20.0162 N   0  0  0  0  0  0  0  0  0  0  0  0
  -26.7795  -27.0560   19.1462 N   0  0  0  0  0  0  0  0  0  0  0  0
  -25.0281  -21.8201   19.1195 N   0  0  3  0  0  0  0  0  0  0  0  0
  -26.2767  -13.6928   19.7581 N   0  0  0  0  0  0  0  0  0  0  0  0
  -30.2836  -25.5313   19.3796 N   0  0  0  0  0  0  0  0  0  0  0  0
  -25.4207  -25.5511   17.9216 N   0  0  0  0  0  0  0  0  0  0  0  0
  -22.4214  -28.0665   20.1740 N   0  0  0  0  0  0  0  0  0  0  0  0
  -29.4560  -12.4290   18.7457 N   0  0  0  0  0  0  0  0  0  0  0  0
  -23.2590  -12.6541   20.8863 N   0  0  0  0  0  0  0  0  0  0  0  0
  -30.1498  -23.5169   20.6723 N   0  0  0  0  0  0  0  0  0  0  0  0
  -21.6925  -14.7872   23.3488 N   0  3  0  0  0  0  0  0  0  0  0  0
  -22.6586  -26.3213   18.7054 O   0  0  0  0  0  0  0  0  0  0  0  0
  -27.8011  -13.5952   17.5951 O   0  0  0  0  0  0  0  0  0  0  0  0
  -25.9047  -11.5772   20.6647 O   0  0  0  0  0  0  0  0  0  0  0  0
  -22.4235  -14.8022   20.6318 O   0  0  0  0  0  0  0  0  0  0  0  0
  -32.1503  -24.2121   19.7534 O   0  0  0  0  0  0  0  0  0  0  0  0
  -23.5907  -32.2434   23.6699 O   0  0  0  0  0  0  0  0  0  0  0  0
  -26.4406  -19.5735   17.9025 O   0  0  0  0  0  0  0  0  0  1  0  0
  -19.5883  -30.9225   27.2251 F   0  0  0  0  0  0  0  0  0  0  0  0
  -23.9881  -32.4593   26.3972 F   0  0  0  0  0  0  0  0  0  0  0  0
  1  2  1  0  0  0  0
  1  5  2  0  0  0  0
  2  6  2  0  0  0  0
  3 12  2  0  0  0  0
  3 19  1  0  0  0  0
  4 13  1  0  0  0  0
  4 19  2  0  0  0  0
  5 21  1  0  0  0  0
  6 23  1  0  0  0  0
  7 14  2  0  0  0  0
  7 22  1  0  0  0  0
  8 10  2  0  0  0  0
  8 25  1  0  0  0  0
  9 11  1  0  0  0  0
  9 25  2  0  0  0  0
 10 26  1  0  0  0  0
 11 26  2  0  0  0  0
 12 27  1  0  0  0  0
 13 27  2  0  0  0  0
 14 28  1  0  0  0  0
 15 16  2  0  0  0  0
 15 29  1  0  0  0  0
 16 30  1  0  0  0  0
 17 24  1  0  0  0  0
 17 28  2  0  0  0  0
 18 30  2  0  0  0  0
 18 31  1  0  0  0  0
 19 32  1  0  0  0  0
 20 32  1  0  0  0  0
 20 33  2  0  0  0  0
 20 34  1  0  0  0  0
 21 23  2  0  0  0  0
 21 39  1  0  0  0  0
 22 24  2  0  0  0  0
 22 40  1  0  0  0  0
 23 51  1  0  0  0  0
 24 41  1  0  0  0  0
 25 69  1  0  0  0  0
 26 76  1  0  0  0  0
 27 83  1  0  0  0  0
 28 84  1  0  0  0  0
 29 31  2  0  0  0  0
 29 83  1  0  0  0  0
 30 85  1  0  0  0  0
 31 86  1  0  0  0  0
 32 67  2  0  0  0  0
 33 68  1  0  0  0  0
 33 72  1  0  0  0  0
 34 73  1  0  0  0  0
 34 78  2  0  0  0  0
 35 52  1  0  0  0  0
 35 74  1  0  0  0  0
 35 79  2  0  0  0  0
 36 64  1  0  0  0  0
 36 70  1  0  0  0  0
 36 80  2  0  0  0  0
 37 65  1  0  0  0  0
 37 75  1  0  0  0  0
 37 81  2  0  0  0  0
 38 71  1  0  0  0  0
 38 76  1  0  0  0  0
 38 82  2  0  0  0  0
 39 42  1  0  0  0  0
 40 52  1  0  0  0  0
 41 70  1  0  0  0  0
 42 45  1  0  0  0  0
 43 46  1  0  0  0  0
 43 49  1  0  0  0  0
 44 47  1  0  0  0  0
 44 48  1  0  0  0  0
 45 51  1  0  0  0  0
 46 53  1  0  0  0  0
 47 54  1  0  0  0  0
 48 69  1  0  0  0  0
 49 71  1  0  0  0  0
 50 53  1  0  0  0  0
 50 71  1  0  0  0  0
 51 74  1  0  0  0  0
 52 70  1  0  0  0  0
 53 68  1  0  0  0  0
 54 61  1  0  0  0  0
 54 69  1  0  0  0  0
 55 62  1  0  0  0  0
 56 65  1  0  0  0  0
 57 66  1  0  0  0  0
 58 66  1  0  0  0  0
 59 66  1  0  0  0  0
 60 77  1  0  0  0  0
 61 84  1  0  0  0  0
 62 63  1  0  0  0  0
 63 76  1  0  0  0  0
 64 66  1  0  0  0  0
 64 75  1  0  0  0  0
 65 77  1  0  0  0  0
 67 68  1  0  0  0  0
M  CHG  1  77   1
M  ISO  4  38 100  61 101  76 100  84 101
M  END
> <Batch ID>
0022

> <Smiles>
CCC[100N:0](c1ccc(N2CCCC2[101CH2:1][101O:1]c2ccc3c(c2)CN(C(=O)C(NC(=O)C(C)NC)C(C)(C)C)C(C(=O)NC2CCCc4ccccc42)C3)cc1)[100C:0](=O)N1CCCC(n2nc(-c3ccc(Oc4ccc(F)cc4F)cc3)c(C(N)=O)c2N)C1

> <Shape>
0.228

> <Color>
0.073

> <Negative vol penalty>
0.000

$$$$

  -OEChem-04042321142D

  0  0  0     0  0  0  0  0  0999 V2000
M  END
$$$$

  -OEChem-04042321143D

 87 96  0     1  0  0  0  0  0999 V2000
  -20.1536  -34.5383   23.6604 C   0  0  0  0  0  0  0  0  0  0  0  0
  -21.4550  -34.1160   23.4086 C   0  0  0  0  0  0  0  0  0  0  0  0
  -27.0591  -12.8014   20.9785 C   0  0  0  0  0  0  0  0  0  0  0  0
  -27.0967  -12.9143   18.5655 C   0  0  0  0  0  0  0  0  0  0  0  0
  -19.1616  -33.6019   23.9486 C   0  0  0  0  0  0  0  0  0  0  0  0
  -21.7654  -32.7571   23.4459 C   0  0  0  0  0  0  0  0  0  0  0  0
  -25.8317  -29.8119   19.9391 C   0  0  0  0  0  0  0  0  0  0  0  0
  -32.7937  -22.2899   17.0864 C   0  0  0  0  0  0  0  0  0  0  0  0
  -31.6473  -21.4953   17.0959 C   0  0  0  0  0  0  0  0  0  0  0  0
  -26.4145  -11.5663   20.9107 C   0  0  0  0  0  0  0  0  0  0  0  0
  -26.4520  -11.6792   18.4976 C   0  0  0  0  0  0  0  0  0  0  0  0
  -27.1490  -29.4140   20.1628 C   0  0  0  0  0  0  0  0  0  0  0  0
  -24.4363   -8.5505   21.3747 C   0  0  0  0  0  0  0  0  0  0  0  0
  -23.3493   -8.3372   22.2223 C   0  0  0  0  0  0  0  0  0  0  0  0
  -26.3728  -27.2180   20.7907 C   0  0  0  0  0  0  0  0  0  0  0  0
  -30.4706  -23.2078   18.3287 C   0  0  0  0  0  0  0  0  0  0  0  0
  -22.1944  -10.2027   21.2106 C   0  0  0  0  0  0  0  0  0  0  0  0
  -27.4002  -13.4754   19.8059 C   0  0  0  0  0  0  0  0  0  0  0  0
  -29.4533  -14.9860   19.9076 C   0  0  0  0  0  0  0  0  0  0  0  0
  -19.4579  -32.2301   23.9800 C   0  0  0  0  0  0  0  0  0  0  0  0
  -24.7724  -28.9176   20.1505 C   0  0  0  0  0  0  0  0  0  0  0  0
  -20.7768  -31.8016   23.7361 C   0  0  0  0  0  0  0  0  0  0  0  0
  -25.0431  -27.6062   20.5666 C   0  0  0  0  0  0  0  0  0  0  0  0
  -32.7786  -23.5434   17.6981 C   0  0  0  0  0  0  0  0  0  0  0  0
  -30.4858  -21.9543   17.7170 C   0  0  0  0  0  0  0  0  0  0  0  0
  -31.6170  -24.0023   18.3192 C   0  0  0  0  0  0  0  0  0  0  0  0
  -26.1110  -11.0052   19.6703 C   0  0  0  0  0  0  0  0  0  0  0  0
  -27.4196  -28.1178   20.5914 C   0  0  0  0  0  0  0  0  0  0  0  0
  -24.4024   -9.5899   20.4451 C   0  0  0  0  0  0  0  0  0  0  0  0
  -22.2283   -9.1632   22.1402 C   0  0  0  0  0  0  0  0  0  0  0  0
  -23.2815  -10.4160   20.3630 C   0  0  0  0  0  0  0  0  0  0  0  0
  -28.0656  -14.7515   19.8753 C   0  0  0  0  0  0  0  0  0  0  0  0
  -29.5691  -16.3531   19.9726 C   0  0  0  0  0  0  0  0  0  0  0  0
  -30.5405  -14.0516   19.8813 C   0  0  0  0  0  0  0  0  0  0  0  0
  -22.2519  -28.8430   22.0857 C   0  0  0  0  0  0  0  0  0  0  0  0
  -21.4892  -26.2088   20.3532 C   0  0  0  0  0  0  0  0  0  0  0  0
  -30.4794  -26.1128   19.0911 C   0  0  0  0  0  0  0  0  0  0  0  0
  -22.5444  -23.6412   18.3681 C   0  0  0  0  0  0  0  0  0  0  0  0
  -28.0864  -21.4520   18.2978 C   0  0  0  0  0  0  0  0  0  0  0  0
  -18.3625  -31.2589   24.3427 C   0  0  0  0  0  0  0  0  0  0  0  0
  -23.3588  -29.3541   19.8791 C   0  0  0  0  0  0  0  0  0  0  0  0
  -23.9431  -26.6017   20.7886 C   0  0  0  0  0  0  0  0  0  0  0  0
  -18.6931  -29.8100   23.9940 C   0  0  0  0  0  0  0  0  0  0  0  0
  -36.0675  -25.2121   18.2556 C   0  0  0  0  0  0  0  0  0  0  0  0
  -35.5537  -25.9451   17.0330 C   0  0  0  0  0  0  0  0  0  0  0  0
  -26.0742  -19.9192   20.8034 C   0  0  0  0  0  0  0  0  0  0  0  0
  -20.1056  -29.4598   24.4511 C   0  0  0  0  0  0  0  0  0  0  0  0
  -26.5271  -18.4574   20.7880 C   0  0  0  0  0  0  0  0  0  0  0  0
  -35.2385  -23.9328   18.2541 C   0  0  0  0  0  0  0  0  0  0  0  0
  -34.0564  -25.6627   17.0760 C   0  0  0  0  0  0  0  0  0  0  0  0
  -26.0622  -20.5240   19.4007 C   0  0  0  0  0  0  0  0  0  0  0  0
  -27.7714  -18.9221   18.6380 C   0  0  0  0  0  0  0  0  0  0  0  0
  -21.1473  -30.3344   23.7431 C   0  0  1  0  0  0  0  0  0  0  0  0
  -22.3219  -28.5163   20.6208 C   0  0  1  0  0  0  0  0  0  0  0  0
  -27.8619  -18.2888   20.0360 C   0  0  2  0  0  0  0  0  0  0  0  0
  -21.6954  -21.6270   17.1355 C   0  0  0  0  0  0  0  0  0  0  0  0
  -21.2649  -24.6922   22.9913 C   0  0  0  0  0  0  0  0  0  0  0  0
  -21.3640  -22.5551   21.6908 C   0  0  0  0  0  0  0  0  0  0  0  0
  -19.4828  -24.1513   21.3222 C   0  0  0  0  0  0  0  0  0  0  0  0
  -23.4322  -24.7196   15.7589 C   0  0  0  0  0  0  0  0  0  0  0  0
  -30.8761  -27.3850   19.8314 C   0  0  0  0  0  0  0  0  0  0  0  0
  -29.7170  -28.3513   20.0227 C   0  0  0  0  0  0  0  0  0  1  0  0
  -21.7884  -24.7333   20.4634 C   0  0  1  0  0  0  0  0  0  0  0  0
  -22.0213  -23.1097   17.0459 C   0  0  2  0  0  0  0  0  0  0  0  0
  -20.9958  -24.0522   21.6147 C   0  0  0  0  0  0  0  0  0  0  0  0
  -27.3510  -15.8792   19.9164 N   0  0  0  0  0  0  0  0  0  0  0  0
  -28.2934  -16.8355   19.9754 N   0  0  0  0  0  0  0  0  0  0  0  0
  -33.9475  -24.3280   17.6774 N   0  0  0  0  0  0  0  0  0  0  0  0
  -22.5771  -27.0783   20.5158 N   0  0  0  0  0  0  0  0  0  0  0  0
  -27.3604  -20.3303   18.7510 N   0  0  0  0  0  0  0  0  0  0  0  0
  -30.6367  -17.1775   20.0271 N   0  0  0  0  0  0  0  0  0  0  0  0
  -30.2441  -12.6835   19.8134 N   0  0  0  0  0  0  0  0  0  0  0  0
  -31.5784  -25.2702   18.9467 N   0  0  0  0  0  0  0  0  0  0  0  0
  -29.3212  -21.1471   17.7261 N   0  0  0  0  0  0  0  0  0  0  0  0
  -21.3706  -29.8619   22.3935 N   0  0  0  0  0  0  0  0  0  0  0  0
  -21.5323  -24.1653   19.1442 N   0  0  0  0  0  0  0  0  0  0  0  0
  -23.0360  -23.3037   15.9717 N   0  3  0  0  0  0  0  0  0  0  0  0
  -31.7390  -14.4183   19.9334 O   0  0  0  0  0  0  0  0  0  0  0  0
  -22.9450  -28.2161   22.8784 O   0  0  0  0  0  0  0  0  0  0  0  0
  -20.3341  -26.5762   20.1240 O   0  0  0  0  0  0  0  0  0  0  0  0
  -29.3338  -25.9153   18.7001 O   0  0  0  0  0  0  0  0  0  0  0  0
  -23.7315  -23.5928   18.6826 O   0  0  0  0  0  0  0  0  0  0  0  0
  -27.6574  -22.6008   18.4332 O   0  0  0  0  0  0  0  0  0  0  0  0
  -25.4821   -9.7999   19.6037 O   0  0  0  0  0  0  0  0  0  0  0  0
  -28.7045  -27.7270   20.8110 O   0  0  0  0  0  0  0  0  0  1  0  0
  -21.1838   -8.9573   22.9532 F   0  0  0  0  0  0  0  0  0  0  0  0
  -23.2427  -11.4154   19.4711 F   0  0  0  0  0  0  0  0  0  0  0  0
  1  2  1  0  0  0  0
  1  5  2  0  0  0  0
  2  6  2  0  0  0  0
  3 10  2  0  0  0  0
  3 18  1  0  0  0  0
  4 11  1  0  0  0  0
  4 18  2  0  0  0  0
  5 20  1  0  0  0  0
  6 22  1  0  0  0  0
  7 12  2  0  0  0  0
  7 21  1  0  0  0  0
  8  9  2  0  0  0  0
  8 24  1  0  0  0  0
  9 25  1  0  0  0  0
 10 27  1  0  0  0  0
 11 27  2  0  0  0  0
 12 28  1  0  0  0  0
 13 14  2  0  0  0  0
 13 29  1  0  0  0  0
 14 30  1  0  0  0  0
 15 23  1  0  0  0  0
 15 28  2  0  0  0  0
 16 25  2  0  0  0  0
 16 26  1  0  0  0  0
 17 30  2  0  0  0  0
 17 31  1  0  0  0  0
 18 32  1  0  0  0  0
 19 32  1  0  0  0  0
 19 33  2  0  0  0  0
 19 34  1  0  0  0  0
 20 22  2  0  0  0  0
 20 40  1  0  0  0  0
 21 23  2  0  0  0  0
 21 41  1  0  0  0  0
 22 53  1  0  0  0  0
 23 42  1  0  0  0  0
 24 26  2  0  0  0  0
 24 68  1  0  0  0  0
 25 74  1  0  0  0  0
 26 73  1  0  0  0  0
 27 84  1  0  0  0  0
 28 85  1  0  0  0  0
 29 31  2  0  0  0  0
 29 84  1  0  0  0  0
 30 86  1  0  0  0  0
 31 87  1  0  0  0  0
 32 66  2  0  0  0  0
 33 67  1  0  0  0  0
 33 71  1  0  0  0  0
 34 72  1  0  0  0  0
 34 78  2  0  0  0  0
 35 54  1  0  0  0  0
 35 75  1  0  0  0  0
 35 79  2  0  0  0  0
 36 63  1  0  0  0  0
 36 69  1  0  0  0  0
 36 80  2  0  0  0  0
 37 61  1  0  0  0  0
 37 73  1  0  0  0  0
 37 81  2  0  0  0  0
 38 64  1  0  0  0  0
 38 76  1  0  0  0  0
 38 82  2  0  0  0  0
 39 70  1  0  0  0  0
 39 74  1  0  0  0  0
 39 83  2  0  0  0  0
 40 43  1  0  0  0  0
 41 54  1  0  0  0  0
 42 69  1  0  0  0  0
 43 47  1  0  0  0  0
 44 45  1  0  0  0  0
 44 49  1  0  0  0  0
 45 50  1  0  0  0  0
 46 48  1  0  0  0  0
 46 51  1  0  0  0  0
 47 53  1  0  0  0  0
 48 55  1  0  0  0  0
 49 68  1  0  0  0  0
 50 68  1  0  0  0  0
 51 70  1  0  0  0  0
 52 55  1  0  0  0  0
 52 70  1  0  0  0  0
 53 75  1  0  0  0  0
 54 69  1  0  0  0  0
 55 67  1  0  0  0  0
 56 64  1  0  0  0  0
 57 65  1  0  0  0  0
 58 65  1  0  0  0  0
 59 65  1  0  0  0  0
 60 77  1  0  0  0  0
 61 62  1  0  0  0  0
 62 85  1  0  0  0  0
 63 65  1  0  0  0  0
 63 76  1  0  0  0  0
 64 77  1  0  0  0  0
 66 67  1  0  0  0  0
M  CHG  1  77   1
M  ISO  4  39 100  62 101  74 100  85 101
M  END
> <Batch ID>
0022

> <Smiles>
CNC(C)C(=O)NC(C(=O)N1Cc2cc([101O:1][101CH2:1]CC(=O)Nc3cc([100NH:0][100C:0](=O)N4CCCC(n5nc(-c6ccc(Oc7ccc(F)cc7F)cc6)c(C(N)=O)c5N)C4)ccc3N3CCCC3)ccc2CC1C(=O)NC1CCCc2ccccc21)C(C)(C)C

> <Shape>
0.250

> <Color>
0.099

> <Negative vol penalty>
0.000

$$$$

  -OEChem-04042321143D

 83 91  0     1  0  0  0  0  0999 V2000
  -16.5120  -29.4392   23.2613 C   0  0  0  0  0  0  0  0  0  0  0  0
  -17.4340  -29.6728   22.2461 C   0  0  0  0  0  0  0  0  0  0  0  0
  -25.6052  -14.6940   20.6621 C   0  0  0  0  0  0  0  0  0  0  0  0
  -26.7893  -12.8061   21.5954 C   0  0  0  0  0  0  0  0  0  0  0  0
  -16.9550  -29.1011   24.5394 C   0  0  0  0  0  0  0  0  0  0  0  0
  -18.7996  -29.5696   22.5086 C   0  0  0  0  0  0  0  0  0  0  0  0
  -24.9594  -27.6799   19.3777 C   0  0  0  0  0  0  0  0  0  0  0  0
  -31.3895  -24.4592   20.3220 C   0  0  0  0  0  0  0  0  0  0  0  0
  -31.6069  -23.1663   20.7981 C   0  0  0  0  0  0  0  0  0  0  0  0
  -24.6995  -13.8251   20.0535 C   0  0  0  0  0  0  0  0  0  0  0  0
  -25.8835  -11.9372   20.9868 C   0  0  0  0  0  0  0  0  0  0  0  0
  -26.2446  -28.1686   19.1470 C   0  0  0  0  0  0  0  0  0  0  0  0
  -23.6713   -9.2351   19.9753 C   0  0  0  0  0  0  0  0  0  0  0  0
  -23.1708   -8.1802   20.7383 C   0  0  0  0  0  0  0  0  0  0  0  0
  -26.8917  -27.5006   21.3729 C   0  0  0  0  0  0  0  0  0  0  0  0
  -30.0281  -23.5720   18.5341 C   0  0  0  0  0  0  0  0  0  0  0  0
  -22.2433   -9.7598   22.3137 C   0  0  0  0  0  0  0  0  0  0  0  0
  -26.6502  -14.1844   21.4329 C   0  0  0  0  0  0  0  0  0  0  0  0
  -27.4865  -15.6526   23.3441 C   0  0  0  0  0  0  0  0  0  0  0  0
  -18.3264  -28.9843   24.8154 C   0  0  0  0  0  0  0  0  0  0  0  0
  -24.6271  -27.1068   20.6137 C   0  0  0  0  0  0  0  0  0  0  0  0
  -19.2613  -29.2310   23.7919 C   0  0  0  0  0  0  0  0  0  0  0  0
  -25.6023  -27.0031   21.6159 C   0  0  0  0  0  0  0  0  0  0  0  0
  -30.6000  -24.6621   19.1900 C   0  0  0  0  0  0  0  0  0  0  0  0
  -31.0350  -22.0762   20.1422 C   0  0  0  0  0  0  0  0  0  0  0  0
  -24.8386  -12.4467   20.2159 C   0  0  0  0  0  0  0  0  0  0  0  0
  -27.2102  -28.0816   20.1457 C   0  0  0  0  0  0  0  0  0  0  0  0
  -23.4579  -10.5524   20.3815 C   0  0  0  0  0  0  0  0  0  0  0  0
  -22.4567   -8.4425   21.9075 C   0  0  0  0  0  0  0  0  0  0  0  0
  -22.7439  -10.8147   21.5507 C   0  0  0  0  0  0  0  0  0  0  0  0
  -30.2455  -22.2790   19.0102 C   0  0  0  0  0  0  0  0  0  0  0  0
  -27.5865  -15.0814   22.0614 C   0  0  0  0  0  0  0  0  0  0  0  0
  -28.6179  -16.4217   23.4667 C   0  0  0  0  0  0  0  0  0  0  0  0
  -26.4625  -15.5015   24.3363 C   0  0  0  0  0  0  0  0  0  0  0  0
  -22.5546  -27.7988   22.9223 C   0  0  0  0  0  0  0  0  0  0  0  0
  -23.5802  -24.9786   24.1538 C   0  0  0  0  0  0  0  0  0  0  0  0
  -26.0406  -22.6206   24.3360 C   0  0  0  0  0  0  0  0  0  0  0  0
  -31.9156  -19.7631   19.8787 C   0  0  0  0  0  0  0  0  0  0  0  0
  -18.7586  -28.6628   26.2241 C   0  0  0  0  0  0  0  0  0  0  0  0
  -23.2438  -26.5602   20.8374 C   0  0  0  0  0  0  0  0  0  0  0  0
  -25.3019  -26.3783   22.9530 C   0  0  0  0  0  0  0  0  0  0  0  0
  -20.2120  -28.2073   26.3263 C   0  0  0  0  0  0  0  0  0  0  0  0
  -33.0319  -16.5302   21.2614 C   0  0  0  0  0  0  0  0  0  0  0  0
  -21.1190  -29.1311   25.5196 C   0  0  0  0  0  0  0  0  0  0  0  0
  -31.7191  -15.8607   21.6645 C   0  0  0  0  0  0  0  0  0  0  0  0
  -32.8461  -17.4760   20.0786 C   0  0  0  0  0  0  0  0  0  0  0  0
  -30.4760  -17.8367   20.6972 C   0  0  0  0  0  0  0  0  0  0  0  0
  -20.7502  -29.1046   24.0314 C   0  0  1  0  0  0  0  0  0  0  0  0
  -22.8715  -26.4621   22.3136 C   0  0  1  0  0  0  0  0  0  0  0  0
  -30.6221  -16.9101   21.9138 C   0  0  1  0  0  0  0  0  0  0  0  0
  -26.6068  -20.4468   25.4547 C   0  0  0  0  0  0  0  0  0  0  0  0
  -24.1768  -26.4713   26.7472 C   0  0  0  0  0  0  0  0  0  0  0  0
  -25.5816  -24.5262   27.4620 C   0  0  0  0  0  0  0  0  0  0  0  0
  -23.1399  -24.2166   27.0562 C   0  0  0  0  0  0  0  0  0  0  0  0
  -31.0844  -20.5145   22.0955 C   0  0  0  0  0  0  0  0  0  0  0  0
  -26.2360  -21.2045   21.7446 C   0  0  0  0  0  0  0  0  0  0  0  0
  -30.4643  -28.3849   18.6070 C   0  0  0  0  0  0  0  0  0  0  0  0
  -30.9377  -27.1302   19.3310 C   0  0  0  0  0  0  0  0  0  0  0  0
  -28.9463  -28.5195   18.5804 C   0  0  0  0  0  0  0  0  0  1  0  0
  -24.6896  -24.5605   25.0884 C   0  0  1  0  0  0  0  0  0  0  0  0
  -25.9952  -21.1070   24.2288 C   0  0  2  0  0  0  0  0  0  0  0  0
  -24.4024  -24.9572   26.5640 C   0  0  0  0  0  0  0  0  0  0  0  0
  -28.6938  -15.4558   21.4151 N   0  0  0  0  0  0  0  0  0  0  0  0
  -29.3000  -16.2705   22.2953 N   0  0  0  0  0  0  0  0  0  0  0  0
  -23.9332  -25.8641   23.1257 N   0  0  0  0  0  0  0  0  0  0  0  0
  -31.7672  -18.4340   20.3232 N   0  0  0  0  0  0  0  0  0  0  0  0
  -29.0858  -17.2058   24.4610 N   0  0  0  0  0  0  0  0  0  0  0  0
  -25.3691  -14.6738   24.0472 N   0  0  0  0  0  0  0  0  0  0  0  0
  -30.3852  -25.9471   18.7168 N   0  0  0  0  0  0  0  0  0  0  0  0
  -21.2641  -27.9056   23.4047 N   0  0  0  0  0  0  0  0  0  0  0  0
  -24.8805  -23.1291   24.8808 N   0  0  0  0  0  0  0  0  0  0  0  0
  -31.2808  -20.7516   20.6616 N   0  0  0  0  0  0  0  0  0  0  0  0
  -26.7459  -20.6502   23.0252 N   0  3  0  0  0  0  0  0  0  0  0  0
  -26.5075  -16.0962   25.4398 O   0  0  0  0  0  0  0  0  0  0  0  0
  -23.4174  -28.6684   22.9534 O   0  0  0  0  0  0  0  0  0  0  0  0
  -22.4439  -24.5302   24.3252 O   0  0  0  0  0  0  0  0  0  0  0  0
  -27.0099  -23.2850   23.9762 O   0  0  0  0  0  0  0  0  0  0  0  0
  -32.5869  -20.0457   18.8790 O   0  0  0  0  0  0  0  0  0  0  0  0
  -23.9548  -11.5986   19.6225 O   0  0  0  0  0  0  0  0  0  0  0  0
  -28.4652  -28.5584   19.9233 O   0  0  0  0  0  0  0  0  0  1  0  0
  -21.9748   -7.4294   22.6393 F   0  0  0  0  0  0  0  0  0  0  0  0
  -22.5346  -12.0781   21.9453 F   0  0  0  0  0  0  0  0  0  0  0  0
  -29.5187  -20.9572   18.1675 Cl  0  0  0  0  0  0  0  0  0  0  0  0
  1  2  1  0  0  0  0
  1  5  2  0  0  0  0
  2  6  2  0  0  0  0
  3 10  2  0  0  0  0
  3 18  1  0  0  0  0
  4 11  1  0  0  0  0
  4 18  2  0  0  0  0
  5 20  1  0  0  0  0
  6 22  1  0  0  0  0
  7 12  2  0  0  0  0
  7 21  1  0  0  0  0
  8  9  2  0  0  0  0
  8 24  1  0  0  0  0
  9 25  1  0  0  0  0
 10 26  1  0  0  0  0
 11 26  2  0  0  0  0
 12 27  1  0  0  0  0
 13 14  2  0  0  0  0
 13 28  1  0  0  0  0
 14 29  1  0  0  0  0
 15 23  1  0  0  0  0
 15 27  2  0  0  0  0
 16 24  2  0  0  0  0
 16 31  1  0  0  0  0
 17 29  2  0  0  0  0
 17 30  1  0  0  0  0
 18 32  1  0  0  0  0
 19 32  1  0  0  0  0
 19 33  2  0  0  0  0
 19 34  1  0  0  0  0
 20 22  2  0  0  0  0
 20 39  1  0  0  0  0
 21 23  2  0  0  0  0
 21 40  1  0  0  0  0
 22 48  1  0  0  0  0
 23 41  1  0  0  0  0
 24 69  1  0  0  0  0
 25 31  2  0  0  0  0
 25 72  1  0  0  0  0
 26 79  1  0  0  0  0
 27 80  1  0  0  0  0
 28 30  2  0  0  0  0
 28 79  1  0  0  0  0
 29 81  1  0  0  0  0
 30 82  1  0  0  0  0
 31 83  1  0  0  0  0
 32 63  2  0  0  0  0
 33 64  1  0  0  0  0
 33 67  1  0  0  0  0
 34 68  1  0  0  0  0
 34 74  2  0  0  0  0
 35 49  1  0  0  0  0
 35 70  1  0  0  0  0
 35 75  2  0  0  0  0
 36 60  1  0  0  0  0
 36 65  1  0  0  0  0
 36 76  2  0  0  0  0
 37 61  1  0  0  0  0
 37 71  1  0  0  0  0
 37 77  2  0  0  0  0
 38 66  1  0  0  0  0
 38 72  1  0  0  0  0
 38 78  2  0  0  0  0
 39 42  1  0  0  0  0
 40 49  1  0  0  0  0
 41 65  1  0  0  0  0
 42 44  1  0  0  0  0
 43 45  1  0  0  0  0
 43 46  1  0  0  0  0
 44 48  1  0  0  0  0
 45 50  1  0  0  0  0
 46 66  1  0  0  0  0
 47 50  1  0  0  0  0
 47 66  1  0  0  0  0
 48 70  1  0  0  0  0
 49 65  1  0  0  0  0
 50 64  1  0  0  0  0
 51 61  1  0  0  0  0
 52 62  1  0  0  0  0
 53 62  1  0  0  0  0
 54 62  1  0  0  0  0
 55 72  1  0  0  0  0
 56 73  1  0  0  0  0
 57 58  1  0  0  0  0
 57 59  1  0  0  0  0
 58 69  1  0  0  0  0
 59 80  1  0  0  0  0
 60 62  1  0  0  0  0
 60 71  1  0  0  0  0
 61 73  1  0  0  0  0
 63 64  1  0  0  0  0
M  CHG  1  73   1
M  ISO  4  38 100  59 101  72 100  80 101
M  END
> <Batch ID>
0022

> <Smiles>
CNC(C)C(=O)NC(C(=O)N1Cc2cc([101O:1][101CH2:1]CCNc3ccc([100N:0](C)[100C:0](=O)N4CCCC(n5nc(-c6ccc(Oc7ccc(F)cc7F)cc6)c(C(N)=O)c5N)C4)c(Cl)c3)ccc2CC1C(=O)NC1CCCc2ccccc21)C(C)(C)C

> <Shape>
0.217

> <Color>
0.078

> <Negative vol penalty>
0.000

$$$$

  -OEChem-04042321143D

 88 97  0     1  0  0  0  0  0999 V2000
  -22.8579  -36.6262   26.4522 C   0  0  0  0  0  0  0  0  0  0  0  0
  -22.6169  -36.2780   25.1271 C   0  0  0  0  0  0  0  0  0  0  0  0
  -23.4621   -9.6426   19.9123 C   0  0  0  0  0  0  0  0  0  0  0  0
  -24.5005   -9.1164   22.0294 C   0  0  0  0  0  0  0  0  0  0  0  0
  -24.1214  -36.4242   27.0061 C   0  0  0  0  0  0  0  0  0  0  0  0
  -23.6396  -35.7286   24.3546 C   0  0  0  0  0  0  0  0  0  0  0  0
  -22.5420  -29.3311   22.6012 C   0  0  0  0  0  0  0  0  0  0  0  0
  -22.3312   -8.9169   20.2866 C   0  0  0  0  0  0  0  0  0  0  0  0
  -23.3696   -8.3908   22.4037 C   0  0  0  0  0  0  0  0  0  0  0  0
  -21.9985  -28.2916   21.8461 C   0  0  0  0  0  0  0  0  0  0  0  0
  -22.0484   -5.3410   21.7836 C   0  0  0  0  0  0  0  0  0  0  0  0
  -22.2455   -4.0917   22.3717 C   0  0  0  0  0  0  0  0  0  0  0  0
  -23.6075  -28.7114   20.0904 C   0  0  0  0  0  0  0  0  0  0  0  0
  -23.2379  -21.4815   18.2871 C   0  0  0  0  0  0  0  0  0  0  0  0
  -25.3707  -21.1110   20.0468 C   0  0  0  0  0  0  0  0  0  0  0  0
  -21.0995   -4.8471   24.3601 C   0  0  0  0  0  0  0  0  0  0  0  0
  -24.5467   -9.7423   20.7837 C   0  0  0  0  0  0  0  0  0  0  0  0
  -26.5500  -10.2527   19.2890 C   0  0  0  0  0  0  0  0  0  0  0  0
  -25.1574  -35.8631   26.2429 C   0  0  0  0  0  0  0  0  0  0  0  0
  -23.6315  -30.0556   22.1098 C   0  0  0  0  0  0  0  0  0  0  0  0
  -24.9185  -35.5202   24.8984 C   0  0  0  0  0  0  0  0  0  0  0  0
  -24.1641  -29.7456   20.8476 C   0  0  0  0  0  0  0  0  0  0  0  0
  -23.8951  -22.5861   18.8288 C   0  0  0  0  0  0  0  0  0  0  0  0
  -24.7135  -20.0063   19.5051 C   0  0  0  0  0  0  0  0  0  0  0  0
  -22.2849   -8.2910   21.5323 C   0  0  0  0  0  0  0  0  0  0  0  0
  -22.5298  -27.9827   20.5937 C   0  0  0  0  0  0  0  0  0  0  0  0
  -21.3770   -6.3435   22.4837 C   0  0  0  0  0  0  0  0  0  0  0  0
  -21.7710   -3.8447   23.6600 C   0  0  0  0  0  0  0  0  0  0  0  0
  -23.6470  -20.1915   18.6254 C   0  0  0  0  0  0  0  0  0  0  0  0
  -20.9025   -6.0965   23.7719 C   0  0  0  0  0  0  0  0  0  0  0  0
  -24.9615  -22.4009   19.7085 C   0  0  0  0  0  0  0  0  0  0  0  0
  -25.7154  -10.4913   20.3973 C   0  0  0  0  0  0  0  0  0  0  0  0
  -27.5095  -11.2327   19.3645 C   0  0  0  0  0  0  0  0  0  0  0  0
  -22.9807  -24.8118   19.4345 C   0  0  0  0  0  0  0  0  0  0  0  0
  -26.4656   -9.2362   18.2814 C   0  0  0  0  0  0  0  0  0  0  0  0
  -26.1120  -32.8102   22.6883 C   0  0  0  0  0  0  0  0  0  0  0  0
  -27.5006  -16.6681   21.9272 C   0  0  0  0  0  0  0  0  0  0  0  0
  -27.6385  -30.4989   21.3699 C   0  0  0  0  0  0  0  0  0  0  0  0
  -29.0327  -27.5763   20.2969 C   0  0  0  0  0  0  0  0  0  0  0  0
  -26.5196  -35.7076   26.8713 C   0  0  0  0  0  0  0  0  0  0  0  0
  -24.2098  -31.2234   22.8619 C   0  0  0  0  0  0  0  0  0  0  0  0
  -25.3141  -30.5744   20.3442 C   0  0  0  0  0  0  0  0  0  0  0  0
  -27.4450  -34.7734   26.0958 C   0  0  0  0  0  0  0  0  0  0  0  0
  -23.2756  -25.6621   16.6451 C   0  0  0  0  0  0  0  0  0  0  0  0
  -29.8137  -13.9938   22.5085 C   0  0  0  0  0  0  0  0  0  0  0  0
  -27.4048  -35.0979   24.6059 C   0  0  0  0  0  0  0  0  0  0  0  0
  -22.3654  -26.4290   17.5768 C   0  0  0  0  0  0  0  0  0  0  0  0
  -29.0889  -12.7663   21.9581 C   0  0  0  0  0  0  0  0  0  0  0  0
  -23.2735  -24.1885   17.0194 C   0  0  0  0  0  0  0  0  0  0  0  0
  -28.8383  -14.9805   23.1426 C   0  0  0  0  0  0  0  0  0  0  0  0
  -27.0063  -14.1847   21.6823 C   0  0  0  0  0  0  0  0  0  0  0  0
  -25.9953  -34.8987   24.0357 C   0  0  1  0  0  0  0  0  0  0  0  0
  -22.8741  -26.2677   18.9930 C   0  0  1  0  0  0  0  0  0  1  0  0
  -25.7332  -31.3584   22.6882 C   0  0  1  0  0  0  0  0  0  0  0  0
  -27.9519  -13.1766   21.0056 C   0  0  2  0  0  0  0  0  0  0  0  0
  -31.2326  -26.5736   19.6241 C   0  0  0  0  0  0  0  0  0  0  0  0
  -27.4753  -31.9478   18.6907 C   0  0  0  0  0  0  0  0  0  0  0  0
  -29.0649  -30.2533   17.7580 C   0  0  0  0  0  0  0  0  0  0  0  0
  -29.7854  -31.7409   19.6263 C   0  0  0  0  0  0  0  0  0  0  0  0
  -28.9192  -25.5762   22.4755 C   0  0  0  0  0  0  0  0  0  0  0  0
  -26.3786  -16.9470   20.9591 C   0  0  0  0  0  0  0  0  0  0  0  0
  -26.2123  -18.4436   20.7449 C   0  0  0  0  0  0  0  0  0  0  0  0
  -28.1371  -29.8804   20.0885 C   0  0  1  0  0  0  0  0  0  0  0  0
  -30.2575  -26.8121   20.7665 C   0  0  2  0  0  0  0  0  0  0  0  0
  -28.5912  -30.9474   19.0528 C   0  0  0  0  0  0  0  0  0  0  0  0
  -26.1101  -11.5404   21.1237 N   0  0  0  0  0  0  0  0  0  0  0  0
  -27.2034  -11.9697   20.4705 N   0  0  0  0  0  0  0  0  0  0  0  0
  -23.4442  -23.9102   18.4568 N   0  0  0  0  0  0  0  0  0  0  0  0
  -26.2754  -30.8130   21.4321 N   0  0  0  0  0  0  0  0  0  0  0  0
  -27.7611  -15.3280   22.2141 N   0  0  0  0  0  0  0  0  0  0  0  0
  -28.5767  -11.5271   18.5920 N   0  0  0  0  0  0  0  0  0  0  0  0
  -27.1290   -8.0213   18.5007 N   0  0  0  0  0  0  0  0  0  0  0  0
  -25.1281  -18.7026   19.8491 N   0  0  0  0  0  0  0  0  0  0  0  0
  -25.7285  -33.4916   23.8277 N   0  0  0  0  0  0  0  0  0  0  0  0
  -29.1815  -28.9360   20.4704 N   0  0  0  0  0  0  0  0  0  0  0  0
  -29.8595  -25.4905   21.3285 N   0  3  0  0  0  0  0  0  0  0  0  0
  -22.7081  -24.5166   20.6009 O   0  0  0  0  0  0  0  0  0  0  0  0
  -25.8344   -9.4066   17.2108 O   0  0  0  0  0  0  0  0  0  0  0  0
  -26.7098  -33.2788   21.7267 O   0  0  0  0  0  0  0  0  0  0  0  0
  -28.1277  -17.6143   22.4108 O   0  0  0  0  0  0  0  0  0  0  0  0
  -28.4348  -30.7044   22.2902 O   0  0  0  0  0  0  0  0  0  0  0  0
  -28.0445  -27.0226   19.8202 O   0  0  0  0  0  0  0  0  0  0  0  0
  -21.1815   -7.5830   21.8980 O   0  0  0  0  0  0  0  0  0  0  0  0
  -21.9972  -26.9637   19.8638 O   0  0  0  0  0  0  0  0  0  1  0  0
  -21.9589   -2.6445   24.2241 F   0  0  0  0  0  0  0  0  0  0  0  0
  -23.0075  -19.1370   18.0998 F   0  0  0  0  0  0  0  0  0  0  0  0
  -20.2557   -7.0552   24.4489 F   0  0  0  0  0  0  0  0  0  0  0  0
  -25.8029  -23.7410   20.4026 Cl  0  0  0  0  0  0  0  0  0  0  0  0
  1  2  1  0  0  0  0
  1  5  2  0  0  0  0
  2  6  2  0  0  0  0
  3  8  2  0  0  0  0
  3 17  1  0  0  0  0
  4  9  1  0  0  0  0
  4 17  2  0  0  0  0
  5 19  1  0  0  0  0
  6 21  1  0  0  0  0
  7 10  2  0  0  0  0
  7 20  1  0  0  0  0
  8 25  1  0  0  0  0
  9 25  2  0  0  0  0
 10 26  1  0  0  0  0
 11 12  2  0  0  0  0
 11 27  1  0  0  0  0
 12 28  1  0  0  0  0
 13 22  1  0  0  0  0
 13 26  2  0  0  0  0
 14 23  1  0  0  0  0
 14 29  2  0  0  0  0
 15 24  2  0  0  0  0
 15 31  1  0  0  0  0
 16 28  2  0  0  0  0
 16 30  1  0  0  0  0
 17 32  1  0  0  0  0
 18 32  1  0  0  0  0
 18 33  2  0  0  0  0
 18 35  1  0  0  0  0
 19 21  2  0  0  0  0
 19 40  1  0  0  0  0
 20 22  2  0  0  0  0
 20 41  1  0  0  0  0
 21 52  1  0  0  0  0
 22 42  1  0  0  0  0
 23 31  2  0  0  0  0
 23 68  1  0  0  0  0
 24 29  1  0  0  0  0
 24 73  1  0  0  0  0
 25 83  1  0  0  0  0
 26 84  1  0  0  0  0
 27 30  2  0  0  0  0
 27 83  1  0  0  0  0
 28 85  1  0  0  0  0
 29 86  1  0  0  0  0
 30 87  1  0  0  0  0
 31 88  1  0  0  0  0
 32 66  2  0  0  0  0
 33 67  1  0  0  0  0
 33 71  1  0  0  0  0
 34 53  1  0  0  0  0
 34 68  1  0  0  0  0
 34 77  2  0  0  0  0
 35 72  1  0  0  0  0
 35 78  2  0  0  0  0
 36 54  1  0  0  0  0
 36 74  1  0  0  0  0
 36 79  2  0  0  0  0
 37 61  1  0  0  0  0
 37 70  1  0  0  0  0
 37 80  2  0  0  0  0
 38 63  1  0  0  0  0
 38 69  1  0  0  0  0
 38 81  2  0  0  0  0
 39 64  1  0  0  0  0
 39 75  1  0  0  0  0
 39 82  2  0  0  0  0
 40 43  1  0  0  0  0
 41 54  1  0  0  0  0
 42 69  1  0  0  0  0
 43 46  1  0  0  0  0
 44 47  1  0  0  0  0
 44 49  1  0  0  0  0
 45 48  1  0  0  0  0
 45 50  1  0  0  0  0
 46 52  1  0  0  0  0
 47 53  1  0  0  0  0
 48 55  1  0  0  0  0
 49 68  1  0  0  0  0
 50 70  1  0  0  0  0
 51 55  1  0  0  0  0
 51 70  1  0  0  0  0
 52 74  1  0  0  0  0
 53 84  1  0  0  0  0
 54 69  1  0  0  0  0
 55 67  1  0  0  0  0
 56 64  1  0  0  0  0
 57 65  1  0  0  0  0
 58 65  1  0  0  0  0
 59 65  1  0  0  0  0
 60 76  1  0  0  0  0
 61 62  1  0  0  0  0
 62 73  1  0  0  0  0
 63 65  1  0  0  0  0
 63 75  1  0  0  0  0
 64 76  1  0  0  0  0
 66 67  1  0  0  0  0
M  CHG  1  76   1
M  ISO  4  37 100  53 101  61 100  84 101
M  END
> <Batch ID>
0022

> <Smiles>
CNC(C)C(=O)NC(C(=O)N1Cc2cc([101O:1][101CH:1]3CCCN(c4cc(F)c(NC[100CH2:0][100C:0](=O)N5CCCC(n6nc(-c7ccc(Oc8ccc(F)cc8F)cc7)c(C(N)=O)c6N)C5)cc4Cl)C3=O)ccc2CC1C(=O)NC1CCCc2ccccc21)C(C)(C)C

> <Shape>
0.259

> <Color>
0.093

> <Negative vol penalty>
0.000

$$$$

  -OEChem-04042321143D

 85 94  0     1  0  0  0  0  0999 V2000
  -26.1258  -38.6142   20.1570 C   0  0  0  0  0  0  0  0  0  0  0  0
  -26.8068  -37.5567   19.5625 C   0  0  0  0  0  0  0  0  0  0  0  0
  -24.1049   -9.6437   22.0502 C   0  0  0  0  0  0  0  0  0  0  0  0
  -24.7725  -11.1697   23.8003 C   0  0  0  0  0  0  0  0  0  0  0  0
  -25.4853  -38.4288   21.3814 C   0  0  0  0  0  0  0  0  0  0  0  0
  -26.8486  -36.3135   20.1926 C   0  0  0  0  0  0  0  0  0  0  0  0
  -27.0354  -29.3073   18.7114 C   0  0  0  0  0  0  0  0  0  0  0  0
  -30.7583  -20.1021   19.1574 C   0  0  0  0  0  0  0  0  0  0  0  0
  -30.4655  -18.7470   19.0039 C   0  0  0  0  0  0  0  0  0  0  0  0
  -23.7561   -8.6945   23.0108 C   0  0  0  0  0  0  0  0  0  0  0  0
  -24.4237  -10.2204   24.7610 C   0  0  0  0  0  0  0  0  0  0  0  0
  -27.7715  -28.1621   19.0123 C   0  0  0  0  0  0  0  0  0  0  0  0
  -21.1764   -8.1152   25.1185 C   0  0  0  0  0  0  0  0  0  0  0  0
  -19.9616   -7.4485   24.9598 C   0  0  0  0  0  0  0  0  0  0  0  0
  -26.5615  -27.9368   21.0870 C   0  0  0  0  0  0  0  0  0  0  0  0
  -28.4175  -20.5650   19.5364 C   0  0  0  0  0  0  0  0  0  0  0  0
  -21.1335   -5.3383   24.8552 C   0  0  0  0  0  0  0  0  0  0  0  0
  -24.6132  -10.8813   22.4449 C   0  0  0  0  0  0  0  0  0  0  0  0
  -24.1460  -12.8577   20.9011 C   0  0  0  0  0  0  0  0  0  0  0  0
  -25.5110  -37.1800   22.0222 C   0  0  0  0  0  0  0  0  0  0  0  0
  -26.0629  -29.7828   19.6027 C   0  0  0  0  0  0  0  0  0  0  0  0
  -26.2089  -36.1116   21.4274 C   0  0  0  0  0  0  0  0  0  0  0  0
  -25.8127  -29.0868   20.7939 C   0  0  0  0  0  0  0  0  0  0  0  0
  -29.7343  -21.0111   19.4238 C   0  0  0  0  0  0  0  0  0  0  0  0
  -29.1488  -18.3009   19.1165 C   0  0  0  0  0  0  0  0  0  0  0  0
  -23.9155   -8.9829   24.3662 C   0  0  0  0  0  0  0  0  0  0  0  0
  -27.5366  -27.4783   20.2015 C   0  0  0  0  0  0  0  0  0  0  0  0
  -22.3698   -7.3936   25.1455 C   0  0  0  0  0  0  0  0  0  0  0  0
  -19.9401   -6.0600   24.8282 C   0  0  0  0  0  0  0  0  0  0  0  0
  -22.3483   -6.0051   25.0139 C   0  0  0  0  0  0  0  0  0  0  0  0
  -28.1247  -19.2098   19.3828 C   0  0  0  0  0  0  0  0  0  0  0  0
  -24.9742  -11.8621   21.4529 C   0  0  0  0  0  0  0  0  0  0  0  0
  -24.9548  -13.5237   20.0130 C   0  0  0  0  0  0  0  0  0  0  0  0
  -29.1158  -23.4325   19.8518 C   0  0  0  0  0  0  0  0  0  0  0  0
  -22.7687  -13.1540   21.1674 C   0  0  0  0  0  0  0  0  0  0  0  0
  -25.6648  -32.4604   21.2688 C   0  0  0  0  0  0  0  0  0  0  0  0
  -22.8056  -31.1165   22.0046 C   0  0  0  0  0  0  0  0  0  0  0  0
  -20.9347  -28.2806   22.3276 C   0  0  0  0  0  0  0  0  0  0  0  0
  -29.8093  -15.9077   18.6889 C   0  0  0  0  0  0  0  0  0  0  0  0
  -24.8438  -37.0406   23.3676 C   0  0  0  0  0  0  0  0  0  0  0  0
  -25.2589  -31.0045   19.2510 C   0  0  0  0  0  0  0  0  0  0  0  0
  -24.7656  -29.5446   21.7750 C   0  0  0  0  0  0  0  0  0  0  0  0
  -24.6190  -35.5906   23.7887 C   0  0  0  0  0  0  0  0  0  0  0  0
  -29.5640  -12.3817   18.2600 C   0  0  0  0  0  0  0  0  0  0  0  0
  -25.8801  -34.7651   23.5545 C   0  0  0  0  0  0  0  0  0  0  0  0
  -28.2799  -12.0141   19.0070 C   0  0  0  0  0  0  0  0  0  0  0  0
  -31.2295  -24.3966   19.3352 C   0  0  0  0  0  0  0  0  0  0  0  0
  -30.3335  -13.4949   18.9687 C   0  0  0  0  0  0  0  0  0  0  0  0
  -31.3938  -22.9026   19.5300 C   0  0  0  0  0  0  0  0  0  0  0  0
  -28.2651  -14.3328   20.0121 C   0  0  0  0  0  0  0  0  0  0  0  0
  -26.2558  -34.7414   22.0679 C   0  0  1  0  0  0  0  0  0  0  0  0
  -29.9279  -24.7001   20.0629 C   0  0  1  0  0  0  0  0  0  0  0  0
  -24.6509  -31.6910   20.4702 C   0  0  1  0  0  0  0  0  0  0  0  0
  -27.4228  -13.2607   19.3017 C   0  0  2  0  0  0  0  0  0  0  0  0
  -18.6424  -27.4969   22.9823 C   0  0  0  0  0  0  0  0  0  0  0  0
  -23.4993  -31.5506   24.9440 C   0  0  0  0  0  0  0  0  0  0  0  0
  -21.6810  -29.9359   25.5396 C   0  0  0  0  0  0  0  0  0  0  0  0
  -21.1236  -32.0550   24.3473 C   0  0  0  0  0  0  0  0  0  0  0  0
  -20.4395  -27.1218   19.6498 C   0  0  0  0  0  0  0  0  0  0  0  0
  -29.2316  -25.9446   19.5452 C   0  0  0  0  0  0  0  0  0  1  0  0
  -22.3032  -30.2020   23.0956 C   0  0  1  0  0  0  0  0  0  0  0  0
  -19.5417  -27.9314   21.8355 C   0  0  2  0  0  0  0  0  0  0  0  0
  -22.1730  -30.9281   24.4643 C   0  0  0  0  0  0  0  0  0  0  0  0
  -26.2140  -11.8894   20.9569 N   0  0  0  0  0  0  0  0  0  0  0  0
  -26.1708  -12.9102   20.0839 N   0  0  0  0  0  0  0  0  0  0  0  0
  -30.0345  -22.3974   19.5816 N   0  0  0  0  0  0  0  0  0  0  0  0
  -24.0101  -30.7478   21.3890 N   0  0  0  0  0  0  0  0  0  0  0  0
  -29.4592  -14.6445   19.2110 N   0  0  0  0  0  0  0  0  0  0  0  0
  -24.7373  -14.5684   19.1861 N   0  0  0  0  0  0  0  0  0  0  0  0
  -22.0868  -12.3713   22.1091 N   0  0  0  0  0  0  0  0  0  0  0  0
  -28.8857  -16.9179   18.9555 N   0  0  0  0  0  0  0  0  0  0  0  0
  -25.4082  -33.8159   21.3471 N   0  0  0  0  0  0  0  0  0  0  0  0
  -21.0564  -29.6261   22.6036 N   0  0  0  0  0  0  0  0  0  0  0  0
  -19.6062  -26.8219   20.8426 N   0  3  0  0  0  0  0  0  0  0  0  0
  -27.9003  -23.3879   19.9748 O   0  0  0  0  0  0  0  0  0  0  0  0
  -22.1561  -14.0750   20.5756 O   0  0  0  0  0  0  0  0  0  0  0  0
  -26.6091  -31.8678   21.7777 O   0  0  0  0  0  0  0  0  0  0  0  0
  -22.1496  -32.1171   21.7045 O   0  0  0  0  0  0  0  0  0  0  0  0
  -21.8246  -27.4430   22.4580 O   0  0  0  0  0  0  0  0  0  0  0  0
  -30.8382  -16.0747   18.0290 O   0  0  0  0  0  0  0  0  0  0  0  0
  -23.5750   -8.0569   25.3039 O   0  0  0  0  0  0  0  0  0  0  0  0
  -28.2540  -26.3606   20.4980 O   0  0  0  0  0  0  0  0  0  1  0  0
  -18.7733   -5.4197   24.6773 F   0  0  0  0  0  0  0  0  0  0  0  0
  -23.4914   -5.3063   25.0402 F   0  0  0  0  0  0  0  0  0  0  0  0
  -26.4808  -18.6994   19.5303 Cl  0  0  0  0  0  0  0  0  0  0  0  0
  1  2  1  0  0  0  0
  1  5  2  0  0  0  0
  2  6  2  0  0  0  0
  3 10  2  0  0  0  0
  3 18  1  0  0  0  0
  4 11  1  0  0  0  0
  4 18  2  0  0  0  0
  5 20  1  0  0  0  0
  6 22  1  0  0  0  0
  7 12  2  0  0  0  0
  7 21  1  0  0  0  0
  8  9  2  0  0  0  0
  8 24  1  0  0  0  0
  9 25  1  0  0  0  0
 10 26  1  0  0  0  0
 11 26  2  0  0  0  0
 12 27  1  0  0  0  0
 13 14  2  0  0  0  0
 13 28  1  0  0  0  0
 14 29  1  0  0  0  0
 15 23  1  0  0  0  0
 15 27  2  0  0  0  0
 16 24  2  0  0  0  0
 16 31  1  0  0  0  0
 17 29  2  0  0  0  0
 17 30  1  0  0  0  0
 18 32  1  0  0  0  0
 19 32  1  0  0  0  0
 19 33  2  0  0  0  0
 19 35  1  0  0  0  0
 20 22  2  0  0  0  0
 20 40  1  0  0  0  0
 21 23  2  0  0  0  0
 21 41  1  0  0  0  0
 22 51  1  0  0  0  0
 23 42  1  0  0  0  0
 24 66  1  0  0  0  0
 25 31  2  0  0  0  0
 25 71  1  0  0  0  0
 26 81  1  0  0  0  0
 27 82  1  0  0  0  0
 28 30  2  0  0  0  0
 28 81  1  0  0  0  0
 29 83  1  0  0  0  0
 30 84  1  0  0  0  0
 31 85  1  0  0  0  0
 32 64  2  0  0  0  0
 33 65  1  0  0  0  0
 33 69  1  0  0  0  0
 34 52  1  0  0  0  0
 34 66  1  0  0  0  0
 34 75  2  0  0  0  0
 35 70  1  0  0  0  0
 35 76  2  0  0  0  0
 36 53  1  0  0  0  0
 36 72  1  0  0  0  0
 36 77  2  0  0  0  0
 37 61  1  0  0  0  0
 37 67  1  0  0  0  0
 37 78  2  0  0  0  0
 38 62  1  0  0  0  0
 38 73  1  0  0  0  0
 38 79  2  0  0  0  0
 39 68  1  0  0  0  0
 39 71  1  0  0  0  0
 39 80  2  0  0  0  0
 40 43  1  0  0  0  0
 41 53  1  0  0  0  0
 42 67  1  0  0  0  0
 43 45  1  0  0  0  0
 44 46  1  0  0  0  0
 44 48  1  0  0  0  0
 45 51  1  0  0  0  0
 46 54  1  0  0  0  0
 47 49  1  0  0  0  0
 47 52  1  0  0  0  0
 48 68  1  0  0  0  0
 49 66  1  0  0  0  0
 50 54  1  0  0  0  0
 50 68  1  0  0  0  0
 51 72  1  0  0  0  0
 52 60  1  0  0  0  0
 53 67  1  0  0  0  0
 54 65  1  0  0  0  0
 55 62  1  0  0  0  0
 56 63  1  0  0  0  0
 57 63  1  0  0  0  0
 58 63  1  0  0  0  0
 59 74  1  0  0  0  0
 60 82  1  0  0  0  0
 61 63  1  0  0  0  0
 61 73  1  0  0  0  0
 62 74  1  0  0  0  0
 64 65  1  0  0  0  0
M  CHG  1  74   1
M  ISO  4  39 100  60 101  71 100  82 101
M  END
> <Batch ID>
0022

> <Smiles>
CNC(C)C(=O)NC(C(=O)N1Cc2cc([101O:1][101CH2:1]C3CCN(c4ccc([100NH:0][100C:0](=O)N5CCCC(n6nc(-c7ccc(Oc8ccc(F)cc8F)cc7)c(C(N)=O)c6N)C5)c(Cl)c4)C3=O)ccc2CC1C(=O)NC1CCCc2ccccc21)C(C)(C)C

> <Shape>
0.341

> <Color>
0.138

> <Negative vol penalty>
0.000

$$$$

  -OEChem-04042321143D

 81 89  0     1  0  0  0  0  0999 V2000
  -25.2681  -31.6434   24.3631 C   0  0  0  0  0  0  0  0  0  0  0  0
  -26.0192  -30.4975   24.6040 C   0  0  0  0  0  0  0  0  0  0  0  0
  -23.3378   -9.8631   21.0434 C   0  0  0  0  0  0  0  0  0  0  0  0
  -23.9482  -10.6260   23.2531 C   0  0  0  0  0  0  0  0  0  0  0  0
  -24.6097  -31.8005   23.1442 C   0  0  0  0  0  0  0  0  0  0  0  0
  -26.1116  -29.5074   23.6264 C   0  0  0  0  0  0  0  0  0  0  0  0
  -30.9557  -25.9571   22.4283 C   0  0  0  0  0  0  0  0  0  0  0  0
  -30.9308  -16.2650   23.9291 C   0  0  0  0  0  0  0  0  0  0  0  0
  -32.9439  -16.2358   22.5934 C   0  0  0  0  0  0  0  0  0  0  0  0
  -30.9434  -17.6598   23.9175 C   0  0  0  0  0  0  0  0  0  0  0  0
  -32.9564  -17.6306   22.5819 C   0  0  0  0  0  0  0  0  0  0  0  0
  -22.6435   -8.7917   21.6051 C   0  0  0  0  0  0  0  0  0  0  0  0
  -23.2539   -9.5545   23.8148 C   0  0  0  0  0  0  0  0  0  0  0  0
  -31.2773  -24.6524   22.8001 C   0  0  0  0  0  0  0  0  0  0  0  0
  -19.6564   -8.2686   23.1008 C   0  0  0  0  0  0  0  0  0  0  0  0
  -18.3877   -7.9827   22.5968 C   0  0  0  0  0  0  0  0  0  0  0  0
  -30.3960  -23.8446   20.7049 C   0  0  0  0  0  0  0  0  0  0  0  0
  -19.1358   -5.7735   21.9668 C   0  0  0  0  0  0  0  0  0  0  0  0
  -23.9902  -10.7803   21.8674 C   0  0  0  0  0  0  0  0  0  0  0  0
  -24.2008  -13.1652   20.9868 C   0  0  0  0  0  0  0  0  0  0  0  0
  -24.7018  -30.8162   22.1475 C   0  0  0  0  0  0  0  0  0  0  0  0
  -30.3408  -26.2146   21.1946 C   0  0  0  0  0  0  0  0  0  0  0  0
  -25.4527  -29.6508   22.3935 C   0  0  0  0  0  0  0  0  0  0  0  0
  -30.0699  -25.1536   20.3187 C   0  0  0  0  0  0  0  0  0  0  0  0
  -31.9311  -15.5530   23.2670 C   0  0  0  0  0  0  0  0  0  0  0  0
  -31.9562  -18.3425   23.2439 C   0  0  0  0  0  0  0  0  0  0  0  0
  -22.6015   -8.6374   22.9908 C   0  0  0  0  0  0  0  0  0  0  0  0
  -30.9948  -23.5956   21.9396 C   0  0  0  0  0  0  0  0  0  0  0  0
  -20.6649   -7.3070   23.0377 C   0  0  0  0  0  0  0  0  0  0  0  0
  -18.1273   -6.7352   22.0298 C   0  0  0  0  0  0  0  0  0  0  0  0
  -20.4046   -6.0595   22.4708 C   0  0  0  0  0  0  0  0  0  0  0  0
  -24.7081  -11.8869   21.2878 C   0  0  0  0  0  0  0  0  0  0  0  0
  -25.2714  -13.8437   20.4577 C   0  0  0  0  0  0  0  0  0  0  0  0
  -22.8800  -13.6922   21.1693 C   0  0  0  0  0  0  0  0  0  0  0  0
  -27.5605  -27.4624   20.2910 C   0  0  0  0  0  0  0  0  0  0  0  0
  -28.8498  -27.1990   17.3261 C   0  0  0  0  0  0  0  0  0  0  0  0
  -31.0961  -25.6586   15.2700 C   0  0  0  0  0  0  0  0  0  0  0  0
  -31.1958  -13.2188   21.0597 C   0  0  0  0  0  0  0  0  0  0  0  0
  -23.9339  -31.0089   20.8638 C   0  0  0  0  0  0  0  0  0  0  0  0
  -30.0246  -27.6303   20.7970 C   0  0  0  0  0  0  0  0  0  0  0  0
  -29.4293  -25.3790   18.9744 C   0  0  0  0  0  0  0  0  0  0  0  0
  -24.3884  -30.0841   19.7375 C   0  0  0  0  0  0  0  0  0  0  0  0
  -29.3302  -13.1249   18.0286 C   0  0  0  0  0  0  0  0  0  0  0  0
  -24.5338  -28.6537   20.2471 C   0  0  0  0  0  0  0  0  0  0  0  0
  -27.8883  -12.9123   18.4930 C   0  0  0  0  0  0  0  0  0  0  0  0
  -30.3232  -12.3642   18.9046 C   0  0  0  0  0  0  0  0  0  0  0  0
  -28.7664  -12.4225   20.8142 C   0  0  0  0  0  0  0  0  0  0  0  0
  -25.5971  -28.5658   21.3485 C   0  0  1  0  0  0  0  0  0  0  0  0
  -28.9323  -27.7232   19.7360 C   0  0  1  0  0  0  0  0  0  0  0  0
  -27.7328  -13.2148   19.9956 C   0  0  2  0  0  0  0  0  0  0  0  0
  -31.8913  -25.6306   12.8900 C   0  0  0  0  0  0  0  0  0  0  0  0
  -26.3444  -25.6606   16.5097 C   0  0  0  0  0  0  0  0  0  0  0  0
  -27.5805  -24.8595   14.4852 C   0  0  0  0  0  0  0  0  0  0  0  0
  -27.1645  -27.2980   14.8065 C   0  0  0  0  0  0  0  0  0  0  0  0
  -33.8407  -26.4387   16.0559 C   0  0  0  0  0  0  0  0  0  0  0  0
  -31.9187  -14.0618   23.2792 C   0  0  0  0  0  0  0  0  0  0  0  0
  -30.9723  -20.5435   23.8871 C   0  0  0  0  0  0  0  0  0  0  0  0
  -31.2875  -22.0174   23.6944 C   0  0  0  0  0  0  0  0  0  1  0  0
  -28.8711  -26.1297   16.2607 C   0  0  1  0  0  0  0  0  0  0  0  0
  -32.1007  -26.2162   14.2778 C   0  0  2  0  0  0  0  0  0  0  0  0
  -27.5004  -25.9822   15.5416 C   0  0  0  0  0  0  0  0  0  0  0  0
  -26.0004  -11.7585   20.9756 N   0  0  0  0  0  0  0  0  0  0  0  0
  -26.3142  -12.9647   20.4730 N   0  0  0  0  0  0  0  0  0  0  0  0
  -29.1333  -26.7804   18.6338 N   0  0  0  0  0  0  0  0  0  0  0  0
  -30.1238  -12.6969   20.3172 N   0  0  0  0  0  0  0  0  0  0  0  0
  -25.4132  -15.1004   19.9855 N   0  0  0  0  0  0  0  0  0  0  0  0
  -21.8997  -12.8599   21.7266 N   0  0  0  0  0  0  0  0  0  0  0  0
  -31.9680  -19.7275   23.2307 N   0  0  0  0  0  0  0  0  0  0  0  0
  -26.9246  -28.5907   20.7726 N   0  0  0  0  0  0  0  0  0  0  0  0
  -29.9795  -26.4611   15.3719 N   0  0  0  0  0  0  0  0  0  0  0  0
  -30.9198  -13.5130   22.3894 N   0  0  0  0  0  0  0  0  0  0  0  0
  -33.4902  -25.9022   14.7156 N   0  3  0  0  0  0  0  0  0  0  0  0
  -22.5738  -14.8610   20.8325 O   0  0  0  0  0  0  0  0  0  0  0  0
  -27.1116  -26.3221   20.2815 O   0  0  0  0  0  0  0  0  0  0  0  0
  -28.5981  -28.3641   17.0085 O   0  0  0  0  0  0  0  0  0  0  0  0
  -31.2817  -24.6135   15.8897 O   0  0  0  0  0  0  0  0  0  0  0  0
  -32.3145  -13.4135   20.5723 O   0  0  0  0  0  0  0  0  0  0  0  0
  -21.9239   -7.5921   23.5393 O   0  0  0  0  0  0  0  0  0  0  0  0
  -31.3071  -22.3212   22.3003 O   0  0  0  0  0  0  0  0  0  1  0  0
  -16.9084   -6.4602   21.5472 F   0  0  0  0  0  0  0  0  0  0  0  0
  -21.3691   -5.1312   22.4085 F   0  0  0  0  0  0  0  0  0  0  0  0
  1  2  1  0  0  0  0
  1  5  2  0  0  0  0
  2  6  2  0  0  0  0
  3 12  2  0  0  0  0
  3 19  1  0  0  0  0
  4 13  1  0  0  0  0
  4 19  2  0  0  0  0
  5 21  1  0  0  0  0
  6 23  1  0  0  0  0
  7 14  2  0  0  0  0
  7 22  1  0  0  0  0
  8 10  2  0  0  0  0
  8 25  1  0  0  0  0
  9 11  1  0  0  0  0
  9 25  2  0  0  0  0
 10 26  1  0  0  0  0
 11 26  2  0  0  0  0
 12 27  1  0  0  0  0
 13 27  2  0  0  0  0
 14 28  1  0  0  0  0
 15 16  2  0  0  0  0
 15 29  1  0  0  0  0
 16 30  1  0  0  0  0
 17 24  1  0  0  0  0
 17 28  2  0  0  0  0
 18 30  2  0  0  0  0
 18 31  1  0  0  0  0
 19 32  1  0  0  0  0
 20 32  1  0  0  0  0
 20 33  2  0  0  0  0
 20 34  1  0  0  0  0
 21 23  2  0  0  0  0
 21 39  1  0  0  0  0
 22 24  2  0  0  0  0
 22 40  1  0  0  0  0
 23 48  1  0  0  0  0
 24 41  1  0  0  0  0
 25 56  1  0  0  0  0
 26 68  1  0  0  0  0
 27 78  1  0  0  0  0
 28 79  1  0  0  0  0
 29 31  2  0  0  0  0
 29 78  1  0  0  0  0
 30 80  1  0  0  0  0
 31 81  1  0  0  0  0
 32 62  2  0  0  0  0
 33 63  1  0  0  0  0
 33 66  1  0  0  0  0
 34 67  1  0  0  0  0
 34 73  2  0  0  0  0
 35 49  1  0  0  0  0
 35 69  1  0  0  0  0
 35 74  2  0  0  0  0
 36 59  1  0  0  0  0
 36 64  1  0  0  0  0
 36 75  2  0  0  0  0
 37 60  1  0  0  0  0
 37 70  1  0  0  0  0
 37 76  2  0  0  0  0
 38 65  1  0  0  0  0
 38 71  1  0  0  0  0
 38 77  2  0  0  0  0
 39 42  1  0  0  0  0
 40 49  1  0  0  0  0
 41 64  1  0  0  0  0
 42 44  1  0  0  0  0
 43 45  1  0  0  0  0
 43 46  1  0  0  0  0
 44 48  1  0  0  0  0
 45 50  1  0  0  0  0
 46 65  1  0  0  0  0
 47 50  1  0  0  0  0
 47 65  1  0  0  0  0
 48 69  1  0  0  0  0
 49 64  1  0  0  0  0
 50 63  1  0  0  0  0
 51 60  1  0  0  0  0
 52 61  1  0  0  0  0
 53 61  1  0  0  0  0
 54 61  1  0  0  0  0
 55 72  1  0  0  0  0
 56 71  1  0  0  0  0
 57 58  1  0  0  0  0
 57 68  1  0  0  0  0
 58 79  1  0  0  0  0
 59 61  1  0  0  0  0
 59 70  1  0  0  0  0
 60 72  1  0  0  0  0
 62 63  1  0  0  0  0
M  CHG  1  72   1
M  ISO  4  38 100  58 101  71 100  79 101
M  END
> <Batch ID>
0022

> <Smiles>
CNC(C)C(=O)NC(C(=O)N1Cc2cc([101O:1][101CH2:1]CNc3ccc(C[100NH:0][100C:0](=O)N4CCCC(n5nc(-c6ccc(Oc7ccc(F)cc7F)cc6)c(C(N)=O)c5N)C4)cc3)ccc2CC1C(=O)NC1CCCc2ccccc21)C(C)(C)C

> <Shape>
0.259

> <Color>
0.159

> <Negative vol penalty>
0.000

$$$$

  -OEChem-04042321143D

 85 94  0     1  0  0  0  0  0999 V2000
  -19.1609  -24.4752   22.0884 C   0  0  0  0  0  0  0  0  0  0  0  0
  -20.1684  -24.8620   21.2105 C   0  0  0  0  0  0  0  0  0  0  0  0
  -28.8295  -13.8821   21.2419 C   0  0  0  0  0  0  0  0  0  0  0  0
  -27.2524  -15.0669   19.8470 C   0  0  0  0  0  0  0  0  0  0  0  0
  -18.4734  -25.4378   22.8265 C   0  0  0  0  0  0  0  0  0  0  0  0
  -20.4882  -26.2119   21.0693 C   0  0  0  0  0  0  0  0  0  0  0  0
  -25.4851  -27.0344   21.0657 C   0  0  0  0  0  0  0  0  0  0  0  0
  -29.9239  -26.4711   19.6693 C   0  0  0  0  0  0  0  0  0  0  0  0
  -29.9597  -25.3329   20.4748 C   0  0  0  0  0  0  0  0  0  0  0  0
  -28.0071  -12.7558   21.2153 C   0  0  0  0  0  0  0  0  0  0  0  0
  -26.4299  -13.9406   19.8203 C   0  0  0  0  0  0  0  0  0  0  0  0
  -26.1755  -26.7549   19.8872 C   0  0  0  0  0  0  0  0  0  0  0  0
  -26.3192  -10.9769   18.2002 C   0  0  0  0  0  0  0  0  0  0  0  0
  -25.7838  -10.5963   16.9697 C   0  0  0  0  0  0  0  0  0  0  0  0
  -26.1622  -29.1020   19.3300 C   0  0  0  0  0  0  0  0  0  0  0  0
  -23.5528  -10.8774   17.8535 C   0  0  0  0  0  0  0  0  0  0  0  0
  -28.4522  -15.0376   20.5578 C   0  0  0  0  0  0  0  0  0  0  0  0
  -30.3359  -16.5204   19.6858 C   0  0  0  0  0  0  0  0  0  0  0  0
  -18.7916  -26.7993   22.7014 C   0  0  0  0  0  0  0  0  0  0  0  0
  -25.1179  -28.3506   21.3805 C   0  0  0  0  0  0  0  0  0  0  0  0
  -19.8035  -27.1937   21.8054 C   0  0  0  0  0  0  0  0  0  0  0  0
  -25.4694  -29.3958   20.5145 C   0  0  0  0  0  0  0  0  0  0  0  0
  -30.7846  -25.1851   17.8139 C   0  0  0  0  0  0  0  0  0  0  0  0
  -30.3362  -26.3972   18.3388 C   0  0  0  0  0  0  0  0  0  0  0  0
  -30.4081  -24.1208   19.9499 C   0  0  0  0  0  0  0  0  0  0  0  0
  -26.8072  -12.7851   20.5045 C   0  0  0  0  0  0  0  0  0  0  0  0
  -26.5117  -27.7884   19.0177 C   0  0  0  0  0  0  0  0  0  0  0  0
  -25.4714  -11.3077   19.2574 C   0  0  0  0  0  0  0  0  0  0  0  0
  -24.4006  -10.5465   16.7964 C   0  0  0  0  0  0  0  0  0  0  0  0
  -24.0883  -11.2580   19.0840 C   0  0  0  0  0  0  0  0  0  0  0  0
  -30.8205  -24.0469   18.6194 C   0  0  0  0  0  0  0  0  0  0  0  0
  -29.3011  -16.2015   20.5853 C   0  0  0  0  0  0  0  0  0  0  0  0
  -30.8306  -17.7178   20.1420 C   0  0  0  0  0  0  0  0  0  0  0  0
  -30.8078  -15.7989   18.5402 C   0  0  0  0  0  0  0  0  0  0  0  0
  -22.3585  -29.8629   21.8305 C   0  0  0  0  0  0  0  0  0  0  0  0
  -24.2933  -32.3269   22.6717 C   0  0  0  0  0  0  0  0  0  0  0  0
  -27.3572  -33.8126   22.4448 C   0  0  0  0  0  0  0  0  0  0  0  0
  -30.0682  -22.8703   22.1102 C   0  0  0  0  0  0  0  0  0  0  0  0
  -17.9887  -27.8073   23.4850 C   0  0  0  0  0  0  0  0  0  0  0  0
  -24.3968  -28.6387   22.6687 C   0  0  0  0  0  0  0  0  0  0  0  0
  -25.1162  -30.8285   20.8162 C   0  0  0  0  0  0  0  0  0  0  0  0
  -18.6429  -29.1847   23.5559 C   0  0  0  0  0  0  0  0  0  0  0  0
  -29.9715  -20.2033   24.4671 C   0  0  0  0  0  0  0  0  0  0  0  0
  -30.9254  -29.5661   16.5144 C   0  0  0  0  0  0  0  0  0  0  0  0
  -19.1335  -29.6143   22.1769 C   0  0  0  0  0  0  0  0  0  0  0  0
  -29.8736  -18.9506   23.5933 C   0  0  0  0  0  0  0  0  0  0  0  0
  -29.8865  -28.8630   15.6552 C   0  0  0  0  0  0  0  0  0  0  0  0
  -31.4216  -28.4649   17.4462 C   0  0  0  0  0  0  0  0  0  0  0  0
  -29.1781  -21.3686   23.8787 C   0  0  0  0  0  0  0  0  0  0  0  0
  -29.3955  -20.4391   21.6076 C   0  0  0  0  0  0  0  0  0  0  0  0
  -20.1962  -28.6462   21.6431 C   0  0  1  0  0  0  0  0  0  0  0  0
  -23.6219  -29.9525   22.6388 C   0  0  1  0  0  0  0  0  0  0  0  0
  -30.2317  -19.2577   22.1260 C   0  0  2  0  0  0  0  0  0  0  0  0
  -29.2144  -27.8805   16.6244 C   0  0  2  0  0  0  0  0  0  0  0  0
  -31.2315  -25.0816   16.3917 C   0  0  0  0  0  0  0  0  0  0  0  0
  -28.6263  -35.8373   23.2110 C   0  0  0  0  0  0  0  0  0  0  0  0
  -22.7993  -34.0329   20.6303 C   0  0  0  0  0  0  0  0  0  0  0  0
  -24.6719  -35.6904   20.7488 C   0  0  0  0  0  0  0  0  0  0  0  0
  -23.3158  -35.1957   22.7833 C   0  0  0  0  0  0  0  0  0  0  0  0
  -29.3558  -32.1624   23.8736 C   0  0  0  0  0  0  0  0  0  0  0  0
  -28.0505  -28.5367   17.3660 C   0  0  0  0  0  0  0  0  0  1  0  0
  -24.9541  -33.4669   21.9351 C   0  0  1  0  0  0  0  0  0  0  0  0
  -28.2796  -34.3861   23.5053 C   0  0  2  0  0  0  0  0  0  0  0  0
  -23.9404  -34.5693   21.5174 C   0  0  0  0  0  0  0  0  0  0  0  0
  -29.1466  -17.1219   21.5409 N   0  0  0  0  0  0  0  0  0  0  0  0
  -30.0910  -18.0309   21.2444 N   0  0  0  0  0  0  0  0  0  0  0  0
  -30.2956  -27.5352   17.5555 N   0  0  3  0  0  0  0  0  0  0  0  0
  -24.4056  -31.0584   22.0849 N   0  0  0  0  0  0  0  0  0  0  0  0
  -29.5736  -21.6041   22.4884 N   0  0  0  0  0  0  0  0  0  0  0  0
  -31.8218  -18.5228   19.7038 N   0  0  0  0  0  0  0  0  0  0  0  0
  -30.1873  -14.5857   18.2126 N   0  0  0  0  0  0  0  0  0  0  0  0
  -30.4430  -22.9662   20.7704 N   0  0  0  0  0  0  0  0  0  0  0  0
  -21.4734  -28.8992   22.2749 N   0  0  0  0  0  0  0  0  0  0  0  0
  -26.0306  -33.9410   22.7981 N   0  0  0  0  0  0  0  0  0  0  0  0
  -29.5465  -33.6037   23.5680 N   0  3  0  0  0  0  0  0  0  0  0  0
  -31.7625  -16.2095   17.8378 O   0  0  0  0  0  0  0  0  0  0  0  0
  -22.1978  -30.6135   20.8753 O   0  0  0  0  0  0  0  0  0  0  0  0
  -23.7053  -32.5522   23.7325 O   0  0  0  0  0  0  0  0  0  0  0  0
  -27.7719  -33.3050   21.4051 O   0  0  0  0  0  0  0  0  0  0  0  0
  -30.1786  -23.7928   22.9218 O   0  0  0  0  0  0  0  0  0  0  0  0
  -26.0045  -11.6862   20.4781 O   0  0  0  0  0  0  0  0  0  0  0  0
  -27.1850  -27.5184   17.8664 O   0  0  0  0  0  0  0  0  0  1  0  0
  -23.8866  -10.1824   15.6143 F   0  0  0  0  0  0  0  0  0  0  0  0
  -23.2688  -11.5758   20.0956 F   0  0  0  0  0  0  0  0  0  0  0  0
  -31.2555  -22.8824   18.1144 F   0  0  0  0  0  0  0  0  0  0  0  0
  1  2  1  0  0  0  0
  1  5  2  0  0  0  0
  2  6  2  0  0  0  0
  3 10  2  0  0  0  0
  3 17  1  0  0  0  0
  4 11  1  0  0  0  0
  4 17  2  0  0  0  0
  5 19  1  0  0  0  0
  6 21  1  0  0  0  0
  7 12  2  0  0  0  0
  7 20  1  0  0  0  0
  8  9  2  0  0  0  0
  8 24  1  0  0  0  0
  9 25  1  0  0  0  0
 10 26  1  0  0  0  0
 11 26  2  0  0  0  0
 12 27  1  0  0  0  0
 13 14  2  0  0  0  0
 13 28  1  0  0  0  0
 14 29  1  0  0  0  0
 15 22  1  0  0  0  0
 15 27  2  0  0  0  0
 16 29  2  0  0  0  0
 16 30  1  0  0  0  0
 17 32  1  0  0  0  0
 18 32  1  0  0  0  0
 18 33  2  0  0  0  0
 18 34  1  0  0  0  0
 19 21  2  0  0  0  0
 19 39  1  0  0  0  0
 20 22  2  0  0  0  0
 20 40  1  0  0  0  0
 21 51  1  0  0  0  0
 22 41  1  0  0  0  0
 23 24  2  0  0  0  0
 23 31  1  0  0  0  0
 23 55  1  0  0  0  0
 24 67  1  0  0  0  0
 25 31  2  0  0  0  0
 25 72  1  0  0  0  0
 26 81  1  0  0  0  0
 27 82  1  0  0  0  0
 28 30  2  0  0  0  0
 28 81  1  0  0  0  0
 29 83  1  0  0  0  0
 30 84  1  0  0  0  0
 31 85  1  0  0  0  0
 32 65  2  0  0  0  0
 33 66  1  0  0  0  0
 33 70  1  0  0  0  0
 34 71  1  0  0  0  0
 34 76  2  0  0  0  0
 35 52  1  0  0  0  0
 35 73  1  0  0  0  0
 35 77  2  0  0  0  0
 36 62  1  0  0  0  0
 36 68  1  0  0  0  0
 36 78  2  0  0  0  0
 37 63  1  0  0  0  0
 37 74  1  0  0  0  0
 37 79  2  0  0  0  0
 38 69  1  0  0  0  0
 38 72  1  0  0  0  0
 38 80  2  0  0  0  0
 39 42  1  0  0  0  0
 40 52  1  0  0  0  0
 41 68  1  0  0  0  0
 42 45  1  0  0  0  0
 43 46  1  0  0  0  0
 43 49  1  0  0  0  0
 44 47  1  0  0  0  0
 44 48  1  0  0  0  0
 45 51  1  0  0  0  0
 46 53  1  0  0  0  0
 47 54  1  0  0  0  0
 48 67  1  0  0  0  0
 49 69  1  0  0  0  0
 50 53  1  0  0  0  0
 50 69  1  0  0  0  0
 51 73  1  0  0  0  0
 52 68  1  0  0  0  0
 53 66  1  0  0  0  0
 54 61  1  0  0  0  0
 54 67  1  0  0  0  0
 56 63  1  0  0  0  0
 57 64  1  0  0  0  0
 58 64  1  0  0  0  0
 59 64  1  0  0  0  0
 60 75  1  0  0  0  0
 61 82  1  0  0  0  0
 62 64  1  0  0  0  0
 62 74  1  0  0  0  0
 63 75  1  0  0  0  0
 65 66  1  0  0  0  0
M  CHG  1  75   1
M  ISO  4  38 100  61 101  72 100  82 101
M  END
> <Batch ID>
0022

> <Smiles>
CNC(C)C(=O)NC(C(=O)N1Cc2cc([101O:1][101CH2:1]C3CCCN3c3ccc([100NH:0][100C:0](=O)N4CCCC(n5nc(-c6ccc(Oc7ccc(F)cc7F)cc6)c(C(N)=O)c5N)C4)c(F)c3C)ccc2CC1C(=O)NC1CCCc2ccccc21)C(C)(C)C

> <Shape>
0.274

> <Color>
0.099

> <Negative vol penalty>
0.000

$$$$

  -OEChem-04042321143D

 84 93  0     1  0  0  0  0  0999 V2000
  -24.3591  -34.9768   22.2813 C   0  0  0  0  0  0  0  0  0  0  0  0
  -25.1638  -33.8439   22.2151 C   0  0  0  0  0  0  0  0  0  0  0  0
  -23.5119  -10.1784   22.3606 C   0  0  0  0  0  0  0  0  0  0  0  0
  -23.3858   -9.9924   19.9551 C   0  0  0  0  0  0  0  0  0  0  0  0
  -23.0454  -34.8717   22.7364 C   0  0  0  0  0  0  0  0  0  0  0  0
  -24.6556  -32.6053   22.6050 C   0  0  0  0  0  0  0  0  0  0  0  0
  -25.8388  -28.9086   19.3525 C   0  0  0  0  0  0  0  0  0  0  0  0
  -26.2916  -21.8731   20.6980 C   0  0  0  0  0  0  0  0  0  0  0  0
  -22.7086   -9.0455   22.4904 C   0  0  0  0  0  0  0  0  0  0  0  0
  -22.5825   -8.8595   20.0848 C   0  0  0  0  0  0  0  0  0  0  0  0
  -27.1316  -28.3911   19.4196 C   0  0  0  0  0  0  0  0  0  0  0  0
  -23.0799   -5.6913   22.2803 C   0  0  0  0  0  0  0  0  0  0  0  0
  -23.4658   -4.7260   23.2103 C   0  0  0  0  0  0  0  0  0  0  0  0
  -27.2717  -22.8539   20.7868 C   0  0  0  0  0  0  0  0  0  0  0  0
  -26.3065  -26.5097   20.6841 C   0  0  0  0  0  0  0  0  0  0  0  0
  -21.3764   -5.0237   24.3862 C   0  0  0  0  0  0  0  0  0  0  0  0
  -23.8505  -10.6519   21.0930 C   0  0  0  0  0  0  0  0  0  0  0  0
  -26.0848  -11.8646   20.8812 C   0  0  0  0  0  0  0  0  0  0  0  0
  -22.5178  -33.6296   23.1230 C   0  0  0  0  0  0  0  0  0  0  0  0
  -24.7700  -28.2349   19.9611 C   0  0  0  0  0  0  0  0  0  0  0  0
  -23.3340  -32.4837   23.0670 C   0  0  0  0  0  0  0  0  0  0  0  0
  -26.0891  -21.1914   19.4952 C   0  0  0  0  0  0  0  0  0  0  0  0
  -25.0006  -27.0195   20.6211 C   0  0  0  0  0  0  0  0  0  0  0  0
  -22.2439   -8.3860   21.3525 C   0  0  0  0  0  0  0  0  0  0  0  0
  -27.3661  -27.1930   20.0880 C   0  0  0  0  0  0  0  0  0  0  0  0
  -21.8422   -6.3228   22.4033 C   0  0  0  0  0  0  0  0  0  0  0  0
  -22.6140   -4.3922   24.2632 C   0  0  0  0  0  0  0  0  0  0  0  0
  -20.9905   -5.9890   23.4562 C   0  0  0  0  0  0  0  0  0  0  0  0
  -24.6798  -11.8225   20.9583 C   0  0  0  0  0  0  0  0  0  0  0  0
  -26.8874  -21.5479   18.4031 C   0  0  0  0  0  0  0  0  0  0  0  0
  -28.0198  -23.1244   19.6554 C   0  0  0  0  0  0  0  0  0  0  0  0
  -26.3822  -13.2001   20.7615 C   0  0  0  0  0  0  0  0  0  0  0  0
  -27.0360  -10.7923   20.9147 C   0  0  0  0  0  0  0  0  0  0  0  0
  -22.7152  -28.9257   22.2858 C   0  0  0  0  0  0  0  0  0  0  0  0
  -21.3682  -26.1106   21.4008 C   0  0  0  0  0  0  0  0  0  0  0  0
  -21.7441  -23.0558   19.9265 C   0  0  0  0  0  0  0  0  0  0  0  0
  -25.1747  -17.9793   18.0713 C   0  0  0  0  0  0  0  0  0  0  0  0
  -21.1069  -33.5735   23.6530 C   0  0  0  0  0  0  0  0  0  0  0  0
  -23.3770  -28.7927   19.8567 C   0  0  0  0  0  0  0  0  0  0  0  0
  -25.0089  -20.1437   19.3918 C   0  0  0  0  0  0  0  0  0  0  0  0
  -23.8843  -26.2471   21.2735 C   0  0  0  0  0  0  0  0  0  0  0  0
  -26.7342  -20.8395   17.0823 C   0  0  0  0  0  0  0  0  0  0  0  0
  -20.5270  -32.1620   23.6930 C   0  0  0  0  0  0  0  0  0  0  0  0
  -23.4851  -17.2957   21.3333 C   0  0  0  0  0  0  0  0  0  0  0  0
  -21.5322  -31.1889   24.3009 C   0  0  0  0  0  0  0  0  0  0  0  0
  -23.7163  -15.7917   21.4728 C   0  0  0  0  0  0  0  0  0  0  0  0
  -25.3679  -20.1766   16.9485 C   0  0  0  0  0  0  0  0  0  0  0  0
  -23.4189  -17.7097   19.8681 C   0  0  0  0  0  0  0  0  0  0  0  0
  -24.8560  -15.8095   19.2062 C   0  0  0  0  0  0  0  0  0  0  0  0
  -22.8111  -31.1185   23.4577 C   0  0  1  0  0  0  0  0  0  0  0  0
  -22.4463  -28.2848   20.9536 C   0  0  1  0  0  0  0  0  0  0  0  0
  -24.9510  -15.3473   20.6699 C   0  0  2  0  0  0  0  0  0  0  0  0
  -20.4747  -20.9595   19.3865 C   0  0  0  0  0  0  0  0  0  0  0  0
  -21.5639  -25.2431   24.3196 C   0  0  0  0  0  0  0  0  0  0  0  0
  -21.1920  -22.8832   23.5706 C   0  0  0  0  0  0  0  0  0  0  0  0
  -19.4296  -24.6055   23.1826 C   0  0  0  0  0  0  0  0  0  0  0  0
  -22.1601  -23.4146   17.0184 C   0  0  0  0  0  0  0  0  0  0  0  0
  -30.5131  -25.8454   18.9252 C   0  0  0  0  0  0  0  0  0  0  0  0
  -29.8557  -24.4950   18.6673 C   0  0  0  0  0  0  0  0  0  0  0  0
  -29.5054  -26.9796   19.0712 C   0  0  0  0  0  0  0  0  0  1  0  0
  -21.5473  -24.6666   21.8030 C   0  0  1  0  0  0  0  0  0  0  0  0
  -20.9090  -22.3290   18.8878 C   0  0  2  0  0  0  0  0  0  0  0  0
  -20.9548  -24.3649   23.2084 C   0  0  0  0  0  0  0  0  0  0  0  0
  -24.1232  -13.0349   20.8933 N   0  0  0  0  0  0  0  0  0  0  0  0
  -27.8543  -22.4963   18.4705 N   0  0  0  0  0  0  0  0  0  0  0  0
  -25.1839  -13.8514   20.7741 N   0  0  0  0  0  0  0  0  0  0  0  0
  -22.5410  -26.8368   21.1496 N   0  0  0  0  0  0  0  0  0  0  0  0
  -25.0791  -19.3778   18.1383 N   0  0  0  0  0  0  0  0  0  0  0  0
  -24.5967  -17.2485   19.1217 N   0  0  0  0  0  0  0  0  0  0  0  0
  -27.5492  -13.8692   20.6479 N   0  0  0  0  0  0  0  0  0  0  0  0
  -26.5597   -9.4803   21.0419 N   0  0  0  0  0  0  0  0  0  0  0  0
  -29.0183  -24.1241   19.7612 N   0  0  0  0  0  0  0  0  0  0  0  0
  -22.5969  -30.3025   22.2818 N   0  0  0  0  0  0  0  0  0  0  0  0
  -20.9696  -23.8685   20.7270 N   0  0  0  0  0  0  0  0  0  0  0  0
  -21.6894  -22.1460   17.6315 N   0  3  0  0  0  0  0  0  0  0  0  0
  -28.2726  -10.9930   20.8508 O   0  0  0  0  0  0  0  0  0  0  0  0
  -23.0068  -28.2231   23.2464 O   0  0  0  0  0  0  0  0  0  0  0  0
  -20.2294  -26.5751   21.3060 O   0  0  0  0  0  0  0  0  0  0  0  0
  -22.9612  -22.9137   20.0209 O   0  0  0  0  0  0  0  0  0  0  0  0
  -25.7554  -17.4148   17.1355 O   0  0  0  0  0  0  0  0  0  0  0  0
  -21.4602   -7.2804   21.4787 O   0  0  0  0  0  0  0  0  0  0  0  0
  -28.6362  -26.6824   20.1560 O   0  0  0  0  0  0  0  0  0  1  0  0
  -22.9841   -3.4641   25.1554 F   0  0  0  0  0  0  0  0  0  0  0  0
  -19.7998   -6.5914   23.5789 F   0  0  0  0  0  0  0  0  0  0  0  0
  1  2  1  0  0  0  0
  1  5  2  0  0  0  0
  2  6  2  0  0  0  0
  3  9  2  0  0  0  0
  3 17  1  0  0  0  0
  4 10  1  0  0  0  0
  4 17  2  0  0  0  0
  5 19  1  0  0  0  0
  6 21  1  0  0  0  0
  7 11  2  0  0  0  0
  7 20  1  0  0  0  0
  8 14  2  0  0  0  0
  8 22  1  0  0  0  0
  9 24  1  0  0  0  0
 10 24  2  0  0  0  0
 11 25  1  0  0  0  0
 12 13  2  0  0  0  0
 12 26  1  0  0  0  0
 13 27  1  0  0  0  0
 14 31  1  0  0  0  0
 15 23  1  0  0  0  0
 15 25  2  0  0  0  0
 16 27  2  0  0  0  0
 16 28  1  0  0  0  0
 17 29  1  0  0  0  0
 18 29  1  0  0  0  0
 18 32  2  0  0  0  0
 18 33  1  0  0  0  0
 19 21  2  0  0  0  0
 19 38  1  0  0  0  0
 20 23  2  0  0  0  0
 20 39  1  0  0  0  0
 21 50  1  0  0  0  0
 22 30  2  0  0  0  0
 22 40  1  0  0  0  0
 23 41  1  0  0  0  0
 24 81  1  0  0  0  0
 25 82  1  0  0  0  0
 26 28  2  0  0  0  0
 26 81  1  0  0  0  0
 27 83  1  0  0  0  0
 28 84  1  0  0  0  0
 29 64  2  0  0  0  0
 30 42  1  0  0  0  0
 30 65  1  0  0  0  0
 31 65  2  0  0  0  0
 31 72  1  0  0  0  0
 32 66  1  0  0  0  0
 32 70  1  0  0  0  0
 33 71  1  0  0  0  0
 33 76  2  0  0  0  0
 34 51  1  0  0  0  0
 34 73  1  0  0  0  0
 34 77  2  0  0  0  0
 35 61  1  0  0  0  0
 35 67  1  0  0  0  0
 35 78  2  0  0  0  0
 36 62  1  0  0  0  0
 36 74  1  0  0  0  0
 36 79  2  0  0  0  0
 37 68  1  0  0  0  0
 37 69  1  0  0  0  0
 37 80  2  0  0  0  0
 38 43  1  0  0  0  0
 39 51  1  0  0  0  0
 40 68  1  0  0  0  0
 41 67  1  0  0  0  0
 42 47  1  0  0  0  0
 43 45  1  0  0  0  0
 44 46  1  0  0  0  0
 44 48  1  0  0  0  0
 45 50  1  0  0  0  0
 46 52  1  0  0  0  0
 47 68  1  0  0  0  0
 48 69  1  0  0  0  0
 49 52  1  0  0  0  0
 49 69  1  0  0  0  0
 50 73  1  0  0  0  0
 51 67  1  0  0  0  0
 52 66  1  0  0  0  0
 53 62  1  0  0  0  0
 54 63  1  0  0  0  0
 55 63  1  0  0  0  0
 56 63  1  0  0  0  0
 57 75  1  0  0  0  0
 58 59  1  0  0  0  0
 58 60  1  0  0  0  0
 59 72  1  0  0  0  0
 60 82  1  0  0  0  0
 61 63  1  0  0  0  0
 61 74  1  0  0  0  0
 62 75  1  0  0  0  0
 64 66  1  0  0  0  0
M  CHG  1  75   1
M  ISO  4  37 100  60 101  68 100  82 101
M  END
> <Batch ID>
0022

> <Smiles>
CNC(C)C(=O)NC(C(=O)N1Cc2cc([101O:1][101CH2:1]CCNc3ccc4c(n3)CC[100N:0]([100C:0](=O)N3CCCC(n5nc(-c6ccc(Oc7ccc(F)cc7F)cc6)c(C(N)=O)c5N)C3)C4)ccc2CC1C(=O)NC1CCCc2ccccc21)C(C)(C)C

> <Shape>
0.240

> <Color>
0.117

> <Negative vol penalty>
0.000

$$$$

  -OEChem-04042321143D

 82 90  0     1  0  0  0  0  0999 V2000
  -27.5284  -34.3427   24.6560 C   0  0  0  0  0  0  0  0  0  0  0  0
  -27.7949  -33.0607   24.1859 C   0  0  0  0  0  0  0  0  0  0  0  0
  -26.2939  -12.0443   21.2065 C   0  0  0  0  0  0  0  0  0  0  0  0
  -25.7571  -13.7942   19.6296 C   0  0  0  0  0  0  0  0  0  0  0  0
  -26.2550  -34.6608   25.1264 C   0  0  0  0  0  0  0  0  0  0  0  0
  -26.7883  -32.0957   24.1870 C   0  0  0  0  0  0  0  0  0  0  0  0
  -26.6121  -29.4674   19.8619 C   0  0  0  0  0  0  0  0  0  0  0  0
  -31.2051  -22.5489   20.7865 C   0  0  0  0  0  0  0  0  0  0  0  0
  -31.4738  -21.2058   21.0501 C   0  0  0  0  0  0  0  0  0  0  0  0
  -24.9342  -11.8296   21.4312 C   0  0  0  0  0  0  0  0  0  0  0  0
  -24.3973  -13.5795   19.8543 C   0  0  0  0  0  0  0  0  0  0  0  0
  -27.5641  -28.4639   19.6875 C   0  0  0  0  0  0  0  0  0  0  0  0
  -22.3698  -10.2638   19.8802 C   0  0  0  0  0  0  0  0  0  0  0  0
  -21.9174   -8.9447   19.9061 C   0  0  0  0  0  0  0  0  0  0  0  0
  -25.9291  -26.8099   20.3278 C   0  0  0  0  0  0  0  0  0  0  0  0
  -21.1449   -9.2540   22.1742 C   0  0  0  0  0  0  0  0  0  0  0  0
  -26.7054  -13.0266   20.3057 C   0  0  0  0  0  0  0  0  0  0  0  0
  -28.9208  -12.6263   19.1059 C   0  0  0  0  0  0  0  0  0  0  0  0
  -25.2297  -33.7019   25.1243 C   0  0  0  0  0  0  0  0  0  0  0  0
  -25.3123  -29.1502   20.2819 C   0  0  0  0  0  0  0  0  0  0  0  0
  -25.5004  -32.4009   24.6591 C   0  0  0  0  0  0  0  0  0  0  0  0
  -24.9617  -27.8110   20.5044 C   0  0  0  0  0  0  0  0  0  0  0  0
  -30.0063  -21.9165   18.7864 C   0  0  0  0  0  0  0  0  0  0  0  0
  -30.4713  -22.9043   19.6547 C   0  0  0  0  0  0  0  0  0  0  0  0
  -31.0088  -20.2180   20.1818 C   0  0  0  0  0  0  0  0  0  0  0  0
  -23.9858  -12.5972   20.7551 C   0  0  0  0  0  0  0  0  0  0  0  0
  -27.2235  -27.1352   19.9232 C   0  0  0  0  0  0  0  0  0  0  0  0
  -22.2099  -11.0781   21.0014 C   0  0  0  0  0  0  0  0  0  0  0  0
  -21.3049   -8.4398   21.0530 C   0  0  0  0  0  0  0  0  0  0  0  0
  -21.5974  -10.5732   22.1484 C   0  0  0  0  0  0  0  0  0  0  0  0
  -30.2751  -20.5734   19.0500 C   0  0  0  0  0  0  0  0  0  0  0  0
  -28.1099  -13.2492   20.0735 C   0  0  0  0  0  0  0  0  0  0  0  0
  -30.1646  -13.1781   19.2935 C   0  0  0  0  0  0  0  0  0  0  0  0
  -28.5802  -11.6375   18.1252 C   0  0  0  0  0  0  0  0  0  0  0  0
  -23.5352  -29.8717   22.8166 C   0  0  0  0  0  0  0  0  0  0  0  0
  -21.2263  -28.3133   21.1546 C   0  0  0  0  0  0  0  0  0  0  0  0
  -20.4306  -26.0135   18.7619 C   0  0  0  0  0  0  0  0  0  0  0  0
  -32.0211  -18.3793   21.5749 C   0  0  0  0  0  0  0  0  0  0  0  0
  -23.8821  -34.0789   25.6866 C   0  0  0  0  0  0  0  0  0  0  0  0
  -24.2895  -30.2417   20.4396 C   0  0  0  0  0  0  0  0  0  0  0  0
  -23.5742  -27.4158   20.9369 C   0  0  0  0  0  0  0  0  0  0  0  0
  -22.7692  -33.1061   25.3054 C   0  0  0  0  0  0  0  0  0  0  0  0
  -32.9258  -15.1211   22.6897 C   0  0  0  0  0  0  0  0  0  0  0  0
  -23.2253  -31.6653   25.5128 C   0  0  0  0  0  0  0  0  0  0  0  0
  -31.8709  -14.2140   22.0523 C   0  0  0  0  0  0  0  0  0  0  0  0
  -32.3342  -16.4612   23.1233 C   0  0  0  0  0  0  0  0  0  0  0  0
  -30.5459  -16.2768   21.4390 C   0  0  0  0  0  0  0  0  0  0  0  0
  -24.4281  -31.3337   24.6211 C   0  0  1  0  0  0  0  0  0  0  0  0
  -23.1413  -29.8551   21.3667 C   0  0  1  0  0  0  0  0  0  0  0  0
  -31.1083  -14.9406   20.9271 C   0  0  2  0  0  0  0  0  0  0  0  0
  -29.2196  -22.3166   17.5755 C   0  0  0  0  0  0  0  0  0  0  0  0
  -18.4596  -24.9273   17.6517 C   0  0  0  0  0  0  0  0  0  0  0  0
  -20.7932  -26.5780   23.6267 C   0  0  0  0  0  0  0  0  0  0  0  0
  -19.5447  -24.9567   22.1842 C   0  0  0  0  0  0  0  0  0  0  0  0
  -18.6931  -27.2842   22.4669 C   0  0  0  0  0  0  0  0  0  0  0  0
  -21.2069  -27.0557   16.1029 C   0  0  0  0  0  0  0  0  0  0  0  0
  -30.2847  -25.2690   20.4285 C   0  0  0  0  0  0  0  0  0  0  0  0
  -29.5151  -26.5024   19.9864 C   0  0  0  0  0  0  0  0  0  1  0  0
  -20.7568  -26.8814   21.0630 C   0  0  1  0  0  0  0  0  0  0  0  0
  -19.4627  -26.0689   17.5938 C   0  0  2  0  0  0  0  0  0  0  0  0
  -19.9737  -26.4324   22.3289 C   0  0  0  0  0  0  0  0  0  0  0  0
  -28.7820  -14.1292   20.8205 N   0  0  0  0  0  0  0  0  0  0  0  0
  -30.0284  -14.0632   20.3222 N   0  0  0  0  0  0  0  0  0  0  0  0
  -22.6113  -28.5198   21.0835 N   0  0  0  0  0  0  0  0  0  0  0  0
  -31.6308  -17.0935   22.0052 N   0  0  0  0  0  0  0  0  0  0  0  0
  -31.3505  -12.9875   18.6772 N   0  0  0  0  0  0  0  0  0  0  0  0
  -27.2566  -11.1800   18.0693 N   0  0  0  0  0  0  0  0  0  0  0  0
  -31.3021  -18.8649   20.4832 N   0  0  0  0  0  0  0  0  0  0  0  0
  -30.2161  -24.2439   19.4124 N   0  0  0  0  0  0  0  0  0  0  0  0
  -23.9978  -31.0961   23.2599 N   0  0  0  0  0  0  0  0  0  0  0  0
  -19.9958  -26.7800   19.8224 N   0  0  0  0  0  0  0  0  0  0  0  0
  -20.2026  -25.9795   16.3033 N   0  3  0  0  0  0  0  0  0  0  0  0
  -29.4283  -11.1613   17.3330 O   0  0  0  0  0  0  0  0  0  0  0  0
  -23.4261  -28.8499   23.4841 O   0  0  0  0  0  0  0  0  0  0  0  0
  -20.3945  -29.2158   21.2773 O   0  0  0  0  0  0  0  0  0  0  0  0
  -21.4669  -25.3531   18.7376 O   0  0  0  0  0  0  0  0  0  0  0  0
  -32.9447  -18.9924   22.1165 O   0  0  0  0  0  0  0  0  0  0  0  0
  -22.6589  -12.3878   20.9740 O   0  0  0  0  0  0  0  0  0  0  0  0
  -28.1509  -26.1538   19.7543 O   0  0  0  0  0  0  0  0  0  1  0  0
  -20.8691   -7.1734   21.0772 F   0  0  0  0  0  0  0  0  0  0  0  0
  -21.4398  -11.3510   23.2282 F   0  0  0  0  0  0  0  0  0  0  0  0
  -29.6977  -19.3465   17.9682 Cl  0  0  0  0  0  0  0  0  0  0  0  0
  1  2  1  0  0  0  0
  1  5  2  0  0  0  0
  2  6  2  0  0  0  0
  3 10  2  0  0  0  0
  3 17  1  0  0  0  0
  4 11  1  0  0  0  0
  4 17  2  0  0  0  0
  5 19  1  0  0  0  0
  6 21  1  0  0  0  0
  7 12  2  0  0  0  0
  7 20  1  0  0  0  0
  8  9  2  0  0  0  0
  8 24  1  0  0  0  0
  9 25  1  0  0  0  0
 10 26  1  0  0  0  0
 11 26  2  0  0  0  0
 12 27  1  0  0  0  0
 13 14  2  0  0  0  0
 13 28  1  0  0  0  0
 14 29  1  0  0  0  0
 15 22  1  0  0  0  0
 15 27  2  0  0  0  0
 16 29  2  0  0  0  0
 16 30  1  0  0  0  0
 17 32  1  0  0  0  0
 18 32  1  0  0  0  0
 18 33  2  0  0  0  0
 18 34  1  0  0  0  0
 19 21  2  0  0  0  0
 19 39  1  0  0  0  0
 20 22  2  0  0  0  0
 20 40  1  0  0  0  0
 21 48  1  0  0  0  0
 22 41  1  0  0  0  0
 23 24  2  0  0  0  0
 23 31  1  0  0  0  0
 23 51  1  0  0  0  0
 24 69  1  0  0  0  0
 25 31  2  0  0  0  0
 25 68  1  0  0  0  0
 26 78  1  0  0  0  0
 27 79  1  0  0  0  0
 28 30  2  0  0  0  0
 28 78  1  0  0  0  0
 29 80  1  0  0  0  0
 30 81  1  0  0  0  0
 31 82  1  0  0  0  0
 32 62  2  0  0  0  0
 33 63  1  0  0  0  0
 33 66  1  0  0  0  0
 34 67  1  0  0  0  0
 34 73  2  0  0  0  0
 35 49  1  0  0  0  0
 35 70  1  0  0  0  0
 35 74  2  0  0  0  0
 36 59  1  0  0  0  0
 36 64  1  0  0  0  0
 36 75  2  0  0  0  0
 37 60  1  0  0  0  0
 37 71  1  0  0  0  0
 37 76  2  0  0  0  0
 38 65  1  0  0  0  0
 38 68  1  0  0  0  0
 38 77  2  0  0  0  0
 39 42  1  0  0  0  0
 40 49  1  0  0  0  0
 41 64  1  0  0  0  0
 42 44  1  0  0  0  0
 43 45  1  0  0  0  0
 43 46  1  0  0  0  0
 44 48  1  0  0  0  0
 45 50  1  0  0  0  0
 46 65  1  0  0  0  0
 47 50  1  0  0  0  0
 47 65  1  0  0  0  0
 48 70  1  0  0  0  0
 49 64  1  0  0  0  0
 50 63  1  0  0  0  0
 52 60  1  0  0  0  0
 53 61  1  0  0  0  0
 54 61  1  0  0  0  0
 55 61  1  0  0  0  0
 56 72  1  0  0  0  0
 57 58  1  0  0  0  0
 57 69  1  0  0  0  0
 58 79  1  0  0  0  0
 59 61  1  0  0  0  0
 59 71  1  0  0  0  0
 60 72  1  0  0  0  0
 62 63  1  0  0  0  0
M  CHG  1  72   1
M  ISO  4  38 100  58 101  68 100  79 101
M  END
> <Batch ID>
0022

> <Smiles>
CNC(C)C(=O)NC(C(=O)N1Cc2cc([101O:1][101CH2:1]CNc3ccc([100NH:0][100C:0](=O)N4CCCC(n5nc(-c6ccc(Oc7ccc(F)cc7F)cc6)c(C(N)=O)c5N)C4)c(Cl)c3C)ccc2CC1C(=O)NC1CCCc2ccccc21)C(C)(C)C

> <Shape>
0.347

> <Color>
0.084

> <Negative vol penalty>
0.000

$$$$

  -OEChem-04042321143D

 86 95  0     1  0  0  0  0  0999 V2000
  -33.0204  -24.8769   19.0746 C   0  0  0  0  0  0  0  0  0  0  0  0
  -31.6815  -24.7510   19.4308 C   0  0  0  0  0  0  0  0  0  0  0  0
  -22.9896  -10.0287   20.0560 C   0  0  0  0  0  0  0  0  0  0  0  0
  -24.4427   -9.4028   21.8818 C   0  0  0  0  0  0  0  0  0  0  0  0
  -33.8024  -25.8777   19.6497 C   0  0  0  0  0  0  0  0  0  0  0  0
  -31.1241  -25.6252   20.3633 C   0  0  0  0  0  0  0  0  0  0  0  0
  -26.5820  -27.3505   18.9359 C   0  0  0  0  0  0  0  0  0  0  0  0
  -24.9926  -20.5525   21.7069 C   0  0  0  0  0  0  0  0  0  0  0  0
  -25.8056  -19.4217   21.6292 C   0  0  0  0  0  0  0  0  0  0  0  0
  -21.9570   -9.2807   20.6214 C   0  0  0  0  0  0  0  0  0  0  0  0
  -23.4101   -8.6548   22.4473 C   0  0  0  0  0  0  0  0  0  0  0  0
  -25.4949  -26.4933   19.1004 C   0  0  0  0  0  0  0  0  0  0  0  0
  -21.9698   -5.6340   21.9664 C   0  0  0  0  0  0  0  0  0  0  0  0
  -22.2772   -4.3579   22.4383 C   0  0  0  0  0  0  0  0  0  0  0  0
  -24.8904  -27.6581   21.1246 C   0  0  0  0  0  0  0  0  0  0  0  0
  -24.3204  -18.4674   19.9798 C   0  0  0  0  0  0  0  0  0  0  0  0
  -21.5751   -5.0092   24.6565 C   0  0  0  0  0  0  0  0  0  0  0  0
  -24.2325  -10.0897   20.6862 C   0  0  0  0  0  0  0  0  0  0  0  0
  -25.8839  -10.6818   18.8341 C   0  0  0  0  0  0  0  0  0  0  0  0
  -33.2519  -26.7707   20.5825 C   0  0  0  0  0  0  0  0  0  0  0  0
  -26.8383  -28.3627   19.8720 C   0  0  0  0  0  0  0  0  0  0  0  0
  -31.8999  -26.6380   20.9525 C   0  0  0  0  0  0  0  0  0  0  0  0
  -25.9800  -28.5284   20.9683 C   0  0  0  0  0  0  0  0  0  0  0  0
  -23.8435  -20.6407   20.9212 C   0  0  0  0  0  0  0  0  0  0  0  0
  -25.4695  -18.3792   20.7656 C   0  0  0  0  0  0  0  0  0  0  0  0
  -22.1672   -8.5937   21.8170 C   0  0  0  0  0  0  0  0  0  0  0  0
  -24.6505  -26.6452   20.1964 C   0  0  0  0  0  0  0  0  0  0  0  0
  -21.4651   -6.5977   22.8395 C   0  0  0  0  0  0  0  0  0  0  0  0
  -22.0798   -4.0455   23.7834 C   0  0  0  0  0  0  0  0  0  0  0  0
  -23.5074  -19.5982   20.0576 C   0  0  0  0  0  0  0  0  0  0  0  0
  -21.2677   -6.2853   24.1845 C   0  0  0  0  0  0  0  0  0  0  0  0
  -25.2998  -10.8618   20.1023 C   0  0  0  0  0  0  0  0  0  0  0  0
  -26.8441  -11.6608   18.7563 C   0  0  0  0  0  0  0  0  0  0  0  0
  -23.5538  -23.0727   21.3202 C   0  0  0  0  0  0  0  0  0  0  0  0
  -25.5851   -9.7161   17.8173 C   0  0  0  0  0  0  0  0  0  0  0  0
  -29.2352  -29.0361   21.8481 C   0  0  0  0  0  0  0  0  0  0  0  0
  -27.5117  -31.7288   22.3966 C   0  0  0  0  0  0  0  0  0  0  0  0
  -24.0372  -32.5820   22.8630 C   0  0  0  0  0  0  0  0  0  0  0  0
  -27.4698  -16.9842   21.3973 C   0  0  0  0  0  0  0  0  0  0  0  0
  -34.1487  -27.8067   21.2126 C   0  0  0  0  0  0  0  0  0  0  0  0
  -27.9997  -29.2960   19.6659 C   0  0  0  0  0  0  0  0  0  0  0  0
  -26.1998  -29.6122   21.9908 C   0  0  0  0  0  0  0  0  0  0  0  0
  -33.3857  -28.9283   21.9126 C   0  0  0  0  0  0  0  0  0  0  0  0
  -20.6542  -22.7309   21.0642 C   0  0  0  0  0  0  0  0  0  0  0  0
  -29.7673  -14.2666   21.5128 C   0  0  0  0  0  0  0  0  0  0  0  0
  -32.2746  -28.3539   22.7858 C   0  0  0  0  0  0  0  0  0  0  0  0
  -21.2659  -24.1102   20.9462 C   0  0  0  0  0  0  0  0  0  0  0  0
  -28.9372  -13.0699   21.0430 C   0  0  0  0  0  0  0  0  0  0  0  0
  -21.6170  -21.6903   20.5191 C   0  0  0  0  0  0  0  0  0  0  0  0
  -28.9419  -15.2306   22.3632 C   0  0  0  0  0  0  0  0  0  0  0  0
  -26.8589  -14.4886   21.2770 C   0  0  0  0  0  0  0  0  0  0  0  0
  -31.2526  -27.5827   21.9418 C   0  0  1  0  0  0  0  0  0  0  0  0
  -22.5521  -24.1464   21.7578 C   0  0  2  0  0  0  0  0  0  0  0  0
  -28.4636  -29.9664   20.9554 C   0  0  1  0  0  0  0  0  0  0  0  0
  -27.6303  -13.5227   20.3629 C   0  0  2  0  0  0  0  0  0  0  0  0
  -22.8088  -34.7239   22.4147 C   0  0  0  0  0  0  0  0  0  0  0  0
  -28.0813  -32.3319   25.3329 C   0  0  0  0  0  0  0  0  0  0  0  0
  -25.8016  -33.3545   25.4930 C   0  0  0  0  0  0  0  0  0  0  0  0
  -27.5002  -34.3333   23.9505 C   0  0  0  0  0  0  0  0  0  0  0  0
  -22.0599  -31.2211   21.1318 C   0  0  0  0  0  0  0  0  0  0  0  0
  -23.1722  -25.5428   21.6981 C   0  0  0  0  0  0  0  0  0  1  0  0
  -26.4227  -32.1223   23.3653 C   0  0  1  0  0  0  0  0  0  0  0  0
  -23.1485  -33.3370   21.8911 C   0  0  2  0  0  0  0  0  0  0  0  0
  -26.9547  -33.0086   24.5268 C   0  0  0  0  0  0  0  0  0  0  0  0
  -25.8436  -11.8753   20.7813 N   0  0  0  0  0  0  0  0  0  0  0  0
  -26.7795  -12.3410   19.9367 N   0  0  0  0  0  0  0  0  0  0  0  0
  -23.0019  -21.8151   21.0040 N   0  0  0  0  0  0  0  0  0  0  0  0
  -27.3524  -30.4956   21.7488 N   0  0  0  0  0  0  0  0  0  0  0  0
  -27.7215  -15.6197   21.6532 N   0  0  0  0  0  0  0  0  0  0  0  0
  -27.7289  -11.9976   17.7939 N   0  0  0  0  0  0  0  0  0  0  0  0
  -24.5687   -8.7823   18.0608 N   0  0  0  0  0  0  0  0  0  0  0  0
  -26.2955  -17.2306   20.6868 N   0  0  0  0  0  0  0  0  0  0  0  0
  -30.3650  -28.5001   21.2599 N   0  0  0  0  0  0  0  0  0  0  0  0
  -25.3738  -32.7486   22.5679 N   0  0  0  0  0  0  0  0  0  0  0  0
  -21.8759  -32.5940   21.6686 N   0  3  0  0  0  0  0  0  0  0  0  0
  -24.7614  -23.3257   21.3296 O   0  0  0  0  0  0  0  0  0  0  0  0
  -26.2123   -9.6719   16.7319 O   0  0  0  0  0  0  0  0  0  0  0  0
  -28.8360  -28.8216   22.9866 O   0  0  0  0  0  0  0  0  0  0  0  0
  -28.4647  -32.4908   22.2160 O   0  0  0  0  0  0  0  0  0  0  0  0
  -23.5906  -31.9146   23.7934 O   0  0  0  0  0  0  0  0  0  0  0  0
  -28.2531  -17.8670   21.7565 O   0  0  0  0  0  0  0  0  0  0  0  0
  -21.1597   -7.8639   22.3692 O   0  0  0  0  0  0  0  0  0  0  0  0
  -23.5890  -25.8094   20.3597 O   0  0  0  0  0  0  0  0  0  1  0  0
  -22.3736   -2.8196   24.2361 F   0  0  0  0  0  0  0  0  0  0  0  0
  -22.4048  -19.6718   19.2981 F   0  0  0  0  0  0  0  0  0  0  0  0
  -20.7820   -7.2066   25.0278 F   0  0  0  0  0  0  0  0  0  0  0  0
  1  2  1  0  0  0  0
  1  5  2  0  0  0  0
  2  6  2  0  0  0  0
  3 10  2  0  0  0  0
  3 18  1  0  0  0  0
  4 11  1  0  0  0  0
  4 18  2  0  0  0  0
  5 20  1  0  0  0  0
  6 22  1  0  0  0  0
  7 12  2  0  0  0  0
  7 21  1  0  0  0  0
  8  9  2  0  0  0  0
  8 24  1  0  0  0  0
  9 25  1  0  0  0  0
 10 26  1  0  0  0  0
 11 26  2  0  0  0  0
 12 27  1  0  0  0  0
 13 14  2  0  0  0  0
 13 28  1  0  0  0  0
 14 29  1  0  0  0  0
 15 23  1  0  0  0  0
 15 27  2  0  0  0  0
 16 25  2  0  0  0  0
 16 30  1  0  0  0  0
 17 29  2  0  0  0  0
 17 31  1  0  0  0  0
 18 32  1  0  0  0  0
 19 32  1  0  0  0  0
 19 33  2  0  0  0  0
 19 35  1  0  0  0  0
 20 22  2  0  0  0  0
 20 40  1  0  0  0  0
 21 23  2  0  0  0  0
 21 41  1  0  0  0  0
 22 52  1  0  0  0  0
 23 42  1  0  0  0  0
 24 30  2  0  0  0  0
 24 67  1  0  0  0  0
 25 72  1  0  0  0  0
 26 82  1  0  0  0  0
 27 83  1  0  0  0  0
 28 31  2  0  0  0  0
 28 82  1  0  0  0  0
 29 84  1  0  0  0  0
 30 85  1  0  0  0  0
 31 86  1  0  0  0  0
 32 65  2  0  0  0  0
 33 66  1  0  0  0  0
 33 70  1  0  0  0  0
 34 53  1  0  0  0  0
 34 67  1  0  0  0  0
 34 76  2  0  0  0  0
 35 71  1  0  0  0  0
 35 77  2  0  0  0  0
 36 54  1  0  0  0  0
 36 73  1  0  0  0  0
 36 78  2  0  0  0  0
 37 62  1  0  0  0  0
 37 68  1  0  0  0  0
 37 79  2  0  0  0  0
 38 63  1  0  0  0  0
 38 74  1  0  0  0  0
 38 80  2  0  0  0  0
 39 69  1  0  0  0  0
 39 72  1  0  0  0  0
 39 81  2  0  0  0  0
 40 43  1  0  0  0  0
 41 54  1  0  0  0  0
 42 68  1  0  0  0  0
 43 46  1  0  0  0  0
 44 47  1  0  0  0  0
 44 49  1  0  0  0  0
 45 48  1  0  0  0  0
 45 50  1  0  0  0  0
 46 52  1  0  0  0  0
 47 53  1  0  0  0  0
 48 55  1  0  0  0  0
 49 67  1  0  0  0  0
 50 69  1  0  0  0  0
 51 55  1  0  0  0  0
 51 69  1  0  0  0  0
 52 73  1  0  0  0  0
 53 61  1  0  0  0  0
 54 68  1  0  0  0  0
 55 66  1  0  0  0  0
 56 63  1  0  0  0  0
 57 64  1  0  0  0  0
 58 64  1  0  0  0  0
 59 64  1  0  0  0  0
 60 75  1  0  0  0  0
 61 83  1  0  0  0  0
 62 64  1  0  0  0  0
 62 74  1  0  0  0  0
 63 75  1  0  0  0  0
 65 66  1  0  0  0  0
M  CHG  1  75   1
M  ISO  4  39 100  61 101  72 100  83 101
M  END
> <Batch ID>
0022

> <Smiles>
CNC(C)C(=O)NC(C(=O)N1Cc2cc([101O:1][101CH2:1]C3CCCN(c4ccc([100NH:0][100C:0](=O)N5CCCC(n6nc(-c7ccc(Oc8ccc(F)cc8F)cc7)c(C(N)=O)c6N)C5)cc4F)C3=O)ccc2CC1C(=O)NC1CCCc2ccccc21)C(C)(C)C

> <Shape>
0.247

> <Color>
0.088

> <Negative vol penalty>
0.000

$$$$

  -OEChem-04042321143D

 92100  0     1  0  0  0  0  0999 V2000
  -17.3875  -26.7655   26.1089 C   0  0  0  0  0  0  0  0  0  0  0  0
  -18.3314  -25.8532   25.6484 C   0  0  0  0  0  0  0  0  0  0  0  0
  -23.6177  -10.0724   22.3259 C   0  0  0  0  0  0  0  0  0  0  0  0
  -24.2823  -11.5727   24.0992 C   0  0  0  0  0  0  0  0  0  0  0  0
  -17.1622  -27.9484   25.4061 C   0  0  0  0  0  0  0  0  0  0  0  0
  -19.0499  -26.1228   24.4841 C   0  0  0  0  0  0  0  0  0  0  0  0
  -23.9889  -25.1165   24.9722 C   0  0  0  0  0  0  0  0  0  0  0  0
  -23.0345   -9.2213   23.2645 C   0  0  0  0  0  0  0  0  0  0  0  0
  -23.6990  -10.7215   25.0378 C   0  0  0  0  0  0  0  0  0  0  0  0
  -24.3772  -23.7798   24.8936 C   0  0  0  0  0  0  0  0  0  0  0  0
  -20.1751   -9.0826   25.0638 C   0  0  0  0  0  0  0  0  0  0  0  0
  -18.9069   -8.5762   24.7799 C   0  0  0  0  0  0  0  0  0  0  0  0
  -25.0500  -24.1162   22.6015 C   0  0  0  0  0  0  0  0  0  0  0  0
  -30.3597  -16.6968   23.6074 C   0  0  0  0  0  0  0  0  0  0  0  0
  -32.1778  -15.6824   24.8331 C   0  0  0  0  0  0  0  0  0  0  0  0
  -19.7836   -6.3269   24.8764 C   0  0  0  0  0  0  0  0  0  0  0  0
  -24.2416  -11.2481   22.7432 C   0  0  0  0  0  0  0  0  0  0  0  0
  -24.2293  -13.1985   21.0990 C   0  0  0  0  0  0  0  0  0  0  0  0
  -17.8851  -28.2371   24.2379 C   0  0  0  0  0  0  0  0  0  0  0  0
  -24.1184  -25.9618   23.8608 C   0  0  0  0  0  0  0  0  0  0  0  0
  -18.8331  -27.3101   23.7643 C   0  0  0  0  0  0  0  0  0  0  0  0
  -24.6650  -25.4639   22.6694 C   0  0  0  0  0  0  0  0  0  0  0  0
  -31.4916  -15.8822   23.6352 C   0  0  0  0  0  0  0  0  0  0  0  0
  -29.9140  -17.3117   24.7774 C   0  0  0  0  0  0  0  0  0  0  0  0
  -30.6002  -17.1119   25.9753 C   0  0  0  0  0  0  0  0  0  0  0  0
  -23.0751   -9.5458   24.6205 C   0  0  0  0  0  0  0  0  0  0  0  0
  -24.9051  -23.2787   23.7073 C   0  0  0  0  0  0  0  0  0  0  0  0
  -21.2476   -8.2113   25.2540 C   0  0  0  0  0  0  0  0  0  0  0  0
  -18.7111   -7.1983   24.6862 C   0  0  0  0  0  0  0  0  0  0  0  0
  -21.0518   -6.8334   25.1603 C   0  0  0  0  0  0  0  0  0  0  0  0
  -31.7321  -16.2973   26.0031 C   0  0  0  0  0  0  0  0  0  0  0  0
  -24.8448  -12.1275   21.7742 C   0  0  0  0  0  0  0  0  0  0  0  0
  -25.2180  -13.7116   20.2956 C   0  0  0  0  0  0  0  0  0  0  0  0
  -22.8840  -13.6861   21.1901 C   0  0  0  0  0  0  0  0  0  0  0  0
  -22.0942  -27.6182   22.0545 C   0  0  0  0  0  0  0  0  0  0  0  0
  -24.8238  -28.7472   20.7141 C   0  0  0  0  0  0  0  0  0  0  0  0
  -26.5176  -18.0126   23.5222 C   0  0  0  0  0  0  0  0  0  0  0  0
  -28.1400  -28.2767   20.0597 C   0  0  0  0  0  0  0  0  0  0  0  0
  -31.1955  -13.6404   20.6362 C   0  0  0  0  0  0  0  0  0  0  0  0
  -17.5731  -29.5069   23.4863 C   0  0  0  0  0  0  0  0  0  0  0  0
  -23.7198  -27.4080   23.9700 C   0  0  0  0  0  0  0  0  0  0  0  0
  -24.8437  -26.3352   21.4539 C   0  0  0  0  0  0  0  0  0  0  0  0
  -18.6431  -29.8901   22.4672 C   0  0  0  0  0  0  0  0  0  0  0  0
  -29.1891  -12.4228   17.9587 C   0  0  0  0  0  0  0  0  0  0  0  0
  -19.0469  -28.6769   21.6354 C   0  0  0  0  0  0  0  0  0  0  0  0
  -27.7927  -12.3057   18.5721 C   0  0  0  0  0  0  0  0  0  0  0  0
  -30.2794  -12.0588   18.9641 C   0  0  0  0  0  0  0  0  0  0  0  0
  -28.8225  -12.6819   20.8517 C   0  0  0  0  0  0  0  0  0  0  0  0
  -19.6501  -27.5782   22.5190 C   0  0  1  0  0  0  0  0  0  0  0  0
  -23.4187  -28.0485   22.6185 C   0  0  1  0  0  0  0  0  0  0  0  0
  -27.6923  -13.0929   19.8925 C   0  0  2  0  0  0  0  0  0  0  0  0
  -25.7650  -17.1604   22.5612 C   0  0  0  0  0  0  0  0  0  0  0  0
  -29.7230  -15.7839   28.5222 C   0  0  0  0  0  0  0  0  0  0  0  0
  -31.3123  -19.0169   28.8489 C   0  0  0  0  0  0  0  0  0  0  0  0
  -30.0937  -29.3549   18.9117 C   0  0  0  0  0  0  0  0  0  0  0  0
  -23.6941  -27.9066   18.0072 C   0  0  0  0  0  0  0  0  0  0  0  0
  -26.0011  -28.1162   17.0575 C   0  0  0  0  0  0  0  0  0  0  0  0
  -24.8594  -30.1194   18.0096 C   0  0  0  0  0  0  0  0  0  0  0  0
  -27.4199  -16.0067   24.6015 C   0  0  0  0  0  0  0  0  0  0  0  0
  -29.6732  -28.4561   22.5848 C   0  0  0  0  0  0  0  0  0  0  0  0
  -31.9667  -15.2251   22.3835 C   0  0  0  0  0  0  0  0  0  0  0  0
  -28.6928  -18.1827   24.7143 C   0  0  0  0  0  0  0  0  0  0  0  0
  -29.1800  -17.0746   28.0104 C   0  0  0  0  0  0  0  0  0  0  0  0
  -30.6302  -19.0515   27.5236 C   0  0  0  0  0  0  0  0  0  0  0  0
  -26.7886  -20.3139   24.4863 C   0  0  0  0  0  0  0  0  0  0  0  0
  -25.7446  -21.3571   24.8292 C   0  0  0  0  0  0  0  0  0  1  0  0
  -25.7087  -28.3191   19.5684 C   0  0  1  0  0  0  0  0  0  0  0  0
  -29.3388  -29.1938   20.2220 C   0  0  2  0  0  0  0  0  0  0  0  0
  -25.0608  -28.5981   18.1828 C   0  0  0  0  0  0  0  0  0  0  0  0
  -26.1253  -11.9684   21.4295 N   0  0  0  0  0  0  0  0  0  0  0  0
  -26.3226  -12.9462   20.5289 N   0  0  0  0  0  0  0  0  0  0  0  0
  -24.4332  -27.7406   21.6085 N   0  0  0  0  0  0  0  0  0  0  0  0
  -30.1285  -12.8415   20.1931 N   0  0  0  0  0  0  0  0  0  0  0  0
  -25.2417  -14.7381   19.4192 N   0  0  0  0  0  0  0  0  0  0  0  0
  -21.9980  -13.0430   22.0652 N   0  0  0  0  0  0  0  0  0  0  0  0
  -21.0158  -27.9046   22.8697 N   0  0  0  0  0  0  0  0  0  0  0  0
  -26.9914  -28.9835   19.7729 N   0  0  0  0  0  0  0  0  0  0  0  0
  -30.9669  -14.3547   21.8059 N   0  0  0  0  0  0  0  0  0  0  0  0
  -30.1380  -17.7415   27.1554 N   0  0  0  0  0  0  0  0  0  0  0  0
  -27.5060  -17.4380   24.2442 N   0  0  0  0  0  0  0  0  0  0  0  0
  -26.1804  -19.3084   23.6115 N   0  3  0  0  0  0  0  0  0  0  0  0
  -30.2774  -28.6440   21.2407 N   0  3  0  0  0  0  0  0  0  0  0  0
  -22.4751  -14.6528   20.5032 O   0  0  0  0  0  0  0  0  0  0  0  0
  -22.0535  -27.0684   20.9601 O   0  0  0  0  0  0  0  0  0  0  0  0
  -24.4972  -29.9323   20.8158 O   0  0  0  0  0  0  0  0  0  0  0  0
  -28.2158  -27.0551   20.1721 O   0  0  0  0  0  0  0  0  0  0  0  0
  -32.2702  -13.7160   20.0310 O   0  0  0  0  0  0  0  0  0  0  0  0
  -22.5059   -8.7156   25.5366 O   0  0  0  0  0  0  0  0  0  0  0  0
  -25.2842  -21.9742   23.6276 O   0  0  0  0  0  0  0  0  0  1  0  0
  -17.4928   -6.7120   24.4150 F   0  0  0  0  0  0  0  0  0  0  0  0
  -22.0781   -5.9913   25.3432 F   0  0  0  0  0  0  0  0  0  0  0  0
  -32.6125  -16.0206   27.4641 Cl  0  0  0  0  0  0  0  0  0  0  0  0
  1  2  1  0  0  0  0
  1  5  2  0  0  0  0
  2  6  2  0  0  0  0
  3  8  2  0  0  0  0
  3 17  1  0  0  0  0
  4  9  1  0  0  0  0
  4 17  2  0  0  0  0
  5 19  1  0  0  0  0
  6 21  1  0  0  0  0
  7 10  2  0  0  0  0
  7 20  1  0  0  0  0
  8 26  1  0  0  0  0
  9 26  2  0  0  0  0
 10 27  1  0  0  0  0
 11 12  2  0  0  0  0
 11 28  1  0  0  0  0
 12 29  1  0  0  0  0
 13 22  1  0  0  0  0
 13 27  2  0  0  0  0
 14 23  2  0  0  0  0
 14 24  1  0  0  0  0
 15 23  1  0  0  0  0
 15 31  2  0  0  0  0
 16 29  2  0  0  0  0
 16 30  1  0  0  0  0
 17 32  1  0  0  0  0
 18 32  1  0  0  0  0
 18 33  2  0  0  0  0
 18 34  1  0  0  0  0
 19 21  2  0  0  0  0
 19 40  1  0  0  0  0
 20 22  2  0  0  0  0
 20 41  1  0  0  0  0
 21 49  1  0  0  0  0
 22 42  1  0  0  0  0
 23 61  1  0  0  0  0
 24 25  2  0  0  0  0
 24 62  1  0  0  0  0
 25 31  1  0  0  0  0
 25 79  1  0  0  0  0
 26 88  1  0  0  0  0
 27 89  1  0  0  0  0
 28 30  2  0  0  0  0
 28 88  1  0  0  0  0
 29 90  1  0  0  0  0
 30 91  1  0  0  0  0
 31 92  1  0  0  0  0
 32 70  2  0  0  0  0
 33 71  1  0  0  0  0
 33 74  1  0  0  0  0
 34 75  1  0  0  0  0
 34 83  2  0  0  0  0
 35 50  1  0  0  0  0
 35 76  1  0  0  0  0
 35 84  2  0  0  0  0
 36 67  1  0  0  0  0
 36 72  1  0  0  0  0
 36 85  2  0  0  0  0
 37 52  1  0  0  0  0
 37 80  1  0  0  0  0
 37 81  2  0  0  0  0
 38 68  1  0  0  0  0
 38 77  1  0  0  0  0
 38 86  2  0  0  0  0
 39 73  1  0  0  0  0
 39 78  1  0  0  0  0
 39 87  2  0  0  0  0
 40 43  1  0  0  0  0
 41 50  1  0  0  0  0
 42 72  1  0  0  0  0
 43 45  1  0  0  0  0
 44 46  1  0  0  0  0
 44 47  1  0  0  0  0
 45 49  1  0  0  0  0
 46 51  1  0  0  0  0
 47 73  1  0  0  0  0
 48 51  1  0  0  0  0
 48 73  1  0  0  0  0
 49 76  1  0  0  0  0
 50 72  1  0  0  0  0
 51 71  1  0  0  0  0
 53 63  1  0  0  0  0
 54 64  1  0  0  0  0
 55 68  1  0  0  0  0
 56 69  1  0  0  0  0
 57 69  1  0  0  0  0
 58 69  1  0  0  0  0
 59 80  1  0  0  0  0
 60 82  1  0  0  0  0
 61 78  1  0  0  0  0
 62 80  1  0  0  0  0
 63 79  1  0  0  0  0
 64 79  1  0  0  0  0
 65 66  1  0  0  0  0
 65 81  1  0  0  0  0
 66 89  1  0  0  0  0
 67 69  1  0  0  0  0
 67 77  1  0  0  0  0
 68 82  1  0  0  0  0
 70 71  1  0  0  0  0
M  CHG  2  81   1  82   1
M  ISO  4  39 100  66 101  78 100  89 101
M  END
> <Batch ID>
0022

> <Smiles>
CCN(CC)c1c(Cl)cc(C[100NH:0][100C:0](=O)N2CCCC(n3nc(-c4ccc(Oc5ccc(F)cc5F)cc4)c(C(N)=O)c3N)C2)cc1CN(C)C(C)=NC[101CH2:1][101O:1]c1ccc2c(c1)CN(C(=O)C(NC(=O)C(C)NC)C(C)(C)C)C(C(=O)NC1CCCc3ccccc31)C2

> <Shape>
0.212

> <Color>
0.128

> <Negative vol penalty>
0.000

$$$$

  -OEChem-04042321143D

 87 96  0     1  0  0  0  0  0999 V2000
  -30.3740  -26.2750   16.6404 C   0  0  0  0  0  0  0  0  0  0  0  0
  -28.9882  -26.2310   16.7544 C   0  0  0  0  0  0  0  0  0  0  0  0
  -25.4641  -13.8880   21.7928 C   0  0  0  0  0  0  0  0  0  0  0  0
  -24.4127  -13.3968   19.6738 C   0  0  0  0  0  0  0  0  0  0  0  0
  -31.1507  -26.6540   17.7345 C   0  0  0  0  0  0  0  0  0  0  0  0
  -28.3782  -26.5651   17.9630 C   0  0  0  0  0  0  0  0  0  0  0  0
  -22.9972  -29.3911   18.7138 C   0  0  0  0  0  0  0  0  0  0  0  0
  -21.7431  -23.6483   21.8489 C   0  0  0  0  0  0  0  0  0  0  0  0
  -20.6813  -24.5527   21.8606 C   0  0  0  0  0  0  0  0  0  0  0  0
  -26.0196  -12.6088   21.8138 C   0  0  0  0  0  0  0  0  0  0  0  0
  -24.9683  -12.1176   19.6946 C   0  0  0  0  0  0  0  0  0  0  0  0
  -21.7176  -28.9131   18.9927 C   0  0  0  0  0  0  0  0  0  0  0  0
  -25.8152   -8.5986   19.3631 C   0  0  0  0  0  0  0  0  0  0  0  0
  -24.9888   -7.5273   19.0242 C   0  0  0  0  0  0  0  0  0  0  0  0
  -22.0704  -29.3545   21.3379 C   0  0  0  0  0  0  0  0  0  0  0  0
  -23.5177   -8.0817   20.8587 C   0  0  0  0  0  0  0  0  0  0  0  0
  -24.6605  -14.2820   20.7229 C   0  0  0  0  0  0  0  0  0  0  0  0
  -23.2062  -16.1633   21.6466 C   0  0  0  0  0  0  0  0  0  0  0  0
  -30.5494  -27.0021   18.9543 C   0  0  0  0  0  0  0  0  0  0  0  0
  -23.8285  -29.8450   19.7478 C   0  0  0  0  0  0  0  0  0  0  0  0
  -29.1476  -26.9478   19.0749 C   0  0  0  0  0  0  0  0  0  0  0  0
  -23.3592  -29.8401   21.0691 C   0  0  0  0  0  0  0  0  0  0  0  0
  -22.1550  -23.0717   20.6474 C   0  0  0  0  0  0  0  0  0  0  0  0
  -21.5051  -23.3995   19.4576 C   0  0  0  0  0  0  0  0  0  0  0  0
  -20.0314  -24.8806   20.6707 C   0  0  0  0  0  0  0  0  0  0  0  0
  -25.7718  -11.7235   20.7647 C   0  0  0  0  0  0  0  0  0  0  0  0
  -21.2550  -28.8921   20.3052 C   0  0  0  0  0  0  0  0  0  0  0  0
  -25.4929   -9.4115   20.4499 C   0  0  0  0  0  0  0  0  0  0  0  0
  -23.8401   -7.2688   19.7720 C   0  0  0  0  0  0  0  0  0  0  0  0
  -24.3442   -9.1531   21.1977 C   0  0  0  0  0  0  0  0  0  0  0  0
  -20.4432  -24.3040   19.4692 C   0  0  0  0  0  0  0  0  0  0  0  0
  -24.0859  -15.6032   20.7010 C   0  0  0  0  0  0  0  0  0  0  0  0
  -22.9559  -17.4289   21.1752 C   0  0  0  0  0  0  0  0  0  0  0  0
  -22.6639  -15.5909   22.8440 C   0  0  0  0  0  0  0  0  0  0  0  0
  -26.6486  -28.9547   20.9133 C   0  0  0  0  0  0  0  0  0  0  0  0
  -26.3108  -31.6305   22.7157 C   0  0  0  0  0  0  0  0  0  0  0  0
  -24.2193  -33.9324   24.1206 C   0  0  0  0  0  0  0  0  0  0  0  0
  -25.2553  -22.1795   19.0629 C   0  0  0  0  0  0  0  0  0  0  0  0
  -31.4329  -27.3598   20.1231 C   0  0  0  0  0  0  0  0  0  0  0  0
  -25.1963  -30.3825   19.4273 C   0  0  0  0  0  0  0  0  0  0  0  0
  -24.2049  -30.3352   22.2129 C   0  0  0  0  0  0  0  0  0  0  0  0
  -30.6887  -28.0599   21.2573 C   0  0  0  0  0  0  0  0  0  0  0  0
  -24.0262  -19.5786   16.7335 C   0  0  0  0  0  0  0  0  0  0  0  0
  -16.7188  -26.3624   20.4419 C   0  0  0  0  0  0  0  0  0  0  0  0
  -29.3878  -27.3289   21.5735 C   0  0  0  0  0  0  0  0  0  0  0  0
  -23.9317  -18.3456   17.6307 C   0  0  0  0  0  0  0  0  0  0  0  0
  -17.3950  -27.4287   21.2853 C   0  0  0  0  0  0  0  0  0  0  0  0
  -17.8854  -25.6998   19.7193 C   0  0  0  0  0  0  0  0  0  0  0  0
  -25.0992  -20.5500   17.2157 C   0  0  0  0  0  0  0  0  0  0  0  0
  -24.8496  -19.7288   19.5346 C   0  0  0  0  0  0  0  0  0  0  0  0
  -28.4477  -27.3268   20.3620 C   0  0  1  0  0  0  0  0  0  0  0  0
  -26.1489  -30.3406   20.6182 C   0  0  1  0  0  0  0  0  0  0  0  0
  -23.7459  -18.7515   19.1031 C   0  0  2  0  0  0  0  0  0  0  0  0
  -18.7078  -26.7656   21.7373 C   0  0  2  0  0  0  0  0  0  0  0  0
  -21.9302  -22.7908   18.1616 C   0  0  0  0  0  0  0  0  0  0  0  0
  -24.2332  -35.9809   25.5701 C   0  0  0  0  0  0  0  0  0  0  0  0
  -26.7960  -29.8863   25.1718 C   0  0  0  0  0  0  0  0  0  0  0  0
  -25.8728  -31.7372   26.5824 C   0  0  0  0  0  0  0  0  0  0  0  0
  -27.9358  -32.1115   25.2309 C   0  0  0  0  0  0  0  0  0  0  0  0
  -24.8261  -24.0398   20.6232 C   0  0  0  0  0  0  0  0  0  0  0  0
  -23.0121  -35.5915   21.9877 C   0  0  0  0  0  0  0  0  0  0  0  0
  -23.2944  -22.1063   20.6604 C   0  0  0  0  0  0  0  0  0  0  0  0
  -19.8074  -27.8161   21.8552 C   0  0  0  0  0  0  0  0  0  1  0  0
  -25.7010  -31.9436   24.0607 C   0  0  1  0  0  0  0  0  0  0  0  0
  -24.2623  -35.4497   24.1454 C   0  0  2  0  0  0  0  0  0  0  0  0
  -26.5610  -31.4084   25.2403 C   0  0  0  0  0  0  0  0  0  0  0  0
  -24.3749  -16.4439   19.7041 N   0  0  0  0  0  0  0  0  0  0  0  0
  -23.6727  -17.5452   20.0207 N   0  0  0  0  0  0  0  0  0  0  0  0
  -18.9796  -25.7749   20.6862 N   0  0  3  0  0  0  0  0  0  0  0  0
  -25.5372  -30.8452   21.8492 N   0  0  0  0  0  0  0  0  0  0  0  0
  -24.9240  -20.8853   18.6293 N   0  0  0  0  0  0  0  0  0  0  0  0
  -22.1948  -18.4424   21.6397 N   0  0  0  0  0  0  0  0  0  0  0  0
  -21.4499  -14.8955   22.7617 N   0  0  0  0  0  0  0  0  0  0  0  0
  -27.7968  -28.6121   20.2251 N   0  0  0  0  0  0  0  0  0  0  0  0
  -25.4849  -33.3862   24.0851 N   0  0  0  0  0  0  0  0  0  0  0  0
  -24.5272  -22.6976   20.1446 N   0  0  0  0  0  0  0  0  0  0  0  0
  -23.0950  -36.0130   23.4098 N   0  3  0  0  0  0  0  0  0  0  0  0
  -23.2306  -15.7072   23.9571 O   0  0  0  0  0  0  0  0  0  0  0  0
  -26.0384  -28.2489   21.7079 O   0  0  0  0  0  0  0  0  0  0  0  0
  -27.4292  -32.0725   22.4411 O   0  0  0  0  0  0  0  0  0  0  0  0
  -23.1683  -33.2955   24.1352 O   0  0  0  0  0  0  0  0  0  0  0  0
  -26.1444  -22.8382   18.5083 O   0  0  0  0  0  0  0  0  0  0  0  0
  -26.3140  -10.4753   20.7846 O   0  0  0  0  0  0  0  0  0  0  0  0
  -20.0067  -28.4254   20.5803 O   0  0  0  0  0  0  0  0  0  1  0  0
  -23.0458   -6.2409   19.4455 F   0  0  0  0  0  0  0  0  0  0  0  0
  -24.0287   -9.9312   22.2421 F   0  0  0  0  0  0  0  0  0  0  0  0
  -19.8172  -24.6180   18.3248 F   0  0  0  0  0  0  0  0  0  0  0  0
  1  2  1  0  0  0  0
  1  5  2  0  0  0  0
  2  6  2  0  0  0  0
  3 10  2  0  0  0  0
  3 17  1  0  0  0  0
  4 11  1  0  0  0  0
  4 17  2  0  0  0  0
  5 19  1  0  0  0  0
  6 21  1  0  0  0  0
  7 12  2  0  0  0  0
  7 20  1  0  0  0  0
  8  9  2  0  0  0  0
  8 23  1  0  0  0  0
  9 25  1  0  0  0  0
 10 26  1  0  0  0  0
 11 26  2  0  0  0  0
 12 27  1  0  0  0  0
 13 14  2  0  0  0  0
 13 28  1  0  0  0  0
 14 29  1  0  0  0  0
 15 22  1  0  0  0  0
 15 27  2  0  0  0  0
 16 29  2  0  0  0  0
 16 30  1  0  0  0  0
 17 32  1  0  0  0  0
 18 32  1  0  0  0  0
 18 33  2  0  0  0  0
 18 34  1  0  0  0  0
 19 21  2  0  0  0  0
 19 39  1  0  0  0  0
 20 22  2  0  0  0  0
 20 40  1  0  0  0  0
 21 51  1  0  0  0  0
 22 41  1  0  0  0  0
 23 24  2  0  0  0  0
 23 62  1  0  0  0  0
 24 31  1  0  0  0  0
 24 55  1  0  0  0  0
 25 31  2  0  0  0  0
 25 69  1  0  0  0  0
 26 83  1  0  0  0  0
 27 84  1  0  0  0  0
 28 30  2  0  0  0  0
 28 83  1  0  0  0  0
 29 85  1  0  0  0  0
 30 86  1  0  0  0  0
 31 87  1  0  0  0  0
 32 67  2  0  0  0  0
 33 68  1  0  0  0  0
 33 72  1  0  0  0  0
 34 73  1  0  0  0  0
 34 78  2  0  0  0  0
 35 52  1  0  0  0  0
 35 74  1  0  0  0  0
 35 79  2  0  0  0  0
 36 64  1  0  0  0  0
 36 70  1  0  0  0  0
 36 80  2  0  0  0  0
 37 65  1  0  0  0  0
 37 75  1  0  0  0  0
 37 81  2  0  0  0  0
 38 71  1  0  0  0  0
 38 76  1  0  0  0  0
 38 82  2  0  0  0  0
 39 42  1  0  0  0  0
 40 52  1  0  0  0  0
 41 70  1  0  0  0  0
 42 45  1  0  0  0  0
 43 46  1  0  0  0  0
 43 49  1  0  0  0  0
 44 47  1  0  0  0  0
 44 48  1  0  0  0  0
 45 51  1  0  0  0  0
 46 53  1  0  0  0  0
 47 54  1  0  0  0  0
 48 69  1  0  0  0  0
 49 71  1  0  0  0  0
 50 53  1  0  0  0  0
 50 71  1  0  0  0  0
 51 74  1  0  0  0  0
 52 70  1  0  0  0  0
 53 68  1  0  0  0  0
 54 63  1  0  0  0  0
 54 69  1  0  0  0  0
 56 65  1  0  0  0  0
 57 66  1  0  0  0  0
 58 66  1  0  0  0  0
 59 66  1  0  0  0  0
 60 76  1  0  0  0  0
 61 77  1  0  0  0  0
 62 76  1  0  0  0  0
 63 84  1  0  0  0  0
 64 66  1  0  0  0  0
 64 75  1  0  0  0  0
 65 77  1  0  0  0  0
 67 68  1  0  0  0  0
M  CHG  1  77   1
M  ISO  4  38 100  63 101  76 100  84 101
M  END
> <Batch ID>
0022

> <Smiles>
CNC(C)C(=O)NC(C(=O)N1Cc2cc([101O:1][101CH2:1]C3CCCN3c3ccc(C[100N:0](C)[100C:0](=O)N4CCCC(n5nc(-c6ccc(Oc7ccc(F)cc7F)cc6)c(C(N)=O)c5N)C4)c(C)c3F)ccc2CC1C(=O)NC1CCCc2ccccc21)C(C)(C)C

> <Shape>
0.251

> <Color>
0.079

> <Negative vol penalty>
0.000

$$$$

  -OEChem-04042321143D

 87 96  0     1  0  0  0  0  0999 V2000
  -34.2148  -17.3013   23.6201 C   0  0  0  0  0  0  0  0  0  0  0  0
  -23.5092  -29.5810   23.4368 C   0  0  0  0  0  0  0  0  0  0  0  0
  -24.5005  -28.6908   23.8373 C   0  0  0  0  0  0  0  0  0  0  0  0
  -23.0415   -9.9611   19.9204 C   0  0  0  0  0  0  0  0  0  0  0  0
  -23.8378   -9.8868   22.2003 C   0  0  0  0  0  0  0  0  0  0  0  0
  -23.3344  -29.8648   22.0830 C   0  0  0  0  0  0  0  0  0  0  0  0
  -25.3169  -28.0832   22.8840 C   0  0  0  0  0  0  0  0  0  0  0  0
  -31.2294  -26.6110   23.5008 C   0  0  0  0  0  0  0  0  0  0  0  0
  -22.2842   -8.8120   20.1475 C   0  0  0  0  0  0  0  0  0  0  0  0
  -23.0804   -8.7376   22.4273 C   0  0  0  0  0  0  0  0  0  0  0  0
  -31.8702  -25.4118   23.8091 C   0  0  0  0  0  0  0  0  0  0  0  0
  -19.3476   -8.0150   21.6219 C   0  0  0  0  0  0  0  0  0  0  0  0
  -18.0326   -8.0029   21.1569 C   0  0  0  0  0  0  0  0  0  0  0  0
  -32.1708  -16.4850   22.5837 C   0  0  0  0  0  0  0  0  0  0  0  0
  -32.1980  -24.9892   21.4569 C   0  0  0  0  0  0  0  0  0  0  0  0
  -30.6281  -18.1962   24.1567 C   0  0  0  0  0  0  0  0  0  0  0  0
  -18.5416   -6.0931   19.7674 C   0  0  0  0  0  0  0  0  0  0  0  0
  -32.7878  -17.3319   23.5044 C   0  0  0  0  0  0  0  0  0  0  0  0
  -23.8184  -10.4985   20.9468 C   0  0  0  0  0  0  0  0  0  0  0  0
  -24.1967  -13.0208   20.8978 C   0  0  0  0  0  0  0  0  0  0  0  0
  -24.1553  -29.2677   21.1134 C   0  0  0  0  0  0  0  0  0  0  0  0
  -31.0581  -27.0037   22.1656 C   0  0  0  0  0  0  0  0  0  0  0  0
  -25.1520  -28.3583   21.5159 C   0  0  0  0  0  0  0  0  0  0  0  0
  -31.5569  -26.1950   21.1343 C   0  0  0  0  0  0  0  0  0  0  0  0
  -32.0165  -18.1875   24.2909 C   0  0  0  0  0  0  0  0  0  0  0  0
  -30.7824  -16.4938   22.4494 C   0  0  0  0  0  0  0  0  0  0  0  0
  -22.3036   -8.2002   21.4009 C   0  0  0  0  0  0  0  0  0  0  0  0
  -32.3521  -24.5993   22.7870 C   0  0  0  0  0  0  0  0  0  0  0  0
  -20.2596   -7.0662   21.1596 C   0  0  0  0  0  0  0  0  0  0  0  0
  -17.6296   -7.0419   20.2296 C   0  0  0  0  0  0  0  0  0  0  0  0
  -30.0111  -17.3494   23.2359 C   0  0  0  0  0  0  0  0  0  0  0  0
  -19.8566   -6.1052   20.2324 C   0  0  0  0  0  0  0  0  0  0  0  0
  -24.6013  -11.6852   20.7128 C   0  0  0  0  0  0  0  0  0  0  0  0
  -25.2943  -13.7648   20.5397 C   0  0  0  0  0  0  0  0  0  0  0  0
  -22.9410  -13.5423   21.3529 C   0  0  0  0  0  0  0  0  0  0  0  0
  -28.5489  -27.5657   20.2970 C   0  0  0  0  0  0  0  0  0  0  0  0
  -30.8229  -28.5268   18.1928 C   0  0  0  0  0  0  0  0  0  0  0  0
  -34.0702  -28.3549   17.1574 C   0  0  0  0  0  0  0  0  0  0  0  0
  -30.7778  -14.7238   20.6567 C   0  0  0  0  0  0  0  0  0  0  0  0
  -23.8975  -29.5693   19.6583 C   0  0  0  0  0  0  0  0  0  0  0  0
  -30.3884  -28.3131   21.8505 C   0  0  0  0  0  0  0  0  0  0  0  0
  -31.4165  -26.5812   19.6853 C   0  0  0  0  0  0  0  0  0  0  0  0
  -25.0498  -29.1702   18.7401 C   0  0  0  0  0  0  0  0  0  0  0  0
  -29.5893  -12.4002   18.2349 C   0  0  0  0  0  0  0  0  0  0  0  0
  -33.2817  -19.6294   27.3763 C   0  0  0  0  0  0  0  0  0  0  0  0
  -25.5396  -27.7656   19.0778 C   0  0  0  0  0  0  0  0  0  0  0  0
  -28.1524  -12.1169   18.6789 C   0  0  0  0  0  0  0  0  0  0  0  0
  -33.2021  -20.8952   26.5433 C   0  0  0  0  0  0  0  0  0  0  0  0
  -33.4107  -18.5373   26.3202 C   0  0  0  0  0  0  0  0  0  0  0  0
  -30.5268  -12.5787   19.4278 C   0  0  0  0  0  0  0  0  0  0  0  0
  -28.6532  -13.2887   20.8614 C   0  0  0  0  0  0  0  0  0  0  0  0
  -26.0737  -27.6980   20.5136 C   0  0  1  0  0  0  0  0  0  0  0  0
  -29.8130  -28.3655   20.4386 C   0  0  1  0  0  0  0  0  0  0  0  0
  -27.6593  -13.1658   19.6949 C   0  0  2  0  0  0  0  0  0  0  0  0
  -32.3450  -20.4794   25.3342 C   0  0  1  0  0  0  0  0  0  0  0  0
  -35.6216  -29.2227   15.3860 C   0  0  0  0  0  0  0  0  0  0  0  0
  -29.5905  -26.6003   16.1731 C   0  0  0  0  0  0  0  0  0  0  0  0
  -31.6846  -26.7946   14.8147 C   0  0  0  0  0  0  0  0  0  0  0  0
  -30.2737  -28.8107   15.2237 C   0  0  0  0  0  0  0  0  0  0  0  0
  -35.8092  -29.6681   19.1600 C   0  0  0  0  0  0  0  0  0  0  0  0
  -32.7751  -21.2635   24.0987 C   0  0  0  0  0  0  0  0  0  0  0  0
  -32.5704  -22.7599   24.2786 C   0  0  0  0  0  0  0  0  0  1  0  0
  -31.6417  -27.8498   17.1203 C   0  0  1  0  0  0  0  0  0  0  0  0
  -35.0677  -29.4373   16.7860 C   0  0  2  0  0  0  0  0  0  0  0  0
  -30.7987  -27.5054   15.8601 C   0  0  0  0  0  0  0  0  0  0  0  0
  -35.3713  -17.2765   23.7137 N   0  0  0  0  0  0  0  0  0  0  0  0
  -25.8578  -11.5835   20.2712 N   0  0  0  0  0  0  0  0  0  0  0  0
  -26.2521  -12.8647   20.1757 N   0  0  0  0  0  0  0  0  0  0  0  0
  -32.6003  -19.0367   25.2093 N   0  0  3  0  0  0  0  0  0  0  0  0
  -30.7486  -27.8678   19.4281 N   0  0  0  0  0  0  0  0  0  0  0  0
  -29.9976  -13.5903   20.3450 N   0  0  0  0  0  0  0  0  0  0  0  0
  -25.5238  -15.0947   20.5036 N   0  0  0  0  0  0  0  0  0  0  0  0
  -21.9209  -12.6383   21.6789 N   0  0  0  0  0  0  0  0  0  0  0  0
  -30.1577  -15.6329   21.5133 N   0  0  0  0  0  0  0  0  0  0  0  0
  -27.3990  -28.2747   20.5876 N   0  0  0  0  0  0  0  0  0  0  0  0
  -32.7769  -28.7278   16.8582 N   0  0  0  0  0  0  0  0  0  0  0  0
  -36.2072  -29.4432   17.7465 N   0  3  0  0  0  0  0  0  0  0  0  0
  -22.7245  -14.7739   21.4514 O   0  0  0  0  0  0  0  0  0  0  0  0
  -28.6120  -26.3926   19.9483 O   0  0  0  0  0  0  0  0  0  0  0  0
  -30.2755  -29.6043   17.9460 O   0  0  0  0  0  0  0  0  0  0  0  0
  -34.4052  -27.2841   17.6590 O   0  0  0  0  0  0  0  0  0  0  0  0
  -31.9018  -14.8901   20.1761 O   0  0  0  0  0  0  0  0  0  0  0  0
  -21.5646   -7.0790   21.6228 O   0  0  0  0  0  0  0  0  0  0  0  0
  -32.9774  -23.4280   23.0852 O   0  0  0  0  0  0  0  0  0  1  0  0
  -16.3664   -7.0295   19.7843 F   0  0  0  0  0  0  0  0  0  0  0  0
  -28.6759  -17.3663   23.1156 F   0  0  0  0  0  0  0  0  0  0  0  0
  -20.7279   -5.1904   19.7855 F   0  0  0  0  0  0  0  0  0  0  0  0
  1 18  1  0  0  0  0
  1 66  3  0  0  0  0
  2  3  1  0  0  0  0
  2  6  2  0  0  0  0
  3  7  2  0  0  0  0
  4  9  2  0  0  0  0
  4 19  1  0  0  0  0
  5 10  1  0  0  0  0
  5 19  2  0  0  0  0
  6 21  1  0  0  0  0
  7 23  1  0  0  0  0
  8 11  2  0  0  0  0
  8 22  1  0  0  0  0
  9 27  1  0  0  0  0
 10 27  2  0  0  0  0
 11 28  1  0  0  0  0
 12 13  2  0  0  0  0
 12 29  1  0  0  0  0
 13 30  1  0  0  0  0
 14 18  1  0  0  0  0
 14 26  2  0  0  0  0
 15 24  1  0  0  0  0
 15 28  2  0  0  0  0
 16 25  1  0  0  0  0
 16 31  2  0  0  0  0
 17 30  2  0  0  0  0
 17 32  1  0  0  0  0
 18 25  2  0  0  0  0
 19 33  1  0  0  0  0
 20 33  1  0  0  0  0
 20 34  2  0  0  0  0
 20 35  1  0  0  0  0
 21 23  2  0  0  0  0
 21 40  1  0  0  0  0
 22 24  2  0  0  0  0
 22 41  1  0  0  0  0
 23 52  1  0  0  0  0
 24 42  1  0  0  0  0
 25 69  1  0  0  0  0
 26 31  1  0  0  0  0
 26 74  1  0  0  0  0
 27 83  1  0  0  0  0
 28 84  1  0  0  0  0
 29 32  2  0  0  0  0
 29 83  1  0  0  0  0
 30 85  1  0  0  0  0
 31 86  1  0  0  0  0
 32 87  1  0  0  0  0
 33 67  2  0  0  0  0
 34 68  1  0  0  0  0
 34 72  1  0  0  0  0
 35 73  1  0  0  0  0
 35 78  2  0  0  0  0
 36 53  1  0  0  0  0
 36 75  1  0  0  0  0
 36 79  2  0  0  0  0
 37 63  1  0  0  0  0
 37 70  1  0  0  0  0
 37 80  2  0  0  0  0
 38 64  1  0  0  0  0
 38 76  1  0  0  0  0
 38 81  2  0  0  0  0
 39 71  1  0  0  0  0
 39 74  1  0  0  0  0
 39 82  2  0  0  0  0
 40 43  1  0  0  0  0
 41 53  1  0  0  0  0
 42 70  1  0  0  0  0
 43 46  1  0  0  0  0
 44 47  1  0  0  0  0
 44 50  1  0  0  0  0
 45 48  1  0  0  0  0
 45 49  1  0  0  0  0
 46 52  1  0  0  0  0
 47 54  1  0  0  0  0
 48 55  1  0  0  0  0
 49 69  1  0  0  0  0
 50 71  1  0  0  0  0
 51 54  1  0  0  0  0
 51 71  1  0  0  0  0
 52 75  1  0  0  0  0
 53 70  1  0  0  0  0
 54 68  1  0  0  0  0
 55 61  1  0  0  0  0
 55 69  1  0  0  0  0
 56 64  1  0  0  0  0
 57 65  1  0  0  0  0
 58 65  1  0  0  0  0
 59 65  1  0  0  0  0
 60 77  1  0  0  0  0
 61 62  1  0  0  0  0
 62 84  1  0  0  0  0
 63 65  1  0  0  0  0
 63 76  1  0  0  0  0
 64 77  1  0  0  0  0
 67 68  1  0  0  0  0
M  CHG  1  77   1
M  ISO  4  39 100  62 101  74 100  84 101
M  END
> <Batch ID>
0022

> <Smiles>
CNC(C)C(=O)NC(C(=O)N1Cc2cc([101O:1][101CH2:1]CC3CCCN3c3cc(F)c([100NH:0][100C:0](=O)N4CCCC(n5nc(-c6ccc(Oc7ccc(F)cc7F)cc6)c(C(N)=O)c5N)C4)cc3C#N)ccc2CC1C(=O)NC1CCCc2ccccc21)C(C)(C)C

> <Shape>
0.240

> <Color>
0.221

> <Negative vol penalty>
0.000

$$$$

  -OEChem-04042321143D

 89 98  0     1  0  0  0  0  0999 V2000
  -20.5617  -29.9970   24.9608 C   0  0  0  0  0  0  0  0  0  0  0  0
  -21.7973  -29.4812   24.5830 C   0  0  0  0  0  0  0  0  0  0  0  0
  -25.4960  -14.9690   20.9909 C   0  0  0  0  0  0  0  0  0  0  0  0
  -25.5703  -15.0100   18.5764 C   0  0  0  0  0  0  0  0  0  0  0  0
  -19.3901  -29.4472   24.4422 C   0  0  0  0  0  0  0  0  0  0  0  0
  -21.8619  -28.4145   23.6872 C   0  0  0  0  0  0  0  0  0  0  0  0
  -25.3854  -29.0897   20.1131 C   0  0  0  0  0  0  0  0  0  0  0  0
  -24.4442  -14.0542   20.9431 C   0  0  0  0  0  0  0  0  0  0  0  0
  -24.5185  -14.0951   18.5285 C   0  0  0  0  0  0  0  0  0  0  0  0
  -26.7117  -28.8570   20.4745 C   0  0  0  0  0  0  0  0  0  0  0  0
  -24.0506  -10.7359   20.4263 C   0  0  0  0  0  0  0  0  0  0  0  0
  -24.1090   -9.6357   21.2818 C   0  0  0  0  0  0  0  0  0  0  0  0
  -26.6063  -26.6815   19.4376 C   0  0  0  0  0  0  0  0  0  0  0  0
  -30.9498  -22.1095   23.4566 C   0  0  0  0  0  0  0  0  0  0  0  0
  -28.7269  -20.4679   23.8400 C   0  0  0  0  0  0  0  0  0  0  0  0
  -22.0383  -10.3295   22.3152 C   0  0  0  0  0  0  0  0  0  0  0  0
  -26.0590  -15.4470   19.8076 C   0  0  0  0  0  0  0  0  0  0  0  0
  -28.5225  -16.1038   19.8937 C   0  0  0  0  0  0  0  0  0  0  0  0
  -19.4407  -28.3796   23.5322 C   0  0  0  0  0  0  0  0  0  0  0  0
  -24.6550  -28.1140   19.4196 C   0  0  0  0  0  0  0  0  0  0  0  0
  -20.6897  -27.8491   23.1570 C   0  0  0  0  0  0  0  0  0  0  0  0
  -25.2717  -26.9052   19.0663 C   0  0  0  0  0  0  0  0  0  0  0  0
  -31.1173  -20.8077   23.9288 C   0  0  0  0  0  0  0  0  0  0  0  0
  -29.6708  -22.5905   23.1762 C   0  0  0  0  0  0  0  0  0  0  0  0
  -28.5594  -21.7698   23.3679 C   0  0  0  0  0  0  0  0  0  0  0  0
  -23.9555  -13.6172   19.7119 C   0  0  0  0  0  0  0  0  0  0  0  0
  -27.3214  -27.6517   20.1393 C   0  0  0  0  0  0  0  0  0  0  0  0
  -22.9862  -11.6329   20.5153 C   0  0  0  0  0  0  0  0  0  0  0  0
  -23.1028   -9.4325   22.2262 C   0  0  0  0  0  0  0  0  0  0  0  0
  -30.0059  -19.9869   24.1204 C   0  0  0  0  0  0  0  0  0  0  0  0
  -21.9800  -11.4297   21.4597 C   0  0  0  0  0  0  0  0  0  0  0  0
  -27.1452  -16.3925   19.8564 C   0  0  0  0  0  0  0  0  0  0  0  0
  -29.1304  -17.3349   19.9324 C   0  0  0  0  0  0  0  0  0  0  0  0
  -29.1925  -14.8363   19.8932 C   0  0  0  0  0  0  0  0  0  0  0  0
  -22.0366  -26.4176   20.0282 C   0  0  0  0  0  0  0  0  0  0  0  0
  -22.4380  -25.4269   16.9655 C   0  0  0  0  0  0  0  0  0  0  0  0
  -24.5533  -24.9371   14.3325 C   0  0  0  0  0  0  0  0  0  0  0  0
  -26.8174  -22.6823   21.8110 C   0  0  0  0  0  0  0  0  0  0  0  0
  -18.1457  -27.7875   23.0350 C   0  0  0  0  0  0  0  0  0  0  0  0
  -23.2334  -28.3910   19.0136 C   0  0  0  0  0  0  0  0  0  0  0  0
  -24.5374  -25.8334   18.3044 C   0  0  0  0  0  0  0  0  0  0  0  0
  -18.3139  -26.9032   21.8022 C   0  0  0  0  0  0  0  0  0  0  0  0
  -28.5082  -21.8879   18.6168 C   0  0  0  0  0  0  0  0  0  0  0  0
  -33.6351  -21.4223   27.5524 C   0  0  0  0  0  0  0  0  0  0  0  0
  -34.8051  -20.7121   26.9016 C   0  0  0  0  0  0  0  0  0  0  0  0
  -19.4849  -25.9437   21.9893 C   0  0  0  0  0  0  0  0  0  0  0  0
  -28.3900  -20.3669   18.5394 C   0  0  0  0  0  0  0  0  0  0  0  0
  -27.3561  -22.5062   19.4029 C   0  0  0  0  0  0  0  0  0  0  0  0
  -27.0791  -20.4119   20.6984 C   0  0  0  0  0  0  0  0  0  0  0  0
  -32.6464  -21.5418   26.4127 C   0  0  0  0  0  0  0  0  0  0  0  0
  -34.1543  -19.6584   26.0228 C   0  0  0  0  0  0  0  0  0  0  0  0
  -20.8018  -26.7087   22.1685 C   0  0  1  0  0  0  0  0  0  0  0  0
  -22.4264  -27.1216   18.7592 C   0  0  1  0  0  0  0  0  0  0  0  0
  -28.2496  -19.7615   19.9459 C   0  0  1  0  0  0  0  0  0  0  0  0
  -24.5981  -24.0781   11.9751 C   0  0  0  0  0  0  0  0  0  0  0  0
  -22.3278  -22.5621   18.0098 C   0  0  0  0  0  0  0  0  0  0  0  0
  -23.3082  -21.8051   15.8340 C   0  0  0  0  0  0  0  0  0  0  0  0
  -21.0878  -22.9413   15.8714 C   0  0  0  0  0  0  0  0  0  0  0  0
  -26.3459  -22.5255   24.2162 C   0  0  0  0  0  0  0  0  0  0  0  0
  -25.4211  -27.5596   13.2704 C   0  0  0  0  0  0  0  0  0  0  0  0
  -32.4861  -20.2967   24.2284 C   0  0  0  0  0  0  0  0  0  0  0  0
  -30.1303  -26.0510   21.7508 C   0  0  0  0  0  0  0  0  0  0  0  0
  -30.5960  -24.6425   22.0996 C   0  0  0  0  0  0  0  0  0  0  0  0
  -28.9906  -26.0673   20.7388 C   0  0  0  0  0  0  0  0  0  1  0  0
  -23.1802  -24.2953   16.2965 C   0  0  1  0  0  0  0  0  0  0  0  0
  -24.4344  -25.3014   12.8637 C   0  0  2  0  0  0  0  0  0  0  0  0
  -22.4895  -22.9202   16.5190 C   0  0  0  0  0  0  0  0  0  0  0  0
  -26.8927  -17.7040   19.8704 N   0  0  0  0  0  0  0  0  0  0  0  0
  -28.1196  -18.2504   19.9170 N   0  0  0  0  0  0  0  0  0  0  0  0
  -23.1475  -26.1490   17.9356 N   0  0  0  0  0  0  0  0  0  0  0  0
  -27.1965  -21.8791   20.7159 N   0  0  0  0  0  0  0  0  0  0  0  0
  -30.4257  -17.7127   19.9780 N   0  0  0  0  0  0  0  0  0  0  0  0
  -28.4162  -13.6702   19.8503 N   0  0  0  0  0  0  0  0  0  0  0  0
  -29.5275  -23.8874   22.7082 N   0  0  0  0  0  0  0  0  0  0  0  0
  -21.2842  -27.1904   20.8919 N   0  0  0  0  0  0  0  0  0  0  0  0
  -23.3221  -24.6727   14.8944 N   0  0  0  0  0  0  0  0  0  0  0  0
  -27.2270  -22.2444   23.0849 N   0  0  0  0  0  0  0  0  0  0  0  0
  -32.7831  -20.2188   25.6915 N   0  3  0  0  0  0  0  0  0  0  0  0
  -25.4791  -26.2965   12.4906 N   0  3  0  0  0  0  0  0  0  0  0  0
  -30.4421  -14.7402   19.9464 O   0  0  0  0  0  0  0  0  0  0  0  0
  -22.3910  -25.2586   20.2094 O   0  0  0  0  0  0  0  0  0  0  0  0
  -21.2740  -25.6660   16.6344 O   0  0  0  0  0  0  0  0  0  0  0  0
  -25.6308  -24.8881   14.9216 O   0  0  0  0  0  0  0  0  0  0  0  0
  -26.1146  -23.6907   21.6707 O   0  0  0  0  0  0  0  0  0  0  0  0
  -22.9293  -12.7243   19.6648 O   0  0  0  0  0  0  0  0  0  0  0  0
  -28.6156  -27.4217   20.4914 O   0  0  0  0  0  0  0  0  0  1  0  0
  -23.1582   -8.3751   23.0466 F   0  0  0  0  0  0  0  0  0  0  0  0
  -30.1570  -18.7350   24.5750 F   0  0  0  0  0  0  0  0  0  0  0  0
  -20.9542  -12.2874   21.5492 F   0  0  0  0  0  0  0  0  0  0  0  0
  1  2  1  0  0  0  0
  1  5  2  0  0  0  0
  2  6  2  0  0  0  0
  3  8  2  0  0  0  0
  3 17  1  0  0  0  0
  4  9  1  0  0  0  0
  4 17  2  0  0  0  0
  5 19  1  0  0  0  0
  6 21  1  0  0  0  0
  7 10  2  0  0  0  0
  7 20  1  0  0  0  0
  8 26  1  0  0  0  0
  9 26  2  0  0  0  0
 10 27  1  0  0  0  0
 11 12  2  0  0  0  0
 11 28  1  0  0  0  0
 12 29  1  0  0  0  0
 13 22  1  0  0  0  0
 13 27  2  0  0  0  0
 14 23  2  0  0  0  0
 14 24  1  0  0  0  0
 15 25  1  0  0  0  0
 15 30  2  0  0  0  0
 16 29  2  0  0  0  0
 16 31  1  0  0  0  0
 17 32  1  0  0  0  0
 18 32  1  0  0  0  0
 18 33  2  0  0  0  0
 18 34  1  0  0  0  0
 19 21  2  0  0  0  0
 19 39  1  0  0  0  0
 20 22  2  0  0  0  0
 20 40  1  0  0  0  0
 21 52  1  0  0  0  0
 22 41  1  0  0  0  0
 23 30  1  0  0  0  0
 23 61  1  0  0  0  0
 24 25  2  0  0  0  0
 24 74  1  0  0  0  0
 25 77  1  0  0  0  0
 26 85  1  0  0  0  0
 27 86  1  0  0  0  0
 28 31  2  0  0  0  0
 28 85  1  0  0  0  0
 29 87  1  0  0  0  0
 30 88  1  0  0  0  0
 31 89  1  0  0  0  0
 32 68  2  0  0  0  0
 33 69  1  0  0  0  0
 33 72  1  0  0  0  0
 34 73  1  0  0  0  0
 34 80  2  0  0  0  0
 35 53  1  0  0  0  0
 35 75  1  0  0  0  0
 35 81  2  0  0  0  0
 36 65  1  0  0  0  0
 36 70  1  0  0  0  0
 36 82  2  0  0  0  0
 37 66  1  0  0  0  0
 37 76  1  0  0  0  0
 37 83  2  0  0  0  0
 38 71  1  0  0  0  0
 38 77  1  0  0  0  0
 38 84  2  0  0  0  0
 39 42  1  0  0  0  0
 40 53  1  0  0  0  0
 41 70  1  0  0  0  0
 42 46  1  0  0  0  0
 43 47  1  0  0  0  0
 43 48  1  0  0  0  0
 44 45  1  0  0  0  0
 44 50  1  0  0  0  0
 45 51  1  0  0  0  0
 46 52  1  0  0  0  0
 47 54  1  0  0  0  0
 48 71  1  0  0  0  0
 49 54  1  0  0  0  0
 49 71  1  0  0  0  0
 50 78  1  0  0  0  0
 51 78  1  0  0  0  0
 52 75  1  0  0  0  0
 53 70  1  0  0  0  0
 54 69  1  0  0  0  0
 55 66  1  0  0  0  0
 56 67  1  0  0  0  0
 57 67  1  0  0  0  0
 58 67  1  0  0  0  0
 59 77  1  0  0  0  0
 60 79  1  0  0  0  0
 61 78  1  0  0  0  0
 62 63  1  0  0  0  0
 62 64  1  0  0  0  0
 63 74  1  0  0  0  0
 64 86  1  0  0  0  0
 65 67  1  0  0  0  0
 65 76  1  0  0  0  0
 66 79  1  0  0  0  0
 68 69  1  0  0  0  0
M  CHG  2  78   1  79   1
M  ISO  4  38 100  64 101  77 100  86 101
M  END
> <Batch ID>
0022

> <Smiles>
CNC(C)C(=O)NC(C(=O)N1Cc2cc([101O:1][101CH2:1]CCNc3cc(CN4CCCC4)c(F)cc3[100N:0](C)[100C:0](=O)N3CCCC(n4nc(-c5ccc(Oc6ccc(F)cc6F)cc5)c(C(N)=O)c4N)C3)ccc2CC1C(=O)NC1CCCc2ccccc21)C(C)(C)C

> <Shape>
0.224

> <Color>
0.065

> <Negative vol penalty>
0.000

$$$$

  -OEChem-04042321143D

 84 92  0     1  0  0  0  0  0999 V2000
  -30.5456  -32.4502   16.5250 C   0  0  0  0  0  0  0  0  0  0  0  0
  -30.3047  -31.1567   16.0732 C   0  0  0  0  0  0  0  0  0  0  0  0
  -23.0837   -9.9405   19.8995 C   0  0  0  0  0  0  0  0  0  0  0  0
  -24.1025   -9.7774   22.0841 C   0  0  0  0  0  0  0  0  0  0  0  0
  -30.5431  -32.7216   17.8925 C   0  0  0  0  0  0  0  0  0  0  0  0
  -30.0622  -30.1334   16.9890 C   0  0  0  0  0  0  0  0  0  0  0  0
  -26.3042  -25.3533   16.2585 C   0  0  0  0  0  0  0  0  0  0  0  0
  -28.9916  -18.9247   19.8714 C   0  0  0  0  0  0  0  0  0  0  0  0
  -29.0756  -19.8132   18.7995 C   0  0  0  0  0  0  0  0  0  0  0  0
  -22.4262   -8.7295   20.1157 C   0  0  0  0  0  0  0  0  0  0  0  0
  -23.4450   -8.5664   22.3003 C   0  0  0  0  0  0  0  0  0  0  0  0
  -26.5320  -24.0294   15.8856 C   0  0  0  0  0  0  0  0  0  0  0  0
  -20.3472   -7.5375   23.1753 C   0  0  0  0  0  0  0  0  0  0  0  0
  -19.7332   -7.3472   24.4131 C   0  0  0  0  0  0  0  0  0  0  0  0
  -26.5960  -23.3917   18.2112 C   0  0  0  0  0  0  0  0  0  0  0  0
  -29.2015  -17.0636   18.3453 C   0  0  0  0  0  0  0  0  0  0  0  0
  -21.1371   -5.4221   24.8135 C   0  0  0  0  0  0  0  0  0  0  0  0
  -23.9219  -10.4645   20.8837 C   0  0  0  0  0  0  0  0  0  0  0  0
  -24.1340  -13.0050   20.9755 C   0  0  0  0  0  0  0  0  0  0  0  0
  -30.2909  -31.7031   18.8251 C   0  0  0  0  0  0  0  0  0  0  0  0
  -26.2312  -25.7088   17.6130 C   0  0  0  0  0  0  0  0  0  0  0  0
  -30.0577  -30.3911   18.3704 C   0  0  0  0  0  0  0  0  0  0  0  0
  -26.3645  -24.7204   18.5986 C   0  0  0  0  0  0  0  0  0  0  0  0
  -29.0547  -17.5499   19.6444 C   0  0  0  0  0  0  0  0  0  0  0  0
  -29.2854  -17.9521   17.2733 C   0  0  0  0  0  0  0  0  0  0  0  0
  -29.2224  -19.3269   17.5004 C   0  0  0  0  0  0  0  0  0  0  0  0
  -22.6068   -8.0425   21.3161 C   0  0  0  0  0  0  0  0  0  0  0  0
  -26.6809  -23.0488   16.8620 C   0  0  0  0  0  0  0  0  0  0  0  0
  -21.3561   -6.6701   22.7564 C   0  0  0  0  0  0  0  0  0  0  0  0
  -20.1281   -6.2895   25.2323 C   0  0  0  0  0  0  0  0  0  0  0  0
  -21.7510   -5.6124   23.5755 C   0  0  0  0  0  0  0  0  0  0  0  0
  -24.6019  -11.7151   20.6607 C   0  0  0  0  0  0  0  0  0  0  0  0
  -25.1421  -13.8446   20.5690 C   0  0  0  0  0  0  0  0  0  0  0  0
  -22.8985  -13.4082   21.5812 C   0  0  0  0  0  0  0  0  0  0  0  0
  -27.9065  -27.6175   19.5246 C   0  0  0  0  0  0  0  0  0  0  0  0
  -25.5794  -26.8755   21.6592 C   0  0  0  0  0  0  0  0  0  0  0  0
  -23.1582  -24.6897   22.6627 C   0  0  0  0  0  0  0  0  0  0  0  0
  -30.7442  -14.8085   20.6294 C   0  0  0  0  0  0  0  0  0  0  0  0
  -30.3453  -32.0352   20.2953 C   0  0  0  0  0  0  0  0  0  0  0  0
  -25.9582  -27.1368   17.9984 C   0  0  0  0  0  0  0  0  0  0  0  0
  -26.2744  -25.0466   20.0662 C   0  0  0  0  0  0  0  0  0  0  0  0
  -29.7090  -30.9698   21.1843 C   0  0  0  0  0  0  0  0  0  0  0  0
  -29.2602  -12.9658   17.7827 C   0  0  0  0  0  0  0  0  0  0  0  0
  -30.1817  -29.5791   20.7727 C   0  0  0  0  0  0  0  0  0  0  0  0
  -27.9074  -12.5258   18.3396 C   0  0  0  0  0  0  0  0  0  0  0  0
  -30.3044  -13.1193   18.8845 C   0  0  0  0  0  0  0  0  0  0  0  0
  -28.5331  -13.5850   20.5458 C   0  0  0  0  0  0  0  0  0  0  0  0
  -29.7661  -29.2593   19.3316 C   0  0  1  0  0  0  0  0  0  0  0  0
  -26.4151  -27.4712   19.4150 C   0  0  1  0  0  0  0  0  0  0  0  0
  -27.4462  -13.4660   19.4669 C   0  0  2  0  0  0  0  0  0  0  0  0
  -29.4425  -17.4039   15.8922 C   0  0  0  0  0  0  0  0  0  0  0  0
  -21.4486  -24.3354   24.4651 C   0  0  0  0  0  0  0  0  0  0  0  0
  -27.7898  -26.0348   23.5872 C   0  0  0  0  0  0  0  0  0  0  0  0
  -26.0581  -24.8345   24.9395 C   0  0  0  0  0  0  0  0  0  0  0  0
  -25.9132  -27.3071   24.6426 C   0  0  0  0  0  0  0  0  0  0  0  0
  -30.3831  -21.2227   16.3963 C   0  0  0  0  0  0  0  0  0  0  0  0
  -31.1811  -16.9194   21.8263 C   0  0  0  0  0  0  0  0  0  0  0  0
  -20.9283  -24.7352   20.7174 C   0  0  0  0  0  0  0  0  0  0  0  0
  -28.9649  -16.6003   20.7908 C   0  0  0  0  0  0  0  0  0  0  0  0
  -28.3490  -20.2120   15.3524 C   0  0  0  0  0  0  0  0  0  0  0  0
  -27.6055  -21.5351   15.2778 C   0  0  0  0  0  0  0  0  0  1  0  0
  -25.3810  -25.7911   22.6905 C   0  0  1  0  0  0  0  0  0  0  0  0
  -21.7155  -24.9075   23.0816 C   0  0  2  0  0  0  0  0  0  0  0  0
  -26.2892  -25.9857   23.9374 C   0  0  0  0  0  0  0  0  0  0  0  0
  -25.8129  -11.7291   20.0976 N   0  0  0  0  0  0  0  0  0  0  0  0
  -26.1145  -13.0380   20.0551 N   0  0  0  0  0  0  0  0  0  0  0  0
  -26.0125  -26.4581   20.3927 N   0  0  0  0  0  0  0  0  0  0  0  0
  -29.8235  -13.9830   19.9634 N   0  0  0  0  0  0  0  0  0  0  0  0
  -25.2827  -15.1868   20.6044 N   0  0  0  0  0  0  0  0  0  0  0  0
  -21.9742  -12.4167   21.9374 N   0  0  0  0  0  0  0  0  0  0  0  0
  -28.3659  -28.8972   19.2780 N   0  0  0  0  0  0  0  0  0  0  0  0
  -23.9531  -25.7681   22.9891 N   0  0  0  0  0  0  0  0  0  0  0  0
  -29.3050  -20.2341   16.4357 N   0  0  3  0  0  0  0  0  0  0  0  0
  -30.2622  -16.0241   21.1379 N   0  0  0  0  0  0  0  0  0  0  0  0
  -20.7907  -24.2507   22.1149 N   0  3  0  0  0  0  0  0  0  0  0  0
  -22.6155  -14.6131   21.7851 O   0  0  0  0  0  0  0  0  0  0  0  0
  -28.5897  -26.6419   19.8130 O   0  0  0  0  0  0  0  0  0  0  0  0
  -25.3516  -28.0489   21.9640 O   0  0  0  0  0  0  0  0  0  0  0  0
  -23.5424  -23.6640   22.1052 O   0  0  0  0  0  0  0  0  0  0  0  0
  -31.9317  -14.4821   20.7536 O   0  0  0  0  0  0  0  0  0  0  0  0
  -21.9652   -6.8609   21.5275 O   0  0  0  0  0  0  0  0  0  0  0  0
  -26.9041  -21.7559   16.5007 O   0  0  0  0  0  0  0  0  0  1  0  0
  -19.5395   -6.1078   26.4216 F   0  0  0  0  0  0  0  0  0  0  0  0
  -22.7205   -4.7765   23.1791 F   0  0  0  0  0  0  0  0  0  0  0  0
  1  2  1  0  0  0  0
  1  5  2  0  0  0  0
  2  6  2  0  0  0  0
  3 10  2  0  0  0  0
  3 18  1  0  0  0  0
  4 11  1  0  0  0  0
  4 18  2  0  0  0  0
  5 20  1  0  0  0  0
  6 22  1  0  0  0  0
  7 12  2  0  0  0  0
  7 21  1  0  0  0  0
  8  9  2  0  0  0  0
  8 24  1  0  0  0  0
  9 26  1  0  0  0  0
 10 27  1  0  0  0  0
 11 27  2  0  0  0  0
 12 28  1  0  0  0  0
 13 14  2  0  0  0  0
 13 29  1  0  0  0  0
 14 30  1  0  0  0  0
 15 23  1  0  0  0  0
 15 28  2  0  0  0  0
 16 24  2  0  0  0  0
 16 25  1  0  0  0  0
 17 30  2  0  0  0  0
 17 31  1  0  0  0  0
 18 32  1  0  0  0  0
 19 32  1  0  0  0  0
 19 33  2  0  0  0  0
 19 34  1  0  0  0  0
 20 22  2  0  0  0  0
 20 39  1  0  0  0  0
 21 23  2  0  0  0  0
 21 40  1  0  0  0  0
 22 48  1  0  0  0  0
 23 41  1  0  0  0  0
 24 59  1  0  0  0  0
 25 26  2  0  0  0  0
 25 51  1  0  0  0  0
 26 73  1  0  0  0  0
 27 81  1  0  0  0  0
 28 82  1  0  0  0  0
 29 31  2  0  0  0  0
 29 81  1  0  0  0  0
 30 83  1  0  0  0  0
 31 84  1  0  0  0  0
 32 65  2  0  0  0  0
 33 66  1  0  0  0  0
 33 69  1  0  0  0  0
 34 70  1  0  0  0  0
 34 76  2  0  0  0  0
 35 49  1  0  0  0  0
 35 71  1  0  0  0  0
 35 77  2  0  0  0  0
 36 62  1  0  0  0  0
 36 67  1  0  0  0  0
 36 78  2  0  0  0  0
 37 63  1  0  0  0  0
 37 72  1  0  0  0  0
 37 79  2  0  0  0  0
 38 68  1  0  0  0  0
 38 74  1  0  0  0  0
 38 80  2  0  0  0  0
 39 42  1  0  0  0  0
 40 49  1  0  0  0  0
 41 67  1  0  0  0  0
 42 44  1  0  0  0  0
 43 45  1  0  0  0  0
 43 46  1  0  0  0  0
 44 48  1  0  0  0  0
 45 50  1  0  0  0  0
 46 68  1  0  0  0  0
 47 50  1  0  0  0  0
 47 68  1  0  0  0  0
 48 71  1  0  0  0  0
 49 67  1  0  0  0  0
 50 66  1  0  0  0  0
 52 63  1  0  0  0  0
 53 64  1  0  0  0  0
 54 64  1  0  0  0  0
 55 64  1  0  0  0  0
 56 73  1  0  0  0  0
 57 74  1  0  0  0  0
 58 75  1  0  0  0  0
 59 74  1  0  0  0  0
 60 61  1  0  0  0  0
 60 73  1  0  0  0  0
 61 82  1  0  0  0  0
 62 64  1  0  0  0  0
 62 72  1  0  0  0  0
 63 75  1  0  0  0  0
 65 66  1  0  0  0  0
M  CHG  1  75   1
M  ISO  4  38 100  61 101  74 100  82 101
M  END
> <Batch ID>
0022

> <Smiles>
CNC(C)C(=O)NC(C(=O)N1Cc2cc([101O:1][101CH2:1]CN(C)c3ccc(C[100N:0](C)[100C:0](=O)N4CCCC(n5nc(-c6ccc(Oc7ccc(F)cc7F)cc6)c(C(N)=O)c5N)C4)cc3C)ccc2CC1C(=O)NC1CCCc2ccccc21)C(C)(C)C

> <Shape>
0.242

> <Color>
0.200

> <Negative vol penalty>
0.000

$$$$

  -OEChem-04042321143D

 84 93  0     1  0  0  0  0  0999 V2000
  -26.1450  -11.3000   20.4615 C   0  0  0  0  0  0  0  0  0  0  0  0
  -26.6006  -12.5516   20.0597 C   0  0  0  0  0  0  0  0  0  0  0  0
  -19.4160  -29.5703   21.8109 C   0  0  0  0  0  0  0  0  0  0  0  0
  -20.6840  -27.8428   22.9267 C   0  0  0  0  0  0  0  0  0  0  0  0
  -24.8940  -11.1752   21.0642 C   0  0  0  0  0  0  0  0  0  0  0  0
  -25.8048  -13.6791   20.2595 C   0  0  0  0  0  0  0  0  0  0  0  0
  -28.4208  -17.6001   22.1106 C   0  0  0  0  0  0  0  0  0  0  0  0
  -30.2325  -25.7052   20.8114 C   0  0  0  0  0  0  0  0  0  0  0  0
  -29.1817  -26.5729   20.5138 C   0  0  0  0  0  0  0  0  0  0  0  0
  -18.2332  -29.0238   22.3087 C   0  0  0  0  0  0  0  0  0  0  0  0
  -19.5012  -27.2962   23.4246 C   0  0  0  0  0  0  0  0  0  0  0  0
  -29.2061  -18.3223   21.2131 C   0  0  0  0  0  0  0  0  0  0  0  0
  -16.7903  -25.2350   24.6945 C   0  0  0  0  0  0  0  0  0  0  0  0
  -16.6348  -23.8508   24.6219 C   0  0  0  0  0  0  0  0  0  0  0  0
  -27.4874  -20.0094   21.0762 C   0  0  0  0  0  0  0  0  0  0  0  0
  -29.2816  -25.8990   18.1959 C   0  0  0  0  0  0  0  0  0  0  0  0
  -16.8325  -23.9547   22.2163 C   0  0  0  0  0  0  0  0  0  0  0  0
  -20.6414  -28.9798   22.1199 C   0  0  0  0  0  0  0  0  0  0  0  0
  -22.6682  -30.5261   22.2128 C   0  0  0  0  0  0  0  0  0  0  0  0
  -24.0866  -12.3031   21.2803 C   0  0  0  0  0  0  0  0  0  0  0  0
  -27.1562  -18.0726   22.4900 C   0  0  0  0  0  0  0  0  0  0  0  0
  -24.5412  -13.5691   20.8645 C   0  0  0  0  0  0  0  0  0  0  0  0
  -26.6891  -19.2927   21.9807 C   0  0  0  0  0  0  0  0  0  0  0  0
  -30.8079  -24.9345   19.8012 C   0  0  0  0  0  0  0  0  0  0  0  0
  -28.7062  -26.6698   19.2061 C   0  0  0  0  0  0  0  0  0  0  0  0
  -18.2758  -27.8867   23.1156 C   0  0  0  0  0  0  0  0  0  0  0  0
  -28.7382  -19.5257   20.6935 C   0  0  0  0  0  0  0  0  0  0  0  0
  -16.9668  -25.9792   23.5280 C   0  0  0  0  0  0  0  0  0  0  0  0
  -16.6559  -23.2106   23.3828 C   0  0  0  0  0  0  0  0  0  0  0  0
  -30.3325  -25.0313   18.4935 C   0  0  0  0  0  0  0  0  0  0  0  0
  -16.9879  -25.3390   22.2889 C   0  0  0  0  0  0  0  0  0  0  0  0
  -21.8636  -29.5436   21.6054 C   0  0  0  0  0  0  0  0  0  0  0  0
  -23.7038  -30.7153   21.3307 C   0  0  0  0  0  0  0  0  0  0  0  0
  -31.4735  -21.6587   19.2244 C   0  0  0  0  0  0  0  0  0  0  0  0
  -22.4950  -31.2069   23.4627 C   0  0  0  0  0  0  0  0  0  0  0  0
  -24.1799  -16.9942   22.2027 C   0  0  0  0  0  0  0  0  0  0  0  0
  -23.4835  -19.5692   24.0485 C   0  0  0  0  0  0  0  0  0  0  0  0
  -24.3716  -22.6798   25.1359 C   0  0  0  0  0  0  0  0  0  0  0  0
  -27.0498  -27.7689   17.6587 C   0  0  0  0  0  0  0  0  0  0  0  0
  -22.7216  -12.1121   21.8927 C   0  0  0  0  0  0  0  0  0  0  0  0
  -26.3327  -17.2950   23.4798 C   0  0  0  0  0  0  0  0  0  0  0  0
  -25.3471  -19.8535   22.3718 C   0  0  0  0  0  0  0  0  0  0  0  0
  -22.0988  -13.4070   22.4082 C   0  0  0  0  0  0  0  0  0  0  0  0
  -24.3817  -29.8279   16.5103 C   0  0  0  0  0  0  0  0  0  0  0  0
  -22.2415  -14.5174   21.3721 C   0  0  0  0  0  0  0  0  0  0  0  0
  -23.5379  -30.0616   17.7655 C   0  0  0  0  0  0  0  0  0  0  0  0
  -24.9640  -28.4161   16.4731 C   0  0  0  0  0  0  0  0  0  0  0  0
  -30.8425  -21.8932   21.2123 C   0  0  0  0  0  0  0  0  0  0  0  0
  -24.8668  -28.2543   18.9294 C   0  0  0  0  0  0  0  0  0  0  0  0
  -23.7176  -14.8191   21.0865 C   0  0  1  0  0  0  0  0  0  0  0  0
  -30.8082  -20.6967   20.2319 C   0  0  1  0  0  0  0  0  0  1  0  0
  -24.8432  -17.6148   23.3997 C   0  0  1  0  0  0  0  0  0  0  0  0
  -24.3123  -29.6837   19.0434 C   0  0  2  0  0  0  0  0  0  0  0  0
  -23.5835  -24.5502   26.6115 C   0  0  0  0  0  0  0  0  0  0  0  0
  -21.4498  -20.3844   21.9250 C   0  0  0  0  0  0  0  0  0  0  0  0
  -21.3995  -22.6682   22.9496 C   0  0  0  0  0  0  0  0  0  0  0  0
  -20.6745  -20.6886   24.2831 C   0  0  0  0  0  0  0  0  0  0  0  0
  -26.7562  -22.4669   26.8758 C   0  0  0  0  0  0  0  0  0  0  0  0
  -31.9375  -24.0003   20.1262 C   0  0  0  0  0  0  0  0  0  0  0  0
  -23.1311  -21.0125   23.7809 C   0  0  1  0  0  0  0  0  0  0  0  0
  -24.4218  -23.2841   26.5275 C   0  0  2  0  0  0  0  0  0  0  0  0
  -21.6882  -21.1772   23.2256 C   0  0  0  0  0  0  0  0  0  0  0  0
  -22.3465  -29.1370   20.4283 N   0  0  0  0  0  0  0  0  0  0  0  0
  -23.4656  -29.8678   20.2890 N   0  0  0  0  0  0  0  0  0  0  0  0
  -31.5110  -22.6353   20.1578 N   0  0  0  0  0  0  0  0  0  0  0  0
  -24.5764  -19.0532   23.3378 N   0  0  0  0  0  0  0  0  0  0  0  0
  -25.6869  -28.1300   17.7142 N   0  0  0  0  0  0  0  0  0  0  0  0
  -24.7858  -31.5223   21.3522 N   0  0  0  0  0  0  0  0  0  0  0  0
  -21.3759  -30.8922   24.2455 N   0  0  0  0  0  0  0  0  0  0  0  0
  -27.6401  -27.5527   18.9034 N   0  0  0  0  0  0  0  0  0  0  0  0
  -24.2855  -15.6174   22.1517 N   0  0  0  0  0  0  0  0  0  0  0  0
  -23.3774  -21.7306   25.0268 N   0  0  0  0  0  0  0  0  0  0  0  0
  -25.8255  -23.6247   26.8941 N   0  3  0  0  0  0  0  0  0  0  0  0
  -31.8242  -21.6073   18.0681 O   0  0  0  0  0  0  0  0  0  0  0  0
  -23.2999  -32.0807   23.8655 O   0  0  0  0  0  0  0  0  0  0  0  0
  -23.6129  -17.7114   21.3867 O   0  0  0  0  0  0  0  0  0  0  0  0
  -22.8181  -18.9254   24.8637 O   0  0  0  0  0  0  0  0  0  0  0  0
  -25.1354  -23.0187   24.2346 O   0  0  0  0  0  0  0  0  0  0  0  0
  -27.6560  -27.6860   16.5875 O   0  0  0  0  0  0  0  0  0  0  0  0
  -17.1218  -27.3533   23.6017 O   0  0  0  0  0  0  0  0  0  0  0  0
  -29.5023  -20.2323   19.8167 O   0  0  0  0  0  0  0  0  0  1  0  0
  -16.5082  -21.8812   23.3134 F   0  0  0  0  0  0  0  0  0  0  0  0
  -30.8789  -24.2947   17.5161 F   0  0  0  0  0  0  0  0  0  0  0  0
  -17.1583  -26.0484   21.1648 F   0  0  0  0  0  0  0  0  0  0  0  0
  1  2  1  0  0  0  0
  1  5  2  0  0  0  0
  2  6  2  0  0  0  0
  3 10  2  0  0  0  0
  3 18  1  0  0  0  0
  4 11  1  0  0  0  0
  4 18  2  0  0  0  0
  5 20  1  0  0  0  0
  6 22  1  0  0  0  0
  7 12  2  0  0  0  0
  7 21  1  0  0  0  0
  8  9  2  0  0  0  0
  8 24  1  0  0  0  0
  9 25  1  0  0  0  0
 10 26  1  0  0  0  0
 11 26  2  0  0  0  0
 12 27  1  0  0  0  0
 13 14  2  0  0  0  0
 13 28  1  0  0  0  0
 14 29  1  0  0  0  0
 15 23  1  0  0  0  0
 15 27  2  0  0  0  0
 16 25  2  0  0  0  0
 16 30  1  0  0  0  0
 17 29  2  0  0  0  0
 17 31  1  0  0  0  0
 18 32  1  0  0  0  0
 19 32  1  0  0  0  0
 19 33  2  0  0  0  0
 19 35  1  0  0  0  0
 20 22  2  0  0  0  0
 20 40  1  0  0  0  0
 21 23  2  0  0  0  0
 21 41  1  0  0  0  0
 22 50  1  0  0  0  0
 23 42  1  0  0  0  0
 24 30  2  0  0  0  0
 24 59  1  0  0  0  0
 25 70  1  0  0  0  0
 26 80  1  0  0  0  0
 27 81  1  0  0  0  0
 28 31  2  0  0  0  0
 28 80  1  0  0  0  0
 29 82  1  0  0  0  0
 30 83  1  0  0  0  0
 31 84  1  0  0  0  0
 32 63  2  0  0  0  0
 33 64  1  0  0  0  0
 33 68  1  0  0  0  0
 34 51  1  0  0  0  0
 34 65  1  0  0  0  0
 34 74  2  0  0  0  0
 35 69  1  0  0  0  0
 35 75  2  0  0  0  0
 36 52  1  0  0  0  0
 36 71  1  0  0  0  0
 36 76  2  0  0  0  0
 37 60  1  0  0  0  0
 37 66  1  0  0  0  0
 37 77  2  0  0  0  0
 38 61  1  0  0  0  0
 38 72  1  0  0  0  0
 38 78  2  0  0  0  0
 39 67  1  0  0  0  0
 39 70  1  0  0  0  0
 39 79  2  0  0  0  0
 40 43  1  0  0  0  0
 41 52  1  0  0  0  0
 42 66  1  0  0  0  0
 43 45  1  0  0  0  0
 44 46  1  0  0  0  0
 44 47  1  0  0  0  0
 45 50  1  0  0  0  0
 46 53  1  0  0  0  0
 47 67  1  0  0  0  0
 48 51  1  0  0  0  0
 48 65  1  0  0  0  0
 49 53  1  0  0  0  0
 49 67  1  0  0  0  0
 50 71  1  0  0  0  0
 51 81  1  0  0  0  0
 52 66  1  0  0  0  0
 53 64  1  0  0  0  0
 54 61  1  0  0  0  0
 55 62  1  0  0  0  0
 56 62  1  0  0  0  0
 57 62  1  0  0  0  0
 58 73  1  0  0  0  0
 59 65  1  0  0  0  0
 60 62  1  0  0  0  0
 60 72  1  0  0  0  0
 61 73  1  0  0  0  0
 63 64  1  0  0  0  0
M  CHG  1  73   1
M  ISO  4  39 100  51 101  70 100  81 101
M  END
> <Batch ID>
0022

> <Smiles>
CNC(C)C(=O)NC(C(=O)N1Cc2cc([101O:1][101CH:1]3CN(Cc4ccc([100NH:0][100C:0](=O)N5CCCC(n6nc(-c7ccc(Oc8ccc(F)cc8F)cc7)c(C(N)=O)c6N)C5)cc4F)C3=O)ccc2CC1C(=O)NC1CCCc2ccccc21)C(C)(C)C

> <Shape>
0.220

> <Color>
0.064

> <Negative vol penalty>
0.000

$$$$

  -OEChem-04042321143D

 84 92  0     1  0  0  0  0  0999 V2000
  -23.3812  -31.4968   20.9933 C   0  0  0  0  0  0  0  0  0  0  0  0
  -23.6800  -30.6523   19.9289 C   0  0  0  0  0  0  0  0  0  0  0  0
  -28.2012  -13.6408   19.0846 C   0  0  0  0  0  0  0  0  0  0  0  0
  -28.4321  -13.5765   21.4887 C   0  0  0  0  0  0  0  0  0  0  0  0
  -24.2219  -31.5398   22.1047 C   0  0  0  0  0  0  0  0  0  0  0  0
  -24.8203  -29.8510   19.9748 C   0  0  0  0  0  0  0  0  0  0  0  0
  -23.9216  -25.1040   18.4574 C   0  0  0  0  0  0  0  0  0  0  0  0
  -29.5895  -13.6678   18.9520 C   0  0  0  0  0  0  0  0  0  0  0  0
  -29.8204  -13.6035   21.3561 C   0  0  0  0  0  0  0  0  0  0  0  0
  -23.8293  -24.8812   17.0842 C   0  0  0  0  0  0  0  0  0  0  0  0
  -32.0732  -15.9442   19.2231 C   0  0  0  0  0  0  0  0  0  0  0  0
  -32.6194  -16.8539   18.3177 C   0  0  0  0  0  0  0  0  0  0  0  0
  -26.0985  -24.0629   17.0704 C   0  0  0  0  0  0  0  0  0  0  0  0
  -21.3904  -20.0753   14.3605 C   0  0  0  0  0  0  0  0  0  0  0  0
  -20.4082  -18.5970   15.9998 C   0  0  0  0  0  0  0  0  0  0  0  0
  -33.6138  -15.0296   17.0847 C   0  0  0  0  0  0  0  0  0  0  0  0
  -27.6225  -13.5952   20.3530 C   0  0  0  0  0  0  0  0  0  0  0  0
  -25.3608  -12.4301   20.5400 C   0  0  0  0  0  0  0  0  0  0  0  0
  -25.3679  -30.7315   22.1686 C   0  0  0  0  0  0  0  0  0  0  0  0
  -25.1088  -24.8177   19.1466 C   0  0  0  0  0  0  0  0  0  0  0  0
  -25.6778  -29.8843   21.0876 C   0  0  0  0  0  0  0  0  0  0  0  0
  -26.2025  -24.2806   18.4528 C   0  0  0  0  0  0  0  0  0  0  0  0
  -22.6867  -19.3544   16.2675 C   0  0  0  0  0  0  0  0  0  0  0  0
  -22.5819  -20.0875   15.0855 C   0  0  0  0  0  0  0  0  0  0  0  0
  -21.5998  -18.6091   16.7247 C   0  0  0  0  0  0  0  0  0  0  0  0
  -30.3991  -13.6492   20.0877 C   0  0  0  0  0  0  0  0  0  0  0  0
  -24.9187  -24.3633   16.3900 C   0  0  0  0  0  0  0  0  0  0  0  0
  -32.2973  -14.5772   19.0593 C   0  0  0  0  0  0  0  0  0  0  0  0
  -33.3896  -16.3966   17.2484 C   0  0  0  0  0  0  0  0  0  0  0  0
  -33.0676  -14.1199   17.9901 C   0  0  0  0  0  0  0  0  0  0  0  0
  -20.3034  -19.3301   14.8177 C   0  0  0  0  0  0  0  0  0  0  0  0
  -26.1885  -13.5678   20.4907 C   0  0  0  0  0  0  0  0  0  0  0  0
  -24.0908  -12.9351   20.6763 C   0  0  0  0  0  0  0  0  0  0  0  0
  -25.7088  -11.0410   20.4690 C   0  0  0  0  0  0  0  0  0  0  0  0
  -27.2069  -26.5321   20.8087 C   0  0  0  0  0  0  0  0  0  0  0  0
  -28.4922  -23.6225   21.4449 C   0  0  0  0  0  0  0  0  0  0  0  0
  -29.4852  -20.2763   20.5317 C   0  0  0  0  0  0  0  0  0  0  0  0
  -21.9609  -18.4673   19.1833 C   0  0  0  0  0  0  0  0  0  0  0  0
  -26.2719  -30.8474   23.3703 C   0  0  0  0  0  0  0  0  0  0  0  0
  -25.1834  -25.0386   20.6326 C   0  0  0  0  0  0  0  0  0  0  0  0
  -27.4928  -23.9373   19.1498 C   0  0  0  0  0  0  0  0  0  0  0  0
  -27.2589  -29.6906   23.5037 C   0  0  0  0  0  0  0  0  0  0  0  0
  -21.7114  -16.6983   22.4111 C   0  0  0  0  0  0  0  0  0  0  0  0
  -27.9263  -29.4010   22.1630 C   0  0  0  0  0  0  0  0  0  0  0  0
  -22.8085  -15.6405   22.3053 C   0  0  0  0  0  0  0  0  0  0  0  0
  -22.0494  -17.9482   21.6039 C   0  0  0  0  0  0  0  0  0  0  0  0
  -23.4577  -16.6139   20.0656 C   0  0  0  0  0  0  0  0  0  0  0  0
  -26.8923  -28.9817   21.1111 C   0  0  1  0  0  0  0  0  0  0  0  0
  -26.6129  -25.1930   21.1427 C   0  0  1  0  0  0  0  0  0  0  0  0
  -23.1267  -15.3252   20.8334 C   0  0  1  0  0  0  0  0  0  0  0  0
  -23.9658  -19.3679   17.0460 C   0  0  0  0  0  0  0  0  0  0  0  0
  -30.4924  -18.4391   21.9129 C   0  0  0  0  0  0  0  0  0  0  0  0
  -31.1551  -24.7169   20.4343 C   0  0  0  0  0  0  0  0  0  0  0  0
  -31.9781  -22.3589   20.2590 C   0  0  0  0  0  0  0  0  0  0  0  0
  -31.3233  -23.2877   22.4797 C   0  0  0  0  0  0  0  0  0  0  0  0
  -21.2424  -16.4467   17.9300 C   0  0  0  0  0  0  0  0  0  0  0  0
  -27.3404  -18.3795   19.7828 C   0  0  0  0  0  0  0  0  0  0  0  0
  -24.8838  -22.4906   13.3124 C   0  0  0  0  0  0  0  0  0  0  0  0
  -23.5181  -21.9176   13.6713 C   0  0  0  0  0  0  0  0  0  0  0  0
  -25.6153  -23.0810   14.5121 C   0  0  0  0  0  0  0  0  0  1  0  0
  -29.5274  -22.7437   20.7853 C   0  0  1  0  0  0  0  0  0  0  0  0
  -29.2140  -19.0029   21.3123 C   0  0  2  0  0  0  0  0  0  0  0  0
  -30.9725  -23.2850   20.9758 C   0  0  0  0  0  0  0  0  0  0  0  0
  -25.5021  -14.7095   20.5876 N   0  0  0  0  0  0  0  0  0  0  0  0
  -24.2296  -14.2917   20.6991 N   0  0  0  0  0  0  0  0  0  0  0  0
  -27.5186  -24.1773   20.6021 N   0  0  0  0  0  0  0  0  0  0  0  0
  -22.3921  -17.6161   20.2205 N   0  0  0  0  0  0  0  0  0  0  0  0
  -22.8801  -12.3467   20.7776 N   0  0  0  0  0  0  0  0  0  0  0  0
  -27.0603  -10.6972   20.3292 N   0  0  0  0  0  0  0  0  0  0  0  0
  -23.6509  -20.8340   14.6149 N   0  0  0  0  0  0  0  0  0  0  0  0
  -26.4960  -27.6044   21.3129 N   0  0  0  0  0  0  0  0  0  0  0  0
  -29.3183  -21.3999   21.3133 N   0  0  0  0  0  0  0  0  0  0  0  0
  -21.6854  -17.8446   17.9466 N   0  0  0  0  0  0  0  0  0  0  0  0
  -28.6161  -17.9674   20.4229 N   0  3  0  0  0  0  0  0  0  0  0  0
  -24.8453  -10.1322   20.5112 O   0  0  0  0  0  0  0  0  0  0  0  0
  -28.2349  -26.5882   20.1441 O   0  0  0  0  0  0  0  0  0  0  0  0
  -28.5412  -23.8041   22.6640 O   0  0  0  0  0  0  0  0  0  0  0  0
  -29.8160  -20.2742   19.3480 O   0  0  0  0  0  0  0  0  0  0  0  0
  -21.8059  -19.6818   19.3579 O   0  0  0  0  0  0  0  0  0  0  0  0
  -31.7538  -13.6753   19.9586 O   0  0  0  0  0  0  0  0  0  0  0  0
  -24.8315  -24.1455   15.0495 O   0  0  0  0  0  0  0  0  0  1  0  0
  -33.9128  -17.2701   16.3782 F   0  0  0  0  0  0  0  0  0  0  0  0
  -33.2854  -12.8077   17.8269 F   0  0  0  0  0  0  0  0  0  0  0  0
  -18.8325  -19.3153   13.9243 Cl  0  0  0  0  0  0  0  0  0  0  0  0
  1  2  1  0  0  0  0
  1  5  2  0  0  0  0
  2  6  2  0  0  0  0
  3  8  2  0  0  0  0
  3 17  1  0  0  0  0
  4  9  1  0  0  0  0
  4 17  2  0  0  0  0
  5 19  1  0  0  0  0
  6 21  1  0  0  0  0
  7 10  2  0  0  0  0
  7 20  1  0  0  0  0
  8 26  1  0  0  0  0
  9 26  2  0  0  0  0
 10 27  1  0  0  0  0
 11 12  2  0  0  0  0
 11 28  1  0  0  0  0
 12 29  1  0  0  0  0
 13 22  1  0  0  0  0
 13 27  2  0  0  0  0
 14 24  1  0  0  0  0
 14 31  2  0  0  0  0
 15 25  2  0  0  0  0
 15 31  1  0  0  0  0
 16 29  2  0  0  0  0
 16 30  1  0  0  0  0
 17 32  1  0  0  0  0
 18 32  1  0  0  0  0
 18 33  2  0  0  0  0
 18 34  1  0  0  0  0
 19 21  2  0  0  0  0
 19 39  1  0  0  0  0
 20 22  2  0  0  0  0
 20 40  1  0  0  0  0
 21 48  1  0  0  0  0
 22 41  1  0  0  0  0
 23 24  2  0  0  0  0
 23 25  1  0  0  0  0
 23 51  1  0  0  0  0
 24 70  1  0  0  0  0
 25 73  1  0  0  0  0
 26 80  1  0  0  0  0
 27 81  1  0  0  0  0
 28 30  2  0  0  0  0
 28 80  1  0  0  0  0
 29 82  1  0  0  0  0
 30 83  1  0  0  0  0
 31 84  1  0  0  0  0
 32 64  2  0  0  0  0
 33 65  1  0  0  0  0
 33 68  1  0  0  0  0
 34 69  1  0  0  0  0
 34 75  2  0  0  0  0
 35 49  1  0  0  0  0
 35 71  1  0  0  0  0
 35 76  2  0  0  0  0
 36 61  1  0  0  0  0
 36 66  1  0  0  0  0
 36 77  2  0  0  0  0
 37 62  1  0  0  0  0
 37 72  1  0  0  0  0
 37 78  2  0  0  0  0
 38 67  1  0  0  0  0
 38 73  1  0  0  0  0
 38 79  2  0  0  0  0
 39 42  1  0  0  0  0
 40 49  1  0  0  0  0
 41 66  1  0  0  0  0
 42 44  1  0  0  0  0
 43 45  1  0  0  0  0
 43 46  1  0  0  0  0
 44 48  1  0  0  0  0
 45 50  1  0  0  0  0
 46 67  1  0  0  0  0
 47 50  1  0  0  0  0
 47 67  1  0  0  0  0
 48 71  1  0  0  0  0
 49 66  1  0  0  0  0
 50 65  1  0  0  0  0
 52 62  1  0  0  0  0
 53 63  1  0  0  0  0
 54 63  1  0  0  0  0
 55 63  1  0  0  0  0
 56 73  1  0  0  0  0
 57 74  1  0  0  0  0
 58 59  1  0  0  0  0
 58 60  1  0  0  0  0
 59 70  1  0  0  0  0
 60 81  1  0  0  0  0
 61 63  1  0  0  0  0
 61 72  1  0  0  0  0
 62 74  1  0  0  0  0
 64 65  1  0  0  0  0
M  CHG  1  74   1
M  ISO  4  38 100  60 101  73 100  81 101
M  END
> <Batch ID>
0022

> <Smiles>
CNC(C)C(=O)NC(C(=O)N1Cc2cc([101O:1][101CH2:1]CCNc3cc(Cl)cc([100N:0](C)[100C:0](=O)N4CCCC(n5nc(-c6ccc(Oc7ccc(F)cc7F)cc6)c(C(N)=O)c5N)C4)c3C)ccc2CC1C(=O)NC1CCCc2ccccc21)C(C)(C)C

> <Shape>
0.208

> <Color>
0.083

> <Negative vol penalty>
0.000

$$$$

  -OEChem-04042321143D

 79 88  0     1  0  0  0  0  0999 V2000
  -28.2833  -32.9729   25.6720 C   0  0  0  0  0  0  0  0  0  0  0  0
  -28.3221  -31.6059   25.4164 C   0  0  0  0  0  0  0  0  0  0  0  0
  -27.1797  -10.8623   22.1981 C   0  0  0  0  0  0  0  0  0  0  0  0
  -26.5625  -10.1569   19.9713 C   0  0  0  0  0  0  0  0  0  0  0  0
  -27.0860  -33.6734   25.5317 C   0  0  0  0  0  0  0  0  0  0  0  0
  -27.1633  -30.9384   25.0215 C   0  0  0  0  0  0  0  0  0  0  0  0
  -27.9699  -27.7657   21.1577 C   0  0  0  0  0  0  0  0  0  0  0  0
  -26.3949   -9.8436   22.7384 C   0  0  0  0  0  0  0  0  0  0  0  0
  -25.7778   -9.1381   20.5116 C   0  0  0  0  0  0  0  0  0  0  0  0
  -28.5660  -26.5407   21.4536 C   0  0  0  0  0  0  0  0  0  0  0  0
  -23.3263   -6.5765   21.3107 C   0  0  0  0  0  0  0  0  0  0  0  0
  -22.0526   -6.3860   20.7750 C   0  0  0  0  0  0  0  0  0  0  0  0
  -26.4009  -25.4788   21.3907 C   0  0  0  0  0  0  0  0  0  0  0  0
  -21.4523   -8.6411   21.4006 C   0  0  0  0  0  0  0  0  0  0  0  0
  -27.2635  -11.0190   20.8146 C   0  0  0  0  0  0  0  0  0  0  0  0
  -29.4340  -11.9999   19.9013 C   0  0  0  0  0  0  0  0  0  0  0  0
  -25.9141  -33.0160   25.1255 C   0  0  0  0  0  0  0  0  0  0  0  0
  -26.5812  -27.8587   20.9866 C   0  0  0  0  0  0  0  0  0  0  0  0
  -25.9489  -31.6305   24.8769 C   0  0  0  0  0  0  0  0  0  0  0  0
  -25.7899  -26.7057   21.0902 C   0  0  0  0  0  0  0  0  0  0  0  0
  -25.6940   -8.9815   21.8951 C   0  0  0  0  0  0  0  0  0  0  0  0
  -27.7812  -25.3974   21.5730 C   0  0  0  0  0  0  0  0  0  0  0  0
  -23.6630   -7.7993   21.8913 C   0  0  0  0  0  0  0  0  0  0  0  0
  -21.1156   -7.4182   20.8200 C   0  0  0  0  0  0  0  0  0  0  0  0
  -22.7260   -8.8316   21.9363 C   0  0  0  0  0  0  0  0  0  0  0  0
  -28.0736  -12.0715   20.2559 C   0  0  0  0  0  0  0  0  0  0  0  0
  -29.7302  -13.2524   19.4215 C   0  0  0  0  0  0  0  0  0  0  0  0
  -30.3484  -10.8997   19.9969 C   0  0  0  0  0  0  0  0  0  0  0  0
  -24.2369  -29.4094   22.4710 C   0  0  0  0  0  0  0  0  0  0  0  0
  -22.4433  -28.2301   20.0390 C   0  0  0  0  0  0  0  0  0  0  0  0
  -22.0335  -25.8436   17.6341 C   0  0  0  0  0  0  0  0  0  0  0  0
  -29.5746  -18.6464   19.8046 C   0  0  0  0  0  0  0  0  0  0  0  0
  -24.6330  -33.8065   25.0334 C   0  0  0  0  0  0  0  0  0  0  0  0
  -25.9565  -29.1827   20.6414 C   0  0  0  0  0  0  0  0  0  0  0  0
  -24.2970  -26.7484   20.8956 C   0  0  0  0  0  0  0  0  0  0  0  0
  -23.5336  -33.0956   24.2484 C   0  0  0  0  0  0  0  0  0  0  0  0
  -26.7376  -17.1326   18.2273 C   0  0  0  0  0  0  0  0  0  0  0  0
  -23.4168  -31.6406   24.6916 C   0  0  0  0  0  0  0  0  0  0  0  0
  -26.9259  -15.6681   18.6146 C   0  0  0  0  0  0  0  0  0  0  0  0
  -30.5756  -21.2030   18.0919 C   0  0  0  0  0  0  0  0  0  0  0  0
  -27.1398  -18.0877   19.3530 C   0  0  0  0  0  0  0  0  0  0  0  0
  -28.1929  -20.6642   20.5579 C   0  0  0  0  0  0  0  0  0  0  0  0
  -28.6923  -16.3826   20.2616 C   0  0  0  0  0  0  0  0  0  0  0  0
  -29.4566  -22.1541   17.7306 C   0  0  0  0  0  0  0  0  0  0  0  0
  -24.7184  -30.8758   24.4226 C   0  0  1  0  0  0  0  0  0  0  0  0
  -24.4744  -29.2546   20.9954 C   0  0  1  0  0  0  0  0  0  0  0  0
  -28.7828  -21.9664   21.0991 C   0  0  1  0  0  0  0  0  0  0  0  0
  -28.3579  -15.4179   19.1151 C   0  0  1  0  0  0  0  0  0  0  0  0
  -30.3711  -20.9933   19.5738 C   0  0  1  0  0  0  0  0  0  0  0  0
  -29.8165  -22.3371   20.0327 C   0  0  1  0  0  0  0  0  0  0  0  0
  -20.4508  -25.1204   15.8260 C   0  0  0  0  0  0  0  0  0  0  0  0
  -20.5576  -27.0893   22.1492 C   0  0  0  0  0  0  0  0  0  0  0  0
  -19.5751  -25.6197   20.3763 C   0  0  0  0  0  0  0  0  0  0  0  0
  -19.4159  -28.1003   20.1671 C   0  0  0  0  0  0  0  0  0  0  0  0
  -24.0855  -26.2063   15.5325 C   0  0  0  0  0  0  0  0  0  0  0  0
  -27.7285  -23.0296   21.3578 C   0  0  0  0  0  0  0  0  0  1  0  0
  -21.6480  -26.9672   19.8120 C   0  0  1  0  0  0  0  0  0  0  0  0
  -21.6820  -25.9479   16.1611 C   0  0  2  0  0  0  0  0  0  0  0  0
  -20.3270  -26.9433   20.6318 C   0  0  0  0  0  0  0  0  0  0  0  0
  -27.5422  -13.2743   20.0216 N   0  0  0  0  0  0  0  0  0  0  0  0
  -28.5742  -13.9701   19.5146 N   0  0  0  0  0  0  0  0  0  0  0  0
  -23.7324  -28.0675   20.5658 N   0  0  0  0  0  0  0  0  0  0  0  0
  -28.4793  -17.7772   19.8653 N   0  0  0  0  0  0  0  0  0  0  0  0
  -29.3189  -20.0164   19.8793 N   0  0  0  0  0  0  0  0  0  0  0  0
  -30.8640  -13.7987   18.9334 N   0  0  0  0  0  0  0  0  0  0  0  0
  -29.8792   -9.6840   20.5129 N   0  0  0  0  0  0  0  0  0  0  0  0
  -24.8230  -30.5338   23.0202 N   0  0  0  0  0  0  0  0  0  0  0  0
  -21.4581  -26.8580   18.3697 N   0  0  0  0  0  0  0  0  0  0  0  0
  -22.8154  -25.4649   15.3226 N   0  3  0  0  0  0  0  0  0  0  0  0
  -31.5501  -10.9967   19.6508 O   0  0  0  0  0  0  0  0  0  0  0  0
  -23.5700  -28.5716   23.0668 O   0  0  0  0  0  0  0  0  0  0  0  0
  -21.9420  -29.3202   19.7526 O   0  0  0  0  0  0  0  0  0  0  0  0
  -22.7443  -24.9493   18.0876 O   0  0  0  0  0  0  0  0  0  0  0  0
  -30.7329  -18.2172   19.7219 O   0  0  0  0  0  0  0  0  0  0  0  0
  -29.2227  -22.9675   18.8873 O   0  0  0  0  0  0  0  0  0  0  0  0
  -24.9283   -7.9871   22.4220 O   0  0  0  0  0  0  0  0  0  0  0  0
  -28.3653  -24.1905   21.8648 O   0  0  0  0  0  0  0  0  0  1  0  0
  -19.8929   -7.2357   20.3042 F   0  0  0  0  0  0  0  0  0  0  0  0
  -23.0441  -10.0089   22.4917 F   0  0  0  0  0  0  0  0  0  0  0  0
  1  2  1  0  0  0  0
  1  5  2  0  0  0  0
  2  6  2  0  0  0  0
  3  8  2  0  0  0  0
  3 15  1  0  0  0  0
  4  9  1  0  0  0  0
  4 15  2  0  0  0  0
  5 17  1  0  0  0  0
  6 19  1  0  0  0  0
  7 10  2  0  0  0  0
  7 18  1  0  0  0  0
  8 21  1  0  0  0  0
  9 21  2  0  0  0  0
 10 22  1  0  0  0  0
 11 12  2  0  0  0  0
 11 23  1  0  0  0  0
 12 24  1  0  0  0  0
 13 20  1  0  0  0  0
 13 22  2  0  0  0  0
 14 24  2  0  0  0  0
 14 25  1  0  0  0  0
 15 26  1  0  0  0  0
 16 26  1  0  0  0  0
 16 27  2  0  0  0  0
 16 28  1  0  0  0  0
 17 19  2  0  0  0  0
 17 33  1  0  0  0  0
 18 20  2  0  0  0  0
 18 34  1  0  0  0  0
 19 45  1  0  0  0  0
 20 35  1  0  0  0  0
 21 76  1  0  0  0  0
 22 77  1  0  0  0  0
 23 25  2  0  0  0  0
 23 76  1  0  0  0  0
 24 78  1  0  0  0  0
 25 79  1  0  0  0  0
 26 60  2  0  0  0  0
 27 61  1  0  0  0  0
 27 65  1  0  0  0  0
 28 66  1  0  0  0  0
 28 70  2  0  0  0  0
 29 46  1  0  0  0  0
 29 67  1  0  0  0  0
 29 71  2  0  0  0  0
 30 57  1  0  0  0  0
 30 62  1  0  0  0  0
 30 72  2  0  0  0  0
 31 58  1  0  0  0  0
 31 68  1  0  0  0  0
 31 73  2  0  0  0  0
 32 63  1  0  0  0  0
 32 64  1  0  0  0  0
 32 74  2  0  0  0  0
 33 36  1  0  0  0  0
 34 46  1  0  0  0  0
 35 62  1  0  0  0  0
 36 38  1  0  0  0  0
 37 39  1  0  0  0  0
 37 41  1  0  0  0  0
 38 45  1  0  0  0  0
 39 48  1  0  0  0  0
 40 44  1  0  0  0  0
 40 49  1  0  0  0  0
 41 63  1  0  0  0  0
 42 47  1  0  0  0  0
 42 64  1  0  0  0  0
 43 48  1  0  0  0  0
 43 63  1  0  0  0  0
 44 75  1  0  0  0  0
 45 67  1  0  0  0  0
 46 62  1  0  0  0  0
 47 50  1  0  0  0  0
 47 56  1  0  0  0  0
 48 61  1  0  0  0  0
 49 50  1  0  0  0  0
 49 64  1  0  0  0  0
 50 75  1  0  0  0  0
 51 58  1  0  0  0  0
 52 59  1  0  0  0  0
 53 59  1  0  0  0  0
 54 59  1  0  0  0  0
 55 69  1  0  0  0  0
 56 77  1  0  0  0  0
 57 59  1  0  0  0  0
 57 68  1  0  0  0  0
 58 69  1  0  0  0  0
 60 61  1  0  0  0  0
M  CHG  1  69   1
M  ISO  4  32 100  56 101  64 100  77 101
M  END
> <Batch ID>
0022

> <Smiles>
CNC(C)C(=O)NC(C(=O)N1Cc2cc([101O:1][101CH2:1]C3C[100N:0]([100C:0](=O)N4CCCC(n5nc(-c6ccc(Oc7ccc(F)cc7F)cc6)c(C(N)=O)c5N)C4)C4CCOC43)ccc2CC1C(=O)NC1CCCc2ccccc21)C(C)(C)C

> <Shape>
0.290

> <Color>
0.070

> <Negative vol penalty>
0.000

$$$$

  -OEChem-04042321143D

 87 96  0     1  0  0  0  0  0999 V2000
  -30.4129  -26.2305   16.7038 C   0  0  0  0  0  0  0  0  0  0  0  0
  -29.0267  -26.1848   16.8125 C   0  0  0  0  0  0  0  0  0  0  0  0
  -23.8510  -13.1326   20.6909 C   0  0  0  0  0  0  0  0  0  0  0  0
  -26.0666  -14.0955   20.7280 C   0  0  0  0  0  0  0  0  0  0  0  0
  -31.1843  -26.6193   17.7981 C   0  0  0  0  0  0  0  0  0  0  0  0
  -28.4112  -26.5270   18.0160 C   0  0  0  0  0  0  0  0  0  0  0  0
  -23.0220  -29.3488   18.7231 C   0  0  0  0  0  0  0  0  0  0  0  0
  -24.4068  -11.8533   20.7006 C   0  0  0  0  0  0  0  0  0  0  0  0
  -26.6224  -12.8162   20.7378 C   0  0  0  0  0  0  0  0  0  0  0  0
  -21.7421  -28.8706   19.0004 C   0  0  0  0  0  0  0  0  0  0  0  0
  -25.2360   -8.3343   21.0800 C   0  0  0  0  0  0  0  0  0  0  0  0
  -24.6779   -7.3913   21.9431 C   0  0  0  0  0  0  0  0  0  0  0  0
  -22.0845  -29.3306   21.3436 C   0  0  0  0  0  0  0  0  0  0  0  0
  -20.4727  -24.2660   19.5051 C   0  0  0  0  0  0  0  0  0  0  0  0
  -20.7042  -24.5279   21.8957 C   0  0  0  0  0  0  0  0  0  0  0  0
  -25.2119   -8.8024   23.8301 C   0  0  0  0  0  0  0  0  0  0  0  0
  -24.6809  -14.2537   20.7045 C   0  0  0  0  0  0  0  0  0  0  0  0
  -23.2377  -16.1325   21.6506 C   0  0  0  0  0  0  0  0  0  0  0  0
  -30.5774  -26.9757   19.0127 C   0  0  0  0  0  0  0  0  0  0  0  0
  -23.8482  -29.8121   19.7570 C   0  0  0  0  0  0  0  0  0  0  0  0
  -29.1753  -26.9197   19.1280 C   0  0  0  0  0  0  0  0  0  0  0  0
  -23.3735  -29.8165   21.0764 C   0  0  0  0  0  0  0  0  0  0  0  0
  -22.1846  -23.0442   20.6941 C   0  0  0  0  0  0  0  0  0  0  0  0
  -20.0564  -24.8479   20.7025 C   0  0  0  0  0  0  0  0  0  0  0  0
  -25.7925  -11.6951   20.7241 C   0  0  0  0  0  0  0  0  0  0  0  0
  -21.2742  -28.8587   20.3112 C   0  0  0  0  0  0  0  0  0  0  0  0
  -25.7821   -9.5113   21.5920 C   0  0  0  0  0  0  0  0  0  0  0  0
  -24.6658   -7.6253   23.3181 C   0  0  0  0  0  0  0  0  0  0  0  0
  -21.5368  -23.3641   19.5009 C   0  0  0  0  0  0  0  0  0  0  0  0
  -21.7684  -23.6261   21.8915 C   0  0  0  0  0  0  0  0  0  0  0  0
  -25.7700   -9.7453   22.9670 C   0  0  0  0  0  0  0  0  0  0  0  0
  -24.1074  -15.5755   20.6939 C   0  0  0  0  0  0  0  0  0  0  0  0
  -22.9841  -17.4003   21.1870 C   0  0  0  0  0  0  0  0  0  0  0  0
  -22.7067  -15.5555   22.8509 C   0  0  0  0  0  0  0  0  0  0  0  0
  -26.6651  -28.9360   20.9408 C   0  0  0  0  0  0  0  0  0  0  0  0
  -26.3151  -31.6249   22.7212 C   0  0  0  0  0  0  0  0  0  0  0  0
  -24.2137  -33.9337   24.0998 C   0  0  0  0  0  0  0  0  0  0  0  0
  -25.2672  -22.1576   19.0722 C   0  0  0  0  0  0  0  0  0  0  0  0
  -31.4555  -27.3440   20.1824 C   0  0  0  0  0  0  0  0  0  0  0  0
  -25.2163  -30.3496   19.4379 C   0  0  0  0  0  0  0  0  0  0  0  0
  -24.2136  -30.3219   22.2197 C   0  0  0  0  0  0  0  0  0  0  0  0
  -30.7054  -28.0514   21.3081 C   0  0  0  0  0  0  0  0  0  0  0  0
  -24.0124  -19.5677   16.7441 C   0  0  0  0  0  0  0  0  0  0  0  0
  -16.7421  -26.3218   20.4488 C   0  0  0  0  0  0  0  0  0  0  0  0
  -29.4045  -27.3204   21.6246 C   0  0  0  0  0  0  0  0  0  0  0  0
  -23.9256  -18.3311   17.6370 C   0  0  0  0  0  0  0  0  0  0  0  0
  -17.4129  -27.3958   21.2867 C   0  0  0  0  0  0  0  0  0  0  0  0
  -17.9128  -25.6558   19.7361 C   0  0  0  0  0  0  0  0  0  0  0  0
  -25.0911  -20.5361   17.2197 C   0  0  0  0  0  0  0  0  0  0  0  0
  -24.8637  -19.7053   19.5375 C   0  0  0  0  0  0  0  0  0  0  0  0
  -28.4694  -27.3073   20.4093 C   0  0  1  0  0  0  0  0  0  0  0  0
  -26.1641  -30.3187   20.6330 C   0  0  1  0  0  0  0  0  0  0  0  0
  -23.7547  -18.7309   19.1128 C   0  0  2  0  0  0  0  0  0  0  0  0
  -18.7250  -26.7386   21.7491 C   0  0  2  0  0  0  0  0  0  0  0  0
  -24.2179  -35.9932   25.5335 C   0  0  0  0  0  0  0  0  0  0  0  0
  -26.7934  -29.9005   25.1925 C   0  0  0  0  0  0  0  0  0  0  0  0
  -25.8611  -31.7605   26.5851 C   0  0  0  0  0  0  0  0  0  0  0  0
  -27.9289  -32.1283   25.2392 C   0  0  0  0  0  0  0  0  0  0  0  0
  -24.8553  -24.0116   20.6445 C   0  0  0  0  0  0  0  0  0  0  0  0
  -23.0122  -35.5741   21.9493 C   0  0  0  0  0  0  0  0  0  0  0  0
  -23.3222  -22.0795   20.6888 C   0  0  0  0  0  0  0  0  0  0  0  0
  -19.8222  -27.7920   21.8634 C   0  0  0  0  0  0  0  0  0  1  0  0
  -25.6992  -31.9472   24.0612 C   0  0  1  0  0  0  0  0  0  0  0  0
  -24.2538  -35.4511   24.1131 C   0  0  2  0  0  0  0  0  0  0  0  0
  -26.5553  -31.4227   25.2484 C   0  0  0  0  0  0  0  0  0  0  0  0
  -24.3873  -16.4201   19.6978 N   0  0  0  0  0  0  0  0  0  0  0  0
  -23.6895  -17.5208   20.0260 N   0  0  0  0  0  0  0  0  0  0  0  0
  -19.0030  -25.7404   20.7068 N   0  0  3  0  0  0  0  0  0  0  0  0
  -25.5465  -30.8316   21.8576 N   0  0  0  0  0  0  0  0  0  0  0  0
  -24.9303  -20.8655   18.6364 N   0  0  0  0  0  0  0  0  0  0  0  0
  -22.2286  -18.4126   21.6634 N   0  0  0  0  0  0  0  0  0  0  0  0
  -23.4273  -15.7117   24.0428 N   0  0  0  0  0  0  0  0  0  0  0  0
  -27.8168  -28.5903   20.2599 N   0  0  0  0  0  0  0  0  0  0  0  0
  -25.4804  -33.3895   24.0737 N   0  0  0  0  0  0  0  0  0  0  0  0
  -24.5503  -22.6717   20.1632 N   0  0  0  0  0  0  0  0  0  0  0  0
  -23.0885  -36.0067   23.3685 N   0  3  0  0  0  0  0  0  0  0  0  0
  -21.6335  -14.9062   22.8629 O   0  0  0  0  0  0  0  0  0  0  0  0
  -26.0530  -28.2352   21.7383 O   0  0  0  0  0  0  0  0  0  0  0  0
  -27.4338  -32.0669   22.4478 O   0  0  0  0  0  0  0  0  0  0  0  0
  -23.1638  -33.2949   24.1150 O   0  0  0  0  0  0  0  0  0  0  0  0
  -26.1514  -22.8178   18.5116 O   0  0  0  0  0  0  0  0  0  0  0  0
  -26.3351  -10.4469   20.7338 O   0  0  0  0  0  0  0  0  0  0  0  0
  -20.0256  -28.3919   20.5847 O   0  0  0  0  0  0  0  0  0  1  0  0
  -24.1284   -6.7204   24.1467 F   0  0  0  0  0  0  0  0  0  0  0  0
  -21.9285  -22.8093   18.3452 F   0  0  0  0  0  0  0  0  0  0  0  0
  -22.3841  -23.3237   23.0430 F   0  0  0  0  0  0  0  0  0  0  0  0
  -26.2921  -10.8748   23.4647 F   0  0  0  0  0  0  0  0  0  0  0  0
  1  2  1  0  0  0  0
  1  5  2  0  0  0  0
  2  6  2  0  0  0  0
  3  8  2  0  0  0  0
  3 17  1  0  0  0  0
  4  9  1  0  0  0  0
  4 17  2  0  0  0  0
  5 19  1  0  0  0  0
  6 21  1  0  0  0  0
  7 10  2  0  0  0  0
  7 20  1  0  0  0  0
  8 25  1  0  0  0  0
  9 25  2  0  0  0  0
 10 26  1  0  0  0  0
 11 12  2  0  0  0  0
 11 27  1  0  0  0  0
 12 28  1  0  0  0  0
 13 22  1  0  0  0  0
 13 26  2  0  0  0  0
 14 24  1  0  0  0  0
 14 29  2  0  0  0  0
 15 24  2  0  0  0  0
 15 30  1  0  0  0  0
 16 28  2  0  0  0  0
 16 31  1  0  0  0  0
 17 32  1  0  0  0  0
 18 32  1  0  0  0  0
 18 33  2  0  0  0  0
 18 34  1  0  0  0  0
 19 21  2  0  0  0  0
 19 39  1  0  0  0  0
 20 22  2  0  0  0  0
 20 40  1  0  0  0  0
 21 51  1  0  0  0  0
 22 41  1  0  0  0  0
 23 29  1  0  0  0  0
 23 30  2  0  0  0  0
 23 61  1  0  0  0  0
 24 68  1  0  0  0  0
 25 82  1  0  0  0  0
 26 83  1  0  0  0  0
 27 31  2  0  0  0  0
 27 82  1  0  0  0  0
 28 84  1  0  0  0  0
 29 85  1  0  0  0  0
 30 86  1  0  0  0  0
 31 87  1  0  0  0  0
 32 66  2  0  0  0  0
 33 67  1  0  0  0  0
 33 71  1  0  0  0  0
 34 72  1  0  0  0  0
 34 77  2  0  0  0  0
 35 52  1  0  0  0  0
 35 73  1  0  0  0  0
 35 78  2  0  0  0  0
 36 63  1  0  0  0  0
 36 69  1  0  0  0  0
 36 79  2  0  0  0  0
 37 64  1  0  0  0  0
 37 74  1  0  0  0  0
 37 80  2  0  0  0  0
 38 70  1  0  0  0  0
 38 75  1  0  0  0  0
 38 81  2  0  0  0  0
 39 42  1  0  0  0  0
 40 52  1  0  0  0  0
 41 69  1  0  0  0  0
 42 45  1  0  0  0  0
 43 46  1  0  0  0  0
 43 49  1  0  0  0  0
 44 47  1  0  0  0  0
 44 48  1  0  0  0  0
 45 51  1  0  0  0  0
 46 53  1  0  0  0  0
 47 54  1  0  0  0  0
 48 68  1  0  0  0  0
 49 70  1  0  0  0  0
 50 53  1  0  0  0  0
 50 70  1  0  0  0  0
 51 73  1  0  0  0  0
 52 69  1  0  0  0  0
 53 67  1  0  0  0  0
 54 62  1  0  0  0  0
 54 68  1  0  0  0  0
 55 64  1  0  0  0  0
 56 65  1  0  0  0  0
 57 65  1  0  0  0  0
 58 65  1  0  0  0  0
 59 75  1  0  0  0  0
 60 76  1  0  0  0  0
 61 75  1  0  0  0  0
 62 83  1  0  0  0  0
 63 65  1  0  0  0  0
 63 74  1  0  0  0  0
 64 76  1  0  0  0  0
 66 67  1  0  0  0  0
M  CHG  1  76   1
M  ISO  4  38 100  62 101  75 100  83 101
M  END
> <Batch ID>
0022

> <Smiles>
CNC(C)C(=O)NC(C(=O)N1Cc2cc([101O:1][101CH2:1]C3CCCN3c3cc(F)c(C[100N:0](C)[100C:0](=O)N4CCCC(n5nc(-c6ccc(Oc7ccc(F)cc7F)cc6)c(C(N)=O)c5N)C4)c(F)c3)ccc2CC1C(=O)NC1CCCc2ccccc21)C(C)(C)C

> <Shape>
0.261

> <Color>
0.080

> <Negative vol penalty>
0.000

$$$$

  -OEChem-04042321143D

 86 94  0     1  0  0  0  0  0999 V2000
  -21.6583  -10.9801   19.2913 C   0  0  0  0  0  0  0  0  0  0  0  0
  -21.3817  -12.2918   19.6635 C   0  0  0  0  0  0  0  0  0  0  0  0
  -31.1464  -26.5638   17.7251 C   0  0  0  0  0  0  0  0  0  0  0  0
  -32.0094  -27.5520   19.7539 C   0  0  0  0  0  0  0  0  0  0  0  0
  -22.9260  -10.4454   19.5167 C   0  0  0  0  0  0  0  0  0  0  0  0
  -22.3725  -13.0691   20.2622 C   0  0  0  0  0  0  0  0  0  0  0  0
  -23.2300  -19.0959   19.5924 C   0  0  0  0  0  0  0  0  0  0  0  0
  -23.7903  -27.0184   25.5373 C   0  0  0  0  0  0  0  0  0  0  0  0
  -23.7465  -25.6250   25.5819 C   0  0  0  0  0  0  0  0  0  0  0  0
  -32.3137  -26.9253   17.0525 C   0  0  0  0  0  0  0  0  0  0  0  0
  -33.1768  -27.9134   19.0813 C   0  0  0  0  0  0  0  0  0  0  0  0
  -22.8650  -20.1883   20.3781 C   0  0  0  0  0  0  0  0  0  0  0  0
  -34.9172  -27.9063   14.7109 C   0  0  0  0  0  0  0  0  0  0  0  0
  -34.7876  -28.4803   13.4463 C   0  0  0  0  0  0  0  0  0  0  0  0
  -25.0498  -20.1751   21.4007 C   0  0  0  0  0  0  0  0  0  0  0  0
  -26.1610  -25.5505   25.6224 C   0  0  0  0  0  0  0  0  0  0  0  0
  -33.4995  -30.2887   14.3993 C   0  0  0  0  0  0  0  0  0  0  0  0
  -30.9942  -26.8773   19.0758 C   0  0  0  0  0  0  0  0  0  0  0  0
  -29.5420  -25.3029   20.4614 C   0  0  0  0  0  0  0  0  0  0  0  0
  -23.9357  -11.2197   20.1097 C   0  0  0  0  0  0  0  0  0  0  0  0
  -24.5061  -18.5271   19.7130 C   0  0  0  0  0  0  0  0  0  0  0  0
  -23.6545  -12.5438   20.4969 C   0  0  0  0  0  0  0  0  0  0  0  0
  -25.4294  -19.0772   20.6136 C   0  0  0  0  0  0  0  0  0  0  0  0
  -25.0194  -27.6779   25.5351 C   0  0  0  0  0  0  0  0  0  0  0  0
  -26.2048  -26.9439   25.5777 C   0  0  0  0  0  0  0  0  0  0  0  0
  -24.9319  -24.8910   25.6245 C   0  0  0  0  0  0  0  0  0  0  0  0
  -33.3289  -27.6000   17.7306 C   0  0  0  0  0  0  0  0  0  0  0  0
  -23.7740  -20.7263   21.2844 C   0  0  0  0  0  0  0  0  0  0  0  0
  -34.3379  -28.5234   15.8197 C   0  0  0  0  0  0  0  0  0  0  0  0
  -34.0788  -29.6715   13.2905 C   0  0  0  0  0  0  0  0  0  0  0  0
  -33.6291  -29.7146   15.6639 C   0  0  0  0  0  0  0  0  0  0  0  0
  -29.7884  -26.5047   19.7710 C   0  0  0  0  0  0  0  0  0  0  0  0
  -28.2620  -25.4385   20.9408 C   0  0  0  0  0  0  0  0  0  0  0  0
  -30.3939  -24.1656   20.6524 C   0  0  0  0  0  0  0  0  0  0  0  0
  -25.6187  -15.6728   20.5608 C   0  0  0  0  0  0  0  0  0  0  0  0
  -28.4643  -16.9497   19.6694 C   0  0  0  0  0  0  0  0  0  0  0  0
  -30.3534  -19.7464   19.1631 C   0  0  0  0  0  0  0  0  0  0  0  0
  -24.6430  -29.2917   23.0558 C   0  0  0  0  0  0  0  0  0  0  0  0
  -25.2767  -10.5830   20.3762 C   0  0  0  0  0  0  0  0  0  0  0  0
  -24.8935  -17.3657   18.8392 C   0  0  0  0  0  0  0  0  0  0  0  0
  -26.8187  -18.5161   20.7666 C   0  0  0  0  0  0  0  0  0  0  0  0
  -26.3820  -11.5928   20.6743 C   0  0  0  0  0  0  0  0  0  0  0  0
  -24.3664  -28.2299   19.7661 C   0  0  0  0  0  0  0  0  0  0  0  0
  -25.8985  -12.6317   21.6812 C   0  0  0  0  0  0  0  0  0  0  0  0
  -25.7090  -27.5573   19.4829 C   0  0  0  0  0  0  0  0  0  0  0  0
  -24.5559  -29.4975   20.5907 C   0  0  0  0  0  0  0  0  0  0  0  0
  -26.6184  -28.5985   21.6196 C   0  0  0  0  0  0  0  0  0  0  0  0
  -24.7103  -13.4265   21.1264 C   0  0  1  0  0  0  0  0  0  0  0  0
  -26.0438  -16.5440   19.4128 C   0  0  1  0  0  0  0  0  0  0  0  0
  -26.4858  -27.3066   20.7873 C   0  0  2  0  0  0  0  0  0  0  0  0
  -27.5324  -27.6281   25.5748 C   0  0  0  0  0  0  0  0  0  0  0  0
  -25.7387  -32.0865   24.5422 C   0  0  0  0  0  0  0  0  0  0  0  0
  -32.6540  -20.4708   18.4704 C   0  0  0  0  0  0  0  0  0  0  0  0
  -29.5376  -16.1567   22.4134 C   0  0  0  0  0  0  0  0  0  0  0  0
  -31.4652  -17.7078   22.0305 C   0  0  0  0  0  0  0  0  0  0  0  0
  -31.1192  -15.7542   20.5184 C   0  0  0  0  0  0  0  0  0  0  0  0
  -26.1320  -22.7204   25.7150 C   0  0  0  0  0  0  0  0  0  0  0  0
  -29.3090  -21.2250   16.8218 C   0  0  0  0  0  0  0  0  0  0  0  0
  -25.0410  -29.1704   25.4857 C   0  0  0  0  0  0  0  0  0  0  0  0
  -23.0782  -22.6257   24.2772 C   0  0  0  0  0  0  0  0  0  0  0  0
  -26.3775  -30.7662   24.1614 C   0  0  0  0  0  0  0  0  0  0  0  0
  -23.6331  -22.7769   25.6885 C   0  0  0  0  0  0  0  0  0  0  0  0
  -24.0327  -21.8987   23.3373 C   0  0  0  0  0  0  0  0  0  1  0  0
  -29.5509  -17.7315   20.3674 C   0  0  1  0  0  0  0  0  0  0  0  0
  -31.2386  -20.1678   18.0041 C   0  0  2  0  0  0  0  0  0  0  0  0
  -30.3914  -16.8472   21.3312 C   0  0  0  0  0  0  0  0  0  0  0  0
  -28.7484  -27.3421   19.8061 N   0  0  0  0  0  0  0  0  0  0  0  0
  -27.8361  -26.6654   20.5243 N   0  0  0  0  0  0  0  0  0  0  0  0
  -27.1479  -17.3765   19.8945 N   0  0  0  0  0  0  0  0  0  0  0  0
  -25.3018  -29.2235   21.8192 N   0  0  0  0  0  0  0  0  0  0  0  0
  -27.4706  -24.6268   21.6737 N   0  0  0  0  0  0  0  0  0  0  0  0
  -31.6785  -24.1915   20.0925 N   0  0  0  0  0  0  0  0  0  0  0  0
  -25.1662  -14.4235   20.1815 N   0  0  0  0  0  0  0  0  0  0  0  0
  -30.3297  -18.3762   19.3157 N   0  0  0  0  0  0  0  0  0  0  0  0
  -24.8873  -23.4902   25.6703 N   0  0  3  0  0  0  0  0  0  0  0  0
  -25.4063  -29.6737   24.1693 N   0  0  0  0  0  0  0  0  0  0  0  0
  -30.6882  -21.3881   17.3491 N   0  3  0  0  0  0  0  0  0  0  0  0
  -30.0210  -23.1495   21.2865 O   0  0  0  0  0  0  0  0  0  0  0  0
  -25.6970  -16.1017   21.7061 O   0  0  0  0  0  0  0  0  0  0  0  0
  -28.7727  -15.9998   18.9453 O   0  0  0  0  0  0  0  0  0  0  0  0
  -29.7469  -20.5523   19.8654 O   0  0  0  0  0  0  0  0  0  0  0  0
  -23.4369  -29.0332   23.1594 O   0  0  0  0  0  0  0  0  0  0  0  0
  -34.4682  -27.9526   17.0747 O   0  0  0  0  0  0  0  0  0  0  0  0
  -23.4201  -21.7921   22.0530 O   0  0  0  0  0  0  0  0  0  1  0  0
  -33.9557  -30.2235   12.0763 F   0  0  0  0  0  0  0  0  0  0  0  0
  -33.0714  -30.3127   16.7255 F   0  0  0  0  0  0  0  0  0  0  0  0
  1  2  1  0  0  0  0
  1  5  2  0  0  0  0
  2  6  2  0  0  0  0
  3 10  2  0  0  0  0
  3 18  1  0  0  0  0
  4 11  1  0  0  0  0
  4 18  2  0  0  0  0
  5 20  1  0  0  0  0
  6 22  1  0  0  0  0
  7 12  2  0  0  0  0
  7 21  1  0  0  0  0
  8  9  2  0  0  0  0
  8 24  1  0  0  0  0
  9 26  1  0  0  0  0
 10 27  1  0  0  0  0
 11 27  2  0  0  0  0
 12 28  1  0  0  0  0
 13 14  2  0  0  0  0
 13 29  1  0  0  0  0
 14 30  1  0  0  0  0
 15 23  1  0  0  0  0
 15 28  2  0  0  0  0
 16 25  1  0  0  0  0
 16 26  2  0  0  0  0
 17 30  2  0  0  0  0
 17 31  1  0  0  0  0
 18 32  1  0  0  0  0
 19 32  1  0  0  0  0
 19 33  2  0  0  0  0
 19 34  1  0  0  0  0
 20 22  2  0  0  0  0
 20 39  1  0  0  0  0
 21 23  2  0  0  0  0
 21 40  1  0  0  0  0
 22 48  1  0  0  0  0
 23 41  1  0  0  0  0
 24 25  2  0  0  0  0
 24 59  1  0  0  0  0
 25 51  1  0  0  0  0
 26 75  1  0  0  0  0
 27 83  1  0  0  0  0
 28 84  1  0  0  0  0
 29 31  2  0  0  0  0
 29 83  1  0  0  0  0
 30 85  1  0  0  0  0
 31 86  1  0  0  0  0
 32 67  2  0  0  0  0
 33 68  1  0  0  0  0
 33 71  1  0  0  0  0
 34 72  1  0  0  0  0
 34 78  2  0  0  0  0
 35 49  1  0  0  0  0
 35 73  1  0  0  0  0
 35 79  2  0  0  0  0
 36 64  1  0  0  0  0
 36 69  1  0  0  0  0
 36 80  2  0  0  0  0
 37 65  1  0  0  0  0
 37 74  1  0  0  0  0
 37 81  2  0  0  0  0
 38 70  1  0  0  0  0
 38 76  1  0  0  0  0
 38 82  2  0  0  0  0
 39 42  1  0  0  0  0
 40 49  1  0  0  0  0
 41 69  1  0  0  0  0
 42 44  1  0  0  0  0
 43 45  1  0  0  0  0
 43 46  1  0  0  0  0
 44 48  1  0  0  0  0
 45 50  1  0  0  0  0
 46 70  1  0  0  0  0
 47 50  1  0  0  0  0
 47 70  1  0  0  0  0
 48 73  1  0  0  0  0
 49 69  1  0  0  0  0
 50 68  1  0  0  0  0
 52 61  1  0  0  0  0
 53 65  1  0  0  0  0
 54 66  1  0  0  0  0
 55 66  1  0  0  0  0
 56 66  1  0  0  0  0
 57 75  1  0  0  0  0
 58 77  1  0  0  0  0
 59 76  1  0  0  0  0
 60 62  1  0  0  0  0
 60 63  1  0  0  0  0
 61 76  1  0  0  0  0
 62 75  1  0  0  0  0
 63 84  1  0  0  0  0
 64 66  1  0  0  0  0
 64 74  1  0  0  0  0
 65 77  1  0  0  0  0
 67 68  1  0  0  0  0
M  CHG  1  77   1
M  ISO  4  38 100  63 101  76 100  84 101
M  END
> <Batch ID>
0022

> <Smiles>
CC[100N:0](Cc1ccc(N(C)CC[101CH2:1][101O:1]c2ccc3c(c2)CN(C(=O)C(NC(=O)C(C)NC)C(C)(C)C)C(C(=O)NC2CCCc4ccccc42)C3)cc1C)[100C:0](=O)N1CCCC(n2nc(-c3ccc(Oc4ccc(F)cc4F)cc3)c(C(N)=O)c2N)C1

> <Shape>
0.202

> <Color>
0.084

> <Negative vol penalty>
0.000

$$$$

  -OEChem-04042321143D

 87 96  0     1  0  0  0  0  0999 V2000
  -24.1632  -18.6755   21.9604 C   0  0  0  0  0  0  0  0  0  0  0  0
  -24.9322  -18.0138   22.9124 C   0  0  0  0  0  0  0  0  0  0  0  0
  -23.1900   -9.8196   19.9313 C   0  0  0  0  0  0  0  0  0  0  0  0
  -23.5687   -9.9995   22.3107 C   0  0  0  0  0  0  0  0  0  0  0  0
  -23.8706  -20.0292   22.1205 C   0  0  0  0  0  0  0  0  0  0  0  0
  -25.4099  -18.7060   24.0247 C   0  0  0  0  0  0  0  0  0  0  0  0
  -24.8096  -16.1120   28.3323 C   0  0  0  0  0  0  0  0  0  0  0  0
  -33.3877  -11.7956   25.1081 C   0  0  0  0  0  0  0  0  0  0  0  0
  -32.6578  -12.1061   23.9607 C   0  0  0  0  0  0  0  0  0  0  0  0
  -22.4240   -8.6728   20.1399 C   0  0  0  0  0  0  0  0  0  0  0  0
  -22.8026   -8.8527   22.5193 C   0  0  0  0  0  0  0  0  0  0  0  0
  -25.7178  -15.0860   28.5896 C   0  0  0  0  0  0  0  0  0  0  0  0
  -21.2457   -5.7684   23.6477 C   0  0  0  0  0  0  0  0  0  0  0  0
  -21.7424   -4.8085   24.5294 C   0  0  0  0  0  0  0  0  0  0  0  0
  -26.9381  -16.5462   30.0721 C   0  0  0  0  0  0  0  0  0  0  0  0
  -23.7008   -4.5450   23.1393 C   0  0  0  0  0  0  0  0  0  0  0  0
  -23.7625  -10.4830   21.0167 C   0  0  0  0  0  0  0  0  0  0  0  0
  -24.1008  -12.9997   20.7735 C   0  0  0  0  0  0  0  0  0  0  0  0
  -24.3369  -20.7359   23.2402 C   0  0  0  0  0  0  0  0  0  0  0  0
  -24.9652  -17.3683   28.9356 C   0  0  0  0  0  0  0  0  0  0  0  0
  -25.1245  -20.0708   24.1992 C   0  0  0  0  0  0  0  0  0  0  0  0
  -26.0290  -17.5857   29.8228 C   0  0  0  0  0  0  0  0  0  0  0  0
  -32.7740  -11.8447   26.3597 C   0  0  0  0  0  0  0  0  0  0  0  0
  -31.3141  -12.4658   24.0650 C   0  0  0  0  0  0  0  0  0  0  0  0
  -31.4304  -12.2044   26.4640 C   0  0  0  0  0  0  0  0  0  0  0  0
  -22.2302   -8.1894   21.4339 C   0  0  0  0  0  0  0  0  0  0  0  0
  -26.7839  -15.3039   29.4574 C   0  0  0  0  0  0  0  0  0  0  0  0
  -21.9766   -6.1167   22.5118 C   0  0  0  0  0  0  0  0  0  0  0  0
  -22.9700   -4.1968   24.2752 C   0  0  0  0  0  0  0  0  0  0  0  0
  -23.2041   -5.5050   22.2576 C   0  0  0  0  0  0  0  0  0  0  0  0
  -30.7004  -12.5150   25.3167 C   0  0  0  0  0  0  0  0  0  0  0  0
  -24.5544  -11.6673   20.8018 C   0  0  0  0  0  0  0  0  0  0  0  0
  -25.2319  -13.7426   20.5381 C   0  0  0  0  0  0  0  0  0  0  0  0
  -22.7756  -13.5194   20.9446 C   0  0  0  0  0  0  0  0  0  0  0  0
  -25.4573  -20.3225   27.8706 C   0  0  0  0  0  0  0  0  0  0  0  0
  -25.0673  -21.0965   30.9965 C   0  0  0  0  0  0  0  0  0  0  0  0
  -25.2008  -20.1157   34.2625 C   0  0  0  0  0  0  0  0  0  0  0  0
  -31.0366  -12.7825   21.5813 C   0  0  0  0  0  0  0  0  0  0  0  0
  -24.0346  -22.2097   23.3460 C   0  0  0  0  0  0  0  0  0  0  0  0
  -23.9616  -18.4563   28.6684 C   0  0  0  0  0  0  0  0  0  0  0  0
  -26.2290  -18.9100   30.5118 C   0  0  0  0  0  0  0  0  0  0  0  0
  -24.2645  -22.7799   24.7433 C   0  0  0  0  0  0  0  0  0  0  0  0
  -34.5946  -10.2874   29.2185 C   0  0  0  0  0  0  0  0  0  0  0  0
  -34.8746  -11.7599   29.4408 C   0  0  0  0  0  0  0  0  0  0  0  0
  -29.5235  -13.4646   18.4313 C   0  0  0  0  0  0  0  0  0  0  0  0
  -25.6048  -22.3084   25.2983 C   0  0  0  0  0  0  0  0  0  0  0  0
  -28.0355  -13.2083   18.6808 C   0  0  0  0  0  0  0  0  0  0  0  0
  -34.1897  -10.2397   27.7496 C   0  0  0  0  0  0  0  0  0  0  0  0
  -33.7751  -12.4374   28.6309 C   0  0  0  0  0  0  0  0  0  0  0  0
  -30.4049  -12.4795   19.1971 C   0  0  0  0  0  0  0  0  0  0  0  0
  -28.6454  -12.1375   20.8872 C   0  0  0  0  0  0  0  0  0  0  0  0
  -25.6401  -20.7812   25.4319 C   0  0  1  0  0  0  0  0  0  0  0  0
  -24.5097  -19.8542   28.9385 C   0  0  1  0  0  0  0  0  0  0  0  0
  -27.7193  -13.1460   20.1880 C   0  0  2  0  0  0  0  0  0  0  0  0
  -24.8642  -20.9801   36.5942 C   0  0  0  0  0  0  0  0  0  0  0  0
  -27.7443  -22.5523   30.8406 C   0  0  0  0  0  0  0  0  0  0  0  0
  -27.8058  -22.5617   33.3435 C   0  0  0  0  0  0  0  0  0  0  0  0
  -25.9767  -23.7551   32.1380 C   0  0  0  0  0  0  0  0  0  0  0  0
  -23.0306  -18.1747   34.7933 C   0  0  0  0  0  0  0  0  0  0  0  0
  -29.9551  -13.5778   29.5695 C   0  0  0  0  0  0  0  0  0  0  0  0
  -29.8622  -13.2835   28.0772 C   0  0  0  0  0  0  0  0  0  0  0  0
  -29.0119  -14.6883   30.0168 C   0  0  0  0  0  0  0  0  0  1  0  0
  -25.9850  -21.2274   32.1880 C   0  0  1  0  0  0  0  0  0  0  0  0
  -24.2171  -20.2854   35.4062 C   0  0  2  0  0  0  0  0  0  0  0  0
  -26.8756  -22.4997   32.1132 C   0  0  0  0  0  0  0  0  0  0  0  0
  -25.8710  -11.5665   20.6004 N   0  0  0  0  0  0  0  0  0  0  0  0
  -26.2543  -12.8449   20.4432 N   0  0  0  0  0  0  0  0  0  0  0  0
  -33.5298  -11.5281   27.5047 N   0  0  0  0  0  0  0  0  0  0  0  0
  -25.2247  -19.9443   30.2132 N   0  0  0  0  0  0  0  0  0  0  0  0
  -30.0514  -12.4777   20.6184 N   0  0  0  0  0  0  0  0  0  0  0  0
  -25.4416  -15.0695   20.4052 N   0  0  0  0  0  0  0  0  0  0  0  0
  -21.7291  -12.6170   21.1786 N   0  0  0  0  0  0  0  0  0  0  0  0
  -30.5761  -12.7819   22.8975 N   0  0  0  0  0  0  0  0  0  0  0  0
  -30.8039  -12.2574   27.6994 N   0  0  0  0  0  0  0  0  0  0  0  0
  -24.9045  -20.3593   26.6047 N   0  0  0  0  0  0  0  0  0  0  0  0
  -25.1315  -21.1640   33.3695 N   0  0  0  0  0  0  0  0  0  0  0  0
  -23.7119  -18.9576   35.8562 N   0  3  0  0  0  0  0  0  0  0  0  0
  -22.5242  -14.7464   20.8753 O   0  0  0  0  0  0  0  0  0  0  0  0
  -26.6045  -20.6292   28.1730 O   0  0  0  0  0  0  0  0  0  0  0  0
  -24.2364  -21.9805   30.7732 O   0  0  0  0  0  0  0  0  0  0  0  0
  -25.9577  -19.1516   34.1725 O   0  0  0  0  0  0  0  0  0  0  0  0
  -32.1966  -13.0528   21.2598 O   0  0  0  0  0  0  0  0  0  0  0  0
  -21.4825   -7.0705   21.6378 O   0  0  0  0  0  0  0  0  0  0  0  0
  -27.6723  -14.3044   29.7097 O   0  0  0  0  0  0  0  0  0  1  0  0
  -23.4475   -3.2761   25.1228 F   0  0  0  0  0  0  0  0  0  0  0  0
  -23.9113   -5.8363   21.1686 F   0  0  0  0  0  0  0  0  0  0  0  0
  -29.4085  -12.8638   25.4168 F   0  0  0  0  0  0  0  0  0  0  0  0
  1  2  1  0  0  0  0
  1  5  2  0  0  0  0
  2  6  2  0  0  0  0
  3 10  2  0  0  0  0
  3 17  1  0  0  0  0
  4 11  1  0  0  0  0
  4 17  2  0  0  0  0
  5 19  1  0  0  0  0
  6 21  1  0  0  0  0
  7 12  2  0  0  0  0
  7 20  1  0  0  0  0
  8  9  1  0  0  0  0
  8 23  2  0  0  0  0
  9 24  2  0  0  0  0
 10 26  1  0  0  0  0
 11 26  2  0  0  0  0
 12 27  1  0  0  0  0
 13 14  2  0  0  0  0
 13 28  1  0  0  0  0
 14 29  1  0  0  0  0
 15 22  1  0  0  0  0
 15 27  2  0  0  0  0
 16 29  2  0  0  0  0
 16 30  1  0  0  0  0
 17 32  1  0  0  0  0
 18 32  1  0  0  0  0
 18 33  2  0  0  0  0
 18 34  1  0  0  0  0
 19 21  2  0  0  0  0
 19 39  1  0  0  0  0
 20 22  2  0  0  0  0
 20 40  1  0  0  0  0
 21 52  1  0  0  0  0
 22 41  1  0  0  0  0
 23 25  1  0  0  0  0
 23 68  1  0  0  0  0
 24 31  1  0  0  0  0
 24 73  1  0  0  0  0
 25 31  2  0  0  0  0
 25 74  1  0  0  0  0
 26 83  1  0  0  0  0
 27 84  1  0  0  0  0
 28 30  2  0  0  0  0
 28 83  1  0  0  0  0
 29 85  1  0  0  0  0
 30 86  1  0  0  0  0
 31 87  1  0  0  0  0
 32 66  2  0  0  0  0
 33 67  1  0  0  0  0
 33 71  1  0  0  0  0
 34 72  1  0  0  0  0
 34 78  2  0  0  0  0
 35 53  1  0  0  0  0
 35 75  1  0  0  0  0
 35 79  2  0  0  0  0
 36 63  1  0  0  0  0
 36 69  1  0  0  0  0
 36 80  2  0  0  0  0
 37 64  1  0  0  0  0
 37 76  1  0  0  0  0
 37 81  2  0  0  0  0
 38 70  1  0  0  0  0
 38 73  1  0  0  0  0
 38 82  2  0  0  0  0
 39 42  1  0  0  0  0
 40 53  1  0  0  0  0
 41 69  1  0  0  0  0
 42 46  1  0  0  0  0
 43 44  1  0  0  0  0
 43 48  1  0  0  0  0
 44 49  1  0  0  0  0
 45 47  1  0  0  0  0
 45 50  1  0  0  0  0
 46 52  1  0  0  0  0
 47 54  1  0  0  0  0
 48 68  1  0  0  0  0
 49 68  1  0  0  0  0
 50 70  1  0  0  0  0
 51 54  1  0  0  0  0
 51 70  1  0  0  0  0
 52 75  1  0  0  0  0
 53 69  1  0  0  0  0
 54 67  1  0  0  0  0
 55 64  1  0  0  0  0
 56 65  1  0  0  0  0
 57 65  1  0  0  0  0
 58 65  1  0  0  0  0
 59 77  1  0  0  0  0
 60 61  1  0  0  0  0
 60 62  1  0  0  0  0
 61 74  1  0  0  0  0
 62 84  1  0  0  0  0
 63 65  1  0  0  0  0
 63 76  1  0  0  0  0
 64 77  1  0  0  0  0
 66 67  1  0  0  0  0
M  CHG  1  77   1
M  ISO  4  38 100  62 101  73 100  84 101
M  END
> <Batch ID>
0022

> <Smiles>
CNC(C)C(=O)NC(C(=O)N1Cc2cc([101O:1][101CH2:1]CCNc3c(N4CCCC4)ccc([100NH:0][100C:0](=O)N4CCCC(n5nc(-c6ccc(Oc7ccc(F)cc7F)cc6)c(C(N)=O)c5N)C4)c3F)ccc2CC1C(=O)NC1CCCc2ccccc21)C(C)(C)C

> <Shape>
0.136

> <Color>
0.182

> <Negative vol penalty>
0.000

$$$$

  -OEChem-04042321143D

 88 97  0     1  0  0  0  0  0999 V2000
  -19.2864  -34.8831   18.5937 C   0  0  0  0  0  0  0  0  0  0  0  0
  -20.0227  -33.8811   17.9697 C   0  0  0  0  0  0  0  0  0  0  0  0
  -23.7348   -9.7526   21.6291 C   0  0  0  0  0  0  0  0  0  0  0  0
  -24.3671  -10.9168   23.6494 C   0  0  0  0  0  0  0  0  0  0  0  0
  -19.7458  -35.4457   19.7838 C   0  0  0  0  0  0  0  0  0  0  0  0
  -21.2194  -33.4420   18.5349 C   0  0  0  0  0  0  0  0  0  0  0  0
  -25.2273  -27.5468   19.2418 C   0  0  0  0  0  0  0  0  0  0  0  0
  -31.5155  -19.8091   20.9988 C   0  0  0  0  0  0  0  0  0  0  0  0
  -31.1308  -18.5274   20.6053 C   0  0  0  0  0  0  0  0  0  0  0  0
  -23.2146   -8.7083   22.3936 C   0  0  0  0  0  0  0  0  0  0  0  0
  -23.8468   -9.8726   24.4140 C   0  0  0  0  0  0  0  0  0  0  0  0
  -26.5330  -27.1015   19.0401 C   0  0  0  0  0  0  0  0  0  0  0  0
  -20.4070   -8.0802   24.1699 C   0  0  0  0  0  0  0  0  0  0  0  0
  -19.1583   -7.5731   23.8103 C   0  0  0  0  0  0  0  0  0  0  0  0
  -27.1884  -28.0909   21.1402 C   0  0  0  0  0  0  0  0  0  0  0  0
  -20.1437   -5.3952   23.4599 C   0  0  0  0  0  0  0  0  0  0  0  0
  -24.3111  -10.8569   22.2570 C   0  0  0  0  0  0  0  0  0  0  0  0
  -24.1678  -13.0832   21.0199 C   0  0  0  0  0  0  0  0  0  0  0  0
  -20.9439  -35.0065   20.3689 C   0  0  0  0  0  0  0  0  0  0  0  0
  -24.8942  -28.2781   20.3910 C   0  0  0  0  0  0  0  0  0  0  0  0
  -21.6959  -34.0002   19.7332 C   0  0  0  0  0  0  0  0  0  0  0  0
  -25.8773  -28.5421   21.3554 C   0  0  0  0  0  0  0  0  0  0  0  0
  -30.5471  -20.7590   21.3239 C   0  0  0  0  0  0  0  0  0  0  0  0
  -29.1940  -20.4271   21.2553 C   0  0  0  0  0  0  0  0  0  0  0  0
  -28.8093  -19.1454   20.8618 C   0  0  0  0  0  0  0  0  0  0  0  0
  -29.7777  -18.1955   20.5368 C   0  0  0  0  0  0  0  0  0  0  0  0
  -23.2706   -8.7683   23.7860 C   0  0  0  0  0  0  0  0  0  0  0  0
  -27.5144  -27.3760   19.9880 C   0  0  0  0  0  0  0  0  0  0  0  0
  -21.5241   -7.2448   24.1744 C   0  0  0  0  0  0  0  0  0  0  0  0
  -19.0267   -6.2306   23.4553 C   0  0  0  0  0  0  0  0  0  0  0  0
  -21.3924   -5.9023   23.8194 C   0  0  0  0  0  0  0  0  0  0  0  0
  -24.8491  -11.9356   21.4678 C   0  0  0  0  0  0  0  0  0  0  0  0
  -25.1123  -13.7910   20.3175 C   0  0  0  0  0  0  0  0  0  0  0  0
  -30.0221  -24.2648   20.8024 C   0  0  0  0  0  0  0  0  0  0  0  0
  -22.8032  -13.4745   21.2209 C   0  0  0  0  0  0  0  0  0  0  0  0
  -23.7896  -31.2068   20.9442 C   0  0  0  0  0  0  0  0  0  0  0  0
  -23.6389  -30.1500   24.0073 C   0  0  0  0  0  0  0  0  0  0  0  0
  -24.7705  -27.9741   26.3804 C   0  0  0  0  0  0  0  0  0  0  0  0
  -30.2615  -15.8411   19.7826 C   0  0  0  0  0  0  0  0  0  0  0  0
  -21.4240  -35.6778   21.6313 C   0  0  0  0  0  0  0  0  0  0  0  0
  -23.4753  -28.7283   20.6065 C   0  0  0  0  0  0  0  0  0  0  0  0
  -25.5667  -29.3059   22.6158 C   0  0  0  0  0  0  0  0  0  0  0  0
  -22.5118  -34.8946   22.3617 C   0  0  0  0  0  0  0  0  0  0  0  0
  -29.7469  -12.4657   18.7729 C   0  0  0  0  0  0  0  0  0  0  0  0
  -23.5807  -34.4237   21.3806 C   0  0  0  0  0  0  0  0  0  0  0  0
  -28.3707  -12.1213   19.3471 C   0  0  0  0  0  0  0  0  0  0  0  0
  -30.7143  -23.9682   18.5388 C   0  0  0  0  0  0  0  0  0  0  0  0
  -30.5417  -13.3730   19.7104 C   0  0  0  0  0  0  0  0  0  0  0  0
  -31.4745  -23.0012   19.4268 C   0  0  0  0  0  0  0  0  0  0  0  0
  -28.4665  -14.2485   20.7085 C   0  0  0  0  0  0  0  0  0  0  0  0
  -22.9863  -33.4798   20.3284 C   0  0  1  0  0  0  0  0  0  0  0  0
  -30.2213  -25.0410   19.5127 C   0  0  1  0  0  0  0  0  0  0  0  0
  -23.3622  -29.9080   21.5671 C   0  0  1  0  0  0  0  0  0  0  0  0
  -27.6033  -13.3892   19.7703 C   0  0  2  0  0  0  0  0  0  0  0  0
  -28.1577  -21.4480   21.6047 C   0  0  0  0  0  0  0  0  0  0  0  0
  -26.8399  -18.7748   19.3550 C   0  0  0  0  0  0  0  0  0  0  0  0
  -24.4872  -27.3775   28.8013 C   0  0  0  0  0  0  0  0  0  0  0  0
  -25.2829  -32.5953   24.7998 C   0  0  0  0  0  0  0  0  0  0  0  0
  -25.7670  -31.4747   26.9857 C   0  0  0  0  0  0  0  0  0  0  0  0
  -23.4168  -32.0396   26.3692 C   0  0  0  0  0  0  0  0  0  0  0  0
  -23.8556  -25.2384   25.7189 C   0  0  0  0  0  0  0  0  0  0  0  0
  -27.3567  -18.7915   20.7891 C   0  0  0  0  0  0  0  0  0  0  0  0
  -30.9885  -22.1310   21.7444 C   0  0  0  0  0  0  0  0  0  0  0  0
  -28.9603  -25.7407   19.0438 C   0  0  0  0  0  0  0  0  0  1  0  0
  -24.5868  -30.1386   25.1821 C   0  0  1  0  0  0  0  0  0  0  0  0
  -24.0334  -27.0979   27.3770 C   0  0  2  0  0  0  0  0  0  0  0  0
  -24.7700  -31.5493   25.8097 C   0  0  0  0  0  0  0  0  0  0  0  0
  -26.1277  -11.9117   21.0821 N   0  0  0  0  0  0  0  0  0  0  0  0
  -26.2572  -13.0530   20.3844 N   0  0  0  0  0  0  0  0  0  0  0  0
  -30.7925  -23.1080   20.6954 N   0  0  0  0  0  0  0  0  0  0  0  0
  -24.1663  -29.7302   22.7779 N   0  0  0  0  0  0  0  0  0  0  0  0
  -29.7535  -14.5554   20.0649 N   0  0  0  0  0  0  0  0  0  0  0  0
  -25.0667  -14.9665   19.6552 N   0  0  0  0  0  0  0  0  0  0  0  0
  -21.9692  -12.6307   21.9672 N   0  0  0  0  0  0  0  0  0  0  0  0
  -29.4098  -16.8876   20.1348 N   0  0  0  0  0  0  0  0  0  0  0  0
  -22.7901  -32.1593   20.8871 N   0  0  0  0  0  0  0  0  0  0  0  0
  -24.0763  -29.1341   26.1088 N   0  0  0  0  0  0  0  0  0  0  0  0
  -24.2771  -25.6579   27.0803 N   0  3  0  0  0  0  0  0  0  0  0  0
  -29.3497  -24.6350   21.7533 O   0  0  0  0  0  0  0  0  0  0  0  0
  -22.3328  -14.5327   20.7388 O   0  0  0  0  0  0  0  0  0  0  0  0
  -24.9414  -31.3358   20.5461 O   0  0  0  0  0  0  0  0  0  0  0  0
  -22.4715  -30.5112   24.1757 O   0  0  0  0  0  0  0  0  0  0  0  0
  -25.8556  -27.6626   25.8944 O   0  0  0  0  0  0  0  0  0  0  0  0
  -31.3586  -16.0010   19.2416 O   0  0  0  0  0  0  0  0  0  0  0  0
  -22.7629   -7.7496   24.5324 O   0  0  0  0  0  0  0  0  0  0  0  0
  -28.7898  -26.9431   19.7932 O   0  0  0  0  0  0  0  0  0  1  0  0
  -17.8273   -5.7434   23.1116 F   0  0  0  0  0  0  0  0  0  0  0  0
  -22.4618   -5.0947   23.8230 F   0  0  0  0  0  0  0  0  0  0  0  0
  1  2  1  0  0  0  0
  1  5  2  0  0  0  0
  2  6  2  0  0  0  0
  3 10  2  0  0  0  0
  3 17  1  0  0  0  0
  4 11  1  0  0  0  0
  4 17  2  0  0  0  0
  5 19  1  0  0  0  0
  6 21  1  0  0  0  0
  7 12  2  0  0  0  0
  7 20  1  0  0  0  0
  8  9  1  0  0  0  0
  8 23  2  0  0  0  0
  9 26  2  0  0  0  0
 10 27  1  0  0  0  0
 11 27  2  0  0  0  0
 12 28  1  0  0  0  0
 13 14  2  0  0  0  0
 13 29  1  0  0  0  0
 14 30  1  0  0  0  0
 15 22  1  0  0  0  0
 15 28  2  0  0  0  0
 16 30  2  0  0  0  0
 16 31  1  0  0  0  0
 17 32  1  0  0  0  0
 18 32  1  0  0  0  0
 18 33  2  0  0  0  0
 18 35  1  0  0  0  0
 19 21  2  0  0  0  0
 19 40  1  0  0  0  0
 20 22  2  0  0  0  0
 20 41  1  0  0  0  0
 21 51  1  0  0  0  0
 22 42  1  0  0  0  0
 23 24  1  0  0  0  0
 23 63  1  0  0  0  0
 24 25  2  0  0  0  0
 24 55  1  0  0  0  0
 25 26  1  0  0  0  0
 25 62  1  0  0  0  0
 26 75  1  0  0  0  0
 27 85  1  0  0  0  0
 28 86  1  0  0  0  0
 29 31  2  0  0  0  0
 29 85  1  0  0  0  0
 30 87  1  0  0  0  0
 31 88  1  0  0  0  0
 32 68  2  0  0  0  0
 33 69  1  0  0  0  0
 33 73  1  0  0  0  0
 34 52  1  0  0  0  0
 34 70  1  0  0  0  0
 34 79  2  0  0  0  0
 35 74  1  0  0  0  0
 35 80  2  0  0  0  0
 36 53  1  0  0  0  0
 36 76  1  0  0  0  0
 36 81  2  0  0  0  0
 37 65  1  0  0  0  0
 37 71  1  0  0  0  0
 37 82  2  0  0  0  0
 38 66  1  0  0  0  0
 38 77  1  0  0  0  0
 38 83  2  0  0  0  0
 39 72  1  0  0  0  0
 39 75  1  0  0  0  0
 39 84  2  0  0  0  0
 40 43  1  0  0  0  0
 41 53  1  0  0  0  0
 42 71  1  0  0  0  0
 43 45  1  0  0  0  0
 44 46  1  0  0  0  0
 44 48  1  0  0  0  0
 45 51  1  0  0  0  0
 46 54  1  0  0  0  0
 47 49  1  0  0  0  0
 47 52  1  0  0  0  0
 48 72  1  0  0  0  0
 49 70  1  0  0  0  0
 50 54  1  0  0  0  0
 50 72  1  0  0  0  0
 51 76  1  0  0  0  0
 52 64  1  0  0  0  0
 53 71  1  0  0  0  0
 54 69  1  0  0  0  0
 56 62  1  0  0  0  0
 57 66  1  0  0  0  0
 58 67  1  0  0  0  0
 59 67  1  0  0  0  0
 60 67  1  0  0  0  0
 61 78  1  0  0  0  0
 63 70  1  0  0  0  0
 64 86  1  0  0  0  0
 65 67  1  0  0  0  0
 65 77  1  0  0  0  0
 66 78  1  0  0  0  0
 68 69  1  0  0  0  0
M  CHG  1  78   1
M  ISO  4  39 100  64 101  75 100  86 101
M  END
> <Batch ID>
0022

> <Smiles>
CCc1c([100NH:0][100C:0](=O)N2CCCC(n3nc(-c4ccc(Oc5ccc(F)cc5F)cc4)c(C(N)=O)c3N)C2)ccc(CN2CCC([101CH2:1][101O:1]c3ccc4c(c3)CN(C(=O)C(NC(=O)C(C)NC)C(C)(C)C)C(C(=O)NC3CCCc5ccccc53)C4)C2=O)c1C

> <Shape>
0.305

> <Color>
0.146

> <Negative vol penalty>
0.000

$$$$

  -OEChem-04042321143D

 90 99  0     1  0  0  0  0  0999 V2000
  -27.3961  -34.9401   23.6120 C   0  0  0  0  0  0  0  0  0  0  0  0
  -27.7770  -33.6026   23.5741 C   0  0  0  0  0  0  0  0  0  0  0  0
  -23.1533   -9.9322   21.1534 C   0  0  0  0  0  0  0  0  0  0  0  0
  -24.7206  -10.0705   22.9868 C   0  0  0  0  0  0  0  0  0  0  0  0
  -26.0519  -35.2769   23.7653 C   0  0  0  0  0  0  0  0  0  0  0  0
  -26.8139  -32.6010   23.6906 C   0  0  0  0  0  0  0  0  0  0  0  0
  -26.8308  -27.1376   20.9235 C   0  0  0  0  0  0  0  0  0  0  0  0
  -22.5850   -8.7939   21.7250 C   0  0  0  0  0  0  0  0  0  0  0  0
  -24.1522   -8.9322   23.5585 C   0  0  0  0  0  0  0  0  0  0  0  0
  -27.2092  -25.8677   21.3571 C   0  0  0  0  0  0  0  0  0  0  0  0
  -23.3007   -5.4982   21.9503 C   0  0  0  0  0  0  0  0  0  0  0  0
  -23.0327   -4.4171   21.1106 C   0  0  0  0  0  0  0  0  0  0  0  0
  -24.9124  -25.3782   21.9087 C   0  0  0  0  0  0  0  0  0  0  0  0
  -30.9235  -19.3933   20.7859 C   0  0  0  0  0  0  0  0  0  0  0  0
  -33.0453  -18.4754   21.4874 C   0  0  0  0  0  0  0  0  0  0  0  0
  -32.1149  -20.3845   22.6393 C   0  0  0  0  0  0  0  0  0  0  0  0
  -20.6882   -4.5588   21.6765 C   0  0  0  0  0  0  0  0  0  0  0  0
  -24.2211  -10.5705   21.7842 C   0  0  0  0  0  0  0  0  0  0  0  0
  -24.1674  -12.9669   20.9112 C   0  0  0  0  0  0  0  0  0  0  0  0
  -25.0707  -34.2788   23.8740 C   0  0  0  0  0  0  0  0  0  0  0  0
  -25.4897  -27.5419   20.9895 C   0  0  0  0  0  0  0  0  0  0  0  0
  -25.4554  -32.9247   23.8469 C   0  0  0  0  0  0  0  0  0  0  0  0
  -24.5191  -26.6528   21.4729 C   0  0  0  0  0  0  0  0  0  0  0  0
  -31.9409  -18.4510   20.6358 C   0  0  0  0  0  0  0  0  0  0  0  0
  -31.0105  -20.3601   21.7876 C   0  0  0  0  0  0  0  0  0  0  0  0
  -33.1323  -19.4421   22.4893 C   0  0  0  0  0  0  0  0  0  0  0  0
  -23.0844   -8.2939   22.9276 C   0  0  0  0  0  0  0  0  0  0  0  0
  -26.2504  -24.9889   21.8525 C   0  0  0  0  0  0  0  0  0  0  0  0
  -22.2624   -6.1095   22.6532 C   0  0  0  0  0  0  0  0  0  0  0  0
  -21.7265   -3.9474   20.9737 C   0  0  0  0  0  0  0  0  0  0  0  0
  -20.9562   -5.6398   22.5162 C   0  0  0  0  0  0  0  0  0  0  0  0
  -24.8090  -11.7461   21.1939 C   0  0  0  0  0  0  0  0  0  0  0  0
  -25.1508  -13.7523   20.3612 C   0  0  0  0  0  0  0  0  0  0  0  0
  -22.8044  -13.3562   21.1267 C   0  0  0  0  0  0  0  0  0  0  0  0
  -23.9130  -29.8431   22.5135 C   0  0  0  0  0  0  0  0  0  0  0  0
  -21.4154  -28.7663   20.7458 C   0  0  0  0  0  0  0  0  0  0  0  0
  -19.1725  -27.0094   18.8670 C   0  0  0  0  0  0  0  0  0  0  0  0
  -30.1350  -15.7787   20.2451 C   0  0  0  0  0  0  0  0  0  0  0  0
  -23.6356  -34.6917   24.0857 C   0  0  0  0  0  0  0  0  0  0  0  0
  -25.0937  -28.9054   20.4929 C   0  0  0  0  0  0  0  0  0  0  0  0
  -23.0631  -27.0311   21.5457 C   0  0  0  0  0  0  0  0  0  0  0  0
  -22.6342  -33.5692   23.8261 C   0  0  0  0  0  0  0  0  0  0  0  0
  -29.7965  -12.5926   18.7598 C   0  0  0  0  0  0  0  0  0  0  0  0
  -23.0891  -32.2806   24.5040 C   0  0  0  0  0  0  0  0  0  0  0  0
  -28.4090  -12.1775   19.2470 C   0  0  0  0  0  0  0  0  0  0  0  0
  -28.2826  -22.3949   23.3418 C   0  0  0  0  0  0  0  0  0  0  0  0
  -28.2706  -22.7090   20.8623 C   0  0  0  0  0  0  0  0  0  0  0  0
  -30.5949  -13.3147   19.8468 C   0  0  0  0  0  0  0  0  0  0  0  0
  -29.7083  -21.8552   23.2692 C   0  0  0  0  0  0  0  0  0  0  0  0
  -29.6974  -22.1745   20.7874 C   0  0  0  0  0  0  0  0  0  0  0  0
  -28.4969  -14.0529   20.9313 C   0  0  0  0  0  0  0  0  0  0  0  0
  -24.4372  -31.8095   23.9451 C   0  0  1  0  0  0  0  0  0  0  0  0
  -23.7767  -29.3977   21.0849 C   0  0  1  0  0  0  0  0  0  0  0  0
  -27.6518  -13.3786   19.8396 C   0  0  2  0  0  0  0  0  0  0  0  0
  -27.9857  -23.3672   22.2074 C   0  0  0  0  0  0  0  0  0  1  0  0
  -35.8581  -21.0872   22.5321 C   0  0  0  0  0  0  0  0  0  0  0  0
  -33.9015  -17.8935   25.1628 C   0  0  0  0  0  0  0  0  0  0  0  0
  -16.7357  -26.9288   18.2733 C   0  0  0  0  0  0  0  0  0  0  0  0
  -20.7943  -27.5435   23.4714 C   0  0  0  0  0  0  0  0  0  0  0  0
  -18.6703  -26.6379   22.5034 C   0  0  0  0  0  0  0  0  0  0  0  0
  -19.0419  -29.1025   22.6037 C   0  0  0  0  0  0  0  0  0  0  0  0
  -32.5903  -15.3445   20.6786 C   0  0  0  0  0  0  0  0  0  0  0  0
  -19.7384  -27.4519   15.9960 C   0  0  0  0  0  0  0  0  0  0  0  0
  -31.8474  -17.4169   19.5652 C   0  0  0  0  0  0  0  0  0  0  0  0
  -35.5840  -19.6494   22.8155 C   0  0  0  0  0  0  0  0  0  0  0  0
  -34.0756  -19.3243   24.7820 C   0  0  0  0  0  0  0  0  0  0  0  0
  -20.3441  -27.7196   20.9352 C   0  0  1  0  0  0  0  0  0  0  0  0
  -18.1060  -27.4628   17.8865 C   0  0  2  0  0  0  0  0  0  0  0  0
  -19.7378  -27.7445   22.3667 C   0  0  0  0  0  0  0  0  0  0  0  0
  -26.1001  -11.7508   20.8516 N   0  0  0  0  0  0  0  0  0  0  0  0
  -26.2777  -12.9840   20.3481 N   0  0  0  0  0  0  0  0  0  0  0  0
  -29.9895  -21.3072   21.9374 N   0  0  0  0  0  0  0  0  0  0  0  0
  -22.7268  -28.3775   21.0541 N   0  0  0  0  0  0  0  0  0  0  0  0
  -29.8180  -14.4233   20.4180 N   0  0  0  0  0  0  0  0  0  0  0  0
  -25.1529  -15.0182   19.8923 N   0  0  0  0  0  0  0  0  0  0  0  0
  -21.9272  -12.4269   21.7021 N   0  0  0  0  0  0  0  0  0  0  0  0
  -24.2562  -31.1739   22.6576 N   0  0  0  0  0  0  0  0  0  0  0  0
  -19.3706  -27.9345   19.8701 N   0  0  0  0  0  0  0  0  0  0  0  0
  -34.2493  -19.4670   23.3501 N   0  0  0  0  0  0  0  0  0  0  0  0
  -31.4903  -16.1067   20.0908 N   0  0  0  0  0  0  0  0  0  0  0  0
  -18.4272  -26.9821   16.5129 N   0  3  0  0  0  0  0  0  0  0  0  0
  -22.3732  -14.4887   20.8029 O   0  0  0  0  0  0  0  0  0  0  0  0
  -23.7196  -29.0394   23.4180 O   0  0  0  0  0  0  0  0  0  0  0  0
  -21.1013  -29.8852   20.3325 O   0  0  0  0  0  0  0  0  0  0  0  0
  -19.7675  -25.9397   18.7564 O   0  0  0  0  0  0  0  0  0  0  0  0
  -29.2564  -16.6506   20.2370 O   0  0  0  0  0  0  0  0  0  0  0  0
  -22.5300   -7.1832   23.4858 O   0  0  0  0  0  0  0  0  0  0  0  0
  -26.6171  -23.7490   22.2770 O   0  0  0  0  0  0  0  0  0  1  0  0
  -21.4690   -2.9103   20.1661 F   0  0  0  0  0  0  0  0  0  0  0  0
  -19.9544   -6.2238   23.1880 F   0  0  0  0  0  0  0  0  0  0  0  0
  1  2  1  0  0  0  0
  1  5  2  0  0  0  0
  2  6  2  0  0  0  0
  3  8  2  0  0  0  0
  3 18  1  0  0  0  0
  4  9  1  0  0  0  0
  4 18  2  0  0  0  0
  5 20  1  0  0  0  0
  6 22  1  0  0  0  0
  7 10  2  0  0  0  0
  7 21  1  0  0  0  0
  8 27  1  0  0  0  0
  9 27  2  0  0  0  0
 10 28  1  0  0  0  0
 11 12  2  0  0  0  0
 11 29  1  0  0  0  0
 12 30  1  0  0  0  0
 13 23  1  0  0  0  0
 13 28  2  0  0  0  0
 14 24  1  0  0  0  0
 14 25  2  0  0  0  0
 15 24  2  0  0  0  0
 15 26  1  0  0  0  0
 16 25  1  0  0  0  0
 16 26  2  0  0  0  0
 17 30  2  0  0  0  0
 17 31  1  0  0  0  0
 18 32  1  0  0  0  0
 19 32  1  0  0  0  0
 19 33  2  0  0  0  0
 19 34  1  0  0  0  0
 20 22  2  0  0  0  0
 20 39  1  0  0  0  0
 21 23  2  0  0  0  0
 21 40  1  0  0  0  0
 22 52  1  0  0  0  0
 23 41  1  0  0  0  0
 24 64  1  0  0  0  0
 25 72  1  0  0  0  0
 26 79  1  0  0  0  0
 27 87  1  0  0  0  0
 28 88  1  0  0  0  0
 29 31  2  0  0  0  0
 29 87  1  0  0  0  0
 30 89  1  0  0  0  0
 31 90  1  0  0  0  0
 32 70  2  0  0  0  0
 33 71  1  0  0  0  0
 33 75  1  0  0  0  0
 34 76  1  0  0  0  0
 34 82  2  0  0  0  0
 35 53  1  0  0  0  0
 35 77  1  0  0  0  0
 35 83  2  0  0  0  0
 36 67  1  0  0  0  0
 36 73  1  0  0  0  0
 36 84  2  0  0  0  0
 37 68  1  0  0  0  0
 37 78  1  0  0  0  0
 37 85  2  0  0  0  0
 38 74  1  0  0  0  0
 38 80  1  0  0  0  0
 38 86  2  0  0  0  0
 39 42  1  0  0  0  0
 40 53  1  0  0  0  0
 41 73  1  0  0  0  0
 42 44  1  0  0  0  0
 43 45  1  0  0  0  0
 43 48  1  0  0  0  0
 44 52  1  0  0  0  0
 45 54  1  0  0  0  0
 46 49  1  0  0  0  0
 46 55  1  0  0  0  0
 47 50  1  0  0  0  0
 47 55  1  0  0  0  0
 48 74  1  0  0  0  0
 49 72  1  0  0  0  0
 50 72  1  0  0  0  0
 51 54  1  0  0  0  0
 51 74  1  0  0  0  0
 52 77  1  0  0  0  0
 53 73  1  0  0  0  0
 54 71  1  0  0  0  0
 55 88  1  0  0  0  0
 56 65  1  0  0  0  0
 57 66  1  0  0  0  0
 58 68  1  0  0  0  0
 59 69  1  0  0  0  0
 60 69  1  0  0  0  0
 61 69  1  0  0  0  0
 62 80  1  0  0  0  0
 63 81  1  0  0  0  0
 64 80  1  0  0  0  0
 65 79  1  0  0  0  0
 66 79  1  0  0  0  0
 67 69  1  0  0  0  0
 67 78  1  0  0  0  0
 68 81  1  0  0  0  0
 70 71  1  0  0  0  0
M  CHG  1  81   1
M  ISO  4  38 100  55 101  80 100  88 101
M  END
> <Batch ID>
0022

> <Smiles>
CCN(CC)c1cc(C[100N:0](C)[100C:0](=O)N2CCCC(n3nc(-c4ccc(Oc5ccc(F)cc5F)cc4)c(C(N)=O)c3N)C2)cc(N2CC[101CH:1]([101O:1]c3ccc4c(c3)CN(C(=O)C(NC(=O)C(C)NC)C(C)(C)C)C(C(=O)NC3CCCc5ccccc53)C4)CC2)c1

> <Shape>
0.305

> <Color>
0.147

> <Negative vol penalty>
0.000

$$$$

  -OEChem-04042321143D

 84 92  0     1  0  0  0  0  0999 V2000
  -19.5408  -12.9729   12.8872 C   0  0  0  0  0  0  0  0  0  0  0  0
  -20.5974  -13.8703   13.0040 C   0  0  0  0  0  0  0  0  0  0  0  0
  -23.0001   -9.8945   19.9810 C   0  0  0  0  0  0  0  0  0  0  0  0
  -23.7298   -9.9432   22.2836 C   0  0  0  0  0  0  0  0  0  0  0  0
  -18.3357  -13.2278   13.5403 C   0  0  0  0  0  0  0  0  0  0  0  0
  -20.4491  -15.0239   13.7732 C   0  0  0  0  0  0  0  0  0  0  0  0
  -24.7560  -17.7809   17.1430 C   0  0  0  0  0  0  0  0  0  0  0  0
  -22.2346   -8.7593   20.2475 C   0  0  0  0  0  0  0  0  0  0  0  0
  -22.9643   -8.8081   22.5502 C   0  0  0  0  0  0  0  0  0  0  0  0
  -25.5776  -18.8803   16.8980 C   0  0  0  0  0  0  0  0  0  0  0  0
  -23.2092   -5.4698   22.0741 C   0  0  0  0  0  0  0  0  0  0  0  0
  -23.7987   -4.4520   22.8239 C   0  0  0  0  0  0  0  0  0  0  0  0
  -24.0143  -20.3006   18.0633 C   0  0  0  0  0  0  0  0  0  0  0  0
  -30.0415  -19.8633   19.7673 C   0  0  0  0  0  0  0  0  0  0  0  0
  -28.3220  -19.6668   21.4529 C   0  0  0  0  0  0  0  0  0  0  0  0
  -22.0780   -4.6923   24.5028 C   0  0  0  0  0  0  0  0  0  0  0  0
  -23.7478  -10.4864   20.9990 C   0  0  0  0  0  0  0  0  0  0  0  0
  -24.1315  -13.0024   20.8250 C   0  0  0  0  0  0  0  0  0  0  0  0
  -18.1757  -14.3803   14.3258 C   0  0  0  0  0  0  0  0  0  0  0  0
  -23.5500  -17.9352   17.8417 C   0  0  0  0  0  0  0  0  0  0  0  0
  -19.2402  -15.2952   14.4364 C   0  0  0  0  0  0  0  0  0  0  0  0
  -23.1804  -19.2011   18.3181 C   0  0  0  0  0  0  0  0  0  0  0  0
  -30.1222  -18.0576   21.3705 C   0  0  0  0  0  0  0  0  0  0  0  0
  -28.8683  -20.3341   20.3566 C   0  0  0  0  0  0  0  0  0  0  0  0
  -22.2167   -8.2161   21.5322 C   0  0  0  0  0  0  0  0  0  0  0  0
  -25.2054  -20.1409   17.3557 C   0  0  0  0  0  0  0  0  0  0  0  0
  -22.0542   -6.0989   22.5387 C   0  0  0  0  0  0  0  0  0  0  0  0
  -23.2331   -4.0632   24.0383 C   0  0  0  0  0  0  0  0  0  0  0  0
  -30.6685  -18.7250   20.2742 C   0  0  0  0  0  0  0  0  0  0  0  0
  -21.4886   -5.7101   23.7530 C   0  0  0  0  0  0  0  0  0  0  0  0
  -28.9489  -18.5286   21.9598 C   0  0  0  0  0  0  0  0  0  0  0  0
  -24.5391  -11.6587   20.7241 C   0  0  0  0  0  0  0  0  0  0  0  0
  -25.2402  -13.7259   20.4592 C   0  0  0  0  0  0  0  0  0  0  0  0
  -22.8641  -13.5478   21.2146 C   0  0  0  0  0  0  0  0  0  0  0  0
  -20.4820  -17.4743   17.1498 C   0  0  0  0  0  0  0  0  0  0  0  0
  -20.0715  -18.1681   20.2919 C   0  0  0  0  0  0  0  0  0  0  0  0
  -21.2655  -19.6918   23.1024 C   0  0  0  0  0  0  0  0  0  0  0  0
  -30.7367  -14.6628   20.6980 C   0  0  0  0  0  0  0  0  0  0  0  0
  -16.8386  -14.6368   14.9746 C   0  0  0  0  0  0  0  0  0  0  0  0
  -22.6879  -16.7347   18.1209 C   0  0  0  0  0  0  0  0  0  0  0  0
  -21.9056  -19.4165   19.0908 C   0  0  0  0  0  0  0  0  0  0  0  0
  -16.8880  -15.6943   16.0743 C   0  0  0  0  0  0  0  0  0  0  0  0
  -29.5925  -12.2412   18.3520 C   0  0  0  0  0  0  0  0  0  0  0  0
  -17.6738  -16.9150   15.6060 C   0  0  0  0  0  0  0  0  0  0  0  0
  -28.1449  -11.9803   18.7722 C   0  0  0  0  0  0  0  0  0  0  0  0
  -30.4972  -12.4756   19.5598 C   0  0  0  0  0  0  0  0  0  0  0  0
  -28.5893  -13.2688   20.9032 C   0  0  0  0  0  0  0  0  0  0  0  0
  -19.1262  -16.5451   15.2818 C   0  0  1  0  0  0  0  0  0  0  0  0
  -21.2315  -17.0959   18.3959 C   0  0  1  0  0  0  0  0  0  0  0  0
  -27.6280  -13.0820   19.7169 C   0  0  2  0  0  0  0  0  0  0  0  0
  -21.3838  -20.3557   25.5196 C   0  0  0  0  0  0  0  0  0  0  0  0
  -18.0608  -20.2955   19.4307 C   0  0  0  0  0  0  0  0  0  0  0  0
  -18.2445  -21.2956   21.7185 C   0  0  0  0  0  0  0  0  0  0  0  0
  -17.3821  -18.9714   21.4408 C   0  0  0  0  0  0  0  0  0  0  0  0
  -22.8427  -17.2882   23.8054 C   0  0  0  0  0  0  0  0  0  0  0  0
  -30.8207  -16.8404   21.8854 C   0  0  0  0  0  0  0  0  0  0  0  0
  -27.3521  -22.9325   18.1165 C   0  0  0  0  0  0  0  0  0  0  0  0
  -28.4654  -21.9727   18.5185 C   0  0  0  0  0  0  0  0  0  0  0  0
  -25.9800  -22.2700   18.0789 C   0  0  0  0  0  0  0  0  0  1  0  0
  -19.8429  -19.4309   21.0868 C   0  0  1  0  0  0  0  0  0  0  0  0
  -21.4085  -19.1999   24.5314 C   0  0  2  0  0  0  0  0  0  0  0  0
  -18.4057  -19.9950   20.9030 C   0  0  0  0  0  0  0  0  0  0  0  0
  -25.8077  -11.5332   20.3253 N   0  0  0  0  0  0  0  0  0  0  0  0
  -26.2068  -12.8074   20.1723 N   0  0  0  0  0  0  0  0  0  0  0  0
  -21.0934  -18.2127   19.3329 N   0  0  0  0  0  0  0  0  0  0  0  0
  -29.9516  -13.5332   20.4141 N   0  0  0  0  0  0  0  0  0  0  0  0
  -25.4729  -15.0518   20.3582 N   0  0  0  0  0  0  0  0  0  0  0  0
  -21.8334  -12.6628   21.5592 N   0  0  0  0  0  0  0  0  0  0  0  0
  -28.2449  -21.4642   19.8508 N   0  0  0  0  0  0  0  0  0  0  0  0
  -19.8959  -16.4052   16.4993 N   0  0  0  0  0  0  0  0  0  0  0  0
  -20.1874  -19.1117   22.4681 N   0  0  0  0  0  0  0  0  0  0  0  0
  -30.1415  -15.6204   21.5100 N   0  0  0  0  0  0  0  0  0  0  0  0
  -22.6939  -18.4648   24.7000 N   0  3  0  0  0  0  0  0  0  0  0  0
  -22.6469  -14.7829   21.2402 O   0  0  0  0  0  0  0  0  0  0  0  0
  -20.4374  -18.6493   16.8048 O   0  0  0  0  0  0  0  0  0  0  0  0
  -19.3739  -17.1762   20.5184 O   0  0  0  0  0  0  0  0  0  0  0  0
  -22.0312  -20.5117   22.6004 O   0  0  0  0  0  0  0  0  0  0  0  0
  -31.8811  -14.8097   20.2558 O   0  0  0  0  0  0  0  0  0  0  0  0
  -21.4697   -7.1086   21.7927 O   0  0  0  0  0  0  0  0  0  0  0  0
  -26.0052  -21.2158   17.1175 O   0  0  0  0  0  0  0  0  0  1  0  0
  -23.7985   -3.0848   24.7575 F   0  0  0  0  0  0  0  0  0  0  0  0
  -31.7943  -18.2796   19.6988 F   0  0  0  0  0  0  0  0  0  0  0  0
  -20.3783   -6.3099   24.2039 F   0  0  0  0  0  0  0  0  0  0  0  0
  -28.2438  -17.7294   23.3178 Cl  0  0  0  0  0  0  0  0  0  0  0  0
  1  2  1  0  0  0  0
  1  5  2  0  0  0  0
  2  6  2  0  0  0  0
  3  8  2  0  0  0  0
  3 17  1  0  0  0  0
  4  9  1  0  0  0  0
  4 17  2  0  0  0  0
  5 19  1  0  0  0  0
  6 21  1  0  0  0  0
  7 10  2  0  0  0  0
  7 20  1  0  0  0  0
  8 25  1  0  0  0  0
  9 25  2  0  0  0  0
 10 26  1  0  0  0  0
 11 12  2  0  0  0  0
 11 27  1  0  0  0  0
 12 28  1  0  0  0  0
 13 22  1  0  0  0  0
 13 26  2  0  0  0  0
 14 24  1  0  0  0  0
 14 29  2  0  0  0  0
 15 24  2  0  0  0  0
 15 31  1  0  0  0  0
 16 28  2  0  0  0  0
 16 30  1  0  0  0  0
 17 32  1  0  0  0  0
 18 32  1  0  0  0  0
 18 33  2  0  0  0  0
 18 34  1  0  0  0  0
 19 21  2  0  0  0  0
 19 39  1  0  0  0  0
 20 22  2  0  0  0  0
 20 40  1  0  0  0  0
 21 48  1  0  0  0  0
 22 41  1  0  0  0  0
 23 29  1  0  0  0  0
 23 31  2  0  0  0  0
 23 56  1  0  0  0  0
 24 69  1  0  0  0  0
 25 79  1  0  0  0  0
 26 80  1  0  0  0  0
 27 30  2  0  0  0  0
 27 79  1  0  0  0  0
 28 81  1  0  0  0  0
 29 82  1  0  0  0  0
 30 83  1  0  0  0  0
 31 84  1  0  0  0  0
 32 63  2  0  0  0  0
 33 64  1  0  0  0  0
 33 67  1  0  0  0  0
 34 68  1  0  0  0  0
 34 74  2  0  0  0  0
 35 49  1  0  0  0  0
 35 70  1  0  0  0  0
 35 75  2  0  0  0  0
 36 60  1  0  0  0  0
 36 65  1  0  0  0  0
 36 76  2  0  0  0  0
 37 61  1  0  0  0  0
 37 71  1  0  0  0  0
 37 77  2  0  0  0  0
 38 66  1  0  0  0  0
 38 72  1  0  0  0  0
 38 78  2  0  0  0  0
 39 42  1  0  0  0  0
 40 49  1  0  0  0  0
 41 65  1  0  0  0  0
 42 44  1  0  0  0  0
 43 45  1  0  0  0  0
 43 46  1  0  0  0  0
 44 48  1  0  0  0  0
 45 50  1  0  0  0  0
 46 66  1  0  0  0  0
 47 50  1  0  0  0  0
 47 66  1  0  0  0  0
 48 70  1  0  0  0  0
 49 65  1  0  0  0  0
 50 64  1  0  0  0  0
 51 61  1  0  0  0  0
 52 62  1  0  0  0  0
 53 62  1  0  0  0  0
 54 62  1  0  0  0  0
 55 73  1  0  0  0  0
 56 72  1  0  0  0  0
 57 58  1  0  0  0  0
 57 59  1  0  0  0  0
 58 69  1  0  0  0  0
 59 80  1  0  0  0  0
 60 62  1  0  0  0  0
 60 71  1  0  0  0  0
 61 73  1  0  0  0  0
 63 64  1  0  0  0  0
M  CHG  1  73   1
M  ISO  4  38 100  59 101  72 100  80 101
M  END
> <Batch ID>
0022

> <Smiles>
CNC(C)C(=O)NC(C(=O)N1Cc2cc([101O:1][101CH2:1]CCNc3cc(F)c(C[100NH:0][100C:0](=O)N4CCCC(n5nc(-c6ccc(Oc7ccc(F)cc7F)cc6)c(C(N)=O)c5N)C4)c(Cl)c3)ccc2CC1C(=O)NC1CCCc2ccccc21)C(C)(C)C

> <Shape>
0.208

> <Color>
0.202

> <Negative vol penalty>
0.000

$$$$

  -OEChem-04042321143D

 84 93  0     1  0  0  0  0  0999 V2000
  -27.1110  -36.8654   17.7896 C   0  0  0  0  0  0  0  0  0  0  0  0
  -27.7645  -35.7503   18.3042 C   0  0  0  0  0  0  0  0  0  0  0  0
  -24.3582   -9.7886   21.4019 C   0  0  0  0  0  0  0  0  0  0  0  0
  -24.8233  -10.8235   23.5349 C   0  0  0  0  0  0  0  0  0  0  0  0
  -25.8722  -37.2452   18.3043 C   0  0  0  0  0  0  0  0  0  0  0  0
  -27.1799  -35.0149   19.3348 C   0  0  0  0  0  0  0  0  0  0  0  0
  -27.5260  -28.9610   20.1927 C   0  0  0  0  0  0  0  0  0  0  0  0
  -28.1449  -21.1176   22.1507 C   0  0  0  0  0  0  0  0  0  0  0  0
  -27.9745  -19.8373   21.6241 C   0  0  0  0  0  0  0  0  0  0  0  0
  -24.0019   -8.6074   22.0527 C   0  0  0  0  0  0  0  0  0  0  0  0
  -24.4669   -9.6423   24.1857 C   0  0  0  0  0  0  0  0  0  0  0  0
  -28.3297  -28.1749   21.0173 C   0  0  0  0  0  0  0  0  0  0  0  0
  -21.3274   -7.3970   23.7305 C   0  0  0  0  0  0  0  0  0  0  0  0
  -20.1652   -6.7505   23.3101 C   0  0  0  0  0  0  0  0  0  0  0  0
  -26.5743  -28.1258   22.6712 C   0  0  0  0  0  0  0  0  0  0  0  0
  -30.3656  -19.6342   21.3439 C   0  0  0  0  0  0  0  0  0  0  0  0
  -21.4588   -4.7879   22.7517 C   0  0  0  0  0  0  0  0  0  0  0  0
  -24.7690  -10.8966   22.1431 C   0  0  0  0  0  0  0  0  0  0  0  0
  -24.2922  -13.1909   21.1348 C   0  0  0  0  0  0  0  0  0  0  0  0
  -25.2677  -36.5085   19.3351 C   0  0  0  0  0  0  0  0  0  0  0  0
  -26.2424  -29.3451   20.6066 C   0  0  0  0  0  0  0  0  0  0  0  0
  -25.9325  -35.3861   19.8647 C   0  0  0  0  0  0  0  0  0  0  0  0
  -25.7553  -28.9146   21.8490 C   0  0  0  0  0  0  0  0  0  0  0  0
  -29.4257  -21.6563   22.2738 C   0  0  0  0  0  0  0  0  0  0  0  0
  -29.0848  -19.0956   21.2207 C   0  0  0  0  0  0  0  0  0  0  0  0
  -24.0562   -8.5343   23.4446 C   0  0  0  0  0  0  0  0  0  0  0  0
  -27.8550  -27.7596   22.2579 C   0  0  0  0  0  0  0  0  0  0  0  0
  -22.5555   -6.7390   23.6614 C   0  0  0  0  0  0  0  0  0  0  0  0
  -20.2308   -5.4460   22.8207 C   0  0  0  0  0  0  0  0  0  0  0  0
  -30.5360  -20.9146   21.8705 C   0  0  0  0  0  0  0  0  0  0  0  0
  -22.6211   -5.4345   23.1720 C   0  0  0  0  0  0  0  0  0  0  0  0
  -25.1377  -12.1169   21.4714 C   0  0  0  0  0  0  0  0  0  0  0  0
  -25.1181  -14.0972   20.5160 C   0  0  0  0  0  0  0  0  0  0  0  0
  -28.6944  -23.8311   23.2513 C   0  0  0  0  0  0  0  0  0  0  0  0
  -22.8860  -13.3548   21.3614 C   0  0  0  0  0  0  0  0  0  0  0  0
  -24.8096  -32.1229   21.1852 C   0  0  0  0  0  0  0  0  0  0  0  0
  -22.1848  -30.2505   21.5413 C   0  0  0  0  0  0  0  0  0  0  0  0
  -20.8980  -27.1688   22.2442 C   0  0  0  0  0  0  0  0  0  0  0  0
  -29.9060  -16.9261   20.2382 C   0  0  0  0  0  0  0  0  0  0  0  0
  -23.9495  -36.9854   19.8915 C   0  0  0  0  0  0  0  0  0  0  0  0
  -25.3776  -30.1710   19.6941 C   0  0  0  0  0  0  0  0  0  0  0  0
  -24.3768  -29.2829   22.3312 C   0  0  0  0  0  0  0  0  0  0  0  0
  -23.2250  -35.9336   20.7276 C   0  0  0  0  0  0  0  0  0  0  0  0
  -29.8888  -13.6310   18.8894 C   0  0  0  0  0  0  0  0  0  0  0  0
  -24.1897  -35.2733   21.7075 C   0  0  0  0  0  0  0  0  0  0  0  0
  -28.5816  -13.0317   19.4132 C   0  0  0  0  0  0  0  0  0  0  0  0
  -30.5464  -14.5462   19.9207 C   0  0  0  0  0  0  0  0  0  0  0  0
  -30.7410  -23.8147   22.7724 C   0  0  0  0  0  0  0  0  0  0  0  0
  -28.3705  -15.0015   20.9824 C   0  0  0  0  0  0  0  0  0  0  0  0
  -25.3192  -34.5484   20.9657 C   0  0  1  0  0  0  0  0  0  0  0  0
  -29.7935  -24.9143   23.3162 C   0  0  1  0  0  0  0  0  0  0  0  0
  -24.2829  -30.9320   20.4354 C   0  0  1  0  0  0  0  0  0  0  0  0
  -27.6381  -14.1236   19.9545 C   0  0  2  0  0  0  0  0  0  0  0  0
  -18.7155  -25.9562   22.4968 C   0  0  0  0  0  0  0  0  0  0  0  0
  -21.7786  -31.5549   24.2696 C   0  0  0  0  0  0  0  0  0  0  0  0
  -20.2147  -29.6884   24.8516 C   0  0  0  0  0  0  0  0  0  0  0  0
  -19.6797  -31.2153   22.9529 C   0  0  0  0  0  0  0  0  0  0  0  0
  -21.5424  -25.3093   20.0338 C   0  0  0  0  0  0  0  0  0  0  0  0
  -29.5721  -26.1228   22.4275 C   0  0  0  0  0  0  0  0  0  1  0  0
  -21.5397  -29.5222   22.6957 C   0  0  1  0  0  0  0  0  0  0  0  0
  -19.8390  -26.3359   21.5447 C   0  0  2  0  0  0  0  0  0  0  0  0
  -20.8299  -30.4897   23.6845 C   0  0  0  0  0  0  0  0  0  0  0  0
  -26.4037  -12.3203   21.0972 N   0  0  0  0  0  0  0  0  0  0  0  0
  -26.3597  -13.5327   20.5191 N   0  0  0  0  0  0  0  0  0  0  0  0
  -29.5910  -22.9198   22.7937 N   0  0  0  0  0  0  0  0  0  0  0  0
  -23.5718  -30.0970   21.4057 N   0  0  0  0  0  0  0  0  0  0  0  0
  -29.5946  -15.5578   20.3850 N   0  0  0  0  0  0  0  0  0  0  0  0
  -24.8962  -15.3139   19.9749 N   0  0  0  0  0  0  0  0  0  0  0  0
  -22.1897  -12.3266   22.0113 N   0  0  0  0  0  0  0  0  0  0  0  0
  -28.9113  -17.7950   20.6858 N   0  0  0  0  0  0  0  0  0  0  0  0
  -24.8487  -33.2852   20.4389 N   0  0  0  0  0  0  0  0  0  0  0  0
  -20.6595  -28.5197   22.1052 N   0  0  0  0  0  0  0  0  0  0  0  0
  -20.4389  -25.0841   21.0026 N   0  3  0  0  0  0  0  0  0  0  0  0
  -27.5051  -23.7823   23.4683 O   0  0  0  0  0  0  0  0  0  0  0  0
  -22.2621  -14.3754   20.9838 O   0  0  0  0  0  0  0  0  0  0  0  0
  -25.1535  -31.9969   22.3546 O   0  0  0  0  0  0  0  0  0  0  0  0
  -21.4828  -30.9248   20.7836 O   0  0  0  0  0  0  0  0  0  0  0  0
  -21.8404  -26.6707   22.8561 O   0  0  0  0  0  0  0  0  0  0  0  0
  -30.9645  -17.2995   19.7262 O   0  0  0  0  0  0  0  0  0  0  0  0
  -23.7084   -7.3819   24.0799 O   0  0  0  0  0  0  0  0  0  0  0  0
  -28.6377  -26.9928   23.0650 O   0  0  0  0  0  0  0  0  0  1  0  0
  -19.1144   -4.8247   22.4185 F   0  0  0  0  0  0  0  0  0  0  0  0
  -31.7718  -21.4225   21.9836 F   0  0  0  0  0  0  0  0  0  0  0  0
  -23.7978   -4.7968   23.1044 F   0  0  0  0  0  0  0  0  0  0  0  0
  1  2  1  0  0  0  0
  1  5  2  0  0  0  0
  2  6  2  0  0  0  0
  3 10  2  0  0  0  0
  3 18  1  0  0  0  0
  4 11  1  0  0  0  0
  4 18  2  0  0  0  0
  5 20  1  0  0  0  0
  6 22  1  0  0  0  0
  7 12  2  0  0  0  0
  7 21  1  0  0  0  0
  8  9  2  0  0  0  0
  8 24  1  0  0  0  0
  9 25  1  0  0  0  0
 10 26  1  0  0  0  0
 11 26  2  0  0  0  0
 12 27  1  0  0  0  0
 13 14  2  0  0  0  0
 13 28  1  0  0  0  0
 14 29  1  0  0  0  0
 15 23  1  0  0  0  0
 15 27  2  0  0  0  0
 16 25  2  0  0  0  0
 16 30  1  0  0  0  0
 17 29  2  0  0  0  0
 17 31  1  0  0  0  0
 18 32  1  0  0  0  0
 19 32  1  0  0  0  0
 19 33  2  0  0  0  0
 19 35  1  0  0  0  0
 20 22  2  0  0  0  0
 20 40  1  0  0  0  0
 21 23  2  0  0  0  0
 21 41  1  0  0  0  0
 22 50  1  0  0  0  0
 23 42  1  0  0  0  0
 24 30  2  0  0  0  0
 24 65  1  0  0  0  0
 25 70  1  0  0  0  0
 26 80  1  0  0  0  0
 27 81  1  0  0  0  0
 28 31  2  0  0  0  0
 28 80  1  0  0  0  0
 29 82  1  0  0  0  0
 30 83  1  0  0  0  0
 31 84  1  0  0  0  0
 32 63  2  0  0  0  0
 33 64  1  0  0  0  0
 33 68  1  0  0  0  0
 34 51  1  0  0  0  0
 34 65  1  0  0  0  0
 34 74  2  0  0  0  0
 35 69  1  0  0  0  0
 35 75  2  0  0  0  0
 36 52  1  0  0  0  0
 36 71  1  0  0  0  0
 36 76  2  0  0  0  0
 37 60  1  0  0  0  0
 37 66  1  0  0  0  0
 37 77  2  0  0  0  0
 38 61  1  0  0  0  0
 38 72  1  0  0  0  0
 38 78  2  0  0  0  0
 39 67  1  0  0  0  0
 39 70  1  0  0  0  0
 39 79  2  0  0  0  0
 40 43  1  0  0  0  0
 41 52  1  0  0  0  0
 42 66  1  0  0  0  0
 43 45  1  0  0  0  0
 44 46  1  0  0  0  0
 44 47  1  0  0  0  0
 45 50  1  0  0  0  0
 46 53  1  0  0  0  0
 47 67  1  0  0  0  0
 48 51  1  0  0  0  0
 48 65  1  0  0  0  0
 49 53  1  0  0  0  0
 49 67  1  0  0  0  0
 50 71  1  0  0  0  0
 51 59  1  0  0  0  0
 52 66  1  0  0  0  0
 53 64  1  0  0  0  0
 54 61  1  0  0  0  0
 55 62  1  0  0  0  0
 56 62  1  0  0  0  0
 57 62  1  0  0  0  0
 58 73  1  0  0  0  0
 59 81  1  0  0  0  0
 60 62  1  0  0  0  0
 60 72  1  0  0  0  0
 61 73  1  0  0  0  0
 63 64  1  0  0  0  0
M  CHG  1  73   1
M  ISO  4  39 100  59 101  70 100  81 101
M  END
> <Batch ID>
0022

> <Smiles>
CNC(C)C(=O)NC(C(=O)N1Cc2cc([101O:1][101CH2:1]C3CN(c4ccc([100NH:0][100C:0](=O)N5CCCC(n6nc(-c7ccc(Oc8ccc(F)cc8F)cc7)c(C(N)=O)c6N)C5)cc4F)C3=O)ccc2CC1C(=O)NC1CCCc2ccccc21)C(C)(C)C

> <Shape>
0.285

> <Color>
0.126

> <Negative vol penalty>
0.000

$$$$

  -OEChem-04042321143D

 88 97  0     1  0  0  0  0  0999 V2000
  -26.7836  -29.3301   13.6995 C   0  0  0  0  0  0  0  0  0  0  0  0
  -27.2705  -28.0931   14.1097 C   0  0  0  0  0  0  0  0  0  0  0  0
  -23.4725   -9.7900   21.3894 C   0  0  0  0  0  0  0  0  0  0  0  0
  -24.1794  -10.7376   23.4964 C   0  0  0  0  0  0  0  0  0  0  0  0
  -26.6452  -30.3648   14.6237 C   0  0  0  0  0  0  0  0  0  0  0  0
  -27.6202  -27.8904   15.4442 C   0  0  0  0  0  0  0  0  0  0  0  0
  -27.0042  -22.7194   18.6670 C   0  0  0  0  0  0  0  0  0  0  0  0
  -22.8508   -8.7425   22.0690 C   0  0  0  0  0  0  0  0  0  0  0  0
  -23.5576   -9.6901   24.1761 C   0  0  0  0  0  0  0  0  0  0  0  0
  -27.9036  -21.7059   18.9952 C   0  0  0  0  0  0  0  0  0  0  0  0
  -20.4211   -8.8372   25.1009 C   0  0  0  0  0  0  0  0  0  0  0  0
  -19.6485   -9.1589   26.2168 C   0  0  0  0  0  0  0  0  0  0  0  0
  -28.3148  -22.7678   21.1219 C   0  0  0  0  0  0  0  0  0  0  0  0
  -21.0738   -7.7834   27.6001 C   0  0  0  0  0  0  0  0  0  0  0  0
  -24.1368  -10.7875   22.1031 C   0  0  0  0  0  0  0  0  0  0  0  0
  -24.2099  -13.1042   21.0377 C   0  0  0  0  0  0  0  0  0  0  0  0
  -26.9843  -30.1718   15.9721 C   0  0  0  0  0  0  0  0  0  0  0  0
  -26.7612  -23.7723   19.5608 C   0  0  0  0  0  0  0  0  0  0  0  0
  -27.4875  -28.9239   16.3871 C   0  0  0  0  0  0  0  0  0  0  0  0
  -27.4099  -23.7921   20.8037 C   0  0  0  0  0  0  0  0  0  0  0  0
  -22.8933   -8.6926   23.4624 C   0  0  0  0  0  0  0  0  0  0  0  0
  -28.5613  -21.7316   20.2216 C   0  0  0  0  0  0  0  0  0  0  0  0
  -21.5200   -7.9886   25.2346 C   0  0  0  0  0  0  0  0  0  0  0  0
  -19.9748   -8.6320   27.4664 C   0  0  0  0  0  0  0  0  0  0  0  0
  -21.8464   -7.4617   26.4842 C   0  0  0  0  0  0  0  0  0  0  0  0
  -24.7798  -11.8694   21.4016 C   0  0  0  0  0  0  0  0  0  0  0  0
  -25.2233  -13.7746   20.3972 C   0  0  0  0  0  0  0  0  0  0  0  0
  -22.8832  -13.6009   21.2589 C   0  0  0  0  0  0  0  0  0  0  0  0
  -27.1653  -26.9240   19.4773 C   0  0  0  0  0  0  0  0  0  0  0  0
  -34.1943  -18.3747   22.3245 C   0  0  0  0  0  0  0  0  0  0  0  0
  -25.6125  -26.8070   22.3229 C   0  0  0  0  0  0  0  0  0  0  0  0
  -24.7464  -24.9889   25.0781 C   0  0  0  0  0  0  0  0  0  0  0  0
  -31.1911  -13.3877   20.6905 C   0  0  0  0  0  0  0  0  0  0  0  0
  -26.8620  -31.3344   16.9250 C   0  0  0  0  0  0  0  0  0  0  0  0
  -25.7679  -24.8436   19.2028 C   0  0  0  0  0  0  0  0  0  0  0  0
  -27.1687  -24.8894   21.8068 C   0  0  0  0  0  0  0  0  0  0  0  0
  -26.9017  -30.9241   18.3948 C   0  0  0  0  0  0  0  0  0  0  0  0
  -29.1608  -13.0041   17.7909 C   0  0  0  0  0  0  0  0  0  0  0  0
  -28.0432  -29.9437   18.6447 C   0  0  0  0  0  0  0  0  0  0  0  0
  -33.6567  -18.4646   24.7832 C   0  0  0  0  0  0  0  0  0  0  0  0
  -27.7564  -12.7812   18.3546 C   0  0  0  0  0  0  0  0  0  0  0  0
  -31.8843  -14.0234   24.2761 C   0  0  0  0  0  0  0  0  0  0  0  0
  -33.7720  -17.1717   25.5930 C   0  0  0  0  0  0  0  0  0  0  0  0
  -32.8789  -14.7792   25.1663 C   0  0  0  0  0  0  0  0  0  0  0  0
  -30.2291  -12.3443   18.6601 C   0  0  0  0  0  0  0  0  0  0  0  0
  -28.7823  -12.4974   20.6493 C   0  0  0  0  0  0  0  0  0  0  0  0
  -31.9605  -15.9371   22.5871 C   0  0  0  0  0  0  0  0  0  0  0  0
  -27.8542  -28.6578   17.8309 C   0  0  1  0  0  0  0  0  0  0  0  0
  -25.9839  -26.1410   19.9759 C   0  0  1  0  0  0  0  0  0  0  0  0
  -33.1917  -18.0508   23.3806 C   0  0  2  0  0  0  0  0  0  0  0  0
  -27.6756  -13.1918   19.8373 C   0  0  2  0  0  0  0  0  0  0  0  0
  -32.0079  -14.4194   22.7946 C   0  0  2  0  0  0  0  0  0  0  0  0
  -32.7465  -16.2733   24.9357 C   0  0  2  0  0  0  0  0  0  0  0  0
  -36.0628  -20.8229   21.1607 C   0  0  0  0  0  0  0  0  0  0  0  0
  -23.5049  -25.1755   27.2509 C   0  0  0  0  0  0  0  0  0  0  0  0
  -27.9420  -28.3750   23.5165 C   0  0  0  0  0  0  0  0  0  0  0  0
  -27.1321  -27.7118   25.7908 C   0  0  0  0  0  0  0  0  0  0  0  0
  -25.6828  -29.0988   24.3080 C   0  0  0  0  0  0  0  0  0  0  0  0
  -22.8264  -22.8769   24.2960 C   0  0  0  0  0  0  0  0  0  0  0  0
  -31.7129  -20.1920   21.0982 C   0  0  0  0  0  0  0  0  0  0  0  0
  -34.9338  -20.0264   20.6008 C   0  0  0  0  0  0  0  0  0  0  0  0
  -32.9317  -20.5037   21.9582 C   0  0  0  0  0  0  0  0  0  0  0  0
  -30.5215  -21.0914   21.4062 C   0  0  0  0  0  0  0  0  0  1  0  0
  -26.0329  -26.6545   23.7647 C   0  0  1  0  0  0  0  0  0  0  0  0
  -23.4144  -24.7974   25.7807 C   0  0  2  0  0  0  0  0  0  0  0  0
  -26.7037  -27.9402   24.3255 C   0  0  0  0  0  0  0  0  0  0  0  0
  -26.0561  -11.7592   21.0236 N   0  0  0  0  0  0  0  0  0  0  0  0
  -26.2966  -12.9332   20.4154 N   0  0  0  0  0  0  0  0  0  0  0  0
  -26.1933  -25.9175   21.4078 N   0  0  0  0  0  0  0  0  0  0  0  0
  -30.0983  -12.7768   20.0536 N   0  0  0  0  0  0  0  0  0  0  0  0
  -25.2920  -14.9957   19.8258 N   0  0  0  0  0  0  0  0  0  0  0  0
  -21.9672  -12.7822   21.9335 N   0  0  0  0  0  0  0  0  0  0  0  0
  -26.8658  -27.8050   18.4557 N   0  0  0  0  0  0  0  0  0  0  0  0
  -24.8418  -26.2348   24.4951 N   0  0  0  0  0  0  0  0  0  0  0  0
  -30.9806  -13.7729   22.0088 N   0  0  0  0  0  0  0  0  0  0  0  0
  -34.0273  -19.5869   21.6538 N   0  0  0  0  0  0  0  0  0  0  0  0
  -32.9984  -16.5537   23.4758 N   0  3  1  0  0  0  0  0  0  0  0  0
  -22.9792  -23.3752   25.6871 N   0  3  0  0  0  0  0  0  0  0  0  0
  -22.5160  -14.7304   20.8554 O   0  0  0  0  0  0  0  0  0  0  0  0
  -28.2669  -26.7434   19.9830 O   0  0  0  0  0  0  0  0  0  0  0  0
  -35.1062  -17.5759   22.0951 O   0  0  0  0  0  0  0  0  0  0  0  0
  -24.7933  -27.6783   22.0207 O   0  0  0  0  0  0  0  0  0  0  0  0
  -25.6168  -24.1216   25.0525 O   0  0  0  0  0  0  0  0  0  0  0  0
  -32.2724  -13.5806   20.1244 O   0  0  0  0  0  0  0  0  0  0  0  0
  -22.2865   -7.6708   24.1259 O   0  0  0  0  0  0  0  0  0  0  0  0
  -29.4464  -20.7369   20.5465 O   0  0  0  0  0  0  0  0  0  1  0  0
  -19.2338   -8.9422   28.5382 F   0  0  0  0  0  0  0  0  0  0  0  0
  -22.9016   -6.6468   26.6190 F   0  0  0  0  0  0  0  0  0  0  0  0
  1  2  1  0  0  0  0
  1  5  2  0  0  0  0
  2  6  2  0  0  0  0
  3  8  2  0  0  0  0
  3 15  1  0  0  0  0
  4  9  1  0  0  0  0
  4 15  2  0  0  0  0
  5 17  1  0  0  0  0
  6 19  1  0  0  0  0
  7 10  2  0  0  0  0
  7 18  1  0  0  0  0
  8 21  1  0  0  0  0
  9 21  2  0  0  0  0
 10 22  1  0  0  0  0
 11 12  2  0  0  0  0
 11 23  1  0  0  0  0
 12 24  1  0  0  0  0
 13 20  1  0  0  0  0
 13 22  2  0  0  0  0
 14 24  2  0  0  0  0
 14 25  1  0  0  0  0
 15 26  1  0  0  0  0
 16 26  1  0  0  0  0
 16 27  2  0  0  0  0
 16 28  1  0  0  0  0
 17 19  2  0  0  0  0
 17 34  1  0  0  0  0
 18 20  2  0  0  0  0
 18 35  1  0  0  0  0
 19 48  1  0  0  0  0
 20 36  1  0  0  0  0
 21 85  1  0  0  0  0
 22 86  1  0  0  0  0
 23 25  2  0  0  0  0
 23 85  1  0  0  0  0
 24 87  1  0  0  0  0
 25 88  1  0  0  0  0
 26 67  2  0  0  0  0
 27 68  1  0  0  0  0
 27 71  1  0  0  0  0
 28 72  1  0  0  0  0
 28 79  2  0  0  0  0
 29 49  1  0  0  0  0
 29 73  1  0  0  0  0
 29 80  2  0  0  0  0
 30 50  1  0  0  0  0
 30 76  1  0  0  0  0
 30 81  2  0  0  0  0
 31 64  1  0  0  0  0
 31 69  1  0  0  0  0
 31 82  2  0  0  0  0
 32 65  1  0  0  0  0
 32 74  1  0  0  0  0
 32 83  2  0  0  0  0
 33 70  1  0  0  0  0
 33 75  1  0  0  0  0
 33 84  2  0  0  0  0
 34 37  1  0  0  0  0
 35 49  1  0  0  0  0
 36 69  1  0  0  0  0
 37 39  1  0  0  0  0
 38 41  1  0  0  0  0
 38 45  1  0  0  0  0
 39 48  1  0  0  0  0
 40 43  1  0  0  0  0
 40 50  1  0  0  0  0
 41 51  1  0  0  0  0
 42 44  1  0  0  0  0
 42 52  1  0  0  0  0
 43 53  1  0  0  0  0
 44 53  1  0  0  0  0
 45 70  1  0  0  0  0
 46 51  1  0  0  0  0
 46 70  1  0  0  0  0
 47 52  1  0  0  0  0
 47 77  1  0  0  0  0
 48 73  1  0  0  0  0
 49 69  1  0  0  0  0
 50 77  1  0  0  0  0
 51 68  1  0  0  0  0
 52 75  1  0  0  0  0
 53 77  1  0  0  0  0
 54 61  1  0  0  0  0
 55 65  1  0  0  0  0
 56 66  1  0  0  0  0
 57 66  1  0  0  0  0
 58 66  1  0  0  0  0
 59 78  1  0  0  0  0
 60 62  1  0  0  0  0
 60 63  1  0  0  0  0
 61 76  1  0  0  0  0
 62 76  1  0  0  0  0
 63 86  1  0  0  0  0
 64 66  1  0  0  0  0
 64 74  1  0  0  0  0
 65 78  1  0  0  0  0
 67 68  1  0  0  0  0
M  CHG  2  77   1  78   1
M  ISO  4  33 100  63 101  75 100  86 101
M  END
> <Batch ID>
0022

> <Smiles>
CCN(CC[101CH2:1][101O:1]c1ccc2c(c1)CN(C(=O)C(NC(=O)C(C)NC)C(C)(C)C)C(C(=O)NC1CCCc3ccccc31)C2)C(=O)C1CCC2CCC([100NH:0][100C:0](=O)N3CCCC(n4nc(-c5ccc(Oc6ccc(F)cc6F)cc5)c(C(N)=O)c4N)C3)CN21

> <Shape>
0.172

> <Color>
0.155

> <Negative vol penalty>
0.000

$$$$

  -OEChem-04042321143D

 84 92  0     1  0  0  0  0  0999 V2000
  -18.1083  -25.2456   20.1652 C   0  0  0  0  0  0  0  0  0  0  0  0
  -19.2712  -25.7038   19.5543 C   0  0  0  0  0  0  0  0  0  0  0  0
  -24.9428  -14.1360   21.9953 C   0  0  0  0  0  0  0  0  0  0  0  0
  -26.9434  -13.8669   20.6680 C   0  0  0  0  0  0  0  0  0  0  0  0
  -17.7937  -25.6570   21.4597 C   0  0  0  0  0  0  0  0  0  0  0  0
  -20.1196  -26.5746   20.2372 C   0  0  0  0  0  0  0  0  0  0  0  0
  -24.9964  -25.2864   19.7877 C   0  0  0  0  0  0  0  0  0  0  0  0
  -31.3180  -20.2663   18.2047 C   0  0  0  0  0  0  0  0  0  0  0  0
  -24.3478  -13.0743   21.3139 C   0  0  0  0  0  0  0  0  0  0  0  0
  -26.3485  -12.8051   19.9865 C   0  0  0  0  0  0  0  0  0  0  0  0
  -25.6340  -25.6144   18.5920 C   0  0  0  0  0  0  0  0  0  0  0  0
  -24.4720   -9.6958   21.3706 C   0  0  0  0  0  0  0  0  0  0  0  0
  -32.0751  -20.5372   17.0649 C   0  0  0  0  0  0  0  0  0  0  0  0
  -23.7918   -8.7405   22.1259 C   0  0  0  0  0  0  0  0  0  0  0  0
  -30.1365  -22.3539   17.9159 C   0  0  0  0  0  0  0  0  0  0  0  0
  -26.6234  -27.5407   19.6550 C   0  0  0  0  0  0  0  0  0  0  0  0
  -21.7549   -9.2438   20.9280 C   0  0  0  0  0  0  0  0  0  0  0  0
  -26.2406  -14.5323   21.6723 C   0  0  0  0  0  0  0  0  0  0  0  0
  -30.8937  -22.6247   16.7762 C   0  0  0  0  0  0  0  0  0  0  0  0
  -27.6265  -15.5601   23.5513 C   0  0  0  0  0  0  0  0  0  0  0  0
  -18.6435  -26.5256   22.1624 C   0  0  0  0  0  0  0  0  0  0  0  0
  -25.1591  -26.0905   20.9250 C   0  0  0  0  0  0  0  0  0  0  0  0
  -19.8153  -26.9990   21.5418 C   0  0  0  0  0  0  0  0  0  0  0  0
  -25.9888  -27.2193   20.8646 C   0  0  0  0  0  0  0  0  0  0  0  0
  -30.3486  -21.1746   18.6301 C   0  0  0  0  0  0  0  0  0  0  0  0
  -25.0506  -12.4088   20.3095 C   0  0  0  0  0  0  0  0  0  0  0  0
  -26.4453  -26.7433   18.5248 C   0  0  0  0  0  0  0  0  0  0  0  0
  -23.7936  -10.4251   20.3941 C   0  0  0  0  0  0  0  0  0  0  0  0
  -22.4333   -8.5145   21.9046 C   0  0  0  0  0  0  0  0  0  0  0  0
  -31.8630  -21.7164   16.3507 C   0  0  0  0  0  0  0  0  0  0  0  0
  -22.4351  -10.1991   20.1728 C   0  0  0  0  0  0  0  0  0  0  0  0
  -26.8555  -15.6294   22.3755 C   0  0  0  0  0  0  0  0  0  0  0  0
  -27.9749  -16.8630   23.8108 C   0  0  0  0  0  0  0  0  0  0  0  0
  -30.6677  -23.8742   16.0223 C   0  0  0  0  0  0  0  0  0  0  0  0
  -27.9949  -14.4198   24.3386 C   0  0  0  0  0  0  0  0  0  0  0  0
  -23.2105  -27.8161   22.7495 C   0  0  0  0  0  0  0  0  0  0  0  0
  -25.8745  -28.1935   24.5614 C   0  0  0  0  0  0  0  0  0  0  0  0
  -29.2828  -28.2018   24.7353 C   0  0  0  0  0  0  0  0  0  0  0  0
  -28.5795  -21.6942   20.3467 C   0  0  0  0  0  0  0  0  0  0  0  0
  -18.2375  -26.9800   23.5420 C   0  0  0  0  0  0  0  0  0  0  0  0
  -24.4858  -25.7082   22.2145 C   0  0  0  0  0  0  0  0  0  0  0  0
  -26.2124  -28.1041   22.0628 C   0  0  0  0  0  0  0  0  0  0  0  0
  -19.3793  -27.6081   24.3371 C   0  0  0  0  0  0  0  0  0  0  0  0
  -26.4330  -21.3510   23.1666 C   0  0  0  0  0  0  0  0  0  0  0  0
  -20.1409  -28.6109   23.4762 C   0  0  0  0  0  0  0  0  0  0  0  0
  -26.3728  -19.8389   23.3945 C   0  0  0  0  0  0  0  0  0  0  0  0
  -26.4824  -21.6989   21.6799 C   0  0  0  0  0  0  0  0  0  0  0  0
  -27.4806  -19.5106   21.1468 C   0  0  0  0  0  0  0  0  0  0  0  0
  -20.7735  -27.9249   22.2593 C   0  0  1  0  0  0  0  0  0  0  0  0
  -24.3123  -26.8849   23.1698 C   0  0  1  0  0  0  0  0  0  0  0  0
  -27.4949  -19.1087   22.6307 C   0  0  2  0  0  0  0  0  0  0  0  0
  -31.1723  -28.5810   26.3426 C   0  0  0  0  0  0  0  0  0  0  0  0
  -25.4125  -31.2047   24.3902 C   0  0  0  0  0  0  0  0  0  0  0  0
  -27.7704  -31.5400   25.1624 C   0  0  0  0  0  0  0  0  0  0  0  0
  -26.1274  -30.3854   26.6423 C   0  0  0  0  0  0  0  0  0  0  0  0
  -30.2896  -25.4410   24.3836 C   0  0  0  0  0  0  0  0  0  0  0  0
  -28.6482  -26.3884   15.6845 C   0  0  0  0  0  0  0  0  0  0  0  0
  -29.1080  -25.2928   14.7372 C   0  0  0  0  0  0  0  0  0  0  0  0
  -27.4177  -25.9897   16.4894 C   0  0  0  0  0  0  0  0  0  1  0  0
  -27.0102  -29.1873   24.5984 C   0  0  1  0  0  0  0  0  0  0  0  0
  -30.2429  -27.5531   25.7161 C   0  0  2  0  0  0  0  0  0  0  0  0
  -26.5746  -30.5640   25.1751 C   0  0  0  0  0  0  0  0  0  0  0  0
  -26.7215  -16.8777   21.9196 N   0  0  0  0  0  0  0  0  0  0  0  0
  -27.4130  -17.6048   22.8136 N   0  0  0  0  0  0  0  0  0  0  0  0
  -25.5273  -27.6920   23.2990 N   0  0  0  0  0  0  0  0  0  0  0  0
  -27.5720  -20.9739   21.0227 N   0  0  0  0  0  0  0  0  0  0  0  0
  -28.7040  -17.4352   24.7923 N   0  0  0  0  0  0  0  0  0  0  0  0
  -31.6870  -24.7237   15.8945 N   0  0  0  0  0  0  0  0  0  0  0  0
  -27.5525  -13.1544   23.9296 N   0  0  0  0  0  0  0  0  0  0  0  0
  -29.5805  -20.8997   19.7887 N   0  0  0  0  0  0  0  0  0  0  0  0
  -21.9718  -27.2121   22.6473 N   0  0  0  0  0  0  0  0  0  0  0  0
  -28.0910  -28.5446   25.3382 N   0  0  0  0  0  0  0  0  0  0  0  0
  -29.4521  -24.0962   15.5055 N   0  3  0  0  0  0  0  0  0  0  0  0
  -31.0742  -26.5270   25.0255 N   0  3  0  0  0  0  0  0  0  0  0  0
  -28.6820  -14.5219   25.3831 O   0  0  0  0  0  0  0  0  0  0  0  0
  -23.4649  -28.9955   22.5354 O   0  0  0  0  0  0  0  0  0  0  0  0
  -25.3206  -27.8687   25.6146 O   0  0  0  0  0  0  0  0  0  0  0  0
  -29.5634  -28.3891   23.5535 O   0  0  0  0  0  0  0  0  0  0  0  0
  -28.5704  -22.9266   20.2918 O   0  0  0  0  0  0  0  0  0  0  0  0
  -24.4705  -11.3726   19.6445 O   0  0  0  0  0  0  0  0  0  0  0  0
  -27.0683  -27.0661   17.3587 O   0  0  0  0  0  0  0  0  0  1  0  0
  -21.7806   -7.5961   22.6289 F   0  0  0  0  0  0  0  0  0  0  0  0
  -32.5956  -21.9682   15.2569 F   0  0  0  0  0  0  0  0  0  0  0  0
  -21.7783  -10.8959   19.2352 F   0  0  0  0  0  0  0  0  0  0  0  0
  1  2  1  0  0  0  0
  1  5  2  0  0  0  0
  2  6  2  0  0  0  0
  3  9  2  0  0  0  0
  3 18  1  0  0  0  0
  4 10  1  0  0  0  0
  4 18  2  0  0  0  0
  5 21  1  0  0  0  0
  6 23  1  0  0  0  0
  7 11  2  0  0  0  0
  7 22  1  0  0  0  0
  8 13  2  0  0  0  0
  8 25  1  0  0  0  0
  9 26  1  0  0  0  0
 10 26  2  0  0  0  0
 11 27  1  0  0  0  0
 12 14  2  0  0  0  0
 12 28  1  0  0  0  0
 13 30  1  0  0  0  0
 14 29  1  0  0  0  0
 15 19  1  0  0  0  0
 15 25  2  0  0  0  0
 16 24  1  0  0  0  0
 16 27  2  0  0  0  0
 17 29  2  0  0  0  0
 17 31  1  0  0  0  0
 18 32  1  0  0  0  0
 19 30  2  0  0  0  0
 19 34  1  0  0  0  0
 20 32  1  0  0  0  0
 20 33  2  0  0  0  0
 20 35  1  0  0  0  0
 21 23  2  0  0  0  0
 21 40  1  0  0  0  0
 22 24  2  0  0  0  0
 22 41  1  0  0  0  0
 23 49  1  0  0  0  0
 24 42  1  0  0  0  0
 25 70  1  0  0  0  0
 26 80  1  0  0  0  0
 27 81  1  0  0  0  0
 28 31  2  0  0  0  0
 28 80  1  0  0  0  0
 29 82  1  0  0  0  0
 30 83  1  0  0  0  0
 31 84  1  0  0  0  0
 32 63  2  0  0  0  0
 33 64  1  0  0  0  0
 33 67  1  0  0  0  0
 34 68  1  0  0  0  0
 34 73  2  0  0  0  0
 35 69  1  0  0  0  0
 35 75  2  0  0  0  0
 36 50  1  0  0  0  0
 36 71  1  0  0  0  0
 36 76  2  0  0  0  0
 37 60  1  0  0  0  0
 37 65  1  0  0  0  0
 37 77  2  0  0  0  0
 38 61  1  0  0  0  0
 38 72  1  0  0  0  0
 38 78  2  0  0  0  0
 39 66  1  0  0  0  0
 39 70  1  0  0  0  0
 39 79  2  0  0  0  0
 40 43  1  0  0  0  0
 41 50  1  0  0  0  0
 42 65  1  0  0  0  0
 43 45  1  0  0  0  0
 44 46  1  0  0  0  0
 44 47  1  0  0  0  0
 45 49  1  0  0  0  0
 46 51  1  0  0  0  0
 47 66  1  0  0  0  0
 48 51  1  0  0  0  0
 48 66  1  0  0  0  0
 49 71  1  0  0  0  0
 50 65  1  0  0  0  0
 51 64  1  0  0  0  0
 52 61  1  0  0  0  0
 53 62  1  0  0  0  0
 54 62  1  0  0  0  0
 55 62  1  0  0  0  0
 56 74  1  0  0  0  0
 57 58  1  0  0  0  0
 57 59  1  0  0  0  0
 58 73  1  0  0  0  0
 59 81  1  0  0  0  0
 60 62  1  0  0  0  0
 60 72  1  0  0  0  0
 61 74  1  0  0  0  0
 63 64  1  0  0  0  0
M  CHG  2  73   1  74   1
M  ISO  4  39 100  59 101  70 100  81 101
M  END
> <Batch ID>
0022

> <Smiles>
CNC(C)C(=O)NC(C(=O)N1Cc2cc([101O:1][101CH2:1]CCNC(=N)c3cc([100NH:0][100C:0](=O)N4CCCC(n5nc(-c6ccc(Oc7ccc(F)cc7F)cc6)c(C(N)=O)c5N)C4)ccc3F)ccc2CC1C(=O)NC1CCCc2ccccc21)C(C)(C)C

> <Shape>
0.224

> <Color>
0.069

> <Negative vol penalty>
0.000

$$$$

  -OEChem-04042321143D

 91100  0     1  0  0  0  0  0999 V2000
  -25.4525  -37.8739   22.4494 C   0  0  0  0  0  0  0  0  0  0  0  0
  -26.5828  -37.0690   22.5485 C   0  0  0  0  0  0  0  0  0  0  0  0
  -23.2848   -9.8581   19.8629 C   0  0  0  0  0  0  0  0  0  0  0  0
  -24.2643   -9.6428   22.0610 C   0  0  0  0  0  0  0  0  0  0  0  0
  -24.2463  -37.4516   23.0068 C   0  0  0  0  0  0  0  0  0  0  0  0
  -26.5079  -35.8417   23.2062 C   0  0  0  0  0  0  0  0  0  0  0  0
  -28.2807  -28.6779   20.6442 C   0  0  0  0  0  0  0  0  0  0  0  0
  -24.8093  -21.0098   19.2784 C   0  0  0  0  0  0  0  0  0  0  0  0
  -25.3340  -19.9060   19.9507 C   0  0  0  0  0  0  0  0  0  0  0  0
  -22.2353   -9.0243   20.2489 C   0  0  0  0  0  0  0  0  0  0  0  0
  -23.2148   -8.8090   22.4470 C   0  0  0  0  0  0  0  0  0  0  0  0
  -28.4110  -27.3449   20.2539 C   0  0  0  0  0  0  0  0  0  0  0  0
  -22.3228   -5.5738   22.0361 C   0  0  0  0  0  0  0  0  0  0  0  0
  -22.6428   -4.4119   22.7383 C   0  0  0  0  0  0  0  0  0  0  0  0
  -26.7793  -26.6883   21.9135 C   0  0  0  0  0  0  0  0  0  0  0  0
  -23.9268  -18.4407   18.6431 C   0  0  0  0  0  0  0  0  0  0  0  0
  -21.3046   -5.1695   24.6018 C   0  0  0  0  0  0  0  0  0  0  0  0
  -24.2993  -10.1673   20.7689 C   0  0  0  0  0  0  0  0  0  0  0  0
  -26.3010  -10.8116   19.3247 C   0  0  0  0  0  0  0  0  0  0  0  0
  -24.1542  -36.2142   23.6633 C   0  0  0  0  0  0  0  0  0  0  0  0
  -27.3868  -29.0235   21.6614 C   0  0  0  0  0  0  0  0  0  0  0  0
  -25.2997  -35.4030   23.7741 C   0  0  0  0  0  0  0  0  0  0  0  0
  -26.6354  -28.0234   22.3002 C   0  0  0  0  0  0  0  0  0  0  0  0
  -23.8433  -20.8290   18.2885 C   0  0  0  0  0  0  0  0  0  0  0  0
  -24.8928  -18.6215   19.6331 C   0  0  0  0  0  0  0  0  0  0  0  0
  -22.2003   -8.4998   21.5409 C   0  0  0  0  0  0  0  0  0  0  0  0
  -27.6623  -26.3526   20.8871 C   0  0  0  0  0  0  0  0  0  0  0  0
  -21.4937   -6.5336   22.6167 C   0  0  0  0  0  0  0  0  0  0  0  0
  -22.1338   -4.2097   24.0211 C   0  0  0  0  0  0  0  0  0  0  0  0
  -23.4021  -19.5445   17.9708 C   0  0  0  0  0  0  0  0  0  0  0  0
  -20.9846   -6.3315   23.8995 C   0  0  0  0  0  0  0  0  0  0  0  0
  -25.3840  -11.0281   20.3706 C   0  0  0  0  0  0  0  0  0  0  0  0
  -27.1242  -11.9105   19.3569 C   0  0  0  0  0  0  0  0  0  0  0  0
  -23.9836  -22.8905   16.8423 C   0  0  0  0  0  0  0  0  0  0  0  0
  -25.1551  -22.8174   16.1946 C   0  0  0  0  0  0  0  0  0  0  0  0
  -26.3998   -9.7151   18.4062 C   0  0  0  0  0  0  0  0  0  0  0  0
  -26.0190  -21.6120   16.3468 C   0  0  0  0  0  0  0  0  0  0  0  0
  -25.8744  -31.7532   23.7441 C   0  0  0  0  0  0  0  0  0  0  0  0
  -23.6070  -29.8117   23.0369 C   0  0  0  0  0  0  0  0  0  0  0  0
  -21.3239  -27.6643   21.6903 C   0  0  0  0  0  0  0  0  0  0  0  0
  -26.3900  -17.5050   21.3237 C   0  0  0  0  0  0  0  0  0  0  0  0
  -22.8403  -35.8217   24.2913 C   0  0  0  0  0  0  0  0  0  0  0  0
  -27.2592  -30.4386   22.1563 C   0  0  0  0  0  0  0  0  0  0  0  0
  -25.7117  -28.4373   23.4131 C   0  0  0  0  0  0  0  0  0  0  0  0
  -23.0996  -24.1086   16.7143 C   0  0  0  0  0  0  0  0  0  0  0  0
  -22.7532  -34.3393   24.6451 C   0  0  0  0  0  0  0  0  0  0  0  0
  -21.7087  -23.5252   16.9414 C   0  0  0  0  0  0  0  0  0  0  0  0
  -28.8797  -15.1874   22.3759 C   0  0  0  0  0  0  0  0  0  0  0  0
  -24.0226  -33.8852   25.3587 C   0  0  0  0  0  0  0  0  0  0  0  0
  -28.3523  -13.8389   21.8806 C   0  0  0  0  0  0  0  0  0  0  0  0
  -21.9316  -22.3498   17.8964 C   0  0  0  0  0  0  0  0  0  0  0  0
  -27.7497  -16.0972   22.8547 C   0  0  0  0  0  0  0  0  0  0  0  0
  -26.1334  -14.9467   21.3942 C   0  0  0  0  0  0  0  0  0  0  0  0
  -25.2522  -34.0540   24.4581 C   0  0  1  0  0  0  0  0  0  0  0  0
  -25.8261  -30.8009   22.5855 C   0  0  1  0  0  0  0  0  0  0  0  0
  -27.2289  -14.0206   20.8411 C   0  0  2  0  0  0  0  0  0  0  0  0
  -18.8647  -27.1650   21.6659 C   0  0  0  0  0  0  0  0  0  0  0  0
  -23.8359  -28.5671   25.8122 C   0  0  0  0  0  0  0  0  0  0  0  0
  -21.7302  -27.2981   25.3391 C   0  0  0  0  0  0  0  0  0  0  0  0
  -21.6965  -29.7919   25.3910 C   0  0  0  0  0  0  0  0  0  0  0  0
  -28.2082  -20.7019   17.0218 C   0  0  0  0  0  0  0  0  0  0  0  0
  -21.1406  -28.1287   18.7731 C   0  0  0  0  0  0  0  0  0  0  0  0
  -27.5472  -23.4717   18.7104 C   0  0  0  0  0  0  0  0  0  0  0  0
  -27.8368  -23.1314   17.2547 C   0  0  0  0  0  0  0  0  0  0  0  0
  -28.1272  -24.8164   19.1317 C   0  0  0  0  0  0  0  0  0  1  0  0
  -22.7986  -28.6073   23.4482 C   0  0  1  0  0  0  0  0  0  0  0  0
  -20.0021  -27.9110   20.9856 C   0  0  2  0  0  0  0  0  0  0  0  0
  -22.5378  -28.5637   24.9804 C   0  0  0  0  0  0  0  0  0  0  0  0
  -25.6037  -12.1745   21.0200 N   0  0  0  0  0  0  0  0  0  0  0  0
  -26.6682  -12.6881   20.3804 N   0  0  0  0  0  0  0  0  0  0  0  0
  -23.3141  -21.9459   17.6123 N   0  0  0  0  0  0  0  0  0  0  0  0
  -25.0000  -29.6706   23.0427 N   0  0  0  0  0  0  0  0  0  0  0  0
  -26.7246  -16.2260   21.8168 N   0  0  0  0  0  0  0  0  0  0  0  0
  -28.1865  -12.2779   18.6092 N   0  0  0  0  0  0  0  0  0  0  0  0
  -27.1976   -8.6181   18.7586 N   0  0  0  0  0  0  0  0  0  0  0  0
  -25.4259  -17.5003   20.3161 N   0  0  0  0  0  0  0  0  0  0  0  0
  -25.3131  -32.9882   23.4810 N   0  0  0  0  0  0  0  0  0  0  0  0
  -21.5867  -28.6324   22.6363 N   0  0  0  0  0  0  0  0  0  0  0  0
  -27.3060  -21.8510   16.8765 N   0  0  0  0  0  0  0  0  0  0  0  0
  -20.0788  -27.4590   19.5676 N   0  3  0  0  0  0  0  0  0  0  0  0
  -25.8115   -9.7156   17.2983 O   0  0  0  0  0  0  0  0  0  0  0  0
  -25.5958  -20.5091   15.9968 O   0  0  0  0  0  0  0  0  0  0  0  0
  -26.3820  -31.3945   24.8002 O   0  0  0  0  0  0  0  0  0  0  0  0
  -23.0220  -30.8525   22.7239 O   0  0  0  0  0  0  0  0  0  0  0  0
  -22.0488  -26.7065   21.4302 O   0  0  0  0  0  0  0  0  0  0  0  0
  -26.9392  -18.5266   21.7438 O   0  0  0  0  0  0  0  0  0  0  0  0
  -21.1762   -7.6863   21.9180 O   0  0  0  0  0  0  0  0  0  0  0  0
  -27.7911  -25.0538   20.4981 O   0  0  0  0  0  0  0  0  0  1  0  0
  -22.4399   -3.0932   24.6947 F   0  0  0  0  0  0  0  0  0  0  0  0
  -22.4731  -19.3598   17.0221 F   0  0  0  0  0  0  0  0  0  0  0  0
  -20.1867   -7.2494   24.4621 F   0  0  0  0  0  0  0  0  0  0  0  0
  1  2  1  0  0  0  0
  1  5  2  0  0  0  0
  2  6  2  0  0  0  0
  3 10  2  0  0  0  0
  3 18  1  0  0  0  0
  4 11  1  0  0  0  0
  4 18  2  0  0  0  0
  5 20  1  0  0  0  0
  6 22  1  0  0  0  0
  7 12  2  0  0  0  0
  7 21  1  0  0  0  0
  8  9  2  0  0  0  0
  8 24  1  0  0  0  0
  9 25  1  0  0  0  0
 10 26  1  0  0  0  0
 11 26  2  0  0  0  0
 12 27  1  0  0  0  0
 13 14  2  0  0  0  0
 13 28  1  0  0  0  0
 14 29  1  0  0  0  0
 15 23  1  0  0  0  0
 15 27  2  0  0  0  0
 16 25  2  0  0  0  0
 16 30  1  0  0  0  0
 17 29  2  0  0  0  0
 17 31  1  0  0  0  0
 18 32  1  0  0  0  0
 19 32  1  0  0  0  0
 19 33  2  0  0  0  0
 19 36  1  0  0  0  0
 20 22  2  0  0  0  0
 20 42  1  0  0  0  0
 21 23  2  0  0  0  0
 21 43  1  0  0  0  0
 22 54  1  0  0  0  0
 23 44  1  0  0  0  0
 24 30  2  0  0  0  0
 24 71  1  0  0  0  0
 25 76  1  0  0  0  0
 26 87  1  0  0  0  0
 27 88  1  0  0  0  0
 28 31  2  0  0  0  0
 28 87  1  0  0  0  0
 29 89  1  0  0  0  0
 30 90  1  0  0  0  0
 31 91  1  0  0  0  0
 32 69  2  0  0  0  0
 33 70  1  0  0  0  0
 33 74  1  0  0  0  0
 34 35  2  0  0  0  0
 34 45  1  0  0  0  0
 34 71  1  0  0  0  0
 35 37  1  0  0  0  0
 36 75  1  0  0  0  0
 36 81  2  0  0  0  0
 37 79  1  0  0  0  0
 37 82  2  0  0  0  0
 38 55  1  0  0  0  0
 38 77  1  0  0  0  0
 38 83  2  0  0  0  0
 39 66  1  0  0  0  0
 39 72  1  0  0  0  0
 39 84  2  0  0  0  0
 40 67  1  0  0  0  0
 40 78  1  0  0  0  0
 40 85  2  0  0  0  0
 41 73  1  0  0  0  0
 41 76  1  0  0  0  0
 41 86  2  0  0  0  0
 42 46  1  0  0  0  0
 43 55  1  0  0  0  0
 44 72  1  0  0  0  0
 45 47  1  0  0  0  0
 46 49  1  0  0  0  0
 47 51  1  0  0  0  0
 48 50  1  0  0  0  0
 48 52  1  0  0  0  0
 49 54  1  0  0  0  0
 50 56  1  0  0  0  0
 51 71  1  0  0  0  0
 52 73  1  0  0  0  0
 53 56  1  0  0  0  0
 53 73  1  0  0  0  0
 54 77  1  0  0  0  0
 55 72  1  0  0  0  0
 56 70  1  0  0  0  0
 57 67  1  0  0  0  0
 58 68  1  0  0  0  0
 59 68  1  0  0  0  0
 60 68  1  0  0  0  0
 61 79  1  0  0  0  0
 62 80  1  0  0  0  0
 63 64  1  0  0  0  0
 63 65  1  0  0  0  0
 64 79  1  0  0  0  0
 65 88  1  0  0  0  0
 66 68  1  0  0  0  0
 66 78  1  0  0  0  0
 67 80  1  0  0  0  0
 69 70  1  0  0  0  0
M  CHG  1  80   1
M  ISO  4  41 100  65 101  76 100  88 101
M  END
> <Batch ID>
0022

> <Smiles>
CNC(C)C(=O)NC(C(=O)N1Cc2cc([101O:1][101CH2:1]CCN(C)C(=O)C=C3CCCN3c3ccc([100NH:0][100C:0](=O)N4CCCC(n5nc(-c6ccc(Oc7ccc(F)cc7F)cc6)c(C(N)=O)c5N)C4)cc3F)ccc2CC1C(=O)NC1CCCc2ccccc21)C(C)(C)C

> <Shape>
0.279

> <Color>
0.073

> <Negative vol penalty>
0.000

$$$$

  -OEChem-04042321143D

 82 90  0     1  0  0  0  0  0999 V2000
  -22.3820  -28.8567   16.3879 C   0  0  0  0  0  0  0  0  0  0  0  0
  -23.1099  -28.3161   17.4431 C   0  0  0  0  0  0  0  0  0  0  0  0
  -23.0743   -9.8701   19.9401 C   0  0  0  0  0  0  0  0  0  0  0  0
  -23.8349   -9.8742   22.2333 C   0  0  0  0  0  0  0  0  0  0  0  0
  -21.4431  -28.0741   15.7171 C   0  0  0  0  0  0  0  0  0  0  0  0
  -22.8985  -26.9929   17.8288 C   0  0  0  0  0  0  0  0  0  0  0  0
  -27.0871  -23.0648   19.9576 C   0  0  0  0  0  0  0  0  0  0  0  0
  -22.3294   -8.7174   20.1892 C   0  0  0  0  0  0  0  0  0  0  0  0
  -23.0899   -8.7215   22.4824 C   0  0  0  0  0  0  0  0  0  0  0  0
  -27.4255  -22.6632   21.2491 C   0  0  0  0  0  0  0  0  0  0  0  0
  -21.1029   -5.9850   23.8170 C   0  0  0  0  0  0  0  0  0  0  0  0
  -20.3469   -5.9410   24.9883 C   0  0  0  0  0  0  0  0  0  0  0  0
  -25.9981  -20.7326   21.0164 C   0  0  0  0  0  0  0  0  0  0  0  0
  -31.8719  -17.3389   21.5637 C   0  0  0  0  0  0  0  0  0  0  0  0
  -31.5877  -19.3738   22.8346 C   0  0  0  0  0  0  0  0  0  0  0  0
  -29.8082  -17.7417   22.7537 C   0  0  0  0  0  0  0  0  0  0  0  0
  -19.1039   -7.8801   24.2590 C   0  0  0  0  0  0  0  0  0  0  0  0
  -23.8271  -10.4485   20.9622 C   0  0  0  0  0  0  0  0  0  0  0  0
  -24.1712  -12.9734   20.8445 C   0  0  0  0  0  0  0  0  0  0  0  0
  -21.2270  -26.7377   16.0886 C   0  0  0  0  0  0  0  0  0  0  0  0
  -26.1916  -22.3078   19.1886 C   0  0  0  0  0  0  0  0  0  0  0  0
  -21.9549  -26.1921   17.1632 C   0  0  0  0  0  0  0  0  0  0  0  0
  -25.6519  -21.1253   19.7145 C   0  0  0  0  0  0  0  0  0  0  0  0
  -32.3703  -18.5612   22.0143 C   0  0  0  0  0  0  0  0  0  0  0  0
  -30.5908  -16.9292   21.9333 C   0  0  0  0  0  0  0  0  0  0  0  0
  -30.3067  -18.9641   23.2043 C   0  0  0  0  0  0  0  0  0  0  0  0
  -22.3372   -8.1431   21.4603 C   0  0  0  0  0  0  0  0  0  0  0  0
  -26.8788  -21.4985   21.7798 C   0  0  0  0  0  0  0  0  0  0  0  0
  -20.8594   -6.9766   22.8666 C   0  0  0  0  0  0  0  0  0  0  0  0
  -19.3474   -6.8885   25.2094 C   0  0  0  0  0  0  0  0  0  0  0  0
  -19.8599   -7.9241   23.0876 C   0  0  0  0  0  0  0  0  0  0  0  0
  -24.5972  -11.6389   20.7053 C   0  0  0  0  0  0  0  0  0  0  0  0
  -25.2639  -13.7222   20.4816 C   0  0  0  0  0  0  0  0  0  0  0  0
  -22.9013  -13.4900   21.2643 C   0  0  0  0  0  0  0  0  0  0  0  0
  -23.3406  -22.8447   17.8897 C   0  0  0  0  0  0  0  0  0  0  0  0
  -23.8146  -19.9119   16.5872 C   0  0  0  0  0  0  0  0  0  0  0  0
  -25.3792  -16.8838   16.7593 C   0  0  0  0  0  0  0  0  0  0  0  0
  -30.7312  -14.7626   20.6557 C   0  0  0  0  0  0  0  0  0  0  0  0
  -20.1676  -25.9452   15.3644 C   0  0  0  0  0  0  0  0  0  0  0  0
  -25.8574  -22.7403   17.7872 C   0  0  0  0  0  0  0  0  0  0  0  0
  -24.7016  -20.2664   18.9223 C   0  0  0  0  0  0  0  0  0  0  0  0
  -20.2713  -24.4393   15.5922 C   0  0  0  0  0  0  0  0  0  0  0  0
  -29.6138  -12.3521   18.2854 C   0  0  0  0  0  0  0  0  0  0  0  0
  -20.4683  -24.1359   17.0740 C   0  0  0  0  0  0  0  0  0  0  0  0
  -28.1740  -12.0614   18.7151 C   0  0  0  0  0  0  0  0  0  0  0  0
  -30.5295  -12.5789   19.4870 C   0  0  0  0  0  0  0  0  0  0  0  0
  -28.6236  -13.3038   20.8695 C   0  0  0  0  0  0  0  0  0  0  0  0
  -21.7717  -24.7533   17.5950 C   0  0  1  0  0  0  0  0  0  0  0  0
  -24.5366  -22.1665   17.2837 C   0  0  1  0  0  0  0  0  0  0  0  0
  -27.6503  -13.1326   19.6918 C   0  0  2  0  0  0  0  0  0  0  0  0
  -33.7399  -18.9995   21.6190 C   0  0  0  0  0  0  0  0  0  0  0  0
  -25.5376  -14.6781   15.5731 C   0  0  0  0  0  0  0  0  0  0  0  0
  -21.1082  -19.1007   17.7393 C   0  0  0  0  0  0  0  0  0  0  0  0
  -21.7435  -16.7084   17.3633 C   0  0  0  0  0  0  0  0  0  0  0  0
  -21.5491  -18.2650   15.4238 C   0  0  0  0  0  0  0  0  0  0  0  0
  -30.0423  -21.0628   24.5027 C   0  0  0  0  0  0  0  0  0  0  0  0
  -28.2697  -17.2420   16.2347 C   0  0  0  0  0  0  0  0  0  0  0  0
  -28.1849  -19.3920   24.4190 C   0  0  0  0  0  0  0  0  0  0  0  0
  -27.1987  -19.7025   23.3056 C   0  0  0  0  0  0  0  0  0  1  0  0
  -23.5081  -18.4941   17.0055 C   0  0  1  0  0  0  0  0  0  0  0  0
  -26.1243  -16.0741   15.7135 C   0  0  2  0  0  0  0  0  0  0  0  0
  -21.9936  -18.1590   16.8989 C   0  0  0  0  0  0  0  0  0  0  0  0
  -25.8618  -11.5423   20.2866 N   0  0  0  0  0  0  0  0  0  0  0  0
  -26.2399  -12.8256   20.1594 N   0  0  0  0  0  0  0  0  0  0  0  0
  -24.4008  -20.7347   17.5594 N   0  0  0  0  0  0  0  0  0  0  0  0
  -29.9717  -13.6094   20.3655 N   0  0  0  0  0  0  0  0  0  0  0  0
  -25.4756  -15.0536   20.4098 N   0  0  0  0  0  0  0  0  0  0  0  0
  -21.8887  -12.5815   21.6009 N   0  0  0  0  0  0  0  0  0  0  0  0
  -30.0849  -15.6874   21.4751 N   0  0  0  0  0  0  0  0  0  0  0  0
  -22.9076  -23.9539   17.1885 N   0  0  0  0  0  0  0  0  0  0  0  0
  -24.3683  -17.6355   16.1985 N   0  0  0  0  0  0  0  0  0  0  0  0
  -29.5209  -19.7804   24.0287 N   0  0  3  0  0  0  0  0  0  0  0  0
  -27.5615  -15.9447   16.0859 N   0  3  0  0  0  0  0  0  0  0  0  0
  -22.6662  -14.7208   21.3228 O   0  0  0  0  0  0  0  0  0  0  0  0
  -22.8462  -22.3941   18.9165 O   0  0  0  0  0  0  0  0  0  0  0  0
  -23.5503  -20.2739   15.4379 O   0  0  0  0  0  0  0  0  0  0  0  0
  -25.6629  -16.8499   17.9547 O   0  0  0  0  0  0  0  0  0  0  0  0
  -31.8603  -14.9307   20.1879 O   0  0  0  0  0  0  0  0  0  0  0  0
  -21.6103   -7.0185   21.7038 O   0  0  0  0  0  0  0  0  0  0  0  0
  -27.2070  -21.1047   23.0404 O   0  0  0  0  0  0  0  0  0  1  0  0
  -18.6205   -6.8452   26.3336 F   0  0  0  0  0  0  0  0  0  0  0  0
  -19.6207   -8.8784   22.1777 F   0  0  0  0  0  0  0  0  0  0  0  0
  1  2  1  0  0  0  0
  1  5  2  0  0  0  0
  2  6  2  0  0  0  0
  3  8  2  0  0  0  0
  3 18  1  0  0  0  0
  4  9  1  0  0  0  0
  4 18  2  0  0  0  0
  5 20  1  0  0  0  0
  6 22  1  0  0  0  0
  7 10  2  0  0  0  0
  7 21  1  0  0  0  0
  8 27  1  0  0  0  0
  9 27  2  0  0  0  0
 10 28  1  0  0  0  0
 11 12  2  0  0  0  0
 11 29  1  0  0  0  0
 12 30  1  0  0  0  0
 13 23  1  0  0  0  0
 13 28  2  0  0  0  0
 14 24  1  0  0  0  0
 14 25  2  0  0  0  0
 15 24  2  0  0  0  0
 15 26  1  0  0  0  0
 16 25  1  0  0  0  0
 16 26  2  0  0  0  0
 17 30  2  0  0  0  0
 17 31  1  0  0  0  0
 18 32  1  0  0  0  0
 19 32  1  0  0  0  0
 19 33  2  0  0  0  0
 19 34  1  0  0  0  0
 20 22  2  0  0  0  0
 20 39  1  0  0  0  0
 21 23  2  0  0  0  0
 21 40  1  0  0  0  0
 22 48  1  0  0  0  0
 23 41  1  0  0  0  0
 24 51  1  0  0  0  0
 25 69  1  0  0  0  0
 26 72  1  0  0  0  0
 27 79  1  0  0  0  0
 28 80  1  0  0  0  0
 29 31  2  0  0  0  0
 29 79  1  0  0  0  0
 30 81  1  0  0  0  0
 31 82  1  0  0  0  0
 32 63  2  0  0  0  0
 33 64  1  0  0  0  0
 33 67  1  0  0  0  0
 34 68  1  0  0  0  0
 34 74  2  0  0  0  0
 35 49  1  0  0  0  0
 35 70  1  0  0  0  0
 35 75  2  0  0  0  0
 36 60  1  0  0  0  0
 36 65  1  0  0  0  0
 36 76  2  0  0  0  0
 37 61  1  0  0  0  0
 37 71  1  0  0  0  0
 37 77  2  0  0  0  0
 38 66  1  0  0  0  0
 38 69  1  0  0  0  0
 38 78  2  0  0  0  0
 39 42  1  0  0  0  0
 40 49  1  0  0  0  0
 41 65  1  0  0  0  0
 42 44  1  0  0  0  0
 43 45  1  0  0  0  0
 43 46  1  0  0  0  0
 44 48  1  0  0  0  0
 45 50  1  0  0  0  0
 46 66  1  0  0  0  0
 47 50  1  0  0  0  0
 47 66  1  0  0  0  0
 48 70  1  0  0  0  0
 49 65  1  0  0  0  0
 50 64  1  0  0  0  0
 52 61  1  0  0  0  0
 53 62  1  0  0  0  0
 54 62  1  0  0  0  0
 55 62  1  0  0  0  0
 56 72  1  0  0  0  0
 57 73  1  0  0  0  0
 58 59  1  0  0  0  0
 58 72  1  0  0  0  0
 59 80  1  0  0  0  0
 60 62  1  0  0  0  0
 60 71  1  0  0  0  0
 61 73  1  0  0  0  0
 63 64  1  0  0  0  0
M  CHG  1  73   1
M  ISO  4  38 100  59 101  69 100  80 101
M  END
> <Batch ID>
0022

> <Smiles>
CNC(C)C(=O)NC(C(=O)N1Cc2cc([101O:1][101CH2:1]CN(C)c3cc(C)cc([100NH:0][100C:0](=O)N4CCCC(n5nc(-c6ccc(Oc7ccc(F)cc7F)cc6)c(C(N)=O)c5N)C4)c3)ccc2CC1C(=O)NC1CCCc2ccccc21)C(C)(C)C

> <Shape>
0.176

> <Color>
0.200

> <Negative vol penalty>
0.000

$$$$

  -OEChem-04042321143D

 91101  0     1  0  0  0  0  0999 V2000
  -35.2243   -9.1523   22.3958 C   0  0  0  0  0  0  0  0  0  0  0  0
  -35.3630  -10.5242   22.5806 C   0  0  0  0  0  0  0  0  0  0  0  0
  -24.8601  -28.9865   22.3051 C   0  0  0  0  0  0  0  0  0  0  0  0
  -24.8920  -30.7327   20.6357 C   0  0  0  0  0  0  0  0  0  0  0  0
  -34.2988   -8.6642   21.4743 C   0  0  0  0  0  0  0  0  0  0  0  0
  -34.5770  -11.4089   21.8431 C   0  0  0  0  0  0  0  0  0  0  0  0
  -31.3781  -17.7976   22.3605 C   0  0  0  0  0  0  0  0  0  0  0  0
  -28.1897  -23.8625   22.4091 C   0  0  0  0  0  0  0  0  0  0  0  0
  -29.3416  -24.6394   22.5329 C   0  0  0  0  0  0  0  0  0  0  0  0
  -24.2317  -29.8530   23.1995 C   0  0  0  0  0  0  0  0  0  0  0  0
  -24.2635  -31.5992   21.5300 C   0  0  0  0  0  0  0  0  0  0  0  0
  -31.2887  -19.0150   21.6870 C   0  0  0  0  0  0  0  0  0  0  0  0
  -21.1138  -31.0451   23.7385 C   0  0  0  0  0  0  0  0  0  0  0  0
  -20.0293  -30.5528   24.4644 C   0  0  0  0  0  0  0  0  0  0  0  0
  -29.6671  -18.0557   20.1806 C   0  0  0  0  0  0  0  0  0  0  0  0
  -29.9485  -24.1023   20.2569 C   0  0  0  0  0  0  0  0  0  0  0  0
  -21.2057  -31.0019   26.5264 C   0  0  0  0  0  0  0  0  0  0  0  0
  -25.1903  -29.4264   21.0233 C   0  0  0  0  0  0  0  0  0  0  0  0
  -25.2219  -27.6639   19.1792 C   0  0  0  0  0  0  0  0  0  0  0  0
  -33.4943   -9.5431   20.7321 C   0  0  0  0  0  0  0  0  0  0  0  0
  -30.6195  -16.6951   21.9416 C   0  0  0  0  0  0  0  0  0  0  0  0
  -33.6408  -10.9321   20.9098 C   0  0  0  0  0  0  0  0  0  0  0  0
  -29.7468  -16.8261   20.8520 C   0  0  0  0  0  0  0  0  0  0  0  0
  -27.9173  -23.2055   21.2092 C   0  0  0  0  0  0  0  0  0  0  0  0
  -28.7967  -23.3254   20.1331 C   0  0  0  0  0  0  0  0  0  0  0  0
  -30.2210  -24.7593   21.4568 C   0  0  0  0  0  0  0  0  0  0  0  0
  -23.9333  -31.1593   22.8119 C   0  0  0  0  0  0  0  0  0  0  0  0
  -30.4353  -19.1434   20.5951 C   0  0  0  0  0  0  0  0  0  0  0  0
  -22.2443  -31.5158   24.4064 C   0  0  0  0  0  0  0  0  0  0  0  0
  -20.0753  -30.5311   25.8584 C   0  0  0  0  0  0  0  0  0  0  0  0
  -22.2903  -31.4942   25.8003 C   0  0  0  0  0  0  0  0  0  0  0  0
  -25.8401  -28.5319   20.0992 C   0  0  0  0  0  0  0  0  0  0  0  0
  -26.2659  -27.0378   18.5431 C   0  0  0  0  0  0  0  0  0  0  0  0
  -23.8287  -27.4434   18.9226 C   0  0  0  0  0  0  0  0  0  0  0  0
  -31.3003  -13.7905   20.8444 C   0  0  0  0  0  0  0  0  0  0  0  0
  -28.0884  -13.3853   21.0492 C   0  0  0  0  0  0  0  0  0  0  0  0
  -24.9868  -14.8077   21.1104 C   0  0  0  0  0  0  0  0  0  0  0  0
  -32.0094  -26.2375   20.5041 C   0  0  0  0  0  0  0  0  0  0  0  0
  -32.5412   -8.9699   19.7134 C   0  0  0  0  0  0  0  0  0  0  0  0
  -30.7074  -15.3963   22.6953 C   0  0  0  0  0  0  0  0  0  0  0  0
  -28.8958  -15.6786   20.3751 C   0  0  0  0  0  0  0  0  0  0  0  0
  -31.4825   -9.9639   19.2428 C   0  0  0  0  0  0  0  0  0  0  0  0
  -30.8379  -27.6618   17.2961 C   0  0  0  0  0  0  0  0  0  0  0  0
  -27.4678  -21.9939   16.9427 C   0  0  0  0  0  0  0  0  0  0  0  0
  -26.4922  -19.8985   23.8324 C   0  0  0  0  0  0  0  0  0  0  0  0
  -25.3306  -19.6137   22.9017 C   0  0  0  0  0  0  0  0  0  0  0  0
  -32.1226  -11.3078   18.9099 C   0  0  0  0  0  0  0  0  0  0  0  0
  -29.3928  -28.0492   17.6044 C   0  0  0  0  0  0  0  0  0  0  0  0
  -28.9701  -21.8160   16.7900 C   0  0  0  0  0  0  0  0  0  0  0  0
  -27.3397  -22.9299   18.1403 C   0  0  0  0  0  0  0  0  0  0  0  0
  -31.7168  -27.7155   18.5420 C   0  0  0  0  0  0  0  0  0  0  0  0
  -29.7490  -27.2769   19.9831 C   0  0  0  0  0  0  0  0  0  0  0  0
  -27.3055  -20.9043   23.0464 C   0  0  0  0  0  0  0  0  0  0  0  0
  -24.9680  -20.9760   22.3369 C   0  0  0  0  0  0  0  0  0  0  0  0
  -32.7889  -11.9229   20.1465 C   0  0  1  0  0  0  0  0  0  0  0  0
  -30.2730  -14.1928   21.8645 C   0  0  1  0  0  0  0  0  0  0  0  0
  -28.8345  -27.1916   18.7520 C   0  0  1  0  0  0  0  0  0  0  0  0
  -29.4855  -21.8008   18.2359 C   0  0  2  0  0  0  0  0  0  0  0  0
  -33.0310  -24.2131   22.8616 C   0  0  0  0  0  0  0  0  0  0  0  0
  -22.4913  -14.9431   21.3375 C   0  0  0  0  0  0  0  0  0  0  0  0
  -28.1384  -12.5098   18.1267 C   0  0  0  0  0  0  0  0  0  0  0  0
  -25.6596  -12.8541   18.0536 C   0  0  0  0  0  0  0  0  0  0  0  0
  -26.6360  -11.1542   19.5962 C   0  0  0  0  0  0  0  0  0  0  0  0
  -25.1581  -15.1932   24.0397 C   0  0  0  0  0  0  0  0  0  0  0  0
  -26.6762  -22.3803   21.1042 C   0  0  0  0  0  0  0  0  0  0  0  0
  -29.4521  -20.3914   18.8254 C   0  0  0  0  0  0  0  0  0  1  0  0
  -32.1739  -25.4624   22.8288 C   0  0  0  0  0  0  0  0  0  0  0  0
  -26.9209  -13.6113   20.1192 C   0  0  1  0  0  0  0  0  0  0  0  0
  -23.7990  -14.5948   22.0314 C   0  0  2  0  0  0  0  0  0  0  0  0
  -26.8561  -12.5536   18.9815 C   0  0  0  0  0  0  0  0  0  0  0  0
  -27.1734  -28.4658   20.0547 N   0  0  0  0  0  0  0  0  0  0  0  0
  -27.4016  -27.5487   19.0993 N   0  0  0  0  0  0  0  0  0  0  0  0
  -28.5423  -22.6802   18.9375 N   0  0  3  0  0  0  0  0  0  0  0  0
  -29.0218  -14.4275   21.1409 N   0  0  0  0  0  0  0  0  0  0  0  0
  -31.1424  -26.9436   19.6451 N   0  0  0  0  0  0  0  0  0  0  0  0
  -26.3140  -26.1056   17.5679 N   0  0  0  0  0  0  0  0  0  0  0  0
  -22.8891  -28.1704   19.6662 N   0  0  0  0  0  0  0  0  0  0  0  0
  -31.7935  -12.5113   21.0169 N   0  0  0  0  0  0  0  0  0  0  0  0
  -25.7307  -13.6563   20.9617 N   0  0  0  0  0  0  0  0  0  0  0  0
  -31.4122  -25.5624   21.5858 N   0  0  0  0  0  0  0  0  0  0  0  0
  -26.2521  -21.7821   22.4069 N   0  3  0  0  0  0  0  0  0  0  0  0
  -23.9272  -15.4466   23.2475 N   0  3  0  0  0  0  0  0  0  0  0  0
  -23.4286  -26.6138   18.0709 O   0  0  0  0  0  0  0  0  0  0  0  0
  -31.6205  -14.5816   19.9650 O   0  0  0  0  0  0  0  0  0  0  0  0
  -28.1655  -12.3261   21.6767 O   0  0  0  0  0  0  0  0  0  0  0  0
  -25.2283  -15.8865   20.5734 O   0  0  0  0  0  0  0  0  0  0  0  0
  -33.2370  -26.2525   20.3516 O   0  0  0  0  0  0  0  0  0  0  0  0
  -23.3198  -32.0050   23.6842 O   0  0  0  0  0  0  0  0  0  0  0  0
  -30.3466  -20.3305   19.9355 O   0  0  0  0  0  0  0  0  0  1  0  0
  -19.0331  -30.0597   26.5555 F   0  0  0  0  0  0  0  0  0  0  0  0
  -23.3731  -31.9461   26.4476 F   0  0  0  0  0  0  0  0  0  0  0  0
  1  2  1  0  0  0  0
  1  5  2  0  0  0  0
  2  6  2  0  0  0  0
  3 10  2  0  0  0  0
  3 18  1  0  0  0  0
  4 11  1  0  0  0  0
  4 18  2  0  0  0  0
  5 20  1  0  0  0  0
  6 22  1  0  0  0  0
  7 12  2  0  0  0  0
  7 21  1  0  0  0  0
  8  9  2  0  0  0  0
  8 24  1  0  0  0  0
  9 26  1  0  0  0  0
 10 27  1  0  0  0  0
 11 27  2  0  0  0  0
 12 28  1  0  0  0  0
 13 14  2  0  0  0  0
 13 29  1  0  0  0  0
 14 30  1  0  0  0  0
 15 23  1  0  0  0  0
 15 28  2  0  0  0  0
 16 25  1  0  0  0  0
 16 26  2  0  0  0  0
 17 30  2  0  0  0  0
 17 31  1  0  0  0  0
 18 32  1  0  0  0  0
 19 32  1  0  0  0  0
 19 33  2  0  0  0  0
 19 34  1  0  0  0  0
 20 22  2  0  0  0  0
 20 39  1  0  0  0  0
 21 23  2  0  0  0  0
 21 40  1  0  0  0  0
 22 55  1  0  0  0  0
 23 41  1  0  0  0  0
 24 25  2  0  0  0  0
 24 65  1  0  0  0  0
 25 73  1  0  0  0  0
 26 80  1  0  0  0  0
 27 88  1  0  0  0  0
 28 89  1  0  0  0  0
 29 31  2  0  0  0  0
 29 88  1  0  0  0  0
 30 90  1  0  0  0  0
 31 91  1  0  0  0  0
 32 71  2  0  0  0  0
 33 72  1  0  0  0  0
 33 76  1  0  0  0  0
 34 77  1  0  0  0  0
 34 83  2  0  0  0  0
 35 56  1  0  0  0  0
 35 78  1  0  0  0  0
 35 84  2  0  0  0  0
 36 68  1  0  0  0  0
 36 74  1  0  0  0  0
 36 85  2  0  0  0  0
 37 69  1  0  0  0  0
 37 79  1  0  0  0  0
 37 86  2  0  0  0  0
 38 75  1  0  0  0  0
 38 80  1  0  0  0  0
 38 87  2  0  0  0  0
 39 42  1  0  0  0  0
 40 56  1  0  0  0  0
 41 74  1  0  0  0  0
 42 47  1  0  0  0  0
 43 48  1  0  0  0  0
 43 51  1  0  0  0  0
 44 49  1  0  0  0  0
 44 50  1  0  0  0  0
 45 46  1  0  0  0  0
 45 53  1  0  0  0  0
 46 54  1  0  0  0  0
 47 55  1  0  0  0  0
 48 57  1  0  0  0  0
 49 58  1  0  0  0  0
 50 73  1  0  0  0  0
 51 75  1  0  0  0  0
 52 57  1  0  0  0  0
 52 75  1  0  0  0  0
 53 81  1  0  0  0  0
 54 81  1  0  0  0  0
 55 78  1  0  0  0  0
 56 74  1  0  0  0  0
 57 72  1  0  0  0  0
 58 66  1  0  0  0  0
 58 73  1  0  0  0  0
 59 67  1  0  0  0  0
 60 69  1  0  0  0  0
 61 70  1  0  0  0  0
 62 70  1  0  0  0  0
 63 70  1  0  0  0  0
 64 82  1  0  0  0  0
 65 81  1  0  0  0  0
 66 89  1  0  0  0  0
 67 80  1  0  0  0  0
 68 70  1  0  0  0  0
 68 79  1  0  0  0  0
 69 82  1  0  0  0  0
 71 72  1  0  0  0  0
M  CHG  2  81   1  82   1
M  ISO  4  38 100  66 101  80 100  89 101
M  END
> <Batch ID>
0022

> <Smiles>
CC[100N:0](c1ccc(CN2CCCC2)c(N2CCCC2[101CH2:1][101O:1]c2ccc3c(c2)CN(C(=O)C(NC(=O)C(C)NC)C(C)(C)C)C(C(=O)NC2CCCc4ccccc42)C3)c1)[100C:0](=O)N1CCCC(n2nc(-c3ccc(Oc4ccc(F)cc4F)cc3)c(C(N)=O)c2N)C1

> <Shape>
0.249

> <Color>
0.071

> <Negative vol penalty>
0.000

$$$$

  -OEChem-04042321143D

 86 95  0     1  0  0  0  0  0999 V2000
  -32.1193  -31.7131   17.2703 C   0  0  0  0  0  0  0  0  0  0  0  0
  -31.7709  -30.6143   18.0491 C   0  0  0  0  0  0  0  0  0  0  0  0
  -24.6051   -8.6689   21.5183 C   0  0  0  0  0  0  0  0  0  0  0  0
  -22.7896  -10.2385   21.2400 C   0  0  0  0  0  0  0  0  0  0  0  0
  -31.4579  -32.9279   17.4453 C   0  0  0  0  0  0  0  0  0  0  0  0
  -30.7615  -30.7299   19.0042 C   0  0  0  0  0  0  0  0  0  0  0  0
  -27.5502  -26.8151   18.9208 C   0  0  0  0  0  0  0  0  0  0  0  0
  -23.4557  -19.3485   20.6513 C   0  0  0  0  0  0  0  0  0  0  0  0
  -24.1473  -18.1990   20.2696 C   0  0  0  0  0  0  0  0  0  0  0  0
  -23.8367   -7.9412   22.4269 C   0  0  0  0  0  0  0  0  0  0  0  0
  -22.0211   -9.5107   22.1485 C   0  0  0  0  0  0  0  0  0  0  0  0
  -27.9740  -25.6311   19.5225 C   0  0  0  0  0  0  0  0  0  0  0  0
  -21.3138   -5.6928   22.3162 C   0  0  0  0  0  0  0  0  0  0  0  0
  -21.2942   -4.3045   22.1827 C   0  0  0  0  0  0  0  0  0  0  0  0
  -26.6812  -26.1731   21.4857 C   0  0  0  0  0  0  0  0  0  0  0  0
  -26.1687  -19.0906   21.2475 C   0  0  0  0  0  0  0  0  0  0  0  0
  -22.1998   -4.0775   24.4111 C   0  0  0  0  0  0  0  0  0  0  0  0
  -24.0816   -9.8177   20.9249 C   0  0  0  0  0  0  0  0  0  0  0  0
  -24.9363  -10.3938   18.5914 C   0  0  0  0  0  0  0  0  0  0  0  0
  -30.4333  -33.0559   18.3963 C   0  0  0  0  0  0  0  0  0  0  0  0
  -26.6960  -27.6939   19.6023 C   0  0  0  0  0  0  0  0  0  0  0  0
  -30.0867  -31.9480   19.1930 C   0  0  0  0  0  0  0  0  0  0  0  0
  -26.2460  -27.3665   20.8894 C   0  0  0  0  0  0  0  0  0  0  0  0
  -24.1205  -20.3692   21.3310 C   0  0  0  0  0  0  0  0  0  0  0  0
  -25.5039  -18.0700   20.5678 C   0  0  0  0  0  0  0  0  0  0  0  0
  -25.4770  -20.2402   21.6292 C   0  0  0  0  0  0  0  0  0  0  0  0
  -22.5447   -8.3620   22.7419 C   0  0  0  0  0  0  0  0  0  0  0  0
  -27.5418  -25.3113   20.8063 C   0  0  0  0  0  0  0  0  0  0  0  0
  -21.7764   -6.2735   23.4970 C   0  0  0  0  0  0  0  0  0  0  0  0
  -21.7372   -3.4968   23.2302 C   0  0  0  0  0  0  0  0  0  0  0  0
  -22.2194   -5.4659   24.5445 C   0  0  0  0  0  0  0  0  0  0  0  0
  -24.8751  -10.5702   19.9868 C   0  0  0  0  0  0  0  0  0  0  0  0
  -25.8261  -11.3485   18.1634 C   0  0  0  0  0  0  0  0  0  0  0  0
  -24.2501   -9.4513   17.7568 C   0  0  0  0  0  0  0  0  0  0  0  0
  -26.9127  -30.6994   20.6142 C   0  0  0  0  0  0  0  0  0  0  0  0
  -23.7900  -30.2583   21.3735 C   0  0  0  0  0  0  0  0  0  0  0  0
  -21.2731  -28.0834   22.1364 C   0  0  0  0  0  0  0  0  0  0  0  0
  -27.5528  -16.6142   20.3986 C   0  0  0  0  0  0  0  0  0  0  0  0
  -29.7793  -34.4022   18.5821 C   0  0  0  0  0  0  0  0  0  0  0  0
  -26.2266  -28.9543   18.9289 C   0  0  0  0  0  0  0  0  0  0  0  0
  -25.3123  -28.2662   21.6557 C   0  0  0  0  0  0  0  0  0  0  0  0
  -28.4651  -34.3393   19.3561 C   0  0  0  0  0  0  0  0  0  0  0  0
  -21.6466  -22.9313   22.4392 C   0  0  0  0  0  0  0  0  0  0  0  0
  -22.8727  -23.7815   22.1747 C   0  0  0  0  0  0  0  0  0  0  0  0
  -29.6448  -13.8363   19.6342 C   0  0  0  0  0  0  0  0  0  0  0  0
  -28.6189  -33.4690   20.5994 C   0  0  0  0  0  0  0  0  0  0  0  0
  -28.6640  -12.6686   19.5049 C   0  0  0  0  0  0  0  0  0  0  0  0
  -22.2338  -21.5331   22.5949 C   0  0  0  0  0  0  0  0  0  0  0  0
  -23.7132  -22.8875   21.2702 C   0  0  0  0  0  0  0  0  0  0  0  0
  -29.2267  -14.8088   20.7357 C   0  0  0  0  0  0  0  0  0  0  0  0
  -26.8675  -14.1374   20.5060 C   0  0  0  0  0  0  0  0  0  0  0  0
  -28.9801  -32.0272   20.2222 C   0  0  1  0  0  0  0  0  0  0  0  0
  -25.7670  -30.0233   19.9155 C   0  0  1  0  0  0  0  0  0  0  0  0
  -27.2116  -13.1654   19.3657 C   0  0  2  0  0  0  0  0  0  0  0  0
  -18.8394  -28.0222   22.7452 C   0  0  0  0  0  0  0  0  0  0  0  0
  -24.4762  -31.1818   24.1994 C   0  0  0  0  0  0  0  0  0  0  0  0
  -22.3004  -30.2118   24.9698 C   0  0  0  0  0  0  0  0  0  0  0  0
  -22.3159  -32.0712   23.3069 C   0  0  0  0  0  0  0  0  0  0  0  0
  -20.5940  -26.4886   19.7376 C   0  0  0  0  0  0  0  0  0  0  0  0
  -28.0250  -22.5489   23.1767 C   0  0  0  0  0  0  0  0  0  0  0  0
  -27.5915  -21.3888   22.2887 C   0  0  0  0  0  0  0  0  0  0  0  0
  -27.4727  -23.8917   22.7131 C   0  0  0  0  0  0  0  0  0  1  0  0
  -23.0452  -29.7596   22.5882 C   0  0  1  0  0  0  0  0  0  0  0  0
  -19.8533  -27.9624   21.6132 C   0  0  2  0  0  0  0  0  0  0  0  0
  -23.0536  -30.7899   23.7527 C   0  0  0  0  0  0  0  0  0  0  0  0
  -25.6634  -11.5591   20.4166 N   0  0  0  0  0  0  0  0  0  0  0  0
  -26.2284  -12.0126   19.2847 N   0  0  0  0  0  0  0  0  0  0  0  0
  -23.4031  -21.5208   21.7072 N   0  0  0  0  0  0  0  0  0  0  0  0
  -24.8865  -29.4902   20.9570 N   0  0  0  0  0  0  0  0  0  0  0  0
  -27.8414  -15.2399   20.5361 N   0  0  0  0  0  0  0  0  0  0  0  0
  -26.2960  -11.6763   16.9410 N   0  0  0  0  0  0  0  0  0  0  0  0
  -23.3715   -8.5408   18.3597 N   0  0  0  0  0  0  0  0  0  0  0  0
  -26.2058  -16.9016   20.1807 N   0  0  0  0  0  0  0  0  0  0  0  0
  -26.1561  -21.2426   22.3040 N   0  0  0  0  0  0  0  0  0  0  0  0
  -27.8070  -31.3165   19.7605 N   0  0  0  0  0  0  0  0  0  0  0  0
  -21.7115  -29.3906   22.1264 N   0  0  0  0  0  0  0  0  0  0  0  0
  -19.6756  -26.6709   20.8910 N   0  3  0  0  0  0  0  0  0  0  0  0
  -24.4237   -9.4068   16.5153 O   0  0  0  0  0  0  0  0  0  0  0  0
  -26.9795  -30.6649   21.8373 O   0  0  0  0  0  0  0  0  0  0  0  0
  -23.4084  -31.2873   20.8104 O   0  0  0  0  0  0  0  0  0  0  0  0
  -21.9266  -27.1155   22.5194 O   0  0  0  0  0  0  0  0  0  0  0  0
  -28.4395  -17.4709   20.4416 O   0  0  0  0  0  0  0  0  0  0  0  0
  -21.7945   -7.6519   23.6283 O   0  0  0  0  0  0  0  0  0  0  0  0
  -27.9544  -24.1565   21.3963 O   0  0  0  0  0  0  0  0  0  1  0  0
  -21.7169   -2.1636   23.1025 F   0  0  0  0  0  0  0  0  0  0  0  0
  -22.6639   -6.0179   25.6818 F   0  0  0  0  0  0  0  0  0  0  0  0
  1  2  1  0  0  0  0
  1  5  2  0  0  0  0
  2  6  2  0  0  0  0
  3 10  2  0  0  0  0
  3 18  1  0  0  0  0
  4 11  1  0  0  0  0
  4 18  2  0  0  0  0
  5 20  1  0  0  0  0
  6 22  1  0  0  0  0
  7 12  2  0  0  0  0
  7 21  1  0  0  0  0
  8  9  2  0  0  0  0
  8 24  1  0  0  0  0
  9 25  1  0  0  0  0
 10 27  1  0  0  0  0
 11 27  2  0  0  0  0
 12 28  1  0  0  0  0
 13 14  2  0  0  0  0
 13 29  1  0  0  0  0
 14 30  1  0  0  0  0
 15 23  1  0  0  0  0
 15 28  2  0  0  0  0
 16 25  2  0  0  0  0
 16 26  1  0  0  0  0
 17 30  2  0  0  0  0
 17 31  1  0  0  0  0
 18 32  1  0  0  0  0
 19 32  1  0  0  0  0
 19 33  2  0  0  0  0
 19 34  1  0  0  0  0
 20 22  2  0  0  0  0
 20 39  1  0  0  0  0
 21 23  2  0  0  0  0
 21 40  1  0  0  0  0
 22 52  1  0  0  0  0
 23 41  1  0  0  0  0
 24 26  2  0  0  0  0
 24 68  1  0  0  0  0
 25 73  1  0  0  0  0
 26 74  1  0  0  0  0
 27 83  1  0  0  0  0
 28 84  1  0  0  0  0
 29 31  2  0  0  0  0
 29 83  1  0  0  0  0
 30 85  1  0  0  0  0
 31 86  1  0  0  0  0
 32 66  2  0  0  0  0
 33 67  1  0  0  0  0
 33 71  1  0  0  0  0
 34 72  1  0  0  0  0
 34 78  2  0  0  0  0
 35 53  1  0  0  0  0
 35 75  1  0  0  0  0
 35 79  2  0  0  0  0
 36 63  1  0  0  0  0
 36 69  1  0  0  0  0
 36 80  2  0  0  0  0
 37 64  1  0  0  0  0
 37 76  1  0  0  0  0
 37 81  2  0  0  0  0
 38 70  1  0  0  0  0
 38 73  1  0  0  0  0
 38 82  2  0  0  0  0
 39 42  1  0  0  0  0
 40 53  1  0  0  0  0
 41 69  1  0  0  0  0
 42 46  1  0  0  0  0
 43 44  1  0  0  0  0
 43 48  1  0  0  0  0
 44 49  1  0  0  0  0
 45 47  1  0  0  0  0
 45 50  1  0  0  0  0
 46 52  1  0  0  0  0
 47 54  1  0  0  0  0
 48 68  1  0  0  0  0
 49 68  1  0  0  0  0
 50 70  1  0  0  0  0
 51 54  1  0  0  0  0
 51 70  1  0  0  0  0
 52 75  1  0  0  0  0
 53 69  1  0  0  0  0
 54 67  1  0  0  0  0
 55 64  1  0  0  0  0
 56 65  1  0  0  0  0
 57 65  1  0  0  0  0
 58 65  1  0  0  0  0
 59 77  1  0  0  0  0
 60 61  1  0  0  0  0
 60 62  1  0  0  0  0
 61 74  1  0  0  0  0
 62 84  1  0  0  0  0
 63 65  1  0  0  0  0
 63 76  1  0  0  0  0
 64 77  1  0  0  0  0
 66 67  1  0  0  0  0
M  CHG  1  77   1
M  ISO  4  38 100  62 101  73 100  84 101
M  END
> <Batch ID>
0022

> <Smiles>
CNC(C)C(=O)NC(C(=O)N1Cc2cc([101O:1][101CH2:1]CCNc3cc([100NH:0][100C:0](=O)N4CCCC(n5nc(-c6ccc(Oc7ccc(F)cc7F)cc6)c(C(N)=O)c5N)C4)ccc3N3CCCC3)ccc2CC1C(=O)NC1CCCc2ccccc21)C(C)(C)C

> <Shape>
0.236

> <Color>
0.082

> <Negative vol penalty>
0.000

$$$$

  -OEChem-04042321143D

 86 95  0     1  0  0  0  0  0999 V2000
  -32.2063  -32.8683    9.8813 C   0  0  0  0  0  0  0  0  0  0  0  0
  -32.7159  -32.4101   11.0919 C   0  0  0  0  0  0  0  0  0  0  0  0
  -23.0612   -9.9481   19.9054 C   0  0  0  0  0  0  0  0  0  0  0  0
  -23.8449   -9.8766   22.1897 C   0  0  0  0  0  0  0  0  0  0  0  0
  -30.9201  -32.5039    9.4850 C   0  0  0  0  0  0  0  0  0  0  0  0
  -31.9392  -31.5880   11.9077 C   0  0  0  0  0  0  0  0  0  0  0  0
  -32.5331  -26.1735   16.5603 C   0  0  0  0  0  0  0  0  0  0  0  0
  -22.3080   -8.7954   20.1277 C   0  0  0  0  0  0  0  0  0  0  0  0
  -23.0917   -8.7238   22.4120 C   0  0  0  0  0  0  0  0  0  0  0  0
  -32.1509  -25.8173   17.8528 C   0  0  0  0  0  0  0  0  0  0  0  0
  -19.3669   -7.9840   21.5853 C   0  0  0  0  0  0  0  0  0  0  0  0
  -18.0546   -7.9660   21.1129 C   0  0  0  0  0  0  0  0  0  0  0  0
  -29.9727  -25.1882   17.0289 C   0  0  0  0  0  0  0  0  0  0  0  0
  -29.8349  -19.2300   22.5228 C   0  0  0  0  0  0  0  0  0  0  0  0
  -31.2307  -17.6418   20.7028 C   0  0  0  0  0  0  0  0  0  0  0  0
  -18.5804   -6.0591   19.7255 C   0  0  0  0  0  0  0  0  0  0  0  0
  -23.8297  -10.4887   20.9364 C   0  0  0  0  0  0  0  0  0  0  0  0
  -24.1965  -13.0128   20.8905 C   0  0  0  0  0  0  0  0  0  0  0  0
  -30.1309  -31.6691   10.2918 C   0  0  0  0  0  0  0  0  0  0  0  0
  -31.6328  -26.0498   15.4922 C   0  0  0  0  0  0  0  0  0  0  0  0
  -30.6408  -31.2132   11.5225 C   0  0  0  0  0  0  0  0  0  0  0  0
  -30.3467  -25.5411   15.7233 C   0  0  0  0  0  0  0  0  0  0  0  0
  -30.7387  -19.8153   21.6361 C   0  0  0  0  0  0  0  0  0  0  0  0
  -30.3269  -17.0565   21.5895 C   0  0  0  0  0  0  0  0  0  0  0  0
  -22.3232   -8.1832   21.3810 C   0  0  0  0  0  0  0  0  0  0  0  0
  -30.8695  -25.3273   18.0878 C   0  0  0  0  0  0  0  0  0  0  0  0
  -20.2860   -7.0397   21.1278 C   0  0  0  0  0  0  0  0  0  0  0  0
  -17.6613   -7.0035   20.1830 C   0  0  0  0  0  0  0  0  0  0  0  0
  -19.8927   -6.0772   20.1979 C   0  0  0  0  0  0  0  0  0  0  0  0
  -29.6290  -17.8506   22.4995 C   0  0  0  0  0  0  0  0  0  0  0  0
  -31.4365  -19.0212   20.7261 C   0  0  0  0  0  0  0  0  0  0  0  0
  -24.6084  -11.6792   20.7072 C   0  0  0  0  0  0  0  0  0  0  0  0
  -25.2925  -13.7621   20.5388 C   0  0  0  0  0  0  0  0  0  0  0  0
  -30.6937  -22.1471   20.6414 C   0  0  0  0  0  0  0  0  0  0  0  0
  -22.9359  -13.5282   21.3387 C   0  0  0  0  0  0  0  0  0  0  0  0
  -30.2916  -28.0759   13.4429 C   0  0  0  0  0  0  0  0  0  0  0  0
  -29.1613  -25.3520   12.0919 C   0  0  0  0  0  0  0  0  0  0  0  0
  -28.3310  -22.0626   12.4623 C   0  0  0  0  0  0  0  0  0  0  0  0
  -30.7708  -14.7468   20.6871 C   0  0  0  0  0  0  0  0  0  0  0  0
  -28.7288  -31.3408    9.8435 C   0  0  0  0  0  0  0  0  0  0  0  0
  -32.0694  -26.4132   14.0995 C   0  0  0  0  0  0  0  0  0  0  0  0
  -29.3494  -25.3700   14.6077 C   0  0  0  0  0  0  0  0  0  0  0  0
  -28.1109  -30.1615   10.5905 C   0  0  0  0  0  0  0  0  0  0  0  0
  -29.6068  -12.4186   18.2577 C   0  0  0  0  0  0  0  0  0  0  0  0
  -28.3409  -30.3011   12.0919 C   0  0  0  0  0  0  0  0  0  0  0  0
  -28.1688  -12.1284   18.6935 C   0  0  0  0  0  0  0  0  0  0  0  0
  -31.7997  -23.2738   22.4223 C   0  0  0  0  0  0  0  0  0  0  0  0
  -30.5367  -12.6010   19.4559 C   0  0  0  0  0  0  0  0  0  0  0  0
  -31.3443  -21.9088   22.8983 C   0  0  0  0  0  0  0  0  0  0  0  0
  -28.6519  -13.3016   20.8792 C   0  0  0  0  0  0  0  0  0  0  0  0
  -29.8381  -30.2997   12.4232 C   0  0  1  0  0  0  0  0  0  0  0  0
  -30.9063  -23.5372   21.2188 C   0  0  1  0  0  0  0  0  0  0  0  0
  -30.9012  -26.7298   13.1707 C   0  0  1  0  0  0  0  0  0  0  0  0
  -27.6651  -13.1746   19.7071 C   0  0  2  0  0  0  0  0  0  0  0  0
  -27.3978  -20.1112   11.1901 C   0  0  0  0  0  0  0  0  0  0  0  0
  -26.3668  -26.5603   12.2931 C   0  0  0  0  0  0  0  0  0  0  0  0
  -25.4257  -24.2708   11.9177 C   0  0  0  0  0  0  0  0  0  0  0  0
  -26.8268  -25.3457   10.1559 C   0  0  0  0  0  0  0  0  0  0  0  0
  -30.7915  -20.4700   12.8724 C   0  0  0  0  0  0  0  0  0  0  0  0
  -31.5165  -24.5066   20.2241 C   0  0  0  0  0  0  0  0  0  1  0  0
  -27.9262  -24.5027   12.2707 C   0  0  1  0  0  0  0  0  0  0  0  0
  -28.6598  -20.8402   11.6244 C   0  0  2  0  0  0  0  0  0  0  0  0
  -26.6543  -25.1748   11.6809 C   0  0  0  0  0  0  0  0  0  0  0  0
  -25.8678  -11.5836   20.2727 N   0  0  0  0  0  0  0  0  0  0  0  0
  -26.2567  -12.8667   20.1799 N   0  0  0  0  0  0  0  0  0  0  0  0
  -30.9255  -21.2293   21.6865 N   0  0  0  0  0  0  0  0  0  0  0  0
  -29.8215  -25.7452   13.2647 N   0  0  0  0  0  0  0  0  0  0  0  0
  -29.9976  -13.6098   20.3706 N   0  0  0  0  0  0  0  0  0  0  0  0
  -25.5160  -15.0930   20.5046 N   0  0  0  0  0  0  0  0  0  0  0  0
  -21.9181  -12.6193   21.6586 N   0  0  0  0  0  0  0  0  0  0  0  0
  -30.1416  -15.6526   21.5405 N   0  0  0  0  0  0  0  0  0  0  0  0
  -30.3647  -28.9525   12.3772 N   0  0  0  0  0  0  0  0  0  0  0  0
  -28.2382  -23.2012   11.6900 N   0  0  0  0  0  0  0  0  0  0  0  0
  -29.5065  -19.8918   12.4019 N   0  3  0  0  0  0  0  0  0  0  0  0
  -30.3275  -21.9485   19.4920 O   0  0  0  0  0  0  0  0  0  0  0  0
  -22.7130  -14.7588   21.4364 O   0  0  0  0  0  0  0  0  0  0  0  0
  -29.7906  -28.3019   14.5382 O   0  0  0  0  0  0  0  0  0  0  0  0
  -29.5310  -25.6495   10.9532 O   0  0  0  0  0  0  0  0  0  0  0  0
  -28.1688  -22.0119   13.6795 O   0  0  0  0  0  0  0  0  0  0  0  0
  -31.8967  -14.9185   20.2128 O   0  0  0  0  0  0  0  0  0  0  0  0
  -21.5882   -7.0585   21.5983 O   0  0  0  0  0  0  0  0  0  0  0  0
  -30.4937  -24.9795   19.3486 O   0  0  0  0  0  0  0  0  0  1  0  0
  -16.4007   -6.9853   19.7306 F   0  0  0  0  0  0  0  0  0  0  0  0
  -20.7708   -5.1667   19.7556 F   0  0  0  0  0  0  0  0  0  0  0  0
  -28.5017  -17.1666   23.6162 Cl  0  0  0  0  0  0  0  0  0  0  0  0
  -32.5638  -19.7053   19.6097 Cl  0  0  0  0  0  0  0  0  0  0  0  0
  1  2  1  0  0  0  0
  1  5  2  0  0  0  0
  2  6  2  0  0  0  0
  3  8  2  0  0  0  0
  3 17  1  0  0  0  0
  4  9  1  0  0  0  0
  4 17  2  0  0  0  0
  5 19  1  0  0  0  0
  6 21  1  0  0  0  0
  7 10  2  0  0  0  0
  7 20  1  0  0  0  0
  8 25  1  0  0  0  0
  9 25  2  0  0  0  0
 10 26  1  0  0  0  0
 11 12  2  0  0  0  0
 11 27  1  0  0  0  0
 12 28  1  0  0  0  0
 13 22  1  0  0  0  0
 13 26  2  0  0  0  0
 14 23  1  0  0  0  0
 14 30  2  0  0  0  0
 15 24  2  0  0  0  0
 15 31  1  0  0  0  0
 16 28  2  0  0  0  0
 16 29  1  0  0  0  0
 17 32  1  0  0  0  0
 18 32  1  0  0  0  0
 18 33  2  0  0  0  0
 18 35  1  0  0  0  0
 19 21  2  0  0  0  0
 19 40  1  0  0  0  0
 20 22  2  0  0  0  0
 20 41  1  0  0  0  0
 21 51  1  0  0  0  0
 22 42  1  0  0  0  0
 23 31  2  0  0  0  0
 23 66  1  0  0  0  0
 24 30  1  0  0  0  0
 24 71  1  0  0  0  0
 25 81  1  0  0  0  0
 26 82  1  0  0  0  0
 27 29  2  0  0  0  0
 27 81  1  0  0  0  0
 28 83  1  0  0  0  0
 29 84  1  0  0  0  0
 30 85  1  0  0  0  0
 31 86  1  0  0  0  0
 32 64  2  0  0  0  0
 33 65  1  0  0  0  0
 33 69  1  0  0  0  0
 34 52  1  0  0  0  0
 34 66  1  0  0  0  0
 34 75  2  0  0  0  0
 35 70  1  0  0  0  0
 35 76  2  0  0  0  0
 36 53  1  0  0  0  0
 36 72  1  0  0  0  0
 36 77  2  0  0  0  0
 37 61  1  0  0  0  0
 37 67  1  0  0  0  0
 37 78  2  0  0  0  0
 38 62  1  0  0  0  0
 38 73  1  0  0  0  0
 38 79  2  0  0  0  0
 39 68  1  0  0  0  0
 39 71  1  0  0  0  0
 39 80  2  0  0  0  0
 40 43  1  0  0  0  0
 41 53  1  0  0  0  0
 42 67  1  0  0  0  0
 43 45  1  0  0  0  0
 44 46  1  0  0  0  0
 44 48  1  0  0  0  0
 45 51  1  0  0  0  0
 46 54  1  0  0  0  0
 47 49  1  0  0  0  0
 47 52  1  0  0  0  0
 48 68  1  0  0  0  0
 49 66  1  0  0  0  0
 50 54  1  0  0  0  0
 50 68  1  0  0  0  0
 51 72  1  0  0  0  0
 52 60  1  0  0  0  0
 53 67  1  0  0  0  0
 54 65  1  0  0  0  0
 55 62  1  0  0  0  0
 56 63  1  0  0  0  0
 57 63  1  0  0  0  0
 58 63  1  0  0  0  0
 59 74  1  0  0  0  0
 60 82  1  0  0  0  0
 61 63  1  0  0  0  0
 61 73  1  0  0  0  0
 62 74  1  0  0  0  0
 64 65  1  0  0  0  0
M  CHG  1  74   1
M  ISO  4  39 100  60 101  71 100  82 101
M  END
> <Batch ID>
0022

> <Smiles>
CNC(C)C(=O)NC(C(=O)N1Cc2cc([101O:1][101CH2:1]C3CCN(c4cc(Cl)c([100NH:0][100C:0](=O)N5CCCC(n6nc(-c7ccc(Oc8ccc(F)cc8F)cc7)c(C(N)=O)c6N)C5)cc4Cl)C3=O)ccc2CC1C(=O)NC1CCCc2ccccc21)C(C)(C)C

> <Shape>
0.189

> <Color>
0.213

> <Negative vol penalty>
0.000

$$$$

  -OEChem-04042321143D

 88 97  0     1  0  0  0  0  0999 V2000
  -20.0515  -24.0456   22.4283 C   0  0  0  0  0  0  0  0  0  0  0  0
  -21.0635  -24.5150   21.5971 C   0  0  0  0  0  0  0  0  0  0  0  0
  -26.4045  -17.7628   20.4125 C   0  0  0  0  0  0  0  0  0  0  0  0
  -28.4207  -17.6558   21.7394 C   0  0  0  0  0  0  0  0  0  0  0  0
  -19.1749  -24.9451   23.0338 C   0  0  0  0  0  0  0  0  0  0  0  0
  -21.1989  -25.8841   21.3699 C   0  0  0  0  0  0  0  0  0  0  0  0
  -26.0107  -27.4354   21.6612 C   0  0  0  0  0  0  0  0  0  0  0  0
  -25.3183  -21.3101   15.5574 C   0  0  0  0  0  0  0  0  0  0  0  0
  -26.3248  -20.6364   14.8655 C   0  0  0  0  0  0  0  0  0  0  0  0
  -25.9975  -16.5338   20.9318 C   0  0  0  0  0  0  0  0  0  0  0  0
  -28.0137  -16.4269   22.2588 C   0  0  0  0  0  0  0  0  0  0  0  0
  -26.8298  -27.1794   20.5625 C   0  0  0  0  0  0  0  0  0  0  0  0
  -26.6911  -13.2644   20.4275 C   0  0  0  0  0  0  0  0  0  0  0  0
  -26.1824  -12.3210   19.5350 C   0  0  0  0  0  0  0  0  0  0  0  0
  -26.5295  -29.4537   19.8165 C   0  0  0  0  0  0  0  0  0  0  0  0
  -27.7457  -22.5828   15.0371 C   0  0  0  0  0  0  0  0  0  0  0  0
  -24.0894  -12.3078   20.7417 C   0  0  0  0  0  0  0  0  0  0  0  0
  -27.6161  -18.3237   20.8163 C   0  0  0  0  0  0  0  0  0  0  0  0
  -27.7614  -20.8706   20.8024 C   0  0  0  0  0  0  0  0  0  0  0  0
  -19.3056  -26.3266   22.8216 C   0  0  0  0  0  0  0  0  0  0  0  0
  -25.4351  -28.7015   21.8403 C   0  0  0  0  0  0  0  0  0  0  0  0
  -20.3224  -26.8028   21.9721 C   0  0  0  0  0  0  0  0  0  0  0  0
  -25.7056  -29.7239   20.9197 C   0  0  0  0  0  0  0  0  0  0  0  0
  -25.5255  -22.6203   15.9891 C   0  0  0  0  0  0  0  0  0  0  0  0
  -27.5385  -21.2727   14.6054 C   0  0  0  0  0  0  0  0  0  0  0  0
  -26.7392  -23.2566   15.7290 C   0  0  0  0  0  0  0  0  0  0  0  0
  -26.8021  -15.8659   21.8550 C   0  0  0  0  0  0  0  0  0  0  0  0
  -27.0870  -28.1878   19.6383 C   0  0  0  0  0  0  0  0  0  0  0  0
  -25.8990  -13.7296   21.4773 C   0  0  0  0  0  0  0  0  0  0  0  0
  -24.8816  -11.8427   19.6920 C   0  0  0  0  0  0  0  0  0  0  0  0
  -24.5981  -13.2513   21.6343 C   0  0  0  0  0  0  0  0  0  0  0  0
  -28.0374  -19.5929   20.2797 C   0  0  0  0  0  0  0  0  0  0  0  0
  -28.3795  -21.7374   19.9347 C   0  0  0  0  0  0  0  0  0  0  0  0
  -27.0133  -21.2407   21.9682 C   0  0  0  0  0  0  0  0  0  0  0  0
  -22.4609  -29.8161   21.9646 C   0  0  0  0  0  0  0  0  0  0  0  0
  -23.9487  -32.5923   22.7402 C   0  0  0  0  0  0  0  0  0  0  0  0
  -26.7784  -34.4958   22.6154 C   0  0  0  0  0  0  0  0  0  0  0  0
  -29.9512  -20.8213   14.0896 C   0  0  0  0  0  0  0  0  0  0  0  0
  -18.3050  -27.2569   23.4602 C   0  0  0  0  0  0  0  0  0  0  0  0
  -24.5753  -28.9691   23.0452 C   0  0  0  0  0  0  0  0  0  0  0  0
  -25.1283  -31.1061   21.0774 C   0  0  0  0  0  0  0  0  0  0  0  0
  -18.7486  -28.7176   23.4659 C   0  0  0  0  0  0  0  0  0  0  0  0
  -22.9274  -23.8444   18.3690 C   0  0  0  0  0  0  0  0  0  0  0  0
  -22.7845  -24.8275   17.2249 C   0  0  0  0  0  0  0  0  0  0  0  0
  -32.0477  -22.0395   16.8850 C   0  0  0  0  0  0  0  0  0  0  0  0
  -19.2865  -29.1174   22.0956 C   0  0  0  0  0  0  0  0  0  0  0  0
  -31.2698  -21.5813   18.1172 C   0  0  0  0  0  0  0  0  0  0  0  0
  -24.3195  -23.2655   18.1434 C   0  0  0  0  0  0  0  0  0  0  0  0
  -23.4408  -24.0898   16.0634 C   0  0  0  0  0  0  0  0  0  0  0  0
  -31.8127  -21.1181   15.6919 C   0  0  0  0  0  0  0  0  0  0  0  0
  -29.5885  -20.4855   16.5830 C   0  0  0  0  0  0  0  0  0  0  0  0
  -20.5169  -28.2824   21.7208 C   0  0  1  0  0  0  0  0  0  0  0  0
  -23.6268  -30.1482   22.8523 C   0  0  1  0  0  0  0  0  0  0  0  0
  -29.7767  -21.4203   17.7871 C   0  0  1  0  0  0  0  0  0  0  0  0
  -27.9498  -20.6281   11.5097 C   0  0  0  0  0  0  0  0  0  0  0  0
  -27.6783  -36.7349   23.3041 C   0  0  0  0  0  0  0  0  0  0  0  0
  -22.4031  -33.9109   20.4638 C   0  0  0  0  0  0  0  0  0  0  0  0
  -24.0045  -35.8317   20.5821 C   0  0  0  0  0  0  0  0  0  0  0  0
  -22.5674  -35.2854   22.5466 C   0  0  0  0  0  0  0  0  0  0  0  0
  -28.8649  -33.2641   24.3149 C   0  0  0  0  0  0  0  0  0  0  0  0
  -28.1467  -26.6559   16.5545 C   0  0  0  0  0  0  0  0  0  0  0  0
  -28.1939  -19.7695   12.7342 C   0  0  0  0  0  0  0  0  0  0  0  0
  -28.1959  -25.2739   15.9141 C   0  0  0  0  0  0  0  0  0  0  0  0
  -27.8973  -26.6068   18.0573 C   0  0  0  0  0  0  0  0  0  1  0  0
  -24.4999  -33.7632   21.9630 C   0  0  1  0  0  0  0  0  0  0  0  0
  -27.5181  -35.2726   23.6897 C   0  0  2  0  0  0  0  0  0  0  0  0
  -23.3782  -34.6713   21.3846 C   0  0  0  0  0  0  0  0  0  0  0  0
  -28.7733  -19.6394   19.1661 N   0  0  0  0  0  0  0  0  0  0  0  0
  -28.9650  -20.9567   18.9819 N   0  0  0  0  0  0  0  0  0  0  0  0
  -24.4964  -23.2816   16.6861 N   0  0  0  0  0  0  0  0  0  0  0  0
  -24.2888  -31.3165   22.2684 N   0  0  0  0  0  0  0  0  0  0  0  0
  -30.3859  -20.9263   15.4269 N   0  0  0  0  0  0  0  0  0  0  0  0
  -28.4737  -23.0837   19.9013 N   0  0  0  0  0  0  0  0  0  0  0  0
  -26.4452  -20.2242   22.7482 N   0  0  0  0  0  0  0  0  0  0  0  0
  -26.9653  -24.5579   16.1495 N   0  0  0  0  0  0  0  0  0  0  0  0
  -21.6878  -28.7655   22.4208 N   0  0  0  0  0  0  0  0  0  0  0  0
  -25.4222  -34.4508   22.8601 N   0  0  0  0  0  0  0  0  0  0  0  0
  -28.5794  -20.5750   13.8908 N   0  0  0  0  0  0  0  0  0  0  0  0
  -28.8736  -34.6928   23.9076 N   0  3  0  0  0  0  0  0  0  0  0  0
  -26.8395  -22.4382   22.2991 O   0  0  0  0  0  0  0  0  0  0  0  0
  -22.2755  -30.4659   20.9423 O   0  0  0  0  0  0  0  0  0  0  0  0
  -23.2482  -32.8018   23.7337 O   0  0  0  0  0  0  0  0  0  0  0  0
  -27.3464  -33.9837   21.6534 O   0  0  0  0  0  0  0  0  0  0  0  0
  -30.7395  -20.8865   13.1383 O   0  0  0  0  0  0  0  0  0  0  0  0
  -26.4051  -14.6668   22.3621 O   0  0  0  0  0  0  0  0  0  0  0  0
  -27.8857  -27.9405   18.5646 O   0  0  0  0  0  0  0  0  0  1  0  0
  -24.3927  -10.9378   18.8338 F   0  0  0  0  0  0  0  0  0  0  0  0
  -23.8319  -13.6952   22.6401 F   0  0  0  0  0  0  0  0  0  0  0  0
  1  2  1  0  0  0  0
  1  5  2  0  0  0  0
  2  6  2  0  0  0  0
  3 10  2  0  0  0  0
  3 18  1  0  0  0  0
  4 11  1  0  0  0  0
  4 18  2  0  0  0  0
  5 20  1  0  0  0  0
  6 22  1  0  0  0  0
  7 12  2  0  0  0  0
  7 21  1  0  0  0  0
  8  9  2  0  0  0  0
  8 24  1  0  0  0  0
  9 25  1  0  0  0  0
 10 27  1  0  0  0  0
 11 27  2  0  0  0  0
 12 28  1  0  0  0  0
 13 14  2  0  0  0  0
 13 29  1  0  0  0  0
 14 30  1  0  0  0  0
 15 23  1  0  0  0  0
 15 28  2  0  0  0  0
 16 25  2  0  0  0  0
 16 26  1  0  0  0  0
 17 30  2  0  0  0  0
 17 31  1  0  0  0  0
 18 32  1  0  0  0  0
 19 32  1  0  0  0  0
 19 33  2  0  0  0  0
 19 34  1  0  0  0  0
 20 22  2  0  0  0  0
 20 39  1  0  0  0  0
 21 23  2  0  0  0  0
 21 40  1  0  0  0  0
 22 52  1  0  0  0  0
 23 41  1  0  0  0  0
 24 26  2  0  0  0  0
 24 70  1  0  0  0  0
 25 78  1  0  0  0  0
 26 75  1  0  0  0  0
 27 85  1  0  0  0  0
 28 86  1  0  0  0  0
 29 31  2  0  0  0  0
 29 85  1  0  0  0  0
 30 87  1  0  0  0  0
 31 88  1  0  0  0  0
 32 68  2  0  0  0  0
 33 69  1  0  0  0  0
 33 73  1  0  0  0  0
 34 74  1  0  0  0  0
 34 80  2  0  0  0  0
 35 53  1  0  0  0  0
 35 76  1  0  0  0  0
 35 81  2  0  0  0  0
 36 65  1  0  0  0  0
 36 71  1  0  0  0  0
 36 82  2  0  0  0  0
 37 66  1  0  0  0  0
 37 77  1  0  0  0  0
 37 83  2  0  0  0  0
 38 72  1  0  0  0  0
 38 78  1  0  0  0  0
 38 84  2  0  0  0  0
 39 42  1  0  0  0  0
 40 53  1  0  0  0  0
 41 71  1  0  0  0  0
 42 46  1  0  0  0  0
 43 44  1  0  0  0  0
 43 48  1  0  0  0  0
 44 49  1  0  0  0  0
 45 47  1  0  0  0  0
 45 50  1  0  0  0  0
 46 52  1  0  0  0  0
 47 54  1  0  0  0  0
 48 70  1  0  0  0  0
 49 70  1  0  0  0  0
 50 72  1  0  0  0  0
 51 54  1  0  0  0  0
 51 72  1  0  0  0  0
 52 76  1  0  0  0  0
 53 71  1  0  0  0  0
 54 69  1  0  0  0  0
 55 62  1  0  0  0  0
 56 66  1  0  0  0  0
 57 67  1  0  0  0  0
 58 67  1  0  0  0  0
 59 67  1  0  0  0  0
 60 79  1  0  0  0  0
 61 63  1  0  0  0  0
 61 64  1  0  0  0  0
 62 78  1  0  0  0  0
 63 75  1  0  0  0  0
 64 86  1  0  0  0  0
 65 67  1  0  0  0  0
 65 77  1  0  0  0  0
 66 79  1  0  0  0  0
 68 69  1  0  0  0  0
M  CHG  1  79   1
M  ISO  4  38 100  64 101  78 100  86 101
M  END
> <Batch ID>
0022

> <Smiles>
CC[100N:0](c1ccc(N2CCCC2)c(NCC[101CH2:1][101O:1]c2ccc3c(c2)CN(C(=O)C(NC(=O)C(C)NC)C(C)(C)C)C(C(=O)NC2CCCc4ccccc42)C3)c1)[100C:0](=O)N1CCCC(n2nc(-c3ccc(Oc4ccc(F)cc4F)cc3)c(C(N)=O)c2N)C1

> <Shape>
0.220

> <Color>
0.098

> <Negative vol penalty>
0.000

$$$$

  -OEChem-04042321143D

 84 92  0     1  0  0  0  0  0999 V2000
  -25.4042  -17.1516   28.4972 C   0  0  0  0  0  0  0  0  0  0  0  0
  -26.7662  -17.1680   28.2143 C   0  0  0  0  0  0  0  0  0  0  0  0
  -23.0737   -9.8695   19.9419 C   0  0  0  0  0  0  0  0  0  0  0  0
  -23.8314   -9.8783   22.2360 C   0  0  0  0  0  0  0  0  0  0  0  0
  -24.5635  -18.1068   27.9274 C   0  0  0  0  0  0  0  0  0  0  0  0
  -27.2882  -18.1390   27.3604 C   0  0  0  0  0  0  0  0  0  0  0  0
  -32.7836  -20.8140   27.7495 C   0  0  0  0  0  0  0  0  0  0  0  0
  -31.9145  -18.3326   24.1860 C   0  0  0  0  0  0  0  0  0  0  0  0
  -22.3287   -8.7172   20.1924 C   0  0  0  0  0  0  0  0  0  0  0  0
  -23.0864   -8.7260   22.4866 C   0  0  0  0  0  0  0  0  0  0  0  0
  -33.9912  -20.5757   27.0948 C   0  0  0  0  0  0  0  0  0  0  0  0
  -19.9413   -5.9788   20.3215 C   0  0  0  0  0  0  0  0  0  0  0  0
  -18.6360   -5.9313   19.8320 C   0  0  0  0  0  0  0  0  0  0  0  0
  -30.5263  -18.3408   24.0505 C   0  0  0  0  0  0  0  0  0  0  0  0
  -33.4625  -22.3083   25.5018 C   0  0  0  0  0  0  0  0  0  0  0  0
  -32.0662  -16.5817   22.5282 C   0  0  0  0  0  0  0  0  0  0  0  0
  -18.0711   -7.8761   21.1496 C   0  0  0  0  0  0  0  0  0  0  0  0
  -23.8251  -10.4501   20.9637 C   0  0  0  0  0  0  0  0  0  0  0  0
  -24.1690  -12.9748   20.8413 C   0  0  0  0  0  0  0  0  0  0  0  0
  -25.0769  -19.0959   27.0738 C   0  0  0  0  0  0  0  0  0  0  0  0
  -31.8999  -21.7954   27.2780 C   0  0  0  0  0  0  0  0  0  0  0  0
  -26.4533  -19.1076   26.7776 C   0  0  0  0  0  0  0  0  0  0  0  0
  -32.2454  -22.5588   26.1538 C   0  0  0  0  0  0  0  0  0  0  0  0
  -32.6845  -17.4531   23.4248 C   0  0  0  0  0  0  0  0  0  0  0  0
  -30.6779  -16.5898   22.3927 C   0  0  0  0  0  0  0  0  0  0  0  0
  -22.3350   -8.1455   21.4647 C   0  0  0  0  0  0  0  0  0  0  0  0
  -34.3295  -21.3209   25.9691 C   0  0  0  0  0  0  0  0  0  0  0  0
  -20.3115   -6.9749   21.2251 C   0  0  0  0  0  0  0  0  0  0  0  0
  -17.7010   -6.8799   20.2460 C   0  0  0  0  0  0  0  0  0  0  0  0
  -19.3764   -7.9235   21.6391 C   0  0  0  0  0  0  0  0  0  0  0  0
  -29.9080  -17.4694   23.1538 C   0  0  0  0  0  0  0  0  0  0  0  0
  -24.5954  -11.6400   20.7054 C   0  0  0  0  0  0  0  0  0  0  0  0
  -25.2621  -13.7230   20.4783 C   0  0  0  0  0  0  0  0  0  0  0  0
  -22.8986  -13.4921   21.2585 C   0  0  0  0  0  0  0  0  0  0  0  0
  -28.9246  -21.7841   26.1594 C   0  0  0  0  0  0  0  0  0  0  0  0
  -29.3058  -25.0049   26.2160 C   0  0  0  0  0  0  0  0  0  0  0  0
  -31.4349  -27.6716   26.1671 C   0  0  0  0  0  0  0  0  0  0  0  0
  -30.7290  -14.7646   20.6571 C   0  0  0  0  0  0  0  0  0  0  0  0
  -24.1217  -20.0786   26.4442 C   0  0  0  0  0  0  0  0  0  0  0  0
  -30.6132  -22.0585   28.0112 C   0  0  0  0  0  0  0  0  0  0  0  0
  -31.3408  -23.6380   25.6194 C   0  0  0  0  0  0  0  0  0  0  0  0
  -24.8123  -21.3017   25.8464 C   0  0  0  0  0  0  0  0  0  0  0  0
  -29.6149  -12.3491   18.2903 C   0  0  0  0  0  0  0  0  0  0  0  0
  -26.0179  -20.8797   25.0125 C   0  0  0  0  0  0  0  0  0  0  0  0
  -28.1747  -12.0591   18.7189 C   0  0  0  0  0  0  0  0  0  0  0  0
  -30.5291  -12.5785   19.4926 C   0  0  0  0  0  0  0  0  0  0  0  0
  -28.6214  -13.3059   20.8713 C   0  0  0  0  0  0  0  0  0  0  0  0
  -27.0610  -20.1600   25.8758 C   0  0  1  0  0  0  0  0  0  0  0  0
  -29.5560  -22.7307   27.1406 C   0  0  1  0  0  0  0  0  0  0  0  0
  -27.6495  -13.1321   19.6927 C   0  0  2  0  0  0  0  0  0  0  0  0
  -31.4499  -30.1810   26.1868 C   0  0  0  0  0  0  0  0  0  0  0  0
  -28.4644  -25.0305   23.2832 C   0  0  0  0  0  0  0  0  0  0  0  0
  -29.3978  -27.3470   23.1079 C   0  0  0  0  0  0  0  0  0  0  0  0
  -27.5018  -26.8825   24.6609 C   0  0  0  0  0  0  0  0  0  0  0  0
  -32.9571  -27.7582   28.7037 C   0  0  0  0  0  0  0  0  0  0  0  0
  -34.8583  -18.4704   21.4059 C   0  0  0  0  0  0  0  0  0  0  0  0
  -34.1777  -17.4449   23.5706 C   0  0  0  0  0  0  0  0  0  0  0  0
  -36.5394  -20.3822   23.2815 C   0  0  0  0  0  0  0  0  0  0  0  0
  -36.1854  -18.9142   23.4659 C   0  0  0  0  0  0  0  0  0  0  0  0
  -35.5417  -21.3387   23.9230 C   0  0  0  0  0  0  0  0  0  1  0  0
  -29.8136  -26.0387   25.2401 C   0  0  1  0  0  0  0  0  0  0  0  0
  -31.5088  -28.9175   27.0312 C   0  0  2  0  0  0  0  0  0  0  0  0
  -28.8108  -26.3031   24.0817 C   0  0  0  0  0  0  0  0  0  0  0  0
  -25.8606  -11.5428   20.2885 N   0  0  0  0  0  0  0  0  0  0  0  0
  -26.2386  -12.8259   20.1591 N   0  0  0  0  0  0  0  0  0  0  0  0
  -30.0910  -23.8532   26.3673 N   0  0  0  0  0  0  0  0  0  0  0  0
  -29.9701  -13.6107   20.3684 N   0  0  0  0  0  0  0  0  0  0  0  0
  -25.4736  -15.0543   20.4040 N   0  0  0  0  0  0  0  0  0  0  0  0
  -21.8856  -12.5840   21.5957 N   0  0  0  0  0  0  0  0  0  0  0  0
  -30.0815  -15.6910   21.4739 N   0  0  0  0  0  0  0  0  0  0  0  0
  -27.8203  -21.1159   26.6530 N   0  0  0  0  0  0  0  0  0  0  0  0
  -30.1389  -27.2210   26.0304 N   0  0  0  0  0  0  0  0  0  0  0  0
  -32.7786  -28.9324   27.8112 N   0  3  0  0  0  0  0  0  0  0  0  0
  -34.8434  -18.6269   22.9076 N   0  3  1  0  0  0  0  0  0  0  0  0
  -22.6632  -14.7229   21.3142 O   0  0  0  0  0  0  0  0  0  0  0  0
  -29.4029  -21.6695   25.0370 O   0  0  0  0  0  0  0  0  0  0  0  0
  -28.2550  -25.2148   26.8271 O   0  0  0  0  0  0  0  0  0  0  0  0
  -32.4271  -27.1524   25.6607 O   0  0  0  0  0  0  0  0  0  0  0  0
  -31.8586  -14.9319   20.1904 O   0  0  0  0  0  0  0  0  0  0  0  0
  -21.6079   -7.0212   21.7096 O   0  0  0  0  0  0  0  0  0  0  0  0
  -35.5074  -21.0900   25.3278 O   0  0  0  0  0  0  0  0  0  1  0  0
  -16.4480   -6.8351   19.7747 F   0  0  0  0  0  0  0  0  0  0  0  0
  -19.7265   -8.8835   22.5061 F   0  0  0  0  0  0  0  0  0  0  0  0
  -28.1863  -17.5127   23.0180 Cl  0  0  0  0  0  0  0  0  0  0  0  0
  1  2  1  0  0  0  0
  1  5  2  0  0  0  0
  2  6  2  0  0  0  0
  3  9  2  0  0  0  0
  3 18  1  0  0  0  0
  4 10  1  0  0  0  0
  4 18  2  0  0  0  0
  5 20  1  0  0  0  0
  6 22  1  0  0  0  0
  7 11  2  0  0  0  0
  7 21  1  0  0  0  0
  8 14  2  0  0  0  0
  8 24  1  0  0  0  0
  9 26  1  0  0  0  0
 10 26  2  0  0  0  0
 11 27  1  0  0  0  0
 12 13  2  0  0  0  0
 12 28  1  0  0  0  0
 13 29  1  0  0  0  0
 14 31  1  0  0  0  0
 15 23  1  0  0  0  0
 15 27  2  0  0  0  0
 16 24  2  0  0  0  0
 16 25  1  0  0  0  0
 17 29  2  0  0  0  0
 17 30  1  0  0  0  0
 18 32  1  0  0  0  0
 19 32  1  0  0  0  0
 19 33  2  0  0  0  0
 19 34  1  0  0  0  0
 20 22  2  0  0  0  0
 20 39  1  0  0  0  0
 21 23  2  0  0  0  0
 21 40  1  0  0  0  0
 22 48  1  0  0  0  0
 23 41  1  0  0  0  0
 24 57  1  0  0  0  0
 25 31  2  0  0  0  0
 25 70  1  0  0  0  0
 26 80  1  0  0  0  0
 27 81  1  0  0  0  0
 28 30  2  0  0  0  0
 28 80  1  0  0  0  0
 29 82  1  0  0  0  0
 30 83  1  0  0  0  0
 31 84  1  0  0  0  0
 32 64  2  0  0  0  0
 33 65  1  0  0  0  0
 33 68  1  0  0  0  0
 34 69  1  0  0  0  0
 34 75  2  0  0  0  0
 35 49  1  0  0  0  0
 35 71  1  0  0  0  0
 35 76  2  0  0  0  0
 36 61  1  0  0  0  0
 36 66  1  0  0  0  0
 36 77  2  0  0  0  0
 37 62  1  0  0  0  0
 37 72  1  0  0  0  0
 37 78  2  0  0  0  0
 38 67  1  0  0  0  0
 38 70  1  0  0  0  0
 38 79  2  0  0  0  0
 39 42  1  0  0  0  0
 40 49  1  0  0  0  0
 41 66  1  0  0  0  0
 42 44  1  0  0  0  0
 43 45  1  0  0  0  0
 43 46  1  0  0  0  0
 44 48  1  0  0  0  0
 45 50  1  0  0  0  0
 46 67  1  0  0  0  0
 47 50  1  0  0  0  0
 47 67  1  0  0  0  0
 48 71  1  0  0  0  0
 49 66  1  0  0  0  0
 50 65  1  0  0  0  0
 51 62  1  0  0  0  0
 52 63  1  0  0  0  0
 53 63  1  0  0  0  0
 54 63  1  0  0  0  0
 55 73  1  0  0  0  0
 56 74  1  0  0  0  0
 57 74  1  0  0  0  0
 58 59  1  0  0  0  0
 58 60  1  0  0  0  0
 59 74  1  0  0  0  0
 60 81  1  0  0  0  0
 61 63  1  0  0  0  0
 61 72  1  0  0  0  0
 62 73  1  0  0  0  0
 64 65  1  0  0  0  0
M  CHG  2  73   1  74   1
M  ISO  4  38 100  60 101  70 100  81 101
M  END
> <Batch ID>
0022

> <Smiles>
CNC(C)C(=O)NC(C(=O)N1Cc2cc([101O:1][101CH2:1]CCN(C)Cc3ccc(Cl)c([100NH:0][100C:0](=O)N4CCCC(n5nc(-c6ccc(Oc7ccc(F)cc7F)cc6)c(C(N)=O)c5N)C4)c3)ccc2CC1C(=O)NC1CCCc2ccccc21)C(C)(C)C

> <Shape>
0.149

> <Color>
0.191

> <Negative vol penalty>
0.000

$$$$

  -OEChem-04042321143D

 85 94  0     1  0  0  0  0  0999 V2000
  -16.4928  -29.4644   23.7934 C   0  0  0  0  0  0  0  0  0  0  0  0
  -17.5107  -30.3759   24.0502 C   0  0  0  0  0  0  0  0  0  0  0  0
  -31.9589  -21.5506   21.6497 C   0  0  0  0  0  0  0  0  0  0  0  0
  -31.5582  -20.2623   23.6539 C   0  0  0  0  0  0  0  0  0  0  0  0
  -16.7978  -28.2217   23.2421 C   0  0  0  0  0  0  0  0  0  0  0  0
  -18.8325  -30.0497   23.7448 C   0  0  0  0  0  0  0  0  0  0  0  0
  -26.7074  -31.0055   23.2008 C   0  0  0  0  0  0  0  0  0  0  0  0
  -28.8379  -25.4931   20.9699 C   0  0  0  0  0  0  0  0  0  0  0  0
  -27.7136  -25.1182   20.2345 C   0  0  0  0  0  0  0  0  0  0  0  0
  -33.1447  -22.0374   22.1996 C   0  0  0  0  0  0  0  0  0  0  0  0
  -32.7440  -20.7491   24.2038 C   0  0  0  0  0  0  0  0  0  0  0  0
  -27.9056  -30.3073   23.0581 C   0  0  0  0  0  0  0  0  0  0  0  0
  -36.3086  -20.9399   22.6668 C   0  0  0  0  0  0  0  0  0  0  0  0
  -37.4414  -20.9568   21.8532 C   0  0  0  0  0  0  0  0  0  0  0  0
  -27.0573  -29.2739   21.0502 C   0  0  0  0  0  0  0  0  0  0  0  0
  -26.4534  -24.8808   22.2821 C   0  0  0  0  0  0  0  0  0  0  0  0
  -37.5950  -23.3535   22.1169 C   0  0  0  0  0  0  0  0  0  0  0  0
  -31.1655  -20.6631   22.3768 C   0  0  0  0  0  0  0  0  0  0  0  0
  -29.7777  -18.9989   21.0307 C   0  0  0  0  0  0  0  0  0  0  0  0
  -18.1257  -27.8762   22.9417 C   0  0  0  0  0  0  0  0  0  0  0  0
  -25.6692  -30.8346   22.2738 C   0  0  0  0  0  0  0  0  0  0  0  0
  -19.1579  -28.8098   23.1658 C   0  0  0  0  0  0  0  0  0  0  0  0
  -25.8478  -29.9730   21.1820 C   0  0  0  0  0  0  0  0  0  0  0  0
  -27.5777  -25.2557   23.0175 C   0  0  0  0  0  0  0  0  0  0  0  0
  -28.7700  -25.5619   22.3615 C   0  0  0  0  0  0  0  0  0  0  0  0
  -26.5213  -24.8120   20.8905 C   0  0  0  0  0  0  0  0  0  0  0  0
  -33.5373  -21.6366   23.4767 C   0  0  0  0  0  0  0  0  0  0  0  0
  -28.0797  -29.4391   21.9842 C   0  0  0  0  0  0  0  0  0  0  0  0
  -35.8188  -22.1298   23.2054 C   0  0  0  0  0  0  0  0  0  0  0  0
  -38.0846  -22.1636   21.5783 C   0  0  0  0  0  0  0  0  0  0  0  0
  -36.4620  -23.3366   22.9305 C   0  0  0  0  0  0  0  0  0  0  0  0
  -29.9402  -20.1603   21.8095 C   0  0  0  0  0  0  0  0  0  0  0  0
  -28.4355  -18.9646   20.7413 C   0  0  0  0  0  0  0  0  0  0  0  0
  -30.7528  -18.0371   20.6068 C   0  0  0  0  0  0  0  0  0  0  0  0
  -22.6795  -29.7659   22.4259 C   0  0  0  0  0  0  0  0  0  0  0  0
  -22.5884  -30.7351   19.3316 C   0  0  0  0  0  0  0  0  0  0  0  0
  -24.7753  -30.6020   16.4650 C   0  0  0  0  0  0  0  0  0  0  0  0
  -24.3898  -23.5469   20.6642 C   0  0  0  0  0  0  0  0  0  0  0  0
  -18.3985  -26.5206   22.3390 C   0  0  0  0  0  0  0  0  0  0  0  0
  -24.3928  -31.6154   22.4272 C   0  0  0  0  0  0  0  0  0  0  0  0
  -24.7717  -29.7697   20.1480 C   0  0  0  0  0  0  0  0  0  0  0  0
  -19.8587  -26.0978   22.4629 C   0  0  0  0  0  0  0  0  0  0  0  0
  -24.1878  -20.3273   22.4541 C   0  0  0  0  0  0  0  0  0  0  0  0
  -31.9580  -25.5122   24.1093 C   0  0  0  0  0  0  0  0  0  0  0  0
  -20.7673  -27.2214   21.9869 C   0  0  0  0  0  0  0  0  0  0  0  0
  -25.6418  -19.8587   22.4770 C   0  0  0  0  0  0  0  0  0  0  0  0
  -31.8584  -27.0042   23.8456 C   0  0  0  0  0  0  0  0  0  0  0  0
  -30.5052  -25.0547   24.0684 C   0  0  0  0  0  0  0  0  0  0  0  0
  -24.0830  -21.8494   22.4422 C   0  0  0  0  0  0  0  0  0  0  0  0
  -26.3027  -22.0266   21.3597 C   0  0  0  0  0  0  0  0  0  0  0  0
  -20.6065  -28.4651   22.8702 C   0  0  1  0  0  0  0  0  0  0  0  0
  -23.2101  -30.9743   21.7077 C   0  0  1  0  0  0  0  0  0  0  0  0
  -26.4422  -20.4971   21.3286 C   0  0  1  0  0  0  0  0  0  0  0  0
  -30.7182  -27.1232   22.8194 C   0  0  2  0  0  0  0  0  0  0  0  0
  -27.4779  -25.3199   24.5069 C   0  0  0  0  0  0  0  0  0  0  0  0
  -24.9343  -32.1068   14.4630 C   0  0  0  0  0  0  0  0  0  0  0  0
  -20.7107  -28.7153   18.0260 C   0  0  0  0  0  0  0  0  0  0  0  0
  -21.9879  -29.0115   15.8931 C   0  0  0  0  0  0  0  0  0  0  0  0
  -20.7841  -30.9488   16.9032 C   0  0  0  0  0  0  0  0  0  0  0  0
  -25.0642  -25.1431   18.8846 C   0  0  0  0  0  0  0  0  0  0  0  0
  -27.6544  -31.1068   16.9282 C   0  0  0  0  0  0  0  0  0  0  0  0
  -29.9564  -28.4265   23.0371 C   0  0  0  0  0  0  0  0  0  1  0  0
  -22.8946  -30.0922   18.0004 C   0  0  1  0  0  0  0  0  0  0  0  0
  -25.5113  -31.7672   15.8286 C   0  0  2  0  0  0  0  0  0  0  0  0
  -21.6076  -29.6839   17.2295 C   0  0  0  0  0  0  0  0  0  0  0  0
  -28.7929  -20.8165   22.0025 N   0  0  0  0  0  0  0  0  0  0  0  0
  -27.8967  -20.0649   21.3407 N   0  0  0  0  0  0  0  0  0  0  0  0
  -29.8927  -25.9340   23.0737 N   0  0  3  0  0  0  0  0  0  0  0  0
  -23.5395  -30.5508   20.3452 N   0  0  0  0  0  0  0  0  0  0  0  0
  -24.8891  -22.4335   21.3695 N   0  0  0  0  0  0  0  0  0  0  0  0
  -27.6754  -18.1010   20.0351 N   0  0  0  0  0  0  0  0  0  0  0  0
  -32.0872  -18.2238   20.9928 N   0  0  0  0  0  0  0  0  0  0  0  0
  -21.3211  -29.5683   22.2668 N   0  0  0  0  0  0  0  0  0  0  0  0
  -23.7497  -31.0302   17.2812 N   0  0  0  0  0  0  0  0  0  0  0  0
  -25.3574  -24.4246   20.1290 N   0  0  0  0  0  0  0  0  0  0  0  0
  -26.9550  -31.4382   15.6602 N   0  3  0  0  0  0  0  0  0  0  0  0
  -30.4526  -17.0503   19.8929 O   0  0  0  0  0  0  0  0  0  0  0  0
  -23.4460  -29.0639   23.0750 O   0  0  0  0  0  0  0  0  0  0  0  0
  -21.5473  -31.3831   19.4649 O   0  0  0  0  0  0  0  0  0  0  0  0
  -25.0773  -29.4292   16.2559 O   0  0  0  0  0  0  0  0  0  0  0  0
  -23.1769  -23.7252   20.5006 O   0  0  0  0  0  0  0  0  0  0  0  0
  -34.6945  -22.1113   24.0135 O   0  0  0  0  0  0  0  0  0  0  0  0
  -29.2480  -28.7559   21.8429 O   0  0  0  0  0  0  0  0  0  1  0  0
  -39.1734  -22.1795   20.7983 F   0  0  0  0  0  0  0  0  0  0  0  0
  -35.9969  -24.4828   23.4460 F   0  0  0  0  0  0  0  0  0  0  0  0
  1  2  1  0  0  0  0
  1  5  2  0  0  0  0
  2  6  2  0  0  0  0
  3 10  2  0  0  0  0
  3 18  1  0  0  0  0
  4 11  1  0  0  0  0
  4 18  2  0  0  0  0
  5 20  1  0  0  0  0
  6 22  1  0  0  0  0
  7 12  2  0  0  0  0
  7 21  1  0  0  0  0
  8  9  2  0  0  0  0
  8 25  1  0  0  0  0
  9 26  1  0  0  0  0
 10 27  1  0  0  0  0
 11 27  2  0  0  0  0
 12 28  1  0  0  0  0
 13 14  2  0  0  0  0
 13 29  1  0  0  0  0
 14 30  1  0  0  0  0
 15 23  1  0  0  0  0
 15 28  2  0  0  0  0
 16 24  1  0  0  0  0
 16 26  2  0  0  0  0
 17 30  2  0  0  0  0
 17 31  1  0  0  0  0
 18 32  1  0  0  0  0
 19 32  1  0  0  0  0
 19 33  2  0  0  0  0
 19 34  1  0  0  0  0
 20 22  2  0  0  0  0
 20 39  1  0  0  0  0
 21 23  2  0  0  0  0
 21 40  1  0  0  0  0
 22 51  1  0  0  0  0
 23 41  1  0  0  0  0
 24 25  2  0  0  0  0
 24 55  1  0  0  0  0
 25 68  1  0  0  0  0
 26 75  1  0  0  0  0
 27 82  1  0  0  0  0
 28 83  1  0  0  0  0
 29 31  2  0  0  0  0
 29 82  1  0  0  0  0
 30 84  1  0  0  0  0
 31 85  1  0  0  0  0
 32 66  2  0  0  0  0
 33 67  1  0  0  0  0
 33 71  1  0  0  0  0
 34 72  1  0  0  0  0
 34 77  2  0  0  0  0
 35 52  1  0  0  0  0
 35 73  1  0  0  0  0
 35 78  2  0  0  0  0
 36 63  1  0  0  0  0
 36 69  1  0  0  0  0
 36 79  2  0  0  0  0
 37 64  1  0  0  0  0
 37 74  1  0  0  0  0
 37 80  2  0  0  0  0
 38 70  1  0  0  0  0
 38 75  1  0  0  0  0
 38 81  2  0  0  0  0
 39 42  1  0  0  0  0
 40 52  1  0  0  0  0
 41 69  1  0  0  0  0
 42 45  1  0  0  0  0
 43 46  1  0  0  0  0
 43 49  1  0  0  0  0
 44 47  1  0  0  0  0
 44 48  1  0  0  0  0
 45 51  1  0  0  0  0
 46 53  1  0  0  0  0
 47 54  1  0  0  0  0
 48 68  1  0  0  0  0
 49 70  1  0  0  0  0
 50 53  1  0  0  0  0
 50 70  1  0  0  0  0
 51 73  1  0  0  0  0
 52 69  1  0  0  0  0
 53 67  1  0  0  0  0
 54 62  1  0  0  0  0
 54 68  1  0  0  0  0
 56 64  1  0  0  0  0
 57 65  1  0  0  0  0
 58 65  1  0  0  0  0
 59 65  1  0  0  0  0
 60 75  1  0  0  0  0
 61 76  1  0  0  0  0
 62 83  1  0  0  0  0
 63 65  1  0  0  0  0
 63 74  1  0  0  0  0
 64 76  1  0  0  0  0
 66 67  1  0  0  0  0
M  CHG  1  76   1
M  ISO  4  38 100  62 101  75 100  83 101
M  END
> <Batch ID>
0022

> <Smiles>
CNC(C)C(=O)NC(C(=O)N1Cc2cc([101O:1][101CH2:1]C3CCCN3c3ccc([100N:0](C)[100C:0](=O)N4CCCC(n5nc(-c6ccc(Oc7ccc(F)cc7F)cc6)c(C(N)=O)c5N)C4)cc3C)ccc2CC1C(=O)NC1CCCc2ccccc21)C(C)(C)C

> <Shape>
0.182

> <Color>
0.104

> <Negative vol penalty>
0.000

$$$$

  -OEChem-04042321143D

 86 95  0     1  0  0  0  0  0999 V2000
  -16.4743  -28.8781   23.3362 C   0  0  0  0  0  0  0  0  0  0  0  0
  -17.0495  -28.1432   22.3045 C   0  0  0  0  0  0  0  0  0  0  0  0
  -22.5328  -10.4382   20.3771 C   0  0  0  0  0  0  0  0  0  0  0  0
  -24.4303   -9.4432   21.4937 C   0  0  0  0  0  0  0  0  0  0  0  0
  -17.2828  -29.6156   24.2001 C   0  0  0  0  0  0  0  0  0  0  0  0
  -18.4336  -28.1461   22.1354 C   0  0  0  0  0  0  0  0  0  0  0  0
  -23.8038  -23.9234   19.9798 C   0  0  0  0  0  0  0  0  0  0  0  0
  -29.7381  -18.0490   19.1054 C   0  0  0  0  0  0  0  0  0  0  0  0
  -29.8874  -19.3754   18.7004 C   0  0  0  0  0  0  0  0  0  0  0  0
  -21.8180   -9.2507   20.5336 C   0  0  0  0  0  0  0  0  0  0  0  0
  -23.7155   -8.2557   21.6502 C   0  0  0  0  0  0  0  0  0  0  0  0
  -24.8839  -23.9198   19.0983 C   0  0  0  0  0  0  0  0  0  0  0  0
  -21.3114   -7.0487   23.6957 C   0  0  0  0  0  0  0  0  0  0  0  0
  -21.3622   -6.4228   24.9412 C   0  0  0  0  0  0  0  0  0  0  0  0
  -26.1872  -25.1673   20.6998 C   0  0  0  0  0  0  0  0  0  0  0  0
  -29.2545  -18.7898   21.3536 C   0  0  0  0  0  0  0  0  0  0  0  0
  -22.3153   -4.4549   23.9135 C   0  0  0  0  0  0  0  0  0  0  0  0
  -23.8390  -10.5344   20.8571 C   0  0  0  0  0  0  0  0  0  0  0  0
  -24.2363  -13.0316   21.1950 C   0  0  0  0  0  0  0  0  0  0  0  0
  -18.6783  -29.6199   24.0474 C   0  0  0  0  0  0  0  0  0  0  0  0
  -23.9038  -24.5594   21.2256 C   0  0  0  0  0  0  0  0  0  0  0  0
  -19.2615  -28.8855   22.9973 C   0  0  0  0  0  0  0  0  0  0  0  0
  -25.1077  -25.1753   21.5963 C   0  0  0  0  0  0  0  0  0  0  0  0
  -29.4216  -17.7562   20.4319 C   0  0  0  0  0  0  0  0  0  0  0  0
  -29.4039  -20.1162   20.9487 C   0  0  0  0  0  0  0  0  0  0  0  0
  -29.7204  -20.4090   19.6221 C   0  0  0  0  0  0  0  0  0  0  0  0
  -22.4093   -8.1595   21.1702 C   0  0  0  0  0  0  0  0  0  0  0  0
  -26.0749  -24.5443   19.4570 C   0  0  0  0  0  0  0  0  0  0  0  0
  -21.7624   -6.3776   22.5590 C   0  0  0  0  0  0  0  0  0  0  0  0
  -21.8642   -5.1260   25.0501 C   0  0  0  0  0  0  0  0  0  0  0  0
  -22.2644   -5.0808   22.6679 C   0  0  0  0  0  0  0  0  0  0  0  0
  -24.5781  -11.7607   20.6952 C   0  0  0  0  0  0  0  0  0  0  0  0
  -25.2534  -13.8518   20.7719 C   0  0  0  0  0  0  0  0  0  0  0  0
  -23.1009  -13.4346   21.9723 C   0  0  0  0  0  0  0  0  0  0  0  0
  -22.4116  -26.9895   22.6297 C   0  0  0  0  0  0  0  0  0  0  0  0
  -24.1825  -26.0877   25.1935 C   0  0  0  0  0  0  0  0  0  0  0  0
  -26.9688  -24.5155   26.3816 C   0  0  0  0  0  0  0  0  0  0  0  0
  -30.8857  -14.4756   20.3186 C   0  0  0  0  0  0  0  0  0  0  0  0
  -19.5076  -30.4701   24.9770 C   0  0  0  0  0  0  0  0  0  0  0  0
  -22.7383  -24.5312   22.1761 C   0  0  0  0  0  0  0  0  0  0  0  0
  -25.2730  -25.8545   22.9304 C   0  0  0  0  0  0  0  0  0  0  0  0
  -20.9935  -30.1206   24.9593 C   0  0  0  0  0  0  0  0  0  0  0  0
  -28.9918  -13.0567   17.4723 C   0  0  0  0  0  0  0  0  0  0  0  0
  -21.4915  -29.9786   23.5245 C   0  0  0  0  0  0  0  0  0  0  0  0
  -27.6759  -12.6359   18.1245 C   0  0  0  0  0  0  0  0  0  0  0  0
  -30.8290  -23.8275   18.7979 C   0  0  0  0  0  0  0  0  0  0  0  0
  -30.1518  -13.0235   18.4627 C   0  0  0  0  0  0  0  0  0  0  0  0
  -30.8624  -22.6358   19.7523 C   0  0  0  0  0  0  0  0  0  0  0  0
  -29.0702  -22.3355   18.1516 C   0  0  0  0  0  0  0  0  0  0  0  0
  -28.5976  -13.4000   20.3486 C   0  0  0  0  0  0  0  0  0  0  0  0
  -20.7609  -28.8437   22.7967 C   0  0  1  0  0  0  0  0  0  0  0  0
  -22.7821  -25.6534   23.2086 C   0  0  1  0  0  0  0  0  0  0  0  0
  -29.4026  -23.8304   18.2502 C   0  0  1  0  0  0  0  0  0  0  0  0
  -27.3999  -13.4674   19.3893 C   0  0  2  0  0  0  0  0  0  0  0  0
  -29.2194  -21.2036   21.9566 C   0  0  0  0  0  0  0  0  0  0  0  0
  -28.1641  -23.9744   28.5207 C   0  0  0  0  0  0  0  0  0  0  0  0
  -25.1670  -28.9703   25.3698 C   0  0  0  0  0  0  0  0  0  0  0  0
  -27.0170  -28.1741   26.8570 C   0  0  0  0  0  0  0  0  0  0  0  0
  -24.6421  -27.9106   27.5734 C   0  0  0  0  0  0  0  0  0  0  0  0
  -31.5897  -16.4083   21.6782 C   0  0  0  0  0  0  0  0  0  0  0  0
  -26.7251  -21.6029   25.9166 C   0  0  0  0  0  0  0  0  0  0  0  0
  -29.2620  -16.3379   20.8644 C   0  0  0  0  0  0  0  0  0  0  0  0
  -28.4360  -24.5702   19.1738 C   0  0  0  0  0  0  0  0  0  1  0  0
  -25.5498  -26.4420   25.7264 C   0  0  1  0  0  0  0  0  0  0  0  0
  -27.1540  -23.4948   27.4899 C   0  0  2  0  0  0  0  0  0  0  0  0
  -25.5905  -27.8632   26.3557 C   0  0  0  0  0  0  0  0  0  0  0  0
  -25.7228  -11.7680   20.0071 N   0  0  0  0  0  0  0  0  0  0  0  0
  -26.1091  -13.0536   20.0714 N   0  0  0  0  0  0  0  0  0  0  0  0
  -29.8719  -21.7146   19.2042 N   0  0  3  0  0  0  0  0  0  0  0  0
  -24.1029  -25.8054   23.8225 N   0  0  0  0  0  0  0  0  0  0  0  0
  -29.8459  -13.7858   19.6737 N   0  0  0  0  0  0  0  0  0  0  0  0
  -25.4903  -15.1709   20.9343 N   0  0  0  0  0  0  0  0  0  0  0  0
  -23.1956  -13.3831   23.3697 N   0  0  0  0  0  0  0  0  0  0  0  0
  -21.2907  -27.5596   23.2025 N   0  0  0  0  0  0  0  0  0  0  0  0
  -25.9200  -25.3709   26.6452 N   0  0  0  0  0  0  0  0  0  0  0  0
  -30.5446  -15.6517   21.0035 N   0  0  0  0  0  0  0  0  0  0  0  0
  -27.6345  -22.2010   26.9276 N   0  3  0  0  0  0  0  0  0  0  0  0
  -22.0284  -13.8131   21.4432 O   0  0  0  0  0  0  0  0  0  0  0  0
  -23.0932  -27.4686   21.7310 O   0  0  0  0  0  0  0  0  0  0  0  0
  -23.2218  -26.0554   25.9667 O   0  0  0  0  0  0  0  0  0  0  0  0
  -27.6854  -24.5527   25.3838 O   0  0  0  0  0  0  0  0  0  0  0  0
  -32.0539  -14.0688   20.2761 O   0  0  0  0  0  0  0  0  0  0  0  0
  -21.7120   -7.0006   21.3233 O   0  0  0  0  0  0  0  0  0  0  0  0
  -27.1305  -24.5429   18.5983 O   0  0  0  0  0  0  0  0  0  1  0  0
  -21.9144   -4.5257   26.2465 F   0  0  0  0  0  0  0  0  0  0  0  0
  -22.7003   -4.4315   21.5797 F   0  0  0  0  0  0  0  0  0  0  0  0
  1  2  1  0  0  0  0
  1  5  2  0  0  0  0
  2  6  2  0  0  0  0
  3 10  2  0  0  0  0
  3 18  1  0  0  0  0
  4 11  1  0  0  0  0
  4 18  2  0  0  0  0
  5 20  1  0  0  0  0
  6 22  1  0  0  0  0
  7 12  2  0  0  0  0
  7 21  1  0  0  0  0
  8  9  2  0  0  0  0
  8 24  1  0  0  0  0
  9 26  1  0  0  0  0
 10 27  1  0  0  0  0
 11 27  2  0  0  0  0
 12 28  1  0  0  0  0
 13 14  2  0  0  0  0
 13 29  1  0  0  0  0
 14 30  1  0  0  0  0
 15 23  1  0  0  0  0
 15 28  2  0  0  0  0
 16 24  2  0  0  0  0
 16 25  1  0  0  0  0
 17 30  2  0  0  0  0
 17 31  1  0  0  0  0
 18 32  1  0  0  0  0
 19 32  1  0  0  0  0
 19 33  2  0  0  0  0
 19 34  1  0  0  0  0
 20 22  2  0  0  0  0
 20 39  1  0  0  0  0
 21 23  2  0  0  0  0
 21 40  1  0  0  0  0
 22 51  1  0  0  0  0
 23 41  1  0  0  0  0
 24 62  1  0  0  0  0
 25 26  2  0  0  0  0
 25 55  1  0  0  0  0
 26 69  1  0  0  0  0
 27 83  1  0  0  0  0
 28 84  1  0  0  0  0
 29 31  2  0  0  0  0
 29 83  1  0  0  0  0
 30 85  1  0  0  0  0
 31 86  1  0  0  0  0
 32 67  2  0  0  0  0
 33 68  1  0  0  0  0
 33 72  1  0  0  0  0
 34 73  1  0  0  0  0
 34 78  2  0  0  0  0
 35 52  1  0  0  0  0
 35 74  1  0  0  0  0
 35 79  2  0  0  0  0
 36 64  1  0  0  0  0
 36 70  1  0  0  0  0
 36 80  2  0  0  0  0
 37 65  1  0  0  0  0
 37 75  1  0  0  0  0
 37 81  2  0  0  0  0
 38 71  1  0  0  0  0
 38 76  1  0  0  0  0
 38 82  2  0  0  0  0
 39 42  1  0  0  0  0
 40 52  1  0  0  0  0
 41 70  1  0  0  0  0
 42 44  1  0  0  0  0
 43 45  1  0  0  0  0
 43 47  1  0  0  0  0
 44 51  1  0  0  0  0
 45 54  1  0  0  0  0
 46 48  1  0  0  0  0
 46 53  1  0  0  0  0
 47 71  1  0  0  0  0
 48 69  1  0  0  0  0
 49 53  1  0  0  0  0
 49 69  1  0  0  0  0
 50 54  1  0  0  0  0
 50 71  1  0  0  0  0
 51 74  1  0  0  0  0
 52 70  1  0  0  0  0
 53 63  1  0  0  0  0
 54 68  1  0  0  0  0
 56 65  1  0  0  0  0
 57 66  1  0  0  0  0
 58 66  1  0  0  0  0
 59 66  1  0  0  0  0
 60 76  1  0  0  0  0
 61 77  1  0  0  0  0
 62 76  1  0  0  0  0
 63 84  1  0  0  0  0
 64 66  1  0  0  0  0
 64 75  1  0  0  0  0
 65 77  1  0  0  0  0
 67 68  1  0  0  0  0
M  CHG  1  77   1
M  ISO  4  38 100  63 101  76 100  84 101
M  END
> <Batch ID>
0022

> <Smiles>
CNC(C)C(=O)NC(C(=O)N1Cc2cc([101O:1][101CH2:1]C3CCN(c4ccc(C[100N:0](C)[100C:0](=O)N5CCCC(n6nc(-c7ccc(Oc8ccc(F)cc8F)cc7)c(C(N)=O)c6N)C5)cc4C)C3)ccc2CC1C(=O)NC1CCCc2ccccc21)C(C)(C)C

> <Shape>
0.328

> <Color>
0.172

> <Negative vol penalty>
0.000

$$$$

  -OEChem-04042321143D

 86 95  0     1  0  0  0  0  0999 V2000
  -17.1422  -30.5543   24.0509 C   0  0  0  0  0  0  0  0  0  0  0  0
  -17.7498  -29.5443   24.7899 C   0  0  0  0  0  0  0  0  0  0  0  0
  -28.0846  -15.9364   20.2987 C   0  0  0  0  0  0  0  0  0  0  0  0
  -30.1009  -14.6277   20.0563 C   0  0  0  0  0  0  0  0  0  0  0  0
  -17.3953  -30.6652   22.6843 C   0  0  0  0  0  0  0  0  0  0  0  0
  -18.6100  -28.6439   24.1625 C   0  0  0  0  0  0  0  0  0  0  0  0
  -24.5019  -24.7627   25.4029 C   0  0  0  0  0  0  0  0  0  0  0  0
  -27.8487  -20.6583   20.0080 C   0  0  0  0  0  0  0  0  0  0  0  0
  -28.3256  -21.2208   18.8241 C   0  0  0  0  0  0  0  0  0  0  0  0
  -27.3205  -14.8252   19.9426 C   0  0  0  0  0  0  0  0  0  0  0  0
  -29.3367  -13.5164   19.7002 C   0  0  0  0  0  0  0  0  0  0  0  0
  -24.9698  -23.4531   25.3033 C   0  0  0  0  0  0  0  0  0  0  0  0
  -26.1989  -11.9970   21.4180 C   0  0  0  0  0  0  0  0  0  0  0  0
  -25.0652  -11.7184   22.1812 C   0  0  0  0  0  0  0  0  0  0  0  0
  -25.3944  -23.7900   22.9527 C   0  0  0  0  0  0  0  0  0  0  0  0
  -29.5230  -21.8707   21.2585 C   0  0  0  0  0  0  0  0  0  0  0  0
  -23.6827  -11.9552   20.2141 C   0  0  0  0  0  0  0  0  0  0  0  0
  -29.4748  -15.8377   20.3555 C   0  0  0  0  0  0  0  0  0  0  0  0
  -30.6654  -17.3623   22.0185 C   0  0  0  0  0  0  0  0  0  0  0  0
  -18.2666  -29.7716   22.0417 C   0  0  0  0  0  0  0  0  0  0  0  0
  -24.4666  -25.5937   24.2738 C   0  0  0  0  0  0  0  0  0  0  0  0
  -18.8739  -28.7421   22.7857 C   0  0  0  0  0  0  0  0  0  0  0  0
  -24.9281  -25.1105   23.0411 C   0  0  0  0  0  0  0  0  0  0  0  0
  -30.0000  -22.4332   20.0746 C   0  0  0  0  0  0  0  0  0  0  0  0
  -28.4474  -20.9832   21.2253 C   0  0  0  0  0  0  0  0  0  0  0  0
  -29.4012  -22.1083   18.8573 C   0  0  0  0  0  0  0  0  0  0  0  0
  -27.9465  -13.6151   19.6434 C   0  0  0  0  0  0  0  0  0  0  0  0
  -25.4134  -22.9656   24.0775 C   0  0  0  0  0  0  0  0  0  0  0  0
  -26.0745  -12.2548   20.0527 C   0  0  0  0  0  0  0  0  0  0  0  0
  -23.8071  -11.6974   21.5793 C   0  0  0  0  0  0  0  0  0  0  0  0
  -24.8164  -12.2338   19.4508 C   0  0  0  0  0  0  0  0  0  0  0  0
  -30.2648  -16.9854   20.7227 C   0  0  0  0  0  0  0  0  0  0  0  0
  -31.3912  -18.5134   21.8324 C   0  0  0  0  0  0  0  0  0  0  0  0
  -30.4049  -16.7284   23.2779 C   0  0  0  0  0  0  0  0  0  0  0  0
  -22.1709  -27.0792   22.6531 C   0  0  0  0  0  0  0  0  0  0  0  0
  -24.6766  -28.3598   21.0393 C   0  0  0  0  0  0  0  0  0  0  0  0
  -27.9384  -28.0960   20.0708 C   0  0  0  0  0  0  0  0  0  0  0  0
  -31.2057  -22.4786   17.1834 C   0  0  0  0  0  0  0  0  0  0  0  0
  -18.4724  -29.9023   20.5533 C   0  0  0  0  0  0  0  0  0  0  0  0
  -23.9840  -27.0124   24.4036 C   0  0  0  0  0  0  0  0  0  0  0  0
  -24.9297  -25.9687   21.8034 C   0  0  0  0  0  0  0  0  0  0  0  0
  -19.6886  -29.1376   20.0372 C   0  0  0  0  0  0  0  0  0  0  0  0
  -34.1309  -20.7476   18.6175 C   0  0  0  0  0  0  0  0  0  0  0  0
  -19.7179  -27.7271   20.6171 C   0  0  0  0  0  0  0  0  0  0  0  0
  -33.4987  -19.5818   19.3760 C   0  0  0  0  0  0  0  0  0  0  0  0
  -26.9021  -18.9581   23.8907 C   0  0  0  0  0  0  0  0  0  0  0  0
  -33.2914  -21.1619   17.4127 C   0  0  0  0  0  0  0  0  0  0  0  0
  -26.8572  -19.4915   22.4605 C   0  0  0  0  0  0  0  0  0  0  0  0
  -28.5433  -20.6939   23.7160 C   0  0  0  0  0  0  0  0  0  0  0  0
  -31.2403  -20.3109   18.5078 C   0  0  0  0  0  0  0  0  0  0  0  0
  -19.8325  -27.7614   22.1459 C   0  0  1  0  0  0  0  0  0  0  0  0
  -23.5117  -27.6062   23.0801 C   0  0  1  0  0  0  0  0  0  0  0  0
  -27.5257  -20.0963   24.6970 C   0  0  1  0  0  0  0  0  0  0  0  0
  -32.0408  -19.8983   19.7523 C   0  0  1  0  0  0  0  0  0  0  0  0
  -31.1526  -23.3820   20.1401 C   0  0  0  0  0  0  0  0  0  0  0  0
  -28.8768  -24.7850   16.8085 C   0  0  0  0  0  0  0  0  0  0  0  0
  -29.6954  -29.2786   18.7248 C   0  0  0  0  0  0  0  0  0  0  0  0
  -23.3504  -27.3961   18.4659 C   0  0  0  0  0  0  0  0  0  0  0  0
  -25.5358  -27.7390   17.2935 C   0  0  0  0  0  0  0  0  0  0  0  0
  -24.3591  -29.6803   18.3275 C   0  0  0  0  0  0  0  0  0  0  0  0
  -29.6923  -28.4231   22.4322 C   0  0  0  0  0  0  0  0  0  0  0  0
  -26.4843  -21.1248   25.1359 C   0  0  0  0  0  0  0  0  0  1  0  0
  -28.9024  -23.2737   16.7010 C   0  0  0  0  0  0  0  0  0  0  0  0
  -25.4737  -27.9693   19.8182 C   0  0  1  0  0  0  0  0  0  0  0  0
  -29.0828  -29.0928   20.1043 C   0  0  2  0  0  0  0  0  0  0  0  0
  -24.6780  -28.1792   18.4990 C   0  0  0  0  0  0  0  0  0  0  0  0
  -30.6998  -17.8288   19.7828 N   0  0  0  0  0  0  0  0  0  0  0  0
  -31.3813  -18.7471   20.4887 N   0  0  0  0  0  0  0  0  0  0  0  0
  -27.9753  -20.4273   22.3959 N   0  0  3  0  0  0  0  0  0  0  0  0
  -24.4426  -27.3467   21.9799 N   0  0  0  0  0  0  0  0  0  0  0  0
  -31.8999  -21.4127   17.7901 N   0  0  0  0  0  0  0  0  0  0  0  0
  -32.0305  -19.3384   22.6886 N   0  0  0  0  0  0  0  0  0  0  0  0
  -29.6422  -15.5527   23.2891 N   0  0  0  0  0  0  0  0  0  0  0  0
  -21.1935  -28.0500   22.5444 N   0  0  0  0  0  0  0  0  0  0  0  0
  -26.7225  -28.7203   19.8886 N   0  0  0  0  0  0  0  0  0  0  0  0
  -29.8788  -22.6811   17.6210 N   0  0  0  0  0  0  0  0  0  0  0  0
  -30.1501  -28.6251   21.0334 N   0  3  0  0  0  0  0  0  0  0  0  0
  -30.8219  -17.2000   24.3630 O   0  0  0  0  0  0  0  0  0  0  0  0
  -22.0337  -25.8809   22.4367 O   0  0  0  0  0  0  0  0  0  0  0  0
  -24.2824  -29.5226   21.1578 O   0  0  0  0  0  0  0  0  0  0  0  0
  -28.1066  -26.8844   20.1904 O   0  0  0  0  0  0  0  0  0  0  0  0
  -31.7396  -23.2091   16.3402 O   0  0  0  0  0  0  0  0  0  0  0  0
  -27.2012  -12.5305   19.2962 O   0  0  0  0  0  0  0  0  0  0  0  0
  -25.8699  -21.6876   23.9774 O   0  0  0  0  0  0  0  0  0  1  0  0
  -22.7186  -11.4283   22.3121 F   0  0  0  0  0  0  0  0  0  0  0  0
  -24.6908  -12.4795   18.1395 F   0  0  0  0  0  0  0  0  0  0  0  0
  1  2  1  0  0  0  0
  1  5  2  0  0  0  0
  2  6  2  0  0  0  0
  3 10  2  0  0  0  0
  3 18  1  0  0  0  0
  4 11  1  0  0  0  0
  4 18  2  0  0  0  0
  5 20  1  0  0  0  0
  6 22  1  0  0  0  0
  7 12  2  0  0  0  0
  7 21  1  0  0  0  0
  8  9  2  0  0  0  0
  8 25  1  0  0  0  0
  9 26  1  0  0  0  0
 10 27  1  0  0  0  0
 11 27  2  0  0  0  0
 12 28  1  0  0  0  0
 13 14  2  0  0  0  0
 13 29  1  0  0  0  0
 14 30  1  0  0  0  0
 15 23  1  0  0  0  0
 15 28  2  0  0  0  0
 16 24  1  0  0  0  0
 16 25  2  0  0  0  0
 17 30  2  0  0  0  0
 17 31  1  0  0  0  0
 18 32  1  0  0  0  0
 19 32  1  0  0  0  0
 19 33  2  0  0  0  0
 19 34  1  0  0  0  0
 20 22  2  0  0  0  0
 20 39  1  0  0  0  0
 21 23  2  0  0  0  0
 21 40  1  0  0  0  0
 22 51  1  0  0  0  0
 23 41  1  0  0  0  0
 24 26  2  0  0  0  0
 24 55  1  0  0  0  0
 25 69  1  0  0  0  0
 26 76  1  0  0  0  0
 27 83  1  0  0  0  0
 28 84  1  0  0  0  0
 29 31  2  0  0  0  0
 29 83  1  0  0  0  0
 30 85  1  0  0  0  0
 31 86  1  0  0  0  0
 32 67  2  0  0  0  0
 33 68  1  0  0  0  0
 33 72  1  0  0  0  0
 34 73  1  0  0  0  0
 34 78  2  0  0  0  0
 35 52  1  0  0  0  0
 35 74  1  0  0  0  0
 35 79  2  0  0  0  0
 36 64  1  0  0  0  0
 36 70  1  0  0  0  0
 36 80  2  0  0  0  0
 37 65  1  0  0  0  0
 37 75  1  0  0  0  0
 37 81  2  0  0  0  0
 38 71  1  0  0  0  0
 38 76  1  0  0  0  0
 38 82  2  0  0  0  0
 39 42  1  0  0  0  0
 40 52  1  0  0  0  0
 41 70  1  0  0  0  0
 42 44  1  0  0  0  0
 43 45  1  0  0  0  0
 43 47  1  0  0  0  0
 44 51  1  0  0  0  0
 45 54  1  0  0  0  0
 46 48  1  0  0  0  0
 46 53  1  0  0  0  0
 47 71  1  0  0  0  0
 48 69  1  0  0  0  0
 49 53  1  0  0  0  0
 49 69  1  0  0  0  0
 50 54  1  0  0  0  0
 50 71  1  0  0  0  0
 51 74  1  0  0  0  0
 52 70  1  0  0  0  0
 53 62  1  0  0  0  0
 54 68  1  0  0  0  0
 56 63  1  0  0  0  0
 57 65  1  0  0  0  0
 58 66  1  0  0  0  0
 59 66  1  0  0  0  0
 60 66  1  0  0  0  0
 61 77  1  0  0  0  0
 62 84  1  0  0  0  0
 63 76  1  0  0  0  0
 64 66  1  0  0  0  0
 64 75  1  0  0  0  0
 65 77  1  0  0  0  0
 67 68  1  0  0  0  0
M  CHG  1  77   1
M  ISO  4  38 100  62 101  76 100  84 101
M  END
> <Batch ID>
0022

> <Smiles>
CC[100N:0](c1ccc(N2CCC([101CH2:1][101O:1]c3ccc4c(c3)CN(C(=O)C(NC(=O)C(C)NC)C(C)(C)C)C(C(=O)NC3CCCc5ccccc53)C4)C2)cc1C)[100C:0](=O)N1CCCC(n2nc(-c3ccc(Oc4ccc(F)cc4F)cc3)c(C(N)=O)c2N)C1

> <Shape>
0.244

> <Color>
0.068

> <Negative vol penalty>
0.000

$$$$

  -OEChem-04042321143D

 85 93  0     1  0  0  0  0  0999 V2000
  -29.2308  -25.4270   16.5970 C   0  0  0  0  0  0  0  0  0  0  0  0
  -28.0850  -25.3632   17.3834 C   0  0  0  0  0  0  0  0  0  0  0  0
  -26.3727  -12.7811   19.5739 C   0  0  0  0  0  0  0  0  0  0  0  0
  -24.3097  -13.4011   20.6678 C   0  0  0  0  0  0  0  0  0  0  0  0
  -30.3158  -26.1994   17.0094 C   0  0  0  0  0  0  0  0  0  0  0  0
  -28.0239  -26.0710   18.5833 C   0  0  0  0  0  0  0  0  0  0  0  0
  -23.6243  -28.5063   19.1805 C   0  0  0  0  0  0  0  0  0  0  0  0
  -24.2750  -23.0567   22.0068 C   0  0  0  0  0  0  0  0  0  0  0  0
  -23.2317  -23.9753   22.1210 C   0  0  0  0  0  0  0  0  0  0  0  0
  -26.3119  -11.5227   20.1724 C   0  0  0  0  0  0  0  0  0  0  0  0
  -24.2488  -12.1426   21.2663 C   0  0  0  0  0  0  0  0  0  0  0  0
  -22.5255  -27.7472   19.5808 C   0  0  0  0  0  0  0  0  0  0  0  0
  -23.3582   -9.0054   20.3803 C   0  0  0  0  0  0  0  0  0  0  0  0
  -22.1307   -8.3430   20.3695 C   0  0  0  0  0  0  0  0  0  0  0  0
  -22.8318  -28.5106   21.8485 C   0  0  0  0  0  0  0  0  0  0  0  0
  -22.7749  -21.2736   22.6451 C   0  0  0  0  0  0  0  0  0  0  0  0
  -22.1305   -8.3041   22.7852 C   0  0  0  0  0  0  0  0  0  0  0  0
  -25.3716  -13.7204   19.8216 C   0  0  0  0  0  0  0  0  0  0  0  0
  -24.8894  -15.3993   17.9625 C   0  0  0  0  0  0  0  0  0  0  0  0
  -30.2644  -26.9247   18.2102 C   0  0  0  0  0  0  0  0  0  0  0  0
  -24.3429  -29.2660   20.1148 C   0  0  0  0  0  0  0  0  0  0  0  0
  -29.1098  -26.8528   19.0128 C   0  0  0  0  0  0  0  0  0  0  0  0
  -23.9377  -29.2805   21.4571 C   0  0  0  0  0  0  0  0  0  0  0  0
  -21.7315  -22.1923   22.7594 C   0  0  0  0  0  0  0  0  0  0  0  0
  -24.0466  -21.7057   22.2688 C   0  0  0  0  0  0  0  0  0  0  0  0
  -21.9600  -23.5432   22.4973 C   0  0  0  0  0  0  0  0  0  0  0  0
  -25.2499  -11.2034   21.0186 C   0  0  0  0  0  0  0  0  0  0  0  0
  -22.1309  -27.7470   20.9154 C   0  0  0  0  0  0  0  0  0  0  0  0
  -23.9719   -9.3171   21.5935 C   0  0  0  0  0  0  0  0  0  0  0  0
  -21.5168   -7.9924   21.5719 C   0  0  0  0  0  0  0  0  0  0  0  0
  -23.3580   -8.9665   22.7959 C   0  0  0  0  0  0  0  0  0  0  0  0
  -25.4342  -15.0207   19.2041 C   0  0  0  0  0  0  0  0  0  0  0  0
  -25.2188  -16.7264   17.8333 C   0  0  0  0  0  0  0  0  0  0  0  0
  -24.1515  -14.6209   17.0110 C   0  0  0  0  0  0  0  0  0  0  0  0
  -27.3367  -29.2610   21.1829 C   0  0  0  0  0  0  0  0  0  0  0  0
  -26.3715  -31.9349   22.7453 C   0  0  0  0  0  0  0  0  0  0  0  0
  -23.7995  -33.7559   24.0551 C   0  0  0  0  0  0  0  0  0  0  0  0
  -26.4279  -21.0364   21.7915 C   0  0  0  0  0  0  0  0  0  0  0  0
  -31.4801  -27.7081   18.6377 C   0  0  0  0  0  0  0  0  0  0  0  0
  -25.5095  -30.1006   19.6622 C   0  0  0  0  0  0  0  0  0  0  0  0
  -24.6632  -30.0951   22.4956 C   0  0  0  0  0  0  0  0  0  0  0  0
  -31.1926  -28.7264   19.7381 C   0  0  0  0  0  0  0  0  0  0  0  0
  -28.5448  -19.9058   19.1614 C   0  0  0  0  0  0  0  0  0  0  0  0
  -30.3543  -28.0942   20.8447 C   0  0  0  0  0  0  0  0  0  0  0  0
  -27.9342  -18.5621   18.7567 C   0  0  0  0  0  0  0  0  0  0  0  0
  -28.4547  -20.1388   20.6684 C   0  0  0  0  0  0  0  0  0  0  0  0
  -26.4992  -18.6497   20.8353 C   0  0  0  0  0  0  0  0  0  0  0  0
  -28.9960  -27.6260   20.3087 C   0  0  1  0  0  0  0  0  0  0  0  0
  -26.4807  -30.4321   20.7910 C   0  0  1  0  0  0  0  0  0  0  0  0
  -26.5082  -18.3991   19.3185 C   0  0  2  0  0  0  0  0  0  0  0  0
  -23.3258  -35.8805   25.3038 C   0  0  0  0  0  0  0  0  0  0  0  0
  -27.3830  -30.6451   25.3188 C   0  0  0  0  0  0  0  0  0  0  0  0
  -26.0562  -32.3345   26.6048 C   0  0  0  0  0  0  0  0  0  0  0  0
  -27.9001  -33.0821   25.1002 C   0  0  0  0  0  0  0  0  0  0  0  0
  -20.6779  -25.1567   23.8805 C   0  0  0  0  0  0  0  0  0  0  0  0
  -22.1254  -34.8122   21.8550 C   0  0  0  0  0  0  0  0  0  0  0  0
  -20.0868  -24.8117   21.4763 C   0  0  0  0  0  0  0  0  0  0  0  0
  -20.7899  -25.8126   20.5749 C   0  0  0  0  0  0  0  0  0  1  0  0
  -25.7482  -32.2211   24.0901 C   0  0  1  0  0  0  0  0  0  0  0  0
  -23.4436  -35.2268   23.9357 C   0  0  2  0  0  0  0  0  0  0  0  0
  -20.3795  -21.7024   23.1653 C   0  0  0  0  0  0  0  0  0  0  0  0
  -26.7592  -32.0537   25.2595 C   0  0  0  0  0  0  0  0  0  0  0  0
  -26.0622  -16.0261   19.8197 N   0  0  0  0  0  0  0  0  0  0  0  0
  -25.9141  -17.0494   18.9613 N   0  0  0  0  0  0  0  0  0  0  0  0
  -25.8014  -30.8896   22.0049 N   0  0  0  0  0  0  0  0  0  0  0  0
  -27.0744  -19.9719   21.1284 N   0  0  0  0  0  0  0  0  0  0  0  0
  -24.9787  -17.6369   16.8659 N   0  0  0  0  0  0  0  0  0  0  0  0
  -23.9012  -13.2728   17.3012 N   0  0  0  0  0  0  0  0  0  0  0  0
  -25.1071  -20.7731   22.1532 N   0  0  0  0  0  0  0  0  0  0  0  0
  -28.1001  -28.7515   20.1500 N   0  0  0  0  0  0  0  0  0  0  0  0
  -25.1620  -33.5535   23.9931 N   0  0  0  0  0  0  0  0  0  0  0  0
  -20.9237  -24.4800   22.6066 N   0  0  3  0  0  0  0  0  0  0  0  0
  -22.1444  -35.3892   23.2239 N   0  3  0  0  0  0  0  0  0  0  0  0
  -23.7410  -15.1022   15.9278 O   0  0  0  0  0  0  0  0  0  0  0  0
  -27.3077  -28.8510   22.3374 O   0  0  0  0  0  0  0  0  0  0  0  0
  -27.3244  -32.6184   22.3626 O   0  0  0  0  0  0  0  0  0  0  0  0
  -22.9537  -32.8750   24.1936 O   0  0  0  0  0  0  0  0  0  0  0  0
  -26.9947  -22.1126   21.9973 O   0  0  0  0  0  0  0  0  0  0  0  0
  -25.1901   -9.9755   21.6026 O   0  0  0  0  0  0  0  0  0  0  0  0
  -21.0592  -27.0064   21.3089 O   0  0  0  0  0  0  0  0  0  1  0  0
  -20.3374   -7.3577   21.5614 F   0  0  0  0  0  0  0  0  0  0  0  0
  -23.9422   -9.2643   23.9647 F   0  0  0  0  0  0  0  0  0  0  0  0
  -20.3310  -20.3560   23.3837 F   0  0  0  0  0  0  0  0  0  0  0  0
  -19.9190  -22.2694   24.3181 F   0  0  0  0  0  0  0  0  0  0  0  0
  -19.4270  -21.9573   22.2230 F   0  0  0  0  0  0  0  0  0  0  0  0
  1  2  1  0  0  0  0
  1  5  2  0  0  0  0
  2  6  2  0  0  0  0
  3 10  2  0  0  0  0
  3 18  1  0  0  0  0
  4 11  1  0  0  0  0
  4 18  2  0  0  0  0
  5 20  1  0  0  0  0
  6 22  1  0  0  0  0
  7 12  2  0  0  0  0
  7 21  1  0  0  0  0
  8  9  2  0  0  0  0
  8 25  1  0  0  0  0
  9 26  1  0  0  0  0
 10 27  1  0  0  0  0
 11 27  2  0  0  0  0
 12 28  1  0  0  0  0
 13 14  2  0  0  0  0
 13 29  1  0  0  0  0
 14 30  1  0  0  0  0
 15 23  1  0  0  0  0
 15 28  2  0  0  0  0
 16 24  1  0  0  0  0
 16 25  2  0  0  0  0
 17 30  2  0  0  0  0
 17 31  1  0  0  0  0
 18 32  1  0  0  0  0
 19 32  1  0  0  0  0
 19 33  2  0  0  0  0
 19 34  1  0  0  0  0
 20 22  2  0  0  0  0
 20 39  1  0  0  0  0
 21 23  2  0  0  0  0
 21 40  1  0  0  0  0
 22 48  1  0  0  0  0
 23 41  1  0  0  0  0
 24 26  2  0  0  0  0
 24 61  1  0  0  0  0
 25 69  1  0  0  0  0
 26 72  1  0  0  0  0
 27 79  1  0  0  0  0
 28 80  1  0  0  0  0
 29 31  2  0  0  0  0
 29 79  1  0  0  0  0
 30 81  1  0  0  0  0
 31 82  1  0  0  0  0
 32 63  2  0  0  0  0
 33 64  1  0  0  0  0
 33 67  1  0  0  0  0
 34 68  1  0  0  0  0
 34 74  2  0  0  0  0
 35 49  1  0  0  0  0
 35 70  1  0  0  0  0
 35 75  2  0  0  0  0
 36 59  1  0  0  0  0
 36 65  1  0  0  0  0
 36 76  2  0  0  0  0
 37 60  1  0  0  0  0
 37 71  1  0  0  0  0
 37 77  2  0  0  0  0
 38 66  1  0  0  0  0
 38 69  1  0  0  0  0
 38 78  2  0  0  0  0
 39 42  1  0  0  0  0
 40 49  1  0  0  0  0
 41 65  1  0  0  0  0
 42 44  1  0  0  0  0
 43 45  1  0  0  0  0
 43 46  1  0  0  0  0
 44 48  1  0  0  0  0
 45 50  1  0  0  0  0
 46 66  1  0  0  0  0
 47 50  1  0  0  0  0
 47 66  1  0  0  0  0
 48 70  1  0  0  0  0
 49 65  1  0  0  0  0
 50 64  1  0  0  0  0
 51 60  1  0  0  0  0
 52 62  1  0  0  0  0
 53 62  1  0  0  0  0
 54 62  1  0  0  0  0
 55 72  1  0  0  0  0
 56 73  1  0  0  0  0
 57 58  1  0  0  0  0
 57 72  1  0  0  0  0
 58 80  1  0  0  0  0
 59 62  1  0  0  0  0
 59 71  1  0  0  0  0
 60 73  1  0  0  0  0
 61 83  1  0  0  0  0
 61 84  1  0  0  0  0
 61 85  1  0  0  0  0
 63 64  1  0  0  0  0
M  CHG  1  73   1
M  ISO  4  38 100  58 101  69 100  80 101
M  END
> <Batch ID>
0022

> <Smiles>
CNC(C)C(=O)NC(C(=O)N1Cc2cc([101O:1][101CH2:1]CN(C)c3ccc([100NH:0][100C:0](=O)N4CCCC(n5nc(-c6ccc(Oc7ccc(F)cc7F)cc6)c(C(N)=O)c5N)C4)cc3C(F)(F)F)ccc2CC1C(=O)NC1CCCc2ccccc21)C(C)(C)C

> <Shape>
0.265

> <Color>
0.084

> <Negative vol penalty>
0.000

$$$$

  -OEChem-04042321143D

 85 94  0     1  0  0  0  0  0999 V2000
  -16.8251  -29.2499   24.3567 C   0  0  0  0  0  0  0  0  0  0  0  0
  -17.1674  -28.3023   23.3975 C   0  0  0  0  0  0  0  0  0  0  0  0
  -26.0289  -13.3273   19.9243 C   0  0  0  0  0  0  0  0  0  0  0  0
  -26.2898  -14.0684   22.2090 C   0  0  0  0  0  0  0  0  0  0  0  0
  -17.5949  -30.4034   24.5011 C   0  0  0  0  0  0  0  0  0  0  0  0
  -18.2791  -28.5081   22.5813 C   0  0  0  0  0  0  0  0  0  0  0  0
  -22.1082  -24.2397   20.4308 C   0  0  0  0  0  0  0  0  0  0  0  0
  -27.9028  -20.0832   16.2007 C   0  0  0  0  0  0  0  0  0  0  0  0
  -27.0910  -18.2141   14.9027 C   0  0  0  0  0  0  0  0  0  0  0  0
  -29.1908  -19.5490   16.1644 C   0  0  0  0  0  0  0  0  0  0  0  0
  -28.3791  -17.6800   14.8664 C   0  0  0  0  0  0  0  0  0  0  0  0
  -25.6509  -12.0635   20.3773 C   0  0  0  0  0  0  0  0  0  0  0  0
  -25.9118  -12.8045   22.6621 C   0  0  0  0  0  0  0  0  0  0  0  0
  -22.1892  -23.5854   19.2023 C   0  0  0  0  0  0  0  0  0  0  0  0
  -22.8796  -10.5971   21.6432 C   0  0  0  0  0  0  0  0  0  0  0  0
  -21.7730   -9.9973   21.0422 C   0  0  0  0  0  0  0  0  0  0  0  0
  -23.8443  -25.1798   18.4690 C   0  0  0  0  0  0  0  0  0  0  0  0
  -23.1585   -8.1480   20.3367 C   0  0  0  0  0  0  0  0  0  0  0  0
  -26.3484  -14.3298   20.8401 C   0  0  0  0  0  0  0  0  0  0  0  0
  -25.8971  -16.7330   20.1131 C   0  0  0  0  0  0  0  0  0  0  0  0
  -18.7222  -30.6189   23.6928 C   0  0  0  0  0  0  0  0  0  0  0  0
  -22.8881  -25.3773   20.6840 C   0  0  0  0  0  0  0  0  0  0  0  0
  -19.0639  -29.6662   22.7141 C   0  0  0  0  0  0  0  0  0  0  0  0
  -23.7733  -25.8452   19.7024 C   0  0  0  0  0  0  0  0  0  0  0  0
  -26.8529  -19.4157   15.5699 C   0  0  0  0  0  0  0  0  0  0  0  0
  -29.4289  -18.3474   15.4972 C   0  0  0  0  0  0  0  0  0  0  0  0
  -25.5923  -11.8020   21.7462 C   0  0  0  0  0  0  0  0  0  0  0  0
  -23.0551  -24.0571   18.2201 C   0  0  0  0  0  0  0  0  0  0  0  0
  -24.1257   -9.9725   21.5909 C   0  0  0  0  0  0  0  0  0  0  0  0
  -21.9124   -8.7727   20.3890 C   0  0  0  0  0  0  0  0  0  0  0  0
  -24.2652   -8.7479   20.9377 C   0  0  0  0  0  0  0  0  0  0  0  0
  -26.7396  -15.6354   20.3727 C   0  0  0  0  0  0  0  0  0  0  0  0
  -26.7475  -17.7271   19.6945 C   0  0  0  0  0  0  0  0  0  0  0  0
  -25.1371  -21.1592   16.2371 C   0  0  0  0  0  0  0  0  0  0  0  0
  -24.4733  -16.8441   20.2392 C   0  0  0  0  0  0  0  0  0  0  0  0
  -22.2637  -28.4226   21.3475 C   0  0  0  0  0  0  0  0  0  0  0  0
  -25.4781  -28.5885   21.7510 C   0  0  0  0  0  0  0  0  0  0  0  0
  -28.5578  -27.3035   21.0363 C   0  0  0  0  0  0  0  0  0  0  0  0
  -31.7074  -17.9902   16.4832 C   0  0  0  0  0  0  0  0  0  0  0  0
  -19.4960  -31.9034   23.8538 C   0  0  0  0  0  0  0  0  0  0  0  0
  -22.8088  -26.0559   22.0240 C   0  0  0  0  0  0  0  0  0  0  0  0
  -24.6469  -27.0504   19.9319 C   0  0  0  0  0  0  0  0  0  0  0  0
  -20.8765  -31.8685   23.2030 C   0  0  0  0  0  0  0  0  0  0  0  0
  -31.5785  -18.6346   20.1248 C   0  0  0  0  0  0  0  0  0  0  0  0
  -20.7886  -31.2871   21.7955 C   0  0  0  0  0  0  0  0  0  0  0  0
  -30.2780  -17.9519   20.5443 C   0  0  0  0  0  0  0  0  0  0  0  0
  -23.1939  -19.9777   15.5352 C   0  0  0  0  0  0  0  0  0  0  0  0
  -32.2039  -17.9619   18.9066 C   0  0  0  0  0  0  0  0  0  0  0  0
  -24.4211  -19.3355   14.9198 C   0  0  0  0  0  0  0  0  0  0  0  0
  -29.9741  -17.1820   18.1576 C   0  0  0  0  0  0  0  0  0  0  0  0
  -20.2770  -29.8419   21.8266 C   0  0  1  0  0  0  0  0  0  0  0  0
  -23.6744  -21.3785   15.8855 C   0  0  1  0  0  0  0  0  0  0  0  0
  -23.2714  -27.5092   21.9862 C   0  0  1  0  0  0  0  0  0  0  0  0
  -29.3033  -17.8661   19.3582 C   0  0  1  0  0  0  0  0  0  0  0  0
  -30.9993  -27.6759   21.4812 C   0  0  0  0  0  0  0  0  0  0  0  0
  -25.4795  -30.9175   19.7798 C   0  0  0  0  0  0  0  0  0  0  0  0
  -27.9539  -30.6211   19.5389 C   0  0  0  0  0  0  0  0  0  0  0  0
  -26.9815  -31.2225   21.7560 C   0  0  0  0  0  0  0  0  0  0  0  0
  -31.2318  -17.2295   14.1970 C   0  0  0  0  0  0  0  0  0  0  0  0
  -28.8432  -24.6597   22.3355 C   0  0  0  0  0  0  0  0  0  0  0  0
  -22.8822  -22.0165   17.0111 C   0  0  0  0  0  0  0  0  0  1  0  0
  -26.6545  -28.8840   20.8523 C   0  0  1  0  0  0  0  0  0  0  0  0
  -29.7362  -26.9565   21.9282 C   0  0  2  0  0  0  0  0  0  0  0  0
  -26.7496  -30.3897   20.4764 C   0  0  0  0  0  0  0  0  0  0  0  0
  -28.0263  -15.9063   20.1384 N   0  0  0  0  0  0  0  0  0  0  0  0
  -27.9988  -17.1854   19.7272 N   0  0  0  0  0  0  0  0  0  0  0  0
  -25.5349  -19.9619   15.6072 N   0  0  0  0  0  0  0  0  0  0  0  0
  -24.5287  -27.6833   21.2559 N   0  0  0  0  0  0  0  0  0  0  0  0
  -31.2469  -17.8330   17.8066 N   0  0  0  0  0  0  0  0  0  0  0  0
  -26.5395  -19.0028   19.3052 N   0  0  0  0  0  0  0  0  0  0  0  0
  -23.7526  -15.7270   20.6830 N   0  0  0  0  0  0  0  0  0  0  0  0
  -21.3345  -28.9399   22.2298 N   0  0  0  0  0  0  0  0  0  0  0  0
  -27.8326  -28.3637   21.5377 N   0  0  0  0  0  0  0  0  0  0  0  0
  -30.7608  -17.7948   15.4595 N   0  0  0  0  0  0  0  0  0  0  0  0
  -29.9950  -25.4892   21.8971 N   0  3  0  0  0  0  0  0  0  0  0  0
  -25.7936  -21.9529   16.8954 O   0  0  0  0  0  0  0  0  0  0  0  0
  -23.8564  -17.8976   19.9507 O   0  0  0  0  0  0  0  0  0  0  0  0
  -22.3256  -28.6430   20.1436 O   0  0  0  0  0  0  0  0  0  0  0  0
  -25.4078  -29.1350   22.8546 O   0  0  0  0  0  0  0  0  0  0  0  0
  -28.3080  -26.6973   19.9968 O   0  0  0  0  0  0  0  0  0  0  0  0
  -32.8933  -18.2332   16.2275 O   0  0  0  0  0  0  0  0  0  0  0  0
  -25.2232  -10.5689   22.1887 O   0  0  0  0  0  0  0  0  0  0  0  0
  -23.1356  -23.4208   17.0200 O   0  0  0  0  0  0  0  0  0  1  0  0
  -20.8493   -8.1960   19.8132 F   0  0  0  0  0  0  0  0  0  0  0  0
  -25.4595   -8.1425   20.8851 F   0  0  0  0  0  0  0  0  0  0  0  0
  1  2  1  0  0  0  0
  1  5  2  0  0  0  0
  2  6  2  0  0  0  0
  3 12  2  0  0  0  0
  3 19  1  0  0  0  0
  4 13  1  0  0  0  0
  4 19  2  0  0  0  0
  5 21  1  0  0  0  0
  6 23  1  0  0  0  0
  7 14  2  0  0  0  0
  7 22  1  0  0  0  0
  8 10  2  0  0  0  0
  8 25  1  0  0  0  0
  9 11  1  0  0  0  0
  9 25  2  0  0  0  0
 10 26  1  0  0  0  0
 11 26  2  0  0  0  0
 12 27  1  0  0  0  0
 13 27  2  0  0  0  0
 14 28  1  0  0  0  0
 15 16  2  0  0  0  0
 15 29  1  0  0  0  0
 16 30  1  0  0  0  0
 17 24  1  0  0  0  0
 17 28  2  0  0  0  0
 18 30  2  0  0  0  0
 18 31  1  0  0  0  0
 19 32  1  0  0  0  0
 20 32  1  0  0  0  0
 20 33  2  0  0  0  0
 20 35  1  0  0  0  0
 21 23  2  0  0  0  0
 21 40  1  0  0  0  0
 22 24  2  0  0  0  0
 22 41  1  0  0  0  0
 23 51  1  0  0  0  0
 24 42  1  0  0  0  0
 25 67  1  0  0  0  0
 26 74  1  0  0  0  0
 27 82  1  0  0  0  0
 28 83  1  0  0  0  0
 29 31  2  0  0  0  0
 29 82  1  0  0  0  0
 30 84  1  0  0  0  0
 31 85  1  0  0  0  0
 32 65  2  0  0  0  0
 33 66  1  0  0  0  0
 33 70  1  0  0  0  0
 34 52  1  0  0  0  0
 34 67  1  0  0  0  0
 34 76  2  0  0  0  0
 35 71  1  0  0  0  0
 35 77  2  0  0  0  0
 36 53  1  0  0  0  0
 36 72  1  0  0  0  0
 36 78  2  0  0  0  0
 37 62  1  0  0  0  0
 37 68  1  0  0  0  0
 37 79  2  0  0  0  0
 38 63  1  0  0  0  0
 38 73  1  0  0  0  0
 38 80  2  0  0  0  0
 39 69  1  0  0  0  0
 39 74  1  0  0  0  0
 39 81  2  0  0  0  0
 40 43  1  0  0  0  0
 41 53  1  0  0  0  0
 42 68  1  0  0  0  0
 43 45  1  0  0  0  0
 44 46  1  0  0  0  0
 44 48  1  0  0  0  0
 45 51  1  0  0  0  0
 46 54  1  0  0  0  0
 47 49  1  0  0  0  0
 47 52  1  0  0  0  0
 48 69  1  0  0  0  0
 49 67  1  0  0  0  0
 50 54  1  0  0  0  0
 50 69  1  0  0  0  0
 51 72  1  0  0  0  0
 52 61  1  0  0  0  0
 53 68  1  0  0  0  0
 54 66  1  0  0  0  0
 55 63  1  0  0  0  0
 56 64  1  0  0  0  0
 57 64  1  0  0  0  0
 58 64  1  0  0  0  0
 59 74  1  0  0  0  0
 60 75  1  0  0  0  0
 61 83  1  0  0  0  0
 62 64  1  0  0  0  0
 62 73  1  0  0  0  0
 63 75  1  0  0  0  0
 65 66  1  0  0  0  0
M  CHG  1  75   1
M  ISO  4  39 100  61 101  74 100  83 101
M  END
> <Batch ID>
0022

> <Smiles>
CNC(C)C(=O)NC(C(=O)N1Cc2cc([101O:1][101CH2:1]C3CCN(c4ccc([100N:0](C)[100C:0](=O)N5CCCC(n6nc(-c7ccc(Oc8ccc(F)cc8F)cc7)c(C(N)=O)c6N)C5)cc4)C3=O)ccc2CC1C(=O)NC1CCCc2ccccc21)C(C)(C)C

> <Shape>
0.209

> <Color>
0.081

> <Negative vol penalty>
0.000

$$$$

  -OEChem-04042321143D

 84 93  0     1  0  0  0  0  0999 V2000
  -31.0742  -33.2637   14.3875 C   0  0  0  0  0  0  0  0  0  0  0  0
  -31.1479  -32.4414   15.5071 C   0  0  0  0  0  0  0  0  0  0  0  0
  -24.4698   -9.5479   21.4056 C   0  0  0  0  0  0  0  0  0  0  0  0
  -24.8639  -10.5964   23.5462 C   0  0  0  0  0  0  0  0  0  0  0  0
  -30.2233  -34.3682   14.3899 C   0  0  0  0  0  0  0  0  0  0  0  0
  -30.3715  -32.7237   16.6305 C   0  0  0  0  0  0  0  0  0  0  0  0
  -28.1322  -28.5984   18.5310 C   0  0  0  0  0  0  0  0  0  0  0  0
  -30.1498  -20.9314   21.9721 C   0  0  0  0  0  0  0  0  0  0  0  0
  -30.0409  -19.6464   21.4408 C   0  0  0  0  0  0  0  0  0  0  0  0
  -24.1579   -8.3505   22.0494 C   0  0  0  0  0  0  0  0  0  0  0  0
  -24.5519   -9.3989   24.1901 C   0  0  0  0  0  0  0  0  0  0  0  0
  -28.9204  -27.7431   19.2997 C   0  0  0  0  0  0  0  0  0  0  0  0
  -21.5194   -7.0197   23.6925 C   0  0  0  0  0  0  0  0  0  0  0  0
  -20.3916   -6.3241   23.2569 C   0  0  0  0  0  0  0  0  0  0  0  0
  -28.0038  -28.7139   21.3089 C   0  0  0  0  0  0  0  0  0  0  0  0
  -27.6401  -19.7454   21.6934 C   0  0  0  0  0  0  0  0  0  0  0  0
  -21.7764   -4.4215   22.7095 C   0  0  0  0  0  0  0  0  0  0  0  0
  -24.8229  -10.6709   22.1540 C   0  0  0  0  0  0  0  0  0  0  0  0
  -24.2581  -12.9448   21.1453 C   0  0  0  0  0  0  0  0  0  0  0  0
  -29.4289  -34.6587   15.5103 C   0  0  0  0  0  0  0  0  0  0  0  0
  -27.2805  -29.5269   19.1466 C   0  0  0  0  0  0  0  0  0  0  0  0
  -29.5101  -33.8339   16.6485 C   0  0  0  0  0  0  0  0  0  0  0  0
  -27.2039  -29.5781   20.5457 C   0  0  0  0  0  0  0  0  0  0  0  0
  -29.0039  -21.6235   22.3642 C   0  0  0  0  0  0  0  0  0  0  0  0
  -28.7861  -19.0533   21.3014 C   0  0  0  0  0  0  0  0  0  0  0  0
  -24.1989   -8.2760   23.4416 C   0  0  0  0  0  0  0  0  0  0  0  0
  -28.8584  -27.8027   20.6889 C   0  0  0  0  0  0  0  0  0  0  0  0
  -22.7758   -6.4162   23.6366 C   0  0  0  0  0  0  0  0  0  0  0  0
  -20.5201   -5.0250   22.7654 C   0  0  0  0  0  0  0  0  0  0  0  0
  -22.9043   -5.1172   23.1451 C   0  0  0  0  0  0  0  0  0  0  0  0
  -27.7491  -21.0305   22.2248 C   0  0  0  0  0  0  0  0  0  0  0  0
  -25.1458  -11.9079   21.4895 C   0  0  0  0  0  0  0  0  0  0  0  0
  -25.0508  -13.8881   20.5383 C   0  0  0  0  0  0  0  0  0  0  0  0
  -22.8434  -13.0464   21.3554 C   0  0  0  0  0  0  0  0  0  0  0  0
  -27.0665  -32.6982   19.1766 C   0  0  0  0  0  0  0  0  0  0  0  0
  -24.3541  -32.1101   20.8558 C   0  0  0  0  0  0  0  0  0  0  0  0
  -22.5897  -29.9823   22.8573 C   0  0  0  0  0  0  0  0  0  0  0  0
  -29.7130  -16.9246   20.3239 C   0  0  0  0  0  0  0  0  0  0  0  0
  -28.5594  -35.8908   15.4839 C   0  0  0  0  0  0  0  0  0  0  0  0
  -26.4169  -30.4242   18.3031 C   0  0  0  0  0  0  0  0  0  0  0  0
  -26.2908  -30.5431   21.2552 C   0  0  0  0  0  0  0  0  0  0  0  0
  -27.4912  -35.9059   16.5743 C   0  0  0  0  0  0  0  0  0  0  0  0
  -29.8561  -13.6356   18.9677 C   0  0  0  0  0  0  0  0  0  0  0  0
  -28.0960  -35.5163   17.9194 C   0  0  0  0  0  0  0  0  0  0  0  0
  -28.5704  -12.9782   19.4746 C   0  0  0  0  0  0  0  0  0  0  0  0
  -29.1322  -24.6882   24.4088 C   0  0  0  0  0  0  0  0  0  0  0  0
  -30.4608  -14.5759   20.0088 C   0  0  0  0  0  0  0  0  0  0  0  0
  -29.3237  -23.1765   24.3073 C   0  0  0  0  0  0  0  0  0  0  0  0
  -29.1201  -24.1145   22.0856 C   0  0  0  0  0  0  0  0  0  0  0  0
  -28.2546  -14.9326   21.0454 C   0  0  0  0  0  0  0  0  0  0  0  0
  -28.6652  -34.0930   17.8769 C   0  0  1  0  0  0  0  0  0  0  0  0
  -25.9671  -31.6834   19.0376 C   0  0  1  0  0  0  0  0  0  0  0  0
  -29.6191  -25.1931   23.0537 C   0  0  1  0  0  0  0  0  0  0  0  0
  -27.5736  -14.0263   20.0070 C   0  0  2  0  0  0  0  0  0  0  0  0
  -20.4192  -29.7940   24.1026 C   0  0  0  0  0  0  0  0  0  0  0  0
  -25.4292  -33.9860   23.0087 C   0  0  0  0  0  0  0  0  0  0  0  0
  -23.7338  -33.0345   24.5861 C   0  0  0  0  0  0  0  0  0  0  0  0
  -22.9871  -34.2363   22.5317 C   0  0  0  0  0  0  0  0  0  0  0  0
  -21.7583  -27.6179   21.2834 C   0  0  0  0  0  0  0  0  0  0  0  0
  -29.1121  -26.5841   22.7153 C   0  0  0  0  0  0  0  0  0  1  0  0
  -24.0178  -31.9377   22.3173 C   0  0  1  0  0  0  0  0  0  0  0  0
  -21.1492  -29.5070   22.7997 C   0  0  2  0  0  0  0  0  0  0  0  0
  -24.0607  -33.2817   23.0979 C   0  0  0  0  0  0  0  0  0  0  0  0
  -26.4059  -12.1676   21.1309 N   0  0  0  0  0  0  0  0  0  0  0  0
  -26.3157  -13.3785   20.5549 N   0  0  0  0  0  0  0  0  0  0  0  0
  -29.1433  -22.8920   22.8860 N   0  0  3  0  0  0  0  0  0  0  0  0
  -25.4709  -31.4040   20.3867 N   0  0  0  0  0  0  0  0  0  0  0  0
  -29.4602  -15.5436   20.4640 N   0  0  0  0  0  0  0  0  0  0  0  0
  -24.7821  -15.0954   19.9973 N   0  0  0  0  0  0  0  0  0  0  0  0
  -22.1852  -11.9869   21.9946 N   0  0  0  0  0  0  0  0  0  0  0  0
  -28.6761  -17.7479   20.7615 N   0  0  0  0  0  0  0  0  0  0  0  0
  -27.5990  -33.1192   17.9730 N   0  0  0  0  0  0  0  0  0  0  0  0
  -22.7256  -31.2618   22.3619 N   0  0  0  0  0  0  0  0  0  0  0  0
  -21.0977  -28.0394   22.5455 N   0  3  0  0  0  0  0  0  0  0  0  0
  -22.1800  -14.0398   20.9726 O   0  0  0  0  0  0  0  0  0  0  0  0
  -27.4054  -33.0727   20.2931 O   0  0  0  0  0  0  0  0  0  0  0  0
  -23.6477  -32.8386   20.1545 O   0  0  0  0  0  0  0  0  0  0  0  0
  -23.5025  -29.2893   23.3012 O   0  0  0  0  0  0  0  0  0  0  0  0
  -30.7602  -17.3454   19.8254 O   0  0  0  0  0  0  0  0  0  0  0  0
  -23.8944   -7.1078   24.0702 O   0  0  0  0  0  0  0  0  0  0  0  0
  -29.6272  -26.9694   21.4416 O   0  0  0  0  0  0  0  0  0  1  0  0
  -19.4368   -4.3566   22.3485 F   0  0  0  0  0  0  0  0  0  0  0  0
  -24.1085   -4.5317   23.0901 F   0  0  0  0  0  0  0  0  0  0  0  0
  -26.3051  -21.8525   22.6977 Cl  0  0  0  0  0  0  0  0  0  0  0  0
  1  2  1  0  0  0  0
  1  5  2  0  0  0  0
  2  6  2  0  0  0  0
  3 10  2  0  0  0  0
  3 18  1  0  0  0  0
  4 11  1  0  0  0  0
  4 18  2  0  0  0  0
  5 20  1  0  0  0  0
  6 22  1  0  0  0  0
  7 12  2  0  0  0  0
  7 21  1  0  0  0  0
  8  9  2  0  0  0  0
  8 24  1  0  0  0  0
  9 25  1  0  0  0  0
 10 26  1  0  0  0  0
 11 26  2  0  0  0  0
 12 27  1  0  0  0  0
 13 14  2  0  0  0  0
 13 28  1  0  0  0  0
 14 29  1  0  0  0  0
 15 23  1  0  0  0  0
 15 27  2  0  0  0  0
 16 25  2  0  0  0  0
 16 31  1  0  0  0  0
 17 29  2  0  0  0  0
 17 30  1  0  0  0  0
 18 32  1  0  0  0  0
 19 32  1  0  0  0  0
 19 33  2  0  0  0  0
 19 34  1  0  0  0  0
 20 22  2  0  0  0  0
 20 39  1  0  0  0  0
 21 23  2  0  0  0  0
 21 40  1  0  0  0  0
 22 51  1  0  0  0  0
 23 41  1  0  0  0  0
 24 31  2  0  0  0  0
 24 66  1  0  0  0  0
 25 71  1  0  0  0  0
 26 80  1  0  0  0  0
 27 81  1  0  0  0  0
 28 30  2  0  0  0  0
 28 80  1  0  0  0  0
 29 82  1  0  0  0  0
 30 83  1  0  0  0  0
 31 84  1  0  0  0  0
 32 64  2  0  0  0  0
 33 65  1  0  0  0  0
 33 69  1  0  0  0  0
 34 70  1  0  0  0  0
 34 75  2  0  0  0  0
 35 52  1  0  0  0  0
 35 72  1  0  0  0  0
 35 76  2  0  0  0  0
 36 61  1  0  0  0  0
 36 67  1  0  0  0  0
 36 77  2  0  0  0  0
 37 62  1  0  0  0  0
 37 73  1  0  0  0  0
 37 78  2  0  0  0  0
 38 68  1  0  0  0  0
 38 71  1  0  0  0  0
 38 79  2  0  0  0  0
 39 42  1  0  0  0  0
 40 52  1  0  0  0  0
 41 67  1  0  0  0  0
 42 44  1  0  0  0  0
 43 45  1  0  0  0  0
 43 47  1  0  0  0  0
 44 51  1  0  0  0  0
 45 54  1  0  0  0  0
 46 48  1  0  0  0  0
 46 53  1  0  0  0  0
 47 68  1  0  0  0  0
 48 66  1  0  0  0  0
 49 53  1  0  0  0  0
 49 66  1  0  0  0  0
 50 54  1  0  0  0  0
 50 68  1  0  0  0  0
 51 72  1  0  0  0  0
 52 67  1  0  0  0  0
 53 60  1  0  0  0  0
 54 65  1  0  0  0  0
 55 62  1  0  0  0  0
 56 63  1  0  0  0  0
 57 63  1  0  0  0  0
 58 63  1  0  0  0  0
 59 74  1  0  0  0  0
 60 81  1  0  0  0  0
 61 63  1  0  0  0  0
 61 73  1  0  0  0  0
 62 74  1  0  0  0  0
 64 65  1  0  0  0  0
M  CHG  1  74   1
M  ISO  4  38 100  60 101  71 100  81 101
M  END
> <Batch ID>
0022

> <Smiles>
CNC(C)C(=O)NC(C(=O)N1Cc2cc([101O:1][101CH2:1]C3CCN(c4ccc([100NH:0][100C:0](=O)N5CCCC(n6nc(-c7ccc(Oc8ccc(F)cc8F)cc7)c(C(N)=O)c6N)C5)cc4Cl)C3)ccc2CC1C(=O)NC1CCCc2ccccc21)C(C)(C)C

> <Shape>
0.262

> <Color>
0.124

> <Negative vol penalty>
0.000

$$$$

  -OEChem-04042321143D

 83 91  0     1  0  0  0  0  0999 V2000
  -26.8598  -19.1699   17.8141 C   0  0  0  0  0  0  0  0  0  0  0  0
  -27.5548  -19.5668   18.9520 C   0  0  0  0  0  0  0  0  0  0  0  0
  -23.0835   -9.9116   19.8944 C   0  0  0  0  0  0  0  0  0  0  0  0
  -23.8455   -9.8531   22.1863 C   0  0  0  0  0  0  0  0  0  0  0  0
  -27.0585  -19.8404   16.6080 C   0  0  0  0  0  0  0  0  0  0  0  0
  -28.4499  -20.6339   18.8841 C   0  0  0  0  0  0  0  0  0  0  0  0
  -27.9549  -23.8356   22.7763 C   0  0  0  0  0  0  0  0  0  0  0  0
  -30.3569  -18.3489   24.2730 C   0  0  0  0  0  0  0  0  0  0  0  0
  -32.5522  -17.5516   23.6549 C   0  0  0  0  0  0  0  0  0  0  0  0
  -29.7810  -17.4873   23.3394 C   0  0  0  0  0  0  0  0  0  0  0  0
  -31.9763  -16.6899   22.7213 C   0  0  0  0  0  0  0  0  0  0  0  0
  -22.3564   -8.7403   20.1062 C   0  0  0  0  0  0  0  0  0  0  0  0
  -23.1184   -8.6818   22.3982 C   0  0  0  0  0  0  0  0  0  0  0  0
  -28.5171  -23.4508   23.9927 C   0  0  0  0  0  0  0  0  0  0  0  0
  -23.4560   -5.3847   21.7304 C   0  0  0  0  0  0  0  0  0  0  0  0
  -24.0868   -4.3450   22.4135 C   0  0  0  0  0  0  0  0  0  0  0  0
  -30.4222  -24.8636   23.5522 C   0  0  0  0  0  0  0  0  0  0  0  0
  -22.3848   -4.4374   24.1257 C   0  0  0  0  0  0  0  0  0  0  0  0
  -23.8281  -10.4680   20.9344 C   0  0  0  0  0  0  0  0  0  0  0  0
  -24.1338  -13.0004   20.8983 C   0  0  0  0  0  0  0  0  0  0  0  0
  -27.9493  -20.9224   16.5275 C   0  0  0  0  0  0  0  0  0  0  0  0
  -28.6284  -24.7304   21.9323 C   0  0  0  0  0  0  0  0  0  0  0  0
  -28.6618  -21.3187   17.6754 C   0  0  0  0  0  0  0  0  0  0  0  0
  -29.8652  -25.2601   22.3268 C   0  0  0  0  0  0  0  0  0  0  0  0
  -31.7424  -18.3811   24.4307 C   0  0  0  0  0  0  0  0  0  0  0  0
  -30.5907  -16.6578   22.5636 C   0  0  0  0  0  0  0  0  0  0  0  0
  -22.3738   -8.1254   21.3581 C   0  0  0  0  0  0  0  0  0  0  0  0
  -29.7523  -23.9626   24.3795 C   0  0  0  0  0  0  0  0  0  0  0  0
  -22.2897   -5.9509   22.2450 C   0  0  0  0  0  0  0  0  0  0  0  0
  -23.5512   -3.8713   23.6111 C   0  0  0  0  0  0  0  0  0  0  0  0
  -21.7541   -5.4772   23.4426 C   0  0  0  0  0  0  0  0  0  0  0  0
  -24.5799  -11.6777   20.7161 C   0  0  0  0  0  0  0  0  0  0  0  0
  -25.2148  -13.7771   20.5596 C   0  0  0  0  0  0  0  0  0  0  0  0
  -22.8566  -13.4838   21.3349 C   0  0  0  0  0  0  0  0  0  0  0  0
  -29.8126  -24.5759   18.9865 C   0  0  0  0  0  0  0  0  0  0  0  0
  -30.3507  -27.7401   19.4559 C   0  0  0  0  0  0  0  0  0  0  0  0
  -30.8365  -30.3008   21.6590 C   0  0  0  0  0  0  0  0  0  0  0  0
  -30.6657  -14.8942   20.7662 C   0  0  0  0  0  0  0  0  0  0  0  0
  -28.1664  -21.5861   15.1907 C   0  0  0  0  0  0  0  0  0  0  0  0
  -27.9961  -25.1561   20.6356 C   0  0  0  0  0  0  0  0  0  0  0  0
  -30.6193  -26.2394   21.4661 C   0  0  0  0  0  0  0  0  0  0  0  0
  -28.8524  -22.9461   15.2901 C   0  0  0  0  0  0  0  0  0  0  0  0
  -29.5835  -12.5449   18.3195 C   0  0  0  0  0  0  0  0  0  0  0  0
  -30.0540  -22.8707   16.2268 C   0  0  0  0  0  0  0  0  0  0  0  0
  -28.1486  -12.2186   18.7398 C   0  0  0  0  0  0  0  0  0  0  0  0
  -30.4964  -12.7466   19.5276 C   0  0  0  0  0  0  0  0  0  0  0  0
  -28.5807  -13.3974   20.9332 C   0  0  0  0  0  0  0  0  0  0  0  0
  -29.6228  -22.4874   17.6475 C   0  0  1  0  0  0  0  0  0  0  0  0
  -29.0084  -25.6759   19.6195 C   0  0  1  0  0  0  0  0  0  0  0  0
  -27.6093  -13.2496   19.7508 C   0  0  2  0  0  0  0  0  0  0  0  0
  -31.2881  -32.7678   21.7435 C   0  0  0  0  0  0  0  0  0  0  0  0
  -33.2598  -27.2315   18.6886 C   0  0  0  0  0  0  0  0  0  0  0  0
  -33.8393  -29.4516   19.6903 C   0  0  0  0  0  0  0  0  0  0  0  0
  -32.2836  -29.3313   17.7440 C   0  0  0  0  0  0  0  0  0  0  0  0
  -28.3174  -30.8295   23.1195 C   0  0  0  0  0  0  0  0  0  0  0  0
  -33.4109  -20.9884   23.9262 C   0  0  0  0  0  0  0  0  0  0  0  0
  -32.3617  -19.3080   25.4349 C   0  0  0  0  0  0  0  0  0  0  0  0
  -31.1551  -21.7727   26.8821 C   0  0  0  0  0  0  0  0  0  0  0  0
  -32.4692  -21.6998   26.1192 C   0  0  0  0  0  0  0  0  0  0  0  0
  -29.9878  -22.2818   26.0454 C   0  0  0  0  0  0  0  0  0  1  0  0
  -31.4879  -28.5596   20.0164 C   0  0  1  0  0  0  0  0  0  0  0  0
  -30.2200  -31.6853   21.7461 C   0  0  2  0  0  0  0  0  0  0  0  0
  -32.7046  -28.6236   19.0504 C   0  0  0  0  0  0  0  0  0  0  0  0
  -25.8456  -11.6139   20.2941 N   0  0  0  0  0  0  0  0  0  0  0  0
  -26.2040  -12.9063   20.2084 N   0  0  0  0  0  0  0  0  0  0  0  0
  -29.9626  -26.6201   20.2046 N   0  0  0  0  0  0  0  0  0  0  0  0
  -29.9237  -13.7396   20.4391 N   0  0  0  0  0  0  0  0  0  0  0  0
  -25.4062  -15.1131   20.5309 N   0  0  0  0  0  0  0  0  0  0  0  0
  -21.8580  -12.5496   21.6422 N   0  0  0  0  0  0  0  0  0  0  0  0
  -30.0061  -15.7821   21.6153 N   0  0  0  0  0  0  0  0  0  0  0  0
  -29.0510  -23.6297   18.3277 N   0  0  0  0  0  0  0  0  0  0  0  0
  -30.9245  -29.8621   20.3548 N   0  0  0  0  0  0  0  0  0  0  0  0
  -29.4194  -31.8180   22.9961 N   0  3  0  0  0  0  0  0  0  0  0  0
  -32.3632  -20.7499   24.9870 N   0  3  1  0  0  0  0  0  0  0  0  0
  -22.6028  -14.7083   21.4333 O   0  0  0  0  0  0  0  0  0  0  0  0
  -31.0339  -24.5856   19.0871 O   0  0  0  0  0  0  0  0  0  0  0  0
  -29.8214  -28.0853   18.3965 O   0  0  0  0  0  0  0  0  0  0  0  0
  -31.2067  -29.6730   22.6486 O   0  0  0  0  0  0  0  0  0  0  0  0
  -31.7919  -15.0945   20.3038 O   0  0  0  0  0  0  0  0  0  0  0  0
  -21.6642   -6.9825   21.5652 O   0  0  0  0  0  0  0  0  0  0  0  0
  -30.3035  -23.5882   25.5660 O   0  0  0  0  0  0  0  0  0  1  0  0
  -24.1562   -2.8717   24.2662 F   0  0  0  0  0  0  0  0  0  0  0  0
  -20.6331   -6.0163   23.9413 F   0  0  0  0  0  0  0  0  0  0  0  0
  1  2  1  0  0  0  0
  1  5  2  0  0  0  0
  2  6  2  0  0  0  0
  3 12  2  0  0  0  0
  3 19  1  0  0  0  0
  4 13  1  0  0  0  0
  4 19  2  0  0  0  0
  5 21  1  0  0  0  0
  6 23  1  0  0  0  0
  7 14  2  0  0  0  0
  7 22  1  0  0  0  0
  8 10  2  0  0  0  0
  8 25  1  0  0  0  0
  9 11  1  0  0  0  0
  9 25  2  0  0  0  0
 10 26  1  0  0  0  0
 11 26  2  0  0  0  0
 12 27  1  0  0  0  0
 13 27  2  0  0  0  0
 14 28  1  0  0  0  0
 15 16  2  0  0  0  0
 15 29  1  0  0  0  0
 16 30  1  0  0  0  0
 17 24  1  0  0  0  0
 17 28  2  0  0  0  0
 18 30  2  0  0  0  0
 18 31  1  0  0  0  0
 19 32  1  0  0  0  0
 20 32  1  0  0  0  0
 20 33  2  0  0  0  0
 20 34  1  0  0  0  0
 21 23  2  0  0  0  0
 21 39  1  0  0  0  0
 22 24  2  0  0  0  0
 22 40  1  0  0  0  0
 23 48  1  0  0  0  0
 24 41  1  0  0  0  0
 25 57  1  0  0  0  0
 26 70  1  0  0  0  0
 27 80  1  0  0  0  0
 28 81  1  0  0  0  0
 29 31  2  0  0  0  0
 29 80  1  0  0  0  0
 30 82  1  0  0  0  0
 31 83  1  0  0  0  0
 32 64  2  0  0  0  0
 33 65  1  0  0  0  0
 33 68  1  0  0  0  0
 34 69  1  0  0  0  0
 34 75  2  0  0  0  0
 35 49  1  0  0  0  0
 35 71  1  0  0  0  0
 35 76  2  0  0  0  0
 36 61  1  0  0  0  0
 36 66  1  0  0  0  0
 36 77  2  0  0  0  0
 37 62  1  0  0  0  0
 37 72  1  0  0  0  0
 37 78  2  0  0  0  0
 38 67  1  0  0  0  0
 38 70  1  0  0  0  0
 38 79  2  0  0  0  0
 39 42  1  0  0  0  0
 40 49  1  0  0  0  0
 41 66  1  0  0  0  0
 42 44  1  0  0  0  0
 43 45  1  0  0  0  0
 43 46  1  0  0  0  0
 44 48  1  0  0  0  0
 45 50  1  0  0  0  0
 46 67  1  0  0  0  0
 47 50  1  0  0  0  0
 47 67  1  0  0  0  0
 48 71  1  0  0  0  0
 49 66  1  0  0  0  0
 50 65  1  0  0  0  0
 51 62  1  0  0  0  0
 52 63  1  0  0  0  0
 53 63  1  0  0  0  0
 54 63  1  0  0  0  0
 55 73  1  0  0  0  0
 56 74  1  0  0  0  0
 57 74  1  0  0  0  0
 58 59  1  0  0  0  0
 58 60  1  0  0  0  0
 59 74  1  0  0  0  0
 60 81  1  0  0  0  0
 61 63  1  0  0  0  0
 61 72  1  0  0  0  0
 62 73  1  0  0  0  0
 64 65  1  0  0  0  0
M  CHG  2  73   1  74   1
M  ISO  4  38 100  60 101  70 100  81 101
M  END
> <Batch ID>
0022

> <Smiles>
CNC(C)C(=O)NC(C(=O)N1Cc2cc([101O:1][101CH2:1]CCN(C)Cc3ccc([100NH:0][100C:0](=O)N4CCCC(n5nc(-c6ccc(Oc7ccc(F)cc7F)cc6)c(C(N)=O)c5N)C4)cc3)ccc2CC1C(=O)NC1CCCc2ccccc21)C(C)(C)C

> <Shape>
0.252

> <Color>
0.203

> <Negative vol penalty>
0.000

$$$$

  -OEChem-04042321143D

 87 95  0     1  0  0  0  0  0999 V2000
  -16.1020  -28.7857   23.7905 C   0  0  0  0  0  0  0  0  0  0  0  0
  -17.2073  -28.0045   24.1124 C   0  0  0  0  0  0  0  0  0  0  0  0
  -23.0116   -9.8746   20.1422 C   0  0  0  0  0  0  0  0  0  0  0  0
  -23.7154  -10.1105   22.4413 C   0  0  0  0  0  0  0  0  0  0  0  0
  -16.2740  -30.1245   23.4414 C   0  0  0  0  0  0  0  0  0  0  0  0
  -18.4853  -28.5615   24.0842 C   0  0  0  0  0  0  0  0  0  0  0  0
  -21.2504  -27.2848   28.1302 C   0  0  0  0  0  0  0  0  0  0  0  0
  -28.6715  -20.6013   22.9436 C   0  0  0  0  0  0  0  0  0  0  0  0
  -27.7471  -21.2188   23.7861 C   0  0  0  0  0  0  0  0  0  0  0  0
  -22.2191   -8.7829   20.4968 C   0  0  0  0  0  0  0  0  0  0  0  0
  -22.9229   -9.0189   22.7959 C   0  0  0  0  0  0  0  0  0  0  0  0
  -21.8141  -26.0097   28.1396 C   0  0  0  0  0  0  0  0  0  0  0  0
  -19.2087   -8.2555   21.9433 C   0  0  0  0  0  0  0  0  0  0  0  0
  -17.9131   -8.2009   21.4294 C   0  0  0  0  0  0  0  0  0  0  0  0
  -23.9281  -26.9459   27.4513 C   0  0  0  0  0  0  0  0  0  0  0  0
  -18.4313   -6.1044   20.3460 C   0  0  0  0  0  0  0  0  0  0  0  0
  -23.7598  -10.5384   21.1144 C   0  0  0  0  0  0  0  0  0  0  0  0
  -24.1991  -13.0211   20.7261 C   0  0  0  0  0  0  0  0  0  0  0  0
  -17.5539  -30.7007   23.4183 C   0  0  0  0  0  0  0  0  0  0  0  0
  -22.0197  -28.4006   27.7702 C   0  0  0  0  0  0  0  0  0  0  0  0
  -18.6747  -29.9089   23.7332 C   0  0  0  0  0  0  0  0  0  0  0  0
  -23.3725  -28.2344   27.4407 C   0  0  0  0  0  0  0  0  0  0  0  0
  -28.5971  -19.2274   22.7141 C   0  0  0  0  0  0  0  0  0  0  0  0
  -26.6739  -19.0885   24.1698 C   0  0  0  0  0  0  0  0  0  0  0  0
  -26.7483  -20.4624   24.3992 C   0  0  0  0  0  0  0  0  0  0  0  0
  -22.1747   -8.3551   21.8236 C   0  0  0  0  0  0  0  0  0  0  0  0
  -23.1524  -25.8397   27.7973 C   0  0  0  0  0  0  0  0  0  0  0  0
  -20.1156   -7.2347   21.6585 C   0  0  0  0  0  0  0  0  0  0  0  0
  -17.5244   -7.1253   20.6308 C   0  0  0  0  0  0  0  0  0  0  0  0
  -19.7269   -6.1591   20.8599 C   0  0  0  0  0  0  0  0  0  0  0  0
  -27.5983  -18.4710   23.3272 C   0  0  0  0  0  0  0  0  0  0  0  0
  -24.5791  -11.6658   20.7486 C   0  0  0  0  0  0  0  0  0  0  0  0
  -25.3271  -13.6872   20.3133 C   0  0  0  0  0  0  0  0  0  0  0  0
  -22.9391  -13.6241   21.0495 C   0  0  0  0  0  0  0  0  0  0  0  0
  -21.8826  -30.5643   25.4457 C   0  0  0  0  0  0  0  0  0  0  0  0
  -30.8551  -14.4743   20.6471 C   0  0  0  0  0  0  0  0  0  0  0  0
  -24.3203  -31.9240   27.0984 C   0  0  0  0  0  0  0  0  0  0  0  0
  -26.8986  -31.5367   29.3005 C   0  0  0  0  0  0  0  0  0  0  0  0
  -17.6946  -32.1396   22.9888 C   0  0  0  0  0  0  0  0  0  0  0  0
  -21.4038  -29.7727   27.7909 C   0  0  0  0  0  0  0  0  0  0  0  0
  -24.2468  -29.4023   27.0664 C   0  0  0  0  0  0  0  0  0  0  0  0
  -19.0460  -32.7528   23.3466 C   0  0  0  0  0  0  0  0  0  0  0  0
  -29.6655  -11.9563   18.3922 C   0  0  0  0  0  0  0  0  0  0  0  0
  -20.1794  -31.8050   22.9674 C   0  0  0  0  0  0  0  0  0  0  0  0
  -28.2142  -11.7461   18.8221 C   0  0  0  0  0  0  0  0  0  0  0  0
  -30.5636  -12.2592   19.5874 C   0  0  0  0  0  0  0  0  0  0  0  0
  -28.6559  -13.2108   20.8432 C   0  0  0  0  0  0  0  0  0  0  0  0
  -20.0747  -30.4834   23.7381 C   0  0  1  0  0  0  0  0  0  0  0  0
  -22.1451  -30.7738   26.9102 C   0  0  1  0  0  0  0  0  0  0  0  0
  -27.7092  -12.9325   19.6622 C   0  0  2  0  0  0  0  0  0  0  0  0
  -25.6136  -18.2575   24.8167 C   0  0  0  0  0  0  0  0  0  0  0  0
  -28.7350  -32.8216   30.4291 C   0  0  0  0  0  0  0  0  0  0  0  0
  -25.9229  -31.9093   24.5020 C   0  0  0  0  0  0  0  0  0  0  0  0
  -27.9920  -32.2928   25.8586 C   0  0  0  0  0  0  0  0  0  0  0  0
  -26.1653  -33.9916   25.8658 C   0  0  0  0  0  0  0  0  0  0  0  0
  -25.8118  -30.9529   31.9906 C   0  0  0  0  0  0  0  0  0  0  0  0
  -31.6721  -18.6596   23.1710 C   0  0  0  0  0  0  0  0  0  0  0  0
  -29.5874  -18.5719   21.8120 C   0  0  0  0  0  0  0  0  0  0  0  0
  -30.2421  -15.5885   21.4576 C   0  0  0  0  0  0  0  0  0  0  0  0
  -24.7653  -22.8730   26.5144 C   0  0  0  0  0  0  0  0  0  0  0  0
  -25.8569  -22.5080   25.5157 C   0  0  0  0  0  0  0  0  0  0  0  0
  -31.2381  -16.7121   21.6806 C   0  0  0  0  0  0  0  0  0  0  0  0
  -24.7671  -24.3517   26.8839 C   0  0  0  0  0  0  0  0  0  1  0  0
  -25.8247  -31.8001   27.0797 C   0  0  1  0  0  0  0  0  0  0  0  0
  -27.2997  -32.3295   30.5313 C   0  0  2  0  0  0  0  0  0  0  0  0
  -26.4595  -32.4760   25.8317 C   0  0  0  0  0  0  0  0  0  0  0  0
  -25.8492  -11.4802   20.3794 N   0  0  0  0  0  0  0  0  0  0  0  0
  -26.2771  -12.7277   20.1208 N   0  0  0  0  0  0  0  0  0  0  0  0
  -23.5968  -30.7229   27.0953 N   0  0  0  0  0  0  0  0  0  0  0  0
  -30.0379  -13.3776   20.3724 N   0  0  0  0  0  0  0  0  0  0  0  0
  -25.5891  -14.9942   20.0997 N   0  0  0  0  0  0  0  0  0  0  0  0
  -21.8858  -12.7937   21.4563 N   0  0  0  0  0  0  0  0  0  0  0  0
  -25.8386  -21.0929   25.2337 N   0  0  0  0  0  0  0  0  0  0  0  0
  -20.5488  -30.6509   25.0952 N   0  0  0  0  0  0  0  0  0  0  0  0
  -26.2942  -32.3356   28.3530 N   0  0  0  0  0  0  0  0  0  0  0  0
  -27.1782  -31.4854   31.7535 N   0  3  0  0  0  0  0  0  0  0  0  0
  -30.6197  -17.7842   22.5406 N   0  3  1  0  0  0  0  0  0  0  0  0
  -22.7479  -14.8609   20.9639 O   0  0  0  0  0  0  0  0  0  0  0  0
  -22.8209  -30.3421   24.6894 O   0  0  0  0  0  0  0  0  0  0  0  0
  -32.0245  -14.5787   20.2678 O   0  0  0  0  0  0  0  0  0  0  0  0
  -23.8060  -33.0450   27.1223 O   0  0  0  0  0  0  0  0  0  0  0  0
  -27.1044  -30.3302   29.1890 O   0  0  0  0  0  0  0  0  0  0  0  0
  -21.4013   -7.2900   22.1701 O   0  0  0  0  0  0  0  0  0  0  0  0
  -23.7049  -24.5961   27.8050 O   0  0  0  0  0  0  0  0  0  1  0  0
  -16.2798   -7.0722   20.1386 F   0  0  0  0  0  0  0  0  0  0  0  0
  -20.5934   -5.1748   20.5838 F   0  0  0  0  0  0  0  0  0  0  0  0
  -27.5262  -17.1503   23.1039 F   0  0  0  0  0  0  0  0  0  0  0  0
  1  2  1  0  0  0  0
  1  5  2  0  0  0  0
  2  6  2  0  0  0  0
  3 10  2  0  0  0  0
  3 17  1  0  0  0  0
  4 11  1  0  0  0  0
  4 17  2  0  0  0  0
  5 19  1  0  0  0  0
  6 21  1  0  0  0  0
  7 12  2  0  0  0  0
  7 20  1  0  0  0  0
  8  9  2  0  0  0  0
  8 23  1  0  0  0  0
  9 25  1  0  0  0  0
 10 26  1  0  0  0  0
 11 26  2  0  0  0  0
 12 27  1  0  0  0  0
 13 14  2  0  0  0  0
 13 28  1  0  0  0  0
 14 29  1  0  0  0  0
 15 22  1  0  0  0  0
 15 27  2  0  0  0  0
 16 29  2  0  0  0  0
 16 30  1  0  0  0  0
 17 32  1  0  0  0  0
 18 32  1  0  0  0  0
 18 33  2  0  0  0  0
 18 34  1  0  0  0  0
 19 21  2  0  0  0  0
 19 39  1  0  0  0  0
 20 22  2  0  0  0  0
 20 40  1  0  0  0  0
 21 48  1  0  0  0  0
 22 41  1  0  0  0  0
 23 31  2  0  0  0  0
 23 58  1  0  0  0  0
 24 25  2  0  0  0  0
 24 31  1  0  0  0  0
 24 51  1  0  0  0  0
 25 73  1  0  0  0  0
 26 83  1  0  0  0  0
 27 84  1  0  0  0  0
 28 30  2  0  0  0  0
 28 83  1  0  0  0  0
 29 85  1  0  0  0  0
 30 86  1  0  0  0  0
 31 87  1  0  0  0  0
 32 67  2  0  0  0  0
 33 68  1  0  0  0  0
 33 71  1  0  0  0  0
 34 72  1  0  0  0  0
 34 78  2  0  0  0  0
 35 49  1  0  0  0  0
 35 74  1  0  0  0  0
 35 79  2  0  0  0  0
 36 59  1  0  0  0  0
 36 70  1  0  0  0  0
 36 80  2  0  0  0  0
 37 64  1  0  0  0  0
 37 69  1  0  0  0  0
 37 81  2  0  0  0  0
 38 65  1  0  0  0  0
 38 75  1  0  0  0  0
 38 82  2  0  0  0  0
 39 42  1  0  0  0  0
 40 49  1  0  0  0  0
 41 69  1  0  0  0  0
 42 44  1  0  0  0  0
 43 45  1  0  0  0  0
 43 46  1  0  0  0  0
 44 48  1  0  0  0  0
 45 50  1  0  0  0  0
 46 70  1  0  0  0  0
 47 50  1  0  0  0  0
 47 70  1  0  0  0  0
 48 74  1  0  0  0  0
 49 69  1  0  0  0  0
 50 68  1  0  0  0  0
 52 65  1  0  0  0  0
 53 66  1  0  0  0  0
 54 66  1  0  0  0  0
 55 66  1  0  0  0  0
 56 76  1  0  0  0  0
 57 77  1  0  0  0  0
 58 77  1  0  0  0  0
 59 62  1  0  0  0  0
 60 61  1  0  0  0  0
 60 63  1  0  0  0  0
 61 73  1  0  0  0  0
 62 77  1  0  0  0  0
 63 84  1  0  0  0  0
 64 66  1  0  0  0  0
 64 75  1  0  0  0  0
 65 76  1  0  0  0  0
 67 68  1  0  0  0  0
M  CHG  2  76   1  77   1
M  ISO  4  36 100  59 100  63 101  84 101
M  END
> <Batch ID>
0022

> <Smiles>
CNC(C)C(=O)NC(C(=O)N1Cc2cc([101O:1][101CH2:1]CCNc3ccc(CN(C)C[100CH2:0][100C:0](=O)N4CCCC(n5nc(-c6ccc(Oc7ccc(F)cc7F)cc6)c(C(N)=O)c5N)C4)c(F)c3C)ccc2CC1C(=O)NC1CCCc2ccccc21)C(C)(C)C

> <Shape>
0.234

> <Color>
0.196

> <Negative vol penalty>
0.000

$$$$

  -OEChem-04042321143D

 85 94  0     1  0  0  0  0  0999 V2000
  -23.0530   -7.7200   24.4857 C   0  0  0  0  0  0  0  0  0  0  0  0
  -24.2506   -8.4147   24.6220 C   0  0  0  0  0  0  0  0  0  0  0  0
  -25.0280  -30.7899   21.0033 C   0  0  0  0  0  0  0  0  0  0  0  0
  -24.6333  -29.3731   22.9200 C   0  0  0  0  0  0  0  0  0  0  0  0
  -22.3255   -7.8130   23.3000 C   0  0  0  0  0  0  0  0  0  0  0  0
  -24.7218   -9.2022   23.5721 C   0  0  0  0  0  0  0  0  0  0  0  0
  -28.4003  -15.2208   22.3225 C   0  0  0  0  0  0  0  0  0  0  0  0
  -24.3865  -31.8454   21.6513 C   0  0  0  0  0  0  0  0  0  0  0  0
  -23.9918  -30.4287   23.5681 C   0  0  0  0  0  0  0  0  0  0  0  0
  -29.4961  -15.6818   21.5941 C   0  0  0  0  0  0  0  0  0  0  0  0
  -25.1248  -34.1155   24.0460 C   0  0  0  0  0  0  0  0  0  0  0  0
  -25.7327  -35.3700   23.9996 C   0  0  0  0  0  0  0  0  0  0  0  0
  -28.1151  -15.8304   19.6219 C   0  0  0  0  0  0  0  0  0  0  0  0
  -29.9351  -20.1811   19.7458 C   0  0  0  0  0  0  0  0  0  0  0  0
  -27.8664  -20.3445   17.8813 C   0  0  0  0  0  0  0  0  0  0  0  0
  -23.7813  -36.2749   22.8994 C   0  0  0  0  0  0  0  0  0  0  0  0
  -25.1513  -29.5537   21.6376 C   0  0  0  0  0  0  0  0  0  0  0  0
  -27.1836  -28.1432   21.0146 C   0  0  0  0  0  0  0  0  0  0  0  0
  -22.7832   -8.6097   22.2387 C   0  0  0  0  0  0  0  0  0  0  0  0
  -27.1542  -15.0505   21.7023 C   0  0  0  0  0  0  0  0  0  0  0  0
  -24.0004   -9.3049   22.3706 C   0  0  0  0  0  0  0  0  0  0  0  0
  -27.0044  -15.3695   20.3451 C   0  0  0  0  0  0  0  0  0  0  0  0
  -30.0214  -19.4768   18.5449 C   0  0  0  0  0  0  0  0  0  0  0  0
  -27.7802  -21.0488   19.0822 C   0  0  0  0  0  0  0  0  0  0  0  0
  -23.8685  -31.6648   22.9338 C   0  0  0  0  0  0  0  0  0  0  0  0
  -29.3544  -15.9839   20.2430 C   0  0  0  0  0  0  0  0  0  0  0  0
  -23.8452  -33.9406   23.5190 C   0  0  0  0  0  0  0  0  0  0  0  0
  -25.0610  -36.4497   23.4264 C   0  0  0  0  0  0  0  0  0  0  0  0
  -28.8145  -20.9670   20.0145 C   0  0  0  0  0  0  0  0  0  0  0  0
  -28.9871  -19.5586   17.6126 C   0  0  0  0  0  0  0  0  0  0  0  0
  -23.1734  -35.0203   22.9458 C   0  0  0  0  0  0  0  0  0  0  0  0
  -25.8133  -28.4628   20.9684 C   0  0  0  0  0  0  0  0  0  0  0  0
  -27.3037  -27.0307   20.2181 C   0  0  0  0  0  0  0  0  0  0  0  0
  -28.2522  -28.7937   21.7149 C   0  0  0  0  0  0  0  0  0  0  0  0
  -25.2335  -12.5744   21.1695 C   0  0  0  0  0  0  0  0  0  0  0  0
  -23.2226  -14.8695   20.0690 C   0  0  0  0  0  0  0  0  0  0  0  0
  -22.8349  -17.9993   18.7648 C   0  0  0  0  0  0  0  0  0  0  0  0
  -25.5253  -22.0299   18.5353 C   0  0  0  0  0  0  0  0  0  0  0  0
  -21.9860   -8.6416   20.9587 C   0  0  0  0  0  0  0  0  0  0  0  0
  -25.9755  -14.5777   22.5082 C   0  0  0  0  0  0  0  0  0  0  0  0
  -25.6831  -15.2233   19.6373 C   0  0  0  0  0  0  0  0  0  0  0  0
  -22.3658   -9.7947   20.0333 C   0  0  0  0  0  0  0  0  0  0  0  0
  -23.9993  -24.8800   17.0436 C   0  0  0  0  0  0  0  0  0  0  0  0
  -33.0940  -18.1715   17.1040 C   0  0  0  0  0  0  0  0  0  0  0  0
  -23.8822   -9.8991   19.9051 C   0  0  0  0  0  0  0  0  0  0  0  0
  -24.4479  -26.0399   17.9355 C   0  0  0  0  0  0  0  0  0  0  0  0
  -33.1365  -17.4505   18.4396 C   0  0  0  0  0  0  0  0  0  0  0  0
  -31.6118  -18.4724   16.9190 C   0  0  0  0  0  0  0  0  0  0  0  0
  -23.7344  -23.6118   17.8530 C   0  0  0  0  0  0  0  0  0  0  0  0
  -25.2862  -24.3507   19.6180 C   0  0  0  0  0  0  0  0  0  0  0  0
  -24.5320  -10.1891   21.2634 C   0  0  1  0  0  0  0  0  0  0  0  0
  -24.8785  -13.9523   21.6521 C   0  0  1  0  0  0  0  0  0  0  0  0
  -25.6275  -25.6319   18.8398 C   0  0  2  0  0  0  0  0  0  0  0  0
  -32.0680  -18.1688   19.2820 C   0  0  2  0  0  0  0  0  0  0  0  0
  -21.0748  -19.5823   17.9321 C   0  0  0  0  0  0  0  0  0  0  0  0
  -23.0016  -13.2610   17.4856 C   0  0  0  0  0  0  0  0  0  0  0  0
  -22.0433  -15.2945   16.3834 C   0  0  0  0  0  0  0  0  0  0  0  0
  -20.8450  -14.2334   18.2968 C   0  0  0  0  0  0  0  0  0  0  0  0
  -23.5036  -20.0119   20.8291 C   0  0  0  0  0  0  0  0  0  0  0  0
  -31.4095  -17.1807   20.2393 C   0  0  0  0  0  0  0  0  0  1  0  0
  -22.9761  -15.5228   18.7305 C   0  0  1  0  0  0  0  0  0  0  0  0
  -21.8955  -19.1340   19.1314 C   0  0  2  0  0  0  0  0  0  0  0  0
  -22.2420  -14.5789   17.7367 C   0  0  0  0  0  0  0  0  0  0  0  0
  -25.1131  -27.6215   20.2030 N   0  0  0  0  0  0  0  0  0  0  0  0
  -26.0471  -26.7623   19.7608 N   0  0  0  0  0  0  0  0  0  0  0  0
  -31.1315  -18.6994   18.2812 N   0  0  3  0  0  0  0  0  0  0  0  0
  -24.5619  -14.7516   20.4667 N   0  0  0  0  0  0  0  0  0  0  0  0
  -24.8964  -23.2844   18.6822 N   0  0  0  0  0  0  0  0  0  0  0  0
  -28.3605  -26.2658   19.8712 N   0  0  0  0  0  0  0  0  0  0  0  0
  -27.9539  -29.9241   22.4881 N   0  0  0  0  0  0  0  0  0  0  0  0
  -26.6392  -21.8441   19.3533 N   0  0  0  0  0  0  0  0  0  0  0  0
  -24.3755  -11.5852   21.6108 N   0  0  0  0  0  0  0  0  0  0  0  0
  -22.2665  -16.7669   19.0080 N   0  0  0  0  0  0  0  0  0  0  0  0
  -22.6686  -20.3041   19.6356 N   0  3  0  0  0  0  0  0  0  0  0  0
  -29.4393  -28.3945   21.6437 O   0  0  0  0  0  0  0  0  0  0  0  0
  -26.2125  -12.4203   20.4487 O   0  0  0  0  0  0  0  0  0  0  0  0
  -22.2619  -14.4847   20.7402 O   0  0  0  0  0  0  0  0  0  0  0  0
  -23.9591  -18.1874   18.3050 O   0  0  0  0  0  0  0  0  0  0  0  0
  -25.1228  -21.1933   17.7228 O   0  0  0  0  0  0  0  0  0  0  0  0
  -23.2427  -32.6946   23.5665 O   0  0  0  0  0  0  0  0  0  0  0  0
  -30.4225  -16.4334   19.5296 O   0  0  0  0  0  0  0  0  0  1  0  0
  -25.6442  -37.6548   23.3833 F   0  0  0  0  0  0  0  0  0  0  0  0
  -28.7409  -21.6388   21.1724 F   0  0  0  0  0  0  0  0  0  0  0  0
  -29.0583  -18.8851   16.4556 F   0  0  0  0  0  0  0  0  0  0  0  0
  -21.9435  -34.8587   22.4389 F   0  0  0  0  0  0  0  0  0  0  0  0
  1  2  1  0  0  0  0
  1  5  2  0  0  0  0
  2  6  2  0  0  0  0
  3  8  2  0  0  0  0
  3 17  1  0  0  0  0
  4  9  1  0  0  0  0
  4 17  2  0  0  0  0
  5 19  1  0  0  0  0
  6 21  1  0  0  0  0
  7 10  2  0  0  0  0
  7 20  1  0  0  0  0
  8 25  1  0  0  0  0
  9 25  2  0  0  0  0
 10 26  1  0  0  0  0
 11 12  2  0  0  0  0
 11 27  1  0  0  0  0
 12 28  1  0  0  0  0
 13 22  1  0  0  0  0
 13 26  2  0  0  0  0
 14 23  1  0  0  0  0
 14 29  2  0  0  0  0
 15 24  2  0  0  0  0
 15 30  1  0  0  0  0
 16 28  2  0  0  0  0
 16 31  1  0  0  0  0
 17 32  1  0  0  0  0
 18 32  1  0  0  0  0
 18 33  2  0  0  0  0
 18 34  1  0  0  0  0
 19 21  2  0  0  0  0
 19 39  1  0  0  0  0
 20 22  2  0  0  0  0
 20 40  1  0  0  0  0
 21 51  1  0  0  0  0
 22 41  1  0  0  0  0
 23 30  2  0  0  0  0
 23 66  1  0  0  0  0
 24 29  1  0  0  0  0
 24 71  1  0  0  0  0
 25 80  1  0  0  0  0
 26 81  1  0  0  0  0
 27 31  2  0  0  0  0
 27 80  1  0  0  0  0
 28 82  1  0  0  0  0
 29 83  1  0  0  0  0
 30 84  1  0  0  0  0
 31 85  1  0  0  0  0
 32 64  2  0  0  0  0
 33 65  1  0  0  0  0
 33 69  1  0  0  0  0
 34 70  1  0  0  0  0
 34 75  2  0  0  0  0
 35 52  1  0  0  0  0
 35 72  1  0  0  0  0
 35 76  2  0  0  0  0
 36 61  1  0  0  0  0
 36 67  1  0  0  0  0
 36 77  2  0  0  0  0
 37 62  1  0  0  0  0
 37 73  1  0  0  0  0
 37 78  2  0  0  0  0
 38 68  1  0  0  0  0
 38 71  1  0  0  0  0
 38 79  2  0  0  0  0
 39 42  1  0  0  0  0
 40 52  1  0  0  0  0
 41 67  1  0  0  0  0
 42 45  1  0  0  0  0
 43 46  1  0  0  0  0
 43 49  1  0  0  0  0
 44 47  1  0  0  0  0
 44 48  1  0  0  0  0
 45 51  1  0  0  0  0
 46 53  1  0  0  0  0
 47 54  1  0  0  0  0
 48 66  1  0  0  0  0
 49 68  1  0  0  0  0
 50 53  1  0  0  0  0
 50 68  1  0  0  0  0
 51 72  1  0  0  0  0
 52 67  1  0  0  0  0
 53 65  1  0  0  0  0
 54 60  1  0  0  0  0
 54 66  1  0  0  0  0
 55 62  1  0  0  0  0
 56 63  1  0  0  0  0
 57 63  1  0  0  0  0
 58 63  1  0  0  0  0
 59 74  1  0  0  0  0
 60 81  1  0  0  0  0
 61 63  1  0  0  0  0
 61 73  1  0  0  0  0
 62 74  1  0  0  0  0
 64 65  1  0  0  0  0
M  CHG  1  74   1
M  ISO  4  38 100  60 101  71 100  81 101
M  END
> <Batch ID>
0022

> <Smiles>
CNC(C)C(=O)NC(C(=O)N1Cc2cc([101O:1][101CH2:1]C3CCCN3c3cc(F)c([100NH:0][100C:0](=O)N4CCCC(n5nc(-c6ccc(Oc7ccc(F)cc7F)cc6)c(C(N)=O)c5N)C4)cc3F)ccc2CC1C(=O)NC1CCCc2ccccc21)C(C)(C)C

> <Shape>
0.247

> <Color>
0.095

> <Negative vol penalty>
0.000

$$$$

  -OEChem-04042321143D

 84 93  0     1  0  0  0  0  0999 V2000
  -27.5414  -32.1366   27.6016 C   0  0  0  0  0  0  0  0  0  0  0  0
  -27.7694  -31.1362   26.6622 C   0  0  0  0  0  0  0  0  0  0  0  0
  -24.2533   -9.4301   22.2931 C   0  0  0  0  0  0  0  0  0  0  0  0
  -23.7881   -9.3958   19.9225 C   0  0  0  0  0  0  0  0  0  0  0  0
  -26.2363  -32.5221   27.9050 C   0  0  0  0  0  0  0  0  0  0  0  0
  -26.6922  -30.5199   26.0263 C   0  0  0  0  0  0  0  0  0  0  0  0
  -27.4110  -30.0137   21.0391 C   0  0  0  0  0  0  0  0  0  0  0  0
  -23.1826   -8.5643   22.5157 C   0  0  0  0  0  0  0  0  0  0  0  0
  -22.7174   -8.5300   20.1451 C   0  0  0  0  0  0  0  0  0  0  0  0
  -28.2433  -28.9776   20.6177 C   0  0  0  0  0  0  0  0  0  0  0  0
  -22.5548   -5.2541   22.2301 C   0  0  0  0  0  0  0  0  0  0  0  0
  -22.7599   -4.1783   23.0940 C   0  0  0  0  0  0  0  0  0  0  0  0
  -28.5358  -22.2482   21.8836 C   0  0  0  0  0  0  0  0  0  0  0  0
  -26.3046  -27.6388   20.1000 C   0  0  0  0  0  0  0  0  0  0  0  0
  -30.5811  -22.3694   20.6087 C   0  0  0  0  0  0  0  0  0  0  0  0
  -21.0008   -4.9984   24.5328 C   0  0  0  0  0  0  0  0  0  0  0  0
  -24.5560   -9.8459   20.9965 C   0  0  0  0  0  0  0  0  0  0  0  0
  -27.0002  -10.3893   20.5082 C   0  0  0  0  0  0  0  0  0  0  0  0
  -25.1429  -31.9168   27.2655 C   0  0  0  0  0  0  0  0  0  0  0  0
  -26.0169  -29.8657   21.0043 C   0  0  0  0  0  0  0  0  0  0  0  0
  -25.3712  -30.8966   26.3224 C   0  0  0  0  0  0  0  0  0  0  0  0
  -28.6913  -20.8619   22.0253 C   0  0  0  0  0  0  0  0  0  0  0  0
  -25.4567  -28.6754   20.5192 C   0  0  0  0  0  0  0  0  0  0  0  0
  -29.7941  -20.2234   21.4309 C   0  0  0  0  0  0  0  0  0  0  0  0
  -29.4785  -22.9979   21.1810 C   0  0  0  0  0  0  0  0  0  0  0  0
  -22.4147   -8.1142   21.4418 C   0  0  0  0  0  0  0  0  0  0  0  0
  -27.6902  -27.7889   20.1508 C   0  0  0  0  0  0  0  0  0  0  0  0
  -21.5728   -6.2021   22.5176 C   0  0  0  0  0  0  0  0  0  0  0  0
  -21.9828   -4.0505   24.2453 C   0  0  0  0  0  0  0  0  0  0  0  0
  -20.7958   -6.0742   23.6689 C   0  0  0  0  0  0  0  0  0  0  0  0
  -30.7396  -20.9895   20.7338 C   0  0  0  0  0  0  0  0  0  0  0  0
  -25.6616  -10.7407   20.7659 C   0  0  0  0  0  0  0  0  0  0  0  0
  -27.6488  -11.5912   20.3627 C   0  0  0  0  0  0  0  0  0  0  0  0
  -27.6034   -9.0924   20.4090 C   0  0  0  0  0  0  0  0  0  0  0  0
  -23.7047  -29.8796   23.1854 C   0  0  0  0  0  0  0  0  0  0  0  0
  -21.7793  -29.7250   20.5793 C   0  0  0  0  0  0  0  0  0  0  0  0
  -21.4084  -28.8622   17.2983 C   0  0  0  0  0  0  0  0  0  0  0  0
  -28.7506  -16.6374   21.8516 C   0  0  0  0  0  0  0  0  0  0  0  0
  -23.7486  -32.3340   27.6610 C   0  0  0  0  0  0  0  0  0  0  0  0
  -25.1326  -31.0028   21.4374 C   0  0  0  0  0  0  0  0  0  0  0  0
  -27.6453  -20.0693   22.7661 C   0  0  0  0  0  0  0  0  0  0  0  0
  -23.9661  -28.4740   20.4426 C   0  0  0  0  0  0  0  0  0  0  0  0
  -30.0051  -18.7371   21.5609 C   0  0  0  0  0  0  0  0  0  0  0  0
  -22.6761  -31.8922   26.6686 C   0  0  0  0  0  0  0  0  0  0  0  0
  -25.8419  -16.2849   19.9045 C   0  0  0  0  0  0  0  0  0  0  0  0
  -22.8759  -30.4301   26.2825 C   0  0  0  0  0  0  0  0  0  0  0  0
  -25.6372  -14.7708   19.9353 C   0  0  0  0  0  0  0  0  0  0  0  0
  -28.1489  -18.6939   23.1906 C   0  0  0  0  0  0  0  0  0  0  0  0
  -26.2946  -16.8299   21.2601 C   0  0  0  0  0  0  0  0  0  0  0  0
  -27.2869  -14.6398   21.8398 C   0  0  0  0  0  0  0  0  0  0  0  0
  -24.2298  -30.2216   25.5933 C   0  0  1  0  0  0  0  0  0  0  0  0
  -23.7327  -30.5506   21.8412 C   0  0  1  0  0  0  0  0  0  0  0  0
  -26.8883  -14.0560   20.4756 C   0  0  1  0  0  0  0  0  0  0  0  0
  -19.7085  -28.8193   15.4528 C   0  0  0  0  0  0  0  0  0  0  0  0
  -20.4634  -27.2838   21.8515 C   0  0  0  0  0  0  0  0  0  0  0  0
  -19.4787  -26.7362   19.6157 C   0  0  0  0  0  0  0  0  0  0  0  0
  -18.8741  -28.8722   20.7534 C   0  0  0  0  0  0  0  0  0  0  0  0
  -23.0184  -30.6886   15.6157 C   0  0  0  0  0  0  0  0  0  0  0  0
  -30.2402  -25.2216   20.3444 C   0  0  0  0  0  0  0  0  0  0  0  0
  -29.7768  -26.6685   20.3665 C   0  0  0  0  0  0  0  0  0  1  0  0
  -21.1823  -28.6095   19.7558 C   0  0  1  0  0  0  0  0  0  0  0  0
  -20.8198  -29.6155   16.1191 C   0  0  2  0  0  0  0  0  0  0  0  0
  -20.0278  -27.8781   20.4972 C   0  0  0  0  0  0  0  0  0  0  0  0
  -25.4698  -12.0624   20.7839 N   0  0  0  0  0  0  0  0  0  0  0  0
  -26.6964  -12.5521   20.5357 N   0  0  0  0  0  0  0  0  0  0  0  0
  -23.1434  -29.6127   20.8835 N   0  0  0  0  0  0  0  0  0  0  0  0
  -28.8433  -18.0198   22.0879 N   0  0  0  0  0  0  0  0  0  0  0  0
  -27.4627  -16.0913   21.7562 N   0  0  0  0  0  0  0  0  0  0  0  0
  -28.9352  -11.9093   20.1049 N   0  0  0  0  0  0  0  0  0  0  0  0
  -26.7923   -7.9630   20.5853 N   0  0  0  0  0  0  0  0  0  0  0  0
  -29.3133  -24.3924   21.0505 N   0  0  0  0  0  0  0  0  0  0  0  0
  -24.1714  -30.6698   24.2184 N   0  0  0  0  0  0  0  0  0  0  0  0
  -20.7918  -29.2057   18.4829 N   0  0  0  0  0  0  0  0  0  0  0  0
  -21.8741  -29.8921   15.1027 N   0  3  0  0  0  0  0  0  0  0  0  0
  -28.8286   -8.9397   20.1875 O   0  0  0  0  0  0  0  0  0  0  0  0
  -23.2889  -28.7306   23.2785 O   0  0  0  0  0  0  0  0  0  0  0  0
  -21.0635  -30.6652   20.9334 O   0  0  0  0  0  0  0  0  0  0  0  0
  -22.3211  -28.0477   17.1800 O   0  0  0  0  0  0  0  0  0  0  0  0
  -29.7625  -15.9344   21.7354 O   0  0  0  0  0  0  0  0  0  0  0  0
  -21.3699   -7.2692   21.6586 O   0  0  0  0  0  0  0  0  0  0  0  0
  -28.5060  -26.7687   19.7365 O   0  0  0  0  0  0  0  0  0  1  0  0
  -22.1788   -3.0165   25.0740 F   0  0  0  0  0  0  0  0  0  0  0  0
  -19.8500   -6.9812   23.9498 F   0  0  0  0  0  0  0  0  0  0  0  0
  -32.1309  -20.2817   19.9833 Cl  0  0  0  0  0  0  0  0  0  0  0  0
  1  2  1  0  0  0  0
  1  5  2  0  0  0  0
  2  6  2  0  0  0  0
  3  8  2  0  0  0  0
  3 17  1  0  0  0  0
  4  9  1  0  0  0  0
  4 17  2  0  0  0  0
  5 19  1  0  0  0  0
  6 21  1  0  0  0  0
  7 10  2  0  0  0  0
  7 20  1  0  0  0  0
  8 26  1  0  0  0  0
  9 26  2  0  0  0  0
 10 27  1  0  0  0  0
 11 12  2  0  0  0  0
 11 28  1  0  0  0  0
 12 29  1  0  0  0  0
 13 22  1  0  0  0  0
 13 25  2  0  0  0  0
 14 23  1  0  0  0  0
 14 27  2  0  0  0  0
 15 25  1  0  0  0  0
 15 31  2  0  0  0  0
 16 29  2  0  0  0  0
 16 30  1  0  0  0  0
 17 32  1  0  0  0  0
 18 32  1  0  0  0  0
 18 33  2  0  0  0  0
 18 34  1  0  0  0  0
 19 21  2  0  0  0  0
 19 39  1  0  0  0  0
 20 23  2  0  0  0  0
 20 40  1  0  0  0  0
 21 51  1  0  0  0  0
 22 24  2  0  0  0  0
 22 41  1  0  0  0  0
 23 42  1  0  0  0  0
 24 31  1  0  0  0  0
 24 43  1  0  0  0  0
 25 71  1  0  0  0  0
 26 80  1  0  0  0  0
 27 81  1  0  0  0  0
 28 30  2  0  0  0  0
 28 80  1  0  0  0  0
 29 82  1  0  0  0  0
 30 83  1  0  0  0  0
 31 84  1  0  0  0  0
 32 64  2  0  0  0  0
 33 65  1  0  0  0  0
 33 69  1  0  0  0  0
 34 70  1  0  0  0  0
 34 75  2  0  0  0  0
 35 52  1  0  0  0  0
 35 72  1  0  0  0  0
 35 76  2  0  0  0  0
 36 61  1  0  0  0  0
 36 66  1  0  0  0  0
 36 77  2  0  0  0  0
 37 62  1  0  0  0  0
 37 73  1  0  0  0  0
 37 78  2  0  0  0  0
 38 67  1  0  0  0  0
 38 68  1  0  0  0  0
 38 79  2  0  0  0  0
 39 44  1  0  0  0  0
 40 52  1  0  0  0  0
 41 48  1  0  0  0  0
 42 66  1  0  0  0  0
 43 67  1  0  0  0  0
 44 46  1  0  0  0  0
 45 47  1  0  0  0  0
 45 49  1  0  0  0  0
 46 51  1  0  0  0  0
 47 53  1  0  0  0  0
 48 67  1  0  0  0  0
 49 68  1  0  0  0  0
 50 53  1  0  0  0  0
 50 68  1  0  0  0  0
 51 72  1  0  0  0  0
 52 66  1  0  0  0  0
 53 65  1  0  0  0  0
 54 62  1  0  0  0  0
 55 63  1  0  0  0  0
 56 63  1  0  0  0  0
 57 63  1  0  0  0  0
 58 74  1  0  0  0  0
 59 60  1  0  0  0  0
 59 71  1  0  0  0  0
 60 81  1  0  0  0  0
 61 63  1  0  0  0  0
 61 73  1  0  0  0  0
 62 74  1  0  0  0  0
 64 65  1  0  0  0  0
M  CHG  1  74   1
M  ISO  4  38 100  60 101  67 100  81 101
M  END
> <Batch ID>
0022

> <Smiles>
CNC(C)C(=O)NC(C(=O)N1Cc2cc([101O:1][101CH2:1]CNc3cc(Cl)c4c(c3)CC[100N:0]([100C:0](=O)N3CCCC(n5nc(-c6ccc(Oc7ccc(F)cc7F)cc6)c(C(N)=O)c5N)C3)C4)ccc2CC1C(=O)NC1CCCc2ccccc21)C(C)(C)C

> <Shape>
0.314

> <Color>
0.129

> <Negative vol penalty>
0.000

$$$$

  -OEChem-04042321143D

 85 94  0     1  0  0  0  0  0999 V2000
  -17.2705  -24.6220   25.0420 C   0  0  0  0  0  0  0  0  0  0  0  0
  -18.4944  -24.2351   25.5784 C   0  0  0  0  0  0  0  0  0  0  0  0
  -23.0495   -9.8911   19.9195 C   0  0  0  0  0  0  0  0  0  0  0  0
  -23.8245   -9.8700   22.2078 C   0  0  0  0  0  0  0  0  0  0  0  0
  -17.2114  -25.1512   23.7534 C   0  0  0  0  0  0  0  0  0  0  0  0
  -19.6599  -24.3761   24.8260 C   0  0  0  0  0  0  0  0  0  0  0  0
  -26.6495  -25.7597   25.5663 C   0  0  0  0  0  0  0  0  0  0  0  0
  -31.3726  -19.0301   20.6129 C   0  0  0  0  0  0  0  0  0  0  0  0
  -31.1919  -17.6471   20.5961 C   0  0  0  0  0  0  0  0  0  0  0  0
  -22.2981   -8.7416   20.1634 C   0  0  0  0  0  0  0  0  0  0  0  0
  -23.0730   -8.7205   22.4517 C   0  0  0  0  0  0  0  0  0  0  0  0
  -27.8937  -25.2405   25.2113 C   0  0  0  0  0  0  0  0  0  0  0  0
  -19.8425   -7.9427   23.0680 C   0  0  0  0  0  0  0  0  0  0  0  0
  -19.0930   -7.8976   24.2434 C   0  0  0  0  0  0  0  0  0  0  0  0
  -27.6810  -26.2405   23.0264 C   0  0  0  0  0  0  0  0  0  0  0  0
  -29.7551  -19.2198   22.3975 C   0  0  0  0  0  0  0  0  0  0  0  0
  -20.3236   -5.9433   24.9531 C   0  0  0  0  0  0  0  0  0  0  0  0
  -23.8128  -10.4553   20.9417 C   0  0  0  0  0  0  0  0  0  0  0  0
  -24.1741  -12.9787   20.8435 C   0  0  0  0  0  0  0  0  0  0  0  0
  -18.3780  -25.3077   22.9885 C   0  0  0  0  0  0  0  0  0  0  0  0
  -25.9055  -26.5154   24.6487 C   0  0  0  0  0  0  0  0  0  0  0  0
  -19.6163  -24.9066   23.5255 C   0  0  0  0  0  0  0  0  0  0  0  0
  -26.4287  -26.7704   23.3730 C   0  0  0  0  0  0  0  0  0  0  0  0
  -30.6543  -19.8165   21.5137 C   0  0  0  0  0  0  0  0  0  0  0  0
  -30.2927  -17.0505   21.4799 C   0  0  0  0  0  0  0  0  0  0  0  0
  -22.3098   -8.1563   21.4295 C   0  0  0  0  0  0  0  0  0  0  0  0
  -28.4084  -25.4784   23.9402 C   0  0  0  0  0  0  0  0  0  0  0  0
  -20.8326   -6.9881   22.8350 C   0  0  0  0  0  0  0  0  0  0  0  0
  -19.3335   -6.8979   25.1860 C   0  0  0  0  0  0  0  0  0  0  0  0
  -29.5743  -17.8368   22.3806 C   0  0  0  0  0  0  0  0  0  0  0  0
  -21.0731   -5.9884   23.7776 C   0  0  0  0  0  0  0  0  0  0  0  0
  -24.5897  -11.6424   20.6902 C   0  0  0  0  0  0  0  0  0  0  0  0
  -25.2699  -13.7229   20.4801 C   0  0  0  0  0  0  0  0  0  0  0  0
  -30.1904  -22.1551   22.3765 C   0  0  0  0  0  0  0  0  0  0  0  0
  -22.9106  -13.5006   21.2757 C   0  0  0  0  0  0  0  0  0  0  0  0
  -23.0714  -26.1863   23.2475 C   0  0  0  0  0  0  0  0  0  0  0  0
  -23.7161  -29.1608   22.1256 C   0  0  0  0  0  0  0  0  0  0  0  0
  -26.0570  -31.5169   21.3409 C   0  0  0  0  0  0  0  0  0  0  0  0
  -30.7453  -14.7231   20.6285 C   0  0  0  0  0  0  0  0  0  0  0  0
  -18.2583  -25.8405   21.5826 C   0  0  0  0  0  0  0  0  0  0  0  0
  -24.5769  -27.0909   25.0561 C   0  0  0  0  0  0  0  0  0  0  0  0
  -25.6787  -27.5925   22.3581 C   0  0  0  0  0  0  0  0  0  0  0  0
  -19.5871  -26.3051   20.9921 C   0  0  0  0  0  0  0  0  0  0  0  0
  -29.5960  -12.3411   18.2448 C   0  0  0  0  0  0  0  0  0  0  0  0
  -20.6763  -25.2680   21.2470 C   0  0  0  0  0  0  0  0  0  0  0  0
  -28.1569  -12.0569   18.6811 C   0  0  0  0  0  0  0  0  0  0  0  0
  -31.3951  -23.3535   20.7100 C   0  0  0  0  0  0  0  0  0  0  0  0
  -30.5208  -12.5510   19.4425 C   0  0  0  0  0  0  0  0  0  0  0  0
  -31.8016  -21.8939   20.6707 C   0  0  0  0  0  0  0  0  0  0  0  0
  -28.6288  -13.2774   20.8432 C   0  0  0  0  0  0  0  0  0  0  0  0
  -20.9057  -25.0670   22.7498 C   0  0  1  0  0  0  0  0  0  0  0  0
  -30.8157  -23.5145   22.1080 C   0  0  1  0  0  0  0  0  0  0  0  0
  -23.6760  -27.4139   23.8681 C   0  0  1  0  0  0  0  0  0  0  0  0
  -27.6469  -13.1232   19.6703 C   0  0  2  0  0  0  0  0  0  0  0  0
  -26.2823  -33.8358   20.4083 C   0  0  0  0  0  0  0  0  0  0  0  0
  -23.1873  -28.0818   19.3210 C   0  0  0  0  0  0  0  0  0  0  0  0
  -24.3266  -30.1122   18.4005 C   0  0  0  0  0  0  0  0  0  0  0  0
  -22.2478  -30.3581   19.7573 C   0  0  0  0  0  0  0  0  0  0  0  0
  -27.3110  -32.5200   23.8269 C   0  0  0  0  0  0  0  0  0  0  0  0
  -29.8225  -24.6564   22.2138 C   0  0  0  0  0  0  0  0  0  1  0  0
  -24.4077  -29.7160   20.9040 C   0  0  1  0  0  0  0  0  0  0  0  0
  -26.1466  -32.9964   21.6692 C   0  0  2  0  0  0  0  0  0  0  0  0
  -23.5558  -29.5499   19.6139 C   0  0  0  0  0  0  0  0  0  0  0  0
  -25.8510  -11.5405   20.2627 N   0  0  0  0  0  0  0  0  0  0  0  0
  -26.2374  -12.8222   20.1441 N   0  0  0  0  0  0  0  0  0  0  0  0
  -30.8387  -21.2316   21.5307 N   0  0  0  0  0  0  0  0  0  0  0  0
  -24.3811  -28.1282   22.8018 N   0  0  0  0  0  0  0  0  0  0  0  0
  -29.9759  -13.5778   20.3333 N   0  0  0  0  0  0  0  0  0  0  0  0
  -25.4905  -15.0532   20.4184 N   0  0  0  0  0  0  0  0  0  0  0  0
  -21.8936  -12.5963   21.6110 N   0  0  0  0  0  0  0  0  0  0  0  0
  -30.1108  -15.6454   21.4600 N   0  0  0  0  0  0  0  0  0  0  0  0
  -21.6906  -26.1556   23.2913 N   0  0  0  0  0  0  0  0  0  0  0  0
  -24.7486  -31.0987   21.2209 N   0  0  0  0  0  0  0  0  0  0  0  0
  -27.3257  -33.2631   22.5406 N   0  3  0  0  0  0  0  0  0  0  0  0
  -29.3346  -21.9686   23.2293 O   0  0  0  0  0  0  0  0  0  0  0  0
  -22.6846  -14.7324   21.3464 O   0  0  0  0  0  0  0  0  0  0  0  0
  -23.8034  -25.3310   22.7634 O   0  0  0  0  0  0  0  0  0  0  0  0
  -22.6294  -29.6311   22.4715 O   0  0  0  0  0  0  0  0  0  0  0  0
  -27.0486  -30.8045   21.2009 O   0  0  0  0  0  0  0  0  0  0  0  0
  -31.8726  -14.8873   20.1551 O   0  0  0  0  0  0  0  0  0  0  0  0
  -21.5764   -7.0347   21.6679 O   0  0  0  0  0  0  0  0  0  0  0  0
  -29.6223  -24.9722   23.5909 O   0  0  0  0  0  0  0  0  0  1  0  0
  -18.6147   -6.8556   26.3155 F   0  0  0  0  0  0  0  0  0  0  0  0
  -28.7062  -17.2744   23.2337 F   0  0  0  0  0  0  0  0  0  0  0  0
  -22.0237   -5.0693   23.5599 F   0  0  0  0  0  0  0  0  0  0  0  0
  1  2  1  0  0  0  0
  1  5  2  0  0  0  0
  2  6  2  0  0  0  0
  3 10  2  0  0  0  0
  3 18  1  0  0  0  0
  4 11  1  0  0  0  0
  4 18  2  0  0  0  0
  5 20  1  0  0  0  0
  6 22  1  0  0  0  0
  7 12  2  0  0  0  0
  7 21  1  0  0  0  0
  8  9  2  0  0  0  0
  8 24  1  0  0  0  0
  9 25  1  0  0  0  0
 10 26  1  0  0  0  0
 11 26  2  0  0  0  0
 12 27  1  0  0  0  0
 13 14  2  0  0  0  0
 13 28  1  0  0  0  0
 14 29  1  0  0  0  0
 15 23  1  0  0  0  0
 15 27  2  0  0  0  0
 16 24  2  0  0  0  0
 16 30  1  0  0  0  0
 17 29  2  0  0  0  0
 17 31  1  0  0  0  0
 18 32  1  0  0  0  0
 19 32  1  0  0  0  0
 19 33  2  0  0  0  0
 19 35  1  0  0  0  0
 20 22  2  0  0  0  0
 20 40  1  0  0  0  0
 21 23  2  0  0  0  0
 21 41  1  0  0  0  0
 22 51  1  0  0  0  0
 23 42  1  0  0  0  0
 24 66  1  0  0  0  0
 25 30  2  0  0  0  0
 25 71  1  0  0  0  0
 26 81  1  0  0  0  0
 27 82  1  0  0  0  0
 28 31  2  0  0  0  0
 28 81  1  0  0  0  0
 29 83  1  0  0  0  0
 30 84  1  0  0  0  0
 31 85  1  0  0  0  0
 32 64  2  0  0  0  0
 33 65  1  0  0  0  0
 33 69  1  0  0  0  0
 34 52  1  0  0  0  0
 34 66  1  0  0  0  0
 34 75  2  0  0  0  0
 35 70  1  0  0  0  0
 35 76  2  0  0  0  0
 36 53  1  0  0  0  0
 36 72  1  0  0  0  0
 36 77  2  0  0  0  0
 37 61  1  0  0  0  0
 37 67  1  0  0  0  0
 37 78  2  0  0  0  0
 38 62  1  0  0  0  0
 38 73  1  0  0  0  0
 38 79  2  0  0  0  0
 39 68  1  0  0  0  0
 39 71  1  0  0  0  0
 39 80  2  0  0  0  0
 40 43  1  0  0  0  0
 41 53  1  0  0  0  0
 42 67  1  0  0  0  0
 43 45  1  0  0  0  0
 44 46  1  0  0  0  0
 44 48  1  0  0  0  0
 45 51  1  0  0  0  0
 46 54  1  0  0  0  0
 47 49  1  0  0  0  0
 47 52  1  0  0  0  0
 48 68  1  0  0  0  0
 49 66  1  0  0  0  0
 50 54  1  0  0  0  0
 50 68  1  0  0  0  0
 51 72  1  0  0  0  0
 52 60  1  0  0  0  0
 53 67  1  0  0  0  0
 54 65  1  0  0  0  0
 55 62  1  0  0  0  0
 56 63  1  0  0  0  0
 57 63  1  0  0  0  0
 58 63  1  0  0  0  0
 59 74  1  0  0  0  0
 60 82  1  0  0  0  0
 61 63  1  0  0  0  0
 61 73  1  0  0  0  0
 62 74  1  0  0  0  0
 64 65  1  0  0  0  0
M  CHG  1  74   1
M  ISO  4  39 100  60 101  71 100  82 101
M  END
> <Batch ID>
0022

> <Smiles>
CNC(C)C(=O)NC(C(=O)N1Cc2cc([101O:1][101CH2:1]C3CCN(c4ccc([100NH:0][100C:0](=O)N5CCCC(n6nc(-c7ccc(Oc8ccc(F)cc8F)cc7)c(C(N)=O)c6N)C5)c(F)c4)C3=O)ccc2CC1C(=O)NC1CCCc2ccccc21)C(C)(C)C

> <Shape>
0.296

> <Color>
0.195

> <Negative vol penalty>
0.000

$$$$

  -OEChem-04042321143D

 84 93  0     1  0  0  0  0  0999 V2000
  -29.1648  -32.1585   25.6138 C   0  0  0  0  0  0  0  0  0  0  0  0
  -28.9628  -30.9474   24.9598 C   0  0  0  0  0  0  0  0  0  0  0  0
  -23.0950  -10.4519   20.8162 C   0  0  0  0  0  0  0  0  0  0  0  0
  -24.6430   -9.0713   22.0550 C   0  0  0  0  0  0  0  0  0  0  0  0
  -28.0718  -32.8912   26.0748 C   0  0  0  0  0  0  0  0  0  0  0  0
  -27.6677  -30.4677   24.7674 C   0  0  0  0  0  0  0  0  0  0  0  0
  -26.9269  -28.7006   20.0798 C   0  0  0  0  0  0  0  0  0  0  0  0
  -22.2009   -9.3837   20.7430 C   0  0  0  0  0  0  0  0  0  0  0  0
  -23.7489   -8.0032   21.9819 C   0  0  0  0  0  0  0  0  0  0  0  0
  -27.4315  -27.4337   19.7898 C   0  0  0  0  0  0  0  0  0  0  0  0
  -20.9204   -7.0132   23.5439 C   0  0  0  0  0  0  0  0  0  0  0  0
  -20.6959   -6.2772   24.7073 C   0  0  0  0  0  0  0  0  0  0  0  0
  -28.8290  -20.4847   20.0672 C   0  0  0  0  0  0  0  0  0  0  0  0
  -25.2306  -26.4941   20.0938 C   0  0  0  0  0  0  0  0  0  0  0  0
  -28.0248  -20.4898   17.7755 C   0  0  0  0  0  0  0  0  0  0  0  0
  -21.4957   -4.2841   23.6006 C   0  0  0  0  0  0  0  0  0  0  0  0
  -24.3161  -10.2957   21.4721 C   0  0  0  0  0  0  0  0  0  0  0  0
  -25.3114  -12.3807   22.5535 C   0  0  0  0  0  0  0  0  0  0  0  0
  -26.7622  -32.4250   25.8794 C   0  0  0  0  0  0  0  0  0  0  0  0
  -25.5703  -28.8724   20.3902 C   0  0  0  0  0  0  0  0  0  0  0  0
  -26.5563  -31.1942   25.2274 C   0  0  0  0  0  0  0  0  0  0  0  0
  -28.9062  -19.1005   20.0055 C   0  0  0  0  0  0  0  0  0  0  0  0
  -24.7108  -27.7646   20.3848 C   0  0  0  0  0  0  0  0  0  0  0  0
  -28.1152  -19.0968   17.7141 C   0  0  0  0  0  0  0  0  0  0  0  0
  -28.5580  -18.4145   18.8385 C   0  0  0  0  0  0  0  0  0  0  0  0
  -28.3789  -21.1792   18.9435 C   0  0  0  0  0  0  0  0  0  0  0  0
  -22.5279   -8.1594   21.3259 C   0  0  0  0  0  0  0  0  0  0  0  0
  -26.5840  -26.3298   19.7996 C   0  0  0  0  0  0  0  0  0  0  0  0
  -21.4325   -6.3847   22.4089 C   0  0  0  0  0  0  0  0  0  0  0  0
  -20.9836   -4.9126   24.7357 C   0  0  0  0  0  0  0  0  0  0  0  0
  -21.7202   -5.0201   22.4372 C   0  0  0  0  0  0  0  0  0  0  0  0
  -25.2403  -11.3985   21.5476 C   0  0  0  0  0  0  0  0  0  0  0  0
  -26.3481  -13.1942   22.1663 C   0  0  0  0  0  0  0  0  0  0  0  0
  -24.5120  -12.5431   23.7326 C   0  0  0  0  0  0  0  0  0  0  0  0
  -23.9639  -29.9071   22.9305 C   0  0  0  0  0  0  0  0  0  0  0  0
  -21.4118  -29.6156   20.9495 C   0  0  0  0  0  0  0  0  0  0  0  0
  -20.0358  -28.1450   18.1944 C   0  0  0  0  0  0  0  0  0  0  0  0
  -28.7698  -16.0886   17.9841 C   0  0  0  0  0  0  0  0  0  0  0  0
  -25.6146  -33.2290   26.4373 C   0  0  0  0  0  0  0  0  0  0  0  0
  -25.0362  -30.2495   20.6746 C   0  0  0  0  0  0  0  0  0  0  0  0
  -23.2423  -27.8986   20.6918 C   0  0  0  0  0  0  0  0  0  0  0  0
  -24.2572  -32.8331   25.8620 C   0  0  0  0  0  0  0  0  0  0  0  0
  -29.8375  -12.6153   18.5491 C   0  0  0  0  0  0  0  0  0  0  0  0
  -24.1004  -31.3158   25.8594 C   0  0  0  0  0  0  0  0  0  0  0  0
  -28.7125  -12.0608   19.4254 C   0  0  0  0  0  0  0  0  0  0  0  0
  -29.3433  -13.7113   17.6073 C   0  0  0  0  0  0  0  0  0  0  0  0
  -29.0405  -16.7924   20.4497 C   0  0  0  0  0  0  0  0  0  0  0  0
  -27.4874  -14.2447   19.1388 C   0  0  0  0  0  0  0  0  0  0  0  0
  -29.4321  -18.1571   21.0496 C   0  0  2  0  0  0  0  0  0  0  0  0
  -25.1654  -30.6526   24.9778 C   0  0  1  0  0  0  0  0  0  0  0  0
  -23.7411  -30.2334   21.4808 C   0  0  1  0  0  0  0  0  0  0  0  0
  -27.9613  -13.1935   20.1511 C   0  0  1  0  0  0  0  0  0  0  0  0
  -27.6154  -18.4399   16.4732 C   0  0  0  0  0  0  0  0  0  0  0  0
  -28.8546  -18.3685   22.4411 C   0  0  0  0  0  0  0  0  0  0  0  0
  -17.9203  -28.0788   16.8462 C   0  0  0  0  0  0  0  0  0  0  0  0
  -20.0992  -27.8923   23.0983 C   0  0  0  0  0  0  0  0  0  0  0  0
  -18.4739  -27.0962   21.3684 C   0  0  0  0  0  0  0  0  0  0  0  0
  -18.5602  -29.5137   21.9772 C   0  0  0  0  0  0  0  0  0  0  0  0
  -21.4151  -29.1262   15.7667 C   0  0  0  0  0  0  0  0  0  0  0  0
  -28.6293  -23.3573   20.1347 C   0  0  0  0  0  0  0  0  0  0  0  0
  -28.4358  -24.8387   19.8576 C   0  0  0  0  0  0  0  0  0  1  0  0
  -20.4390  -28.5108   20.6147 C   0  0  1  0  0  0  0  0  0  0  0  0
  -19.2859  -28.7277   17.0102 C   0  0  2  0  0  0  0  0  0  0  0  0
  -19.4211  -28.2501   21.7607 C   0  0  0  0  0  0  0  0  0  0  0  0
  -26.1585  -11.5706   20.5930 N   0  0  0  0  0  0  0  0  0  0  0  0
  -26.8164  -12.6705   20.9974 N   0  0  0  0  0  0  0  0  0  0  0  0
  -28.7150  -17.0224   19.0211 N   0  0  0  0  0  0  0  0  0  0  0  0
  -22.7691  -29.2648   20.9696 N   0  0  0  0  0  0  0  0  0  0  0  0
  -28.6151  -14.7424   18.3453 N   0  0  0  0  0  0  0  0  0  0  0  0
  -26.8956  -14.2994   22.7152 N   0  0  0  0  0  0  0  0  0  0  0  0
  -23.4886  -11.6177   23.9786 N   0  0  0  0  0  0  0  0  0  0  0  0
  -28.2827  -22.5872   18.9814 N   0  0  0  0  0  0  0  0  0  0  0  0
  -24.8153  -30.7809   23.5794 N   0  0  0  0  0  0  0  0  0  0  0  0
  -19.8258  -28.8784   19.3430 N   0  0  0  0  0  0  0  0  0  0  0  0
  -20.0594  -28.5189   15.7536 N   0  3  0  0  0  0  0  0  0  0  0  0
  -24.6890  -13.4906   24.5354 O   0  0  0  0  0  0  0  0  0  0  0  0
  -23.4037  -28.9354   23.4241 O   0  0  0  0  0  0  0  0  0  0  0  0
  -20.9837  -30.7498   21.1776 O   0  0  0  0  0  0  0  0  0  0  0  0
  -20.7348  -27.1376   18.1099 O   0  0  0  0  0  0  0  0  0  0  0  0
  -29.0168  -16.4058   16.8145 O   0  0  0  0  0  0  0  0  0  0  0  0
  -21.6556   -7.1170   21.2549 O   0  0  0  0  0  0  0  0  0  0  0  0
  -27.0775  -25.0833   19.5155 O   0  0  0  0  0  0  0  0  0  1  0  0
  -20.7694   -4.2063   25.8534 F   0  0  0  0  0  0  0  0  0  0  0  0
  -22.2135   -4.4110   21.3503 F   0  0  0  0  0  0  0  0  0  0  0  0
  1  2  1  0  0  0  0
  1  5  2  0  0  0  0
  2  6  2  0  0  0  0
  3  8  2  0  0  0  0
  3 17  1  0  0  0  0
  4  9  1  0  0  0  0
  4 17  2  0  0  0  0
  5 19  1  0  0  0  0
  6 21  1  0  0  0  0
  7 10  2  0  0  0  0
  7 20  1  0  0  0  0
  8 27  1  0  0  0  0
  9 27  2  0  0  0  0
 10 28  1  0  0  0  0
 11 12  2  0  0  0  0
 11 29  1  0  0  0  0
 12 30  1  0  0  0  0
 13 22  1  0  0  0  0
 13 26  2  0  0  0  0
 14 23  1  0  0  0  0
 14 28  2  0  0  0  0
 15 24  2  0  0  0  0
 15 26  1  0  0  0  0
 16 30  2  0  0  0  0
 16 31  1  0  0  0  0
 17 32  1  0  0  0  0
 18 32  1  0  0  0  0
 18 33  2  0  0  0  0
 18 34  1  0  0  0  0
 19 21  2  0  0  0  0
 19 39  1  0  0  0  0
 20 23  2  0  0  0  0
 20 40  1  0  0  0  0
 21 50  1  0  0  0  0
 22 25  2  0  0  0  0
 22 49  1  0  0  0  0
 23 41  1  0  0  0  0
 24 25  1  0  0  0  0
 24 53  1  0  0  0  0
 25 67  1  0  0  0  0
 26 72  1  0  0  0  0
 27 81  1  0  0  0  0
 28 82  1  0  0  0  0
 29 31  2  0  0  0  0
 29 81  1  0  0  0  0
 30 83  1  0  0  0  0
 31 84  1  0  0  0  0
 32 65  2  0  0  0  0
 33 66  1  0  0  0  0
 33 70  1  0  0  0  0
 34 71  1  0  0  0  0
 34 76  2  0  0  0  0
 35 51  1  0  0  0  0
 35 73  1  0  0  0  0
 35 77  2  0  0  0  0
 36 62  1  0  0  0  0
 36 68  1  0  0  0  0
 36 78  2  0  0  0  0
 37 63  1  0  0  0  0
 37 74  1  0  0  0  0
 37 79  2  0  0  0  0
 38 67  1  0  0  0  0
 38 69  1  0  0  0  0
 38 80  2  0  0  0  0
 39 42  1  0  0  0  0
 40 51  1  0  0  0  0
 41 68  1  0  0  0  0
 42 44  1  0  0  0  0
 43 45  1  0  0  0  0
 43 46  1  0  0  0  0
 44 50  1  0  0  0  0
 45 52  1  0  0  0  0
 46 69  1  0  0  0  0
 47 49  1  0  0  0  0
 47 67  1  0  0  0  0
 48 52  1  0  0  0  0
 48 69  1  0  0  0  0
 49 54  1  0  0  0  0
 50 73  1  0  0  0  0
 51 68  1  0  0  0  0
 52 66  1  0  0  0  0
 55 63  1  0  0  0  0
 56 64  1  0  0  0  0
 57 64  1  0  0  0  0
 58 64  1  0  0  0  0
 59 75  1  0  0  0  0
 60 61  1  0  0  0  0
 60 72  1  0  0  0  0
 61 82  1  0  0  0  0
 62 64  1  0  0  0  0
 62 74  1  0  0  0  0
 63 75  1  0  0  0  0
 65 66  1  0  0  0  0
M  CHG  1  75   1
M  ISO  4  38 100  61 101  67 100  82 101
M  END
> <Batch ID>
0022

> <Smiles>
CNC(C)C(=O)NC(C(=O)N1Cc2cc([101O:1][101CH2:1]CNc3cc(C)c4c(c3)C(C)C[100N:0]4[100C:0](=O)N3CCCC(n4nc(-c5ccc(Oc6ccc(F)cc6F)cc5)c(C(N)=O)c4N)C3)ccc2CC1C(=O)NC1CCCc2ccccc21)C(C)(C)C

> <Shape>
0.366

> <Color>
0.119

> <Negative vol penalty>
0.000

$$$$

  -OEChem-04042321143D

 86 95  0     1  0  0  0  0  0999 V2000
  -24.3071  -34.8208   23.4148 C   0  0  0  0  0  0  0  0  0  0  0  0
  -25.0821  -33.6882   23.1866 C   0  0  0  0  0  0  0  0  0  0  0  0
  -26.7099  -12.9076   21.6152 C   0  0  0  0  0  0  0  0  0  0  0  0
  -26.3249  -13.9564   19.4730 C   0  0  0  0  0  0  0  0  0  0  0  0
  -22.9788  -34.6859   23.8162 C   0  0  0  0  0  0  0  0  0  0  0  0
  -24.5293  -32.4199   23.3607 C   0  0  0  0  0  0  0  0  0  0  0  0
  -25.7023  -29.2547   19.5857 C   0  0  0  0  0  0  0  0  0  0  0  0
  -29.2525  -22.2073   16.7995 C   0  0  0  0  0  0  0  0  0  0  0  0
  -29.6685  -21.1237   17.5730 C   0  0  0  0  0  0  0  0  0  0  0  0
  -25.3930  -12.4483   21.6270 C   0  0  0  0  0  0  0  0  0  0  0  0
  -25.0079  -13.4970   19.4848 C   0  0  0  0  0  0  0  0  0  0  0  0
  -26.9781  -28.6926   19.5993 C   0  0  0  0  0  0  0  0  0  0  0  0
  -23.6162   -9.9423   20.2142 C   0  0  0  0  0  0  0  0  0  0  0  0
  -23.3953   -8.6168   20.5882 C   0  0  0  0  0  0  0  0  0  0  0  0
  -26.0664  -26.6604   20.5257 C   0  0  0  0  0  0  0  0  0  0  0  0
  -30.1609  -22.6202   19.4047 C   0  0  0  0  0  0  0  0  0  0  0  0
  -22.0166   -9.3650   22.4257 C   0  0  0  0  0  0  0  0  0  0  0  0
  -27.1759  -13.6618   20.5382 C   0  0  0  0  0  0  0  0  0  0  0  0
  -29.6625  -13.4767   19.9997 C   0  0  0  0  0  0  0  0  0  0  0  0
  -22.4066  -33.4153   23.9859 C   0  0  0  0  0  0  0  0  0  0  0  0
  -24.5987  -28.5265   20.0530 C   0  0  0  0  0  0  0  0  0  0  0  0
  -23.1924  -32.2679   23.7660 C   0  0  0  0  0  0  0  0  0  0  0  0
  -24.7772  -27.2146   20.5146 C   0  0  0  0  0  0  0  0  0  0  0  0
  -29.7449  -23.7039   18.6311 C   0  0  0  0  0  0  0  0  0  0  0  0
  -29.2907  -23.4974   17.3285 C   0  0  0  0  0  0  0  0  0  0  0  0
  -30.1227  -21.3301   18.8756 C   0  0  0  0  0  0  0  0  0  0  0  0
  -24.5419  -12.7429   20.5619 C   0  0  0  0  0  0  0  0  0  0  0  0
  -27.1607  -27.3963   20.0720 C   0  0  0  0  0  0  0  0  0  0  0  0
  -23.0373  -10.9792   20.9460 C   0  0  0  0  0  0  0  0  0  0  0  0
  -22.5955   -8.3281   21.6939 C   0  0  0  0  0  0  0  0  0  0  0  0
  -22.2375  -10.6905   22.0517 C   0  0  0  0  0  0  0  0  0  0  0  0
  -28.5360  -14.1371   20.5257 C   0  0  0  0  0  0  0  0  0  0  0  0
  -30.7060  -14.3387   20.2332 C   0  0  0  0  0  0  0  0  0  0  0  0
  -29.7572  -12.1984   19.3573 C   0  0  0  0  0  0  0  0  0  0  0  0
  -22.4987  -28.9016   22.4095 C   0  0  0  0  0  0  0  0  0  0  0  0
  -21.1007  -26.3079   21.0528 C   0  0  0  0  0  0  0  0  0  0  0  0
  -21.4344  -23.5175   19.1166 C   0  0  0  0  0  0  0  0  0  0  0  0
  -31.0226  -20.2599   20.9711 C   0  0  0  0  0  0  0  0  0  0  0  0
  -20.9803  -33.3197   24.4668 C   0  0  0  0  0  0  0  0  0  0  0  0
  -23.2250  -29.1375   20.0068 C   0  0  0  0  0  0  0  0  0  0  0  0
  -23.6222  -26.3835   21.0082 C   0  0  0  0  0  0  0  0  0  0  0  0
  -20.3611  -31.9389   24.2660 C   0  0  0  0  0  0  0  0  0  0  0  0
  -27.4878  -26.0290   15.2662 C   0  0  0  0  0  0  0  0  0  0  0  0
  -28.8995  -26.5795   15.2645 C   0  0  0  0  0  0  0  0  0  0  0  0
  -32.1256  -17.7667   23.2611 C   0  0  0  0  0  0  0  0  0  0  0  0
  -21.3217  -30.8500   24.7333 C   0  0  0  0  0  0  0  0  0  0  0  0
  -31.4376  -16.4917   22.7680 C   0  0  0  0  0  0  0  0  0  0  0  0
  -27.4934  -25.0918   16.4685 C   0  0  0  0  0  0  0  0  0  0  0  0
  -29.7355  -25.3630   15.6453 C   0  0  0  0  0  0  0  0  0  0  0  0
  -31.2298  -18.9935   23.0990 C   0  0  0  0  0  0  0  0  0  0  0  0
  -29.9996  -17.9173   21.2558 C   0  0  0  0  0  0  0  0  0  0  0  0
  -22.6215  -30.8749   23.9201 C   0  0  1  0  0  0  0  0  0  0  0  0
  -22.2501  -28.4905   20.9858 C   0  0  1  0  0  0  0  0  0  0  0  0
  -30.8875  -16.6649   21.3387 C   0  0  2  0  0  0  0  0  0  0  0  0
  -20.1239  -21.5755   18.2174 C   0  0  0  0  0  0  0  0  0  0  0  0
  -21.1901  -24.9796   23.7983 C   0  0  0  0  0  0  0  0  0  0  0  0
  -20.7750  -22.7826   22.6717 C   0  0  0  0  0  0  0  0  0  0  0  0
  -19.0721  -24.5994   22.5239 C   0  0  0  0  0  0  0  0  0  0  0  0
  -21.9421  -24.3229   16.3143 C   0  0  0  0  0  0  0  0  0  0  0  0
  -28.4904  -25.4295   19.9328 C   0  0  0  0  0  0  0  0  0  1  0  0
  -21.2289  -24.8133   21.2220 C   0  0  1  0  0  0  0  0  0  0  0  0
  -20.6094  -22.9926   17.9554 C   0  0  2  0  0  0  0  0  0  0  0  0
  -29.7979  -25.0885   19.2276 C   0  0  0  0  0  0  0  0  0  0  0  0
  -20.5888  -24.3098   22.5465 C   0  0  0  0  0  0  0  0  0  0  0  0
  -28.8357  -15.3268   21.0537 N   0  0  0  0  0  0  0  0  0  0  0  0
  -30.1623  -15.4208   20.8608 N   0  0  0  0  0  0  0  0  0  0  0  0
  -28.8678  -24.5794   16.5331 N   0  0  0  0  0  0  0  0  0  0  0  0
  -22.2996  -27.0275   20.9490 N   0  0  0  0  0  0  0  0  0  0  0  0
  -30.7496  -19.0952   21.7192 N   0  0  0  0  0  0  0  0  0  0  0  0
  -32.0264  -14.2691   19.9610 N   0  0  0  0  0  0  0  0  0  0  0  0
  -28.5878  -11.4424   19.1982 N   0  0  0  0  0  0  0  0  0  0  0  0
  -30.5446  -20.2292   19.6614 N   0  0  0  0  0  0  0  0  0  0  0  0
  -22.4184  -30.2644   22.6238 N   0  0  0  0  0  0  0  0  0  0  0  0
  -20.6601  -24.2159   20.0187 N   0  0  0  0  0  0  0  0  0  0  0  0
  -21.4196  -22.9881   16.7046 N   0  3  0  0  0  0  0  0  0  0  0  0
  -30.8491  -11.7330   18.9516 O   0  0  0  0  0  0  0  0  0  0  0  0
  -22.7437  -28.0457   23.2515 O   0  0  0  0  0  0  0  0  0  0  0  0
  -19.9782  -26.8173   21.0070 O   0  0  0  0  0  0  0  0  0  0  0  0
  -22.6440  -23.3238   19.2155 O   0  0  0  0  0  0  0  0  0  0  0  0
  -31.6589  -21.2032   21.4479 O   0  0  0  0  0  0  0  0  0  0  0  0
  -23.2569  -12.2946   20.5729 O   0  0  0  0  0  0  0  0  0  0  0  0
  -28.4050  -26.8456   20.0870 O   0  0  0  0  0  0  0  0  0  1  0  0
  -22.3823   -7.0552   22.0520 F   0  0  0  0  0  0  0  0  0  0  0  0
  -21.6777  -11.6823   22.7579 F   0  0  0  0  0  0  0  0  0  0  0  0
  -30.8134  -25.2213   20.1306 F   0  0  0  0  0  0  0  0  0  0  0  0
  -30.0323  -26.0467   18.2835 F   0  0  0  0  0  0  0  0  0  0  0  0
  1  2  1  0  0  0  0
  1  5  2  0  0  0  0
  2  6  2  0  0  0  0
  3 10  2  0  0  0  0
  3 18  1  0  0  0  0
  4 11  1  0  0  0  0
  4 18  2  0  0  0  0
  5 20  1  0  0  0  0
  6 22  1  0  0  0  0
  7 12  2  0  0  0  0
  7 21  1  0  0  0  0
  8  9  2  0  0  0  0
  8 25  1  0  0  0  0
  9 26  1  0  0  0  0
 10 27  1  0  0  0  0
 11 27  2  0  0  0  0
 12 28  1  0  0  0  0
 13 14  2  0  0  0  0
 13 29  1  0  0  0  0
 14 30  1  0  0  0  0
 15 23  1  0  0  0  0
 15 28  2  0  0  0  0
 16 24  1  0  0  0  0
 16 26  2  0  0  0  0
 17 30  2  0  0  0  0
 17 31  1  0  0  0  0
 18 32  1  0  0  0  0
 19 32  1  0  0  0  0
 19 33  2  0  0  0  0
 19 34  1  0  0  0  0
 20 22  2  0  0  0  0
 20 39  1  0  0  0  0
 21 23  2  0  0  0  0
 21 40  1  0  0  0  0
 22 52  1  0  0  0  0
 23 41  1  0  0  0  0
 24 25  2  0  0  0  0
 24 63  1  0  0  0  0
 25 67  1  0  0  0  0
 26 72  1  0  0  0  0
 27 81  1  0  0  0  0
 28 82  1  0  0  0  0
 29 31  2  0  0  0  0
 29 81  1  0  0  0  0
 30 83  1  0  0  0  0
 31 84  1  0  0  0  0
 32 65  2  0  0  0  0
 33 66  1  0  0  0  0
 33 70  1  0  0  0  0
 34 71  1  0  0  0  0
 34 76  2  0  0  0  0
 35 53  1  0  0  0  0
 35 73  1  0  0  0  0
 35 77  2  0  0  0  0
 36 61  1  0  0  0  0
 36 68  1  0  0  0  0
 36 78  2  0  0  0  0
 37 62  1  0  0  0  0
 37 74  1  0  0  0  0
 37 79  2  0  0  0  0
 38 69  1  0  0  0  0
 38 72  1  0  0  0  0
 38 80  2  0  0  0  0
 39 42  1  0  0  0  0
 40 53  1  0  0  0  0
 41 68  1  0  0  0  0
 42 46  1  0  0  0  0
 43 44  1  0  0  0  0
 43 48  1  0  0  0  0
 44 49  1  0  0  0  0
 45 47  1  0  0  0  0
 45 50  1  0  0  0  0
 46 52  1  0  0  0  0
 47 54  1  0  0  0  0
 48 67  1  0  0  0  0
 49 67  1  0  0  0  0
 50 69  1  0  0  0  0
 51 54  1  0  0  0  0
 51 69  1  0  0  0  0
 52 73  1  0  0  0  0
 53 68  1  0  0  0  0
 54 66  1  0  0  0  0
 55 62  1  0  0  0  0
 56 64  1  0  0  0  0
 57 64  1  0  0  0  0
 58 64  1  0  0  0  0
 59 75  1  0  0  0  0
 60 63  1  0  0  0  0
 60 82  1  0  0  0  0
 61 64  1  0  0  0  0
 61 74  1  0  0  0  0
 62 75  1  0  0  0  0
 63 85  1  0  0  0  0
 63 86  1  0  0  0  0
 65 66  1  0  0  0  0
M  CHG  1  75   1
M  ISO  4  38 100  60 101  72 100  82 101
M  END
> <Batch ID>
0022

> <Smiles>
CNC(C)C(=O)NC(C(=O)N1Cc2cc([101O:1][101CH2:1]C(F)(F)c3cc([100NH:0][100C:0](=O)N4CCCC(n5nc(-c6ccc(Oc7ccc(F)cc7F)cc6)c(C(N)=O)c5N)C4)ccc3N3CCCC3)ccc2CC1C(=O)NC1CCCc2ccccc21)C(C)(C)C

> <Shape>
0.297

> <Color>
0.087

> <Negative vol penalty>
0.000

$$$$

  -OEChem-04042321143D

 94103  0     1  0  0  0  0  0999 V2000
  -34.4905  -29.5899   21.0925 C   0  0  0  0  0  0  0  0  0  0  0  0
  -34.7586  -28.2257   21.1432 C   0  0  0  0  0  0  0  0  0  0  0  0
  -23.1095   -9.8757   19.9295 C   0  0  0  0  0  0  0  0  0  0  0  0
  -23.6533   -9.9723   22.2815 C   0  0  0  0  0  0  0  0  0  0  0  0
  -33.1848  -30.0356   20.8920 C   0  0  0  0  0  0  0  0  0  0  0  0
  -33.7207  -27.3064   20.9946 C   0  0  0  0  0  0  0  0  0  0  0  0
  -32.3801  -20.7759   18.3731 C   0  0  0  0  0  0  0  0  0  0  0  0
  -22.3381   -8.7357   20.1546 C   0  0  0  0  0  0  0  0  0  0  0  0
  -22.8817   -8.8322   22.5067 C   0  0  0  0  0  0  0  0  0  0  0  0
  -31.8218  -19.5563   18.7535 C   0  0  0  0  0  0  0  0  0  0  0  0
  -21.3478   -5.7394   23.6432 C   0  0  0  0  0  0  0  0  0  0  0  0
  -21.8854   -4.7433   24.4583 C   0  0  0  0  0  0  0  0  0  0  0  0
  -29.6174  -20.4412   18.3329 C   0  0  0  0  0  0  0  0  0  0  0  0
  -28.8745  -15.9118   24.6786 C   0  0  0  0  0  0  0  0  0  0  0  0
  -29.1278  -18.1965   23.9352 C   0  0  0  0  0  0  0  0  0  0  0  0
  -27.3674  -17.6189   25.4859 C   0  0  0  0  0  0  0  0  0  0  0  0
  -23.7390   -4.4924   22.9290 C   0  0  0  0  0  0  0  0  0  0  0  0
  -23.7672  -10.4940   20.9930 C   0  0  0  0  0  0  0  0  0  0  0  0
  -24.1355  -13.0113   20.8054 C   0  0  0  0  0  0  0  0  0  0  0  0
  -32.1318  -29.1212   20.7311 C   0  0  0  0  0  0  0  0  0  0  0  0
  -31.5593  -21.8426   17.9795 C   0  0  0  0  0  0  0  0  0  0  0  0
  -32.3994  -27.7403   20.7930 C   0  0  0  0  0  0  0  0  0  0  0  0
  -30.1679  -21.6725   17.9455 C   0  0  0  0  0  0  0  0  0  0  0  0
  -29.5457  -16.8659   23.9139 C   0  0  0  0  0  0  0  0  0  0  0  0
  -27.7853  -16.2882   25.4645 C   0  0  0  0  0  0  0  0  0  0  0  0
  -28.0387  -18.5730   24.7212 C   0  0  0  0  0  0  0  0  0  0  0  0
  -22.2241   -8.2139   21.4432 C   0  0  0  0  0  0  0  0  0  0  0  0
  -30.4401  -19.3898   18.7362 C   0  0  0  0  0  0  0  0  0  0  0  0
  -22.0057   -6.1120   22.4710 C   0  0  0  0  0  0  0  0  0  0  0  0
  -23.0810   -4.1198   24.1012 C   0  0  0  0  0  0  0  0  0  0  0  0
  -23.2013   -5.4885   22.1140 C   0  0  0  0  0  0  0  0  0  0  0  0
  -24.5648  -11.6713   20.7610 C   0  0  0  0  0  0  0  0  0  0  0  0
  -25.2616  -13.7424   20.5159 C   0  0  0  0  0  0  0  0  0  0  0  0
  -22.8350  -13.5472   21.0836 C   0  0  0  0  0  0  0  0  0  0  0  0
  -31.0152  -24.7767   19.0743 C   0  0  0  0  0  0  0  0  0  0  0  0
  -29.2336  -25.0327   16.3756 C   0  0  0  0  0  0  0  0  0  0  0  0
  -27.4534  -23.4682   13.9200 C   0  0  0  0  0  0  0  0  0  0  0  0
  -30.7906  -14.4630   21.6241 C   0  0  0  0  0  0  0  0  0  0  0  0
  -30.7296  -29.6508   20.5639 C   0  0  0  0  0  0  0  0  0  0  0  0
  -32.1785  -23.1432   17.5465 C   0  0  0  0  0  0  0  0  0  0  0  0
  -29.2439  -22.7799   17.5116 C   0  0  0  0  0  0  0  0  0  0  0  0
  -29.7435  -28.6095   20.0411 C   0  0  0  0  0  0  0  0  0  0  0  0
  -29.7839  -12.3103   18.7861 C   0  0  0  0  0  0  0  0  0  0  0  0
  -24.0027  -14.1063   24.5820 C   0  0  0  0  0  0  0  0  0  0  0  0
  -24.0070  -13.4728   25.9587 C   0  0  0  0  0  0  0  0  0  0  0  0
  -29.8996  -27.2969   20.8024 C   0  0  0  0  0  0  0  0  0  0  0  0
  -28.3190  -12.0103   19.0988 C   0  0  0  0  0  0  0  0  0  0  0  0
  -30.5929  -12.5695   20.0534 C   0  0  0  0  0  0  0  0  0  0  0  0
  -28.5608  -13.3362   21.2352 C   0  0  0  0  0  0  0  0  0  0  0  0
  -25.1334  -15.1080   24.6764 C   0  0  0  0  0  0  0  0  0  0  0  0
  -25.4810  -13.2955   26.2783 C   0  0  0  0  0  0  0  0  0  0  0  0
  -31.3042  -26.7119   20.6113 C   0  0  1  0  0  0  0  0  0  0  0  0
  -31.2215  -24.3262   17.6558 C   0  0  1  0  0  0  0  0  0  0  0  0
  -27.7078  -13.1162   19.9768 C   0  0  2  0  0  0  0  0  0  0  0  0
  -24.9806  -19.1210   20.6024 C   0  0  0  0  0  0  0  0  0  0  0  0
  -27.7659  -24.2901   23.4591 C   0  0  0  0  0  0  0  0  0  0  0  0
  -26.0805  -23.9445   11.8742 C   0  0  0  0  0  0  0  0  0  0  0  0
  -26.9081  -25.9127   18.1441 C   0  0  0  0  0  0  0  0  0  0  0  0
  -25.3666  -25.4542   16.2254 C   0  0  0  0  0  0  0  0  0  0  0  0
  -27.1395  -27.1957   16.0099 C   0  0  0  0  0  0  0  0  0  0  0  0
  -29.3055  -21.9493   12.1817 C   0  0  0  0  0  0  0  0  0  0  0  0
  -30.7182  -16.4601   23.0683 C   0  0  0  0  0  0  0  0  0  0  0  0
  -27.0675  -15.2685   26.2827 C   0  0  0  0  0  0  0  0  0  0  0  0
  -27.5921  -19.9960   24.7437 C   0  0  0  0  0  0  0  0  0  0  0  0
  -26.0956  -19.9032   21.2776 C   0  0  0  0  0  0  0  0  0  0  0  0
  -28.0824  -22.8052   23.3833 C   0  0  0  0  0  0  0  0  0  0  0  0
  -29.6263  -16.5753   20.8592 C   0  0  0  0  0  0  0  0  0  0  0  0
  -26.0928  -19.6779   22.7812 C   0  0  0  0  0  0  0  0  0  0  0  0
  -26.8139  -21.9689   23.4385 C   0  0  0  0  0  0  0  0  0  0  0  0
  -30.6050  -17.4316   20.0758 C   0  0  0  0  0  0  0  0  0  1  0  0
  -27.7947  -24.7539   16.0140 C   0  0  1  0  0  0  0  0  0  0  0  0
  -27.4673  -23.6249   12.4102 C   0  0  2  0  0  0  0  0  0  0  0  0
  -26.8192  -25.8087   16.6084 C   0  0  0  0  0  0  0  0  0  0  0  0
  -25.8624  -11.5551   20.4663 N   0  0  0  0  0  0  0  0  0  0  0  0
  -26.2581  -12.8314   20.3229 N   0  0  0  0  0  0  0  0  0  0  0  0
  -29.8970  -24.0347   17.1035 N   0  0  0  0  0  0  0  0  0  0  0  0
  -29.9669  -13.5938   20.8900 N   0  0  0  0  0  0  0  0  0  0  0  0
  -25.4867  -15.0693   20.4102 N   0  0  0  0  0  0  0  0  0  0  0  0
  -21.7902  -12.6552   21.3610 N   0  0  0  0  0  0  0  0  0  0  0  0
  -31.4153  -26.0772   19.3154 N   0  0  0  0  0  0  0  0  0  0  0  0
  -27.7516  -24.6530   14.5593 N   0  0  0  0  0  0  0  0  0  0  0  0
  -30.3032  -15.7568   21.8629 N   0  0  0  0  0  0  0  0  0  0  0  0
  -26.1873  -14.3712   25.4735 N   0  3  0  0  0  0  0  0  0  0  0  0
  -27.9433  -22.3695   11.7634 N   0  3  0  0  0  0  0  0  0  0  0  0
  -27.1839  -20.5084   23.4066 N   0  3  0  0  0  0  0  0  0  0  0  0
  -22.6026  -14.7798   21.0699 O   0  0  0  0  0  0  0  0  0  0  0  0
  -30.5277  -24.0023   19.8893 O   0  0  0  0  0  0  0  0  0  0  0  0
  -29.7521  -26.0936   16.0190 O   0  0  0  0  0  0  0  0  0  0  0  0
  -27.1995  -22.4023   14.4767 O   0  0  0  0  0  0  0  0  0  0  0  0
  -31.9025  -14.1060   22.0341 O   0  0  0  0  0  0  0  0  0  0  0  0
  -21.4711   -7.1017   21.6633 O   0  0  0  0  0  0  0  0  0  0  0  0
  -29.8925  -18.2006   19.1077 O   0  0  0  0  0  0  0  0  0  1  0  0
  -23.5979   -3.1644   24.8848 F   0  0  0  0  0  0  0  0  0  0  0  0
  -23.8386   -5.8430   20.9896 F   0  0  0  0  0  0  0  0  0  0  0  0
  1  2  1  0  0  0  0
  1  5  2  0  0  0  0
  2  6  2  0  0  0  0
  3  8  2  0  0  0  0
  3 18  1  0  0  0  0
  4  9  1  0  0  0  0
  4 18  2  0  0  0  0
  5 20  1  0  0  0  0
  6 22  1  0  0  0  0
  7 10  2  0  0  0  0
  7 21  1  0  0  0  0
  8 27  1  0  0  0  0
  9 27  2  0  0  0  0
 10 28  1  0  0  0  0
 11 12  2  0  0  0  0
 11 29  1  0  0  0  0
 12 30  1  0  0  0  0
 13 23  1  0  0  0  0
 13 28  2  0  0  0  0
 14 24  2  0  0  0  0
 14 25  1  0  0  0  0
 15 24  1  0  0  0  0
 15 26  2  0  0  0  0
 16 25  2  0  0  0  0
 16 26  1  0  0  0  0
 17 30  2  0  0  0  0
 17 31  1  0  0  0  0
 18 32  1  0  0  0  0
 19 32  1  0  0  0  0
 19 33  2  0  0  0  0
 19 34  1  0  0  0  0
 20 22  2  0  0  0  0
 20 39  1  0  0  0  0
 21 23  2  0  0  0  0
 21 40  1  0  0  0  0
 22 52  1  0  0  0  0
 23 41  1  0  0  0  0
 24 62  1  0  0  0  0
 25 63  1  0  0  0  0
 26 64  1  0  0  0  0
 27 91  1  0  0  0  0
 28 92  1  0  0  0  0
 29 31  2  0  0  0  0
 29 91  1  0  0  0  0
 30 93  1  0  0  0  0
 31 94  1  0  0  0  0
 32 74  2  0  0  0  0
 33 75  1  0  0  0  0
 33 78  1  0  0  0  0
 34 79  1  0  0  0  0
 34 86  2  0  0  0  0
 35 53  1  0  0  0  0
 35 80  1  0  0  0  0
 35 87  2  0  0  0  0
 36 71  1  0  0  0  0
 36 76  1  0  0  0  0
 36 88  2  0  0  0  0
 37 72  1  0  0  0  0
 37 81  1  0  0  0  0
 37 89  2  0  0  0  0
 38 77  1  0  0  0  0
 38 82  1  0  0  0  0
 38 90  2  0  0  0  0
 39 42  1  0  0  0  0
 40 53  1  0  0  0  0
 41 76  1  0  0  0  0
 42 46  1  0  0  0  0
 43 47  1  0  0  0  0
 43 48  1  0  0  0  0
 44 45  1  0  0  0  0
 44 50  1  0  0  0  0
 45 51  1  0  0  0  0
 46 52  1  0  0  0  0
 47 54  1  0  0  0  0
 48 77  1  0  0  0  0
 49 54  1  0  0  0  0
 49 77  1  0  0  0  0
 50 83  1  0  0  0  0
 51 83  1  0  0  0  0
 52 80  1  0  0  0  0
 53 76  1  0  0  0  0
 54 75  1  0  0  0  0
 55 65  1  0  0  0  0
 56 66  1  0  0  0  0
 57 72  1  0  0  0  0
 58 73  1  0  0  0  0
 59 73  1  0  0  0  0
 60 73  1  0  0  0  0
 61 84  1  0  0  0  0
 62 82  1  0  0  0  0
 63 83  1  0  0  0  0
 64 85  1  0  0  0  0
 65 68  1  0  0  0  0
 66 69  1  0  0  0  0
 67 70  1  0  0  0  0
 67 82  1  0  0  0  0
 68 85  1  0  0  0  0
 69 85  1  0  0  0  0
 70 92  1  0  0  0  0
 71 73  1  0  0  0  0
 71 81  1  0  0  0  0
 72 84  1  0  0  0  0
 74 75  1  0  0  0  0
M  CHG  3  83   1  84   1  85   1
M  ISO  4  38 100  70 101  82 100  92 101
M  END
> <Batch ID>
0022

> <Smiles>
CCCN(CCC)Cc1cc(CN2CCCC2)cc(C[100N:0](C[101CH2:1][101O:1]c2ccc3c(c2)CN(C(=O)C(NC(=O)C(C)NC)C(C)(C)C)C(C(=O)NC2CCCc4ccccc42)C3)[100C:0](=O)N2CCCC(n3nc(-c4ccc(Oc5ccc(F)cc5F)cc4)c(C(N)=O)c3N)C2)c1

> <Shape>
0.243

> <Color>
0.172

> <Negative vol penalty>
0.000

$$$$

  -OEChem-04042321143D

 84 92  0     1  0  0  0  0  0999 V2000
  -31.6482  -25.7193   16.7111 C   0  0  0  0  0  0  0  0  0  0  0  0
  -30.5104  -25.3186   17.4041 C   0  0  0  0  0  0  0  0  0  0  0  0
  -24.7201   -8.4718   20.7865 C   0  0  0  0  0  0  0  0  0  0  0  0
  -22.9870  -10.0548   20.2140 C   0  0  0  0  0  0  0  0  0  0  0  0
  -32.4081  -26.7898   17.1806 C   0  0  0  0  0  0  0  0  0  0  0  0
  -30.1324  -25.9875   18.5677 C   0  0  0  0  0  0  0  0  0  0  0  0
  -25.1677  -26.9749   18.7154 C   0  0  0  0  0  0  0  0  0  0  0  0
  -23.8306  -18.0119   21.6718 C   0  0  0  0  0  0  0  0  0  0  0  0
  -22.9410  -19.0293   22.0167 C   0  0  0  0  0  0  0  0  0  0  0  0
  -23.7484   -7.5387   21.1479 C   0  0  0  0  0  0  0  0  0  0  0  0
  -22.0153   -9.1216   20.5753 C   0  0  0  0  0  0  0  0  0  0  0  0
  -24.3189  -25.9219   19.0537 C   0  0  0  0  0  0  0  0  0  0  0  0
  -21.7182   -6.9516   23.7857 C   0  0  0  0  0  0  0  0  0  0  0  0
  -21.9032   -6.2535   24.9790 C   0  0  0  0  0  0  0  0  0  0  0  0
  -24.1783  -26.7675   21.3085 C   0  0  0  0  0  0  0  0  0  0  0  0
  -25.2643  -18.6416   23.5117 C   0  0  0  0  0  0  0  0  0  0  0  0
  -21.9129   -4.1688   23.7577 C   0  0  0  0  0  0  0  0  0  0  0  0
  -24.3394   -9.7300   20.3196 C   0  0  0  0  0  0  0  0  0  0  0  0
  -25.9225  -10.8701   18.6760 C   0  0  0  0  0  0  0  0  0  0  0  0
  -32.0338  -27.4784   18.3452 C   0  0  0  0  0  0  0  0  0  0  0  0
  -25.5375  -27.9276   19.6756 C   0  0  0  0  0  0  0  0  0  0  0  0
  -30.8888  -27.0675   19.0540 C   0  0  0  0  0  0  0  0  0  0  0  0
  -25.0299  -27.8331   20.9792 C   0  0  0  0  0  0  0  0  0  0  0  0
  -24.3747  -19.6591   23.8566 C   0  0  0  0  0  0  0  0  0  0  0  0
  -24.9923  -17.8180   22.4193 C   0  0  0  0  0  0  0  0  0  0  0  0
  -23.2131  -19.8530   23.1091 C   0  0  0  0  0  0  0  0  0  0  0  0
  -22.3960   -7.8635   21.0422 C   0  0  0  0  0  0  0  0  0  0  0  0
  -23.8264  -25.8164   20.3511 C   0  0  0  0  0  0  0  0  0  0  0  0
  -21.6304   -6.2584   22.5784 C   0  0  0  0  0  0  0  0  0  0  0  0
  -22.0006   -4.8621   24.9650 C   0  0  0  0  0  0  0  0  0  0  0  0
  -21.7278   -4.8670   22.5645 C   0  0  0  0  0  0  0  0  0  0  0  0
  -25.3427  -10.6946   19.9467 C   0  0  0  0  0  0  0  0  0  0  0  0
  -26.8106  -11.9043   18.8437 C   0  0  0  0  0  0  0  0  0  0  0  0
  -25.6799  -10.1616   17.4533 C   0  0  0  0  0  0  0  0  0  0  0  0
  -28.2861  -28.8458   20.9818 C   0  0  0  0  0  0  0  0  0  0  0  0
  -26.4237  -31.1164   22.3596 C   0  0  0  0  0  0  0  0  0  0  0  0
  -23.3164  -32.0828   23.3879 C   0  0  0  0  0  0  0  0  0  0  0  0
  -27.0931  -16.4571   22.7034 C   0  0  0  0  0  0  0  0  0  0  0  0
  -32.9131  -28.5994   18.8400 C   0  0  0  0  0  0  0  0  0  0  0  0
  -26.4327  -29.0725   19.2878 C   0  0  0  0  0  0  0  0  0  0  0  0
  -25.3804  -28.8414   22.0418 C   0  0  0  0  0  0  0  0  0  0  0  0
  -32.2352  -29.4941   19.8746 C   0  0  0  0  0  0  0  0  0  0  0  0
  -29.5769  -13.9632   22.1667 C   0  0  0  0  0  0  0  0  0  0  0  0
  -31.5328  -28.6491   20.9326 C   0  0  0  0  0  0  0  0  0  0  0  0
  -28.8272  -12.8605   21.4155 C   0  0  0  0  0  0  0  0  0  0  0  0
  -28.6962  -14.6305   23.2216 C   0  0  0  0  0  0  0  0  0  0  0  0
  -26.6575  -14.0286   21.9765 C   0  0  0  0  0  0  0  0  0  0  0  0
  -30.4325  -27.7838   20.3065 C   0  0  1  0  0  0  0  0  0  0  0  0
  -27.1544  -29.6964   20.4783 C   0  0  1  0  0  0  0  0  0  0  0  0
  -27.4836  -13.3711   20.8590 C   0  0  2  0  0  0  0  0  0  0  0  0
  -24.6912  -20.5274   25.0307 C   0  0  0  0  0  0  0  0  0  0  0  0
  -20.8224  -20.0702   25.2012 C   0  0  0  0  0  0  0  0  0  0  0  0
  -22.1143  -33.9762   24.5136 C   0  0  0  0  0  0  0  0  0  0  0  0
  -27.5460  -30.2244   25.0531 C   0  0  0  0  0  0  0  0  0  0  0  0
  -25.6624  -31.4441   26.1632 C   0  0  0  0  0  0  0  0  0  0  0  0
  -27.3195  -32.7006   24.7857 C   0  0  0  0  0  0  0  0  0  0  0  0
  -21.6027  -32.5548   21.0216 C   0  0  0  0  0  0  0  0  0  0  0  0
  -22.6721  -22.8522   22.0629 C   0  0  0  0  0  0  0  0  0  0  0  0
  -20.9250  -20.5343   23.7881 C   0  0  0  0  0  0  0  0  0  0  0  0
  -22.7076  -22.2567   23.4652 C   0  0  0  0  0  0  0  0  0  0  0  0
  -23.0433  -24.3302   22.0346 C   0  0  0  0  0  0  0  0  0  1  0  0
  -25.6267  -31.2143   23.6380 C   0  0  1  0  0  0  0  0  0  0  0  0
  -22.5445  -33.3741   23.1851 C   0  0  2  0  0  0  0  0  0  0  0  0
  -26.5334  -31.3756   24.8907 C   0  0  0  0  0  0  0  0  0  0  0  0
  -25.8222  -11.5487   20.8547 N   0  0  0  0  0  0  0  0  0  0  0  0
  -26.7128  -12.2709   20.1537 N   0  0  0  0  0  0  0  0  0  0  0  0
  -26.2640  -29.9390   21.6152 N   0  0  0  0  0  0  0  0  0  0  0  0
  -27.4430  -15.0927   22.6210 N   0  0  0  0  0  0  0  0  0  0  0  0
  -27.6579  -12.5267   17.9969 N   0  0  0  0  0  0  0  0  0  0  0  0
  -24.7346   -9.1268   17.4569 N   0  0  0  0  0  0  0  0  0  0  0  0
  -25.8958  -16.7846   22.0679 N   0  0  0  0  0  0  0  0  0  0  0  0
  -29.2560  -28.5814   20.0338 N   0  0  0  0  0  0  0  0  0  0  0  0
  -24.6762  -32.3040   23.4440 N   0  0  0  0  0  0  0  0  0  0  0  0
  -22.3073  -20.8705   23.4416 N   0  0  3  0  0  0  0  0  0  0  0  0
  -21.3253  -33.1254   22.3649 N   0  3  0  0  0  0  0  0  0  0  0  0
  -26.2955  -10.4271   16.3930 O   0  0  0  0  0  0  0  0  0  0  0  0
  -28.2805  -28.4594   22.1446 O   0  0  0  0  0  0  0  0  0  0  0  0
  -27.1554  -32.0532   22.0298 O   0  0  0  0  0  0  0  0  0  0  0  0
  -22.7676  -30.9878   23.4905 O   0  0  0  0  0  0  0  0  0  0  0  0
  -27.8168  -17.2795   23.2707 O   0  0  0  0  0  0  0  0  0  0  0  0
  -21.4475   -6.9531   21.3945 O   0  0  0  0  0  0  0  0  0  0  0  0
  -22.9982  -24.7892   20.6842 O   0  0  0  0  0  0  0  0  0  1  0  0
  -22.1798   -4.1918   26.1108 F   0  0  0  0  0  0  0  0  0  0  0  0
  -21.6454   -4.1957   21.4076 F   0  0  0  0  0  0  0  0  0  0  0  0
  1  2  1  0  0  0  0
  1  5  2  0  0  0  0
  2  6  2  0  0  0  0
  3 10  2  0  0  0  0
  3 18  1  0  0  0  0
  4 11  1  0  0  0  0
  4 18  2  0  0  0  0
  5 20  1  0  0  0  0
  6 22  1  0  0  0  0
  7 12  2  0  0  0  0
  7 21  1  0  0  0  0
  8  9  2  0  0  0  0
  8 25  1  0  0  0  0
  9 26  1  0  0  0  0
 10 27  1  0  0  0  0
 11 27  2  0  0  0  0
 12 28  1  0  0  0  0
 13 14  2  0  0  0  0
 13 29  1  0  0  0  0
 14 30  1  0  0  0  0
 15 23  1  0  0  0  0
 15 28  2  0  0  0  0
 16 24  1  0  0  0  0
 16 25  2  0  0  0  0
 17 30  2  0  0  0  0
 17 31  1  0  0  0  0
 18 32  1  0  0  0  0
 19 32  1  0  0  0  0
 19 33  2  0  0  0  0
 19 34  1  0  0  0  0
 20 22  2  0  0  0  0
 20 39  1  0  0  0  0
 21 23  2  0  0  0  0
 21 40  1  0  0  0  0
 22 48  1  0  0  0  0
 23 41  1  0  0  0  0
 24 26  2  0  0  0  0
 24 51  1  0  0  0  0
 25 71  1  0  0  0  0
 26 74  1  0  0  0  0
 27 81  1  0  0  0  0
 28 82  1  0  0  0  0
 29 31  2  0  0  0  0
 29 81  1  0  0  0  0
 30 83  1  0  0  0  0
 31 84  1  0  0  0  0
 32 65  2  0  0  0  0
 33 66  1  0  0  0  0
 33 69  1  0  0  0  0
 34 70  1  0  0  0  0
 34 76  2  0  0  0  0
 35 49  1  0  0  0  0
 35 72  1  0  0  0  0
 35 77  2  0  0  0  0
 36 62  1  0  0  0  0
 36 67  1  0  0  0  0
 36 78  2  0  0  0  0
 37 63  1  0  0  0  0
 37 73  1  0  0  0  0
 37 79  2  0  0  0  0
 38 68  1  0  0  0  0
 38 71  1  0  0  0  0
 38 80  2  0  0  0  0
 39 42  1  0  0  0  0
 40 49  1  0  0  0  0
 41 67  1  0  0  0  0
 42 44  1  0  0  0  0
 43 45  1  0  0  0  0
 43 46  1  0  0  0  0
 44 48  1  0  0  0  0
 45 50  1  0  0  0  0
 46 68  1  0  0  0  0
 47 50  1  0  0  0  0
 47 68  1  0  0  0  0
 48 72  1  0  0  0  0
 49 67  1  0  0  0  0
 50 66  1  0  0  0  0
 52 59  1  0  0  0  0
 53 63  1  0  0  0  0
 54 64  1  0  0  0  0
 55 64  1  0  0  0  0
 56 64  1  0  0  0  0
 57 75  1  0  0  0  0
 58 60  1  0  0  0  0
 58 61  1  0  0  0  0
 59 74  1  0  0  0  0
 60 74  1  0  0  0  0
 61 82  1  0  0  0  0
 62 64  1  0  0  0  0
 62 73  1  0  0  0  0
 63 75  1  0  0  0  0
 65 66  1  0  0  0  0
M  CHG  1  75   1
M  ISO  4  38 100  61 101  71 100  82 101
M  END
> <Batch ID>
0022

> <Smiles>
CCN(CC[101CH2:1][101O:1]c1ccc2c(c1)CN(C(=O)C(NC(=O)C(C)NC)C(C)(C)C)C(C(=O)NC1CCCc3ccccc31)C2)c1ccc([100NH:0][100C:0](=O)N2CCCC(n3nc(-c4ccc(Oc5ccc(F)cc5F)cc4)c(C(N)=O)c3N)C2)cc1C

> <Shape>
0.253

> <Color>
0.102

> <Negative vol penalty>
0.000

$$$$

  -OEChem-04042321143D

 83 91  0     1  0  0  0  0  0999 V2000
  -39.5796  -28.8092   21.7899 C   0  0  0  0  0  0  0  0  0  0  0  0
  -38.5546  -28.1374   22.4483 C   0  0  0  0  0  0  0  0  0  0  0  0
  -23.0069   -9.8880   19.9653 C   0  0  0  0  0  0  0  0  0  0  0  0
  -23.7374   -9.9146   22.2681 C   0  0  0  0  0  0  0  0  0  0  0  0
  -39.3966  -29.2439   20.4779 C   0  0  0  0  0  0  0  0  0  0  0  0
  -37.3455  -27.9008   21.7953 C   0  0  0  0  0  0  0  0  0  0  0  0
  -35.6587  -23.1755   22.4820 C   0  0  0  0  0  0  0  0  0  0  0  0
  -22.2462   -8.7469   20.2198 C   0  0  0  0  0  0  0  0  0  0  0  0
  -22.9766   -8.7736   22.5226 C   0  0  0  0  0  0  0  0  0  0  0  0
  -35.0478  -22.8885   23.7019 C   0  0  0  0  0  0  0  0  0  0  0  0
  -23.2348   -5.4417   22.0102 C   0  0  0  0  0  0  0  0  0  0  0  0
  -23.8288   -4.4182   22.7486 C   0  0  0  0  0  0  0  0  0  0  0  0
  -32.8821  -23.1159   22.6640 C   0  0  0  0  0  0  0  0  0  0  0  0
  -32.0426  -16.5292   22.5831 C   0  0  0  0  0  0  0  0  0  0  0  0
  -30.5055  -18.3238   24.0661 C   0  0  0  0  0  0  0  0  0  0  0  0
  -22.1078   -4.6332   24.4307 C   0  0  0  0  0  0  0  0  0  0  0  0
  -23.7526  -10.4718   20.9895 C   0  0  0  0  0  0  0  0  0  0  0  0
  -24.1262  -12.9911   20.8427 C   0  0  0  0  0  0  0  0  0  0  0  0
  -38.1880  -29.0040   19.8052 C   0  0  0  0  0  0  0  0  0  0  0  0
  -34.8846  -23.4460   21.3445 C   0  0  0  0  0  0  0  0  0  0  0  0
  -37.1456  -28.3338   20.4735 C   0  0  0  0  0  0  0  0  0  0  0  0
  -33.4857  -23.4035   21.4302 C   0  0  0  0  0  0  0  0  0  0  0  0
  -30.6562  -16.5514   22.4312 C   0  0  0  0  0  0  0  0  0  0  0  0
  -31.8919  -18.3015   24.2181 C   0  0  0  0  0  0  0  0  0  0  0  0
  -22.2310   -8.1897   21.4985 C   0  0  0  0  0  0  0  0  0  0  0  0
  -33.6593  -22.8615   23.7937 C   0  0  0  0  0  0  0  0  0  0  0  0
  -22.0774   -6.0610   22.4820 C   0  0  0  0  0  0  0  0  0  0  0  0
  -23.2653   -4.0140   23.9589 C   0  0  0  0  0  0  0  0  0  0  0  0
  -32.6604  -17.4042   23.4766 C   0  0  0  0  0  0  0  0  0  0  0  0
  -21.5139   -5.6567   23.6922 C   0  0  0  0  0  0  0  0  0  0  0  0
  -29.8877  -17.4487   23.1727 C   0  0  0  0  0  0  0  0  0  0  0  0
  -24.5391  -11.6502   20.7270 C   0  0  0  0  0  0  0  0  0  0  0  0
  -25.2318  -13.7230   20.4844 C   0  0  0  0  0  0  0  0  0  0  0  0
  -22.8567  -13.5271   21.2388 C   0  0  0  0  0  0  0  0  0  0  0  0
  -34.5324  -25.9462   19.4135 C   0  0  0  0  0  0  0  0  0  0  0  0
  -32.6850  -23.8855   17.7215 C   0  0  0  0  0  0  0  0  0  0  0  0
  -30.7488  -21.0753   17.7037 C   0  0  0  0  0  0  0  0  0  0  0  0
  -30.7074  -14.7060   20.7170 C   0  0  0  0  0  0  0  0  0  0  0  0
  -38.0197  -29.5345   18.4034 C   0  0  0  0  0  0  0  0  0  0  0  0
  -35.5590  -23.7276   20.0299 C   0  0  0  0  0  0  0  0  0  0  0  0
  -32.6095  -23.6668   20.2338 C   0  0  0  0  0  0  0  0  0  0  0  0
  -36.8431  -28.9142   17.6545 C   0  0  0  0  0  0  0  0  0  0  0  0
  -29.5946  -12.2762   18.3645 C   0  0  0  0  0  0  0  0  0  0  0  0
  -35.5999  -28.8918   18.5382 C   0  0  0  0  0  0  0  0  0  0  0  0
  -28.1462  -12.0070   18.7789 C   0  0  0  0  0  0  0  0  0  0  0  0
  -30.4969  -12.5091   19.5750 C   0  0  0  0  0  0  0  0  0  0  0  0
  -28.5812  -13.2733   20.9224 C   0  0  0  0  0  0  0  0  0  0  0  0
  -35.8284  -28.0365   19.7903 C   0  0  1  0  0  0  0  0  0  0  0  0
  -34.6706  -24.4937   19.0546 C   0  0  1  0  0  0  0  0  0  0  0  0
  -27.6216  -13.0968   19.7343 C   0  0  2  0  0  0  0  0  0  0  0  0
  -29.3411  -19.6625   16.1806 C   0  0  0  0  0  0  0  0  0  0  0  0
  -30.4656  -25.9760   17.8377 C   0  0  0  0  0  0  0  0  0  0  0  0
  -28.8433  -24.1895   17.1707 C   0  0  0  0  0  0  0  0  0  0  0  0
  -30.6996  -24.8247   15.6300 C   0  0  0  0  0  0  0  0  0  0  0  0
  -32.4625  -18.7006   18.1320 C   0  0  0  0  0  0  0  0  0  0  0  0
  -32.7533  -20.9724   26.7364 C   0  0  0  0  0  0  0  0  0  0  0  0
  -31.7869  -20.1293   25.9133 C   0  0  0  0  0  0  0  0  0  0  0  0
  -33.7652  -21.7243   25.8798 C   0  0  0  0  0  0  0  0  0  1  0  0
  -31.2228  -23.5103   17.7254 C   0  0  1  0  0  0  0  0  0  0  0  0
  -30.7247  -19.8745   16.7753 C   0  0  2  0  0  0  0  0  0  0  0  0
  -30.3240  -24.6220   17.1141 C   0  0  0  0  0  0  0  0  0  0  0  0
  -25.8080  -11.5342   20.3264 N   0  0  0  0  0  0  0  0  0  0  0  0
  -26.2019  -12.8116   20.1871 N   0  0  0  0  0  0  0  0  0  0  0  0
  -33.3161  -23.9435   18.9722 N   0  0  0  0  0  0  0  0  0  0  0  0
  -29.9391  -13.5574   20.4322 N   0  0  0  0  0  0  0  0  0  0  0  0
  -25.4590  -15.0509   20.3977 N   0  0  0  0  0  0  0  0  0  0  0  0
  -21.8297  -12.6342   21.5741 N   0  0  0  0  0  0  0  0  0  0  0  0
  -30.0607  -15.6488   21.5155 N   0  0  0  0  0  0  0  0  0  0  0  0
  -32.5040  -19.1712   25.1072 N   0  0  0  0  0  0  0  0  0  0  0  0
  -35.7324  -26.6294   19.4657 N   0  0  0  0  0  0  0  0  0  0  0  0
  -31.1296  -22.2241   17.0431 N   0  0  0  0  0  0  0  0  0  0  0  0
  -31.1126  -18.6401   17.5147 N   0  3  0  0  0  0  0  0  0  0  0  0
  -22.6345  -14.7610   21.2778 O   0  0  0  0  0  0  0  0  0  0  0  0
  -33.4194  -26.4129   19.6259 O   0  0  0  0  0  0  0  0  0  0  0  0
  -33.2485  -24.1116   16.6476 O   0  0  0  0  0  0  0  0  0  0  0  0
  -30.4554  -21.0022   18.8950 O   0  0  0  0  0  0  0  0  0  0  0  0
  -31.8443  -14.8555   20.2620 O   0  0  0  0  0  0  0  0  0  0  0  0
  -21.4885   -7.0764   21.7473 O   0  0  0  0  0  0  0  0  0  0  0  0
  -33.0604  -22.5823   24.9834 O   0  0  0  0  0  0  0  0  0  1  0  0
  -23.8349   -3.0301   24.6672 F   0  0  0  0  0  0  0  0  0  0  0  0
  -33.9935  -17.3734   23.6156 F   0  0  0  0  0  0  0  0  0  0  0  0
  -20.4014   -6.2471   24.1500 F   0  0  0  0  0  0  0  0  0  0  0  0
  -28.1681  -17.5093   23.0157 Cl  0  0  0  0  0  0  0  0  0  0  0  0
  1  2  1  0  0  0  0
  1  5  2  0  0  0  0
  2  6  2  0  0  0  0
  3  8  2  0  0  0  0
  3 17  1  0  0  0  0
  4  9  1  0  0  0  0
  4 17  2  0  0  0  0
  5 19  1  0  0  0  0
  6 21  1  0  0  0  0
  7 10  2  0  0  0  0
  7 20  1  0  0  0  0
  8 25  1  0  0  0  0
  9 25  2  0  0  0  0
 10 26  1  0  0  0  0
 11 12  2  0  0  0  0
 11 27  1  0  0  0  0
 12 28  1  0  0  0  0
 13 22  1  0  0  0  0
 13 26  2  0  0  0  0
 14 23  2  0  0  0  0
 14 29  1  0  0  0  0
 15 24  1  0  0  0  0
 15 31  2  0  0  0  0
 16 28  2  0  0  0  0
 16 30  1  0  0  0  0
 17 32  1  0  0  0  0
 18 32  1  0  0  0  0
 18 33  2  0  0  0  0
 18 34  1  0  0  0  0
 19 21  2  0  0  0  0
 19 39  1  0  0  0  0
 20 22  2  0  0  0  0
 20 40  1  0  0  0  0
 21 48  1  0  0  0  0
 22 41  1  0  0  0  0
 23 31  1  0  0  0  0
 23 68  1  0  0  0  0
 24 29  2  0  0  0  0
 24 69  1  0  0  0  0
 25 78  1  0  0  0  0
 26 79  1  0  0  0  0
 27 30  2  0  0  0  0
 27 78  1  0  0  0  0
 28 80  1  0  0  0  0
 29 81  1  0  0  0  0
 30 82  1  0  0  0  0
 31 83  1  0  0  0  0
 32 62  2  0  0  0  0
 33 63  1  0  0  0  0
 33 66  1  0  0  0  0
 34 67  1  0  0  0  0
 34 73  2  0  0  0  0
 35 49  1  0  0  0  0
 35 70  1  0  0  0  0
 35 74  2  0  0  0  0
 36 59  1  0  0  0  0
 36 64  1  0  0  0  0
 36 75  2  0  0  0  0
 37 60  1  0  0  0  0
 37 71  1  0  0  0  0
 37 76  2  0  0  0  0
 38 65  1  0  0  0  0
 38 68  1  0  0  0  0
 38 77  2  0  0  0  0
 39 42  1  0  0  0  0
 40 49  1  0  0  0  0
 41 64  1  0  0  0  0
 42 44  1  0  0  0  0
 43 45  1  0  0  0  0
 43 46  1  0  0  0  0
 44 48  1  0  0  0  0
 45 50  1  0  0  0  0
 46 65  1  0  0  0  0
 47 50  1  0  0  0  0
 47 65  1  0  0  0  0
 48 70  1  0  0  0  0
 49 64  1  0  0  0  0
 50 63  1  0  0  0  0
 51 60  1  0  0  0  0
 52 61  1  0  0  0  0
 53 61  1  0  0  0  0
 54 61  1  0  0  0  0
 55 72  1  0  0  0  0
 56 57  1  0  0  0  0
 56 58  1  0  0  0  0
 57 69  1  0  0  0  0
 58 79  1  0  0  0  0
 59 61  1  0  0  0  0
 59 71  1  0  0  0  0
 60 72  1  0  0  0  0
 62 63  1  0  0  0  0
M  CHG  1  72   1
M  ISO  4  38 100  58 101  68 100  79 101
M  END
> <Batch ID>
0022

> <Smiles>
CNC(C)C(=O)NC(C(=O)N1Cc2cc([101O:1][101CH2:1]CCNc3cc(Cl)c([100NH:0][100C:0](=O)N4CCCC(n5nc(-c6ccc(Oc7ccc(F)cc7F)cc6)c(C(N)=O)c5N)C4)cc3F)ccc2CC1C(=O)NC1CCCc2ccccc21)C(C)(C)C

> <Shape>
0.206

> <Color>
0.204

> <Negative vol penalty>
0.000

$$$$

  -OEChem-04042321143D

 89 98  0     1  0  0  0  0  0999 V2000
  -17.7083  -26.0750   23.5298 C   0  0  0  0  0  0  0  0  0  0  0  0
  -18.9204  -26.1749   22.8544 C   0  0  0  0  0  0  0  0  0  0  0  0
  -26.9067  -20.4938   21.3346 C   0  0  0  0  0  0  0  0  0  0  0  0
  -24.1753   -9.1229   20.2013 C   0  0  0  0  0  0  0  0  0  0  0  0
  -24.1005   -9.8502   22.5040 C   0  0  0  0  0  0  0  0  0  0  0  0
  -17.0430  -27.2296   23.9401 C   0  0  0  0  0  0  0  0  0  0  0  0
  -19.4674  -27.4296   22.5879 C   0  0  0  0  0  0  0  0  0  0  0  0
  -24.4269  -27.6393   23.5901 C   0  0  0  0  0  0  0  0  0  0  0  0
  -27.8584  -21.1696   20.5710 C   0  0  0  0  0  0  0  0  0  0  0  0
  -27.1190  -19.1632   21.6956 C   0  0  0  0  0  0  0  0  0  0  0  0
  -23.7186   -7.8619   20.5847 C   0  0  0  0  0  0  0  0  0  0  0  0
  -23.6438   -8.5893   22.8874 C   0  0  0  0  0  0  0  0  0  0  0  0
  -25.2902  -27.0721   22.6538 C   0  0  0  0  0  0  0  0  0  0  0  0
  -20.7254   -6.8855   22.8631 C   0  0  0  0  0  0  0  0  0  0  0  0
  -19.6607   -6.8294   23.7624 C   0  0  0  0  0  0  0  0  0  0  0  0
  -25.7539  -29.2649   21.7617 C   0  0  0  0  0  0  0  0  0  0  0  0
  -29.2347  -19.1844   20.5292 C   0  0  0  0  0  0  0  0  0  0  0  0
  -21.0464   -5.6179   25.3274 C   0  0  0  0  0  0  0  0  0  0  0  0
  -24.3664  -10.1170   21.1609 C   0  0  0  0  0  0  0  0  0  0  0  0
  -24.0578  -12.5291   20.3900 C   0  0  0  0  0  0  0  0  0  0  0  0
  -17.5868  -28.4987   23.6870 C   0  0  0  0  0  0  0  0  0  0  0  0
  -24.2119  -29.0249   23.6122 C   0  0  0  0  0  0  0  0  0  0  0  0
  -18.8081  -28.6022   22.9940 C   0  0  0  0  0  0  0  0  0  0  0  0
  -24.8894  -29.8475   22.7010 C   0  0  0  0  0  0  0  0  0  0  0  0
  -29.0224  -20.5150   20.1683 C   0  0  0  0  0  0  0  0  0  0  0  0
  -28.2830  -18.5085   21.2929 C   0  0  0  0  0  0  0  0  0  0  0  0
  -23.4528   -7.5951   21.9277 C   0  0  0  0  0  0  0  0  0  0  0  0
  -25.9517  -27.8845   21.7376 C   0  0  0  0  0  0  0  0  0  0  0  0
  -21.9506   -6.3077   23.1958 C   0  0  0  0  0  0  0  0  0  0  0  0
  -19.8212   -6.1956   24.9946 C   0  0  0  0  0  0  0  0  0  0  0  0
  -22.1111   -5.6739   24.4280 C   0  0  0  0  0  0  0  0  0  0  0  0
  -24.8387  -11.4196   20.7656 C   0  0  0  0  0  0  0  0  0  0  0  0
  -24.9731  -13.5140   20.1095 C   0  0  0  0  0  0  0  0  0  0  0  0
  -27.9547  -25.5193   19.8212 C   0  0  0  0  0  0  0  0  0  0  0  0
  -27.6775  -24.6893   18.8077 C   0  0  0  0  0  0  0  0  0  0  0  0
  -22.6325  -12.6579   20.3025 C   0  0  0  0  0  0  0  0  0  0  0  0
  -21.6868  -30.9099   23.1944 C   0  0  0  0  0  0  0  0  0  0  0  0
  -23.7686  -33.2381   24.0709 C   0  0  0  0  0  0  0  0  0  0  0  0
  -27.0073  -34.2844   24.3215 C   0  0  0  0  0  0  0  0  0  0  0  0
  -29.5974  -16.3600   21.3418 C   0  0  0  0  0  0  0  0  0  0  0  0
  -16.8078  -29.7195   24.1082 C   0  0  0  0  0  0  0  0  0  0  0  0
  -23.2980  -29.6240   24.6458 C   0  0  0  0  0  0  0  0  0  0  0  0
  -24.7086  -31.3428   22.6962 C   0  0  0  0  0  0  0  0  0  0  0  0
  -17.6394  -30.9996   24.1172 C   0  0  0  0  0  0  0  0  0  0  0  0
  -30.0032  -13.2857   19.5923 C   0  0  0  0  0  0  0  0  0  0  0  0
  -31.9051  -21.6450   18.1378 C   0  0  0  0  0  0  0  0  0  0  0  0
  -18.4599  -31.1122   22.8362 C   0  0  0  0  0  0  0  0  0  0  0  0
  -28.6315  -12.6174   19.7107 C   0  0  0  0  0  0  0  0  0  0  0  0
  -31.4056  -22.9324   18.7720 C   0  0  0  0  0  0  0  0  0  0  0  0
  -31.2092  -20.5605   18.9552 C   0  0  0  0  0  0  0  0  0  0  0  0
  -30.3739  -14.0486   20.8628 C   0  0  0  0  0  0  0  0  0  0  0  0
  -27.9976  -14.3484   21.4395 C   0  0  0  0  0  0  0  0  0  0  0  0
  -19.4457  -29.9446   22.7082 C   0  0  1  0  0  0  0  0  0  0  0  0
  -22.7584  -30.9934   24.2444 C   0  0  1  0  0  0  0  0  0  0  0  0
  -27.5522  -13.6218   20.1599 C   0  0  2  0  0  0  0  0  0  0  0  0
  -29.9399  -22.6221   19.1101 C   0  0  1  0  0  0  0  0  0  0  0  0
  -28.1111  -26.3578   16.5533 C   0  0  0  0  0  0  0  0  0  0  0  0
  -28.3926  -36.2491   25.0415 C   0  0  0  0  0  0  0  0  0  0  0  0
  -23.0025  -34.7129   21.5120 C   0  0  0  0  0  0  0  0  0  0  0  0
  -25.0458  -36.1306   21.8001 C   0  0  0  0  0  0  0  0  0  0  0  0
  -23.2454  -36.1754   23.5261 C   0  0  0  0  0  0  0  0  0  0  0  0
  -28.3943  -32.6938   26.3964 C   0  0  0  0  0  0  0  0  0  0  0  0
  -26.9541  -25.9158   20.8573 C   0  0  0  0  0  0  0  0  0  1  0  0
  -29.0176  -22.9121   17.9268 C   0  0  0  0  0  0  0  0  0  0  0  0
  -28.3404  -24.8628   16.5141 C   0  0  0  0  0  0  0  0  0  0  0  0
  -24.7336  -34.1400   23.3399 C   0  0  1  0  0  0  0  0  0  0  0  0
  -27.7729  -34.9263   25.4645 C   0  0  2  0  0  0  0  0  0  0  0  0
  -24.0090  -35.2614   22.5431 C   0  0  0  0  0  0  0  0  0  0  0  0
  -26.1492  -11.6750   20.7280 N   0  0  0  0  0  0  0  0  0  0  0  0
  -26.1988  -12.9562   20.3254 N   0  0  0  0  0  0  0  0  0  0  0  0
  -29.9654  -21.1850   19.4123 N   0  0  3  0  0  0  0  0  0  0  0  0
  -23.7998  -31.8804   23.7222 N   0  0  0  0  0  0  0  0  0  0  0  0
  -29.3071  -14.9842   21.2251 N   0  0  0  0  0  0  0  0  0  0  0  0
  -24.8410  -14.7941   19.7016 N   0  0  0  0  0  0  0  0  0  0  0  0
  -21.8402  -11.5481   20.6265 N   0  0  0  0  0  0  0  0  0  0  0  0
  -28.4976  -17.1566   21.6587 N   0  0  0  0  0  0  0  0  0  0  0  0
  -20.5917  -30.1541   23.5669 N   0  0  0  0  0  0  0  0  0  0  0  0
  -25.6729  -34.6309   24.3425 N   0  0  0  0  0  0  0  0  0  0  0  0
  -28.8638  -34.0234   25.9288 N   0  3  0  0  0  0  0  0  0  0  0  0
  -28.7068  -24.3820   17.8902 N   0  3  1  0  0  0  0  0  0  0  0  0
  -22.0785  -13.7205   19.9317 O   0  0  0  0  0  0  0  0  0  0  0  0
  -21.8416  -31.4897   22.1259 O   0  0  0  0  0  0  0  0  0  0  0  0
  -23.0200  -33.7192   24.9251 O   0  0  0  0  0  0  0  0  0  0  0  0
  -27.5406  -33.5521   23.4909 O   0  0  0  0  0  0  0  0  0  0  0  0
  -30.7323  -16.8026   21.1463 O   0  0  0  0  0  0  0  0  0  0  0  0
  -23.0069   -6.3649   22.3022 O   0  0  0  0  0  0  0  0  0  0  0  0
  -26.7944  -27.3334   20.8222 O   0  0  0  0  0  0  0  0  0  1  0  0
  -18.7991   -6.1432   25.8588 F   0  0  0  0  0  0  0  0  0  0  0  0
  -23.2862   -5.1181   24.7537 F   0  0  0  0  0  0  0  0  0  0  0  0
  1  2  1  0  0  0  0
  1  6  2  0  0  0  0
  2  7  2  0  0  0  0
  3  9  2  0  0  0  0
  3 10  1  0  0  0  0
  4 11  2  0  0  0  0
  4 19  1  0  0  0  0
  5 12  1  0  0  0  0
  5 19  2  0  0  0  0
  6 21  1  0  0  0  0
  7 23  1  0  0  0  0
  8 13  2  0  0  0  0
  8 22  1  0  0  0  0
  9 25  1  0  0  0  0
 10 26  2  0  0  0  0
 11 27  1  0  0  0  0
 12 27  2  0  0  0  0
 13 28  1  0  0  0  0
 14 15  2  0  0  0  0
 14 29  1  0  0  0  0
 15 30  1  0  0  0  0
 16 24  1  0  0  0  0
 16 28  2  0  0  0  0
 17 25  2  0  0  0  0
 17 26  1  0  0  0  0
 18 30  2  0  0  0  0
 18 31  1  0  0  0  0
 19 32  1  0  0  0  0
 20 32  1  0  0  0  0
 20 33  2  0  0  0  0
 20 36  1  0  0  0  0
 21 23  2  0  0  0  0
 21 41  1  0  0  0  0
 22 24  2  0  0  0  0
 22 42  1  0  0  0  0
 23 53  1  0  0  0  0
 24 43  1  0  0  0  0
 25 71  1  0  0  0  0
 26 76  1  0  0  0  0
 27 86  1  0  0  0  0
 28 87  1  0  0  0  0
 29 31  2  0  0  0  0
 29 86  1  0  0  0  0
 30 88  1  0  0  0  0
 31 89  1  0  0  0  0
 32 69  2  0  0  0  0
 33 70  1  0  0  0  0
 33 74  1  0  0  0  0
 34 35  2  0  0  0  0
 34 63  1  0  0  0  0
 35 80  1  0  0  0  0
 36 75  1  0  0  0  0
 36 81  2  0  0  0  0
 37 54  1  0  0  0  0
 37 77  1  0  0  0  0
 37 82  2  0  0  0  0
 38 66  1  0  0  0  0
 38 72  1  0  0  0  0
 38 83  2  0  0  0  0
 39 67  1  0  0  0  0
 39 78  1  0  0  0  0
 39 84  2  0  0  0  0
 40 73  1  0  0  0  0
 40 76  1  0  0  0  0
 40 85  2  0  0  0  0
 41 44  1  0  0  0  0
 42 54  1  0  0  0  0
 43 72  1  0  0  0  0
 44 47  1  0  0  0  0
 45 48  1  0  0  0  0
 45 51  1  0  0  0  0
 46 49  1  0  0  0  0
 46 50  1  0  0  0  0
 47 53  1  0  0  0  0
 48 55  1  0  0  0  0
 49 56  1  0  0  0  0
 50 71  1  0  0  0  0
 51 73  1  0  0  0  0
 52 55  1  0  0  0  0
 52 73  1  0  0  0  0
 53 77  1  0  0  0  0
 54 72  1  0  0  0  0
 55 70  1  0  0  0  0
 56 64  1  0  0  0  0
 56 71  1  0  0  0  0
 57 65  1  0  0  0  0
 58 67  1  0  0  0  0
 59 68  1  0  0  0  0
 60 68  1  0  0  0  0
 61 68  1  0  0  0  0
 62 79  1  0  0  0  0
 63 87  1  0  0  0  0
 64 80  1  0  0  0  0
 65 80  1  0  0  0  0
 66 68  1  0  0  0  0
 66 78  1  0  0  0  0
 67 79  1  0  0  0  0
 69 70  1  0  0  0  0
M  CHG  2  79   1  80   1
M  ISO  4  40 100  63 101  76 100  87 101
M  END
> <Batch ID>
0022

> <Smiles>
CCN(C=C[101CH2:1][101O:1]c1ccc2c(c1)CN(C(=O)C(NC(=O)C(C)NC)C(C)(C)C)C(C(=O)NC1CCCc3ccccc31)C2)CC1CCCN1c1cccc([100NH:0][100C:0](=O)N2CCCC(n3nc(-c4ccc(Oc5ccc(F)cc5F)cc4)c(C(N)=O)c3N)C2)c1

> <Shape>
0.365

> <Color>
0.105

> <Negative vol penalty>
0.000

$$$$

  -OEChem-04042321143D

 84 93  0     1  0  0  0  0  0999 V2000
  -29.8204  -34.7326   24.1543 C   0  0  0  0  0  0  0  0  0  0  0  0
  -30.1653  -33.4236   23.8334 C   0  0  0  0  0  0  0  0  0  0  0  0
  -23.1955   -9.6678   20.0831 C   0  0  0  0  0  0  0  0  0  0  0  0
  -23.8326   -9.9503   22.3964 C   0  0  0  0  0  0  0  0  0  0  0  0
  -28.4885  -35.0599   24.4051 C   0  0  0  0  0  0  0  0  0  0  0  0
  -29.1785  -32.4408   23.7641 C   0  0  0  0  0  0  0  0  0  0  0  0
  -29.0008  -27.6659   19.9333 C   0  0  0  0  0  0  0  0  0  0  0  0
  -22.4894   -8.5126   20.4186 C   0  0  0  0  0  0  0  0  0  0  0  0
  -23.1265   -8.7951   22.7319 C   0  0  0  0  0  0  0  0  0  0  0  0
  -29.3537  -26.3260   20.0876 C   0  0  0  0  0  0  0  0  0  0  0  0
  -19.9081   -7.9104   23.2609 C   0  0  0  0  0  0  0  0  0  0  0  0
  -19.0930   -7.9564   24.3918 C   0  0  0  0  0  0  0  0  0  0  0  0
  -27.0554  -25.7837   20.5806 C   0  0  0  0  0  0  0  0  0  0  0  0
  -30.4667  -19.2642   19.7892 C   0  0  0  0  0  0  0  0  0  0  0  0
  -29.8127  -19.5908   22.0919 C   0  0  0  0  0  0  0  0  0  0  0  0
  -20.3755   -6.1682   25.3890 C   0  0  0  0  0  0  0  0  0  0  0  0
  -23.8672  -10.3866   21.0720 C   0  0  0  0  0  0  0  0  0  0  0  0
  -24.1067  -12.8990   20.7001 C   0  0  0  0  0  0  0  0  0  0  0  0
  -27.4836  -34.0826   24.3294 C   0  0  0  0  0  0  0  0  0  0  0  0
  -27.6722  -28.0772   20.1125 C   0  0  0  0  0  0  0  0  0  0  0  0
  -27.8321  -32.7550   24.0154 C   0  0  0  0  0  0  0  0  0  0  0  0
  -26.6878  -27.1290   20.4255 C   0  0  0  0  0  0  0  0  0  0  0  0
  -30.1980  -20.1177   20.8592 C   0  0  0  0  0  0  0  0  0  0  0  0
  -29.9646  -17.3568   21.1845 C   0  0  0  0  0  0  0  0  0  0  0  0
  -22.4549   -8.0763   21.7430 C   0  0  0  0  0  0  0  0  0  0  0  0
  -28.3814  -25.3851   20.4141 C   0  0  0  0  0  0  0  0  0  0  0  0
  -20.9569   -6.9932   23.1940 C   0  0  0  0  0  0  0  0  0  0  0  0
  -19.3267   -7.0854   25.4559 C   0  0  0  0  0  0  0  0  0  0  0  0
  -30.3499  -17.8838   19.9518 C   0  0  0  0  0  0  0  0  0  0  0  0
  -21.1906   -6.1221   24.2580 C   0  0  0  0  0  0  0  0  0  0  0  0
  -29.6960  -18.2103   22.2545 C   0  0  0  0  0  0  0  0  0  0  0  0
  -24.5972  -11.5797   20.7259 C   0  0  0  0  0  0  0  0  0  0  0  0
  -25.1835  -13.6581   20.3117 C   0  0  0  0  0  0  0  0  0  0  0  0
  -22.7951  -13.3941   21.0004 C   0  0  0  0  0  0  0  0  0  0  0  0
  -26.1849  -30.0489   22.1136 C   0  0  0  0  0  0  0  0  0  0  0  0
  -23.6277  -29.4144   20.2215 C   0  0  0  0  0  0  0  0  0  0  0  0
  -22.1033  -27.2916   18.0268 C   0  0  0  0  0  0  0  0  0  0  0  0
  -30.5833  -14.9773   20.6353 C   0  0  0  0  0  0  0  0  0  0  0  0
  -26.0640  -34.4743   24.6551 C   0  0  0  0  0  0  0  0  0  0  0  0
  -27.3031  -29.5221   19.9163 C   0  0  0  0  0  0  0  0  0  0  0  0
  -25.2437  -27.5160   20.6087 C   0  0  0  0  0  0  0  0  0  0  0  0
  -25.0289  -33.4515   24.1939 C   0  0  0  0  0  0  0  0  0  0  0  0
  -29.6991  -12.2791   18.4871 C   0  0  0  0  0  0  0  0  0  0  0  0
  -25.4623  -32.0413   24.5815 C   0  0  0  0  0  0  0  0  0  0  0  0
  -28.2526  -11.9651   18.8759 C   0  0  0  0  0  0  0  0  0  0  0  0
  -30.9753  -23.5777   19.8473 C   0  0  0  0  0  0  0  0  0  0  0  0
  -30.5391  -12.6756   19.6999 C   0  0  0  0  0  0  0  0  0  0  0  0
  -30.7087  -22.1263   19.4486 C   0  0  0  0  0  0  0  0  0  0  0  0
  -28.5329  -13.4477   20.9033 C   0  0  0  0  0  0  0  0  0  0  0  0
  -30.0479  -22.4577   21.7561 C   0  0  0  0  0  0  0  0  0  0  0  0
  -26.7869  -31.6660   23.9062 C   0  0  1  0  0  0  0  0  0  0  0  0
  -26.0106  -29.9106   20.6277 C   0  0  1  0  0  0  0  0  0  0  0  0
  -27.6317  -13.1061   19.7055 C   0  0  2  0  0  0  0  0  0  0  0  0
  -30.0408  -23.8008   21.0274 C   0  0  2  0  0  0  0  0  0  1  0  0
  -20.0026  -27.0256   16.6801 C   0  0  0  0  0  0  0  0  0  0  0  0
  -22.1082  -28.6352   22.7502 C   0  0  0  0  0  0  0  0  0  0  0  0
  -20.4100  -27.5058   21.2980 C   0  0  0  0  0  0  0  0  0  0  0  0
  -20.7782  -29.9652   21.1019 C   0  0  0  0  0  0  0  0  0  0  0  0
  -23.6029  -27.2756   15.4753 C   0  0  0  0  0  0  0  0  0  0  0  0
  -22.5330  -28.3748   20.2168 C   0  0  1  0  0  0  0  0  0  0  0  0
  -21.4343  -27.5382   16.6866 C   0  0  2  0  0  0  0  0  0  0  0  0
  -21.4848  -28.6130   21.3403 C   0  0  0  0  0  0  0  0  0  0  0  0
  -25.8853  -11.5016   20.3812 N   0  0  0  0  0  0  0  0  0  0  0  0
  -26.2133  -12.7814   20.1350 N   0  0  0  0  0  0  0  0  0  0  0  0
  -30.3132  -21.4825   20.6977 N   0  0  3  0  0  0  0  0  0  0  0  0
  -24.9338  -28.9418   20.4124 N   0  0  0  0  0  0  0  0  0  0  0  0
  -29.8913  -13.7642   20.4347 N   0  0  0  0  0  0  0  0  0  0  0  0
  -25.3404  -14.9832   20.1074 N   0  0  0  0  0  0  0  0  0  0  0  0
  -21.8066  -12.4775   21.3839 N   0  0  0  0  0  0  0  0  0  0  0  0
  -29.8548  -15.9505   21.3186 N   0  0  0  0  0  0  0  0  0  0  0  0
  -26.5656  -31.3136   22.5201 N   0  0  0  0  0  0  0  0  0  0  0  0
  -21.9749  -28.3759   18.8689 N   0  0  0  0  0  0  0  0  0  0  0  0
  -22.1849  -26.8500   15.5986 N   0  3  0  0  0  0  0  0  0  0  0  0
  -22.5038  -14.6112   20.9150 O   0  0  0  0  0  0  0  0  0  0  0  0
  -25.9873  -29.0804   22.8379 O   0  0  0  0  0  0  0  0  0  0  0  0
  -23.3354  -30.6011   20.0546 O   0  0  0  0  0  0  0  0  0  0  0  0
  -22.6787  -26.2407   18.3007 O   0  0  0  0  0  0  0  0  0  0  0  0
  -31.7272  -15.1504   20.2069 O   0  0  0  0  0  0  0  0  0  0  0  0
  -21.7658   -6.9492   22.0708 O   0  0  0  0  0  0  0  0  0  0  0  0
  -28.7233  -24.0767   20.5659 O   0  0  0  0  0  0  0  0  0  1  0  0
  -18.5448   -7.1307   26.5425 F   0  0  0  0  0  0  0  0  0  0  0  0
  -30.6116  -17.0745   18.9152 F   0  0  0  0  0  0  0  0  0  0  0  0
  -22.1974   -5.2396   24.2000 F   0  0  0  0  0  0  0  0  0  0  0  0
  -29.2153  -17.6003   23.7979 Cl  0  0  0  0  0  0  0  0  0  0  0  0
  1  2  1  0  0  0  0
  1  5  2  0  0  0  0
  2  6  2  0  0  0  0
  3  8  2  0  0  0  0
  3 17  1  0  0  0  0
  4  9  1  0  0  0  0
  4 17  2  0  0  0  0
  5 19  1  0  0  0  0
  6 21  1  0  0  0  0
  7 10  2  0  0  0  0
  7 20  1  0  0  0  0
  8 25  1  0  0  0  0
  9 25  2  0  0  0  0
 10 26  1  0  0  0  0
 11 12  2  0  0  0  0
 11 27  1  0  0  0  0
 12 28  1  0  0  0  0
 13 22  1  0  0  0  0
 13 26  2  0  0  0  0
 14 23  1  0  0  0  0
 14 29  2  0  0  0  0
 15 23  2  0  0  0  0
 15 31  1  0  0  0  0
 16 28  2  0  0  0  0
 16 30  1  0  0  0  0
 17 32  1  0  0  0  0
 18 32  1  0  0  0  0
 18 33  2  0  0  0  0
 18 34  1  0  0  0  0
 19 21  2  0  0  0  0
 19 39  1  0  0  0  0
 20 22  2  0  0  0  0
 20 40  1  0  0  0  0
 21 51  1  0  0  0  0
 22 41  1  0  0  0  0
 23 65  1  0  0  0  0
 24 29  1  0  0  0  0
 24 31  2  0  0  0  0
 24 70  1  0  0  0  0
 25 79  1  0  0  0  0
 26 80  1  0  0  0  0
 27 30  2  0  0  0  0
 27 79  1  0  0  0  0
 28 81  1  0  0  0  0
 29 82  1  0  0  0  0
 30 83  1  0  0  0  0
 31 84  1  0  0  0  0
 32 63  2  0  0  0  0
 33 64  1  0  0  0  0
 33 68  1  0  0  0  0
 34 69  1  0  0  0  0
 34 74  2  0  0  0  0
 35 52  1  0  0  0  0
 35 71  1  0  0  0  0
 35 75  2  0  0  0  0
 36 60  1  0  0  0  0
 36 66  1  0  0  0  0
 36 76  2  0  0  0  0
 37 61  1  0  0  0  0
 37 72  1  0  0  0  0
 37 77  2  0  0  0  0
 38 67  1  0  0  0  0
 38 70  1  0  0  0  0
 38 78  2  0  0  0  0
 39 42  1  0  0  0  0
 40 52  1  0  0  0  0
 41 66  1  0  0  0  0
 42 44  1  0  0  0  0
 43 45  1  0  0  0  0
 43 47  1  0  0  0  0
 44 51  1  0  0  0  0
 45 53  1  0  0  0  0
 46 48  1  0  0  0  0
 46 54  1  0  0  0  0
 47 67  1  0  0  0  0
 48 65  1  0  0  0  0
 49 53  1  0  0  0  0
 49 67  1  0  0  0  0
 50 54  1  0  0  0  0
 50 65  1  0  0  0  0
 51 71  1  0  0  0  0
 52 66  1  0  0  0  0
 53 64  1  0  0  0  0
 54 80  1  0  0  0  0
 55 61  1  0  0  0  0
 56 62  1  0  0  0  0
 57 62  1  0  0  0  0
 58 62  1  0  0  0  0
 59 73  1  0  0  0  0
 60 62  1  0  0  0  0
 60 72  1  0  0  0  0
 61 73  1  0  0  0  0
 63 64  1  0  0  0  0
M  CHG  1  73   1
M  ISO  4  38 100  54 101  70 100  80 101
M  END
> <Batch ID>
0022

> <Smiles>
CNC(C)C(=O)NC(C(=O)N1Cc2cc([101O:1][101CH:1]3CCN(c4cc(F)c([100NH:0][100C:0](=O)N5CCCC(n6nc(-c7ccc(Oc8ccc(F)cc8F)cc7)c(C(N)=O)c6N)C5)c(Cl)c4)C3)ccc2CC1C(=O)NC1CCCc2ccccc21)C(C)(C)C

> <Shape>
0.382

> <Color>
0.204

> <Negative vol penalty>
0.000

$$$$

  -OEChem-04042321143D

 87 96  0     1  0  0  0  0  0999 V2000
  -35.5424  -13.5743   20.0843 C   0  0  0  0  0  0  0  0  0  0  0  0
  -35.3752  -14.9198   19.7770 C   0  0  0  0  0  0  0  0  0  0  0  0
  -23.5403  -10.1132   22.2925 C   0  0  0  0  0  0  0  0  0  0  0  0
  -23.5773   -9.5897   19.9342 C   0  0  0  0  0  0  0  0  0  0  0  0
  -35.6471  -13.1750   21.4150 C   0  0  0  0  0  0  0  0  0  0  0  0
  -35.3247  -15.8678   20.7995 C   0  0  0  0  0  0  0  0  0  0  0  0
  -35.2570  -20.6006   19.4581 C   0  0  0  0  0  0  0  0  0  0  0  0
  -29.6954  -17.9168   18.7703 C   0  0  0  0  0  0  0  0  0  0  0  0
  -29.8423  -19.1785   18.1941 C   0  0  0  0  0  0  0  0  0  0  0  0
  -22.8524   -8.9264   22.5451 C   0  0  0  0  0  0  0  0  0  0  0  0
  -22.8895   -8.4028   20.1868 C   0  0  0  0  0  0  0  0  0  0  0  0
  -34.1437  -21.2023   18.8730 C   0  0  0  0  0  0  0  0  0  0  0  0
  -20.7701   -6.2069   23.7667 C   0  0  0  0  0  0  0  0  0  0  0  0
  -19.6778   -6.2603   24.6325 C   0  0  0  0  0  0  0  0  0  0  0  0
  -33.6275  -22.2740   20.9716 C   0  0  0  0  0  0  0  0  0  0  0  0
  -18.5875   -7.8349   23.1597 C   0  0  0  0  0  0  0  0  0  0  0  0
  -23.9027  -10.4449   20.9870 C   0  0  0  0  0  0  0  0  0  0  0  0
  -24.1777  -12.9810   21.0019 C   0  0  0  0  0  0  0  0  0  0  0  0
  -35.5852  -14.1178   22.4543 C   0  0  0  0  0  0  0  0  0  0  0  0
  -35.5582  -20.8228   20.8095 C   0  0  0  0  0  0  0  0  0  0  0  0
  -35.4525  -15.4874   22.1477 C   0  0  0  0  0  0  0  0  0  0  0  0
  -34.7466  -21.6760   21.5708 C   0  0  0  0  0  0  0  0  0  0  0  0
  -29.2516  -17.7990   20.0874 C   0  0  0  0  0  0  0  0  0  0  0  0
  -29.5456  -20.3225   18.9350 C   0  0  0  0  0  0  0  0  0  0  0  0
  -22.5271   -8.0712   21.4923 C   0  0  0  0  0  0  0  0  0  0  0  0
  -33.3271  -22.0369   19.6305 C   0  0  0  0  0  0  0  0  0  0  0  0
  -20.7712   -6.9676   22.5974 C   0  0  0  0  0  0  0  0  0  0  0  0
  -18.5865   -7.0743   24.3290 C   0  0  0  0  0  0  0  0  0  0  0  0
  -19.6799   -7.7815   22.2939 C   0  0  0  0  0  0  0  0  0  0  0  0
  -28.9548  -18.9429   20.8284 C   0  0  0  0  0  0  0  0  0  0  0  0
  -29.1018  -20.2047   20.2522 C   0  0  0  0  0  0  0  0  0  0  0  0
  -24.6128  -11.6711   20.7253 C   0  0  0  0  0  0  0  0  0  0  0  0
  -25.2052  -13.7828   20.5685 C   0  0  0  0  0  0  0  0  0  0  0  0
  -22.9541  -13.4327   21.5974 C   0  0  0  0  0  0  0  0  0  0  0  0
  -35.7733  -18.9819   23.3919 C   0  0  0  0  0  0  0  0  0  0  0  0
  -36.8335  -21.7175   24.7757 C   0  0  0  0  0  0  0  0  0  0  0  0
  -36.9196  -25.1291   24.7571 C   0  0  0  0  0  0  0  0  0  0  0  0
  -30.8296  -14.6089   20.5900 C   0  0  0  0  0  0  0  0  0  0  0  0
  -35.7118  -13.6314   23.8765 C   0  0  0  0  0  0  0  0  0  0  0  0
  -36.7779  -20.1875   21.4187 C   0  0  0  0  0  0  0  0  0  0  0  0
  -35.0381  -21.9632   23.0203 C   0  0  0  0  0  0  0  0  0  0  0  0
  -35.2045  -14.6437   24.8984 C   0  0  0  0  0  0  0  0  0  0  0  0
  -29.2934  -12.7189   17.8026 C   0  0  0  0  0  0  0  0  0  0  0  0
  -29.1238  -23.2579   16.8312 C   0  0  0  0  0  0  0  0  0  0  0  0
  -35.8072  -16.0121   24.6178 C   0  0  0  0  0  0  0  0  0  0  0  0
  -27.9314  -12.3296   18.3749 C   0  0  0  0  0  0  0  0  0  0  0  0
  -29.8923  -23.8971   17.9742 C   0  0  0  0  0  0  0  0  0  0  0  0
  -29.5167  -21.7888   16.9274 C   0  0  0  0  0  0  0  0  0  0  0  0
  -30.3437  -12.8796   18.8974 C   0  0  0  0  0  0  0  0  0  0  0  0
  -28.5887  -13.4387   20.5471 C   0  0  0  0  0  0  0  0  0  0  0  0
  -35.3641  -16.5329   23.2447 C   0  0  1  0  0  0  0  0  0  0  0  0
  -36.6978  -20.0761   22.9381 C   0  0  1  0  0  0  0  0  0  0  0  0
  -27.4965  -13.3143   19.4742 C   0  0  2  0  0  0  0  0  0  0  0  0
  -29.8449  -22.8383   19.0896 C   0  0  2  0  0  0  0  0  0  0  0  0
  -37.8355  -27.0835   26.0373 C   0  0  0  0  0  0  0  0  0  0  0  0
  -34.6902  -21.3202   26.9108 C   0  0  0  0  0  0  0  0  0  0  0  0
  -35.0116  -23.7115   27.5791 C   0  0  0  0  0  0  0  0  0  0  0  0
  -36.9015  -22.0963   27.7841 C   0  0  0  0  0  0  0  0  0  0  0  0
  -31.3215  -16.7434   21.7221 C   0  0  0  0  0  0  0  0  0  0  0  0
  -38.5012  -26.0577   22.4344 C   0  0  0  0  0  0  0  0  0  0  0  0
  -29.0955  -16.4483   20.7005 C   0  0  0  0  0  0  0  0  0  0  0  0
  -31.1268  -22.8937   19.9142 C   0  0  0  0  0  0  0  0  0  1  0  0
  -36.1814  -22.8768   25.4897 C   0  0  1  0  0  0  0  0  0  0  0  0
  -38.0714  -26.1084   24.8944 C   0  0  2  0  0  0  0  0  0  0  0  0
  -35.6893  -22.4945   26.9142 C   0  0  0  0  0  0  0  0  0  0  0  0
  -25.8224  -11.6381   20.1598 N   0  0  0  0  0  0  0  0  0  0  0  0
  -26.1561  -12.9373   20.0775 N   0  0  0  0  0  0  0  0  0  0  0  0
  -29.6921  -21.5702   18.3624 N   0  0  3  0  0  0  0  0  0  0  0  0
  -36.2385  -21.3135   23.5722 N   0  0  0  0  0  0  0  0  0  0  0  0
  -29.8871  -13.7869   19.9507 N   0  0  0  0  0  0  0  0  0  0  0  0
  -25.3790  -15.1215   20.5632 N   0  0  0  0  0  0  0  0  0  0  0  0
  -21.8643  -13.7061   20.7595 N   0  0  0  0  0  0  0  0  0  0  0  0
  -36.1165  -17.7266   22.9272 N   0  0  0  0  0  0  0  0  0  0  0  0
  -37.1493  -23.9681   25.4647 N   0  0  0  0  0  0  0  0  0  0  0  0
  -30.3790  -15.8509   21.0625 N   0  0  0  0  0  0  0  0  0  0  0  0
  -38.2393  -26.8901   23.6367 N   0  3  0  0  0  0  0  0  0  0  0  0
  -22.8360  -13.6050   22.8342 O   0  0  0  0  0  0  0  0  0  0  0  0
  -34.8200  -19.2561   24.1115 O   0  0  0  0  0  0  0  0  0  0  0  0
  -37.8382  -21.1943   25.2642 O   0  0  0  0  0  0  0  0  0  0  0  0
  -35.9149  -25.3714   24.0920 O   0  0  0  0  0  0  0  0  0  0  0  0
  -32.0089  -14.2571   20.7219 O   0  0  0  0  0  0  0  0  0  0  0  0
  -21.8561   -6.9128   21.7385 O   0  0  0  0  0  0  0  0  0  0  0  0
  -32.2395  -22.6249   19.0621 O   0  0  0  0  0  0  0  0  0  1  0  0
  -17.5369   -7.1243   25.1597 F   0  0  0  0  0  0  0  0  0  0  0  0
  -19.6746   -8.5136   21.1715 F   0  0  0  0  0  0  0  0  0  0  0  0
  -28.5278  -18.8396   22.0946 F   0  0  0  0  0  0  0  0  0  0  0  0
  -28.8133  -21.2975   20.9732 F   0  0  0  0  0  0  0  0  0  0  0  0
  1  2  1  0  0  0  0
  1  5  2  0  0  0  0
  2  6  2  0  0  0  0
  3 10  2  0  0  0  0
  3 17  1  0  0  0  0
  4 11  1  0  0  0  0
  4 17  2  0  0  0  0
  5 19  1  0  0  0  0
  6 21  1  0  0  0  0
  7 12  2  0  0  0  0
  7 20  1  0  0  0  0
  8  9  2  0  0  0  0
  8 23  1  0  0  0  0
  9 24  1  0  0  0  0
 10 25  1  0  0  0  0
 11 25  2  0  0  0  0
 12 26  1  0  0  0  0
 13 14  2  0  0  0  0
 13 27  1  0  0  0  0
 14 28  1  0  0  0  0
 15 22  1  0  0  0  0
 15 26  2  0  0  0  0
 16 28  2  0  0  0  0
 16 29  1  0  0  0  0
 17 32  1  0  0  0  0
 18 32  1  0  0  0  0
 18 33  2  0  0  0  0
 18 34  1  0  0  0  0
 19 21  2  0  0  0  0
 19 39  1  0  0  0  0
 20 22  2  0  0  0  0
 20 40  1  0  0  0  0
 21 51  1  0  0  0  0
 22 41  1  0  0  0  0
 23 30  2  0  0  0  0
 23 61  1  0  0  0  0
 24 31  2  0  0  0  0
 24 68  1  0  0  0  0
 25 82  1  0  0  0  0
 26 83  1  0  0  0  0
 27 29  2  0  0  0  0
 27 82  1  0  0  0  0
 28 84  1  0  0  0  0
 29 85  1  0  0  0  0
 30 31  1  0  0  0  0
 30 86  1  0  0  0  0
 31 87  1  0  0  0  0
 32 66  2  0  0  0  0
 33 67  1  0  0  0  0
 33 71  1  0  0  0  0
 34 72  1  0  0  0  0
 34 77  2  0  0  0  0
 35 52  1  0  0  0  0
 35 73  1  0  0  0  0
 35 78  2  0  0  0  0
 36 63  1  0  0  0  0
 36 69  1  0  0  0  0
 36 79  2  0  0  0  0
 37 64  1  0  0  0  0
 37 74  1  0  0  0  0
 37 80  2  0  0  0  0
 38 70  1  0  0  0  0
 38 75  1  0  0  0  0
 38 81  2  0  0  0  0
 39 42  1  0  0  0  0
 40 52  1  0  0  0  0
 41 69  1  0  0  0  0
 42 45  1  0  0  0  0
 43 46  1  0  0  0  0
 43 49  1  0  0  0  0
 44 47  1  0  0  0  0
 44 48  1  0  0  0  0
 45 51  1  0  0  0  0
 46 53  1  0  0  0  0
 47 54  1  0  0  0  0
 48 68  1  0  0  0  0
 49 70  1  0  0  0  0
 50 53  1  0  0  0  0
 50 70  1  0  0  0  0
 51 73  1  0  0  0  0
 52 69  1  0  0  0  0
 53 67  1  0  0  0  0
 54 62  1  0  0  0  0
 54 68  1  0  0  0  0
 55 64  1  0  0  0  0
 56 65  1  0  0  0  0
 57 65  1  0  0  0  0
 58 65  1  0  0  0  0
 59 75  1  0  0  0  0
 60 76  1  0  0  0  0
 61 75  1  0  0  0  0
 62 83  1  0  0  0  0
 63 65  1  0  0  0  0
 63 74  1  0  0  0  0
 64 76  1  0  0  0  0
 66 67  1  0  0  0  0
M  CHG  1  76   1
M  ISO  4  38 100  62 101  75 100  83 101
M  END
> <Batch ID>
0022

> <Smiles>
CNC(C)C(=O)NC(C(=O)N1Cc2cc([101O:1][101CH2:1]C3CCCN3c3ccc(C[100N:0](C)[100C:0](=O)N4CCCC(n5nc(-c6ccc(Oc7ccc(F)cc7F)cc6)c(C(N)=O)c5N)C4)c(F)c3F)ccc2CC1C(=O)NC1CCCc2ccccc21)C(C)(C)C

> <Shape>
0.214

> <Color>
0.148

> <Negative vol penalty>
0.000

$$$$

  -OEChem-04042321143D

 86 95  0     1  0  0  0  0  0999 V2000
  -31.3721  -34.2908   18.1096 C   0  0  0  0  0  0  0  0  0  0  0  0
  -31.5345  -32.9921   18.5813 C   0  0  0  0  0  0  0  0  0  0  0  0
  -23.2409   -9.5915   19.9400 C   0  0  0  0  0  0  0  0  0  0  0  0
  -24.5565   -9.4086   21.9581 C   0  0  0  0  0  0  0  0  0  0  0  0
  -30.2863  -35.0551   18.5349 C   0  0  0  0  0  0  0  0  0  0  0  0
  -30.6117  -32.4574   19.4796 C   0  0  0  0  0  0  0  0  0  0  0  0
  -28.7485  -26.6330   19.8130 C   0  0  0  0  0  0  0  0  0  0  0  0
  -30.2725  -19.2774   24.4168 C   0  0  0  0  0  0  0  0  0  0  0  0
  -30.1241  -18.2393   23.4971 C   0  0  0  0  0  0  0  0  0  0  0  0
  -22.7567   -8.2985   20.1384 C   0  0  0  0  0  0  0  0  0  0  0  0
  -24.0723   -8.1156   22.1566 C   0  0  0  0  0  0  0  0  0  0  0  0
  -29.1260  -25.5731   20.6362 C   0  0  0  0  0  0  0  0  0  0  0  0
  -21.2538   -6.6659   23.3290 C   0  0  0  0  0  0  0  0  0  0  0  0
  -20.8371   -6.3218   24.6149 C   0  0  0  0  0  0  0  0  0  0  0  0
  -27.2728  -26.0594   22.1020 C   0  0  0  0  0  0  0  0  0  0  0  0
  -27.7266  -18.5328   23.5528 C   0  0  0  0  0  0  0  0  0  0  0  0
  -22.4866   -4.5576   24.6775 C   0  0  0  0  0  0  0  0  0  0  0  0
  -24.1409  -10.1465   20.8498 C   0  0  0  0  0  0  0  0  0  0  0  0
  -23.8902  -12.6699   20.5712 C   0  0  0  0  0  0  0  0  0  0  0  0
  -29.3445  -34.5260   19.4314 C   0  0  0  0  0  0  0  0  0  0  0  0
  -27.6348  -27.4222   20.1344 C   0  0  0  0  0  0  0  0  0  0  0  0
  -29.5131  -33.2157   19.9184 C   0  0  0  0  0  0  0  0  0  0  0  0
  -26.8817  -27.1271   21.2798 C   0  0  0  0  0  0  0  0  0  0  0  0
  -27.8750  -19.5709   24.4726 C   0  0  0  0  0  0  0  0  0  0  0  0
  -29.1480  -19.9432   24.9046 C   0  0  0  0  0  0  0  0  0  0  0  0
  -28.8511  -17.8670   23.0651 C   0  0  0  0  0  0  0  0  0  0  0  0
  -23.1724   -7.5606   21.2467 C   0  0  0  0  0  0  0  0  0  0  0  0
  -28.3899  -25.2879   21.7825 C   0  0  0  0  0  0  0  0  0  0  0  0
  -22.2868   -5.9557   22.7173 C   0  0  0  0  0  0  0  0  0  0  0  0
  -21.4535   -5.2677   25.2892 C   0  0  0  0  0  0  0  0  0  0  0  0
  -22.9032   -4.9016   23.3915 C   0  0  0  0  0  0  0  0  0  0  0  0
  -24.6419  -11.4819   20.6450 C   0  0  0  0  0  0  0  0  0  0  0  0
  -24.8249  -13.6557   20.3690 C   0  0  0  0  0  0  0  0  0  0  0  0
  -30.0185  -22.1793   25.6811 C   0  0  0  0  0  0  0  0  0  0  0  0
  -30.3626  -22.8543   24.5751 C   0  0  0  0  0  0  0  0  0  0  0  0
  -22.4736  -12.8648   20.6762 C   0  0  0  0  0  0  0  0  0  0  0  0
  -27.1848  -30.4927   20.8224 C   0  0  0  0  0  0  0  0  0  0  0  0
  -24.0538  -29.6476   20.7523 C   0  0  0  0  0  0  0  0  0  0  0  0
  -21.7107  -27.1836   21.0448 C   0  0  0  0  0  0  0  0  0  0  0  0
  -29.7119  -16.0499   21.5473 C   0  0  0  0  0  0  0  0  0  0  0  0
  -28.2131  -35.4068   19.8993 C   0  0  0  0  0  0  0  0  0  0  0  0
  -27.2248  -28.5453   19.2217 C   0  0  0  0  0  0  0  0  0  0  0  0
  -25.6659  -27.9314   21.6584 C   0  0  0  0  0  0  0  0  0  0  0  0
  -30.2911  -22.7467   27.0542 C   0  0  0  0  0  0  0  0  0  0  0  0
  -27.0750  -34.6354   20.5626 C   0  0  0  0  0  0  0  0  0  0  0  0
  -29.1840  -22.1148   27.8918 C   0  0  0  0  0  0  0  0  0  0  0  0
  -29.7478  -13.3441   19.2333 C   0  0  0  0  0  0  0  0  0  0  0  0
  -27.6267  -33.6284   21.5667 C   0  0  0  0  0  0  0  0  0  0  0  0
  -28.3608  -12.7162   19.3882 C   0  0  0  0  0  0  0  0  0  0  0  0
  -28.9197  -20.7607   27.2285 C   0  0  0  0  0  0  0  0  0  0  0  0
  -30.2973  -13.8420   20.5689 C   0  0  0  0  0  0  0  0  0  0  0  0
  -28.0188  -14.1154   21.4648 C   0  0  0  0  0  0  0  0  0  0  0  0
  -28.5198  -32.5917   20.8745 C   0  0  1  0  0  0  0  0  0  0  0  0
  -26.3766  -29.6035   19.9202 C   0  0  1  0  0  0  0  0  0  0  0  0
  -27.3962  -13.6577   20.1357 C   0  0  2  0  0  0  0  0  0  0  0  0
  -26.6537  -20.2662   24.9799 C   0  0  0  0  0  0  0  0  0  0  0  0
  -19.2310  -26.8049   20.9747 C   0  0  0  0  0  0  0  0  0  0  0  0
  -23.7909  -30.8691   23.5360 C   0  0  0  0  0  0  0  0  0  0  0  0
  -21.6222  -29.6446   23.7924 C   0  0  0  0  0  0  0  0  0  0  0  0
  -21.8807  -31.3578   21.9977 C   0  0  0  0  0  0  0  0  0  0  0  0
  -21.9414  -25.3328   18.7469 C   0  0  0  0  0  0  0  0  0  0  0  0
  -30.1248  -22.3565   23.1782 C   0  0  0  0  0  0  0  0  0  0  0  0
  -29.9061  -23.5036   22.1988 C   0  0  0  0  0  0  0  0  0  1  0  0
  -23.0620  -29.1343   21.7681 C   0  0  1  0  0  0  0  0  0  0  0  0
  -20.5237  -26.8138   20.1737 C   0  0  2  0  0  0  0  0  0  0  0  0
  -22.6130  -30.2373   22.7677 C   0  0  0  0  0  0  0  0  0  0  0  0
  -25.9531  -11.6916   20.5011 N   0  0  0  0  0  0  0  0  0  0  0  0
  -26.0326  -13.0229   20.3349 N   0  0  0  0  0  0  0  0  0  0  0  0
  -29.3166  -20.9887   25.8337 N   0  0  0  0  0  0  0  0  0  0  0  0
  -25.3091  -29.0232   20.7375 N   0  0  0  0  0  0  0  0  0  0  0  0
  -29.3317  -14.7317   21.2176 N   0  0  0  0  0  0  0  0  0  0  0  0
  -24.7234  -14.9934   20.2188 N   0  0  0  0  0  0  0  0  0  0  0  0
  -21.9238  -13.1011   21.9436 N   0  0  0  0  0  0  0  0  0  0  0  0
  -28.7006  -16.8128   22.1303 N   0  0  0  0  0  0  0  0  0  0  0  0
  -27.7118  -31.6038   20.1921 N   0  0  0  0  0  0  0  0  0  0  0  0
  -21.9700  -28.5374   21.0069 N   0  0  0  0  0  0  0  0  0  0  0  0
  -20.7183  -25.4606   19.5804 N   0  3  0  0  0  0  0  0  0  0  0  0
  -21.7157  -12.8142   19.6780 O   0  0  0  0  0  0  0  0  0  0  0  0
  -27.3190  -30.1937   22.0031 O   0  0  0  0  0  0  0  0  0  0  0  0
  -23.7244  -30.5638   19.9949 O   0  0  0  0  0  0  0  0  0  0  0  0
  -22.3423  -26.3550   21.6968 O   0  0  0  0  0  0  0  0  0  0  0  0
  -30.8425  -16.4794   21.3038 O   0  0  0  0  0  0  0  0  0  0  0  0
  -22.6999   -6.2990   21.4409 O   0  0  0  0  0  0  0  0  0  0  0  0
  -28.7566  -24.2543   22.5881 O   0  0  0  0  0  0  0  0  0  1  0  0
  -21.0543   -4.9385   26.5247 F   0  0  0  0  0  0  0  0  0  0  0  0
  -23.8970   -4.2165   22.8094 F   0  0  0  0  0  0  0  0  0  0  0  0
  1  2  1  0  0  0  0
  1  5  2  0  0  0  0
  2  6  2  0  0  0  0
  3 10  2  0  0  0  0
  3 18  1  0  0  0  0
  4 11  1  0  0  0  0
  4 18  2  0  0  0  0
  5 20  1  0  0  0  0
  6 22  1  0  0  0  0
  7 12  2  0  0  0  0
  7 21  1  0  0  0  0
  8  9  2  0  0  0  0
  8 25  1  0  0  0  0
  9 26  1  0  0  0  0
 10 27  1  0  0  0  0
 11 27  2  0  0  0  0
 12 28  1  0  0  0  0
 13 14  2  0  0  0  0
 13 29  1  0  0  0  0
 14 30  1  0  0  0  0
 15 23  1  0  0  0  0
 15 28  2  0  0  0  0
 16 24  1  0  0  0  0
 16 26  2  0  0  0  0
 17 30  2  0  0  0  0
 17 31  1  0  0  0  0
 18 32  1  0  0  0  0
 19 32  1  0  0  0  0
 19 33  2  0  0  0  0
 19 36  1  0  0  0  0
 20 22  2  0  0  0  0
 20 41  1  0  0  0  0
 21 23  2  0  0  0  0
 21 42  1  0  0  0  0
 22 53  1  0  0  0  0
 23 43  1  0  0  0  0
 24 25  2  0  0  0  0
 24 56  1  0  0  0  0
 25 69  1  0  0  0  0
 26 74  1  0  0  0  0
 27 83  1  0  0  0  0
 28 84  1  0  0  0  0
 29 31  2  0  0  0  0
 29 83  1  0  0  0  0
 30 85  1  0  0  0  0
 31 86  1  0  0  0  0
 32 67  2  0  0  0  0
 33 68  1  0  0  0  0
 33 72  1  0  0  0  0
 34 35  2  0  0  0  0
 34 44  1  0  0  0  0
 34 69  1  0  0  0  0
 35 62  1  0  0  0  0
 36 73  1  0  0  0  0
 36 78  2  0  0  0  0
 37 54  1  0  0  0  0
 37 75  1  0  0  0  0
 37 79  2  0  0  0  0
 38 64  1  0  0  0  0
 38 70  1  0  0  0  0
 38 80  2  0  0  0  0
 39 65  1  0  0  0  0
 39 76  1  0  0  0  0
 39 81  2  0  0  0  0
 40 71  1  0  0  0  0
 40 74  1  0  0  0  0
 40 82  2  0  0  0  0
 41 45  1  0  0  0  0
 42 54  1  0  0  0  0
 43 70  1  0  0  0  0
 44 46  1  0  0  0  0
 45 48  1  0  0  0  0
 46 50  1  0  0  0  0
 47 49  1  0  0  0  0
 47 51  1  0  0  0  0
 48 53  1  0  0  0  0
 49 55  1  0  0  0  0
 50 69  1  0  0  0  0
 51 71  1  0  0  0  0
 52 55  1  0  0  0  0
 52 71  1  0  0  0  0
 53 75  1  0  0  0  0
 54 70  1  0  0  0  0
 55 68  1  0  0  0  0
 57 65  1  0  0  0  0
 58 66  1  0  0  0  0
 59 66  1  0  0  0  0
 60 66  1  0  0  0  0
 61 77  1  0  0  0  0
 62 63  1  0  0  0  0
 63 84  1  0  0  0  0
 64 66  1  0  0  0  0
 64 76  1  0  0  0  0
 65 77  1  0  0  0  0
 67 68  1  0  0  0  0
M  CHG  1  77   1
M  ISO  4  40 100  63 101  74 100  84 101
M  END
> <Batch ID>
0022

> <Smiles>
CNC(C)C(=O)NC(C(=O)N1Cc2cc([101O:1][101CH2:1]CC=C3CCCN3c3ccc([100NH:0][100C:0](=O)N4CCCC(n5nc(-c6ccc(Oc7ccc(F)cc7F)cc6)c(C(N)=O)c5N)C4)cc3C)ccc2CC1C(=O)NC1CCCc2ccccc21)C(C)(C)C

> <Shape>
0.272

> <Color>
0.136

> <Negative vol penalty>
0.000

$$$$

  -OEChem-04042321143D

 87 96  0     1  0  0  0  0  0999 V2000
  -18.6141  -25.8933   19.5601 C   0  0  0  0  0  0  0  0  0  0  0  0
  -19.8017  -26.4556   19.1030 C   0  0  0  0  0  0  0  0  0  0  0  0
  -28.4441  -13.9709   21.1930 C   0  0  0  0  0  0  0  0  0  0  0  0
  -26.6673  -14.8824   19.8330 C   0  0  0  0  0  0  0  0  0  0  0  0
  -18.0061  -26.3916   20.7116 C   0  0  0  0  0  0  0  0  0  0  0  0
  -20.3814  -27.5173   19.7967 C   0  0  0  0  0  0  0  0  0  0  0  0
  -25.3805  -26.9578   20.3804 C   0  0  0  0  0  0  0  0  0  0  0  0
  -29.0411  -23.4405   18.9550 C   0  0  0  0  0  0  0  0  0  0  0  0
  -29.9519  -24.4532   18.6539 C   0  0  0  0  0  0  0  0  0  0  0  0
  -27.7438  -12.7696   21.3028 C   0  0  0  0  0  0  0  0  0  0  0  0
  -25.9671  -13.6810   19.9428 C   0  0  0  0  0  0  0  0  0  0  0  0
  -26.1863  -27.2463   19.2799 C   0  0  0  0  0  0  0  0  0  0  0  0
  -23.8770  -10.7303   19.5649 C   0  0  0  0  0  0  0  0  0  0  0  0
  -23.3054  -10.2038   18.4067 C   0  0  0  0  0  0  0  0  0  0  0  0
  -26.6912  -29.4080   20.2238 C   0  0  0  0  0  0  0  0  0  0  0  0
  -28.1383  -23.5876   16.7188 C   0  0  0  0  0  0  0  0  0  0  0  0
  -25.4913  -10.0774   17.3853 C   0  0  0  0  0  0  0  0  0  0  0  0
  -27.9058  -15.0274   20.4581 C   0  0  0  0  0  0  0  0  0  0  0  0
  -29.9101  -16.4592   19.7944 C   0  0  0  0  0  0  0  0  0  0  0  0
  -18.5837  -27.4537   21.4251 C   0  0  0  0  0  0  0  0  0  0  0  0
  -25.2151  -27.8982   21.4075 C   0  0  0  0  0  0  0  0  0  0  0  0
  -19.7798  -28.0312   20.9580 C   0  0  0  0  0  0  0  0  0  0  0  0
  -25.8849  -29.1280   21.3376 C   0  0  0  0  0  0  0  0  0  0  0  0
  -28.1344  -23.0077   17.9874 C   0  0  0  0  0  0  0  0  0  0  0  0
  -29.0491  -24.6002   16.4177 C   0  0  0  0  0  0  0  0  0  0  0  0
  -29.9559  -25.0330   17.3853 C   0  0  0  0  0  0  0  0  0  0  0  0
  -26.5053  -12.6247   20.6777 C   0  0  0  0  0  0  0  0  0  0  0  0
  -26.8395  -28.4727   19.2000 C   0  0  0  0  0  0  0  0  0  0  0  0
  -25.2558  -10.9304   19.6334 C   0  0  0  0  0  0  0  0  0  0  0  0
  -24.1125   -9.8774   17.3169 C   0  0  0  0  0  0  0  0  0  0  0  0
  -26.0629  -10.6040   18.5436 C   0  0  0  0  0  0  0  0  0  0  0  0
  -28.6284  -16.2688   20.3448 C   0  0  0  0  0  0  0  0  0  0  0  0
  -30.1421  -17.8068   19.9227 C   0  0  0  0  0  0  0  0  0  0  0  0
  -30.6349  -27.3666   16.7110 C   0  0  0  0  0  0  0  0  0  0  0  0
  -29.5531  -28.1390   16.8856 C   0  0  0  0  0  0  0  0  0  0  0  0
  -30.8103  -15.5033   19.2185 C   0  0  0  0  0  0  0  0  0  0  0  0
  -22.7431  -29.4923   22.6124 C   0  0  0  0  0  0  0  0  0  0  0  0
  -24.9376  -30.4755   24.7895 C   0  0  0  0  0  0  0  0  0  0  0  0
  -28.3804  -31.5541   24.7556 C   0  0  0  0  0  0  0  0  0  0  0  0
  -26.0581  -22.3306   20.5508 C   0  0  0  0  0  0  0  0  0  0  0  0
  -17.8648  -27.9894   22.6379 C   0  0  0  0  0  0  0  0  0  0  0  0
  -24.3637  -27.5611   22.6008 C   0  0  0  0  0  0  0  0  0  0  0  0
  -25.7564  -30.1638   22.4235 C   0  0  0  0  0  0  0  0  0  0  0  0
  -31.8962  -27.9236   16.0943 C   0  0  0  0  0  0  0  0  0  0  0  0
  -18.7403  -28.8707   23.5250 C   0  0  0  0  0  0  0  0  0  0  0  0
  -32.9775  -27.0510   16.7235 C   0  0  0  0  0  0  0  0  0  0  0  0
  -29.0151  -21.5701   22.6436 C   0  0  0  0  0  0  0  0  0  0  0  0
  -19.5137  -29.8778   22.6799 C   0  0  0  0  0  0  0  0  0  0  0  0
  -29.3082  -20.1132   22.2890 C   0  0  0  0  0  0  0  0  0  0  0  0
  -32.2995  -25.6980   16.9541 C   0  0  0  0  0  0  0  0  0  0  0  0
  -27.5358  -21.9066   22.4817 C   0  0  0  0  0  0  0  0  0  0  0  0
  -27.2825  -20.1303   20.7802 C   0  0  0  0  0  0  0  0  0  0  0  0
  -20.4524  -29.1677   21.6969 C   0  0  1  0  0  0  0  0  0  0  0  0
  -23.8570  -28.7952   23.3409 C   0  0  1  0  0  0  0  0  0  0  0  0
  -28.7720  -19.7710   20.8881 C   0  0  2  0  0  0  0  0  0  0  0  0
  -29.0314  -25.2038   15.0510 C   0  0  0  0  0  0  0  0  0  0  0  0
  -30.1430  -31.4416   26.5383 C   0  0  0  0  0  0  0  0  0  0  0  0
  -24.0287  -33.3099   25.4606 C   0  0  0  0  0  0  0  0  0  0  0  0
  -26.4233  -33.9015   25.8895 C   0  0  0  0  0  0  0  0  0  0  0  0
  -25.3010  -32.1633   27.2830 C   0  0  0  0  0  0  0  0  0  0  0  0
  -25.0691  -23.2222   18.4756 C   0  0  0  0  0  0  0  0  0  0  0  0
  -30.2449  -30.0913   22.9827 C   0  0  0  0  0  0  0  0  0  0  0  0
  -27.1608  -21.9249   18.3098 C   0  0  0  0  0  0  0  0  0  0  0  0
  -28.2741  -27.6583   17.4870 C   0  0  0  0  0  0  0  0  0  1  0  0
  -25.9043  -31.6311   24.8862 C   0  0  1  0  0  0  0  0  0  0  0  0
  -29.5782  -30.7876   25.2870 C   0  0  2  0  0  0  0  0  0  0  0  0
  -25.4063  -32.7408   25.8547 C   0  0  0  0  0  0  0  0  0  0  0  0
  -28.0845  -17.4046   20.7899 N   0  0  0  0  0  0  0  0  0  0  0  0
  -29.0289  -18.3216   20.5193 N   0  0  0  0  0  0  0  0  0  0  0  0
  -30.8828  -26.0546   17.0990 N   0  0  0  0  0  0  0  0  0  0  0  0
  -24.9077  -29.7898   23.5669 N   0  0  0  0  0  0  0  0  0  0  0  0
  -27.0417  -21.5314   21.1564 N   0  0  0  0  0  0  0  0  0  0  0  0
  -31.1878  -18.5899   19.5824 N   0  0  0  0  0  0  0  0  0  0  0  0
  -30.7255  -15.2503   17.8426 N   0  0  0  0  0  0  0  0  0  0  0  0
  -21.6376  -28.6964   22.3807 N   0  0  0  0  0  0  0  0  0  0  0  0
  -27.1941  -31.0549   25.2503 N   0  0  0  0  0  0  0  0  0  0  0  0
  -26.0620  -22.3976   19.1493 N   0  0  0  0  0  0  0  0  0  0  0  0
  -30.6554  -30.7321   24.2586 N   0  3  0  0  0  0  0  0  0  0  0  0
  -31.6535  -14.8797   19.9066 O   0  0  0  0  0  0  0  0  0  0  0  0
  -22.8762  -30.6660   22.2859 O   0  0  0  0  0  0  0  0  0  0  0  0
  -24.2401  -30.1873   25.7652 O   0  0  0  0  0  0  0  0  0  0  0  0
  -28.4868  -32.5033   23.9822 O   0  0  0  0  0  0  0  0  0  0  0  0
  -25.2300  -22.9566   21.2248 O   0  0  0  0  0  0  0  0  0  0  0  0
  -25.8219  -11.4525   20.7844 O   0  0  0  0  0  0  0  0  0  0  0  0
  -27.6261  -28.7571   18.1266 O   0  0  0  0  0  0  0  0  0  1  0  0
  -23.5636   -9.3703   16.2052 F   0  0  0  0  0  0  0  0  0  0  0  0
  -27.3882  -10.7929   18.6040 F   0  0  0  0  0  0  0  0  0  0  0  0
  1  2  1  0  0  0  0
  1  5  2  0  0  0  0
  2  6  2  0  0  0  0
  3 10  2  0  0  0  0
  3 18  1  0  0  0  0
  4 11  1  0  0  0  0
  4 18  2  0  0  0  0
  5 20  1  0  0  0  0
  6 22  1  0  0  0  0
  7 12  2  0  0  0  0
  7 21  1  0  0  0  0
  8  9  2  0  0  0  0
  8 24  1  0  0  0  0
  9 26  1  0  0  0  0
 10 27  1  0  0  0  0
 11 27  2  0  0  0  0
 12 28  1  0  0  0  0
 13 14  2  0  0  0  0
 13 29  1  0  0  0  0
 14 30  1  0  0  0  0
 15 23  1  0  0  0  0
 15 28  2  0  0  0  0
 16 24  2  0  0  0  0
 16 25  1  0  0  0  0
 17 30  2  0  0  0  0
 17 31  1  0  0  0  0
 18 32  1  0  0  0  0
 19 32  1  0  0  0  0
 19 33  2  0  0  0  0
 19 36  1  0  0  0  0
 20 22  2  0  0  0  0
 20 41  1  0  0  0  0
 21 23  2  0  0  0  0
 21 42  1  0  0  0  0
 22 53  1  0  0  0  0
 23 43  1  0  0  0  0
 24 63  1  0  0  0  0
 25 26  2  0  0  0  0
 25 56  1  0  0  0  0
 26 70  1  0  0  0  0
 27 84  1  0  0  0  0
 28 85  1  0  0  0  0
 29 31  2  0  0  0  0
 29 84  1  0  0  0  0
 30 86  1  0  0  0  0
 31 87  1  0  0  0  0
 32 68  2  0  0  0  0
 33 69  1  0  0  0  0
 33 73  1  0  0  0  0
 34 35  2  0  0  0  0
 34 44  1  0  0  0  0
 34 70  1  0  0  0  0
 35 64  1  0  0  0  0
 36 74  1  0  0  0  0
 36 79  2  0  0  0  0
 37 54  1  0  0  0  0
 37 75  1  0  0  0  0
 37 80  2  0  0  0  0
 38 65  1  0  0  0  0
 38 71  1  0  0  0  0
 38 81  2  0  0  0  0
 39 66  1  0  0  0  0
 39 76  1  0  0  0  0
 39 82  2  0  0  0  0
 40 72  1  0  0  0  0
 40 77  1  0  0  0  0
 40 83  2  0  0  0  0
 41 45  1  0  0  0  0
 42 54  1  0  0  0  0
 43 71  1  0  0  0  0
 44 46  1  0  0  0  0
 45 48  1  0  0  0  0
 46 50  1  0  0  0  0
 47 49  1  0  0  0  0
 47 51  1  0  0  0  0
 48 53  1  0  0  0  0
 49 55  1  0  0  0  0
 50 70  1  0  0  0  0
 51 72  1  0  0  0  0
 52 55  1  0  0  0  0
 52 72  1  0  0  0  0
 53 75  1  0  0  0  0
 54 71  1  0  0  0  0
 55 69  1  0  0  0  0
 57 66  1  0  0  0  0
 58 67  1  0  0  0  0
 59 67  1  0  0  0  0
 60 67  1  0  0  0  0
 61 77  1  0  0  0  0
 62 78  1  0  0  0  0
 63 77  1  0  0  0  0
 64 85  1  0  0  0  0
 65 67  1  0  0  0  0
 65 76  1  0  0  0  0
 66 78  1  0  0  0  0
 68 69  1  0  0  0  0
M  CHG  1  78   1
M  ISO  4  40 100  64 101  77 100  85 101
M  END
> <Batch ID>
0022

> <Smiles>
CNC(C)C(=O)NC(C(=O)N1Cc2cc([101O:1][101CH2:1]C=C3CCCN3c3ccc(C[100N:0](C)[100C:0](=O)N4CCCC(n5nc(-c6ccc(Oc7ccc(F)cc7F)cc6)c(C(N)=O)c5N)C4)cc3C)ccc2CC1C(=O)NC1CCCc2ccccc21)C(C)(C)C

> <Shape>
0.275

> <Color>
0.081

> <Negative vol penalty>
0.000

$$$$

  -OEChem-04042321143D

 83 91  0     1  0  0  0  0  0999 V2000
  -17.2465  -30.8296   24.0365 C   0  0  0  0  0  0  0  0  0  0  0  0
  -18.5945  -30.4953   23.9556 C   0  0  0  0  0  0  0  0  0  0  0  0
  -28.1404  -17.3836   19.5336 C   0  0  0  0  0  0  0  0  0  0  0  0
  -29.1255  -17.8601   21.6876 C   0  0  0  0  0  0  0  0  0  0  0  0
  -16.2782  -29.9280   23.5964 C   0  0  0  0  0  0  0  0  0  0  0  0
  -18.9750  -29.2587   23.4355 C   0  0  0  0  0  0  0  0  0  0  0  0
  -22.8438  -29.6242   20.1884 C   0  0  0  0  0  0  0  0  0  0  0  0
  -28.1302  -26.5793   18.0898 C   0  0  0  0  0  0  0  0  0  0  0  0
  -28.4670  -25.8681   16.9382 C   0  0  0  0  0  0  0  0  0  0  0  0
  -28.0153  -16.0403   19.8880 C   0  0  0  0  0  0  0  0  0  0  0  0
  -29.0004  -16.5168   22.0420 C   0  0  0  0  0  0  0  0  0  0  0  0
  -24.1184  -29.7799   20.7315 C   0  0  0  0  0  0  0  0  0  0  0  0
  -30.0106  -13.3188   20.0784 C   0  0  0  0  0  0  0  0  0  0  0  0
  -30.3912  -12.3628   19.1367 C   0  0  0  0  0  0  0  0  0  0  0  0
  -24.5417  -27.4287   20.3967 C   0  0  0  0  0  0  0  0  0  0  0  0
  -30.4710  -26.7712   18.6561 C   0  0  0  0  0  0  0  0  0  0  0  0
  -28.1497  -11.4612   19.1462 C   0  0  0  0  0  0  0  0  0  0  0  0
  -28.6955  -18.2935   20.4334 C   0  0  0  0  0  0  0  0  0  0  0  0
  -27.8825  -20.7061   20.2725 C   0  0  0  0  0  0  0  0  0  0  0  0
  -16.6475  -28.6837   23.0617 C   0  0  0  0  0  0  0  0  0  0  0  0
  -22.4038  -28.3653   19.7546 C   0  0  0  0  0  0  0  0  0  0  0  0
  -18.0107  -28.3391   22.9891 C   0  0  0  0  0  0  0  0  0  0  0  0
  -23.2620  -27.2602   19.8460 C   0  0  0  0  0  0  0  0  0  0  0  0
  -29.1322  -27.0309   18.9488 C   0  0  0  0  0  0  0  0  0  0  0  0
  -29.8059  -25.6083   16.6455 C   0  0  0  0  0  0  0  0  0  0  0  0
  -28.4453  -15.6069   21.1421 C   0  0  0  0  0  0  0  0  0  0  0  0
  -24.9665  -28.6815   20.8384 C   0  0  0  0  0  0  0  0  0  0  0  0
  -28.6996  -13.3460   20.5540 C   0  0  0  0  0  0  0  0  0  0  0  0
  -29.4607  -11.4340   18.6706 C   0  0  0  0  0  0  0  0  0  0  0  0
  -30.8079  -26.0599   17.5045 C   0  0  0  0  0  0  0  0  0  0  0  0
  -27.7692  -12.4173   20.0879 C   0  0  0  0  0  0  0  0  0  0  0  0
  -28.8255  -19.6811   20.0677 C   0  0  0  0  0  0  0  0  0  0  0  0
  -28.4780  -21.8293   19.7526 C   0  0  0  0  0  0  0  0  0  0  0  0
  -28.7197  -29.0312   19.9752 C   0  0  0  0  0  0  0  0  0  0  0  0
  -26.5845  -20.6482   20.8785 C   0  0  0  0  0  0  0  0  0  0  0  0
  -20.0459  -26.4034   20.5882 C   0  0  0  0  0  0  0  0  0  0  0  0
  -21.0761  -24.7048   18.0239 C   0  0  0  0  0  0  0  0  0  0  0  0
  -23.6245  -23.9489   15.8835 C   0  0  0  0  0  0  0  0  0  0  0  0
  -31.2928  -24.0544   15.3550 C   0  0  0  0  0  0  0  0  0  0  0  0
  -15.5630  -27.7230   22.6426 C   0  0  0  0  0  0  0  0  0  0  0  0
  -21.0359  -28.2193   19.1465 C   0  0  0  0  0  0  0  0  0  0  0  0
  -22.8450  -25.8913   19.3761 C   0  0  0  0  0  0  0  0  0  0  0  0
  -16.0659  -26.5851   21.7580 C   0  0  0  0  0  0  0  0  0  0  0  0
  -33.2065  -22.6782   18.2075 C   0  0  0  0  0  0  0  0  0  0  0  0
  -17.3384  -25.9784   22.3406 C   0  0  0  0  0  0  0  0  0  0  0  0
  -32.1785  -21.7937   18.9106 C   0  0  0  0  0  0  0  0  0  0  0  0
  -32.9296  -22.7888   16.7112 C   0  0  0  0  0  0  0  0  0  0  0  0
  -30.5170  -22.3756   17.0988 C   0  0  0  0  0  0  0  0  0  0  0  0
  -18.4642  -27.0174   22.4081 C   0  0  1  0  0  0  0  0  0  0  0  0
  -20.5030  -26.7912   19.2104 C   0  0  1  0  0  0  0  0  0  0  0  0
  -30.7506  -22.2809   18.6140 C   0  0  1  0  0  0  0  0  0  0  0  0
  -24.1766  -22.4965   13.9129 C   0  0  0  0  0  0  0  0  0  0  0  0
  -21.2893  -22.2849   19.8703 C   0  0  0  0  0  0  0  0  0  0  0  0
  -22.7071  -21.1717   18.1328 C   0  0  0  0  0  0  0  0  0  0  0  0
  -20.3485  -21.7902   17.6065 C   0  0  0  0  0  0  0  0  0  0  0  0
  -29.4343  -25.1909   14.2210 C   0  0  0  0  0  0  0  0  0  0  0  0
  -24.1924  -26.2927   14.1680 C   0  0  0  0  0  0  0  0  0  0  0  0
  -28.3501  -29.9033   21.1452 C   0  0  0  0  0  0  0  0  0  0  0  0
  -26.8440  -30.0974   21.1937 C   0  0  0  0  0  0  0  0  0  1  0  0
  -22.0923  -23.6100   17.8050 C   0  0  1  0  0  0  0  0  0  0  0  0
  -23.6743  -23.8575   14.3690 C   0  0  2  0  0  0  0  0  0  0  0  0
  -21.6168  -22.2395   18.3644 C   0  0  0  0  0  0  0  0  0  0  0  0
  -29.9356  -20.1147   19.4646 N   0  0  0  0  0  0  0  0  0  0  0  0
  -28.7928  -27.7472   20.1088 N   0  0  0  0  0  0  0  0  0  0  0  0
  -29.6939  -21.4245   19.2859 N   0  0  0  0  0  0  0  0  0  0  0  0
  -21.4957  -25.7983   18.7946 N   0  0  0  0  0  0  0  0  0  0  0  0
  -31.5491  -23.1953   16.4433 N   0  0  0  0  0  0  0  0  0  0  0  0
  -28.0748  -23.1139   19.6536 N   0  0  0  0  0  0  0  0  0  0  0  0
  -26.1265  -19.4142   21.3601 N   0  0  0  0  0  0  0  0  0  0  0  0
  -19.0500  -27.2136   21.0994 N   0  0  0  0  0  0  0  0  0  0  0  0
  -22.3835  -23.6034   16.3755 N   0  0  0  0  0  0  0  0  0  0  0  0
  -30.1514  -24.8727   15.4538 N   0  0  0  0  0  0  0  0  0  0  0  0
  -24.5817  -24.9027   13.8166 N   0  3  0  0  0  0  0  0  0  0  0  0
  -25.8456  -21.6573   20.9749 O   0  0  0  0  0  0  0  0  0  0  0  0
  -20.5578  -25.4396   21.1456 O   0  0  0  0  0  0  0  0  0  0  0  0
  -19.9538  -24.5970   17.5235 O   0  0  0  0  0  0  0  0  0  0  0  0
  -24.5909  -24.2889   16.5625 O   0  0  0  0  0  0  0  0  0  0  0  0
  -32.0000  -24.0535   14.3399 O   0  0  0  0  0  0  0  0  0  0  0  0
  -28.3232  -14.2963   21.4883 O   0  0  0  0  0  0  0  0  0  0  0  0
  -26.2108  -28.8305   21.3687 O   0  0  0  0  0  0  0  0  0  1  0  0
  -29.8259  -10.5170   17.7651 F   0  0  0  0  0  0  0  0  0  0  0  0
  -32.0980  -25.8153   17.2338 F   0  0  0  0  0  0  0  0  0  0  0  0
  -26.5079  -12.4392   20.5403 F   0  0  0  0  0  0  0  0  0  0  0  0
  1  2  1  0  0  0  0
  1  5  2  0  0  0  0
  2  6  2  0  0  0  0
  3 10  2  0  0  0  0
  3 18  1  0  0  0  0
  4 11  1  0  0  0  0
  4 18  2  0  0  0  0
  5 20  1  0  0  0  0
  6 22  1  0  0  0  0
  7 12  2  0  0  0  0
  7 21  1  0  0  0  0
  8  9  2  0  0  0  0
  8 24  1  0  0  0  0
  9 25  1  0  0  0  0
 10 26  1  0  0  0  0
 11 26  2  0  0  0  0
 12 27  1  0  0  0  0
 13 14  2  0  0  0  0
 13 28  1  0  0  0  0
 14 29  1  0  0  0  0
 15 23  1  0  0  0  0
 15 27  2  0  0  0  0
 16 24  2  0  0  0  0
 16 30  1  0  0  0  0
 17 29  2  0  0  0  0
 17 31  1  0  0  0  0
 18 32  1  0  0  0  0
 19 32  1  0  0  0  0
 19 33  2  0  0  0  0
 19 35  1  0  0  0  0
 20 22  2  0  0  0  0
 20 40  1  0  0  0  0
 21 23  2  0  0  0  0
 21 41  1  0  0  0  0
 22 49  1  0  0  0  0
 23 42  1  0  0  0  0
 24 64  1  0  0  0  0
 25 30  2  0  0  0  0
 25 72  1  0  0  0  0
 26 79  1  0  0  0  0
 27 80  1  0  0  0  0
 28 31  2  0  0  0  0
 28 79  1  0  0  0  0
 29 81  1  0  0  0  0
 30 82  1  0  0  0  0
 31 83  1  0  0  0  0
 32 63  2  0  0  0  0
 33 65  1  0  0  0  0
 33 68  1  0  0  0  0
 34 58  1  0  0  0  0
 34 64  2  0  0  0  0
 35 69  1  0  0  0  0
 35 74  2  0  0  0  0
 36 50  1  0  0  0  0
 36 70  1  0  0  0  0
 36 75  2  0  0  0  0
 37 60  1  0  0  0  0
 37 66  1  0  0  0  0
 37 76  2  0  0  0  0
 38 61  1  0  0  0  0
 38 71  1  0  0  0  0
 38 77  2  0  0  0  0
 39 67  1  0  0  0  0
 39 72  1  0  0  0  0
 39 78  2  0  0  0  0
 40 43  1  0  0  0  0
 41 50  1  0  0  0  0
 42 66  1  0  0  0  0
 43 45  1  0  0  0  0
 44 46  1  0  0  0  0
 44 47  1  0  0  0  0
 45 49  1  0  0  0  0
 46 51  1  0  0  0  0
 47 67  1  0  0  0  0
 48 51  1  0  0  0  0
 48 67  1  0  0  0  0
 49 70  1  0  0  0  0
 50 66  1  0  0  0  0
 51 65  1  0  0  0  0
 52 61  1  0  0  0  0
 53 62  1  0  0  0  0
 54 62  1  0  0  0  0
 55 62  1  0  0  0  0
 56 72  1  0  0  0  0
 57 73  1  0  0  0  0
 58 59  1  0  0  0  0
 59 80  1  0  0  0  0
 60 62  1  0  0  0  0
 60 71  1  0  0  0  0
 61 73  1  0  0  0  0
 63 65  1  0  0  0  0
M  CHG  1  73   1
M  ISO  4  39 100  59 101  72 100  80 101
M  END
> <Batch ID>
0022

> <Smiles>
CNC(C)C(=O)NC(C(=O)N1Cc2cc([101O:1][101CH2:1]C=CNc3ccc([100N:0](C)[100C:0](=O)N4CCCC(n5nc(-c6ccc(Oc7ccc(F)cc7F)cc6)c(C(N)=O)c5N)C4)c(F)c3)ccc2CC1C(=O)NC1CCCc2ccccc21)C(C)(C)C

> <Shape>
0.260

> <Color>
0.056

> <Negative vol penalty>
0.000

$$$$

  -OEChem-04042321143D

 85 94  0     1  0  0  0  0  0999 V2000
  -29.4311  -30.8766   26.6045 C   0  0  0  0  0  0  0  0  0  0  0  0
  -29.2222  -30.0158   25.5318 C   0  0  0  0  0  0  0  0  0  0  0  0
  -24.2792   -8.8344   21.3915 C   0  0  0  0  0  0  0  0  0  0  0  0
  -23.9433  -10.6727   22.9228 C   0  0  0  0  0  0  0  0  0  0  0  0
  -28.3462  -31.3349   27.3507 C   0  0  0  0  0  0  0  0  0  0  0  0
  -27.9281  -29.6118   25.2053 C   0  0  0  0  0  0  0  0  0  0  0  0
  -27.0280  -29.8139   20.2259 C   0  0  0  0  0  0  0  0  0  0  0  0
  -29.5869  -20.1607   19.0011 C   0  0  0  0  0  0  0  0  0  0  0  0
  -29.6435  -18.7675   19.0374 C   0  0  0  0  0  0  0  0  0  0  0  0
  -23.7536   -7.9521   22.3354 C   0  0  0  0  0  0  0  0  0  0  0  0
  -23.4177   -9.7905   23.8667 C   0  0  0  0  0  0  0  0  0  0  0  0
  -27.5404  -28.7798   19.4438 C   0  0  0  0  0  0  0  0  0  0  0  0
  -20.6992   -7.0421   23.4650 C   0  0  0  0  0  0  0  0  0  0  0  0
  -19.7750   -6.0954   23.0233 C   0  0  0  0  0  0  0  0  0  0  0  0
  -25.3684  -27.7303   19.4191 C   0  0  0  0  0  0  0  0  0  0  0  0
  -21.2389   -4.3213   23.7627 C   0  0  0  0  0  0  0  0  0  0  0  0
  -24.3741  -10.1947   21.6852 C   0  0  0  0  0  0  0  0  0  0  0  0
  -24.2107  -11.8071   19.7152 C   0  0  0  0  0  0  0  0  0  0  0  0
  -27.0373  -30.9440   27.0272 C   0  0  0  0  0  0  0  0  0  0  0  0
  -25.6823  -29.8084   20.6203 C   0  0  0  0  0  0  0  0  0  0  0  0
  -26.8247  -30.0642   25.9487 C   0  0  0  0  0  0  0  0  0  0  0  0
  -24.8408  -28.7669   20.2041 C   0  0  0  0  0  0  0  0  0  0  0  0
  -28.3865  -20.8022   18.6955 C   0  0  0  0  0  0  0  0  0  0  0  0
  -28.4998  -18.0157   18.7680 C   0  0  0  0  0  0  0  0  0  0  0  0
  -23.3228   -8.4301   23.5730 C   0  0  0  0  0  0  0  0  0  0  0  0
  -26.7113  -27.7363   19.0427 C   0  0  0  0  0  0  0  0  0  0  0  0
  -21.8934   -6.6284   24.0555 C   0  0  0  0  0  0  0  0  0  0  0  0
  -20.0448   -4.7350   23.1722 C   0  0  0  0  0  0  0  0  0  0  0  0
  -22.1631   -5.2680   24.2044 C   0  0  0  0  0  0  0  0  0  0  0  0
  -27.2429  -20.0505   18.4261 C   0  0  0  0  0  0  0  0  0  0  0  0
  -27.2995  -18.6573   18.4624 C   0  0  0  0  0  0  0  0  0  0  0  0
  -24.9175  -11.1065   20.7109 C   0  0  0  0  0  0  0  0  0  0  0  0
  -25.1734  -12.5325   19.0567 C   0  0  0  0  0  0  0  0  0  0  0  0
  -22.8092  -11.8026   19.4125 C   0  0  0  0  0  0  0  0  0  0  0  0
  -24.1630  -29.7089   23.4106 C   0  0  0  0  0  0  0  0  0  0  0  0
  -21.5384  -30.1448   21.5548 C   0  0  0  0  0  0  0  0  0  0  0  0
  -20.0764  -29.8383   18.4863 C   0  0  0  0  0  0  0  0  0  0  0  0
  -29.6743  -15.8102   19.0879 C   0  0  0  0  0  0  0  0  0  0  0  0
  -25.9004  -31.4279   27.8921 C   0  0  0  0  0  0  0  0  0  0  0  0
  -25.1385  -30.9450   21.4417 C   0  0  0  0  0  0  0  0  0  0  0  0
  -23.3839  -28.7246   20.5838 C   0  0  0  0  0  0  0  0  0  0  0  0
  -24.5274  -31.2500   27.2491 C   0  0  0  0  0  0  0  0  0  0  0  0
  -30.2233  -12.2994   19.3121 C   0  0  0  0  0  0  0  0  0  0  0  0
  -24.3945  -29.8525   26.6522 C   0  0  0  0  0  0  0  0  0  0  0  0
  -28.8338  -11.7337   19.6141 C   0  0  0  0  0  0  0  0  0  0  0  0
  -28.8599  -24.4401   19.0578 C   0  0  0  0  0  0  0  0  0  0  0  0
  -30.4545  -13.6385   20.0100 C   0  0  0  0  0  0  0  0  0  0  0  0
  -29.4764  -23.0490   18.9274 C   0  0  0  0  0  0  0  0  0  0  0  0
  -27.1261  -22.9458   18.3596 C   0  0  0  0  0  0  0  0  0  0  0  0
  -28.0329  -14.0879   20.0651 C   0  0  0  0  0  0  0  0  0  0  0  0
  -25.4336  -29.6231   25.5481 C   0  0  1  0  0  0  0  0  0  0  0  0
  -23.8772  -30.5733   22.2153 C   0  0  1  0  0  0  0  0  0  0  0  0
  -27.6451  -24.3708   18.1369 C   0  0  1  0  0  0  0  0  0  0  0  0
  -27.7294  -12.7712   19.3318 C   0  0  2  0  0  0  0  0  0  0  0  0
  -17.9099  -30.2449   17.2870 C   0  0  0  0  0  0  0  0  0  0  0  0
  -20.3402  -27.6752   22.8871 C   0  0  0  0  0  0  0  0  0  0  0  0
  -18.6595  -27.5766   21.0341 C   0  0  0  0  0  0  0  0  0  0  0  0
  -18.7322  -29.5599   22.5454 C   0  0  0  0  0  0  0  0  0  0  0  0
  -21.3418  -31.7381   16.6026 C   0  0  0  0  0  0  0  0  0  0  0  0
  -26.6080  -25.4401   18.4321 C   0  0  0  0  0  0  0  0  0  1  0  0
  -20.5705  -29.2325   20.8408 C   0  0  1  0  0  0  0  0  0  0  0  0
  -19.2706  -30.8176   17.6521 C   0  0  2  0  0  0  0  0  0  0  0  0
  -19.6035  -28.5105   21.8211 C   0  0  0  0  0  0  0  0  0  0  0  0
  -26.2281  -11.3636   20.6904 N   0  0  0  0  0  0  0  0  0  0  0  0
  -26.3524  -12.2337   19.6738 N   0  0  0  0  0  0  0  0  0  0  0  0
  -28.3336  -22.1795   18.6603 N   0  0  3  0  0  0  0  0  0  0  0  0
  -22.9008  -29.8557   21.3931 N   0  0  0  0  0  0  0  0  0  0  0  0
  -29.3715  -14.5721   19.6931 N   0  0  0  0  0  0  0  0  0  0  0  0
  -25.1179  -13.3903   18.0158 N   0  0  0  0  0  0  0  0  0  0  0  0
  -21.9608  -11.0006   20.1880 N   0  0  0  0  0  0  0  0  0  0  0  0
  -28.5612  -16.6006   18.8036 N   0  0  0  0  0  0  0  0  0  0  0  0
  -25.0259  -30.2815   24.3255 N   0  0  0  0  0  0  0  0  0  0  0  0
  -19.9011  -30.0528   19.8370 N   0  0  0  0  0  0  0  0  0  0  0  0
  -19.9963  -31.1445   16.3922 N   0  3  0  0  0  0  0  0  0  0  0  0
  -22.3260  -12.4767   18.4715 O   0  0  0  0  0  0  0  0  0  0  0  0
  -23.6383  -28.6049   23.4972 O   0  0  0  0  0  0  0  0  0  0  0  0
  -21.1021  -31.0837   22.2253 O   0  0  0  0  0  0  0  0  0  0  0  0
  -20.7872  -28.9674   17.9894 O   0  0  0  0  0  0  0  0  0  0  0  0
  -30.8334  -16.1330   18.8153 O   0  0  0  0  0  0  0  0  0  0  0  0
  -22.8096   -7.5695   24.4941 O   0  0  0  0  0  0  0  0  0  0  0  0
  -27.2091  -26.7253   18.2798 O   0  0  0  0  0  0  0  0  0  1  0  0
  -19.1564   -3.8260   22.7494 F   0  0  0  0  0  0  0  0  0  0  0  0
  -23.3081   -4.8646   24.7720 F   0  0  0  0  0  0  0  0  0  0  0  0
  -26.0841  -20.6567   18.1312 F   0  0  0  0  0  0  0  0  0  0  0  0
  -26.1949  -17.9440   18.2009 F   0  0  0  0  0  0  0  0  0  0  0  0
  1  2  1  0  0  0  0
  1  5  2  0  0  0  0
  2  6  2  0  0  0  0
  3 10  2  0  0  0  0
  3 17  1  0  0  0  0
  4 11  1  0  0  0  0
  4 17  2  0  0  0  0
  5 19  1  0  0  0  0
  6 21  1  0  0  0  0
  7 12  2  0  0  0  0
  7 20  1  0  0  0  0
  8  9  2  0  0  0  0
  8 23  1  0  0  0  0
  9 24  1  0  0  0  0
 10 25  1  0  0  0  0
 11 25  2  0  0  0  0
 12 26  1  0  0  0  0
 13 14  2  0  0  0  0
 13 27  1  0  0  0  0
 14 28  1  0  0  0  0
 15 22  1  0  0  0  0
 15 26  2  0  0  0  0
 16 28  2  0  0  0  0
 16 29  1  0  0  0  0
 17 32  1  0  0  0  0
 18 32  1  0  0  0  0
 18 33  2  0  0  0  0
 18 34  1  0  0  0  0
 19 21  2  0  0  0  0
 19 39  1  0  0  0  0
 20 22  2  0  0  0  0
 20 40  1  0  0  0  0
 21 51  1  0  0  0  0
 22 41  1  0  0  0  0
 23 30  2  0  0  0  0
 23 66  1  0  0  0  0
 24 31  2  0  0  0  0
 24 71  1  0  0  0  0
 25 80  1  0  0  0  0
 26 81  1  0  0  0  0
 27 29  2  0  0  0  0
 27 80  1  0  0  0  0
 28 82  1  0  0  0  0
 29 83  1  0  0  0  0
 30 31  1  0  0  0  0
 30 84  1  0  0  0  0
 31 85  1  0  0  0  0
 32 64  2  0  0  0  0
 33 65  1  0  0  0  0
 33 69  1  0  0  0  0
 34 70  1  0  0  0  0
 34 75  2  0  0  0  0
 35 52  1  0  0  0  0
 35 72  1  0  0  0  0
 35 76  2  0  0  0  0
 36 61  1  0  0  0  0
 36 67  1  0  0  0  0
 36 77  2  0  0  0  0
 37 62  1  0  0  0  0
 37 73  1  0  0  0  0
 37 78  2  0  0  0  0
 38 68  1  0  0  0  0
 38 71  1  0  0  0  0
 38 79  2  0  0  0  0
 39 42  1  0  0  0  0
 40 52  1  0  0  0  0
 41 67  1  0  0  0  0
 42 44  1  0  0  0  0
 43 45  1  0  0  0  0
 43 47  1  0  0  0  0
 44 51  1  0  0  0  0
 45 54  1  0  0  0  0
 46 48  1  0  0  0  0
 46 53  1  0  0  0  0
 47 68  1  0  0  0  0
 48 66  1  0  0  0  0
 49 53  1  0  0  0  0
 49 66  1  0  0  0  0
 50 54  1  0  0  0  0
 50 68  1  0  0  0  0
 51 72  1  0  0  0  0
 52 67  1  0  0  0  0
 53 60  1  0  0  0  0
 54 65  1  0  0  0  0
 55 62  1  0  0  0  0
 56 63  1  0  0  0  0
 57 63  1  0  0  0  0
 58 63  1  0  0  0  0
 59 74  1  0  0  0  0
 60 81  1  0  0  0  0
 61 63  1  0  0  0  0
 61 73  1  0  0  0  0
 62 74  1  0  0  0  0
 64 65  1  0  0  0  0
M  CHG  1  74   1
M  ISO  4  38 100  60 101  71 100  81 101
M  END
> <Batch ID>
0022

> <Smiles>
CNC(C)C(=O)NC(C(=O)N1Cc2cc([101O:1][101CH2:1]C3CCN(c4ccc([100NH:0][100C:0](=O)N5CCCC(n6nc(-c7ccc(Oc8ccc(F)cc8F)cc7)c(C(N)=O)c6N)C5)c(F)c4F)C3)ccc2CC1C(=O)NC1CCCc2ccccc21)C(C)(C)C

> <Shape>
0.304

> <Color>
0.097

> <Negative vol penalty>
0.000

$$$$

  -OEChem-04042321143D

 87 96  0     1  0  0  0  0  0999 V2000
  -21.8020  -11.5674   21.1824 C   0  0  0  0  0  0  0  0  0  0  0  0
  -21.8946  -12.6758   22.0179 C   0  0  0  0  0  0  0  0  0  0  0  0
  -23.7020  -23.8944   24.4630 C   0  0  0  0  0  0  0  0  0  0  0  0
  -25.8872  -24.8837   24.1744 C   0  0  0  0  0  0  0  0  0  0  0  0
  -22.8912  -11.1963   20.3952 C   0  0  0  0  0  0  0  0  0  0  0  0
  -23.0770  -13.4133   22.0676 C   0  0  0  0  0  0  0  0  0  0  0  0
  -23.1379  -20.4359   20.4646 C   0  0  0  0  0  0  0  0  0  0  0  0
  -23.4796  -30.1831   20.2458 C   0  0  0  0  0  0  0  0  0  0  0  0
  -23.5407  -31.4002   20.9243 C   0  0  0  0  0  0  0  0  0  0  0  0
  -24.2965  -22.6680   24.7602 C   0  0  0  0  0  0  0  0  0  0  0  0
  -26.4817  -23.6574   24.4716 C   0  0  0  0  0  0  0  0  0  0  0  0
  -23.1940  -21.8271   20.3770 C   0  0  0  0  0  0  0  0  0  0  0  0
  -25.8032  -21.2077   27.4116 C   0  0  0  0  0  0  0  0  0  0  0  0
  -25.3065  -20.4939   28.5021 C   0  0  0  0  0  0  0  0  0  0  0  0
  -25.5895  -21.7615   20.7015 C   0  0  0  0  0  0  0  0  0  0  0  0
  -25.6543  -29.5894   21.1150 C   0  0  0  0  0  0  0  0  0  0  0  0
  -24.7485  -18.6515   27.0421 C   0  0  0  0  0  0  0  0  0  0  0  0
  -24.4974  -25.0022   24.1701 C   0  0  0  0  0  0  0  0  0  0  0  0
  -22.9974  -26.5501   22.8056 C   0  0  0  0  0  0  0  0  0  0  0  0
  -24.0844  -11.9352   20.4280 C   0  0  0  0  0  0  0  0  0  0  0  0
  -24.3108  -19.7004   20.6558 C   0  0  0  0  0  0  0  0  0  0  0  0
  -24.1838  -13.0509   21.2811 C   0  0  0  0  0  0  0  0  0  0  0  0
  -25.5411  -20.3670   20.7775 C   0  0  0  0  0  0  0  0  0  0  0  0
  -24.5364  -29.2776   20.3411 C   0  0  0  0  0  0  0  0  0  0  0  0
  -24.6585  -31.7120   21.6981 C   0  0  0  0  0  0  0  0  0  0  0  0
  -25.6863  -22.5495   24.7645 C   0  0  0  0  0  0  0  0  0  0  0  0
  -24.4168  -22.4882   20.4955 C   0  0  0  0  0  0  0  0  0  0  0  0
  -25.7725  -20.6435   26.1362 C   0  0  0  0  0  0  0  0  0  0  0  0
  -24.7792  -19.2158   28.3175 C   0  0  0  0  0  0  0  0  0  0  0  0
  -25.2452  -19.3654   25.9516 C   0  0  0  0  0  0  0  0  0  0  0  0
  -25.7154  -30.8066   21.7935 C   0  0  0  0  0  0  0  0  0  0  0  0
  -23.8839  -26.2692   23.8625 C   0  0  0  0  0  0  0  0  0  0  0  0
  -22.7051  -27.8846   22.9481 C   0  0  0  0  0  0  0  0  0  0  0  0
  -25.1233  -26.8742   20.1491 C   0  0  0  0  0  0  0  0  0  0  0  0
  -22.4840  -25.6824   21.7862 C   0  0  0  0  0  0  0  0  0  0  0  0
  -25.8903  -16.3197   21.0456 C   0  0  0  0  0  0  0  0  0  0  0  0
  -27.7628  -17.9787   19.2703 C   0  0  0  0  0  0  0  0  0  0  0  0
  -30.0337  -19.0699   16.9703 C   0  0  0  0  0  0  0  0  0  0  0  0
  -24.7941  -33.0948   23.7863 C   0  0  0  0  0  0  0  0  0  0  0  0
  -25.2510  -11.4676   19.5944 C   0  0  0  0  0  0  0  0  0  0  0  0
  -24.2898  -18.2046   20.8176 C   0  0  0  0  0  0  0  0  0  0  0  0
  -26.7726  -19.5371   21.0171 C   0  0  0  0  0  0  0  0  0  0  0  0
  -26.3408  -12.5231   19.4254 C   0  0  0  0  0  0  0  0  0  0  0  0
  -23.8259  -26.8062   17.5219 C   0  0  0  0  0  0  0  0  0  0  0  0
  -23.6596  -31.1190   26.7022 C   0  0  0  0  0  0  0  0  0  0  0  0
  -26.6669  -13.1731   20.7663 C   0  0  0  0  0  0  0  0  0  0  0  0
  -24.1111  -25.5146   18.2575 C   0  0  0  0  0  0  0  0  0  0  0  0
  -23.6277  -29.6935   26.1544 C   0  0  0  0  0  0  0  0  0  0  0  0
  -23.5213  -27.9117   18.5178 C   0  0  0  0  0  0  0  0  0  0  0  0
  -24.7024  -31.9759   25.9909 C   0  0  0  0  0  0  0  0  0  0  0  0
  -24.5063  -30.5750   23.9561 C   0  0  0  0  0  0  0  0  0  0  0  0
  -25.4411  -13.8907   21.3442 C   0  0  1  0  0  0  0  0  0  0  0  0
  -25.3189  -25.7211   19.1591 C   0  0  2  0  0  0  0  0  0  0  0  0
  -25.5268  -17.5150   20.2147 C   0  0  1  0  0  0  0  0  0  0  0  0
  -23.4357  -29.7028   24.6289 C   0  0  1  0  0  0  0  0  0  0  0  0
  -32.4041  -18.7215   16.2238 C   0  0  0  0  0  0  0  0  0  0  0  0
  -28.7517  -19.5571   21.6857 C   0  0  0  0  0  0  0  0  0  0  0  0
  -30.8804  -19.9912   20.4414 C   0  0  0  0  0  0  0  0  0  0  0  0
  -30.2246  -17.6525   21.0095 C   0  0  0  0  0  0  0  0  0  0  0  0
  -24.3377  -34.1784   21.6302 C   0  0  0  0  0  0  0  0  0  0  0  0
  -29.1797  -18.2196   14.2673 C   0  0  0  0  0  0  0  0  0  0  0  0
  -25.6634  -24.4191   19.8830 C   0  0  0  0  0  0  0  0  0  1  0  0
  -28.9629  -18.8889   19.2008 C   0  0  1  0  0  0  0  0  0  0  0  0
  -30.9518  -18.3165   16.0249 C   0  0  2  0  0  0  0  0  0  0  0  0
  -29.6799  -19.0300   20.5732 C   0  0  0  0  0  0  0  0  0  0  0  0
  -24.1382  -27.3392   24.6204 N   0  0  0  0  0  0  0  0  0  0  0  0
  -23.4072  -28.3055   24.0390 N   0  0  0  0  0  0  0  0  0  0  0  0
  -24.4722  -28.0146   19.6375 N   0  0  0  0  0  0  0  0  0  0  0  0
  -26.7458  -18.3399   20.1622 N   0  0  0  0  0  0  0  0  0  0  0  0
  -24.5445  -31.9272   24.5365 N   0  0  0  0  0  0  0  0  0  0  0  0
  -21.9187  -28.7272   22.2454 N   0  0  0  0  0  0  0  0  0  0  0  0
  -21.2902  -24.9917   22.0356 N   0  0  0  0  0  0  0  0  0  0  0  0
  -25.2371  -15.1590   20.6776 N   0  0  0  0  0  0  0  0  0  0  0  0
  -29.8106  -18.3660   18.1348 N   0  0  0  0  0  0  0  0  0  0  0  0
  -24.6891  -32.9789   22.3871 N   0  0  0  0  0  0  0  0  0  0  0  0
  -30.5766  -18.5922   14.6092 N   0  3  0  0  0  0  0  0  0  0  0  0
  -25.5879  -26.7845   21.2887 O   0  0  0  0  0  0  0  0  0  0  0  0
  -23.0752  -25.5116   20.6931 O   0  0  0  0  0  0  0  0  0  0  0  0
  -26.7048  -16.4399   21.9533 O   0  0  0  0  0  0  0  0  0  0  0  0
  -27.7280  -16.9711   18.5583 O   0  0  0  0  0  0  0  0  0  0  0  0
  -29.5646  -20.1743   16.7042 O   0  0  0  0  0  0  0  0  0  0  0  0
  -25.1415  -34.1547   24.3216 O   0  0  0  0  0  0  0  0  0  0  0  0
  -26.2667  -21.3531   25.0547 O   0  0  0  0  0  0  0  0  0  0  0  0
  -24.4650  -23.8462   20.4046 O   0  0  0  0  0  0  0  0  0  1  0  0
  -24.3037  -18.5298   29.3651 F   0  0  0  0  0  0  0  0  0  0  0  0
  -25.2141  -18.8176   24.7289 F   0  0  0  0  0  0  0  0  0  0  0  0
  -27.1179  -31.1531   22.7410 Cl  0  0  0  0  0  0  0  0  0  0  0  0
  1  2  1  0  0  0  0
  1  5  2  0  0  0  0
  2  6  2  0  0  0  0
  3 10  2  0  0  0  0
  3 18  1  0  0  0  0
  4 11  1  0  0  0  0
  4 18  2  0  0  0  0
  5 20  1  0  0  0  0
  6 22  1  0  0  0  0
  7 12  2  0  0  0  0
  7 21  1  0  0  0  0
  8  9  2  0  0  0  0
  8 24  1  0  0  0  0
  9 25  1  0  0  0  0
 10 26  1  0  0  0  0
 11 26  2  0  0  0  0
 12 27  1  0  0  0  0
 13 14  2  0  0  0  0
 13 28  1  0  0  0  0
 14 29  1  0  0  0  0
 15 23  1  0  0  0  0
 15 27  2  0  0  0  0
 16 24  2  0  0  0  0
 16 31  1  0  0  0  0
 17 29  2  0  0  0  0
 17 30  1  0  0  0  0
 18 32  1  0  0  0  0
 19 32  1  0  0  0  0
 19 33  2  0  0  0  0
 19 35  1  0  0  0  0
 20 22  2  0  0  0  0
 20 40  1  0  0  0  0
 21 23  2  0  0  0  0
 21 41  1  0  0  0  0
 22 52  1  0  0  0  0
 23 42  1  0  0  0  0
 24 68  1  0  0  0  0
 25 31  2  0  0  0  0
 25 75  1  0  0  0  0
 26 83  1  0  0  0  0
 27 84  1  0  0  0  0
 28 30  2  0  0  0  0
 28 83  1  0  0  0  0
 29 85  1  0  0  0  0
 30 86  1  0  0  0  0
 31 87  1  0  0  0  0
 32 66  2  0  0  0  0
 33 67  1  0  0  0  0
 33 71  1  0  0  0  0
 34 53  1  0  0  0  0
 34 68  1  0  0  0  0
 34 77  2  0  0  0  0
 35 72  1  0  0  0  0
 35 78  2  0  0  0  0
 36 54  1  0  0  0  0
 36 73  1  0  0  0  0
 36 79  2  0  0  0  0
 37 63  1  0  0  0  0
 37 69  1  0  0  0  0
 37 80  2  0  0  0  0
 38 64  1  0  0  0  0
 38 74  1  0  0  0  0
 38 81  2  0  0  0  0
 39 70  1  0  0  0  0
 39 75  1  0  0  0  0
 39 82  2  0  0  0  0
 40 43  1  0  0  0  0
 41 54  1  0  0  0  0
 42 69  1  0  0  0  0
 43 46  1  0  0  0  0
 44 47  1  0  0  0  0
 44 49  1  0  0  0  0
 45 48  1  0  0  0  0
 45 50  1  0  0  0  0
 46 52  1  0  0  0  0
 47 53  1  0  0  0  0
 48 55  1  0  0  0  0
 49 68  1  0  0  0  0
 50 70  1  0  0  0  0
 51 55  1  0  0  0  0
 51 70  1  0  0  0  0
 52 73  1  0  0  0  0
 53 62  1  0  0  0  0
 54 69  1  0  0  0  0
 55 67  1  0  0  0  0
 56 64  1  0  0  0  0
 57 65  1  0  0  0  0
 58 65  1  0  0  0  0
 59 65  1  0  0  0  0
 60 75  1  0  0  0  0
 61 76  1  0  0  0  0
 62 84  1  0  0  0  0
 63 65  1  0  0  0  0
 63 74  1  0  0  0  0
 64 76  1  0  0  0  0
 66 67  1  0  0  0  0
M  CHG  1  76   1
M  ISO  4  39 100  62 101  75 100  84 101
M  END
> <Batch ID>
0022

> <Smiles>
CNC(C)C(=O)NC(C(=O)N1Cc2cc([101O:1][101CH2:1]C3CCCN(c4ccc([100N:0](C)[100C:0](=O)N5CCCC(n6nc(-c7ccc(Oc8ccc(F)cc8F)cc7)c(C(N)=O)c6N)C5)c(Cl)c4)C3=O)ccc2CC1C(=O)NC1CCCc2ccccc21)C(C)(C)C

> <Shape>
0.206

> <Color>
0.064

> <Negative vol penalty>
0.000

$$$$

  -OEChem-04042321143D

 84 93  0     1  0  0  0  0  0999 V2000
  -27.9681  -22.8380   18.9473 C   0  0  0  0  0  0  0  0  0  0  0  0
  -26.7645  -23.2735   19.4925 C   0  0  0  0  0  0  0  0  0  0  0  0
  -27.3444  -14.9636   22.0907 C   0  0  0  0  0  0  0  0  0  0  0  0
  -25.4207  -15.5650   20.7585 C   0  0  0  0  0  0  0  0  0  0  0  0
  -29.1718  -23.3807   19.3951 C   0  0  0  0  0  0  0  0  0  0  0  0
  -26.7641  -24.2511   20.4869 C   0  0  0  0  0  0  0  0  0  0  0  0
  -23.2498  -27.8130   19.7076 C   0  0  0  0  0  0  0  0  0  0  0  0
  -20.4191  -24.4131   24.1900 C   0  0  0  0  0  0  0  0  0  0  0  0
  -21.1995  -23.3971   24.7416 C   0  0  0  0  0  0  0  0  0  0  0  0
  -27.1962  -13.6318   21.7036 C   0  0  0  0  0  0  0  0  0  0  0  0
  -25.2725  -14.2331   20.3713 C   0  0  0  0  0  0  0  0  0  0  0  0
  -21.9332  -27.4907   20.0340 C   0  0  0  0  0  0  0  0  0  0  0  0
  -27.9101  -11.7291   19.0012 C   0  0  0  0  0  0  0  0  0  0  0  0
  -29.0564  -11.0352   18.6138 C   0  0  0  0  0  0  0  0  0  0  0  0
  -22.1605  -28.6935   22.1126 C   0  0  0  0  0  0  0  0  0  0  0  0
  -20.6422  -21.9592   22.8817 C   0  0  0  0  0  0  0  0  0  0  0  0
  -28.6899   -9.4383   20.3893 C   0  0  0  0  0  0  0  0  0  0  0  0
  -26.4566  -15.9302   21.6182 C   0  0  0  0  0  0  0  0  0  0  0  0
  -27.3671  -18.3004   21.3716 C   0  0  0  0  0  0  0  0  0  0  0  0
  -29.1855  -24.3724   20.3886 C   0  0  0  0  0  0  0  0  0  0  0  0
  -24.0364  -28.5701   20.5877 C   0  0  0  0  0  0  0  0  0  0  0  0
  -27.9692  -24.8065   20.9494 C   0  0  0  0  0  0  0  0  0  0  0  0
  -23.4859  -29.0262   21.7939 C   0  0  0  0  0  0  0  0  0  0  0  0
  -19.7501  -24.2021   22.9843 C   0  0  0  0  0  0  0  0  0  0  0  0
  -21.3111  -22.1702   24.0875 C   0  0  0  0  0  0  0  0  0  0  0  0
  -26.1603  -13.2665   20.8439 C   0  0  0  0  0  0  0  0  0  0  0  0
  -21.3893  -27.9285   21.2379 C   0  0  0  0  0  0  0  0  0  0  0  0
  -27.1537  -11.2776   20.0828 C   0  0  0  0  0  0  0  0  0  0  0  0
  -29.4463   -9.8898   19.3078 C   0  0  0  0  0  0  0  0  0  0  0  0
  -19.8617  -22.9752   22.3302 C   0  0  0  0  0  0  0  0  0  0  0  0
  -27.5436  -10.1322   20.7768 C   0  0  0  0  0  0  0  0  0  0  0  0
  -26.6088  -17.3061   22.0182 C   0  0  0  0  0  0  0  0  0  0  0  0
  -27.1855  -19.4245   22.1398 C   0  0  0  0  0  0  0  0  0  0  0  0
  -28.1643  -18.2156   20.1830 C   0  0  0  0  0  0  0  0  0  0  0  0
  -26.7309  -28.0577   22.1942 C   0  0  0  0  0  0  0  0  0  0  0  0
  -26.4138  -31.1943   22.9582 C   0  0  0  0  0  0  0  0  0  0  0  0
  -24.3549  -33.8887   23.3430 C   0  0  0  0  0  0  0  0  0  0  0  0
  -22.8326  -21.1834   25.8361 C   0  0  0  0  0  0  0  0  0  0  0  0
  -30.5142  -24.8952   20.8741 C   0  0  0  0  0  0  0  0  0  0  0  0
  -25.4463  -28.9319   20.2088 C   0  0  0  0  0  0  0  0  0  0  0  0
  -24.2820  -29.8589   22.7642 C   0  0  0  0  0  0  0  0  0  0  0  0
  -30.4046  -26.1960   21.6655 C   0  0  0  0  0  0  0  0  0  0  0  0
  -26.2764  -20.7759   26.6432 C   0  0  0  0  0  0  0  0  0  0  0  0
  -17.5672  -26.4083   20.9631 C   0  0  0  0  0  0  0  0  0  0  0  0
  -29.2820  -26.1022   22.6940 C   0  0  0  0  0  0  0  0  0  0  0  0
  -26.8228  -19.9355   25.4868 C   0  0  0  0  0  0  0  0  0  0  0  0
  -17.3895  -26.9478   22.3735 C   0  0  0  0  0  0  0  0  0  0  0  0
  -18.2468  -25.0600   21.1803 C   0  0  0  0  0  0  0  0  0  0  0  0
  -24.8556  -20.3624   27.0229 C   0  0  0  0  0  0  0  0  0  0  0  0
  -24.4444  -19.4965   24.7535 C   0  0  0  0  0  0  0  0  0  0  0  0
  -27.9261  -25.8830   22.0122 C   0  0  1  0  0  0  0  0  0  0  0  0
  -26.3196  -29.2731   21.4123 C   0  0  1  0  0  0  0  0  0  0  0  0
  -25.8488  -19.9195   24.2924 C   0  0  2  0  0  0  0  0  0  0  0  0
  -18.6537  -26.4783   23.1069 C   0  0  2  0  0  0  0  0  0  0  0  0
  -24.3794  -36.3067   24.0138 C   0  0  0  0  0  0  0  0  0  0  0  0
  -26.6582  -30.3765   25.8876 C   0  0  0  0  0  0  0  0  0  0  0  0
  -25.7413  -32.6193   26.5179 C   0  0  0  0  0  0  0  0  0  0  0  0
  -27.9005  -32.4600   25.2790 C   0  0  0  0  0  0  0  0  0  0  0  0
  -23.3663  -34.7544   20.6912 C   0  0  0  0  0  0  0  0  0  0  0  0
  -19.7964  -27.4800   22.9460 C   0  0  0  0  0  0  0  0  0  1  0  0
  -25.7374  -31.9610   24.0689 C   0  0  1  0  0  0  0  0  0  0  0  0
  -24.4710  -35.3225   22.8581 C   0  0  2  0  0  0  0  0  0  0  0  0
  -26.4947  -31.8369   25.4212 C   0  0  0  0  0  0  0  0  0  0  0  0
  -25.9916  -17.7586   23.1129 N   0  0  0  0  0  0  0  0  0  0  0  0
  -26.3619  -19.0496   23.1601 N   0  0  0  0  0  0  0  0  0  0  0  0
  -18.9763  -25.2103   22.4409 N   0  0  3  0  0  0  0  0  0  0  0  0
  -25.6580  -30.1812   22.3514 N   0  0  0  0  0  0  0  0  0  0  0  0
  -23.9886  -20.3745   25.8426 N   0  0  0  0  0  0  0  0  0  0  0  0
  -27.6517  -20.6870   22.0352 N   0  0  0  0  0  0  0  0  0  0  0  0
  -28.2418  -16.9849   19.5169 N   0  0  0  0  0  0  0  0  0  0  0  0
  -22.1040  -21.1382   24.6480 N   0  0  0  0  0  0  0  0  0  0  0  0
  -27.4336  -27.1249   21.4556 N   0  0  0  0  0  0  0  0  0  0  0  0
  -25.5917  -33.3310   23.5892 N   0  0  0  0  0  0  0  0  0  0  0  0
  -23.3811  -35.6318   21.8899 N   0  3  0  0  0  0  0  0  0  0  0  0
  -28.8026  -19.1978   19.7342 O   0  0  0  0  0  0  0  0  0  0  0  0
  -26.4341  -27.9732   23.3801 O   0  0  0  0  0  0  0  0  0  0  0  0
  -27.5676  -31.4883   22.6359 O   0  0  0  0  0  0  0  0  0  0  0  0
  -23.2749  -33.3214   23.4922 O   0  0  0  0  0  0  0  0  0  0  0  0
  -22.5272  -21.8868   26.8025 O   0  0  0  0  0  0  0  0  0  0  0  0
  -26.0155  -11.9671   20.4657 O   0  0  0  0  0  0  0  0  0  0  0  0
  -20.1047  -27.6148   21.5592 O   0  0  0  0  0  0  0  0  0  1  0  0
  -30.5463   -9.2227   18.9346 F   0  0  0  0  0  0  0  0  0  0  0  0
  -19.2218  -22.7617   21.1716 F   0  0  0  0  0  0  0  0  0  0  0  0
  -26.8204   -9.6929   21.8159 F   0  0  0  0  0  0  0  0  0  0  0  0
  1  2  1  0  0  0  0
  1  5  2  0  0  0  0
  2  6  2  0  0  0  0
  3 10  2  0  0  0  0
  3 18  1  0  0  0  0
  4 11  1  0  0  0  0
  4 18  2  0  0  0  0
  5 20  1  0  0  0  0
  6 22  1  0  0  0  0
  7 12  2  0  0  0  0
  7 21  1  0  0  0  0
  8  9  2  0  0  0  0
  8 24  1  0  0  0  0
  9 25  1  0  0  0  0
 10 26  1  0  0  0  0
 11 26  2  0  0  0  0
 12 27  1  0  0  0  0
 13 14  2  0  0  0  0
 13 28  1  0  0  0  0
 14 29  1  0  0  0  0
 15 23  1  0  0  0  0
 15 27  2  0  0  0  0
 16 25  2  0  0  0  0
 16 30  1  0  0  0  0
 17 29  2  0  0  0  0
 17 31  1  0  0  0  0
 18 32  1  0  0  0  0
 19 32  1  0  0  0  0
 19 33  2  0  0  0  0
 19 34  1  0  0  0  0
 20 22  2  0  0  0  0
 20 39  1  0  0  0  0
 21 23  2  0  0  0  0
 21 40  1  0  0  0  0
 22 51  1  0  0  0  0
 23 41  1  0  0  0  0
 24 30  2  0  0  0  0
 24 66  1  0  0  0  0
 25 71  1  0  0  0  0
 26 80  1  0  0  0  0
 27 81  1  0  0  0  0
 28 31  2  0  0  0  0
 28 80  1  0  0  0  0
 29 82  1  0  0  0  0
 30 83  1  0  0  0  0
 31 84  1  0  0  0  0
 32 64  2  0  0  0  0
 33 65  1  0  0  0  0
 33 69  1  0  0  0  0
 34 70  1  0  0  0  0
 34 75  2  0  0  0  0
 35 52  1  0  0  0  0
 35 72  1  0  0  0  0
 35 76  2  0  0  0  0
 36 61  1  0  0  0  0
 36 67  1  0  0  0  0
 36 77  2  0  0  0  0
 37 62  1  0  0  0  0
 37 73  1  0  0  0  0
 37 78  2  0  0  0  0
 38 68  1  0  0  0  0
 38 71  1  0  0  0  0
 38 79  2  0  0  0  0
 39 42  1  0  0  0  0
 40 52  1  0  0  0  0
 41 67  1  0  0  0  0
 42 45  1  0  0  0  0
 43 46  1  0  0  0  0
 43 49  1  0  0  0  0
 44 47  1  0  0  0  0
 44 48  1  0  0  0  0
 45 51  1  0  0  0  0
 46 53  1  0  0  0  0
 47 54  1  0  0  0  0
 48 66  1  0  0  0  0
 49 68  1  0  0  0  0
 50 53  1  0  0  0  0
 50 68  1  0  0  0  0
 51 72  1  0  0  0  0
 52 67  1  0  0  0  0
 53 65  1  0  0  0  0
 54 60  1  0  0  0  0
 54 66  1  0  0  0  0
 55 62  1  0  0  0  0
 56 63  1  0  0  0  0
 57 63  1  0  0  0  0
 58 63  1  0  0  0  0
 59 74  1  0  0  0  0
 60 81  1  0  0  0  0
 61 63  1  0  0  0  0
 61 73  1  0  0  0  0
 62 74  1  0  0  0  0
 64 65  1  0  0  0  0
M  CHG  1  74   1
M  ISO  4  38 100  60 101  71 100  81 101
M  END
> <Batch ID>
0022

> <Smiles>
CNC(C)C(=O)NC(C(=O)N1Cc2cc([101O:1][101CH2:1]C3CCCN3c3ccc([100NH:0][100C:0](=O)N4CCCC(n5nc(-c6ccc(Oc7ccc(F)cc7F)cc6)c(C(N)=O)c5N)C4)cc3F)ccc2CC1C(=O)NC1CCCc2ccccc21)C(C)(C)C

> <Shape>
0.248

> <Color>
0.056

> <Negative vol penalty>
0.000

$$$$

  -OEChem-04042321143D

 85 94  0     1  0  0  0  0  0999 V2000
  -40.8407  -26.7170   22.1669 C   0  0  0  0  0  0  0  0  0  0  0  0
  -39.7224  -26.9350   21.3687 C   0  0  0  0  0  0  0  0  0  0  0  0
  -23.1539   -9.7318   20.1511 C   0  0  0  0  0  0  0  0  0  0  0  0
  -23.8552  -10.0155   22.4456 C   0  0  0  0  0  0  0  0  0  0  0  0
  -40.9355  -25.5535   22.9293 C   0  0  0  0  0  0  0  0  0  0  0  0
  -38.6986  -25.9890   21.3314 C   0  0  0  0  0  0  0  0  0  0  0  0
  -31.5898  -25.4815   20.6086 C   0  0  0  0  0  0  0  0  0  0  0  0
  -31.4029  -18.4821   19.5297 C   0  0  0  0  0  0  0  0  0  0  0  0
  -31.2187  -19.3959   18.4921 C   0  0  0  0  0  0  0  0  0  0  0  0
  -22.4443   -8.5857   20.5097 C   0  0  0  0  0  0  0  0  0  0  0  0
  -23.1455   -8.8695   22.8043 C   0  0  0  0  0  0  0  0  0  0  0  0
  -30.6292  -24.8129   19.8509 C   0  0  0  0  0  0  0  0  0  0  0  0
  -23.1234   -5.3419   21.1735 C   0  0  0  0  0  0  0  0  0  0  0  0
  -23.2494   -4.2198   20.3546 C   0  0  0  0  0  0  0  0  0  0  0  0
  -30.8651  -22.8772   21.2709 C   0  0  0  0  0  0  0  0  0  0  0  0
  -28.9332  -19.7363   19.1978 C   0  0  0  0  0  0  0  0  0  0  0  0
  -20.8701   -4.2579   19.9364 C   0  0  0  0  0  0  0  0  0  0  0  0
  -23.8594  -10.4467   21.1191 C   0  0  0  0  0  0  0  0  0  0  0  0
  -24.1167  -12.9548   20.7312 C   0  0  0  0  0  0  0  0  0  0  0  0
  -39.9080  -24.5973   22.9088 C   0  0  0  0  0  0  0  0  0  0  0  0
  -32.2041  -24.8480   21.6984 C   0  0  0  0  0  0  0  0  0  0  0  0
  -38.7804  -24.8110   22.0932 C   0  0  0  0  0  0  0  0  0  0  0  0
  -31.8313  -23.5408   22.0424 C   0  0  0  0  0  0  0  0  0  0  0  0
  -30.3523  -18.1954   20.4014 C   0  0  0  0  0  0  0  0  0  0  0  0
  -29.9838  -20.0230   18.3261 C   0  0  0  0  0  0  0  0  0  0  0  0
  -22.4400   -8.1546   21.8363 C   0  0  0  0  0  0  0  0  0  0  0  0
  -30.2688  -23.5096   20.1802 C   0  0  0  0  0  0  0  0  0  0  0  0
  -21.8708   -5.9220   21.3740 C   0  0  0  0  0  0  0  0  0  0  0  0
  -22.1228   -3.6778   19.7360 C   0  0  0  0  0  0  0  0  0  0  0  0
  -20.7442   -5.3800   20.7554 C   0  0  0  0  0  0  0  0  0  0  0  0
  -29.1175  -18.8225   20.2354 C   0  0  0  0  0  0  0  0  0  0  0  0
  -24.5931  -11.6303   20.7492 C   0  0  0  0  0  0  0  0  0  0  0  0
  -25.1911  -13.7005   20.3115 C   0  0  0  0  0  0  0  0  0  0  0  0
  -22.8190  -13.4655   21.0642 C   0  0  0  0  0  0  0  0  0  0  0  0
  -35.1863  -24.0188   22.4214 C   0  0  0  0  0  0  0  0  0  0  0  0
  -33.8581  -23.2140   25.2694 C   0  0  0  0  0  0  0  0  0  0  0  0
  -31.0674  -22.3062   27.0113 C   0  0  0  0  0  0  0  0  0  0  0  0
  -30.6298  -14.9366   20.5037 C   0  0  0  0  0  0  0  0  0  0  0  0
  -40.0769  -23.3329   23.7135 C   0  0  0  0  0  0  0  0  0  0  0  0
  -33.2191  -25.5923   22.5219 C   0  0  0  0  0  0  0  0  0  0  0  0
  -32.4463  -22.8234   23.2152 C   0  0  0  0  0  0  0  0  0  0  0  0
  -38.7773  -22.5556   23.9065 C   0  0  0  0  0  0  0  0  0  0  0  0
  -29.6357  -12.2669   18.3681 C   0  0  0  0  0  0  0  0  0  0  0  0
  -30.0322  -22.0429   15.2221 C   0  0  0  0  0  0  0  0  0  0  0  0
  -38.0245  -22.4377   22.5851 C   0  0  0  0  0  0  0  0  0  0  0  0
  -28.1988  -11.9687   18.7999 C   0  0  0  0  0  0  0  0  0  0  0  0
  -28.6386  -22.2961   15.7751 C   0  0  0  0  0  0  0  0  0  0  0  0
  -30.5223  -20.8432   16.0266 C   0  0  0  0  0  0  0  0  0  0  0  0
  -30.5141  -12.6505   19.5569 C   0  0  0  0  0  0  0  0  0  0  0  0
  -28.5540  -13.4565   20.8146 C   0  0  0  0  0  0  0  0  0  0  0  0
  -37.6378  -23.8199   22.0452 C   0  0  1  0  0  0  0  0  0  0  0  0
  -34.1528  -24.6683   23.2976 C   0  0  1  0  0  0  0  0  0  0  0  0
  -27.6164  -13.1193   19.6427 C   0  0  2  0  0  0  0  0  0  0  0  0
  -28.7752  -21.9783   17.2707 C   0  0  2  0  0  0  0  0  0  0  0  0
  -30.3019  -21.6789   29.3174 C   0  0  0  0  0  0  0  0  0  0  0  0
  -35.1117  -20.4528   24.9318 C   0  0  0  0  0  0  0  0  0  0  0  0
  -33.5707  -19.6116   26.7167 C   0  0  0  0  0  0  0  0  0  0  0  0
  -35.2448  -21.3825   27.2496 C   0  0  0  0  0  0  0  0  0  0  0  0
  -29.2032  -24.6010   27.1425 C   0  0  0  0  0  0  0  0  0  0  0  0
  -30.5902  -17.2096   21.4993 C   0  0  0  0  0  0  0  0  0  0  0  0
  -29.2323  -23.2032   18.0618 C   0  0  0  0  0  0  0  0  0  1  0  0
  -33.2283  -21.9668   25.8409 C   0  0  1  0  0  0  0  0  0  0  0  0
  -30.4880  -22.8119   28.3201 C   0  0  2  0  0  0  0  0  0  0  0  0
  -34.2785  -20.8660   26.1614 C   0  0  0  0  0  0  0  0  0  0  0  0
  -25.8706  -11.5366   20.3708 N   0  0  0  0  0  0  0  0  0  0  0  0
  -26.2061  -12.8118   20.1110 N   0  0  0  0  0  0  0  0  0  0  0  0
  -29.8015  -20.9289   17.2982 N   0  0  3  0  0  0  0  0  0  0  0  0
  -33.4385  -23.5911   23.9858 N   0  0  0  0  0  0  0  0  0  0  0  0
  -29.9063  -13.7478   20.3133 N   0  0  0  0  0  0  0  0  0  0  0  0
  -25.3571  -15.0231   20.0979 N   0  0  0  0  0  0  0  0  0  0  0  0
  -21.8309  -12.5614   21.4772 N   0  0  0  0  0  0  0  0  0  0  0  0
  -36.4885  -24.3369   22.7568 N   0  0  0  0  0  0  0  0  0  0  0  0
  -32.4431  -22.3971   26.9928 N   0  0  0  0  0  0  0  0  0  0  0  0
  -29.9780  -15.9284   21.2263 N   0  0  0  0  0  0  0  0  0  0  0  0
  -29.1639  -23.4546   28.0865 N   0  3  0  0  0  0  0  0  0  0  0  0
  -22.5390  -14.6855   20.9817 O   0  0  0  0  0  0  0  0  0  0  0  0
  -34.8288  -23.2822   21.5096 O   0  0  0  0  0  0  0  0  0  0  0  0
  -34.6865  -23.8350   25.9401 O   0  0  0  0  0  0  0  0  0  0  0  0
  -30.3696  -21.8704   26.0982 O   0  0  0  0  0  0  0  0  0  0  0  0
  -31.7701  -15.1039   20.0578 O   0  0  0  0  0  0  0  0  0  0  0  0
  -21.7475   -7.0365   22.1866 O   0  0  0  0  0  0  0  0  0  0  0  0
  -29.3320  -22.8545   19.4419 O   0  0  0  0  0  0  0  0  0  1  0  0
  -22.2441   -2.6012   18.9484 F   0  0  0  0  0  0  0  0  0  0  0  0
  -19.5383   -5.9337   20.9432 F   0  0  0  0  0  0  0  0  0  0  0  0
  -27.7949  -18.4911   21.2937 Cl  0  0  0  0  0  0  0  0  0  0  0  0
  1  2  1  0  0  0  0
  1  5  2  0  0  0  0
  2  6  2  0  0  0  0
  3 10  2  0  0  0  0
  3 18  1  0  0  0  0
  4 11  1  0  0  0  0
  4 18  2  0  0  0  0
  5 20  1  0  0  0  0
  6 22  1  0  0  0  0
  7 12  2  0  0  0  0
  7 21  1  0  0  0  0
  8  9  2  0  0  0  0
  8 24  1  0  0  0  0
  9 25  1  0  0  0  0
 10 26  1  0  0  0  0
 11 26  2  0  0  0  0
 12 27  1  0  0  0  0
 13 14  2  0  0  0  0
 13 28  1  0  0  0  0
 14 29  1  0  0  0  0
 15 23  1  0  0  0  0
 15 27  2  0  0  0  0
 16 25  2  0  0  0  0
 16 31  1  0  0  0  0
 17 29  2  0  0  0  0
 17 30  1  0  0  0  0
 18 32  1  0  0  0  0
 19 32  1  0  0  0  0
 19 33  2  0  0  0  0
 19 34  1  0  0  0  0
 20 22  2  0  0  0  0
 20 39  1  0  0  0  0
 21 23  2  0  0  0  0
 21 40  1  0  0  0  0
 22 51  1  0  0  0  0
 23 41  1  0  0  0  0
 24 31  2  0  0  0  0
 24 60  1  0  0  0  0
 25 67  1  0  0  0  0
 26 81  1  0  0  0  0
 27 82  1  0  0  0  0
 28 30  2  0  0  0  0
 28 81  1  0  0  0  0
 29 83  1  0  0  0  0
 30 84  1  0  0  0  0
 31 85  1  0  0  0  0
 32 65  2  0  0  0  0
 33 66  1  0  0  0  0
 33 70  1  0  0  0  0
 34 71  1  0  0  0  0
 34 76  2  0  0  0  0
 35 52  1  0  0  0  0
 35 72  1  0  0  0  0
 35 77  2  0  0  0  0
 36 62  1  0  0  0  0
 36 68  1  0  0  0  0
 36 78  2  0  0  0  0
 37 63  1  0  0  0  0
 37 73  1  0  0  0  0
 37 79  2  0  0  0  0
 38 69  1  0  0  0  0
 38 74  1  0  0  0  0
 38 80  2  0  0  0  0
 39 42  1  0  0  0  0
 40 52  1  0  0  0  0
 41 68  1  0  0  0  0
 42 45  1  0  0  0  0
 43 46  1  0  0  0  0
 43 49  1  0  0  0  0
 44 47  1  0  0  0  0
 44 48  1  0  0  0  0
 45 51  1  0  0  0  0
 46 53  1  0  0  0  0
 47 54  1  0  0  0  0
 48 67  1  0  0  0  0
 49 69  1  0  0  0  0
 50 53  1  0  0  0  0
 50 69  1  0  0  0  0
 51 72  1  0  0  0  0
 52 68  1  0  0  0  0
 53 66  1  0  0  0  0
 54 61  1  0  0  0  0
 54 67  1  0  0  0  0
 55 63  1  0  0  0  0
 56 64  1  0  0  0  0
 57 64  1  0  0  0  0
 58 64  1  0  0  0  0
 59 75  1  0  0  0  0
 60 74  1  0  0  0  0
 61 82  1  0  0  0  0
 62 64  1  0  0  0  0
 62 73  1  0  0  0  0
 63 75  1  0  0  0  0
 65 66  1  0  0  0  0
M  CHG  1  75   1
M  ISO  4  38 100  61 101  74 100  82 101
M  END
> <Batch ID>
0022

> <Smiles>
CNC(C)C(=O)NC(C(=O)N1Cc2cc([101O:1][101CH2:1]C3CCCN3c3ccc(C[100NH:0][100C:0](=O)N4CCCC(n5nc(-c6ccc(Oc7ccc(F)cc7F)cc6)c(C(N)=O)c5N)C4)c(Cl)c3)ccc2CC1C(=O)NC1CCCc2ccccc21)C(C)(C)C

> <Shape>
0.207

> <Color>
0.198

> <Negative vol penalty>
0.000

$$$$

  -OEChem-04042321143D

 85 93  0     1  0  0  0  0  0999 V2000
  -27.4959  -31.3211   26.9573 C   0  0  0  0  0  0  0  0  0  0  0  0
  -28.2354  -30.7265   25.9400 C   0  0  0  0  0  0  0  0  0  0  0  0
  -22.9792  -10.1167   19.9037 C   0  0  0  0  0  0  0  0  0  0  0  0
  -23.9559   -9.8225   22.0938 C   0  0  0  0  0  0  0  0  0  0  0  0
  -26.2004  -30.8806   27.2247 C   0  0  0  0  0  0  0  0  0  0  0  0
  -27.6802  -29.6901   25.1902 C   0  0  0  0  0  0  0  0  0  0  0  0
  -28.6105  -28.5375   19.2479 C   0  0  0  0  0  0  0  0  0  0  0  0
  -22.2361   -8.9492   20.0782 C   0  0  0  0  0  0  0  0  0  0  0  0
  -23.2128   -8.6550   22.2683 C   0  0  0  0  0  0  0  0  0  0  0  0
  -29.4498  -27.6421   18.5863 C   0  0  0  0  0  0  0  0  0  0  0  0
  -23.3714   -5.4284   21.2708 C   0  0  0  0  0  0  0  0  0  0  0  0
  -24.0291   -4.3132   21.7898 C   0  0  0  0  0  0  0  0  0  0  0  0
  -27.6294  -26.0681   18.4199 C   0  0  0  0  0  0  0  0  0  0  0  0
  -30.2077  -19.1874   18.7388 C   0  0  0  0  0  0  0  0  0  0  0  0
  -29.2634  -18.7940   21.3342 C   0  0  0  0  0  0  0  0  0  0  0  0
  -22.5040   -4.2859   23.6635 C   0  0  0  0  0  0  0  0  0  0  0  0
  -23.8391  -10.5533   20.9115 C   0  0  0  0  0  0  0  0  0  0  0  0
  -24.2265  -13.0692   21.0777 C   0  0  0  0  0  0  0  0  0  0  0  0
  -25.6255  -29.8449   26.4715 C   0  0  0  0  0  0  0  0  0  0  0  0
  -27.2751  -28.1999   19.5106 C   0  0  0  0  0  0  0  0  0  0  0  0
  -26.3762  -29.2345   25.4487 C   0  0  0  0  0  0  0  0  0  0  0  0
  -26.7746  -26.9619   19.0828 C   0  0  0  0  0  0  0  0  0  0  0  0
  -29.9990  -17.8936   19.2163 C   0  0  0  0  0  0  0  0  0  0  0  0
  -29.5268  -17.6969   20.5140 C   0  0  0  0  0  0  0  0  0  0  0  0
  -29.9443  -20.2845   19.5589 C   0  0  0  0  0  0  0  0  0  0  0  0
  -22.3529   -8.2184   21.2605 C   0  0  0  0  0  0  0  0  0  0  0  0
  -28.9601  -26.4061   18.1747 C   0  0  0  0  0  0  0  0  0  0  0  0
  -22.2801   -5.9725   21.9482 C   0  0  0  0  0  0  0  0  0  0  0  0
  -23.5954   -3.7419   22.9861 C   0  0  0  0  0  0  0  0  0  0  0  0
  -29.4721  -20.0878   20.8566 C   0  0  0  0  0  0  0  0  0  0  0  0
  -21.8464   -5.4012   23.1445 C   0  0  0  0  0  0  0  0  0  0  0  0
  -24.6074  -11.7589   20.7316 C   0  0  0  0  0  0  0  0  0  0  0  0
  -25.2958  -13.8471   20.7062 C   0  0  0  0  0  0  0  0  0  0  0  0
  -23.0145  -13.5411   21.6811 C   0  0  0  0  0  0  0  0  0  0  0  0
  -25.5345  -27.8156   22.1425 C   0  0  0  0  0  0  0  0  0  0  0  0
  -23.1041  -27.4910   20.0188 C   0  0  0  0  0  0  0  0  0  0  0  0
  -22.1113  -26.7042   16.8499 C   0  0  0  0  0  0  0  0  0  0  0  0
  -30.9503  -14.4142   20.8552 C   0  0  0  0  0  0  0  0  0  0  0  0
  -24.2389  -29.3709   26.8286 C   0  0  0  0  0  0  0  0  0  0  0  0
  -26.3754  -29.1875   20.2016 C   0  0  0  0  0  0  0  0  0  0  0  0
  -25.3431  -26.5596   19.3225 C   0  0  0  0  0  0  0  0  0  0  0  0
  -23.5872  -28.5201   25.7415 C   0  0  0  0  0  0  0  0  0  0  0  0
  -29.3782  -12.7592   17.9412 C   0  0  0  0  0  0  0  0  0  0  0  0
  -24.5656  -27.4684   25.2284 C   0  0  0  0  0  0  0  0  0  0  0  0
  -27.9909  -12.3999   18.4706 C   0  0  0  0  0  0  0  0  0  0  0  0
  -30.4163  -12.8088   19.0582 C   0  0  0  0  0  0  0  0  0  0  0  0
  -28.6605  -13.3514   20.7127 C   0  0  0  0  0  0  0  0  0  0  0  0
  -25.7997  -28.1243   24.5971 C   0  0  1  0  0  0  0  0  0  0  0  0
  -25.1721  -28.5321   20.8724 C   0  0  1  0  0  0  0  0  0  0  0  0
  -27.5819  -13.3386   19.6190 C   0  0  2  0  0  0  0  0  0  0  0  0
  -30.2887  -16.7344   18.3205 C   0  0  0  0  0  0  0  0  0  0  0  0
  -20.0569  -26.4938   15.4243 C   0  0  0  0  0  0  0  0  0  0  0  0
  -22.4301  -24.8471   21.3847 C   0  0  0  0  0  0  0  0  0  0  0  0
  -21.0418  -24.2499   19.3887 C   0  0  0  0  0  0  0  0  0  0  0  0
  -20.4457  -26.2395   20.7703 C   0  0  0  0  0  0  0  0  0  0  0  0
  -31.5178  -16.4555   22.1163 C   0  0  0  0  0  0  0  0  0  0  0  0
  -23.0540  -28.7949   14.9792 C   0  0  0  0  0  0  0  0  0  0  0  0
  -29.2983  -16.3211   21.0480 C   0  0  0  0  0  0  0  0  0  0  0  0
  -30.8126  -23.3653   17.5659 C   0  0  0  0  0  0  0  0  0  0  0  0
  -30.6363  -21.8635   17.7552 C   0  0  0  0  0  0  0  0  0  0  0  0
  -29.5073  -24.1398   17.7049 C   0  0  0  0  0  0  0  0  0  1  0  0
  -22.4819  -26.3341   19.2748 C   0  0  1  0  0  0  0  0  0  0  0  0
  -21.1804  -27.4111   15.8812 C   0  0  2  0  0  0  0  0  0  0  0  0
  -21.6274  -25.4242   20.2017 C   0  0  0  0  0  0  0  0  0  0  0  0
  -25.8236  -11.7036   20.1823 N   0  0  0  0  0  0  0  0  0  0  0  0
  -26.2162  -12.9889   20.1803 N   0  0  0  0  0  0  0  0  0  0  0  0
  -24.5046  -27.5571   20.0077 N   0  0  0  0  0  0  0  0  0  0  0  0
  -29.9829  -13.6739   20.1559 N   0  0  0  0  0  0  0  0  0  0  0  0
  -25.5292  -15.1746   20.7813 N   0  0  0  0  0  0  0  0  0  0  0  0
  -22.0188  -12.6073   21.9989 N   0  0  0  0  0  0  0  0  0  0  0  0
  -30.1517  -21.5695   19.0822 N   0  0  0  0  0  0  0  0  0  0  0  0
  -25.4896  -28.6125   23.2705 N   0  0  0  0  0  0  0  0  0  0  0  0
  -21.7410  -26.9163   18.1610 N   0  0  0  0  0  0  0  0  0  0  0  0
  -30.5477  -15.6461   21.3927 N   0  0  0  0  0  0  0  0  0  0  0  0
  -21.9333  -27.8671   14.6786 N   0  3  0  0  0  0  0  0  0  0  0  0
  -22.8136  -14.7568   21.9161 O   0  0  0  0  0  0  0  0  0  0  0  0
  -25.8315  -26.6274   22.1022 O   0  0  0  0  0  0  0  0  0  0  0  0
  -22.3742  -28.3099   20.5829 O   0  0  0  0  0  0  0  0  0  0  0  0
  -23.0689  -26.0283   16.4802 O   0  0  0  0  0  0  0  0  0  0  0  0
  -32.1104  -14.0022   20.9830 O   0  0  0  0  0  0  0  0  0  0  0  0
  -21.6278   -7.0792   21.4312 O   0  0  0  0  0  0  0  0  0  0  0  0
  -29.7773  -25.5300   17.5293 O   0  0  0  0  0  0  0  0  0  1  0  0
  -24.2260   -2.6700   23.4835 F   0  0  0  0  0  0  0  0  0  0  0  0
  -29.2154  -21.1351   21.6532 F   0  0  0  0  0  0  0  0  0  0  0  0
  -20.7979   -5.9187   23.7991 F   0  0  0  0  0  0  0  0  0  0  0  0
  1  2  1  0  0  0  0
  1  5  2  0  0  0  0
  2  6  2  0  0  0  0
  3  8  2  0  0  0  0
  3 17  1  0  0  0  0
  4  9  1  0  0  0  0
  4 17  2  0  0  0  0
  5 19  1  0  0  0  0
  6 21  1  0  0  0  0
  7 10  2  0  0  0  0
  7 20  1  0  0  0  0
  8 26  1  0  0  0  0
  9 26  2  0  0  0  0
 10 27  1  0  0  0  0
 11 12  2  0  0  0  0
 11 28  1  0  0  0  0
 12 29  1  0  0  0  0
 13 22  1  0  0  0  0
 13 27  2  0  0  0  0
 14 23  2  0  0  0  0
 14 25  1  0  0  0  0
 15 24  2  0  0  0  0
 15 30  1  0  0  0  0
 16 29  2  0  0  0  0
 16 31  1  0  0  0  0
 17 32  1  0  0  0  0
 18 32  1  0  0  0  0
 18 33  2  0  0  0  0
 18 34  1  0  0  0  0
 19 21  2  0  0  0  0
 19 39  1  0  0  0  0
 20 22  2  0  0  0  0
 20 40  1  0  0  0  0
 21 48  1  0  0  0  0
 22 41  1  0  0  0  0
 23 24  1  0  0  0  0
 23 51  1  0  0  0  0
 24 58  1  0  0  0  0
 25 30  2  0  0  0  0
 25 71  1  0  0  0  0
 26 81  1  0  0  0  0
 27 82  1  0  0  0  0
 28 31  2  0  0  0  0
 28 81  1  0  0  0  0
 29 83  1  0  0  0  0
 30 84  1  0  0  0  0
 31 85  1  0  0  0  0
 32 65  2  0  0  0  0
 33 66  1  0  0  0  0
 33 69  1  0  0  0  0
 34 70  1  0  0  0  0
 34 76  2  0  0  0  0
 35 49  1  0  0  0  0
 35 72  1  0  0  0  0
 35 77  2  0  0  0  0
 36 62  1  0  0  0  0
 36 67  1  0  0  0  0
 36 78  2  0  0  0  0
 37 63  1  0  0  0  0
 37 73  1  0  0  0  0
 37 79  2  0  0  0  0
 38 68  1  0  0  0  0
 38 74  1  0  0  0  0
 38 80  2  0  0  0  0
 39 42  1  0  0  0  0
 40 49  1  0  0  0  0
 41 67  1  0  0  0  0
 42 44  1  0  0  0  0
 43 45  1  0  0  0  0
 43 46  1  0  0  0  0
 44 48  1  0  0  0  0
 45 50  1  0  0  0  0
 46 68  1  0  0  0  0
 47 50  1  0  0  0  0
 47 68  1  0  0  0  0
 48 72  1  0  0  0  0
 49 67  1  0  0  0  0
 50 66  1  0  0  0  0
 52 63  1  0  0  0  0
 53 64  1  0  0  0  0
 54 64  1  0  0  0  0
 55 64  1  0  0  0  0
 56 74  1  0  0  0  0
 57 75  1  0  0  0  0
 58 74  1  0  0  0  0
 59 60  1  0  0  0  0
 59 61  1  0  0  0  0
 60 71  1  0  0  0  0
 61 82  1  0  0  0  0
 62 64  1  0  0  0  0
 62 73  1  0  0  0  0
 63 75  1  0  0  0  0
 65 66  1  0  0  0  0
M  CHG  1  75   1
M  ISO  4  38 100  61 101  74 100  82 101
M  END
> <Batch ID>
0022

> <Smiles>
CNC(C)C(=O)NC(C(=O)N1Cc2cc([101O:1][101CH2:1]CCNc3cc(C)c(C[100N:0](C)[100C:0](=O)N4CCCC(n5nc(-c6ccc(Oc7ccc(F)cc7F)cc6)c(C(N)=O)c5N)C4)cc3F)ccc2CC1C(=O)NC1CCCc2ccccc21)C(C)(C)C

> <Shape>
0.338

> <Color>
0.187

> <Negative vol penalty>
0.000

$$$$

  -OEChem-04042321143D

 85 94  0     1  0  0  0  0  0999 V2000
  -16.5184  -29.1451   23.5028 C   0  0  0  0  0  0  0  0  0  0  0  0
  -17.3222  -28.0889   23.0860 C   0  0  0  0  0  0  0  0  0  0  0  0
  -23.2197   -9.8782   21.5829 C   0  0  0  0  0  0  0  0  0  0  0  0
  -23.7586  -11.0174   23.6442 C   0  0  0  0  0  0  0  0  0  0  0  0
  -17.0956  -30.3699   23.8353 C   0  0  0  0  0  0  0  0  0  0  0  0
  -18.7038  -28.2573   23.0005 C   0  0  0  0  0  0  0  0  0  0  0  0
  -23.0035  -24.0512   24.1528 C   0  0  0  0  0  0  0  0  0  0  0  0
  -22.5265   -8.9047   22.3021 C   0  0  0  0  0  0  0  0  0  0  0  0
  -23.0653  -10.0439   24.3634 C   0  0  0  0  0  0  0  0  0  0  0  0
  -23.7469  -23.2171   23.3190 C   0  0  0  0  0  0  0  0  0  0  0  0
  -23.2680   -6.1690   24.1436 C   0  0  0  0  0  0  0  0  0  0  0  0
  -23.4849   -4.8344   23.8014 C   0  0  0  0  0  0  0  0  0  0  0  0
  -29.2128  -18.7044   21.2234 C   0  0  0  0  0  0  0  0  0  0  0  0
  -25.5569  -24.8115   23.3479 C   0  0  0  0  0  0  0  0  0  0  0  0
  -31.5114  -17.8912   21.2216 C   0  0  0  0  0  0  0  0  0  0  0  0
  -21.1384   -4.5862   23.2821 C   0  0  0  0  0  0  0  0  0  0  0  0
  -23.8358  -10.9346   22.2539 C   0  0  0  0  0  0  0  0  0  0  0  0
  -29.6918  -19.9349   21.6358 C   0  0  0  0  0  0  0  0  0  0  0  0
  -24.0345  -13.1386   20.9849 C   0  0  0  0  0  0  0  0  0  0  0  0
  -18.4858  -30.5504   23.7632 C   0  0  0  0  0  0  0  0  0  0  0  0
  -23.5278  -25.2788   24.5823 C   0  0  0  0  0  0  0  0  0  0  0  0
  -19.3001  -29.4861   23.3312 C   0  0  0  0  0  0  0  0  0  0  0  0
  -24.8191  -25.6582   24.1892 C   0  0  0  0  0  0  0  0  0  0  0  0
  -31.0607  -20.1463   21.8399 C   0  0  0  0  0  0  0  0  0  0  0  0
  -30.1373  -17.6769   21.0161 C   0  0  0  0  0  0  0  0  0  0  0  0
  -22.4493   -8.9875   23.6924 C   0  0  0  0  0  0  0  0  0  0  0  0
  -25.0227  -23.5984   22.9141 C   0  0  0  0  0  0  0  0  0  0  0  0
  -21.9863   -6.7124   24.0551 C   0  0  0  0  0  0  0  0  0  0  0  0
  -22.4201   -4.0429   23.3706 C   0  0  0  0  0  0  0  0  0  0  0  0
  -31.9870  -19.1369   21.6382 C   0  0  0  0  0  0  0  0  0  0  0  0
  -20.9215   -5.9209   23.6244 C   0  0  0  0  0  0  0  0  0  0  0  0
  -24.5525  -11.9402   21.5116 C   0  0  0  0  0  0  0  0  0  0  0  0
  -25.1088  -13.7378   20.3739 C   0  0  0  0  0  0  0  0  0  0  0  0
  -29.0368  -21.2018   21.9417 C   0  0  0  0  0  0  0  0  0  0  0  0
  -30.0891  -22.1936   22.3432 C   0  0  0  0  0  0  0  0  0  0  0  0
  -27.7334  -21.4978   21.8939 C   0  0  0  0  0  0  0  0  0  0  0  0
  -22.7014  -13.6633   21.0429 C   0  0  0  0  0  0  0  0  0  0  0  0
  -22.6934  -28.3245   24.2192 C   0  0  0  0  0  0  0  0  0  0  0  0
  -25.1325  -28.8350   26.2959 C   0  0  0  0  0  0  0  0  0  0  0  0
  -28.0605  -27.7273   27.6548 C   0  0  0  0  0  0  0  0  0  0  0  0
  -30.4612  -15.2719   20.3399 C   0  0  0  0  0  0  0  0  0  0  0  0
  -19.0595  -31.9070   24.0875 C   0  0  0  0  0  0  0  0  0  0  0  0
  -22.7236  -26.1550   25.5032 C   0  0  0  0  0  0  0  0  0  0  0  0
  -25.4356  -26.9567   24.6389 C   0  0  0  0  0  0  0  0  0  0  0  0
  -20.5667  -31.8891   24.3292 C   0  0  0  0  0  0  0  0  0  0  0  0
  -29.7223  -11.9417   19.3196 C   0  0  0  0  0  0  0  0  0  0  0  0
  -21.2719  -31.0829   23.2432 C   0  0  0  0  0  0  0  0  0  0  0  0
  -28.2688  -11.7430   19.7556 C   0  0  0  0  0  0  0  0  0  0  0  0
  -30.5048  -12.7873   20.3228 C   0  0  0  0  0  0  0  0  0  0  0  0
  -28.4361  -13.8785   21.0967 C   0  0  0  0  0  0  0  0  0  0  0  0
  -20.8050  -29.6222   23.2494 C   0  0  1  0  0  0  0  0  0  0  0  0
  -23.1539  -27.6181   25.4629 C   0  0  1  0  0  0  0  0  0  0  0  0
  -27.5906  -13.0872   20.0854 C   0  0  2  0  0  0  0  0  0  0  0  0
  -29.8399  -28.3796   29.2996 C   0  0  0  0  0  0  0  0  0  0  0  0
  -26.2795  -30.8067   24.2694 C   0  0  0  0  0  0  0  0  0  0  0  0
  -28.4584  -30.6939   25.4974 C   0  0  0  0  0  0  0  0  0  0  0  0
  -26.4219  -31.5571   26.6507 C   0  0  0  0  0  0  0  0  0  0  0  0
  -32.5969  -22.0084   22.5484 C   0  0  0  0  0  0  0  0  0  0  0  0
  -27.5219  -25.3630   29.3516 C   0  0  0  0  0  0  0  0  0  0  0  0
  -27.1703  -22.8386   22.2311 C   0  0  0  0  0  0  0  0  0  1  0  0
  -26.6155  -29.0839   26.1629 C   0  0  1  0  0  0  0  0  0  0  0  0
  -28.5306  -27.6336   29.0952 C   0  0  2  0  0  0  0  0  0  0  0  0
  -26.9317  -30.5118   25.6349 C   0  0  0  0  0  0  0  0  0  0  0  0
  -25.8546  -11.7855   21.2572 N   0  0  0  0  0  0  0  0  0  0  0  0
  -26.1638  -12.8946   20.5640 N   0  0  0  0  0  0  0  0  0  0  0  0
  -31.2884  -21.4748   22.2553 N   0  0  0  0  0  0  0  0  0  0  0  0
  -24.6073  -27.7819   25.5336 N   0  0  0  0  0  0  0  0  0  0  0  0
  -29.8045  -14.0470   20.5832 N   0  0  0  0  0  0  0  0  0  0  0  0
  -25.2445  -14.8984   19.6979 N   0  0  0  0  0  0  0  0  0  0  0  0
  -21.7190  -12.9191   21.7101 N   0  0  0  0  0  0  0  0  0  0  0  0
  -29.6851  -16.4024   20.5930 N   0  0  0  0  0  0  0  0  0  0  0  0
  -21.4389  -28.8936   24.3272 N   0  0  0  0  0  0  0  0  0  0  0  0
  -27.1979  -28.7865   27.4670 N   0  0  0  0  0  0  0  0  0  0  0  0
  -28.7362  -26.2089   29.4813 N   0  3  0  0  0  0  0  0  0  0  0  0
  -29.8977  -23.3524   22.6657 O   0  0  0  0  0  0  0  0  0  0  0  0
  -22.3871  -14.7517   20.5044 O   0  0  0  0  0  0  0  0  0  0  0  0
  -23.4230  -28.3524   23.2350 O   0  0  0  0  0  0  0  0  0  0  0  0
  -24.4659  -29.5441   27.0539 O   0  0  0  0  0  0  0  0  0  0  0  0
  -28.4251  -26.9418   26.7827 O   0  0  0  0  0  0  0  0  0  0  0  0
  -31.6171  -15.3144   19.9107 O   0  0  0  0  0  0  0  0  0  0  0  0
  -21.7727   -8.0378   24.3945 O   0  0  0  0  0  0  0  0  0  0  0  0
  -25.7503  -22.7864   22.0997 O   0  0  0  0  0  0  0  0  0  1  0  0
  -22.6288   -2.7617   23.0406 F   0  0  0  0  0  0  0  0  0  0  0  0
  -33.2977  -19.3260   21.8298 F   0  0  0  0  0  0  0  0  0  0  0  0
  -19.6882   -6.4376   23.5362 F   0  0  0  0  0  0  0  0  0  0  0  0
  1  2  1  0  0  0  0
  1  5  2  0  0  0  0
  2  6  2  0  0  0  0
  3  8  2  0  0  0  0
  3 17  1  0  0  0  0
  4  9  1  0  0  0  0
  4 17  2  0  0  0  0
  5 20  1  0  0  0  0
  6 22  1  0  0  0  0
  7 10  2  0  0  0  0
  7 21  1  0  0  0  0
  8 26  1  0  0  0  0
  9 26  2  0  0  0  0
 10 27  1  0  0  0  0
 11 12  2  0  0  0  0
 11 28  1  0  0  0  0
 12 29  1  0  0  0  0
 13 18  1  0  0  0  0
 13 25  2  0  0  0  0
 14 23  1  0  0  0  0
 14 27  2  0  0  0  0
 15 25  1  0  0  0  0
 15 30  2  0  0  0  0
 16 29  2  0  0  0  0
 16 31  1  0  0  0  0
 17 32  1  0  0  0  0
 18 24  2  0  0  0  0
 18 34  1  0  0  0  0
 19 32  1  0  0  0  0
 19 33  2  0  0  0  0
 19 37  1  0  0  0  0
 20 22  2  0  0  0  0
 20 42  1  0  0  0  0
 21 23  2  0  0  0  0
 21 43  1  0  0  0  0
 22 51  1  0  0  0  0
 23 44  1  0  0  0  0
 24 30  1  0  0  0  0
 24 66  1  0  0  0  0
 25 71  1  0  0  0  0
 26 81  1  0  0  0  0
 27 82  1  0  0  0  0
 28 31  2  0  0  0  0
 28 81  1  0  0  0  0
 29 83  1  0  0  0  0
 30 84  1  0  0  0  0
 31 85  1  0  0  0  0
 32 64  2  0  0  0  0
 33 65  1  0  0  0  0
 33 69  1  0  0  0  0
 34 35  1  0  0  0  0
 34 36  2  0  0  0  0
 35 66  1  0  0  0  0
 35 75  2  0  0  0  0
 36 60  1  0  0  0  0
 37 70  1  0  0  0  0
 37 76  2  0  0  0  0
 38 52  1  0  0  0  0
 38 72  1  0  0  0  0
 38 77  2  0  0  0  0
 39 61  1  0  0  0  0
 39 67  1  0  0  0  0
 39 78  2  0  0  0  0
 40 62  1  0  0  0  0
 40 73  1  0  0  0  0
 40 79  2  0  0  0  0
 41 68  1  0  0  0  0
 41 71  1  0  0  0  0
 41 80  2  0  0  0  0
 42 45  1  0  0  0  0
 43 52  1  0  0  0  0
 44 67  1  0  0  0  0
 45 47  1  0  0  0  0
 46 48  1  0  0  0  0
 46 49  1  0  0  0  0
 47 51  1  0  0  0  0
 48 53  1  0  0  0  0
 49 68  1  0  0  0  0
 50 53  1  0  0  0  0
 50 68  1  0  0  0  0
 51 72  1  0  0  0  0
 52 67  1  0  0  0  0
 53 65  1  0  0  0  0
 54 62  1  0  0  0  0
 55 63  1  0  0  0  0
 56 63  1  0  0  0  0
 57 63  1  0  0  0  0
 58 66  1  0  0  0  0
 59 74  1  0  0  0  0
 60 82  1  0  0  0  0
 61 63  1  0  0  0  0
 61 73  1  0  0  0  0
 62 74  1  0  0  0  0
 64 65  1  0  0  0  0
M  CHG  1  74   1
M  ISO  4  41 100  60 101  71 100  82 101
M  END
> <Batch ID>
0022

> <Smiles>
CNC(C)C(=O)NC(C(=O)N1Cc2cc([101O:1][101CH2:1]C=C3C(=O)N(C)c4c(F)cc([100NH:0][100C:0](=O)N5CCCC(n6nc(-c7ccc(Oc8ccc(F)cc8F)cc7)c(C(N)=O)c6N)C5)cc43)ccc2CC1C(=O)NC1CCCc2ccccc21)C(C)(C)C

> <Shape>
0.260

> <Color>
0.187

> <Negative vol penalty>
0.000

$$$$

  -OEChem-04042321143D

 83 91  0     1  0  0  0  0  0999 V2000
  -34.0857  -27.4927   15.8744 C   0  0  0  0  0  0  0  0  0  0  0  0
  -34.2940  -26.9059   17.1184 C   0  0  0  0  0  0  0  0  0  0  0  0
  -23.0776   -9.8639   19.9462 C   0  0  0  0  0  0  0  0  0  0  0  0
  -23.8329   -9.8814   22.2410 C   0  0  0  0  0  0  0  0  0  0  0  0
  -33.0459  -28.4050   15.7005 C   0  0  0  0  0  0  0  0  0  0  0  0
  -33.4631  -27.2320   18.1897 C   0  0  0  0  0  0  0  0  0  0  0  0
  -31.9960  -23.1607   20.8198 C   0  0  0  0  0  0  0  0  0  0  0  0
  -32.6469  -17.5034   23.4418 C   0  0  0  0  0  0  0  0  0  0  0  0
  -32.0588  -16.6164   22.5402 C   0  0  0  0  0  0  0  0  0  0  0  0
  -22.3334   -8.7118   20.1999 C   0  0  0  0  0  0  0  0  0  0  0  0
  -23.0886   -8.7293   22.4947 C   0  0  0  0  0  0  0  0  0  0  0  0
  -32.9175  -22.6123   21.7108 C   0  0  0  0  0  0  0  0  0  0  0  0
  -19.8594   -7.9337   23.0944 C   0  0  0  0  0  0  0  0  0  0  0  0
  -19.1001   -7.8990   24.2639 C   0  0  0  0  0  0  0  0  0  0  0  0
  -31.8096  -23.7331   23.5372 C   0  0  0  0  0  0  0  0  0  0  0  0
  -20.3403   -5.9651   25.0117 C   0  0  0  0  0  0  0  0  0  0  0  0
  -23.8274  -10.4487   20.9667 C   0  0  0  0  0  0  0  0  0  0  0  0
  -24.1691  -12.9733   20.8359 C   0  0  0  0  0  0  0  0  0  0  0  0
  -32.1958  -28.7352   16.7678 C   0  0  0  0  0  0  0  0  0  0  0  0
  -30.9793  -24.0096   21.2802 C   0  0  0  0  0  0  0  0  0  0  0  0
  -32.4117  -28.1506   18.0303 C   0  0  0  0  0  0  0  0  0  0  0  0
  -30.8749  -24.2889   22.6503 C   0  0  0  0  0  0  0  0  0  0  0  0
  -30.4636  -18.3570   24.0262 C   0  0  0  0  0  0  0  0  0  0  0  0
  -31.8493  -18.3737   24.1849 C   0  0  0  0  0  0  0  0  0  0  0  0
  -30.6731  -16.5996   22.3816 C   0  0  0  0  0  0  0  0  0  0  0  0
  -22.3389   -8.1445   21.4741 C   0  0  0  0  0  0  0  0  0  0  0  0
  -32.8261  -22.9007   23.0693 C   0  0  0  0  0  0  0  0  0  0  0  0
  -20.8591   -6.9841   22.8834 C   0  0  0  0  0  0  0  0  0  0  0  0
  -19.3405   -6.9147   25.2226 C   0  0  0  0  0  0  0  0  0  0  0  0
  -21.0995   -5.9998   23.8421 C   0  0  0  0  0  0  0  0  0  0  0  0
  -29.8754  -17.4700   23.1246 C   0  0  0  0  0  0  0  0  0  0  0  0
  -24.5968  -11.6385   20.7051 C   0  0  0  0  0  0  0  0  0  0  0  0
  -25.2619  -13.7213   20.4714 C   0  0  0  0  0  0  0  0  0  0  0  0
  -22.8977  -13.4908   21.2499 C   0  0  0  0  0  0  0  0  0  0  0  0
  -30.1839  -27.0433   20.7623 C   0  0  0  0  0  0  0  0  0  0  0  0
  -27.6031  -26.2681   22.5681 C   0  0  0  0  0  0  0  0  0  0  0  0
  -26.2332  -24.2341   24.9415 C   0  0  0  0  0  0  0  0  0  0  0  0
  -30.7276  -14.7684   20.6524 C   0  0  0  0  0  0  0  0  0  0  0  0
  -31.1146  -29.7625   16.5436 C   0  0  0  0  0  0  0  0  0  0  0  0
  -29.9770  -24.5718   20.3097 C   0  0  0  0  0  0  0  0  0  0  0  0
  -29.7896  -25.1782   23.1979 C   0  0  0  0  0  0  0  0  0  0  0  0
  -30.0467  -29.7708   17.6344 C   0  0  0  0  0  0  0  0  0  0  0  0
  -29.6183  -12.3437   18.2929 C   0  0  0  0  0  0  0  0  0  0  0  0
  -30.6939  -29.7396   19.0153 C   0  0  0  0  0  0  0  0  0  0  0  0
  -28.1778  -12.0539   18.7209 C   0  0  0  0  0  0  0  0  0  0  0  0
  -30.5309  -12.5781   19.4953 C   0  0  0  0  0  0  0  0  0  0  0  0
  -28.6211  -13.3086   20.8694 C   0  0  0  0  0  0  0  0  0  0  0  0
  -31.5163  -28.4601   19.2104 C   0  0  1  0  0  0  0  0  0  0  0  0
  -29.2926  -25.8352   20.8223 C   0  0  1  0  0  0  0  0  0  0  0  0
  -27.6507  -13.1298   19.6904 C   0  0  2  0  0  0  0  0  0  0  0  0
  -29.5887  -19.2799   24.8110 C   0  0  0  0  0  0  0  0  0  0  0  0
  -24.1173  -23.8698   26.2405 C   0  0  0  0  0  0  0  0  0  0  0  0
  -28.2837  -28.6559   24.3417 C   0  0  0  0  0  0  0  0  0  0  0  0
  -26.7706  -27.6985   26.0917 C   0  0  0  0  0  0  0  0  0  0  0  0
  -25.8441  -28.3656   23.8738 C   0  0  0  0  0  0  0  0  0  0  0  0
  -25.8740  -21.5196   23.8184 C   0  0  0  0  0  0  0  0  0  0  0  0
  -34.0930  -20.8952   25.8207 C   0  0  0  0  0  0  0  0  0  0  0  0
  -33.8411  -19.6302   25.0092 C   0  0  0  0  0  0  0  0  0  0  0  0
  -33.3151  -22.0992   25.3026 C   0  0  0  0  0  0  0  0  0  1  0  0
  -27.2838  -26.2942   24.0433 C   0  0  1  0  0  0  0  0  0  0  0  0
  -24.9059  -23.4993   24.9941 C   0  0  2  0  0  0  0  0  0  0  0  0
  -27.0673  -27.7383   24.5774 C   0  0  0  0  0  0  0  0  0  0  0  0
  -25.8626  -11.5409   20.2898 N   0  0  0  0  0  0  0  0  0  0  0  0
  -26.2395  -12.8240   20.1564 N   0  0  0  0  0  0  0  0  0  0  0  0
  -28.8374  -25.7087   22.2083 N   0  0  0  0  0  0  0  0  0  0  0  0
  -29.9701  -13.6129   20.3669 N   0  0  0  0  0  0  0  0  0  0  0  0
  -25.4723  -15.0524   20.3928 N   0  0  0  0  0  0  0  0  0  0  0  0
  -21.8853  -12.5831   21.5893 N   0  0  0  0  0  0  0  0  0  0  0  0
  -30.0784  -15.6971   21.4653 N   0  0  0  0  0  0  0  0  0  0  0  0
  -32.4507  -19.2497   25.0750 N   0  0  0  0  0  0  0  0  0  0  0  0
  -30.6466  -27.3386   19.4942 N   0  0  0  0  0  0  0  0  0  0  0  0
  -26.1379  -25.4106   24.2286 N   0  0  0  0  0  0  0  0  0  0  0  0
  -25.1294  -22.0259   25.0000 N   0  3  0  0  0  0  0  0  0  0  0  0
  -22.6612  -14.7217   21.3012 O   0  0  0  0  0  0  0  0  0  0  0  0
  -30.4323  -27.6625   21.7902 O   0  0  0  0  0  0  0  0  0  0  0  0
  -26.7844  -26.7207   21.7640 O   0  0  0  0  0  0  0  0  0  0  0  0
  -27.2518  -23.8090   25.4822 O   0  0  0  0  0  0  0  0  0  0  0  0
  -31.8576  -14.9352   20.1863 O   0  0  0  0  0  0  0  0  0  0  0  0
  -21.6126   -7.0204   21.7221 O   0  0  0  0  0  0  0  0  0  0  0  0
  -33.7247  -22.3673   23.9411 O   0  0  0  0  0  0  0  0  0  1  0  0
  -18.6123   -6.8824   26.3464 F   0  0  0  0  0  0  0  0  0  0  0  0
  -22.0594   -5.0856   23.6455 F   0  0  0  0  0  0  0  0  0  0  0  0
  -28.5427  -17.4574   22.9701 F   0  0  0  0  0  0  0  0  0  0  0  0
  1  2  1  0  0  0  0
  1  5  2  0  0  0  0
  2  6  2  0  0  0  0
  3 10  2  0  0  0  0
  3 17  1  0  0  0  0
  4 11  1  0  0  0  0
  4 17  2  0  0  0  0
  5 19  1  0  0  0  0
  6 21  1  0  0  0  0
  7 12  2  0  0  0  0
  7 20  1  0  0  0  0
  8  9  2  0  0  0  0
  8 24  1  0  0  0  0
  9 25  1  0  0  0  0
 10 26  1  0  0  0  0
 11 26  2  0  0  0  0
 12 27  1  0  0  0  0
 13 14  2  0  0  0  0
 13 28  1  0  0  0  0
 14 29  1  0  0  0  0
 15 22  1  0  0  0  0
 15 27  2  0  0  0  0
 16 29  2  0  0  0  0
 16 30  1  0  0  0  0
 17 32  1  0  0  0  0
 18 32  1  0  0  0  0
 18 33  2  0  0  0  0
 18 34  1  0  0  0  0
 19 21  2  0  0  0  0
 19 39  1  0  0  0  0
 20 22  2  0  0  0  0
 20 40  1  0  0  0  0
 21 48  1  0  0  0  0
 22 41  1  0  0  0  0
 23 24  2  0  0  0  0
 23 31  1  0  0  0  0
 23 51  1  0  0  0  0
 24 70  1  0  0  0  0
 25 31  2  0  0  0  0
 25 69  1  0  0  0  0
 26 79  1  0  0  0  0
 27 80  1  0  0  0  0
 28 30  2  0  0  0  0
 28 79  1  0  0  0  0
 29 81  1  0  0  0  0
 30 82  1  0  0  0  0
 31 83  1  0  0  0  0
 32 63  2  0  0  0  0
 33 64  1  0  0  0  0
 33 67  1  0  0  0  0
 34 68  1  0  0  0  0
 34 74  2  0  0  0  0
 35 49  1  0  0  0  0
 35 71  1  0  0  0  0
 35 75  2  0  0  0  0
 36 60  1  0  0  0  0
 36 65  1  0  0  0  0
 36 76  2  0  0  0  0
 37 61  1  0  0  0  0
 37 72  1  0  0  0  0
 37 77  2  0  0  0  0
 38 66  1  0  0  0  0
 38 69  1  0  0  0  0
 38 78  2  0  0  0  0
 39 42  1  0  0  0  0
 40 49  1  0  0  0  0
 41 65  1  0  0  0  0
 42 44  1  0  0  0  0
 43 45  1  0  0  0  0
 43 46  1  0  0  0  0
 44 48  1  0  0  0  0
 45 50  1  0  0  0  0
 46 66  1  0  0  0  0
 47 50  1  0  0  0  0
 47 66  1  0  0  0  0
 48 71  1  0  0  0  0
 49 65  1  0  0  0  0
 50 64  1  0  0  0  0
 52 61  1  0  0  0  0
 53 62  1  0  0  0  0
 54 62  1  0  0  0  0
 55 62  1  0  0  0  0
 56 73  1  0  0  0  0
 57 58  1  0  0  0  0
 57 59  1  0  0  0  0
 58 70  1  0  0  0  0
 59 80  1  0  0  0  0
 60 62  1  0  0  0  0
 60 72  1  0  0  0  0
 61 73  1  0  0  0  0
 63 64  1  0  0  0  0
M  CHG  1  73   1
M  ISO  4  38 100  59 101  69 100  80 101
M  END
> <Batch ID>
0022

> <Smiles>
CNC(C)C(=O)NC(C(=O)N1Cc2cc([101O:1][101CH2:1]CCNc3ccc([100NH:0][100C:0](=O)N4CCCC(n5nc(-c6ccc(Oc7ccc(F)cc7F)cc6)c(C(N)=O)c5N)C4)c(F)c3C)ccc2CC1C(=O)NC1CCCc2ccccc21)C(C)(C)C

> <Shape>
0.213

> <Color>
0.196

> <Negative vol penalty>
0.000

$$$$

  -OEChem-04042321143D

 82 90  0     1  0  0  0  0  0999 V2000
  -24.5775  -25.9682   36.9384 C   0  0  0  0  0  0  0  0  0  0  0  0
  -25.5147  -25.5869   35.9837 C   0  0  0  0  0  0  0  0  0  0  0  0
  -23.0742   -9.8686   19.9404 C   0  0  0  0  0  0  0  0  0  0  0  0
  -23.8338   -9.8748   22.2338 C   0  0  0  0  0  0  0  0  0  0  0  0
  -23.8030  -25.0014   37.5783 C   0  0  0  0  0  0  0  0  0  0  0  0
  -25.6788  -24.2384   35.6690 C   0  0  0  0  0  0  0  0  0  0  0  0
  -27.0489  -21.8777   30.1866 C   0  0  0  0  0  0  0  0  0  0  0  0
  -29.8813  -17.4535   23.1395 C   0  0  0  0  0  0  0  0  0  0  0  0
  -32.0652  -16.6033   22.5523 C   0  0  0  0  0  0  0  0  0  0  0  0
  -30.4686  -18.3363   24.0458 C   0  0  0  0  0  0  0  0  0  0  0  0
  -32.6526  -17.4861   23.4585 C   0  0  0  0  0  0  0  0  0  0  0  0
  -22.3295   -8.7159   20.1901 C   0  0  0  0  0  0  0  0  0  0  0  0
  -23.0891   -8.7221   22.4836 C   0  0  0  0  0  0  0  0  0  0  0  0
  -28.2493  -21.4443   29.6254 C   0  0  0  0  0  0  0  0  0  0  0  0
  -19.8603   -7.9263   23.0857 C   0  0  0  0  0  0  0  0  0  0  0  0
  -19.1032   -7.8867   24.2564 C   0  0  0  0  0  0  0  0  0  0  0  0
  -27.7247  -19.1790   30.2674 C   0  0  0  0  0  0  0  0  0  0  0  0
  -20.3433   -5.9484   24.9928 C   0  0  0  0  0  0  0  0  0  0  0  0
  -23.8264  -10.4480   20.9622 C   0  0  0  0  0  0  0  0  0  0  0  0
  -24.1698  -12.9730   20.8425 C   0  0  0  0  0  0  0  0  0  0  0  0
  -23.9509  -23.6411   37.2643 C   0  0  0  0  0  0  0  0  0  0  0  0
  -26.1810  -20.9650   30.8032 C   0  0  0  0  0  0  0  0  0  0  0  0
  -24.9066  -23.2524   36.3062 C   0  0  0  0  0  0  0  0  0  0  0  0
  -26.5127  -19.6029   30.8335 C   0  0  0  0  0  0  0  0  0  0  0  0
  -30.6796  -16.5869   22.3928 C   0  0  0  0  0  0  0  0  0  0  0  0
  -31.8542  -18.3526   24.2053 C   0  0  0  0  0  0  0  0  0  0  0  0
  -22.3369   -8.1426   21.4617 C   0  0  0  0  0  0  0  0  0  0  0  0
  -28.5887  -20.0952   29.6683 C   0  0  0  0  0  0  0  0  0  0  0  0
  -20.8589   -6.9769   22.8684 C   0  0  0  0  0  0  0  0  0  0  0  0
  -19.3447   -6.8978   25.2101 C   0  0  0  0  0  0  0  0  0  0  0  0
  -21.1004   -5.9880   23.8220 C   0  0  0  0  0  0  0  0  0  0  0  0
  -24.5962  -11.6384   20.7047 C   0  0  0  0  0  0  0  0  0  0  0  0
  -25.2625  -13.7218   20.4795 C   0  0  0  0  0  0  0  0  0  0  0  0
  -22.8997  -13.4896   21.2614 C   0  0  0  0  0  0  0  0  0  0  0  0
  -25.0412  -20.5908   33.7467 C   0  0  0  0  0  0  0  0  0  0  0  0
  -23.2609  -18.2707   32.3432 C   0  0  0  0  0  0  0  0  0  0  0  0
  -22.8988  -16.0502   29.7771 C   0  0  0  0  0  0  0  0  0  0  0  0
  -30.7294  -14.7638   20.6550 C   0  0  0  0  0  0  0  0  0  0  0  0
  -23.1244  -22.6284   38.0165 C   0  0  0  0  0  0  0  0  0  0  0  0
  -24.8774  -21.4445   31.3802 C   0  0  0  0  0  0  0  0  0  0  0  0
  -25.6060  -18.5798   31.4657 C   0  0  0  0  0  0  0  0  0  0  0  0
  -23.0967  -21.2528   37.3554 C   0  0  0  0  0  0  0  0  0  0  0  0
  -29.6137  -12.3509   18.2863 C   0  0  0  0  0  0  0  0  0  0  0  0
  -24.5037  -20.8288   36.9462 C   0  0  0  0  0  0  0  0  0  0  0  0
  -28.1738  -12.0603   18.7157 C   0  0  0  0  0  0  0  0  0  0  0  0
  -30.5288  -12.5790   19.4881 C   0  0  0  0  0  0  0  0  0  0  0  0
  -28.6222  -13.3046   20.8692 C   0  0  0  0  0  0  0  0  0  0  0  0
  -25.0964  -21.8016   35.9197 C   0  0  1  0  0  0  0  0  0  0  0  0
  -24.3094  -20.5026   32.4374 C   0  0  1  0  0  0  0  0  0  0  0  0
  -27.6494  -13.1321   19.6912 C   0  0  2  0  0  0  0  0  0  0  0  0
  -21.3598  -14.2622   28.9215 C   0  0  0  0  0  0  0  0  0  0  0  0
  -24.3109  -16.3522   34.4708 C   0  0  0  0  0  0  0  0  0  0  0  0
  -23.5309  -14.4504   33.0413 C   0  0  0  0  0  0  0  0  0  0  0  0
  -21.8810  -16.0919   33.9392 C   0  0  0  0  0  0  0  0  0  0  0  0
  -33.8988  -19.2575   25.2828 C   0  0  0  0  0  0  0  0  0  0  0  0
  -22.3889  -17.5290   27.2647 C   0  0  0  0  0  0  0  0  0  0  0  0
  -31.0777  -19.4702   27.1260 C   0  0  0  0  0  0  0  0  0  0  0  0
  -31.6493  -20.1604   25.8935 C   0  0  0  0  0  0  0  0  0  0  0  0
  -30.2643  -20.4084   28.0099 C   0  0  0  0  0  0  0  0  0  1  0  0
  -23.4431  -16.7954   32.0799 C   0  0  1  0  0  0  0  0  0  0  0  0
  -21.7197  -15.7390   28.8731 C   0  0  2  0  0  0  0  0  0  0  0  0
  -23.3097  -15.9418   33.3725 C   0  0  0  0  0  0  0  0  0  0  0  0
  -25.8611  -11.5418   20.2866 N   0  0  0  0  0  0  0  0  0  0  0  0
  -26.2389  -12.8251   20.1585 N   0  0  0  0  0  0  0  0  0  0  0  0
  -24.3456  -19.0989   32.0218 N   0  0  0  0  0  0  0  0  0  0  0  0
  -29.9704  -13.6101   20.3655 N   0  0  0  0  0  0  0  0  0  0  0  0
  -25.4738  -15.0531   20.4067 N   0  0  0  0  0  0  0  0  0  0  0  0
  -21.8871  -12.5810   21.5984 N   0  0  0  0  0  0  0  0  0  0  0  0
  -30.0825  -15.6891   21.4734 N   0  0  0  0  0  0  0  0  0  0  0  0
  -24.5421  -21.5505   34.6066 N   0  0  0  0  0  0  0  0  0  0  0  0
  -22.4892  -16.4469   31.0325 N   0  0  0  0  0  0  0  0  0  0  0  0
  -32.4443  -19.2409   25.1159 N   0  0  3  0  0  0  0  0  0  0  0  0
  -22.0393  -16.0988   27.4626 N   0  3  0  0  0  0  0  0  0  0  0  0
  -22.6642  -14.7203   21.3188 O   0  0  0  0  0  0  0  0  0  0  0  0
  -25.9876  -19.8425   33.9616 O   0  0  0  0  0  0  0  0  0  0  0  0
  -22.1927  -18.6743   32.8100 O   0  0  0  0  0  0  0  0  0  0  0  0
  -24.0666  -15.9477   29.4078 O   0  0  0  0  0  0  0  0  0  0  0  0
  -31.8586  -14.9318   20.1875 O   0  0  0  0  0  0  0  0  0  0  0  0
  -21.6102   -7.0180   21.7058 O   0  0  0  0  0  0  0  0  0  0  0  0
  -29.7601  -19.6697   29.1219 O   0  0  0  0  0  0  0  0  0  1  0  0
  -18.6186   -6.8609   26.3350 F   0  0  0  0  0  0  0  0  0  0  0  0
  -22.0591   -5.0739   23.6194 F   0  0  0  0  0  0  0  0  0  0  0  0
  1  2  1  0  0  0  0
  1  5  2  0  0  0  0
  2  6  2  0  0  0  0
  3 12  2  0  0  0  0
  3 19  1  0  0  0  0
  4 13  1  0  0  0  0
  4 19  2  0  0  0  0
  5 21  1  0  0  0  0
  6 23  1  0  0  0  0
  7 14  2  0  0  0  0
  7 22  1  0  0  0  0
  8 10  2  0  0  0  0
  8 25  1  0  0  0  0
  9 11  1  0  0  0  0
  9 25  2  0  0  0  0
 10 26  1  0  0  0  0
 11 26  2  0  0  0  0
 12 27  1  0  0  0  0
 13 27  2  0  0  0  0
 14 28  1  0  0  0  0
 15 16  2  0  0  0  0
 15 29  1  0  0  0  0
 16 30  1  0  0  0  0
 17 24  1  0  0  0  0
 17 28  2  0  0  0  0
 18 30  2  0  0  0  0
 18 31  1  0  0  0  0
 19 32  1  0  0  0  0
 20 32  1  0  0  0  0
 20 33  2  0  0  0  0
 20 34  1  0  0  0  0
 21 23  2  0  0  0  0
 21 39  1  0  0  0  0
 22 24  2  0  0  0  0
 22 40  1  0  0  0  0
 23 48  1  0  0  0  0
 24 41  1  0  0  0  0
 25 69  1  0  0  0  0
 26 72  1  0  0  0  0
 27 79  1  0  0  0  0
 28 80  1  0  0  0  0
 29 31  2  0  0  0  0
 29 79  1  0  0  0  0
 30 81  1  0  0  0  0
 31 82  1  0  0  0  0
 32 63  2  0  0  0  0
 33 64  1  0  0  0  0
 33 67  1  0  0  0  0
 34 68  1  0  0  0  0
 34 74  2  0  0  0  0
 35 49  1  0  0  0  0
 35 70  1  0  0  0  0
 35 75  2  0  0  0  0
 36 60  1  0  0  0  0
 36 65  1  0  0  0  0
 36 76  2  0  0  0  0
 37 61  1  0  0  0  0
 37 71  1  0  0  0  0
 37 77  2  0  0  0  0
 38 66  1  0  0  0  0
 38 69  1  0  0  0  0
 38 78  2  0  0  0  0
 39 42  1  0  0  0  0
 40 49  1  0  0  0  0
 41 65  1  0  0  0  0
 42 44  1  0  0  0  0
 43 45  1  0  0  0  0
 43 46  1  0  0  0  0
 44 48  1  0  0  0  0
 45 50  1  0  0  0  0
 46 66  1  0  0  0  0
 47 50  1  0  0  0  0
 47 66  1  0  0  0  0
 48 70  1  0  0  0  0
 49 65  1  0  0  0  0
 50 64  1  0  0  0  0
 51 61  1  0  0  0  0
 52 62  1  0  0  0  0
 53 62  1  0  0  0  0
 54 62  1  0  0  0  0
 55 72  1  0  0  0  0
 56 73  1  0  0  0  0
 57 58  1  0  0  0  0
 57 59  1  0  0  0  0
 58 72  1  0  0  0  0
 59 80  1  0  0  0  0
 60 62  1  0  0  0  0
 60 71  1  0  0  0  0
 61 73  1  0  0  0  0
 63 64  1  0  0  0  0
M  CHG  1  73   1
M  ISO  4  38 100  59 101  69 100  80 101
M  END
> <Batch ID>
0022

> <Smiles>
CNC(C)C(=O)NC(C(=O)N1Cc2cc([101O:1][101CH2:1]CCN(C)c3ccc([100NH:0][100C:0](=O)N4CCCC(n5nc(-c6ccc(Oc7ccc(F)cc7F)cc6)c(C(N)=O)c5N)C4)cc3)ccc2CC1C(=O)NC1CCCc2ccccc21)C(C)(C)C

> <Shape>
0.167

> <Color>
0.200

> <Negative vol penalty>
0.000

$$$$

  -OEChem-04042321143D

 89 98  0     1  0  0  0  0  0999 V2000
  -19.7290   -9.2415   21.0765 C   0  0  0  0  0  0  0  0  0  0  0  0
  -19.8181  -10.3529   21.9086 C   0  0  0  0  0  0  0  0  0  0  0  0
  -28.1458  -27.3374   18.9070 C   0  0  0  0  0  0  0  0  0  0  0  0
  -29.2076  -27.7422   21.0391 C   0  0  0  0  0  0  0  0  0  0  0  0
  -20.8890   -8.6549   20.5722 C   0  0  0  0  0  0  0  0  0  0  0  0
  -21.0674  -10.8776   22.2378 C   0  0  0  0  0  0  0  0  0  0  0  0
  -22.7460  -17.7090   20.6866 C   0  0  0  0  0  0  0  0  0  0  0  0
  -28.9784  -26.2374   18.7012 C   0  0  0  0  0  0  0  0  0  0  0  0
  -30.0401  -26.6421   20.8334 C   0  0  0  0  0  0  0  0  0  0  0  0
  -23.0667  -19.0646   20.6132 C   0  0  0  0  0  0  0  0  0  0  0  0
  -29.1570  -23.0215   19.7305 C   0  0  0  0  0  0  0  0  0  0  0  0
  -28.5735  -21.8467   19.2562 C   0  0  0  0  0  0  0  0  0  0  0  0
  -18.4023  -27.8054   20.8353 C   0  0  0  0  0  0  0  0  0  0  0  0
  -25.2687  -18.6026   21.4996 C   0  0  0  0  0  0  0  0  0  0  0  0
  -29.9943  -21.9293   17.3038 C   0  0  0  0  0  0  0  0  0  0  0  0
  -17.4338  -28.1774   21.7537 C   0  0  0  0  0  0  0  0  0  0  0  0
  -18.9904  -29.1488   23.1363 C   0  0  0  0  0  0  0  0  0  0  0  0
  -28.2605  -28.0899   20.0760 C   0  0  0  0  0  0  0  0  0  0  0  0
  -27.3001  -30.3782   19.4855 C   0  0  0  0  0  0  0  0  0  0  0  0
  -22.1527   -9.1786   20.8876 C   0  0  0  0  0  0  0  0  0  0  0  0
  -23.6919  -16.7918   21.1529 C   0  0  0  0  0  0  0  0  0  0  0  0
  -22.2454  -10.2966   21.7384 C   0  0  0  0  0  0  0  0  0  0  0  0
  -24.9575  -17.2418   21.5636 C   0  0  0  0  0  0  0  0  0  0  0  0
  -19.7237  -28.1377   21.1124 C   0  0  0  0  0  0  0  0  0  0  0  0
  -20.0319  -28.8221   22.2828 C   0  0  0  0  0  0  0  0  0  0  0  0
  -29.9255  -25.8897   19.6644 C   0  0  0  0  0  0  0  0  0  0  0  0
  -24.3249  -19.5104   21.0189 C   0  0  0  0  0  0  0  0  0  0  0  0
  -30.1591  -23.6503   18.9914 C   0  0  0  0  0  0  0  0  0  0  0  0
  -28.9922  -21.3006   18.0429 C   0  0  0  0  0  0  0  0  0  0  0  0
  -30.5777  -23.1042   17.7781 C   0  0  0  0  0  0  0  0  0  0  0  0
  -27.4011  -29.2267   20.2889 C   0  0  0  0  0  0  0  0  0  0  0  0
  -26.3526  -31.1512   20.1110 C   0  0  0  0  0  0  0  0  0  0  0  0
  -21.8142  -26.9163   20.5562 C   0  0  0  0  0  0  0  0  0  0  0  0
  -28.0001  -30.7187   18.2814 C   0  0  0  0  0  0  0  0  0  0  0  0
  -24.5111  -13.2102   21.9124 C   0  0  0  0  0  0  0  0  0  0  0  0
  -27.0112  -14.4440   20.6327 C   0  0  0  0  0  0  0  0  0  0  0  0
  -29.4005  -16.0599   18.8113 C   0  0  0  0  0  0  0  0  0  0  0  0
  -21.7914  -29.8679   23.7515 C   0  0  0  0  0  0  0  0  0  0  0  0
  -23.3804   -8.4817   20.3568 C   0  0  0  0  0  0  0  0  0  0  0  0
  -23.3689  -15.3304   21.3069 C   0  0  0  0  0  0  0  0  0  0  0  0
  -25.9313  -16.2238   22.0910 C   0  0  0  0  0  0  0  0  0  0  0  0
  -24.6487   -9.3259   20.4513 C   0  0  0  0  0  0  0  0  0  0  0  0
  -23.0945  -28.7807   18.1445 C   0  0  0  0  0  0  0  0  0  0  0  0
  -21.7562  -29.3807   18.5632 C   0  0  0  0  0  0  0  0  0  0  0  0
  -24.5176  -32.0515   24.4419 C   0  0  0  0  0  0  0  0  0  0  0  0
  -24.7612   -9.9679   21.8304 C   0  0  0  0  0  0  0  0  0  0  0  0
  -23.7201  -27.8269   19.1616 C   0  0  0  0  0  0  0  0  0  0  0  0
  -25.5549  -31.6839   23.3783 C   0  0  0  0  0  0  0  0  0  0  0  0
  -20.6810  -28.3285   18.8139 C   0  0  0  0  0  0  0  0  0  0  0  0
  -23.7543  -30.8245   24.9376 C   0  0  0  0  0  0  0  0  0  0  0  0
  -24.1778  -29.6397   22.8195 C   0  0  0  0  0  0  0  0  0  0  0  0
  -23.5812  -10.9099   22.0983 C   0  0  1  0  0  0  0  0  0  0  0  0
  -22.8479  -26.6083   19.4723 C   0  0  1  0  0  0  0  0  0  0  0  0
  -24.5704  -14.4130   21.0173 C   0  0  1  0  0  0  0  0  0  0  0  0
  -24.9271  -30.8520   22.2428 C   0  0  2  0  0  0  0  0  0  0  0  0
  -31.6823  -15.7281   17.8210 C   0  0  0  0  0  0  0  0  0  0  0  0
  -28.2532  -14.7469   23.4021 C   0  0  0  0  0  0  0  0  0  0  0  0
  -30.4113  -15.3577   22.2896 C   0  0  0  0  0  0  0  0  0  0  0  0
  -29.4104  -13.1040   21.9134 C   0  0  0  0  0  0  0  0  0  0  0  0
  -28.4007  -16.5133   16.0629 C   0  0  0  0  0  0  0  0  0  0  0  0
  -24.1701  -23.1285   20.4140 C   0  0  0  0  0  0  0  0  0  0  0  0
  -23.1727  -24.1610   19.9105 C   0  0  0  0  0  0  0  0  0  0  0  0
  -23.6229  -21.7066   20.4346 C   0  0  0  0  0  0  0  0  0  1  0  0
  -28.3359  -15.1306   20.8502 C   0  0  1  0  0  0  0  0  0  0  0  0
  -30.1833  -15.6414   17.5798 C   0  0  2  0  0  0  0  0  0  0  0  0
  -29.0790  -14.5995   22.1085 C   0  0  0  0  0  0  0  0  0  0  0  0
  -17.6947  -28.8429   22.9011 N   0  0  0  0  0  0  0  0  0  0  0  0
  -26.5832  -29.2609   21.3443 N   0  0  0  0  0  0  0  0  0  0  0  0
  -25.9593  -30.4434   21.2084 N   0  0  0  0  0  0  0  0  0  0  0  0
  -20.7556  -27.7622   20.1721 N   0  0  0  0  0  0  0  0  0  0  0  0
  -25.8940  -15.0131   21.2559 N   0  0  0  0  0  0  0  0  0  0  0  0
  -23.1839  -30.0882   23.8074 N   0  0  0  0  0  0  0  0  0  0  0  0
  -25.8259  -32.3606   19.8238 N   0  0  0  0  0  0  0  0  0  0  0  0
  -28.9401  -29.8106   17.7755 N   0  0  0  0  0  0  0  0  0  0  0  0
  -21.3609  -29.1851   22.6144 N   0  0  0  0  0  0  0  0  0  0  0  0
  -23.7673  -12.1641   21.4007 N   0  0  0  0  0  0  0  0  0  0  0  0
  -29.0833  -14.9790   19.6065 N   0  0  0  0  0  0  0  0  0  0  0  0
  -23.7576  -25.5213   19.9647 N   0  3  0  0  0  0  0  0  0  0  0  0
  -29.8414  -16.5198   16.4255 N   0  3  0  0  0  0  0  0  0  0  0  0
  -21.9827  -26.4698   21.6943 O   0  0  0  0  0  0  0  0  0  0  0  0
  -27.8098  -31.8036   17.6811 O   0  0  0  0  0  0  0  0  0  0  0  0
  -25.0981  -13.2281   22.9880 O   0  0  0  0  0  0  0  0  0  0  0  0
  -26.9663  -13.4275   19.9342 O   0  0  0  0  0  0  0  0  0  0  0  0
  -29.1037  -17.2291   19.0464 O   0  0  0  0  0  0  0  0  0  0  0  0
  -21.0332  -30.2801   24.6331 O   0  0  0  0  0  0  0  0  0  0  0  0
  -30.7379  -24.8162   19.4640 O   0  0  0  0  0  0  0  0  0  0  0  0
  -24.6330  -20.8346   20.9404 O   0  0  0  0  0  0  0  0  0  1  0  0
  -28.4329  -20.1716   17.5883 F   0  0  0  0  0  0  0  0  0  0  0  0
  -31.5408  -23.7031   17.0642 F   0  0  0  0  0  0  0  0  0  0  0  0
  1  2  1  0  0  0  0
  1  5  2  0  0  0  0
  2  6  2  0  0  0  0
  3  8  2  0  0  0  0
  3 18  1  0  0  0  0
  4  9  1  0  0  0  0
  4 18  2  0  0  0  0
  5 20  1  0  0  0  0
  6 22  1  0  0  0  0
  7 10  2  0  0  0  0
  7 21  1  0  0  0  0
  8 26  1  0  0  0  0
  9 26  2  0  0  0  0
 10 27  1  0  0  0  0
 11 12  2  0  0  0  0
 11 28  1  0  0  0  0
 12 29  1  0  0  0  0
 13 16  2  0  0  0  0
 13 24  1  0  0  0  0
 14 23  1  0  0  0  0
 14 27  2  0  0  0  0
 15 29  2  0  0  0  0
 15 30  1  0  0  0  0
 16 67  1  0  0  0  0
 17 25  1  0  0  0  0
 17 67  2  0  0  0  0
 18 31  1  0  0  0  0
 19 31  1  0  0  0  0
 19 32  2  0  0  0  0
 19 34  1  0  0  0  0
 20 22  2  0  0  0  0
 20 39  1  0  0  0  0
 21 23  2  0  0  0  0
 21 40  1  0  0  0  0
 22 52  1  0  0  0  0
 23 41  1  0  0  0  0
 24 25  2  0  0  0  0
 24 70  1  0  0  0  0
 25 75  1  0  0  0  0
 26 86  1  0  0  0  0
 27 87  1  0  0  0  0
 28 30  2  0  0  0  0
 28 86  1  0  0  0  0
 29 88  1  0  0  0  0
 30 89  1  0  0  0  0
 31 68  2  0  0  0  0
 32 69  1  0  0  0  0
 32 73  1  0  0  0  0
 33 53  1  0  0  0  0
 33 70  1  0  0  0  0
 33 80  2  0  0  0  0
 34 74  1  0  0  0  0
 34 81  2  0  0  0  0
 35 54  1  0  0  0  0
 35 76  1  0  0  0  0
 35 82  2  0  0  0  0
 36 64  1  0  0  0  0
 36 71  1  0  0  0  0
 36 83  2  0  0  0  0
 37 65  1  0  0  0  0
 37 77  1  0  0  0  0
 37 84  2  0  0  0  0
 38 72  1  0  0  0  0
 38 75  1  0  0  0  0
 38 85  2  0  0  0  0
 39 42  1  0  0  0  0
 40 54  1  0  0  0  0
 41 71  1  0  0  0  0
 42 46  1  0  0  0  0
 43 44  1  0  0  0  0
 43 47  1  0  0  0  0
 44 49  1  0  0  0  0
 45 48  1  0  0  0  0
 45 50  1  0  0  0  0
 46 52  1  0  0  0  0
 47 53  1  0  0  0  0
 48 55  1  0  0  0  0
 49 70  1  0  0  0  0
 50 72  1  0  0  0  0
 51 55  1  0  0  0  0
 51 72  1  0  0  0  0
 52 76  1  0  0  0  0
 53 78  1  0  0  0  0
 54 71  1  0  0  0  0
 55 69  1  0  0  0  0
 56 65  1  0  0  0  0
 57 66  1  0  0  0  0
 58 66  1  0  0  0  0
 59 66  1  0  0  0  0
 60 79  1  0  0  0  0
 61 62  1  0  0  0  0
 61 63  1  0  0  0  0
 62 78  1  0  0  0  0
 63 87  1  0  0  0  0
 64 66  1  0  0  0  0
 64 77  1  0  0  0  0
 65 79  1  0  0  0  0
 68 69  1  0  0  0  0
M  CHG  2  78   1  79   1
M  ISO  4  38 100  63 101  75 100  87 101
M  END
> <Batch ID>
0022

> <Smiles>
CNC(C)C(=O)NC(C(=O)N1Cc2cc([101O:1][101CH2:1]CCNC3CCCCN(c4ccncc4[100NH:0][100C:0](=O)N4CCCC(n5nc(-c6ccc(Oc7ccc(F)cc7F)cc6)c(C(N)=O)c5N)C4)C3=O)ccc2CC1C(=O)NC1CCCc2ccccc21)C(C)(C)C

> <Shape>
0.277

> <Color>
0.051

> <Negative vol penalty>
0.000

$$$$

  -OEChem-04042321143D

 84 92  0     1  0  0  0  0  0999 V2000
  -19.2909  -26.5827   26.1658 C   0  0  0  0  0  0  0  0  0  0  0  0
  -20.5195  -26.1472   25.6794 C   0  0  0  0  0  0  0  0  0  0  0  0
  -23.6177   -9.8090   19.9133 C   0  0  0  0  0  0  0  0  0  0  0  0
  -23.7157  -10.1270   22.3062 C   0  0  0  0  0  0  0  0  0  0  0  0
  -18.4563  -27.3537   25.3577 C   0  0  0  0  0  0  0  0  0  0  0  0
  -20.9135  -26.4815   24.3843 C   0  0  0  0  0  0  0  0  0  0  0  0
  -26.6060  -27.6580   22.4564 C   0  0  0  0  0  0  0  0  0  0  0  0
  -27.8713  -19.6570   21.2379 C   0  0  0  0  0  0  0  0  0  0  0  0
  -28.0980  -20.8536   20.5579 C   0  0  0  0  0  0  0  0  0  0  0  0
  -23.0001   -8.5728   20.1028 C   0  0  0  0  0  0  0  0  0  0  0  0
  -23.0980   -8.8908   22.4958 C   0  0  0  0  0  0  0  0  0  0  0  0
  -27.5561  -26.8739   21.8034 C   0  0  0  0  0  0  0  0  0  0  0  0
  -23.9845   -5.6286   22.4415 C   0  0  0  0  0  0  0  0  0  0  0  0
  -24.5163   -4.7806   23.4129 C   0  0  0  0  0  0  0  0  0  0  0  0
  -26.8454  -27.7864   19.6865 C   0  0  0  0  0  0  0  0  0  0  0  0
  -29.6778  -19.7335   19.1134 C   0  0  0  0  0  0  0  0  0  0  0  0
  -22.4074   -4.8080   24.5914 C   0  0  0  0  0  0  0  0  0  0  0  0
  -23.9755  -10.5861   21.0150 C   0  0  0  0  0  0  0  0  0  0  0  0
  -23.9859  -13.1149   20.6794 C   0  0  0  0  0  0  0  0  0  0  0  0
  -18.8445  -27.7057   24.0554 C   0  0  0  0  0  0  0  0  0  0  0  0
  -25.7598  -28.5055   21.7271 C   0  0  0  0  0  0  0  0  0  0  0  0
  -20.0827  -27.2568   23.5576 C   0  0  0  0  0  0  0  0  0  0  0  0
  -25.8872  -28.5822   20.3328 C   0  0  0  0  0  0  0  0  0  0  0  0
  -28.5479  -18.4986   20.8557 C   0  0  0  0  0  0  0  0  0  0  0  0
  -29.4511  -18.5369   19.7934 C   0  0  0  0  0  0  0  0  0  0  0  0
  -29.0012  -20.8918   19.4957 C   0  0  0  0  0  0  0  0  0  0  0  0
  -22.7402   -8.1137   21.3940 C   0  0  0  0  0  0  0  0  0  0  0  0
  -27.6739  -26.9359   20.4180 C   0  0  0  0  0  0  0  0  0  0  0  0
  -22.6641   -6.0663   22.5450 C   0  0  0  0  0  0  0  0  0  0  0  0
  -23.7278   -4.3703   24.4879 C   0  0  0  0  0  0  0  0  0  0  0  0
  -21.8756   -5.6560   23.6199 C   0  0  0  0  0  0  0  0  0  0  0  0
  -24.6141  -11.8630   20.8199 C   0  0  0  0  0  0  0  0  0  0  0  0
  -25.0216  -14.0028   20.5199 C   0  0  0  0  0  0  0  0  0  0  0  0
  -22.5909  -13.4458   20.6922 C   0  0  0  0  0  0  0  0  0  0  0  0
  -22.6173  -28.7051   21.2925 C   0  0  0  0  0  0  0  0  0  0  0  0
  -23.4025  -31.4205   19.7011 C   0  0  0  0  0  0  0  0  0  0  0  0
  -25.7603  -33.1950   17.9868 C   0  0  0  0  0  0  0  0  0  0  0  0
  -30.0936  -15.6802   22.4638 C   0  0  0  0  0  0  0  0  0  0  0  0
  -17.8879  -28.5010   23.2027 C   0  0  0  0  0  0  0  0  0  0  0  0
  -24.7582  -29.3649   22.4488 C   0  0  0  0  0  0  0  0  0  0  0  0
  -25.0164  -29.4911   19.5057 C   0  0  0  0  0  0  0  0  0  0  0  0
  -18.5431  -29.1268   21.9741 C   0  0  0  0  0  0  0  0  0  0  0  0
  -29.9425  -13.2338   19.6900 C   0  0  0  0  0  0  0  0  0  0  0  0
  -19.4203  -28.1048   21.2581 C   0  0  0  0  0  0  0  0  0  0  0  0
  -28.5078  -12.7164   19.7799 C   0  0  0  0  0  0  0  0  0  0  0  0
  -30.4658  -13.6936   21.0474 C   0  0  0  0  0  0  0  0  0  0  0  0
  -28.1644  -14.1835   21.8074 C   0  0  0  0  0  0  0  0  0  0  0  0
  -20.5562  -27.6196   22.1669 C   0  0  1  0  0  0  0  0  0  0  0  0
  -23.6010  -29.8090   21.5594 C   0  0  1  0  0  0  0  0  0  0  0  0
  -27.5908  -13.7556   20.4481 C   0  0  2  0  0  0  0  0  0  0  0  0
  -30.1881  -17.3097   19.3673 C   0  0  0  0  0  0  0  0  0  0  0  0
  -26.0960  -35.3667   16.7751 C   0  0  0  0  0  0  0  0  0  0  0  0
  -21.8216  -30.3373   17.3268 C   0  0  0  0  0  0  0  0  0  0  0  0
  -22.9589  -32.0374   15.8831 C   0  0  0  0  0  0  0  0  0  0  0  0
  -21.5013  -32.7782   17.7671 C   0  0  0  0  0  0  0  0  0  0  0  0
  -29.9067  -17.9926   23.2990 C   0  0  0  0  0  0  0  0  0  0  0  0
  -27.9007  -34.0370   19.8493 C   0  0  0  0  0  0  0  0  0  0  0  0
  -28.2895  -17.2297   21.5995 C   0  0  0  0  0  0  0  0  0  0  0  0
  -28.9884  -24.4248   18.1784 C   0  0  0  0  0  0  0  0  0  0  0  0
  -28.5701  -23.3245   19.1461 C   0  0  0  0  0  0  0  0  0  0  0  0
  -28.2905  -25.7524   18.4494 C   0  0  0  0  0  0  0  0  0  1  0  0
  -23.7585  -31.7580   18.2734 C   0  0  1  0  0  0  0  0  0  0  0  0
  -26.2177  -34.6377   18.1042 C   0  0  2  0  0  0  0  0  0  0  0  0
  -22.5253  -31.7090   17.3277 C   0  0  0  0  0  0  0  0  0  0  0  0
  -25.9457  -11.9440   20.7550 N   0  0  0  0  0  0  0  0  0  0  0  0
  -26.1627  -13.2576   20.5721 N   0  0  0  0  0  0  0  0  0  0  0  0
  -24.0481  -30.3068   20.2569 N   0  0  0  0  0  0  0  0  0  0  0  0
  -29.5539  -14.6476   21.6793 N   0  0  0  0  0  0  0  0  0  0  0  0
  -25.0584  -15.3404   20.3414 N   0  0  0  0  0  0  0  0  0  0  0  0
  -21.6606  -12.4121   20.8669 N   0  0  0  0  0  0  0  0  0  0  0  0
  -29.2255  -22.0810   18.8197 N   0  0  0  0  0  0  0  0  0  0  0  0
  -21.6091  -28.6104   22.2327 N   0  0  0  0  0  0  0  0  0  0  0  0
  -24.4286  -33.0532   18.3150 N   0  0  0  0  0  0  0  0  0  0  0  0
  -29.3815  -16.8884   22.5086 N   0  0  0  0  0  0  0  0  0  0  0  0
  -27.6406  -34.6959   18.5435 N   0  3  0  0  0  0  0  0  0  0  0  0
  -22.1807  -14.6210   20.5363 O   0  0  0  0  0  0  0  0  0  0  0  0
  -22.7614  -27.9929   20.3057 O   0  0  0  0  0  0  0  0  0  0  0  0
  -22.5873  -32.1235   20.3034 O   0  0  0  0  0  0  0  0  0  0  0  0
  -26.5084  -32.2855   17.6354 O   0  0  0  0  0  0  0  0  0  0  0  0
  -31.1565  -15.5339   23.0809 O   0  0  0  0  0  0  0  0  0  0  0  0
  -22.1374   -6.9076   21.5794 O   0  0  0  0  0  0  0  0  0  0  0  0
  -28.5999  -26.1711   19.7780 O   0  0  0  0  0  0  0  0  0  1  0  0
  -24.2381   -3.5547   25.4198 F   0  0  0  0  0  0  0  0  0  0  0  0
  -20.6061   -6.0723   23.7241 F   0  0  0  0  0  0  0  0  0  0  0  0
  1  2  1  0  0  0  0
  1  5  2  0  0  0  0
  2  6  2  0  0  0  0
  3 10  2  0  0  0  0
  3 18  1  0  0  0  0
  4 11  1  0  0  0  0
  4 18  2  0  0  0  0
  5 20  1  0  0  0  0
  6 22  1  0  0  0  0
  7 12  2  0  0  0  0
  7 21  1  0  0  0  0
  8  9  2  0  0  0  0
  8 24  1  0  0  0  0
  9 26  1  0  0  0  0
 10 27  1  0  0  0  0
 11 27  2  0  0  0  0
 12 28  1  0  0  0  0
 13 14  2  0  0  0  0
 13 29  1  0  0  0  0
 14 30  1  0  0  0  0
 15 23  1  0  0  0  0
 15 28  2  0  0  0  0
 16 25  1  0  0  0  0
 16 26  2  0  0  0  0
 17 30  2  0  0  0  0
 17 31  1  0  0  0  0
 18 32  1  0  0  0  0
 19 32  1  0  0  0  0
 19 33  2  0  0  0  0
 19 34  1  0  0  0  0
 20 22  2  0  0  0  0
 20 39  1  0  0  0  0
 21 23  2  0  0  0  0
 21 40  1  0  0  0  0
 22 48  1  0  0  0  0
 23 41  1  0  0  0  0
 24 25  2  0  0  0  0
 24 58  1  0  0  0  0
 25 51  1  0  0  0  0
 26 71  1  0  0  0  0
 27 81  1  0  0  0  0
 28 82  1  0  0  0  0
 29 31  2  0  0  0  0
 29 81  1  0  0  0  0
 30 83  1  0  0  0  0
 31 84  1  0  0  0  0
 32 65  2  0  0  0  0
 33 66  1  0  0  0  0
 33 69  1  0  0  0  0
 34 70  1  0  0  0  0
 34 76  2  0  0  0  0
 35 49  1  0  0  0  0
 35 72  1  0  0  0  0
 35 77  2  0  0  0  0
 36 62  1  0  0  0  0
 36 67  1  0  0  0  0
 36 78  2  0  0  0  0
 37 63  1  0  0  0  0
 37 73  1  0  0  0  0
 37 79  2  0  0  0  0
 38 68  1  0  0  0  0
 38 74  1  0  0  0  0
 38 80  2  0  0  0  0
 39 42  1  0  0  0  0
 40 49  1  0  0  0  0
 41 67  1  0  0  0  0
 42 44  1  0  0  0  0
 43 45  1  0  0  0  0
 43 46  1  0  0  0  0
 44 48  1  0  0  0  0
 45 50  1  0  0  0  0
 46 68  1  0  0  0  0
 47 50  1  0  0  0  0
 47 68  1  0  0  0  0
 48 72  1  0  0  0  0
 49 67  1  0  0  0  0
 50 66  1  0  0  0  0
 52 63  1  0  0  0  0
 53 64  1  0  0  0  0
 54 64  1  0  0  0  0
 55 64  1  0  0  0  0
 56 74  1  0  0  0  0
 57 75  1  0  0  0  0
 58 74  1  0  0  0  0
 59 60  1  0  0  0  0
 59 61  1  0  0  0  0
 60 71  1  0  0  0  0
 61 82  1  0  0  0  0
 62 64  1  0  0  0  0
 62 73  1  0  0  0  0
 63 75  1  0  0  0  0
 65 66  1  0  0  0  0
M  CHG  1  75   1
M  ISO  4  38 100  61 101  74 100  82 101
M  END
> <Batch ID>
0022

> <Smiles>
CNC(C)C(=O)NC(C(=O)N1Cc2cc([101O:1][101CH2:1]CCNc3ccc(C[100N:0](C)[100C:0](=O)N4CCCC(n5nc(-c6ccc(Oc7ccc(F)cc7F)cc6)c(C(N)=O)c5N)C4)c(C)c3)ccc2CC1C(=O)NC1CCCc2ccccc21)C(C)(C)C

> <Shape>
0.329

> <Color>
0.212

> <Negative vol penalty>
0.000

$$$$

  -OEChem-04042321143D

 82 90  0     1  0  0  0  0  0999 V2000
  -33.7466  -27.5963   15.9767 C   0  0  0  0  0  0  0  0  0  0  0  0
  -34.0030  -26.9956   17.2050 C   0  0  0  0  0  0  0  0  0  0  0  0
  -23.0771   -9.8648   19.9439 C   0  0  0  0  0  0  0  0  0  0  0  0
  -23.8339   -9.8782   22.2382 C   0  0  0  0  0  0  0  0  0  0  0  0
  -32.6918  -28.4993   15.8503 C   0  0  0  0  0  0  0  0  0  0  0  0
  -33.2054  -27.2983   18.3079 C   0  0  0  0  0  0  0  0  0  0  0  0
  -31.8716  -23.1766   20.9306 C   0  0  0  0  0  0  0  0  0  0  0  0
  -32.0587  -16.6157   22.5462 C   0  0  0  0  0  0  0  0  0  0  0  0
  -32.6451  -17.5019   23.4497 C   0  0  0  0  0  0  0  0  0  0  0  0
  -22.3333   -8.7121   20.1959 C   0  0  0  0  0  0  0  0  0  0  0  0
  -23.0900   -8.7255   22.4903 C   0  0  0  0  0  0  0  0  0  0  0  0
  -32.8285  -22.6268   21.7826 C   0  0  0  0  0  0  0  0  0  0  0  0
  -19.8613   -7.9283   23.0906 C   0  0  0  0  0  0  0  0  0  0  0  0
  -19.1027   -7.8913   24.2605 C   0  0  0  0  0  0  0  0  0  0  0  0
  -31.7709  -23.7111   23.6601 C   0  0  0  0  0  0  0  0  0  0  0  0
  -29.8739  -17.4651   23.1311 C   0  0  0  0  0  0  0  0  0  0  0  0
  -20.3437   -5.9562   25.0039 C   0  0  0  0  0  0  0  0  0  0  0  0
  -23.8275  -10.4478   20.9650 C   0  0  0  0  0  0  0  0  0  0  0  0
  -24.1687  -12.9728   20.8386 C   0  0  0  0  0  0  0  0  0  0  0  0
  -31.8748  -28.8058   16.9499 C   0  0  0  0  0  0  0  0  0  0  0  0
  -30.8619  -24.0080   21.4363 C   0  0  0  0  0  0  0  0  0  0  0  0
  -32.1395  -28.2072   18.1964 C   0  0  0  0  0  0  0  0  0  0  0  0
  -30.8010  -24.2681   22.8128 C   0  0  0  0  0  0  0  0  0  0  0  0
  -30.4603  -18.3513   24.0347 C   0  0  0  0  0  0  0  0  0  0  0  0
  -30.6730  -16.5973   22.3868 C   0  0  0  0  0  0  0  0  0  0  0  0
  -31.8459  -18.3697   24.1940 C   0  0  0  0  0  0  0  0  0  0  0  0
  -22.3397   -8.1424   21.4691 C   0  0  0  0  0  0  0  0  0  0  0  0
  -32.7800  -22.8963   23.1472 C   0  0  0  0  0  0  0  0  0  0  0  0
  -20.8610   -6.9792   22.8772 C   0  0  0  0  0  0  0  0  0  0  0  0
  -19.3440   -6.9053   25.2172 C   0  0  0  0  0  0  0  0  0  0  0  0
  -21.1022   -5.9932   23.8339 C   0  0  0  0  0  0  0  0  0  0  0  0
  -24.5966  -11.6382   20.7051 C   0  0  0  0  0  0  0  0  0  0  0  0
  -25.2611  -13.7216   20.4749 C   0  0  0  0  0  0  0  0  0  0  0  0
  -22.8975  -13.4893   21.2544 C   0  0  0  0  0  0  0  0  0  0  0  0
  -30.0172  -27.0392   20.9866 C   0  0  0  0  0  0  0  0  0  0  0  0
  -27.5073  -26.2117   22.8675 C   0  0  0  0  0  0  0  0  0  0  0  0
  -26.2402  -24.1315   25.2579 C   0  0  0  0  0  0  0  0  0  0  0  0
  -30.7268  -14.7694   20.6542 C   0  0  0  0  0  0  0  0  0  0  0  0
  -30.7757  -29.8239   16.7761 C   0  0  0  0  0  0  0  0  0  0  0  0
  -29.8215  -24.5717   20.5078 C   0  0  0  0  0  0  0  0  0  0  0  0
  -29.7253  -25.1379   23.4086 C   0  0  0  0  0  0  0  0  0  0  0  0
  -29.7453  -29.8059   17.9023 C   0  0  0  0  0  0  0  0  0  0  0  0
  -29.6163  -12.3488   18.2909 C   0  0  0  0  0  0  0  0  0  0  0  0
  -30.4391  -29.7638   19.2601 C   0  0  0  0  0  0  0  0  0  0  0  0
  -28.1762  -12.0579   18.7193 C   0  0  0  0  0  0  0  0  0  0  0  0
  -30.5297  -12.5811   19.4932 C   0  0  0  0  0  0  0  0  0  0  0  0
  -28.6207  -13.3087   20.8699 C   0  0  0  0  0  0  0  0  0  0  0  0
  -31.2812  -28.4910   19.4101 C   0  0  1  0  0  0  0  0  0  0  0  0
  -29.1413  -25.8205   21.0602 C   0  0  1  0  0  0  0  0  0  0  0  0
  -27.6495  -13.1320   19.6912 C   0  0  2  0  0  0  0  0  0  0  0  0
  -29.5806  -19.2691   24.8198 C   0  0  0  0  0  0  0  0  0  0  0  0
  -24.1733  -23.7266   26.6223 C   0  0  0  0  0  0  0  0  0  0  0  0
  -28.2218  -28.5833   24.6493 C   0  0  0  0  0  0  0  0  0  0  0  0
  -26.7791  -27.5862   26.4361 C   0  0  0  0  0  0  0  0  0  0  0  0
  -25.7711  -28.2721   24.2598 C   0  0  0  0  0  0  0  0  0  0  0  0
  -25.8723  -21.4282   24.1109 C   0  0  0  0  0  0  0  0  0  0  0  0
  -34.0860  -20.8887   25.8386 C   0  0  0  0  0  0  0  0  0  0  0  0
  -33.8359  -19.6255   25.0237 C   0  0  0  0  0  0  0  0  0  0  0  0
  -33.3078  -22.0935   25.3227 C   0  0  0  0  0  0  0  0  0  1  0  0
  -27.2377  -26.2148   24.3529 C   0  0  1  0  0  0  0  0  0  0  0  0
  -24.9233  -23.3813   25.3451 C   0  0  2  0  0  0  0  0  0  0  0  0
  -27.0240  -27.6492   24.9134 C   0  0  0  0  0  0  0  0  0  0  0  0
  -25.8620  -11.5417   20.2888 N   0  0  0  0  0  0  0  0  0  0  0  0
  -26.2387  -12.8250   20.1576 N   0  0  0  0  0  0  0  0  0  0  0  0
  -28.7347  -25.6708   22.4589 N   0  0  0  0  0  0  0  0  0  0  0  0
  -29.9692  -13.6142   20.3671 N   0  0  0  0  0  0  0  0  0  0  0  0
  -25.4712  -15.0529   20.3985 N   0  0  0  0  0  0  0  0  0  0  0  0
  -21.8854  -12.5807   21.5928 N   0  0  0  0  0  0  0  0  0  0  0  0
  -30.0780  -15.6964   21.4692 N   0  0  0  0  0  0  0  0  0  0  0  0
  -32.4457  -19.2439   25.0870 N   0  0  0  0  0  0  0  0  0  0  0  0
  -30.4336  -27.3564   19.7077 N   0  0  0  0  0  0  0  0  0  0  0  0
  -26.1082  -25.3161   24.5646 N   0  0  0  0  0  0  0  0  0  0  0  0
  -25.1626  -21.9105   25.3236 N   0  3  0  0  0  0  0  0  0  0  0  0
  -22.6608  -14.7200   21.3081 O   0  0  0  0  0  0  0  0  0  0  0  0
  -30.2935  -27.6476   22.0138 O   0  0  0  0  0  0  0  0  0  0  0  0
  -26.6571  -26.6656   22.0976 O   0  0  0  0  0  0  0  0  0  0  0  0
  -27.2809  -23.7106   25.7582 O   0  0  0  0  0  0  0  0  0  0  0  0
  -31.8564  -14.9372   20.1877 O   0  0  0  0  0  0  0  0  0  0  0  0
  -21.6137   -7.0178   21.7155 O   0  0  0  0  0  0  0  0  0  0  0  0
  -33.7131  -22.3615   23.9809 O   0  0  0  0  0  0  0  0  0  1  0  0
  -18.6165   -6.8708   26.3414 F   0  0  0  0  0  0  0  0  0  0  0  0
  -22.0621   -5.0795   23.6351 F   0  0  0  0  0  0  0  0  0  0  0  0
  1  2  1  0  0  0  0
  1  5  2  0  0  0  0
  2  6  2  0  0  0  0
  3 10  2  0  0  0  0
  3 18  1  0  0  0  0
  4 11  1  0  0  0  0
  4 18  2  0  0  0  0
  5 20  1  0  0  0  0
  6 22  1  0  0  0  0
  7 12  2  0  0  0  0
  7 21  1  0  0  0  0
  8  9  2  0  0  0  0
  8 25  1  0  0  0  0
  9 26  1  0  0  0  0
 10 27  1  0  0  0  0
 11 27  2  0  0  0  0
 12 28  1  0  0  0  0
 13 14  2  0  0  0  0
 13 29  1  0  0  0  0
 14 30  1  0  0  0  0
 15 23  1  0  0  0  0
 15 28  2  0  0  0  0
 16 24  1  0  0  0  0
 16 25  2  0  0  0  0
 17 30  2  0  0  0  0
 17 31  1  0  0  0  0
 18 32  1  0  0  0  0
 19 32  1  0  0  0  0
 19 33  2  0  0  0  0
 19 34  1  0  0  0  0
 20 22  2  0  0  0  0
 20 39  1  0  0  0  0
 21 23  2  0  0  0  0
 21 40  1  0  0  0  0
 22 48  1  0  0  0  0
 23 41  1  0  0  0  0
 24 26  2  0  0  0  0
 24 51  1  0  0  0  0
 25 69  1  0  0  0  0
 26 70  1  0  0  0  0
 27 79  1  0  0  0  0
 28 80  1  0  0  0  0
 29 31  2  0  0  0  0
 29 79  1  0  0  0  0
 30 81  1  0  0  0  0
 31 82  1  0  0  0  0
 32 63  2  0  0  0  0
 33 64  1  0  0  0  0
 33 67  1  0  0  0  0
 34 68  1  0  0  0  0
 34 74  2  0  0  0  0
 35 49  1  0  0  0  0
 35 71  1  0  0  0  0
 35 75  2  0  0  0  0
 36 60  1  0  0  0  0
 36 65  1  0  0  0  0
 36 76  2  0  0  0  0
 37 61  1  0  0  0  0
 37 72  1  0  0  0  0
 37 77  2  0  0  0  0
 38 66  1  0  0  0  0
 38 69  1  0  0  0  0
 38 78  2  0  0  0  0
 39 42  1  0  0  0  0
 40 49  1  0  0  0  0
 41 65  1  0  0  0  0
 42 44  1  0  0  0  0
 43 45  1  0  0  0  0
 43 46  1  0  0  0  0
 44 48  1  0  0  0  0
 45 50  1  0  0  0  0
 46 66  1  0  0  0  0
 47 50  1  0  0  0  0
 47 66  1  0  0  0  0
 48 71  1  0  0  0  0
 49 65  1  0  0  0  0
 50 64  1  0  0  0  0
 52 61  1  0  0  0  0
 53 62  1  0  0  0  0
 54 62  1  0  0  0  0
 55 62  1  0  0  0  0
 56 73  1  0  0  0  0
 57 58  1  0  0  0  0
 57 59  1  0  0  0  0
 58 70  1  0  0  0  0
 59 80  1  0  0  0  0
 60 62  1  0  0  0  0
 60 72  1  0  0  0  0
 61 73  1  0  0  0  0
 63 64  1  0  0  0  0
M  CHG  1  73   1
M  ISO  4  38 100  59 101  69 100  80 101
M  END
> <Batch ID>
0022

> <Smiles>
CNC(C)C(=O)NC(C(=O)N1Cc2cc([101O:1][101CH2:1]CCNc3ccc([100NH:0][100C:0](=O)N4CCCC(n5nc(-c6ccc(Oc7ccc(F)cc7F)cc6)c(C(N)=O)c5N)C4)cc3C)ccc2CC1C(=O)NC1CCCc2ccccc21)C(C)(C)C

> <Shape>
0.209

> <Color>
0.196

> <Negative vol penalty>
0.000

$$$$

  -OEChem-04042321143D

 83 91  0     1  0  0  0  0  0999 V2000
  -25.9235  -35.2947   24.3886 C   0  0  0  0  0  0  0  0  0  0  0  0
  -26.9700  -34.4272   24.0922 C   0  0  0  0  0  0  0  0  0  0  0  0
  -24.1649   -9.6597   20.5944 C   0  0  0  0  0  0  0  0  0  0  0  0
  -24.7740  -10.2855   22.8471 C   0  0  0  0  0  0  0  0  0  0  0  0
  -24.6194  -34.8088   24.4730 C   0  0  0  0  0  0  0  0  0  0  0  0
  -26.7130  -33.0730   23.8812 C   0  0  0  0  0  0  0  0  0  0  0  0
  -29.0358  -27.4799   20.0551 C   0  0  0  0  0  0  0  0  0  0  0  0
  -29.6224  -17.5868   20.5754 C   0  0  0  0  0  0  0  0  0  0  0  0
  -29.6716  -18.9406   20.2436 C   0  0  0  0  0  0  0  0  0  0  0  0
  -23.8070   -8.3888   21.0442 C   0  0  0  0  0  0  0  0  0  0  0  0
  -24.4160   -9.0146   23.2969 C   0  0  0  0  0  0  0  0  0  0  0  0
  -29.4544  -26.1605   20.2214 C   0  0  0  0  0  0  0  0  0  0  0  0
  -21.1886   -6.9540   22.6312 C   0  0  0  0  0  0  0  0  0  0  0  0
  -19.9863   -6.4181   22.1701 C   0  0  0  0  0  0  0  0  0  0  0  0
  -27.1516  -25.4480   20.3147 C   0  0  0  0  0  0  0  0  0  0  0  0
  -30.0473  -19.4959   22.5647 C   0  0  0  0  0  0  0  0  0  0  0  0
  -21.1870   -4.5605   21.1982 C   0  0  0  0  0  0  0  0  0  0  0  0
  -24.6485  -10.6080   21.4958 C   0  0  0  0  0  0  0  0  0  0  0  0
  -24.1906  -13.0554   20.9407 C   0  0  0  0  0  0  0  0  0  0  0  0
  -24.3451  -33.4497   24.2533 C   0  0  0  0  0  0  0  0  0  0  0  0
  -27.6697  -27.7952   20.0282 C   0  0  0  0  0  0  0  0  0  0  0  0
  -25.4042  -32.5682   23.9640 C   0  0  0  0  0  0  0  0  0  0  0  0
  -26.7182  -26.7719   20.1453 C   0  0  0  0  0  0  0  0  0  0  0  0
  -29.7857  -17.1874   21.9019 C   0  0  0  0  0  0  0  0  0  0  0  0
  -29.8840  -19.8952   21.2382 C   0  0  0  0  0  0  0  0  0  0  0  0
  -23.9325   -8.0663   22.3954 C   0  0  0  0  0  0  0  0  0  0  0  0
  -28.5123  -25.1447   20.3541 C   0  0  0  0  0  0  0  0  0  0  0  0
  -22.3902   -6.2933   22.3757 C   0  0  0  0  0  0  0  0  0  0  0  0
  -19.9854   -5.2213   21.4537 C   0  0  0  0  0  0  0  0  0  0  0  0
  -29.9981  -18.1419   22.8965 C   0  0  0  0  0  0  0  0  0  0  0  0
  -22.3894   -5.0965   21.6592 C   0  0  0  0  0  0  0  0  0  0  0  0
  -25.0189  -11.9208   21.0317 C   0  0  0  0  0  0  0  0  0  0  0  0
  -25.0104  -14.0403   20.4464 C   0  0  0  0  0  0  0  0  0  0  0  0
  -22.8040  -13.2057   21.2733 C   0  0  0  0  0  0  0  0  0  0  0  0
  -25.7429  -29.5763   21.8224 C   0  0  0  0  0  0  0  0  0  0  0  0
  -23.5749  -28.8588   19.5186 C   0  0  0  0  0  0  0  0  0  0  0  0
  -22.5789  -26.7386   17.0369 C   0  0  0  0  0  0  0  0  0  0  0  0
  -31.1254  -14.3625   20.6507 C   0  0  0  0  0  0  0  0  0  0  0  0
  -22.9255  -32.9625   24.4019 C   0  0  0  0  0  0  0  0  0  0  0  0
  -27.2343  -29.2200   19.8213 C   0  0  0  0  0  0  0  0  0  0  0  0
  -25.2396  -27.0552   20.1027 C   0  0  0  0  0  0  0  0  0  0  0  0
  -22.6888  -31.5818   23.7952 C   0  0  0  0  0  0  0  0  0  0  0  0
  -28.8834  -14.6881   17.7233 C   0  0  0  0  0  0  0  0  0  0  0  0
  -23.7964  -30.6189   24.2112 C   0  0  0  0  0  0  0  0  0  0  0  0
  -27.5909  -14.0429   18.2203 C   0  0  0  0  0  0  0  0  0  0  0  0
  -30.1113  -14.1042   18.4154 C   0  0  0  0  0  0  0  0  0  0  0  0
  -28.7565  -13.5152   20.3982 C   0  0  0  0  0  0  0  0  0  0  0  0
  -25.1623  -31.0972   23.7041 C   0  0  1  0  0  0  0  0  0  0  0  0
  -25.8199  -29.4917   20.3242 C   0  0  1  0  0  0  0  0  0  0  0  0
  -27.4969  -14.1138   19.7544 C   0  0  2  0  0  0  0  0  0  0  0  0
  -20.7464  -26.3946   15.3573 C   0  0  0  0  0  0  0  0  0  0  0  0
  -21.7287  -27.8725   21.7387 C   0  0  0  0  0  0  0  0  0  0  0  0
  -20.3712  -26.6987   19.9929 C   0  0  0  0  0  0  0  0  0  0  0  0
  -20.5889  -29.1832   19.9394 C   0  0  0  0  0  0  0  0  0  0  0  0
  -32.1147  -15.2893   22.7102 C   0  0  0  0  0  0  0  0  0  0  0  0
  -24.4662  -26.9320   14.7653 C   0  0  0  0  0  0  0  0  0  0  0  0
  -29.7325  -15.7389   22.2533 C   0  0  0  0  0  0  0  0  0  0  0  0
  -30.1484  -22.2939   21.8724 C   0  0  0  0  0  0  0  0  0  0  0  0
  -30.1642  -23.6466   21.1804 C   0  0  0  0  0  0  0  0  0  1  0  0
  -22.5725  -27.7511   19.3016 C   0  0  1  0  0  0  0  0  0  0  0  0
  -22.1180  -26.9991   15.6141 C   0  0  2  0  0  0  0  0  0  0  0  0
  -21.3431  -27.8710   20.2459 C   0  0  0  0  0  0  0  0  0  0  0  0
  -26.2690  -12.1613   20.6275 N   0  0  0  0  0  0  0  0  0  0  0  0
  -26.2323  -13.4584   20.2776 N   0  0  0  0  0  0  0  0  0  0  0  0
  -24.8639  -28.4649   19.9048 N   0  0  0  0  0  0  0  0  0  0  0  0
  -29.9769  -14.1447   19.8719 N   0  0  0  0  0  0  0  0  0  0  0  0
  -24.7980  -15.3387   20.1438 N   0  0  0  0  0  0  0  0  0  0  0  0
  -22.1114  -12.0926   21.7690 N   0  0  0  0  0  0  0  0  0  0  0  0
  -29.9331  -21.2395   20.9081 N   0  0  0  0  0  0  0  0  0  0  0  0
  -25.3106  -30.8006   22.2954 N   0  0  0  0  0  0  0  0  0  0  0  0
  -22.2396  -27.7744   17.8814 N   0  0  0  0  0  0  0  0  0  0  0  0
  -30.9523  -15.0298   21.8727 N   0  0  0  0  0  0  0  0  0  0  0  0
  -23.0810  -26.4095   14.6415 N   0  3  0  0  0  0  0  0  0  0  0  0
  -22.1931  -14.2904   21.1196 O   0  0  0  0  0  0  0  0  0  0  0  0
  -26.0514  -28.6023   22.4992 O   0  0  0  0  0  0  0  0  0  0  0  0
  -23.2290  -30.0301   19.3448 O   0  0  0  0  0  0  0  0  0  0  0  0
  -23.1767  -25.7166   17.3668 O   0  0  0  0  0  0  0  0  0  0  0  0
  -32.2431  -13.9907   20.2706 O   0  0  0  0  0  0  0  0  0  0  0  0
  -23.5831   -6.8263   22.8347 O   0  0  0  0  0  0  0  0  0  0  0  0
  -28.9181  -23.8561   20.5173 O   0  0  0  0  0  0  0  0  0  1  0  0
  -18.8305   -4.7059   21.0123 F   0  0  0  0  0  0  0  0  0  0  0  0
  -30.1549  -17.7679   24.1741 F   0  0  0  0  0  0  0  0  0  0  0  0
  -23.5405   -4.4566   21.4117 F   0  0  0  0  0  0  0  0  0  0  0  0
  1  2  1  0  0  0  0
  1  5  2  0  0  0  0
  2  6  2  0  0  0  0
  3 10  2  0  0  0  0
  3 18  1  0  0  0  0
  4 11  1  0  0  0  0
  4 18  2  0  0  0  0
  5 20  1  0  0  0  0
  6 22  1  0  0  0  0
  7 12  2  0  0  0  0
  7 21  1  0  0  0  0
  8  9  2  0  0  0  0
  8 24  1  0  0  0  0
  9 25  1  0  0  0  0
 10 26  1  0  0  0  0
 11 26  2  0  0  0  0
 12 27  1  0  0  0  0
 13 14  2  0  0  0  0
 13 28  1  0  0  0  0
 14 29  1  0  0  0  0
 15 23  1  0  0  0  0
 15 27  2  0  0  0  0
 16 25  2  0  0  0  0
 16 30  1  0  0  0  0
 17 29  2  0  0  0  0
 17 31  1  0  0  0  0
 18 32  1  0  0  0  0
 19 32  1  0  0  0  0
 19 33  2  0  0  0  0
 19 34  1  0  0  0  0
 20 22  2  0  0  0  0
 20 39  1  0  0  0  0
 21 23  2  0  0  0  0
 21 40  1  0  0  0  0
 22 48  1  0  0  0  0
 23 41  1  0  0  0  0
 24 30  2  0  0  0  0
 24 57  1  0  0  0  0
 25 69  1  0  0  0  0
 26 79  1  0  0  0  0
 27 80  1  0  0  0  0
 28 31  2  0  0  0  0
 28 79  1  0  0  0  0
 29 81  1  0  0  0  0
 30 82  1  0  0  0  0
 31 83  1  0  0  0  0
 32 63  2  0  0  0  0
 33 64  1  0  0  0  0
 33 67  1  0  0  0  0
 34 68  1  0  0  0  0
 34 74  2  0  0  0  0
 35 49  1  0  0  0  0
 35 70  1  0  0  0  0
 35 75  2  0  0  0  0
 36 60  1  0  0  0  0
 36 65  1  0  0  0  0
 36 76  2  0  0  0  0
 37 61  1  0  0  0  0
 37 71  1  0  0  0  0
 37 77  2  0  0  0  0
 38 66  1  0  0  0  0
 38 72  1  0  0  0  0
 38 78  2  0  0  0  0
 39 42  1  0  0  0  0
 40 49  1  0  0  0  0
 41 65  1  0  0  0  0
 42 44  1  0  0  0  0
 43 45  1  0  0  0  0
 43 46  1  0  0  0  0
 44 48  1  0  0  0  0
 45 50  1  0  0  0  0
 46 66  1  0  0  0  0
 47 50  1  0  0  0  0
 47 66  1  0  0  0  0
 48 70  1  0  0  0  0
 49 65  1  0  0  0  0
 50 64  1  0  0  0  0
 51 61  1  0  0  0  0
 52 62  1  0  0  0  0
 53 62  1  0  0  0  0
 54 62  1  0  0  0  0
 55 72  1  0  0  0  0
 56 73  1  0  0  0  0
 57 72  1  0  0  0  0
 58 59  1  0  0  0  0
 58 69  1  0  0  0  0
 59 80  1  0  0  0  0
 60 62  1  0  0  0  0
 60 71  1  0  0  0  0
 61 73  1  0  0  0  0
 63 64  1  0  0  0  0
M  CHG  1  73   1
M  ISO  4  38 100  59 101  72 100  80 101
M  END
> <Batch ID>
0022

> <Smiles>
CNC(C)C(=O)NC(C(=O)N1Cc2cc([101O:1][101CH2:1]CNc3ccc(C[100N:0](C)[100C:0](=O)N4CCCC(n5nc(-c6ccc(Oc7ccc(F)cc7F)cc6)c(C(N)=O)c5N)C4)c(F)c3)ccc2CC1C(=O)NC1CCCc2ccccc21)C(C)(C)C

> <Shape>
0.344

> <Color>
0.123

> <Negative vol penalty>
0.000

$$$$

  -OEChem-04042321143D

 87 95  0     1  0  0  0  0  0999 V2000
  -30.0029  -35.8238   24.4313 C   0  0  0  0  0  0  0  0  0  0  0  0
  -30.1748  -34.9084   23.3979 C   0  0  0  0  0  0  0  0  0  0  0  0
  -22.1438  -10.7229   21.3130 C   0  0  0  0  0  0  0  0  0  0  0  0
  -24.0556   -9.6617   20.2853 C   0  0  0  0  0  0  0  0  0  0  0  0
  -29.1998  -35.4979   25.5234 C   0  0  0  0  0  0  0  0  0  0  0  0
  -29.5443  -33.6660   23.4565 C   0  0  0  0  0  0  0  0  0  0  0  0
  -26.5937  -28.6976   19.2227 C   0  0  0  0  0  0  0  0  0  0  0  0
  -21.6444   -9.4720   21.6756 C   0  0  0  0  0  0  0  0  0  0  0  0
  -23.5562   -8.4108   20.6479 C   0  0  0  0  0  0  0  0  0  0  0  0
  -26.6574  -27.3296   18.9613 C   0  0  0  0  0  0  0  0  0  0  0  0
  -22.2184   -7.1610   24.0762 C   0  0  0  0  0  0  0  0  0  0  0  0
  -21.7300   -7.0092   25.3739 C   0  0  0  0  0  0  0  0  0  0  0  0
  -25.2296  -26.9066   20.8591 C   0  0  0  0  0  0  0  0  0  0  0  0
  -23.6416  -21.1579   18.0707 C   0  0  0  0  0  0  0  0  0  0  0  0
  -21.2190  -21.5072   19.4093 C   0  0  0  0  0  0  0  0  0  0  0  0
  -19.5592   -6.4252   24.4887 C   0  0  0  0  0  0  0  0  0  0  0  0
  -23.3494  -10.8178   20.6178 C   0  0  0  0  0  0  0  0  0  0  0  0
  -24.7262  -12.9321   20.9939 C   0  0  0  0  0  0  0  0  0  0  0  0
  -28.5514  -34.2546   25.5908 C   0  0  0  0  0  0  0  0  0  0  0  0
  -25.8551  -29.1804   20.3126 C   0  0  0  0  0  0  0  0  0  0  0  0
  -28.7327  -33.3226   24.5512 C   0  0  0  0  0  0  0  0  0  0  0  0
  -25.1561  -28.2814   21.1307 C   0  0  0  0  0  0  0  0  0  0  0  0
  -23.2533  -22.4305   18.4893 C   0  0  0  0  0  0  0  0  0  0  0  0
  -22.8186  -20.0599   18.3213 C   0  0  0  0  0  0  0  0  0  0  0  0
  -22.0421  -22.6051   19.1587 C   0  0  0  0  0  0  0  0  0  0  0  0
  -22.3506   -8.3160   21.3431 C   0  0  0  0  0  0  0  0  0  0  0  0
  -25.9777  -26.4337   19.7812 C   0  0  0  0  0  0  0  0  0  0  0  0
  -21.3771   -6.9449   22.9847 C   0  0  0  0  0  0  0  0  0  0  0  0
  -20.4005   -6.6413   25.5801 C   0  0  0  0  0  0  0  0  0  0  0  0
  -20.0475   -6.5770   23.1909 C   0  0  0  0  0  0  0  0  0  0  0  0
  -21.6073  -20.2345   18.9906 C   0  0  0  0  0  0  0  0  0  0  0  0
  -23.8655  -12.1096   20.2426 C   0  0  0  0  0  0  0  0  0  0  0  0
  -24.9180  -14.0399   20.2048 C   0  0  0  0  0  0  0  0  0  0  0  0
  -25.3011  -12.7143   22.2891 C   0  0  0  0  0  0  0  0  0  0  0  0
  -26.5568  -30.7967   22.9581 C   0  0  0  0  0  0  0  0  0  0  0  0
  -23.3342  -30.8277   23.3274 C   0  0  0  0  0  0  0  0  0  0  0  0
  -20.3233  -29.3836   22.6230 C   0  0  0  0  0  0  0  0  0  0  0  0
  -22.4829  -18.0049   16.9576 C   0  0  0  0  0  0  0  0  0  0  0  0
  -27.7311  -33.9291   26.8139 C   0  0  0  0  0  0  0  0  0  0  0  0
  -25.7747  -30.6609   20.5653 C   0  0  0  0  0  0  0  0  0  0  0  0
  -24.3326  -28.7502   22.3014 C   0  0  0  0  0  0  0  0  0  0  0  0
  -26.7973  -32.7369   26.6214 C   0  0  0  0  0  0  0  0  0  0  0  0
  -23.7238  -14.9111   15.3768 C   0  0  0  0  0  0  0  0  0  0  0  0
  -27.5384  -31.5798   25.9590 C   0  0  0  0  0  0  0  0  0  0  0  0
  -23.8758  -13.9601   16.5628 C   0  0  0  0  0  0  0  0  0  0  0  0
  -22.6136  -15.9320   15.6076 C   0  0  0  0  0  0  0  0  0  0  0  0
  -22.9169  -15.7569   18.0586 C   0  0  0  0  0  0  0  0  0  0  0  0
  -28.0455  -31.9744   24.5667 C   0  0  1  0  0  0  0  0  0  0  0  0
  -25.4117  -31.0022   22.0072 C   0  0  1  0  0  0  0  0  0  0  0  0
  -24.0566  -14.7434   17.8746 C   0  0  1  0  0  0  0  0  0  0  0  0
  -20.6203  -25.2484   17.8605 C   0  0  0  0  0  0  0  0  0  0  0  0
  -22.0392  -24.3221   21.9417 C   0  0  0  0  0  0  0  0  0  0  0  0
  -17.8699  -29.6118   23.0984 C   0  0  0  0  0  0  0  0  0  0  0  0
  -23.7676  -29.6593   26.1126 C   0  0  0  0  0  0  0  0  0  0  0  0
  -21.3435  -29.0345   26.1516 C   0  0  0  0  0  0  0  0  0  0  0  0
  -22.0090  -31.4330   25.9874 C   0  0  0  0  0  0  0  0  0  0  0  0
  -24.6155  -18.3248   18.1903 C   0  0  0  0  0  0  0  0  0  0  0  0
  -19.6880  -29.7862   19.7607 C   0  0  0  0  0  0  0  0  0  0  0  0
  -20.3942  -24.4604   19.1057 C   0  0  0  0  0  0  0  0  0  0  0  0
  -22.4357  -24.6306   20.5381 C   0  0  0  0  0  0  0  0  0  0  0  0
  -25.4941  -23.3782   17.9360 C   0  0  0  0  0  0  0  0  0  0  0  0
  -26.2050  -24.7010   18.1681 C   0  0  0  0  0  0  0  0  0  1  0  0
  -22.3249  -29.9193   23.9872 C   0  0  1  0  0  0  0  0  0  0  0  0
  -19.0063  -29.9768   22.1560 C   0  0  2  0  0  0  0  0  0  0  0  0
  -22.3782  -30.0022   25.5389 C   0  0  0  0  0  0  0  0  0  0  0  0
  -23.5333  -12.6488   19.0666 N   0  0  0  0  0  0  0  0  0  0  0  0
  -24.1886  -13.8221   19.0731 N   0  0  0  0  0  0  0  0  0  0  0  0
  -24.2902  -30.2068   22.5111 N   0  0  0  0  0  0  0  0  0  0  0  0
  -22.7843  -16.6302   16.8823 N   0  0  0  0  0  0  0  0  0  0  0  0
  -25.6375  -15.1692   20.3756 N   0  0  0  0  0  0  0  0  0  0  0  0
  -25.0001  -11.5222   22.9618 N   0  0  0  0  0  0  0  0  0  0  0  0
  -24.0855  -23.5071   18.2310 N   0  0  0  0  0  0  0  0  0  0  0  0
  -26.9620  -31.9471   23.6076 N   0  0  0  0  0  0  0  0  0  0  0  0
  -21.0285  -30.2654   23.4145 N   0  0  0  0  0  0  0  0  0  0  0  0
  -23.2504  -18.7570   17.8732 N   0  0  0  0  0  0  0  0  0  0  0  0
  -21.6311  -23.8856   19.5921 N   0  0  0  0  0  0  0  0  0  0  0  0
  -18.6667  -29.4762   20.7941 N   0  3  0  0  0  0  0  0  0  0  0  0
  -26.0461  -13.5593   22.8409 O   0  0  0  0  0  0  0  0  0  0  0  0
  -27.0361  -29.6771   23.0937 O   0  0  0  0  0  0  0  0  0  0  0  0
  -23.2720  -32.0440   23.5232 O   0  0  0  0  0  0  0  0  0  0  0  0
  -20.6881  -28.2499   22.3194 O   0  0  0  0  0  0  0  0  0  0  0  0
  -21.6176  -18.5233   16.2419 O   0  0  0  0  0  0  0  0  0  0  0  0
  -21.8636   -7.0952   21.6969 O   0  0  0  0  0  0  0  0  0  0  0  0
  -26.0387  -25.0979   19.5287 O   0  0  0  0  0  0  0  0  0  1  0  0
  -19.9321   -6.4941   26.8264 F   0  0  0  0  0  0  0  0  0  0  0  0
  -19.2349   -6.3669   22.1463 F   0  0  0  0  0  0  0  0  0  0  0  0
  -20.5594  -18.9018   19.3235 Cl  0  0  0  0  0  0  0  0  0  0  0  0
  1  2  1  0  0  0  0
  1  5  2  0  0  0  0
  2  6  2  0  0  0  0
  3  8  2  0  0  0  0
  3 17  1  0  0  0  0
  4  9  1  0  0  0  0
  4 17  2  0  0  0  0
  5 19  1  0  0  0  0
  6 21  1  0  0  0  0
  7 10  2  0  0  0  0
  7 20  1  0  0  0  0
  8 26  1  0  0  0  0
  9 26  2  0  0  0  0
 10 27  1  0  0  0  0
 11 12  2  0  0  0  0
 11 28  1  0  0  0  0
 12 29  1  0  0  0  0
 13 22  1  0  0  0  0
 13 27  2  0  0  0  0
 14 23  1  0  0  0  0
 14 24  2  0  0  0  0
 15 25  1  0  0  0  0
 15 31  2  0  0  0  0
 16 29  2  0  0  0  0
 16 30  1  0  0  0  0
 17 32  1  0  0  0  0
 18 32  1  0  0  0  0
 18 33  2  0  0  0  0
 18 34  1  0  0  0  0
 19 21  2  0  0  0  0
 19 39  1  0  0  0  0
 20 22  2  0  0  0  0
 20 40  1  0  0  0  0
 21 48  1  0  0  0  0
 22 41  1  0  0  0  0
 23 25  2  0  0  0  0
 23 72  1  0  0  0  0
 24 31  1  0  0  0  0
 24 75  1  0  0  0  0
 25 76  1  0  0  0  0
 26 83  1  0  0  0  0
 27 84  1  0  0  0  0
 28 30  2  0  0  0  0
 28 83  1  0  0  0  0
 29 85  1  0  0  0  0
 30 86  1  0  0  0  0
 31 87  1  0  0  0  0
 32 66  2  0  0  0  0
 33 67  1  0  0  0  0
 33 70  1  0  0  0  0
 34 71  1  0  0  0  0
 34 78  2  0  0  0  0
 35 49  1  0  0  0  0
 35 73  1  0  0  0  0
 35 79  2  0  0  0  0
 36 63  1  0  0  0  0
 36 68  1  0  0  0  0
 36 80  2  0  0  0  0
 37 64  1  0  0  0  0
 37 74  1  0  0  0  0
 37 81  2  0  0  0  0
 38 69  1  0  0  0  0
 38 75  1  0  0  0  0
 38 82  2  0  0  0  0
 39 42  1  0  0  0  0
 40 49  1  0  0  0  0
 41 68  1  0  0  0  0
 42 44  1  0  0  0  0
 43 45  1  0  0  0  0
 43 46  1  0  0  0  0
 44 48  1  0  0  0  0
 45 50  1  0  0  0  0
 46 69  1  0  0  0  0
 47 50  1  0  0  0  0
 47 69  1  0  0  0  0
 48 73  1  0  0  0  0
 49 68  1  0  0  0  0
 50 67  1  0  0  0  0
 51 59  1  0  0  0  0
 52 60  1  0  0  0  0
 53 64  1  0  0  0  0
 54 65  1  0  0  0  0
 55 65  1  0  0  0  0
 56 65  1  0  0  0  0
 57 75  1  0  0  0  0
 58 77  1  0  0  0  0
 59 76  1  0  0  0  0
 60 76  1  0  0  0  0
 61 62  1  0  0  0  0
 61 72  1  0  0  0  0
 62 84  1  0  0  0  0
 63 65  1  0  0  0  0
 63 74  1  0  0  0  0
 64 77  1  0  0  0  0
 66 67  1  0  0  0  0
M  CHG  1  77   1
M  ISO  4  38 100  62 101  75 100  84 101
M  END
> <Batch ID>
0022

> <Smiles>
CCN(CC)c1cc(Cl)c([100N:0](C)[100C:0](=O)N2CCCC(n3nc(-c4ccc(Oc5ccc(F)cc5F)cc4)c(C(N)=O)c3N)C2)cc1NC[101CH2:1][101O:1]c1ccc2c(c1)CN(C(=O)C(NC(=O)C(C)NC)C(C)(C)C)C(C(=O)NC1CCCc3ccccc31)C2

> <Shape>
0.205

> <Color>
0.127

> <Negative vol penalty>
0.000

$$$$

  -OEChem-04042321143D

 85 93  0     1  0  0  0  0  0999 V2000
  -19.8540  -29.5344   25.8329 C   0  0  0  0  0  0  0  0  0  0  0  0
  -21.1658  -29.0714   25.8137 C   0  0  0  0  0  0  0  0  0  0  0  0
  -23.0729   -9.9644   19.8760 C   0  0  0  0  0  0  0  0  0  0  0  0
  -24.1678   -9.7332   22.0172 C   0  0  0  0  0  0  0  0  0  0  0  0
  -19.0020  -29.2558   24.7650 C   0  0  0  0  0  0  0  0  0  0  0  0
  -21.6260  -28.3286   24.7270 C   0  0  0  0  0  0  0  0  0  0  0  0
  -27.5608  -27.1233   20.9006 C   0  0  0  0  0  0  0  0  0  0  0  0
  -22.4328   -8.7406   20.0710 C   0  0  0  0  0  0  0  0  0  0  0  0
  -23.5276   -8.5093   22.2123 C   0  0  0  0  0  0  0  0  0  0  0  0
  -28.3514  -26.0704   20.4421 C   0  0  0  0  0  0  0  0  0  0  0  0
  -21.9035   -5.4953   23.4354 C   0  0  0  0  0  0  0  0  0  0  0  0
  -21.3350   -5.2520   24.6857 C   0  0  0  0  0  0  0  0  0  0  0  0
  -26.8134  -25.7179   18.6175 C   0  0  0  0  0  0  0  0  0  0  0  0
  -28.7920  -20.4085   20.6605 C   0  0  0  0  0  0  0  0  0  0  0  0
  -29.4974  -19.6027   18.4949 C   0  0  0  0  0  0  0  0  0  0  0  0
  -19.9007   -7.1762   24.4080 C   0  0  0  0  0  0  0  0  0  0  0  0
  -23.9405  -10.4607   20.8490 C   0  0  0  0  0  0  0  0  0  0  0  0
  -24.1356  -12.9982   21.0243 C   0  0  0  0  0  0  0  0  0  0  0  0
  -19.4548  -28.5175   23.6602 C   0  0  0  0  0  0  0  0  0  0  0  0
  -26.3828  -27.4749   20.2260 C   0  0  0  0  0  0  0  0  0  0  0  0
  -20.7788  -28.0388   23.6439 C   0  0  0  0  0  0  0  0  0  0  0  0
  -26.0109  -26.7773   19.0679 C   0  0  0  0  0  0  0  0  0  0  0  0
  -29.0256  -18.0354   20.2719 C   0  0  0  0  0  0  0  0  0  0  0  0
  -29.1844  -20.6623   19.3463 C   0  0  0  0  0  0  0  0  0  0  0  0
  -22.6601   -8.0131   21.2392 C   0  0  0  0  0  0  0  0  0  0  0  0
  -27.9763  -25.3657   19.3021 C   0  0  0  0  0  0  0  0  0  0  0  0
  -21.4706   -6.5791   22.6714 C   0  0  0  0  0  0  0  0  0  0  0  0
  -20.3336   -6.0924   25.1720 C   0  0  0  0  0  0  0  0  0  0  0  0
  -28.7127  -19.0950   21.1233 C   0  0  0  0  0  0  0  0  0  0  0  0
  -20.4692   -7.4196   23.1577 C   0  0  0  0  0  0  0  0  0  0  0  0
  -29.4180  -18.2892   18.9577 C   0  0  0  0  0  0  0  0  0  0  0  0
  -24.6024  -11.7246   20.6478 C   0  0  0  0  0  0  0  0  0  0  0  0
  -25.1224  -13.8608   20.6138 C   0  0  0  0  0  0  0  0  0  0  0  0
  -22.9187  -13.3684   21.6860 C   0  0  0  0  0  0  0  0  0  0  0  0
  -23.2971  -27.5413   20.9862 C   0  0  0  0  0  0  0  0  0  0  0  0
  -23.0072  -28.9222   18.0653 C   0  0  0  0  0  0  0  0  0  0  0  0
  -24.2912  -29.3797   14.9366 C   0  0  0  0  0  0  0  0  0  0  0  0
  -30.7156  -14.8727   20.5171 C   0  0  0  0  0  0  0  0  0  0  0  0
  -28.4335  -23.0524   19.3683 C   0  0  0  0  0  0  0  0  0  1  0  0
  -18.4832  -28.2012   22.5509 C   0  0  0  0  0  0  0  0  0  0  0  0
  -25.5550  -28.6303   20.7180 C   0  0  0  0  0  0  0  0  0  0  0  0
  -24.7663  -27.1284   18.2959 C   0  0  0  0  0  0  0  0  0  0  0  0
  -19.1584  -27.7272   21.2665 C   0  0  0  0  0  0  0  0  0  0  0  0
  -29.1488  -13.1189   17.6587 C   0  0  0  0  0  0  0  0  0  0  0  0
  -20.2179  -26.6747   21.5775 C   0  0  0  0  0  0  0  0  0  0  0  0
  -27.8194  -12.6472   18.2454 C   0  0  0  0  0  0  0  0  0  0  0  0
  -30.2290  -13.2427   18.7289 C   0  0  0  0  0  0  0  0  0  0  0  0
  -28.5126  -13.6330   20.4654 C   0  0  0  0  0  0  0  0  0  0  0  0
  -21.3223  -27.2510   22.4717 C   0  0  1  0  0  0  0  0  0  0  0  0
  -24.1052  -28.5700   20.2470 C   0  0  1  0  0  0  0  0  0  0  0  0
  -27.3900  -13.5425   19.4208 C   0  0  2  0  0  0  0  0  0  0  0  0
  -23.8103  -30.5298   12.7587 C   0  0  0  0  0  0  0  0  0  0  0  0
  -20.9241  -26.7931   17.4039 C   0  0  0  0  0  0  0  0  0  0  0  0
  -21.1861  -27.3873   14.9859 C   0  0  0  0  0  0  0  0  0  0  0  0
  -20.3547  -29.0935   16.6047 C   0  0  0  0  0  0  0  0  0  0  0  0
  -30.3067  -22.3271   17.8744 C   0  0  0  0  0  0  0  0  0  0  0  0
  -31.1769  -16.9438   21.7731 C   0  0  0  0  0  0  0  0  0  0  0  0
  -26.7582  -31.0048   15.1167 C   0  0  0  0  0  0  0  0  0  0  0  0
  -28.9289  -16.6415   20.8032 C   0  0  0  0  0  0  0  0  0  0  0  0
  -22.7897  -28.4155   16.6600 C   0  0  1  0  0  0  0  0  0  0  0  0
  -24.5033  -30.6341   14.1083 C   0  0  2  0  0  0  0  0  0  0  0  0
  -21.3362  -27.9142   16.4291 C   0  0  0  0  0  0  0  0  0  0  0  0
  -25.7932  -11.7695   20.0444 N   0  0  0  0  0  0  0  0  0  0  0  0
  -26.0828  -13.0818   20.0385 N   0  0  0  0  0  0  0  0  0  0  0  0
  -23.9867  -28.2618   18.8204 N   0  0  0  0  0  0  0  0  0  0  0  0
  -29.7789  -14.0631   19.8538 N   0  0  0  0  0  0  0  0  0  0  0  0
  -25.2536  -15.2021   20.6924 N   0  0  0  0  0  0  0  0  0  0  0  0
  -22.0150  -12.3566   22.0379 N   0  0  0  0  0  0  0  0  0  0  0  0
  -22.2307  -28.0645   21.6922 N   0  0  0  0  0  0  0  0  0  0  0  0
  -23.1979  -29.4959   15.7687 N   0  0  0  0  0  0  0  0  0  0  0  0
  -29.2649  -22.0255   18.8665 N   0  0  0  0  0  0  0  0  0  0  0  0
  -30.2419  -16.0651   21.0849 N   0  0  0  0  0  0  0  0  0  0  0  0
  -25.9575  -30.8602   13.8737 N   0  3  0  0  0  0  0  0  0  0  0  0
  -22.6334  -14.5627   21.9424 O   0  0  0  0  0  0  0  0  0  0  0  0
  -23.6165  -26.3601   20.9196 O   0  0  0  0  0  0  0  0  0  0  0  0
  -22.3378  -29.8737   18.4754 O   0  0  0  0  0  0  0  0  0  0  0  0
  -25.0202  -28.3939   14.8511 O   0  0  0  0  0  0  0  0  0  0  0  0
  -31.9091  -14.5530   20.5888 O   0  0  0  0  0  0  0  0  0  0  0  0
  -27.5349  -22.9139   20.1961 O   0  0  0  0  0  0  0  0  0  0  0  0
  -22.0355   -6.8189   21.4300 O   0  0  0  0  0  0  0  0  0  0  0  0
  -28.7459  -24.3372   18.8528 O   0  0  0  0  0  0  0  0  0  1  0  0
  -19.7867   -5.8577   26.3720 F   0  0  0  0  0  0  0  0  0  0  0  0
  -28.3354  -18.8624   22.3885 F   0  0  0  0  0  0  0  0  0  0  0  0
  -20.0484   -8.4617   22.4278 F   0  0  0  0  0  0  0  0  0  0  0  0
  -29.8125  -17.0035   17.8754 Cl  0  0  0  0  0  0  0  0  0  0  0  0
  1  2  1  0  0  0  0
  1  5  2  0  0  0  0
  2  6  2  0  0  0  0
  3  8  2  0  0  0  0
  3 17  1  0  0  0  0
  4  9  1  0  0  0  0
  4 17  2  0  0  0  0
  5 19  1  0  0  0  0
  6 21  1  0  0  0  0
  7 10  2  0  0  0  0
  7 20  1  0  0  0  0
  8 25  1  0  0  0  0
  9 25  2  0  0  0  0
 10 26  1  0  0  0  0
 11 12  2  0  0  0  0
 11 27  1  0  0  0  0
 12 28  1  0  0  0  0
 13 22  1  0  0  0  0
 13 26  2  0  0  0  0
 14 24  1  0  0  0  0
 14 29  2  0  0  0  0
 15 24  2  0  0  0  0
 15 31  1  0  0  0  0
 16 28  2  0  0  0  0
 16 30  1  0  0  0  0
 17 32  1  0  0  0  0
 18 32  1  0  0  0  0
 18 33  2  0  0  0  0
 18 34  1  0  0  0  0
 19 21  2  0  0  0  0
 19 40  1  0  0  0  0
 20 22  2  0  0  0  0
 20 41  1  0  0  0  0
 21 49  1  0  0  0  0
 22 42  1  0  0  0  0
 23 29  1  0  0  0  0
 23 31  2  0  0  0  0
 23 59  1  0  0  0  0
 24 71  1  0  0  0  0
 25 80  1  0  0  0  0
 26 81  1  0  0  0  0
 27 30  2  0  0  0  0
 27 80  1  0  0  0  0
 28 82  1  0  0  0  0
 29 83  1  0  0  0  0
 30 84  1  0  0  0  0
 31 85  1  0  0  0  0
 32 63  2  0  0  0  0
 33 64  1  0  0  0  0
 33 67  1  0  0  0  0
 34 68  1  0  0  0  0
 34 74  2  0  0  0  0
 35 50  1  0  0  0  0
 35 69  1  0  0  0  0
 35 75  2  0  0  0  0
 36 60  1  0  0  0  0
 36 65  1  0  0  0  0
 36 76  2  0  0  0  0
 37 61  1  0  0  0  0
 37 70  1  0  0  0  0
 37 77  2  0  0  0  0
 38 66  1  0  0  0  0
 38 72  1  0  0  0  0
 38 78  2  0  0  0  0
 39 71  1  0  0  0  0
 39 79  2  0  0  0  0
 39 81  1  0  0  0  0
 40 43  1  0  0  0  0
 41 50  1  0  0  0  0
 42 65  1  0  0  0  0
 43 45  1  0  0  0  0
 44 46  1  0  0  0  0
 44 47  1  0  0  0  0
 45 49  1  0  0  0  0
 46 51  1  0  0  0  0
 47 66  1  0  0  0  0
 48 51  1  0  0  0  0
 48 66  1  0  0  0  0
 49 69  1  0  0  0  0
 50 65  1  0  0  0  0
 51 64  1  0  0  0  0
 52 61  1  0  0  0  0
 53 62  1  0  0  0  0
 54 62  1  0  0  0  0
 55 62  1  0  0  0  0
 56 71  1  0  0  0  0
 57 72  1  0  0  0  0
 58 73  1  0  0  0  0
 59 72  1  0  0  0  0
 60 62  1  0  0  0  0
 60 70  1  0  0  0  0
 61 73  1  0  0  0  0
 63 64  1  0  0  0  0
M  CHG  1  73   1
M  ISO  4  38 100  39 101  72 100  81 101
M  END
> <Batch ID>
0022

> <Smiles>
CNC(C)C(=O)NC(C(=O)N1Cc2cc([101O:1][101C:1](=O)N(C)c3cc(F)c(C[100N:0](C)[100C:0](=O)N4CCCC(n5nc(-c6ccc(Oc7ccc(F)cc7F)cc6)c(C(N)=O)c5N)C4)c(Cl)c3)ccc2CC1C(=O)NC1CCCc2ccccc21)C(C)(C)C

> <Shape>
0.354

> <Color>
0.198

> <Negative vol penalty>
0.000

$$$$

  -OEChem-04042321143D

 82 90  0     1  0  0  0  0  0999 V2000
  -31.1929  -34.7210   22.2773 C   0  0  0  0  0  0  0  0  0  0  0  0
  -30.8233  -33.6201   21.5112 C   0  0  0  0  0  0  0  0  0  0  0  0
  -26.7543  -12.5689   21.6962 C   0  0  0  0  0  0  0  0  0  0  0  0
  -26.2729  -13.8888   19.7307 C   0  0  0  0  0  0  0  0  0  0  0  0
  -30.6338  -34.9091   23.5405 C   0  0  0  0  0  0  0  0  0  0  0  0
  -29.8951  -32.7060   22.0085 C   0  0  0  0  0  0  0  0  0  0  0  0
  -26.4153  -31.4039   18.5674 C   0  0  0  0  0  0  0  0  0  0  0  0
  -29.6816  -21.1788   18.5509 C   0  0  0  0  0  0  0  0  0  0  0  0
  -29.2501  -22.3593   17.9463 C   0  0  0  0  0  0  0  0  0  0  0  0
  -25.4290  -12.1353   21.7297 C   0  0  0  0  0  0  0  0  0  0  0  0
  -24.9475  -13.4551   19.7642 C   0  0  0  0  0  0  0  0  0  0  0  0
  -26.7954  -30.4787   17.5962 C   0  0  0  0  0  0  0  0  0  0  0  0
  -23.5107   -9.8618   20.1223 C   0  0  0  0  0  0  0  0  0  0  0  0
  -23.2783   -8.5036   20.3388 C   0  0  0  0  0  0  0  0  0  0  0  0
  -25.6871  -28.7312   18.8360 C   0  0  0  0  0  0  0  0  0  0  0  0
  -30.3176  -22.4212   20.5230 C   0  0  0  0  0  0  0  0  0  0  0  0
  -22.0274   -9.0359   22.3360 C   0  0  0  0  0  0  0  0  0  0  0  0
  -27.1762  -13.4457   20.6968 C   0  0  0  0  0  0  0  0  0  0  0  0
  -29.6221  -13.2865   19.9896 C   0  0  0  0  0  0  0  0  0  0  0  0
  -29.6910  -34.0020   24.0496 C   0  0  0  0  0  0  0  0  0  0  0  0
  -25.6764  -30.9971   19.6876 C   0  0  0  0  0  0  0  0  0  0  0  0
  -29.3238  -32.8814   23.2803 C   0  0  0  0  0  0  0  0  0  0  0  0
  -25.2968  -29.6536   19.8187 C   0  0  0  0  0  0  0  0  0  0  0  0
  -30.2154  -21.2097   19.8393 C   0  0  0  0  0  0  0  0  0  0  0  0
  -29.3524  -23.5709   18.6299 C   0  0  0  0  0  0  0  0  0  0  0  0
  -24.5256  -12.5783   20.7637 C   0  0  0  0  0  0  0  0  0  0  0  0
  -26.4337  -29.1416   17.7318 C   0  0  0  0  0  0  0  0  0  0  0  0
  -23.0015  -10.8071   21.0127 C   0  0  0  0  0  0  0  0  0  0  0  0
  -22.5367   -8.0906   21.4456 C   0  0  0  0  0  0  0  0  0  0  0  0
  -29.8861  -23.6018   19.9183 C   0  0  0  0  0  0  0  0  0  0  0  0
  -22.2599  -10.3942   22.1195 C   0  0  0  0  0  0  0  0  0  0  0  0
  -28.5450  -13.8945   20.6620 C   0  0  0  0  0  0  0  0  0  0  0  0
  -30.6989  -14.0930   20.2664 C   0  0  0  0  0  0  0  0  0  0  0  0
  -29.6471  -12.0990   19.1866 C   0  0  0  0  0  0  0  0  0  0  0  0
  -26.1780  -30.9972   22.8265 C   0  0  0  0  0  0  0  0  0  0  0  0
  -23.0936  -29.9976   22.9261 C   0  0  0  0  0  0  0  0  0  0  0  0
  -20.4888  -28.4742   21.3321 C   0  0  0  0  0  0  0  0  0  0  0  0
  -31.2075  -19.8654   21.7247 C   0  0  0  0  0  0  0  0  0  0  0  0
  -29.1494  -34.2217   25.4399 C   0  0  0  0  0  0  0  0  0  0  0  0
  -25.2514  -32.0123   20.7129 C   0  0  0  0  0  0  0  0  0  0  0  0
  -24.4863  -29.1695   20.9923 C   0  0  0  0  0  0  0  0  0  0  0  0
  -27.8924  -33.4091   25.7394 C   0  0  0  0  0  0  0  0  0  0  0  0
  -32.3775  -17.0814   23.6110 C   0  0  0  0  0  0  0  0  0  0  0  0
  -28.0717  -31.9628   25.2888 C   0  0  0  0  0  0  0  0  0  0  0  0
  -31.6300  -15.8921   23.0036 C   0  0  0  0  0  0  0  0  0  0  0  0
  -31.5052  -18.3346   23.6595 C   0  0  0  0  0  0  0  0  0  0  0  0
  -30.1436  -17.5241   21.7731 C   0  0  0  0  0  0  0  0  0  0  0  0
  -28.3016  -31.8812   23.7749 C   0  0  1  0  0  0  0  0  0  0  0  0
  -24.9403  -31.3942   22.0725 C   0  0  1  0  0  0  0  0  0  0  0  0
  -31.0028  -16.2558   21.6435 C   0  0  2  0  0  0  0  0  0  0  0  0
  -18.1063  -27.7683   21.6825 C   0  0  0  0  0  0  0  0  0  0  0  0
  -24.0428  -27.6419   24.6172 C   0  0  0  0  0  0  0  0  0  0  0  0
  -21.8637  -26.5075   24.1348 C   0  0  0  0  0  0  0  0  0  0  0  0
  -21.8934  -28.6714   25.3754 C   0  0  0  0  0  0  0  0  0  0  0  0
  -19.5291  -30.2134   19.1382 C   0  0  0  0  0  0  0  0  0  0  0  0
  -28.0484  -26.2406   16.3084 C   0  0  0  0  0  0  0  0  0  0  0  0
  -28.3609  -24.8011   16.6988 C   0  0  0  0  0  0  0  0  0  0  0  0
  -27.0150  -26.8932   17.2191 C   0  0  0  0  0  0  0  0  0  1  0  0
  -22.4034  -28.6553   22.8992 C   0  0  1  0  0  0  0  0  0  0  0  0
  -19.0303  -28.8679   21.1826 C   0  0  2  0  0  0  0  0  0  0  0  0
  -22.5678  -27.8775   24.2354 C   0  0  0  0  0  0  0  0  0  0  0  0
  -28.9047  -15.0017   21.3168 N   0  0  0  0  0  0  0  0  0  0  0  0
  -30.2200  -15.0958   21.0572 N   0  0  0  0  0  0  0  0  0  0  0  0
  -24.1003  -30.1991   21.9713 N   0  0  0  0  0  0  0  0  0  0  0  0
  -30.9487  -18.6199   22.3352 N   0  0  0  0  0  0  0  0  0  0  0  0
  -31.9991  -14.0352   19.9082 N   0  0  0  0  0  0  0  0  0  0  0  0
  -28.4517  -11.3903   19.0045 N   0  0  0  0  0  0  0  0  0  0  0  0
  -30.6540  -20.0102   20.4530 N   0  0  0  0  0  0  0  0  0  0  0  0
  -28.9235  -24.7427   18.0263 N   0  0  0  0  0  0  0  0  0  0  0  0
  -27.0510  -32.0415   23.0644 N   0  0  0  0  0  0  0  0  0  0  0  0
  -21.0173  -28.9164   22.5264 N   0  0  0  0  0  0  0  0  0  0  0  0
  -18.7103  -29.1365   19.7521 N   0  3  0  0  0  0  0  0  0  0  0  0
  -30.7016  -11.6697   18.6601 O   0  0  0  0  0  0  0  0  0  0  0  0
  -26.3289  -29.8301   23.1683 O   0  0  0  0  0  0  0  0  0  0  0  0
  -22.7472  -30.8391   23.7590 O   0  0  0  0  0  0  0  0  0  0  0  0
  -21.0972  -27.8349   20.4767 O   0  0  0  0  0  0  0  0  0  0  0  0
  -31.8940  -20.7287   22.2773 O   0  0  0  0  0  0  0  0  0  0  0  0
  -23.2324  -12.1552   20.7959 O   0  0  0  0  0  0  0  0  0  0  0  0
  -26.8039  -28.2363   16.7856 O   0  0  0  0  0  0  0  0  0  1  0  0
  -22.3123   -6.7864   21.6525 F   0  0  0  0  0  0  0  0  0  0  0  0
  -29.9905  -24.7611   20.5836 F   0  0  0  0  0  0  0  0  0  0  0  0
  -21.7671  -11.2977   22.9778 F   0  0  0  0  0  0  0  0  0  0  0  0
  1  2  1  0  0  0  0
  1  5  2  0  0  0  0
  2  6  2  0  0  0  0
  3 10  2  0  0  0  0
  3 18  1  0  0  0  0
  4 11  1  0  0  0  0
  4 18  2  0  0  0  0
  5 20  1  0  0  0  0
  6 22  1  0  0  0  0
  7 12  2  0  0  0  0
  7 21  1  0  0  0  0
  8  9  2  0  0  0  0
  8 24  1  0  0  0  0
  9 25  1  0  0  0  0
 10 26  1  0  0  0  0
 11 26  2  0  0  0  0
 12 27  1  0  0  0  0
 13 14  2  0  0  0  0
 13 28  1  0  0  0  0
 14 29  1  0  0  0  0
 15 23  1  0  0  0  0
 15 27  2  0  0  0  0
 16 24  2  0  0  0  0
 16 30  1  0  0  0  0
 17 29  2  0  0  0  0
 17 31  1  0  0  0  0
 18 32  1  0  0  0  0
 19 32  1  0  0  0  0
 19 33  2  0  0  0  0
 19 34  1  0  0  0  0
 20 22  2  0  0  0  0
 20 39  1  0  0  0  0
 21 23  2  0  0  0  0
 21 40  1  0  0  0  0
 22 48  1  0  0  0  0
 23 41  1  0  0  0  0
 24 68  1  0  0  0  0
 25 30  2  0  0  0  0
 25 69  1  0  0  0  0
 26 78  1  0  0  0  0
 27 79  1  0  0  0  0
 28 31  2  0  0  0  0
 28 78  1  0  0  0  0
 29 80  1  0  0  0  0
 30 81  1  0  0  0  0
 31 82  1  0  0  0  0
 32 62  2  0  0  0  0
 33 63  1  0  0  0  0
 33 66  1  0  0  0  0
 34 67  1  0  0  0  0
 34 73  2  0  0  0  0
 35 49  1  0  0  0  0
 35 70  1  0  0  0  0
 35 74  2  0  0  0  0
 36 59  1  0  0  0  0
 36 64  1  0  0  0  0
 36 75  2  0  0  0  0
 37 60  1  0  0  0  0
 37 71  1  0  0  0  0
 37 76  2  0  0  0  0
 38 65  1  0  0  0  0
 38 68  1  0  0  0  0
 38 77  2  0  0  0  0
 39 42  1  0  0  0  0
 40 49  1  0  0  0  0
 41 64  1  0  0  0  0
 42 44  1  0  0  0  0
 43 45  1  0  0  0  0
 43 46  1  0  0  0  0
 44 48  1  0  0  0  0
 45 50  1  0  0  0  0
 46 65  1  0  0  0  0
 47 50  1  0  0  0  0
 47 65  1  0  0  0  0
 48 70  1  0  0  0  0
 49 64  1  0  0  0  0
 50 63  1  0  0  0  0
 51 60  1  0  0  0  0
 52 61  1  0  0  0  0
 53 61  1  0  0  0  0
 54 61  1  0  0  0  0
 55 72  1  0  0  0  0
 56 57  1  0  0  0  0
 56 58  1  0  0  0  0
 57 69  1  0  0  0  0
 58 79  1  0  0  0  0
 59 61  1  0  0  0  0
 59 71  1  0  0  0  0
 60 72  1  0  0  0  0
 62 63  1  0  0  0  0
M  CHG  1  72   1
M  ISO  4  38 100  58 101  68 100  79 101
M  END
> <Batch ID>
0022

> <Smiles>
CNC(C)C(=O)NC(C(=O)N1Cc2cc([101O:1][101CH2:1]CCNc3ccc([100NH:0][100C:0](=O)N4CCCC(n5nc(-c6ccc(Oc7ccc(F)cc7F)cc6)c(C(N)=O)c5N)C4)cc3F)ccc2CC1C(=O)NC1CCCc2ccccc21)C(C)(C)C

> <Shape>
0.300

> <Color>
0.071

> <Negative vol penalty>
0.000

$$$$

  -OEChem-04042321143D

 84 92  0     1  0  0  0  0  0999 V2000
  -28.0525  -33.9107   22.1559 C   0  0  0  0  0  0  0  0  0  0  0  0
  -28.1064  -32.5516   21.8637 C   0  0  0  0  0  0  0  0  0  0  0  0
  -31.6108  -24.2061   22.7152 C   0  0  0  0  0  0  0  0  0  0  0  0
  -32.5663  -23.4313   23.3725 C   0  0  0  0  0  0  0  0  0  0  0  0
  -25.4450  -14.0447   20.6517 C   0  0  0  0  0  0  0  0  0  0  0  0
  -26.6301  -12.1104   21.4830 C   0  0  0  0  0  0  0  0  0  0  0  0
  -27.0045  -34.4165   22.9238 C   0  0  0  0  0  0  0  0  0  0  0  0
  -27.1127  -31.6973   22.3403 C   0  0  0  0  0  0  0  0  0  0  0  0
  -25.4850  -28.4510   18.8108 C   0  0  0  0  0  0  0  0  0  0  0  0
  -30.6966  -23.6020   21.8520 C   0  0  0  0  0  0  0  0  0  0  0  0
  -32.6079  -22.0523   23.1665 C   0  0  0  0  0  0  0  0  0  0  0  0
  -24.4912  -13.2101   20.0693 C   0  0  0  0  0  0  0  0  0  0  0  0
  -25.6762  -11.2757   20.9007 C   0  0  0  0  0  0  0  0  0  0  0  0
  -26.2931  -27.3478   18.5392 C   0  0  0  0  0  0  0  0  0  0  0  0
  -23.3566   -8.6464   19.9392 C   0  0  0  0  0  0  0  0  0  0  0  0
  -22.8701   -7.5850   20.7022 C   0  0  0  0  0  0  0  0  0  0  0  0
  -24.8754  -25.9752   19.9268 C   0  0  0  0  0  0  0  0  0  0  0  0
  -22.0566   -9.1468   22.3564 C   0  0  0  0  0  0  0  0  0  0  0  0
  -26.5145  -13.4949   21.3585 C   0  0  0  0  0  0  0  0  0  0  0  0
  -27.4762  -14.8995   23.2585 C   0  0  0  0  0  0  0  0  0  0  0  0
  -25.9923  -33.5694   23.4019 C   0  0  0  0  0  0  0  0  0  0  0  0
  -24.3704  -28.3267   19.6526 C   0  0  0  0  0  0  0  0  0  0  0  0
  -26.0508  -32.1920   23.1164 C   0  0  0  0  0  0  0  0  0  0  0  0
  -24.0533  -27.0778   20.2055 C   0  0  0  0  0  0  0  0  0  0  0  0
  -30.7382  -22.2231   21.6460 C   0  0  0  0  0  0  0  0  0  0  0  0
  -31.6938  -21.4482   22.3032 C   0  0  0  0  0  0  0  0  0  0  0  0
  -24.6068  -11.8256   20.1938 C   0  0  0  0  0  0  0  0  0  0  0  0
  -25.9900  -26.1103   19.0996 C   0  0  0  0  0  0  0  0  0  0  0  0
  -23.1932   -9.9581   20.3848 C   0  0  0  0  0  0  0  0  0  0  0  0
  -22.2201   -7.8351   21.9108 C   0  0  0  0  0  0  0  0  0  0  0  0
  -22.5432  -10.2083   21.5933 C   0  0  0  0  0  0  0  0  0  0  0  0
  -27.5004  -14.3565   21.9599 C   0  0  0  0  0  0  0  0  0  0  0  0
  -28.6294  -15.6409   23.3423 C   0  0  0  0  0  0  0  0  0  0  0  0
  -26.4987  -14.7472   24.2963 C   0  0  0  0  0  0  0  0  0  0  0  0
  -23.5071  -29.6003   22.4341 C   0  0  0  0  0  0  0  0  0  0  0  0
  -20.7329  -28.0234   21.8514 C   0  0  0  0  0  0  0  0  0  0  0  0
  -28.2203  -23.3535   19.7755 C   0  0  0  0  0  0  0  0  0  0  0  0
  -19.1357  -25.4614   20.2601 C   0  0  0  0  0  0  0  0  0  0  0  0
  -31.9784  -19.4668   20.8240 C   0  0  0  0  0  0  0  0  0  0  0  0
  -24.9048  -34.1546   24.2678 C   0  0  0  0  0  0  0  0  0  0  0  0
  -23.4933  -29.5204   19.9143 C   0  0  0  0  0  0  0  0  0  0  0  0
  -22.8563  -26.8871   21.0995 C   0  0  0  0  0  0  0  0  0  0  0  0
  -23.6902  -33.2425   24.4197 C   0  0  0  0  0  0  0  0  0  0  0  0
  -32.6410  -15.8778   20.2854 C   0  0  0  0  0  0  0  0  0  0  0  0
  -24.1298  -31.8159   24.7331 C   0  0  0  0  0  0  0  0  0  0  0  0
  -31.3320  -15.2208   20.7201 C   0  0  0  0  0  0  0  0  0  0  0  0
  -32.4150  -17.2837   19.7375 C   0  0  0  0  0  0  0  0  0  0  0  0
  -30.3664  -17.5237   21.1071 C   0  0  0  0  0  0  0  0  0  0  0  0
  -24.9784  -31.2373   23.5945 C   0  0  1  0  0  0  0  0  0  0  0  0
  -22.6786  -29.3933   21.1978 C   0  0  1  0  0  0  0  0  0  0  0  0
  -30.5659  -16.1223   21.7038 C   0  0  1  0  0  0  0  0  0  0  0  0
  -16.8740  -24.4038   20.0082 C   0  0  0  0  0  0  0  0  0  0  0  0
  -21.0260  -26.7459   24.6067 C   0  0  0  0  0  0  0  0  0  0  0  0
  -19.3241  -25.0425   23.9211 C   0  0  0  0  0  0  0  0  0  0  0  0
  -18.6986  -27.4549   24.0278 C   0  0  0  0  0  0  0  0  0  0  0  0
  -31.8217  -19.1502   23.2827 C   0  0  0  0  0  0  0  0  0  0  0  0
  -27.5075  -21.9214   21.6973 C   0  0  0  0  0  0  0  0  0  0  0  0
  -19.0817  -25.9960   17.3498 C   0  0  0  0  0  0  0  0  0  0  0  0
  -29.7419  -21.6002   20.7113 C   0  0  0  0  0  0  0  0  0  0  0  0
  -26.8685  -24.0317   19.8501 C   0  0  0  0  0  0  0  0  0  1  0  0
  -20.2008  -26.6453   22.1623 C   0  0  1  0  0  0  0  0  0  0  0  0
  -17.8538  -25.4232   19.4481 C   0  0  2  0  0  0  0  0  0  0  0  0
  -19.8361  -26.4759   23.6642 C   0  0  0  0  0  0  0  0  0  0  0  0
  -28.5831  -14.7219   21.2683 N   0  0  0  0  0  0  0  0  0  0  0  0
  -29.2499  -15.5026   22.1356 N   0  0  0  0  0  0  0  0  0  0  0  0
  -22.0331  -28.0857   21.3304 N   0  0  0  0  0  0  0  0  0  0  0  0
  -31.6455  -18.1057   20.6723 N   0  0  0  0  0  0  0  0  0  0  0  0
  -29.1629  -16.3912   24.3296 N   0  0  0  0  0  0  0  0  0  0  0  0
  -25.3739  -13.9503   24.0431 N   0  0  0  0  0  0  0  0  0  0  0  0
  -24.1343  -30.8303   22.4916 N   0  0  0  0  0  0  0  0  0  0  0  0
  -19.0862  -26.4222   21.2479 N   0  0  0  0  0  0  0  0  0  0  0  0
  -31.7536  -20.0195   22.1034 N   0  0  0  0  0  0  0  0  0  0  0  0
  -28.4787  -22.3331   20.6913 N   0  0  0  0  0  0  0  0  0  0  0  0
  -18.1481  -25.0634   18.0321 N   0  3  0  0  0  0  0  0  0  0  0  0
  -26.6110  -15.3148   25.4093 O   0  0  0  0  0  0  0  0  0  0  0  0
  -23.5713  -28.7106   23.2743 O   0  0  0  0  0  0  0  0  0  0  0  0
  -20.0184  -29.0079   22.0562 O   0  0  0  0  0  0  0  0  0  0  0  0
  -29.0227  -23.7236   18.9130 O   0  0  0  0  0  0  0  0  0  0  0  0
  -20.0847  -24.7113   20.0425 O   0  0  0  0  0  0  0  0  0  0  0  0
  -32.4653  -20.1265   19.8981 O   0  0  0  0  0  0  0  0  0  0  0  0
  -23.6761  -11.0109   19.6258 O   0  0  0  0  0  0  0  0  0  0  0  0
  -26.7775  -25.0321   18.8366 O   0  0  0  0  0  0  0  0  0  1  0  0
  -21.7516   -6.8158   22.6426 F   0  0  0  0  0  0  0  0  0  0  0  0
  -22.3822  -11.4663   22.0260 F   0  0  0  0  0  0  0  0  0  0  0  0
  1  2  1  0  0  0  0
  1  7  2  0  0  0  0
  2  8  2  0  0  0  0
  3  4  1  0  0  0  0
  3 10  2  0  0  0  0
  4 11  2  0  0  0  0
  5 12  2  0  0  0  0
  5 19  1  0  0  0  0
  6 13  1  0  0  0  0
  6 19  2  0  0  0  0
  7 21  1  0  0  0  0
  8 23  1  0  0  0  0
  9 14  2  0  0  0  0
  9 22  1  0  0  0  0
 10 25  1  0  0  0  0
 11 26  1  0  0  0  0
 12 27  1  0  0  0  0
 13 27  2  0  0  0  0
 14 28  1  0  0  0  0
 15 16  2  0  0  0  0
 15 29  1  0  0  0  0
 16 30  1  0  0  0  0
 17 24  1  0  0  0  0
 17 28  2  0  0  0  0
 18 30  2  0  0  0  0
 18 31  1  0  0  0  0
 19 32  1  0  0  0  0
 20 32  1  0  0  0  0
 20 33  2  0  0  0  0
 20 34  1  0  0  0  0
 21 23  2  0  0  0  0
 21 40  1  0  0  0  0
 22 24  2  0  0  0  0
 22 41  1  0  0  0  0
 23 49  1  0  0  0  0
 24 42  1  0  0  0  0
 25 26  2  0  0  0  0
 25 59  1  0  0  0  0
 26 72  1  0  0  0  0
 27 81  1  0  0  0  0
 28 82  1  0  0  0  0
 29 31  2  0  0  0  0
 29 81  1  0  0  0  0
 30 83  1  0  0  0  0
 31 84  1  0  0  0  0
 32 64  2  0  0  0  0
 33 65  1  0  0  0  0
 33 68  1  0  0  0  0
 34 69  1  0  0  0  0
 34 75  2  0  0  0  0
 35 50  1  0  0  0  0
 35 70  1  0  0  0  0
 35 76  2  0  0  0  0
 36 61  1  0  0  0  0
 36 66  1  0  0  0  0
 36 77  2  0  0  0  0
 37 60  1  0  0  0  0
 37 73  1  0  0  0  0
 37 78  2  0  0  0  0
 38 62  1  0  0  0  0
 38 71  1  0  0  0  0
 38 79  2  0  0  0  0
 39 67  1  0  0  0  0
 39 72  1  0  0  0  0
 39 80  2  0  0  0  0
 40 43  1  0  0  0  0
 41 50  1  0  0  0  0
 42 66  1  0  0  0  0
 43 45  1  0  0  0  0
 44 46  1  0  0  0  0
 44 47  1  0  0  0  0
 45 49  1  0  0  0  0
 46 51  1  0  0  0  0
 47 67  1  0  0  0  0
 48 51  1  0  0  0  0
 48 67  1  0  0  0  0
 49 70  1  0  0  0  0
 50 66  1  0  0  0  0
 51 65  1  0  0  0  0
 52 62  1  0  0  0  0
 53 63  1  0  0  0  0
 54 63  1  0  0  0  0
 55 63  1  0  0  0  0
 56 72  1  0  0  0  0
 57 73  1  0  0  0  0
 58 74  1  0  0  0  0
 59 73  1  0  0  0  0
 60 82  1  0  0  0  0
 61 63  1  0  0  0  0
 61 71  1  0  0  0  0
 62 74  1  0  0  0  0
 64 65  1  0  0  0  0
M  CHG  1  74   1
M  ISO  4  39 100  60 101  72 100  82 101
M  END
> <Batch ID>
0022

> <Smiles>
CNC(C)C(=O)NC(C(=O)N1Cc2cc([101O:1][101CH2:1]C(=O)N(C)Cc3ccccc3[100N:0](C)[100C:0](=O)N3CCCC(n4nc(-c5ccc(Oc6ccc(F)cc6F)cc5)c(C(N)=O)c4N)C3)ccc2CC1C(=O)NC1CCCc2ccccc21)C(C)(C)C

> <Shape>
0.277

> <Color>
0.064

> <Negative vol penalty>
0.000

$$$$

  -OEChem-04042321143D

 84 92  0     1  0  0  0  0  0999 V2000
  -32.4880  -12.8431   21.2591 C   0  0  0  0  0  0  0  0  0  0  0  0
  -32.0520  -14.1637   21.2971 C   0  0  0  0  0  0  0  0  0  0  0  0
  -28.6116  -26.1296   20.6300 C   0  0  0  0  0  0  0  0  0  0  0  0
  -26.5607  -24.9614   20.1143 C   0  0  0  0  0  0  0  0  0  0  0  0
  -31.6943  -11.8651   20.6612 C   0  0  0  0  0  0  0  0  0  0  0  0
  -30.8224  -14.5072   20.7362 C   0  0  0  0  0  0  0  0  0  0  0  0
  -25.3550  -19.0498   21.6245 C   0  0  0  0  0  0  0  0  0  0  0  0
  -29.2762  -24.9093   20.7514 C   0  0  0  0  0  0  0  0  0  0  0  0
  -27.2253  -23.7411   20.2357 C   0  0  0  0  0  0  0  0  0  0  0  0
  -24.6037  -19.9834   20.9119 C   0  0  0  0  0  0  0  0  0  0  0  0
  -29.3026  -21.8411   18.3661 C   0  0  0  0  0  0  0  0  0  0  0  0
  -29.0695  -20.8775   17.3850 C   0  0  0  0  0  0  0  0  0  0  0  0
  -23.2814  -18.1960   19.9760 C   0  0  0  0  0  0  0  0  0  0  0  0
  -19.3186  -23.9296   19.3555 C   0  0  0  0  0  0  0  0  0  0  0  0
  -20.1608  -24.0355   21.6175 C   0  0  0  0  0  0  0  0  0  0  0  0
  -28.2309  -19.3637   19.0709 C   0  0  0  0  0  0  0  0  0  0  0  0
  -27.2538  -26.1557   20.3114 C   0  0  0  0  0  0  0  0  0  0  0  0
  -26.8597  -28.4584   19.2868 C   0  0  0  0  0  0  0  0  0  0  0  0
  -30.4500  -12.1951   20.1013 C   0  0  0  0  0  0  0  0  0  0  0  0
  -25.0817  -17.6792   21.5095 C   0  0  0  0  0  0  0  0  0  0  0  0
  -30.0119  -13.5328   20.1291 C   0  0  0  0  0  0  0  0  0  0  0  0
  -24.0290  -17.2472   20.6901 C   0  0  0  0  0  0  0  0  0  0  0  0
  -18.6740  -25.1530   19.5382 C   0  0  0  0  0  0  0  0  0  0  0  0
  -18.7728  -25.8177   20.7605 C   0  0  0  0  0  0  0  0  0  0  0  0
  -20.0620  -23.3708   20.3952 C   0  0  0  0  0  0  0  0  0  0  0  0
  -28.5831  -23.7150   20.5543 C   0  0  0  0  0  0  0  0  0  0  0  0
  -23.5686  -19.5563   20.0853 C   0  0  0  0  0  0  0  0  0  0  0  0
  -29.0000  -21.5661   19.6997 C   0  0  0  0  0  0  0  0  0  0  0  0
  -28.5336  -19.6388   17.7374 C   0  0  0  0  0  0  0  0  0  0  0  0
  -19.5162  -25.2590   21.8002 C   0  0  0  0  0  0  0  0  0  0  0  0
  -28.4641  -20.3274   20.0521 C   0  0  0  0  0  0  0  0  0  0  0  0
  -26.5667  -27.4159   20.1864 C   0  0  0  0  0  0  0  0  0  0  0  0
  -25.9256  -29.4258   19.5663 C   0  0  0  0  0  0  0  0  0  0  0  0
  -27.8846  -28.5445   18.2879 C   0  0  0  0  0  0  0  0  0  0  0  0
  -26.7069  -15.1458   20.4877 C   0  0  0  0  0  0  0  0  0  0  0  0
  -24.1168  -13.5293   21.5835 C   0  0  0  0  0  0  0  0  0  0  0  0
  -20.7977  -13.5710   22.3760 C   0  0  0  0  0  0  0  0  0  0  0  0
  -20.4533  -29.2313   21.9883 C   0  0  0  0  0  0  0  0  0  0  0  0
  -29.6485  -11.1118   19.4240 C   0  0  0  0  0  0  0  0  0  0  0  0
  -25.8840  -16.6867   22.3055 C   0  0  0  0  0  0  0  0  0  0  0  0
  -23.6821  -15.7885   20.5478 C   0  0  0  0  0  0  0  0  0  0  0  0
  -28.1897  -11.4925   19.1851 C   0  0  0  0  0  0  0  0  0  0  0  0
  -23.2422  -31.1161   23.1485 C   0  0  0  0  0  0  0  0  0  0  0  0
  -28.0941  -12.8949   18.5926 C   0  0  0  0  0  0  0  0  0  0  0  0
  -24.4369  -30.4756   22.4398 C   0  0  0  0  0  0  0  0  0  0  0  0
  -22.1925  -30.0770   23.5363 C   0  0  0  0  0  0  0  0  0  0  0  0
  -22.9234  -28.5812   21.7191 C   0  0  0  0  0  0  0  0  0  0  0  0
  -28.6730  -13.9404   19.5536 C   0  0  1  0  0  0  0  0  0  0  0  0
  -25.8505  -15.2804   21.7149 C   0  0  1  0  0  0  0  0  0  0  0  0
  -23.9830  -29.5969   21.2586 C   0  0  2  0  0  0  0  0  0  0  0  0
  -17.8835  -25.7313   18.4107 C   0  0  0  0  0  0  0  0  0  0  0  0
  -18.9528  -12.0885   23.2104 C   0  0  0  0  0  0  0  0  0  0  0  0
  -23.9188  -12.2300   18.8299 C   0  0  0  0  0  0  0  0  0  0  0  0
  -21.5849  -11.5299   19.4049 C   0  0  0  0  0  0  0  0  0  0  0  0
  -23.5071  -10.6784   20.7475 C   0  0  0  0  0  0  0  0  0  0  0  0
  -20.3847  -15.2436   24.7825 C   0  0  0  0  0  0  0  0  0  0  0  0
  -18.0896  -27.1282   20.9761 C   0  0  0  0  0  0  0  0  0  0  0  0
  -18.8301  -28.3148   20.3498 C   0  0  0  0  0  0  0  0  0  0  0  0
  -20.6543  -21.4007   18.9833 C   0  0  0  0  0  0  0  0  0  0  0  0
  -21.4751  -20.1285   19.1127 C   0  0  0  0  0  0  0  0  0  1  0  0
  -22.7990  -13.0933   20.9901 C   0  0  1  0  0  0  0  0  0  0  0  0
  -20.0473  -13.0710   23.5973 C   0  0  2  0  0  0  0  0  0  0  0  0
  -22.9600  -11.9103   19.9941 C   0  0  0  0  0  0  0  0  0  0  0  0
  -25.5278  -27.6949   20.9782 N   0  0  0  0  0  0  0  0  0  0  0  0
  -25.1599  -28.9237   20.5771 N   0  0  0  0  0  0  0  0  0  0  0  0
  -24.4997  -14.8562   21.3416 N   0  0  0  0  0  0  0  0  0  0  0  0
  -21.8038  -29.2783   22.3714 N   0  0  0  0  0  0  0  0  0  0  0  0
  -25.6929  -30.6485   19.0436 N   0  0  0  0  0  0  0  0  0  0  0  0
  -27.5977  -28.0856   16.9950 N   0  0  0  0  0  0  0  0  0  0  0  0
  -20.7026  -22.1562   20.2141 N   0  0  0  0  0  0  0  0  0  0  0  0
  -27.7317  -14.2275   20.6147 N   0  0  0  0  0  0  0  0  0  0  0  0
  -21.9176  -12.8094   22.1175 N   0  0  0  0  0  0  0  0  0  0  0  0
  -20.1719  -28.4564   20.8698 N   0  0  0  0  0  0  0  0  0  0  0  0
  -19.4200  -14.2117   24.3227 N   0  3  0  0  0  0  0  0  0  0  0  0
  -29.0264  -28.9993   18.5386 O   0  0  0  0  0  0  0  0  0  0  0  0
  -26.4556  -15.8237   19.4982 O   0  0  0  0  0  0  0  0  0  0  0  0
  -24.7787  -12.7244   22.2435 O   0  0  0  0  0  0  0  0  0  0  0  0
  -20.4253  -14.5381   21.7152 O   0  0  0  0  0  0  0  0  0  0  0  0
  -19.5648  -29.8394   22.5948 O   0  0  0  0  0  0  0  0  0  0  0  0
  -29.2313  -22.5241   20.6725 O   0  0  0  0  0  0  0  0  0  0  0  0
  -22.8342  -20.4654   19.3881 O   0  0  0  0  0  0  0  0  0  1  0  0
  -28.3084  -18.7141   16.7948 F   0  0  0  0  0  0  0  0  0  0  0  0
  -19.6173  -25.8896   22.9787 F   0  0  0  0  0  0  0  0  0  0  0  0
  -28.1702  -20.0578   21.3315 F   0  0  0  0  0  0  0  0  0  0  0  0
  1  2  1  0  0  0  0
  1  5  2  0  0  0  0
  2  6  2  0  0  0  0
  3  8  2  0  0  0  0
  3 17  1  0  0  0  0
  4  9  1  0  0  0  0
  4 17  2  0  0  0  0
  5 19  1  0  0  0  0
  6 21  1  0  0  0  0
  7 10  2  0  0  0  0
  7 20  1  0  0  0  0
  8 26  1  0  0  0  0
  9 26  2  0  0  0  0
 10 27  1  0  0  0  0
 11 12  2  0  0  0  0
 11 28  1  0  0  0  0
 12 29  1  0  0  0  0
 13 22  1  0  0  0  0
 13 27  2  0  0  0  0
 14 23  2  0  0  0  0
 14 25  1  0  0  0  0
 15 25  2  0  0  0  0
 15 30  1  0  0  0  0
 16 29  2  0  0  0  0
 16 31  1  0  0  0  0
 17 32  1  0  0  0  0
 18 32  1  0  0  0  0
 18 33  2  0  0  0  0
 18 34  1  0  0  0  0
 19 21  2  0  0  0  0
 19 39  1  0  0  0  0
 20 22  2  0  0  0  0
 20 40  1  0  0  0  0
 21 48  1  0  0  0  0
 22 41  1  0  0  0  0
 23 24  1  0  0  0  0
 23 51  1  0  0  0  0
 24 30  2  0  0  0  0
 24 57  1  0  0  0  0
 25 70  1  0  0  0  0
 26 80  1  0  0  0  0
 27 81  1  0  0  0  0
 28 31  2  0  0  0  0
 28 80  1  0  0  0  0
 29 82  1  0  0  0  0
 30 83  1  0  0  0  0
 31 84  1  0  0  0  0
 32 64  2  0  0  0  0
 33 65  1  0  0  0  0
 33 68  1  0  0  0  0
 34 69  1  0  0  0  0
 34 75  2  0  0  0  0
 35 49  1  0  0  0  0
 35 71  1  0  0  0  0
 35 76  2  0  0  0  0
 36 61  1  0  0  0  0
 36 66  1  0  0  0  0
 36 77  2  0  0  0  0
 37 62  1  0  0  0  0
 37 72  1  0  0  0  0
 37 78  2  0  0  0  0
 38 67  1  0  0  0  0
 38 73  1  0  0  0  0
 38 79  2  0  0  0  0
 39 42  1  0  0  0  0
 40 49  1  0  0  0  0
 41 66  1  0  0  0  0
 42 44  1  0  0  0  0
 43 45  1  0  0  0  0
 43 46  1  0  0  0  0
 44 48  1  0  0  0  0
 45 50  1  0  0  0  0
 46 67  1  0  0  0  0
 47 50  1  0  0  0  0
 47 67  1  0  0  0  0
 48 71  1  0  0  0  0
 49 66  1  0  0  0  0
 50 65  1  0  0  0  0
 52 62  1  0  0  0  0
 53 63  1  0  0  0  0
 54 63  1  0  0  0  0
 55 63  1  0  0  0  0
 56 74  1  0  0  0  0
 57 58  1  0  0  0  0
 58 73  1  0  0  0  0
 59 60  1  0  0  0  0
 59 70  1  0  0  0  0
 60 81  1  0  0  0  0
 61 63  1  0  0  0  0
 61 72  1  0  0  0  0
 62 74  1  0  0  0  0
 64 65  1  0  0  0  0
M  CHG  1  74   1
M  ISO  4  38 100  60 101  73 100  81 101
M  END
> <Batch ID>
0022

> <Smiles>
CNC(C)C(=O)NC(C(=O)N1Cc2cc([101O:1][101CH2:1]CNc3cc(C)c(CC[100NH:0][100C:0](=O)N4CCCC(n5nc(-c6ccc(Oc7ccc(F)cc7F)cc6)c(C(N)=O)c5N)C4)c(F)c3)ccc2CC1C(=O)NC1CCCc2ccccc21)C(C)(C)C

> <Shape>
0.256

> <Color>
0.058

> <Negative vol penalty>
0.000

$$$$

  -OEChem-04042321143D

 85 94  0     1  0  0  0  0  0999 V2000
  -30.3017  -30.4725   14.5886 C   0  0  0  0  0  0  0  0  0  0  0  0
  -29.8790  -29.1532   14.4616 C   0  0  0  0  0  0  0  0  0  0  0  0
  -23.0682   -9.8833   19.9550 C   0  0  0  0  0  0  0  0  0  0  0  0
  -23.7592   -9.9459   22.2693 C   0  0  0  0  0  0  0  0  0  0  0  0
  -31.6621  -30.7608   14.6895 C   0  0  0  0  0  0  0  0  0  0  0  0
  -30.8167  -28.1214   14.4342 C   0  0  0  0  0  0  0  0  0  0  0  0
  -29.4842  -24.2074   17.3583 C   0  0  0  0  0  0  0  0  0  0  0  0
  -22.3187   -8.7349   20.2099 C   0  0  0  0  0  0  0  0  0  0  0  0
  -23.0096   -8.7976   22.5242 C   0  0  0  0  0  0  0  0  0  0  0  0
  -28.5203  -23.3352   16.8542 C   0  0  0  0  0  0  0  0  0  0  0  0
  -23.3212   -5.4639   22.0546 C   0  0  0  0  0  0  0  0  0  0  0  0
  -23.9163   -4.4571   22.8147 C   0  0  0  0  0  0  0  0  0  0  0  0
  -28.0731  -18.5594   20.4732 C   0  0  0  0  0  0  0  0  0  0  0  0
  -30.2601  -21.7903   16.2173 C   0  0  0  0  0  0  0  0  0  0  0  0
  -28.5219  -17.1203   18.5985 C   0  0  0  0  0  0  0  0  0  0  0  0
  -22.1644   -4.6676   24.4650 C   0  0  0  0  0  0  0  0  0  0  0  0
  -23.7885  -10.4888   20.9847 C   0  0  0  0  0  0  0  0  0  0  0  0
  -24.1306  -13.0111   20.8152 C   0  0  0  0  0  0  0  0  0  0  0  0
  -32.6163  -29.7313   14.6731 C   0  0  0  0  0  0  0  0  0  0  0  0
  -30.8462  -23.8820   17.2856 C   0  0  0  0  0  0  0  0  0  0  0  0
  -32.1912  -28.3963   14.5336 C   0  0  0  0  0  0  0  0  0  0  0  0
  -28.8526  -17.7413   21.3081 C   0  0  0  0  0  0  0  0  0  0  0  0
  -31.2391  -22.6590   16.7234 C   0  0  0  0  0  0  0  0  0  0  0  0
  -29.4663  -16.5849   20.7814 C   0  0  0  0  0  0  0  0  0  0  0  0
  -27.8998  -18.2441   19.1283 C   0  0  0  0  0  0  0  0  0  0  0  0
  -22.2893   -8.1920   21.4945 C   0  0  0  0  0  0  0  0  0  0  0  0
  -28.9084  -22.1278   16.2810 C   0  0  0  0  0  0  0  0  0  0  0  0
  -22.1478   -6.0727   22.4997 C   0  0  0  0  0  0  0  0  0  0  0  0
  -23.3379   -4.0589   24.0199 C   0  0  0  0  0  0  0  0  0  0  0  0
  -29.3067  -16.3028   19.4145 C   0  0  0  0  0  0  0  0  0  0  0  0
  -21.5694   -5.6745   23.7049 C   0  0  0  0  0  0  0  0  0  0  0  0
  -24.5635  -11.6748   20.7219 C   0  0  0  0  0  0  0  0  0  0  0  0
  -25.2322  -13.7539   20.4671 C   0  0  0  0  0  0  0  0  0  0  0  0
  -22.8475  -13.5341   21.1837 C   0  0  0  0  0  0  0  0  0  0  0  0
  -33.3873  -25.1671   15.8730 C   0  0  0  0  0  0  0  0  0  0  0  0
  -34.9771  -22.8601   17.5078 C   0  0  0  0  0  0  0  0  0  0  0  0
  -34.8884  -19.8140   19.0443 C   0  0  0  0  0  0  0  0  0  0  0  0
  -30.8102  -14.5134   21.2489 C   0  0  0  0  0  0  0  0  0  0  0  0
  -34.0784  -30.0956   14.7375 C   0  0  0  0  0  0  0  0  0  0  0  0
  -31.8718  -24.8217   17.8580 C   0  0  0  0  0  0  0  0  0  0  0  0
  -29.0521  -18.1710   22.7398 C   0  0  0  0  0  0  0  0  0  0  0  0
  -32.6872  -22.2535   16.6396 C   0  0  0  0  0  0  0  0  0  0  0  0
  -34.9857  -28.9159   15.0772 C   0  0  0  0  0  0  0  0  0  0  0  0
  -29.6112  -17.0552   23.6096 C   0  0  0  0  0  0  0  0  0  0  0  0
  -29.6475  -12.4092   18.4308 C   0  0  0  0  0  0  0  0  0  0  0  0
  -34.6140  -27.6976   14.2379 C   0  0  0  0  0  0  0  0  0  0  0  0
  -28.2130  -12.0713   18.8316 C   0  0  0  0  0  0  0  0  0  0  0  0
  -30.7410  -16.3446   22.8851 C   0  0  0  0  0  0  0  0  0  0  0  0
  -30.5337  -12.6486   19.6491 C   0  0  0  0  0  0  0  0  0  0  0  0
  -28.5641  -13.3623   20.9751 C   0  0  0  0  0  0  0  0  0  0  0  0
  -33.1764  -27.2477   14.5249 C   0  0  1  0  0  0  0  0  0  0  0  0
  -33.2635  -24.6193   17.2667 C   0  0  1  0  0  0  0  0  0  0  0  0
  -27.6424  -13.1519   19.7644 C   0  0  2  0  0  0  0  0  0  0  0  0
  -36.3530  -18.1752   20.2554 C   0  0  0  0  0  0  0  0  0  0  0  0
  -36.2102  -22.0029   14.8517 C   0  0  0  0  0  0  0  0  0  0  0  0
  -36.8774  -19.8475   15.9368 C   0  0  0  0  0  0  0  0  0  0  0  0
  -37.7961  -22.0058   16.7855 C   0  0  0  0  0  0  0  0  0  0  0  0
  -33.2626  -20.0060   21.5098 C   0  0  0  0  0  0  0  0  0  0  0  0
  -26.0553  -19.9071   16.2789 C   0  0  0  0  0  0  0  0  0  0  0  0
  -26.8946  -18.8054   16.9147 C   0  0  0  0  0  0  0  0  0  0  0  0
  -26.6873  -21.2878   16.4110 C   0  0  0  0  0  0  0  0  0  1  0  0
  -35.3739  -21.4309   17.2265 C   0  0  1  0  0  0  0  0  0  0  0  0
  -35.4010  -19.3527   20.3967 C   0  0  2  0  0  0  0  0  0  0  0  0
  -36.5372  -21.3300   16.1998 C   0  0  0  0  0  0  0  0  0  0  0  0
  -25.8404  -11.5716   20.3440 N   0  0  0  0  0  0  0  0  0  0  0  0
  -26.2193  -12.8525   20.1966 N   0  0  0  0  0  0  0  0  0  0  0  0
  -30.2680  -15.7497   21.6348 N   0  0  0  0  0  0  0  0  0  0  0  0
  -33.6528  -23.2089   17.2073 N   0  0  0  0  0  0  0  0  0  0  0  0
  -29.9507  -13.6335   20.5614 N   0  0  0  0  0  0  0  0  0  0  0  0
  -25.4430  -15.0837   20.3689 N   0  0  0  0  0  0  0  0  0  0  0  0
  -21.8271  -12.6312   21.5120 N   0  0  0  0  0  0  0  0  0  0  0  0
  -27.1124  -19.0724   18.3032 N   0  0  0  0  0  0  0  0  0  0  0  0
  -33.1149  -26.5181   15.7733 N   0  0  0  0  0  0  0  0  0  0  0  0
  -35.6658  -20.8258   18.5215 N   0  0  0  0  0  0  0  0  0  0  0  0
  -34.2649  -18.9367   21.2668 N   0  3  0  0  0  0  0  0  0  0  0  0
  -22.6081  -14.7653   21.2048 O   0  0  0  0  0  0  0  0  0  0  0  0
  -33.7077  -24.4196   14.9563 O   0  0  0  0  0  0  0  0  0  0  0  0
  -35.8094  -23.6363   17.9836 O   0  0  0  0  0  0  0  0  0  0  0  0
  -33.8997  -19.3232   18.5039 O   0  0  0  0  0  0  0  0  0  0  0  0
  -31.9641  -14.1949   21.5615 O   0  0  0  0  0  0  0  0  0  0  0  0
  -21.5578   -7.0716   21.7436 O   0  0  0  0  0  0  0  0  0  0  0  0
  -27.9630  -21.2688   15.7842 O   0  0  0  0  0  0  0  0  0  1  0  0
  -23.9086   -3.0909   24.7489 F   0  0  0  0  0  0  0  0  0  0  0  0
  -29.9615  -15.2987   18.8157 F   0  0  0  0  0  0  0  0  0  0  0  0
  -20.4415   -6.2548   24.1372 F   0  0  0  0  0  0  0  0  0  0  0  0
  1  2  1  0  0  0  0
  1  5  2  0  0  0  0
  2  6  2  0  0  0  0
  3  8  2  0  0  0  0
  3 17  1  0  0  0  0
  4  9  1  0  0  0  0
  4 17  2  0  0  0  0
  5 19  1  0  0  0  0
  6 21  1  0  0  0  0
  7 10  2  0  0  0  0
  7 20  1  0  0  0  0
  8 26  1  0  0  0  0
  9 26  2  0  0  0  0
 10 27  1  0  0  0  0
 11 12  2  0  0  0  0
 11 28  1  0  0  0  0
 12 29  1  0  0  0  0
 13 22  1  0  0  0  0
 13 25  2  0  0  0  0
 14 23  1  0  0  0  0
 14 27  2  0  0  0  0
 15 25  1  0  0  0  0
 15 30  2  0  0  0  0
 16 29  2  0  0  0  0
 16 31  1  0  0  0  0
 17 32  1  0  0  0  0
 18 32  1  0  0  0  0
 18 33  2  0  0  0  0
 18 34  1  0  0  0  0
 19 21  2  0  0  0  0
 19 39  1  0  0  0  0
 20 23  2  0  0  0  0
 20 40  1  0  0  0  0
 21 51  1  0  0  0  0
 22 24  2  0  0  0  0
 22 41  1  0  0  0  0
 23 42  1  0  0  0  0
 24 30  1  0  0  0  0
 24 67  1  0  0  0  0
 25 72  1  0  0  0  0
 26 81  1  0  0  0  0
 27 82  1  0  0  0  0
 28 31  2  0  0  0  0
 28 81  1  0  0  0  0
 29 83  1  0  0  0  0
 30 84  1  0  0  0  0
 31 85  1  0  0  0  0
 32 65  2  0  0  0  0
 33 66  1  0  0  0  0
 33 70  1  0  0  0  0
 34 71  1  0  0  0  0
 34 76  2  0  0  0  0
 35 52  1  0  0  0  0
 35 73  1  0  0  0  0
 35 77  2  0  0  0  0
 36 62  1  0  0  0  0
 36 68  1  0  0  0  0
 36 78  2  0  0  0  0
 37 63  1  0  0  0  0
 37 74  1  0  0  0  0
 37 79  2  0  0  0  0
 38 67  1  0  0  0  0
 38 69  1  0  0  0  0
 38 80  2  0  0  0  0
 39 43  1  0  0  0  0
 40 52  1  0  0  0  0
 41 44  1  0  0  0  0
 42 68  1  0  0  0  0
 43 46  1  0  0  0  0
 44 48  1  0  0  0  0
 45 47  1  0  0  0  0
 45 49  1  0  0  0  0
 46 51  1  0  0  0  0
 47 53  1  0  0  0  0
 48 67  1  0  0  0  0
 49 69  1  0  0  0  0
 50 53  1  0  0  0  0
 50 69  1  0  0  0  0
 51 73  1  0  0  0  0
 52 68  1  0  0  0  0
 53 66  1  0  0  0  0
 54 63  1  0  0  0  0
 55 64  1  0  0  0  0
 56 64  1  0  0  0  0
 57 64  1  0  0  0  0
 58 75  1  0  0  0  0
 59 60  1  0  0  0  0
 59 61  1  0  0  0  0
 60 72  1  0  0  0  0
 61 82  1  0  0  0  0
 62 64  1  0  0  0  0
 62 74  1  0  0  0  0
 63 75  1  0  0  0  0
 65 66  1  0  0  0  0
M  CHG  1  75   1
M  ISO  4  38 100  61 101  67 100  82 101
M  END
> <Batch ID>
0022

> <Smiles>
CNC(C)C(=O)NC(C(=O)N1Cc2cc([101O:1][101CH2:1]CCNc3cc(F)c4c(c3)CCC[100N:0]4[100C:0](=O)N3CCCC(n4nc(-c5ccc(Oc6ccc(F)cc6F)cc5)c(C(N)=O)c4N)C3)ccc2CC1C(=O)NC1CCCc2ccccc21)C(C)(C)C

> <Shape>
0.221

> <Color>
0.181

> <Negative vol penalty>
0.000

$$$$

  -OEChem-04042321143D

 83 91  0     1  0  0  0  0  0999 V2000
  -16.8686  -28.6398   24.1886 C   0  0  0  0  0  0  0  0  0  0  0  0
  -17.3108  -27.5864   23.3947 C   0  0  0  0  0  0  0  0  0  0  0  0
  -23.2862   -9.7851   19.9290 C   0  0  0  0  0  0  0  0  0  0  0  0
  -23.4099  -10.1454   22.3148 C   0  0  0  0  0  0  0  0  0  0  0  0
  -17.6305  -29.8031   24.2891 C   0  0  0  0  0  0  0  0  0  0  0  0
  -18.5149  -27.6962   22.7000 C   0  0  0  0  0  0  0  0  0  0  0  0
  -23.8660  -22.9983   23.7889 C   0  0  0  0  0  0  0  0  0  0  0  0
  -22.5255   -8.6355   20.1421 C   0  0  0  0  0  0  0  0  0  0  0  0
  -22.6492   -8.9958   22.5279 C   0  0  0  0  0  0  0  0  0  0  0  0
  -24.8576  -22.0170   23.7864 C   0  0  0  0  0  0  0  0  0  0  0  0
  -23.1429   -5.6512   22.5546 C   0  0  0  0  0  0  0  0  0  0  0  0
  -23.5659   -4.7694   23.5491 C   0  0  0  0  0  0  0  0  0  0  0  0
  -26.1721  -23.3339   22.2418 C   0  0  0  0  0  0  0  0  0  0  0  0
  -29.6399  -16.5681   19.5762 C   0  0  0  0  0  0  0  0  0  0  0  0
  -27.8510  -17.1687   18.0677 C   0  0  0  0  0  0  0  0  0  0  0  0
  -21.4695   -5.0740   24.7108 C   0  0  0  0  0  0  0  0  0  0  0  0
  -23.7284  -10.5400   21.0154 C   0  0  0  0  0  0  0  0  0  0  0  0
  -24.0401  -13.0413   20.6224 C   0  0  0  0  0  0  0  0  0  0  0  0
  -18.8493  -29.9234   23.6029 C   0  0  0  0  0  0  0  0  0  0  0  0
  -24.0309  -24.1596   23.0289 C   0  0  0  0  0  0  0  0  0  0  0  0
  -19.2932  -28.8627   22.7904 C   0  0  0  0  0  0  0  0  0  0  0  0
  -25.1879  -24.3260   22.2501 C   0  0  0  0  0  0  0  0  0  0  0  0
  -28.9827  -16.4062   18.3567 C   0  0  0  0  0  0  0  0  0  0  0  0
  -28.0337  -18.2549   20.2180 C   0  0  0  0  0  0  0  0  0  0  0  0
  -22.2070   -8.2409   21.4415 C   0  0  0  0  0  0  0  0  0  0  0  0
  -26.0076  -22.1843   23.0146 C   0  0  0  0  0  0  0  0  0  0  0  0
  -21.8833   -6.2446   22.6383 C   0  0  0  0  0  0  0  0  0  0  0  0
  -22.7292   -4.4807   24.6271 C   0  0  0  0  0  0  0  0  0  0  0  0
  -29.1654  -17.4924   20.5070 C   0  0  0  0  0  0  0  0  0  0  0  0
  -27.3765  -18.0930   18.9984 C   0  0  0  0  0  0  0  0  0  0  0  0
  -21.0466   -5.9559   23.7163 C   0  0  0  0  0  0  0  0  0  0  0  0
  -24.5147  -11.7273   20.7960 C   0  0  0  0  0  0  0  0  0  0  0  0
  -25.1745  -13.7962   20.4504 C   0  0  0  0  0  0  0  0  0  0  0  0
  -22.6941  -13.5352   20.6171 C   0  0  0  0  0  0  0  0  0  0  0  0
  -22.6171  -27.4707   21.9737 C   0  0  0  0  0  0  0  0  0  0  0  0
  -25.6221  -27.8886   22.4268 C   0  0  0  0  0  0  0  0  0  0  0  0
  -28.8776  -28.0261   23.4368 C   0  0  0  0  0  0  0  0  0  0  0  0
  -30.1485  -14.2677   17.7577 C   0  0  0  0  0  0  0  0  0  0  0  0
  -19.6150  -31.2187   23.7050 C   0  0  0  0  0  0  0  0  0  0  0  0
  -22.9612  -25.2149   22.9533 C   0  0  0  0  0  0  0  0  0  0  0  0
  -25.3067  -25.5757   21.4212 C   0  0  0  0  0  0  0  0  0  0  0  0
  -21.0629  -31.1091   23.2339 C   0  0  0  0  0  0  0  0  0  0  0  0
  -30.0515  -12.6710   21.0945 C   0  0  0  0  0  0  0  0  0  0  0  0
  -21.1366  -30.3664   21.9035 C   0  0  0  0  0  0  0  0  0  0  0  0
  -28.5747  -12.3165   21.2582 C   0  0  0  0  0  0  0  0  0  0  0  0
  -30.4723  -12.6811   19.6280 C   0  0  0  0  0  0  0  0  0  0  0  0
  -28.1546  -13.2221   18.9377 C   0  0  0  0  0  0  0  0  0  0  0  0
  -20.6061  -28.9342   22.0411 C   0  0  1  0  0  0  0  0  0  0  0  0
  -23.5277  -26.6407   22.8300 C   0  0  1  0  0  0  0  0  0  0  0  0
  -27.6961  -13.2448   20.4035 C   0  0  1  0  0  0  0  0  0  0  0  0
  -30.8082  -29.6149   23.6506 C   0  0  0  0  0  0  0  0  0  0  0  0
  -26.0756  -27.7372   19.4142 C   0  0  0  0  0  0  0  0  0  0  0  0
  -28.4329  -28.4858   19.8030 C   0  0  0  0  0  0  0  0  0  0  0  0
  -26.5334  -29.9774   20.4272 C   0  0  0  0  0  0  0  0  0  0  0  0
  -29.5008  -15.8437   15.9890 C   0  0  0  0  0  0  0  0  0  0  0  0
  -29.0126  -27.6500   26.3692 C   0  0  0  0  0  0  0  0  0  0  0  0
  -27.5232  -18.9261   22.5663 C   0  0  0  0  0  0  0  0  0  0  0  0
  -26.5504  -19.8795   23.2398 C   0  0  0  0  0  0  0  0  0  1  0  0
  -27.0011  -27.9184   21.8177 C   0  0  1  0  0  0  0  0  0  0  0  0
  -29.6093  -28.9934   24.3498 C   0  0  2  0  0  0  0  0  0  0  0  0
  -27.0007  -28.5064   20.3784 C   0  0  0  0  0  0  0  0  0  0  0  0
  -25.8469  -11.6486   20.7393 N   0  0  0  0  0  0  0  0  0  0  0  0
  -26.2190  -12.9226   20.5280 N   0  0  0  0  0  0  0  0  0  0  0  0
  -24.8549  -26.7396   22.1995 N   0  0  0  0  0  0  0  0  0  0  0  0
  -29.5907  -13.5214   18.8161 N   0  0  0  0  0  0  0  0  0  0  0  0
  -25.3705  -15.1155   20.2417 N   0  0  0  0  0  0  0  0  0  0  0  0
  -21.6470  -12.6233   20.8084 N   0  0  0  0  0  0  0  0  0  0  0  0
  -27.5622  -19.1717   21.1429 N   0  0  0  0  0  0  0  0  0  0  0  0
  -21.5958  -28.0870   22.6712 N   0  0  0  0  0  0  0  0  0  0  0  0
  -27.8476  -28.6434   22.7591 N   0  0  0  0  0  0  0  0  0  0  0  0
  -29.4732  -15.4489   17.3956 N   0  0  0  0  0  0  0  0  0  0  0  0
  -30.0908  -28.2888   25.5715 N   0  3  0  0  0  0  0  0  0  0  0  0
  -22.4269  -14.7466   20.4315 O   0  0  0  0  0  0  0  0  0  0  0  0
  -22.8256  -27.5483   20.7686 O   0  0  0  0  0  0  0  0  0  0  0  0
  -25.2311  -28.8587   23.0819 O   0  0  0  0  0  0  0  0  0  0  0  0
  -29.1910  -26.8423   23.3322 O   0  0  0  0  0  0  0  0  0  0  0  0
  -31.1479  -13.8806   17.1397 O   0  0  0  0  0  0  0  0  0  0  0  0
  -21.4645   -7.1193   21.6497 O   0  0  0  0  0  0  0  0  0  0  0  0
  -26.9737  -21.2244   23.0203 O   0  0  0  0  0  0  0  0  0  1  0  0
  -23.1349   -3.6326   25.5813 F   0  0  0  0  0  0  0  0  0  0  0  0
  -29.8042  -17.6396   21.6764 F   0  0  0  0  0  0  0  0  0  0  0  0
  -26.2871  -18.8198   18.7110 F   0  0  0  0  0  0  0  0  0  0  0  0
  -19.8349   -6.5219   23.8015 F   0  0  0  0  0  0  0  0  0  0  0  0
  1  2  1  0  0  0  0
  1  5  2  0  0  0  0
  2  6  2  0  0  0  0
  3  8  2  0  0  0  0
  3 17  1  0  0  0  0
  4  9  1  0  0  0  0
  4 17  2  0  0  0  0
  5 19  1  0  0  0  0
  6 21  1  0  0  0  0
  7 10  2  0  0  0  0
  7 20  1  0  0  0  0
  8 25  1  0  0  0  0
  9 25  2  0  0  0  0
 10 26  1  0  0  0  0
 11 12  2  0  0  0  0
 11 27  1  0  0  0  0
 12 28  1  0  0  0  0
 13 22  1  0  0  0  0
 13 26  2  0  0  0  0
 14 23  1  0  0  0  0
 14 29  2  0  0  0  0
 15 23  2  0  0  0  0
 15 30  1  0  0  0  0
 16 28  2  0  0  0  0
 16 31  1  0  0  0  0
 17 32  1  0  0  0  0
 18 32  1  0  0  0  0
 18 33  2  0  0  0  0
 18 34  1  0  0  0  0
 19 21  2  0  0  0  0
 19 39  1  0  0  0  0
 20 22  2  0  0  0  0
 20 40  1  0  0  0  0
 21 48  1  0  0  0  0
 22 41  1  0  0  0  0
 23 71  1  0  0  0  0
 24 29  1  0  0  0  0
 24 30  2  0  0  0  0
 24 68  1  0  0  0  0
 25 78  1  0  0  0  0
 26 79  1  0  0  0  0
 27 31  2  0  0  0  0
 27 78  1  0  0  0  0
 28 80  1  0  0  0  0
 29 81  1  0  0  0  0
 30 82  1  0  0  0  0
 31 83  1  0  0  0  0
 32 62  2  0  0  0  0
 33 63  1  0  0  0  0
 33 66  1  0  0  0  0
 34 67  1  0  0  0  0
 34 73  2  0  0  0  0
 35 49  1  0  0  0  0
 35 69  1  0  0  0  0
 35 74  2  0  0  0  0
 36 59  1  0  0  0  0
 36 64  1  0  0  0  0
 36 75  2  0  0  0  0
 37 60  1  0  0  0  0
 37 70  1  0  0  0  0
 37 76  2  0  0  0  0
 38 65  1  0  0  0  0
 38 71  1  0  0  0  0
 38 77  2  0  0  0  0
 39 42  1  0  0  0  0
 40 49  1  0  0  0  0
 41 64  1  0  0  0  0
 42 44  1  0  0  0  0
 43 45  1  0  0  0  0
 43 46  1  0  0  0  0
 44 48  1  0  0  0  0
 45 50  1  0  0  0  0
 46 65  1  0  0  0  0
 47 50  1  0  0  0  0
 47 65  1  0  0  0  0
 48 69  1  0  0  0  0
 49 64  1  0  0  0  0
 50 63  1  0  0  0  0
 51 60  1  0  0  0  0
 52 61  1  0  0  0  0
 53 61  1  0  0  0  0
 54 61  1  0  0  0  0
 55 71  1  0  0  0  0
 56 72  1  0  0  0  0
 57 58  1  0  0  0  0
 57 68  1  0  0  0  0
 58 79  1  0  0  0  0
 59 61  1  0  0  0  0
 59 70  1  0  0  0  0
 60 72  1  0  0  0  0
 62 63  1  0  0  0  0
M  CHG  1  72   1
M  ISO  4  38 100  58 101  71 100  79 101
M  END
> <Batch ID>
0022

> <Smiles>
CNC(C)C(=O)NC(C(=O)N1Cc2cc([101O:1][101CH2:1]CNc3c(F)cc([100N:0](C)[100C:0](=O)N4CCCC(n5nc(-c6ccc(Oc7ccc(F)cc7F)cc6)c(C(N)=O)c5N)C4)cc3F)ccc2CC1C(=O)NC1CCCc2ccccc21)C(C)(C)C

> <Shape>
0.284

> <Color>
0.203

> <Negative vol penalty>
0.000

$$$$
