
  -OEChem-04042321173D

 85 94  0     1  0  0  0  0  0999 V2000
  -24.9116  -18.7490   24.3044 C   0  0  0  0  0  0  0  0  0  0  0  0
  -25.4658  -19.6870   23.4393 C   0  0  0  0  0  0  0  0  0  0  0  0
  -26.6196  -12.3808   21.2947 C   0  0  0  0  0  0  0  0  0  0  0  0
  -25.3901  -13.9769   19.9613 C   0  0  0  0  0  0  0  0  0  0  0  0
  -23.5530  -18.8038   24.6127 C   0  0  0  0  0  0  0  0  0  0  0  0
  -24.6613  -20.6798   22.8810 C   0  0  0  0  0  0  0  0  0  0  0  0
  -26.8290  -25.2537   23.0383 C   0  0  0  0  0  0  0  0  0  0  0  0
  -30.1457  -23.5685   19.2794 C   0  0  0  0  0  0  0  0  0  0  0  0
  -30.1032  -22.5070   20.1832 C   0  0  0  0  0  0  0  0  0  0  0  0
  -25.4348  -11.6980   21.5698 C   0  0  0  0  0  0  0  0  0  0  0  0
  -24.2053  -13.2940   20.2364 C   0  0  0  0  0  0  0  0  0  0  0  0
  -27.8118  -25.5256   22.0875 C   0  0  0  0  0  0  0  0  0  0  0  0
  -23.4047   -9.4984   19.9972 C   0  0  0  0  0  0  0  0  0  0  0  0
  -23.4201   -8.1073   19.8973 C   0  0  0  0  0  0  0  0  0  0  0  0
  -26.1961  -26.7444   20.7748 C   0  0  0  0  0  0  0  0  0  0  0  0
  -28.0083  -21.7765   19.2267 C   0  0  0  0  0  0  0  0  0  0  0  0
  -22.8003   -7.9333   22.2260 C   0  0  0  0  0  0  0  0  0  0  0  0
  -26.5972  -13.5203   20.4905 C   0  0  0  0  0  0  0  0  0  0  0  0
  -28.6999  -14.0045   19.1296 C   0  0  0  0  0  0  0  0  0  0  0  0
  -22.7334  -19.8035   24.0655 C   0  0  0  0  0  0  0  0  0  0  0  0
  -25.5176  -25.7167   22.8588 C   0  0  0  0  0  0  0  0  0  0  0  0
  -23.2901  -20.7471   23.1812 C   0  0  0  0  0  0  0  0  0  0  0  0
  -25.1991  -26.4792   21.7260 C   0  0  0  0  0  0  0  0  0  0  0  0
  -29.1195  -23.7340   18.3492 C   0  0  0  0  0  0  0  0  0  0  0  0
  -29.0345  -21.6110   20.1569 C   0  0  0  0  0  0  0  0  0  0  0  0
  -24.2277  -12.1546   21.0407 C   0  0  0  0  0  0  0  0  0  0  0  0
  -27.4947  -26.2685   20.9541 C   0  0  0  0  0  0  0  0  0  0  0  0
  -23.0871  -10.1071   21.2114 C   0  0  0  0  0  0  0  0  0  0  0  0
  -23.1179   -7.3247   21.0117 C   0  0  0  0  0  0  0  0  0  0  0  0
  -28.0508  -22.8380   18.3228 C   0  0  0  0  0  0  0  0  0  0  0  0
  -22.7849   -9.3245   22.3258 C   0  0  0  0  0  0  0  0  0  0  0  0
  -27.8206  -14.2264   20.2064 C   0  0  0  0  0  0  0  0  0  0  0  0
  -29.7017  -14.9269   19.3085 C   0  0  0  0  0  0  0  0  0  0  0  0
  -28.6183  -13.0499   18.0629 C   0  0  0  0  0  0  0  0  0  0  0  0
  -22.6752  -24.3321   22.5309 C   0  0  0  0  0  0  0  0  0  0  0  0
  -21.6042  -27.3912   22.6605 C   0  0  0  0  0  0  0  0  0  0  0  0
  -22.2583  -30.7111   22.2162 C   0  0  0  0  0  0  0  0  0  0  0  0
  -29.9278  -20.2254   22.0618 C   0  0  0  0  0  0  0  0  0  0  0  0
  -21.2608  -19.7937   24.3911 C   0  0  0  0  0  0  0  0  0  0  0  0
  -24.4753  -25.4376   23.9068 C   0  0  0  0  0  0  0  0  0  0  0  0
  -23.8110  -27.0165   21.4963 C   0  0  0  0  0  0  0  0  0  0  0  0
  -20.5533  -21.1031   24.0516 C   0  0  0  0  0  0  0  0  0  0  0  0
  -31.9608  -17.3830   22.7434 C   0  0  0  0  0  0  0  0  0  0  0  0
  -29.5069  -25.8782   15.3720 C   0  0  0  0  0  0  0  0  0  0  0  0
  -20.9489  -21.5777   22.6570 C   0  0  0  0  0  0  0  0  0  0  0  0
  -31.2130  -16.2317   22.0670 C   0  0  0  0  0  0  0  0  0  0  0  0
  -28.8787  -26.8628   16.3388 C   0  0  0  0  0  0  0  0  0  0  0  0
  -29.1846  -24.5339   16.0059 C   0  0  0  0  0  0  0  0  0  0  0  0
  -31.0004  -18.3983   23.3603 C   0  0  0  0  0  0  0  0  0  0  0  0
  -29.2281  -17.7676   21.7696 C   0  0  0  0  0  0  0  0  0  0  0  0
  -22.4551  -21.8541   22.5750 C   0  0  1  0  0  0  0  0  0  0  0  0
  -23.0501  -25.5213   23.3692 C   0  0  1  0  0  0  0  0  0  0  0  0
  -30.1526  -16.7529   21.0772 C   0  0  2  0  0  0  0  0  0  0  0  0
  -29.1542  -26.2469   17.7368 C   0  0  1  0  0  0  0  0  0  0  0  0
  -30.5242  -26.7269   18.2378 C   0  0  0  0  0  0  0  0  0  0  0  0
  -21.1745  -32.9696   22.3649 C   0  0  0  0  0  0  0  0  0  0  0  0
  -20.1328  -26.8549   20.0419 C   0  0  0  0  0  0  0  0  0  0  0  0
  -19.8773  -29.3294   19.7595 C   0  0  0  0  0  0  0  0  0  0  0  0
  -18.8339  -28.1847   21.7149 C   0  0  0  0  0  0  0  0  0  0  0  0
  -24.1687  -31.6201   24.2857 C   0  0  0  0  0  0  0  0  0  0  0  0
  -28.0208  -26.6813   18.6718 C   0  0  0  0  0  0  0  0  0  1  0  0
  -21.3442  -28.4769   21.6442 C   0  0  1  0  0  0  0  0  0  0  0  0
  -21.9914  -31.9173   23.0985 C   0  0  2  0  0  0  0  0  0  0  0  0
  -20.0728  -28.1998   20.7932 C   0  0  0  0  0  0  0  0  0  0  0  0
  -28.2281  -15.2124   21.0100 N   0  0  0  0  0  0  0  0  0  0  0  0
  -29.3745  -15.6182   20.4378 N   0  0  0  0  0  0  0  0  0  0  0  0
  -29.1638  -24.7899   17.4539 N   0  0  3  0  0  0  0  0  0  0  0  0
  -22.8253  -26.7116   22.5465 N   0  0  0  0  0  0  0  0  0  0  0  0
  -30.0276  -18.8507   22.3634 N   0  0  0  0  0  0  0  0  0  0  0  0
  -30.8217  -15.2060   18.6085 N   0  0  0  0  0  0  0  0  0  0  0  0
  -27.5224  -12.1769   18.0299 N   0  0  0  0  0  0  0  0  0  0  0  0
  -28.9914  -20.5327   21.0752 N   0  0  0  0  0  0  0  0  0  0  0  0
  -22.7705  -23.1236   23.1941 N   0  0  0  0  0  0  0  0  0  0  0  0
  -21.3036  -29.7312   22.3882 N   0  0  0  0  0  0  0  0  0  0  0  0
  -23.2758  -32.5368   23.5312 N   0  3  0  0  0  0  0  0  0  0  0  0
  -29.4999  -12.9623   17.1749 O   0  0  0  0  0  0  0  0  0  0  0  0
  -22.3240  -24.4987   21.3687 O   0  0  0  0  0  0  0  0  0  0  0  0
  -20.7583  -27.1597   23.5279 O   0  0  0  0  0  0  0  0  0  0  0  0
  -23.2157  -30.6464   21.4482 O   0  0  0  0  0  0  0  0  0  0  0  0
  -30.6411  -21.0650   22.6169 O   0  0  0  0  0  0  0  0  0  0  0  0
  -23.0715  -11.4884   21.3087 O   0  0  0  0  0  0  0  0  0  0  0  0
  -28.4520  -26.5348   20.0242 O   0  0  0  0  0  0  0  0  0  1  0  0
  -23.1312   -5.9888   20.9153 F   0  0  0  0  0  0  0  0  0  0  0  0
  -27.0587  -22.9889   17.4339 F   0  0  0  0  0  0  0  0  0  0  0  0
  -22.4779   -9.9035   23.4947 F   0  0  0  0  0  0  0  0  0  0  0  0
  1  2  1  0  0  0  0
  1  5  2  0  0  0  0
  2  6  2  0  0  0  0
  3 10  2  0  0  0  0
  3 18  1  0  0  0  0
  4 11  1  0  0  0  0
  4 18  2  0  0  0  0
  5 20  1  0  0  0  0
  6 22  1  0  0  0  0
  7 12  2  0  0  0  0
  7 21  1  0  0  0  0
  8  9  2  0  0  0  0
  8 24  1  0  0  0  0
  9 25  1  0  0  0  0
 10 26  1  0  0  0  0
 11 26  2  0  0  0  0
 12 27  1  0  0  0  0
 13 14  2  0  0  0  0
 13 28  1  0  0  0  0
 14 29  1  0  0  0  0
 15 23  1  0  0  0  0
 15 27  2  0  0  0  0
 16 25  2  0  0  0  0
 16 30  1  0  0  0  0
 17 29  2  0  0  0  0
 17 31  1  0  0  0  0
 18 32  1  0  0  0  0
 19 32  1  0  0  0  0
 19 33  2  0  0  0  0
 19 34  1  0  0  0  0
 20 22  2  0  0  0  0
 20 39  1  0  0  0  0
 21 23  2  0  0  0  0
 21 40  1  0  0  0  0
 22 51  1  0  0  0  0
 23 41  1  0  0  0  0
 24 30  2  0  0  0  0
 24 67  1  0  0  0  0
 25 72  1  0  0  0  0
 26 81  1  0  0  0  0
 27 82  1  0  0  0  0
 28 31  2  0  0  0  0
 28 81  1  0  0  0  0
 29 83  1  0  0  0  0
 30 84  1  0  0  0  0
 31 85  1  0  0  0  0
 32 65  2  0  0  0  0
 33 66  1  0  0  0  0
 33 70  1  0  0  0  0
 34 71  1  0  0  0  0
 34 76  2  0  0  0  0
 35 52  1  0  0  0  0
 35 73  1  0  0  0  0
 35 77  2  0  0  0  0
 36 62  1  0  0  0  0
 36 68  1  0  0  0  0
 36 78  2  0  0  0  0
 37 63  1  0  0  0  0
 37 74  1  0  0  0  0
 37 79  2  0  0  0  0
 38 69  1  0  0  0  0
 38 72  1  0  0  0  0
 38 80  2  0  0  0  0
 39 42  1  0  0  0  0
 40 52  1  0  0  0  0
 41 68  1  0  0  0  0
 42 45  1  0  0  0  0
 43 46  1  0  0  0  0
 43 49  1  0  0  0  0
 44 47  1  0  0  0  0
 44 48  1  0  0  0  0
 45 51  1  0  0  0  0
 46 53  1  0  0  0  0
 47 54  1  0  0  0  0
 48 67  1  0  0  0  0
 49 69  1  0  0  0  0
 50 53  1  0  0  0  0
 50 69  1  0  0  0  0
 51 73  1  0  0  0  0
 52 68  1  0  0  0  0
 53 66  1  0  0  0  0
 54 55  1  0  0  0  0
 54 61  1  0  0  0  0
 54 67  1  0  0  0  0
 56 63  1  0  0  0  0
 57 64  1  0  0  0  0
 58 64  1  0  0  0  0
 59 64  1  0  0  0  0
 60 75  1  0  0  0  0
 61 82  1  0  0  0  0
 62 64  1  0  0  0  0
 62 74  1  0  0  0  0
 63 75  1  0  0  0  0
 65 66  1  0  0  0  0
M  CHG  1  75   1
M  ISO  4  38 100  61 101  72 100  82 101
M  END
> <Batch ID>
0023

> <Smiles>
CNC(C)C(=O)NC(C(=O)N1Cc2cc([101O:1][101CH2:1]C3(C)CCCN3c3ccc([100NH:0][100C:0](=O)N4CCCC(n5nc(-c6ccc(Oc7ccc(F)cc7F)cc6)c(C(N)=O)c5N)C4)cc3F)ccc2CC1C(=O)NC1CCCc2ccccc21)C(C)(C)C

> <Shape>
0.257

> <Color>
0.069

> <Negative vol penalty>
0.000

$$$$

  -OEChem-04042321173D

 85 93  0     1  0  0  0  0  0999 V2000
  -30.5259  -25.2271   18.0280 C   0  0  0  0  0  0  0  0  0  0  0  0
  -29.1352  -25.2510   18.0592 C   0  0  0  0  0  0  0  0  0  0  0  0
  -25.5837  -14.0174   18.9639 C   0  0  0  0  0  0  0  0  0  0  0  0
  -24.0606  -14.1245   20.8363 C   0  0  0  0  0  0  0  0  0  0  0  0
  -31.2551  -25.7562   19.0921 C   0  0  0  0  0  0  0  0  0  0  0  0
  -28.4729  -25.8031   19.1551 C   0  0  0  0  0  0  0  0  0  0  0  0
  -23.1900  -28.9001   19.0866 C   0  0  0  0  0  0  0  0  0  0  0  0
  -21.0698  -25.2675   22.8641 C   0  0  0  0  0  0  0  0  0  0  0  0
  -22.1127  -24.4614   22.4081 C   0  0  0  0  0  0  0  0  0  0  0  0
  -25.8734  -12.6890   19.2756 C   0  0  0  0  0  0  0  0  0  0  0  0
  -24.3503  -12.7961   21.1480 C   0  0  0  0  0  0  0  0  0  0  0  0
  -21.8764  -28.5201   19.3583 C   0  0  0  0  0  0  0  0  0  0  0  0
  -23.4714   -9.7292   20.0335 C   0  0  0  0  0  0  0  0  0  0  0  0
  -22.4010   -8.8883   20.3377 C   0  0  0  0  0  0  0  0  0  0  0  0
  -22.1143  -29.3342   21.6166 C   0  0  0  0  0  0  0  0  0  0  0  0
  -23.3424   -8.4815   22.5253 C   0  0  0  0  0  0  0  0  0  0  0  0
  -24.6773  -14.7352   19.7443 C   0  0  0  0  0  0  0  0  0  0  0  0
  -23.3623  -16.5790   18.5702 C   0  0  0  0  0  0  0  0  0  0  0  0
  -30.6014  -26.3237   20.1972 C   0  0  0  0  0  0  0  0  0  0  0  0
  -23.9805  -29.4910   20.0827 C   0  0  0  0  0  0  0  0  0  0  0  0
  -29.1941  -26.3390   20.2356 C   0  0  0  0  0  0  0  0  0  0  0  0
  -23.4368  -29.7231   21.3542 C   0  0  0  0  0  0  0  0  0  0  0  0
  -19.5095  -24.0150   21.5101 C   0  0  0  0  0  0  0  0  0  0  0  0
  -19.7682  -25.0443   22.4152 C   0  0  0  0  0  0  0  0  0  0  0  0
  -21.8541  -23.4320   21.5030 C   0  0  0  0  0  0  0  0  0  0  0  0
  -25.2567  -12.0784   20.3676 C   0  0  0  0  0  0  0  0  0  0  0  0
  -21.3393  -28.7345   20.6242 C   0  0  0  0  0  0  0  0  0  0  0  0
  -24.4774   -9.9463   20.9751 C   0  0  0  0  0  0  0  0  0  0  0  0
  -22.3365   -8.2644   21.5836 C   0  0  0  0  0  0  0  0  0  0  0  0
  -24.4128   -9.3225   22.2210 C   0  0  0  0  0  0  0  0  0  0  0  0
  -20.5524  -23.2088   21.0540 C   0  0  0  0  0  0  0  0  0  0  0  0
  -24.3781  -16.1075   19.4232 C   0  0  0  0  0  0  0  0  0  0  0  0
  -23.4949  -17.9457   18.6009 C   0  0  0  0  0  0  0  0  0  0  0  0
  -22.3860  -15.8469   17.8174 C   0  0  0  0  0  0  0  0  0  0  0  0
  -26.6867  -28.7103   21.5560 C   0  0  0  0  0  0  0  0  0  0  0  0
  -26.3671  -31.6594   22.8684 C   0  0  0  0  0  0  0  0  0  0  0  0
  -24.3042  -34.2349   23.7394 C   0  0  0  0  0  0  0  0  0  0  0  0
  -24.2629  -22.7034   21.3897 C   0  0  0  0  0  0  0  0  0  0  0  0
  -31.4320  -26.8406   21.3451 C   0  0  0  0  0  0  0  0  0  0  0  0
  -25.3870  -29.9195   19.7659 C   0  0  0  0  0  0  0  0  0  0  0  0
  -24.2373  -30.3724   22.4525 C   0  0  0  0  0  0  0  0  0  0  0  0
  -30.6565  -27.7456   22.2990 C   0  0  0  0  0  0  0  0  0  0  0  0
  -27.1743  -20.8562   20.5017 C   0  0  0  0  0  0  0  0  0  0  0  0
  -29.3082  -27.1233   22.6476 C   0  0  0  0  0  0  0  0  0  0  0  0
  -26.6228  -19.4948   20.0718 C   0  0  0  0  0  0  0  0  0  0  0  0
  -26.3863  -21.4436   21.6711 C   0  0  0  0  0  0  0  0  0  0  0  0
  -24.3828  -20.1586   21.0355 C   0  0  0  0  0  0  0  0  0  0  0  0
  -28.4396  -26.9517   21.3955 C   0  0  1  0  0  0  0  0  0  0  0  0
  -26.2673  -30.0440   21.0056 C   0  0  1  0  0  0  0  0  0  0  0  0
  -25.1037  -19.5567   19.8183 C   0  0  2  0  0  0  0  0  0  0  0  0
  -18.1234  -23.7569   21.0149 C   0  0  0  0  0  0  0  0  0  0  0  0
  -18.0712  -24.5832   24.8476 C   0  0  0  0  0  0  0  0  0  0  0  0
  -24.3272  -36.4948   24.8302 C   0  0  0  0  0  0  0  0  0  0  0  0
  -26.6327  -30.3338   25.6038 C   0  0  0  0  0  0  0  0  0  0  0  0
  -25.7145  -32.4252   26.6291 C   0  0  0  0  0  0  0  0  0  0  0  0
  -27.8659  -32.4968   25.3685 C   0  0  0  0  0  0  0  0  0  0  0  0
  -23.2961  -35.5556   21.2903 C   0  0  0  0  0  0  0  0  0  0  0  0
  -18.1205  -28.1545   22.2933 C   0  0  0  0  0  0  0  0  0  0  0  0
  -18.4383  -25.9268   24.3160 C   0  0  0  0  0  0  0  0  0  0  0  0
  -17.9462  -26.6731   21.9816 C   0  0  0  0  0  0  0  0  0  0  0  0
  -19.5716  -28.6133   22.2106 C   0  0  0  0  0  0  0  0  0  1  0  0
  -25.6962  -32.2136   24.1020 C   0  0  1  0  0  0  0  0  0  0  0  0
  -24.4137  -35.7325   23.5170 C   0  0  2  0  0  0  0  0  0  0  0  0
  -26.4626  -31.8533   25.4059 C   0  0  0  0  0  0  0  0  0  0  0  0
  -25.1027  -17.0946   19.9568 N   0  0  0  0  0  0  0  0  0  0  0  0
  -24.5415  -18.1999   19.4377 N   0  0  0  0  0  0  0  0  0  0  0  0
  -25.6097  -30.7679   22.0954 N   0  0  0  0  0  0  0  0  0  0  0  0
  -24.9561  -21.4749   21.3576 N   0  0  0  0  0  0  0  0  0  0  0  0
  -22.8172  -18.9428   17.9935 N   0  0  0  0  0  0  0  0  0  0  0  0
  -22.3903  -14.4478   17.9000 N   0  0  0  0  0  0  0  0  0  0  0  0
  -22.9154  -22.6144   21.0419 N   0  0  0  0  0  0  0  0  0  0  0  0
  -27.8558  -28.2179   21.0080 N   0  0  0  0  0  0  0  0  0  0  0  0
  -25.5439  -33.6467   23.8750 N   0  0  0  0  0  0  0  0  0  0  0  0
  -18.7323  -25.8657   22.8829 N   0  0  3  0  0  0  0  0  0  0  0  0
  -23.3167  -36.2054   22.6260 N   0  3  0  0  0  0  0  0  0  0  0  0
  -21.5456  -16.4158   17.0801 O   0  0  0  0  0  0  0  0  0  0  0  0
  -26.0013  -28.1686   22.4153 O   0  0  0  0  0  0  0  0  0  0  0  0
  -27.5180  -32.0103   22.5967 O   0  0  0  0  0  0  0  0  0  0  0  0
  -23.2266  -33.6462   23.7917 O   0  0  0  0  0  0  0  0  0  0  0  0
  -24.8297  -23.7610   21.6764 O   0  0  0  0  0  0  0  0  0  0  0  0
  -25.5390  -10.7821   20.6719 O   0  0  0  0  0  0  0  0  0  0  0  0
  -20.0576  -28.3640   20.8923 O   0  0  0  0  0  0  0  0  0  1  0  0
  -21.3077   -7.4581   21.8762 F   0  0  0  0  0  0  0  0  0  0  0  0
  -25.3756   -9.5281   23.1302 F   0  0  0  0  0  0  0  0  0  0  0  0
  -20.3030  -22.2214   20.1805 F   0  0  0  0  0  0  0  0  0  0  0  0
  1  2  1  0  0  0  0
  1  5  2  0  0  0  0
  2  6  2  0  0  0  0
  3 10  2  0  0  0  0
  3 17  1  0  0  0  0
  4 11  1  0  0  0  0
  4 17  2  0  0  0  0
  5 19  1  0  0  0  0
  6 21  1  0  0  0  0
  7 12  2  0  0  0  0
  7 20  1  0  0  0  0
  8  9  2  0  0  0  0
  8 24  1  0  0  0  0
  9 25  1  0  0  0  0
 10 26  1  0  0  0  0
 11 26  2  0  0  0  0
 12 27  1  0  0  0  0
 13 14  2  0  0  0  0
 13 28  1  0  0  0  0
 14 29  1  0  0  0  0
 15 22  1  0  0  0  0
 15 27  2  0  0  0  0
 16 29  2  0  0  0  0
 16 30  1  0  0  0  0
 17 32  1  0  0  0  0
 18 32  1  0  0  0  0
 18 33  2  0  0  0  0
 18 34  1  0  0  0  0
 19 21  2  0  0  0  0
 19 39  1  0  0  0  0
 20 22  2  0  0  0  0
 20 40  1  0  0  0  0
 21 48  1  0  0  0  0
 22 41  1  0  0  0  0
 23 24  2  0  0  0  0
 23 31  1  0  0  0  0
 23 51  1  0  0  0  0
 24 74  1  0  0  0  0
 25 31  2  0  0  0  0
 25 71  1  0  0  0  0
 26 81  1  0  0  0  0
 27 82  1  0  0  0  0
 28 30  2  0  0  0  0
 28 81  1  0  0  0  0
 29 83  1  0  0  0  0
 30 84  1  0  0  0  0
 31 85  1  0  0  0  0
 32 65  2  0  0  0  0
 33 66  1  0  0  0  0
 33 69  1  0  0  0  0
 34 70  1  0  0  0  0
 34 76  2  0  0  0  0
 35 49  1  0  0  0  0
 35 72  1  0  0  0  0
 35 77  2  0  0  0  0
 36 62  1  0  0  0  0
 36 67  1  0  0  0  0
 36 78  2  0  0  0  0
 37 63  1  0  0  0  0
 37 73  1  0  0  0  0
 37 79  2  0  0  0  0
 38 68  1  0  0  0  0
 38 71  1  0  0  0  0
 38 80  2  0  0  0  0
 39 42  1  0  0  0  0
 40 49  1  0  0  0  0
 41 67  1  0  0  0  0
 42 44  1  0  0  0  0
 43 45  1  0  0  0  0
 43 46  1  0  0  0  0
 44 48  1  0  0  0  0
 45 50  1  0  0  0  0
 46 68  1  0  0  0  0
 47 50  1  0  0  0  0
 47 68  1  0  0  0  0
 48 72  1  0  0  0  0
 49 67  1  0  0  0  0
 50 66  1  0  0  0  0
 52 59  1  0  0  0  0
 53 63  1  0  0  0  0
 54 64  1  0  0  0  0
 55 64  1  0  0  0  0
 56 64  1  0  0  0  0
 57 75  1  0  0  0  0
 58 60  1  0  0  0  0
 58 61  1  0  0  0  0
 59 74  1  0  0  0  0
 60 74  1  0  0  0  0
 61 82  1  0  0  0  0
 62 64  1  0  0  0  0
 62 73  1  0  0  0  0
 63 75  1  0  0  0  0
 65 66  1  0  0  0  0
M  CHG  1  75   1
M  ISO  4  38 100  61 101  71 100  82 101
M  END
> <Batch ID>
0023

> <Smiles>
CCN(CC[101CH2:1][101O:1]c1ccc2c(c1)CN(C(=O)C(NC(=O)C(C)NC)C(C)(C)C)C(C(=O)NC1CCCc3ccccc31)C2)c1ccc([100NH:0][100C:0](=O)N2CCCC(n3nc(-c4ccc(Oc5ccc(F)cc5F)cc4)c(C(N)=O)c3N)C2)c(F)c1C

> <Shape>
0.304

> <Color>
0.088

> <Negative vol penalty>
0.000

$$$$

  -OEChem-04042321173D

 85 94  0     1  0  0  0  0  0999 V2000
  -19.9190  -27.3796   25.9308 C   0  0  0  0  0  0  0  0  0  0  0  0
  -21.2634  -27.0248   25.9790 C   0  0  0  0  0  0  0  0  0  0  0  0
  -23.1759   -9.8181   21.4044 C   0  0  0  0  0  0  0  0  0  0  0  0
  -23.8423  -10.7970   23.5103 C   0  0  0  0  0  0  0  0  0  0  0  0
  -19.2636  -27.4580   24.7027 C   0  0  0  0  0  0  0  0  0  0  0  0
  -21.9528  -26.7472   24.7992 C   0  0  0  0  0  0  0  0  0  0  0  0
  -28.4678  -27.3129   21.8749 C   0  0  0  0  0  0  0  0  0  0  0  0
  -29.4326  -19.6527   19.9230 C   0  0  0  0  0  0  0  0  0  0  0  0
  -29.3020  -18.3814   20.4818 C   0  0  0  0  0  0  0  0  0  0  0  0
  -22.4533   -8.8400   22.0878 C   0  0  0  0  0  0  0  0  0  0  0  0
  -23.1197   -9.8190   24.1936 C   0  0  0  0  0  0  0  0  0  0  0  0
  -29.4273  -26.5384   21.2244 C   0  0  0  0  0  0  0  0  0  0  0  0
  -19.8922   -9.2084   24.9876 C   0  0  0  0  0  0  0  0  0  0  0  0
  -19.0900   -9.6220   26.0511 C   0  0  0  0  0  0  0  0  0  0  0  0
  -28.2128  -26.7830   19.1545 C   0  0  0  0  0  0  0  0  0  0  0  0
  -31.0076  -17.5490   18.9868 C   0  0  0  0  0  0  0  0  0  0  0  0
  -20.3516   -8.2100   27.5518 C   0  0  0  0  0  0  0  0  0  0  0  0
  -23.8704  -10.7965   22.1157 C   0  0  0  0  0  0  0  0  0  0  0  0
  -24.1499  -13.0613   20.9754 C   0  0  0  0  0  0  0  0  0  0  0  0
  -19.9478  -27.1906   23.5065 C   0  0  0  0  0  0  0  0  0  0  0  0
  -27.3659  -27.8200   21.1712 C   0  0  0  0  0  0  0  0  0  0  0  0
  -21.3056  -26.8208   23.5541 C   0  0  0  0  0  0  0  0  0  0  0  0
  -27.2420  -27.5658   19.7978 C   0  0  0  0  0  0  0  0  0  0  0  0
  -30.3506  -19.8721   18.8959 C   0  0  0  0  0  0  0  0  0  0  0  0
  -30.0895  -17.3295   20.0138 C   0  0  0  0  0  0  0  0  0  0  0  0
  -22.4252   -8.8405   23.4823 C   0  0  0  0  0  0  0  0  0  0  0  0
  -29.2984  -26.2709   19.8646 C   0  0  0  0  0  0  0  0  0  0  0  0
  -20.9240   -8.2955   25.2062 C   0  0  0  0  0  0  0  0  0  0  0  0
  -19.3197   -9.1229   27.3332 C   0  0  0  0  0  0  0  0  0  0  0  0
  -31.1381  -18.8203   18.4279 C   0  0  0  0  0  0  0  0  0  0  0  0
  -21.1537   -7.7964   26.4883 C   0  0  0  0  0  0  0  0  0  0  0  0
  -24.6175  -11.8068   21.4104 C   0  0  0  0  0  0  0  0  0  0  0  0
  -25.2356  -13.6393   20.3641 C   0  0  0  0  0  0  0  0  0  0  0  0
  -30.2649  -22.4049   18.9787 C   0  0  0  0  0  0  0  0  0  0  0  0
  -22.8504  -13.6515   21.1118 C   0  0  0  0  0  0  0  0  0  0  0  0
  -24.2154  -27.4450   21.3640 C   0  0  0  0  0  0  0  0  0  0  0  0
  -24.1922  -29.7647   19.0968 C   0  0  0  0  0  0  0  0  0  0  0  0
  -25.8490  -31.3823   16.5897 C   0  0  0  0  0  0  0  0  0  0  0  0
  -30.6607  -14.8858   20.2338 C   0  0  0  0  0  0  0  0  0  0  0  0
  -19.1848  -27.2423   22.2066 C   0  0  0  0  0  0  0  0  0  0  0  0
  -26.3537  -28.6761   21.8818 C   0  0  0  0  0  0  0  0  0  0  0  0
  -26.0885  -28.1039   18.9926 C   0  0  0  0  0  0  0  0  0  0  0  0
  -20.0840  -27.2975   20.9743 C   0  0  0  0  0  0  0  0  0  0  0  0
  -29.7069  -11.6693   19.0417 C   0  0  0  0  0  0  0  0  0  0  0  0
  -21.1986  -26.2615   21.0799 C   0  0  0  0  0  0  0  0  0  0  0  0
  -28.2593  -11.5215   19.5159 C   0  0  0  0  0  0  0  0  0  0  0  0
  -30.5420  -22.8086   16.6497 C   0  0  0  0  0  0  0  0  0  0  0  0
  -30.5665  -12.4084   20.0657 C   0  0  0  0  0  0  0  0  0  0  0  0
  -30.9272  -21.3760   16.9597 C   0  0  0  0  0  0  0  0  0  0  0  0
  -28.5869  -13.5579   20.9763 C   0  0  0  0  0  0  0  0  0  0  0  0
  -22.0940  -26.5363   22.2941 C   0  0  1  0  0  0  0  0  0  0  0  0
  -30.6597  -23.4994   18.0005 C   0  0  1  0  0  0  0  0  0  0  0  0
  -25.0012  -28.7119   21.1768 C   0  0  1  0  0  0  0  0  0  0  0  0
  -27.6672  -12.8768   19.9497 C   0  0  2  0  0  0  0  0  0  0  0  0
  -25.5579  -33.2101   14.8951 C   0  0  0  0  0  0  0  0  0  0  0  0
  -22.4732  -27.9074   17.3923 C   0  0  0  0  0  0  0  0  0  0  0  0
  -23.0086  -29.3429   15.4122 C   0  0  0  0  0  0  0  0  0  0  0  0
  -21.7717  -30.3075   17.3518 C   0  0  0  0  0  0  0  0  0  0  0  0
  -28.0698  -32.9631   17.7421 C   0  0  0  0  0  0  0  0  0  0  0  0
  -29.7920  -24.7387   18.1140 C   0  0  0  0  0  0  0  0  0  1  0  0
  -24.2341  -29.7853   17.5879 C   0  0  1  0  0  0  0  0  0  0  0  0
  -26.0362  -32.8597   16.2955 C   0  0  2  0  0  0  0  0  0  0  0  0
  -22.8927  -29.3239   16.9514 C   0  0  0  0  0  0  0  0  0  0  0  0
  -25.9003  -11.5992   21.1015 N   0  0  0  0  0  0  0  0  0  0  0  0
  -26.2480  -12.7310   20.4658 N   0  0  0  0  0  0  0  0  0  0  0  0
  -30.4820  -21.1739   18.3259 N   0  0  0  0  0  0  0  0  0  0  0  0
  -25.1216  -28.9304   19.7339 N   0  0  0  0  0  0  0  0  0  0  0  0
  -29.9455  -13.6849   20.4260 N   0  0  0  0  0  0  0  0  0  0  0  0
  -25.4135  -14.8307   19.7547 N   0  0  0  0  0  0  0  0  0  0  0  0
  -21.8501  -12.9207   21.7673 N   0  0  0  0  0  0  0  0  0  0  0  0
  -29.9567  -16.0382   20.5817 N   0  0  0  0  0  0  0  0  0  0  0  0
  -23.0081  -27.6224   22.0125 N   0  0  0  0  0  0  0  0  0  0  0  0
  -24.6425  -31.1338   17.2092 N   0  0  0  0  0  0  0  0  0  0  0  0
  -27.4749  -33.2320   16.4076 N   0  3  0  0  0  0  0  0  0  0  0  0
  -29.8980  -22.6300   20.1229 O   0  0  0  0  0  0  0  0  0  0  0  0
  -22.5795  -14.7864   20.6512 O   0  0  0  0  0  0  0  0  0  0  0  0
  -24.6700  -26.3852   20.9495 O   0  0  0  0  0  0  0  0  0  0  0  0
  -23.3700  -30.4686   19.6885 O   0  0  0  0  0  0  0  0  0  0  0  0
  -26.6875  -30.5331   16.2958 O   0  0  0  0  0  0  0  0  0  0  0  0
  -31.8029  -14.8934   19.7675 O   0  0  0  0  0  0  0  0  0  0  0  0
  -21.7200   -7.8864   24.1495 O   0  0  0  0  0  0  0  0  0  0  0  0
  -30.2332  -25.5147   19.2274 O   0  0  0  0  0  0  0  0  0  1  0  0
  -18.5503   -9.5213   28.3547 F   0  0  0  0  0  0  0  0  0  0  0  0
  -32.0234  -19.0194   17.4407 F   0  0  0  0  0  0  0  0  0  0  0  0
  -22.1442   -6.9201   26.7046 F   0  0  0  0  0  0  0  0  0  0  0  0
  1  2  1  0  0  0  0
  1  5  2  0  0  0  0
  2  6  2  0  0  0  0
  3 10  2  0  0  0  0
  3 18  1  0  0  0  0
  4 11  1  0  0  0  0
  4 18  2  0  0  0  0
  5 20  1  0  0  0  0
  6 22  1  0  0  0  0
  7 12  2  0  0  0  0
  7 21  1  0  0  0  0
  8  9  2  0  0  0  0
  8 24  1  0  0  0  0
  9 25  1  0  0  0  0
 10 26  1  0  0  0  0
 11 26  2  0  0  0  0
 12 27  1  0  0  0  0
 13 14  2  0  0  0  0
 13 28  1  0  0  0  0
 14 29  1  0  0  0  0
 15 23  1  0  0  0  0
 15 27  2  0  0  0  0
 16 25  2  0  0  0  0
 16 30  1  0  0  0  0
 17 29  2  0  0  0  0
 17 31  1  0  0  0  0
 18 32  1  0  0  0  0
 19 32  1  0  0  0  0
 19 33  2  0  0  0  0
 19 35  1  0  0  0  0
 20 22  2  0  0  0  0
 20 40  1  0  0  0  0
 21 23  2  0  0  0  0
 21 41  1  0  0  0  0
 22 51  1  0  0  0  0
 23 42  1  0  0  0  0
 24 30  2  0  0  0  0
 24 66  1  0  0  0  0
 25 71  1  0  0  0  0
 26 81  1  0  0  0  0
 27 82  1  0  0  0  0
 28 31  2  0  0  0  0
 28 81  1  0  0  0  0
 29 83  1  0  0  0  0
 30 84  1  0  0  0  0
 31 85  1  0  0  0  0
 32 64  2  0  0  0  0
 33 65  1  0  0  0  0
 33 69  1  0  0  0  0
 34 52  1  0  0  0  0
 34 66  1  0  0  0  0
 34 75  2  0  0  0  0
 35 70  1  0  0  0  0
 35 76  2  0  0  0  0
 36 53  1  0  0  0  0
 36 72  1  0  0  0  0
 36 77  2  0  0  0  0
 37 61  1  0  0  0  0
 37 67  1  0  0  0  0
 37 78  2  0  0  0  0
 38 62  1  0  0  0  0
 38 73  1  0  0  0  0
 38 79  2  0  0  0  0
 39 68  1  0  0  0  0
 39 71  1  0  0  0  0
 39 80  2  0  0  0  0
 40 43  1  0  0  0  0
 41 53  1  0  0  0  0
 42 67  1  0  0  0  0
 43 45  1  0  0  0  0
 44 46  1  0  0  0  0
 44 48  1  0  0  0  0
 45 51  1  0  0  0  0
 46 54  1  0  0  0  0
 47 49  1  0  0  0  0
 47 52  1  0  0  0  0
 48 68  1  0  0  0  0
 49 66  1  0  0  0  0
 50 54  1  0  0  0  0
 50 68  1  0  0  0  0
 51 72  1  0  0  0  0
 52 60  1  0  0  0  0
 53 67  1  0  0  0  0
 54 65  1  0  0  0  0
 55 62  1  0  0  0  0
 56 63  1  0  0  0  0
 57 63  1  0  0  0  0
 58 63  1  0  0  0  0
 59 74  1  0  0  0  0
 60 82  1  0  0  0  0
 61 63  1  0  0  0  0
 61 73  1  0  0  0  0
 62 74  1  0  0  0  0
 64 65  1  0  0  0  0
M  CHG  1  74   1
M  ISO  4  39 100  60 101  71 100  82 101
M  END
> <Batch ID>
0023

> <Smiles>
CNC(C)C(=O)NC(C(=O)N1Cc2cc([101O:1][101CH2:1]C3CCN(c4ccc([100NH:0][100C:0](=O)N5CCCC(n6nc(-c7ccc(Oc8ccc(F)cc8F)cc7)c(C(N)=O)c6N)C5)cc4F)C3=O)ccc2CC1C(=O)NC1CCCc2ccccc21)C(C)(C)C

> <Shape>
0.287

> <Color>
0.171

> <Negative vol penalty>
0.000

$$$$

  -OEChem-04042321173D

 84 92  0     1  0  0  0  0  0999 V2000
  -32.1873  -24.3082   17.0865 C   0  0  0  0  0  0  0  0  0  0  0  0
  -30.9089  -24.5827   16.6114 C   0  0  0  0  0  0  0  0  0  0  0  0
  -24.9490  -15.2273   19.3510 C   0  0  0  0  0  0  0  0  0  0  0  0
  -23.7485  -14.4638   21.3036 C   0  0  0  0  0  0  0  0  0  0  0  0
  -32.4147  -24.2155   18.4589 C   0  0  0  0  0  0  0  0  0  0  0  0
  -29.8568  -24.7635   17.5085 C   0  0  0  0  0  0  0  0  0  0  0  0
  -23.7706  -28.4570   18.3040 C   0  0  0  0  0  0  0  0  0  0  0  0
  -25.6884  -14.0446   19.3431 C   0  0  0  0  0  0  0  0  0  0  0  0
  -24.4878  -13.2810   21.2957 C   0  0  0  0  0  0  0  0  0  0  0  0
  -22.4212  -28.2600   18.5939 C   0  0  0  0  0  0  0  0  0  0  0  0
  -28.3265  -12.7457   21.0096 C   0  0  0  0  0  0  0  0  0  0  0  0
  -29.7042  -12.8449   20.8153 C   0  0  0  0  0  0  0  0  0  0  0  0
  -22.9479  -28.1553   20.9456 C   0  0  0  0  0  0  0  0  0  0  0  0
  -20.4309  -22.5548   23.6623 C   0  0  0  0  0  0  0  0  0  0  0  0
  -19.1787  -21.5792   25.4835 C   0  0  0  0  0  0  0  0  0  0  0  0
  -18.3424  -23.5482   24.3608 C   0  0  0  0  0  0  0  0  0  0  0  0
  -29.5223  -11.4807   18.8296 C   0  0  0  0  0  0  0  0  0  0  0  0
  -23.9790  -15.4369   20.3313 C   0  0  0  0  0  0  0  0  0  0  0  0
  -21.9936  -16.9024   19.6848 C   0  0  0  0  0  0  0  0  0  0  0  0
  -31.3668  -24.4049   19.3736 C   0  0  0  0  0  0  0  0  0  0  0  0
  -24.7218  -28.4939   19.3337 C   0  0  0  0  0  0  0  0  0  0  0  0
  -30.0701  -24.6720   18.8944 C   0  0  0  0  0  0  0  0  0  0  0  0
  -24.3084  -28.3555   20.6664 C   0  0  0  0  0  0  0  0  0  0  0  0
  -20.2923  -21.5733   24.6436 C   0  0  0  0  0  0  0  0  0  0  0  0
  -19.4560  -23.5423   23.5209 C   0  0  0  0  0  0  0  0  0  0  0  0
  -25.4578  -13.0714   20.3154 C   0  0  0  0  0  0  0  0  0  0  0  0
  -22.0100  -28.1062   19.9146 C   0  0  0  0  0  0  0  0  0  0  0  0
  -27.5467  -12.0140   20.1140 C   0  0  0  0  0  0  0  0  0  0  0  0
  -30.3021  -12.2124   19.7253 C   0  0  0  0  0  0  0  0  0  0  0  0
  -18.2037  -22.5667   25.3422 C   0  0  0  0  0  0  0  0  0  0  0  0
  -28.1446  -11.3815   19.0240 C   0  0  0  0  0  0  0  0  0  0  0  0
  -23.2153  -16.6587   20.3404 C   0  0  0  0  0  0  0  0  0  0  0  0
  -21.6855  -18.2021   20.0047 C   0  0  0  0  0  0  0  0  0  0  0  0
  -21.2074  -16.0317   18.8604 C   0  0  0  0  0  0  0  0  0  0  0  0
  -27.2610  -26.7444   20.1055 C   0  0  0  0  0  0  0  0  0  0  0  0
  -27.6668  -29.0358   22.3654 C   0  0  0  0  0  0  0  0  0  0  0  0
  -26.2697  -31.4710   24.3058 C   0  0  0  0  0  0  0  0  0  0  0  0
  -23.6574  -21.5222   24.7615 C   0  0  0  0  0  0  0  0  0  0  0  0
  -31.6517  -24.2482   20.8464 C   0  0  0  0  0  0  0  0  0  0  0  0
  -26.1702  -28.7340   19.0065 C   0  0  0  0  0  0  0  0  0  0  0  0
  -25.2873  -28.4076   21.8099 C   0  0  0  0  0  0  0  0  0  0  0  0
  -30.5584  -24.8239   21.7428 C   0  0  0  0  0  0  0  0  0  0  0  0
  -23.7191  -22.3696   21.1587 C   0  0  0  0  0  0  0  0  0  0  0  0
  -29.1816  -24.3840   21.2552 C   0  0  0  0  0  0  0  0  0  0  0  0
  -23.5639  -21.0035   20.4926 C   0  0  0  0  0  0  0  0  0  0  0  0
  -24.3914  -22.2617   22.5241 C   0  0  0  0  0  0  0  0  0  0  0  0
  -23.5647  -19.9461   22.7866 C   0  0  0  0  0  0  0  0  0  0  0  0
  -28.9081  -24.8990   19.8369 C   0  0  1  0  0  0  0  0  0  0  0  0
  -27.1184  -28.2402   20.0948 C   0  0  1  0  0  0  0  0  0  0  0  0
  -22.8487  -20.0144   21.4293 C   0  0  2  0  0  0  0  0  0  0  0  0
  -26.8461  -33.1460   26.0833 C   0  0  0  0  0  0  0  0  0  0  0  0
  -27.7732  -26.7978   24.4366 C   0  0  0  0  0  0  0  0  0  0  0  0
  -27.3922  -28.5193   26.2141 C   0  0  0  0  0  0  0  0  0  0  0  0
  -29.4392  -28.6287   24.7926 C   0  0  0  0  0  0  0  0  0  0  0  0
  -22.4291  -21.2521   26.8823 C   0  0  0  0  0  0  0  0  0  0  0  0
  -25.4538  -33.7424   22.5930 C   0  0  0  0  0  0  0  0  0  0  0  0
  -21.3351  -20.5181   24.7966 C   0  0  0  0  0  0  0  0  0  0  0  0
  -19.0494  -26.4443   21.1480 C   0  0  0  0  0  0  0  0  0  0  0  0
  -18.6361  -25.5759   22.3301 C   0  0  0  0  0  0  0  0  0  0  0  0
  -20.3872  -27.1425   21.3616 C   0  0  0  0  0  0  0  0  0  1  0  0
  -27.1986  -29.2298   23.7874 C   0  0  1  0  0  0  0  0  0  0  0  0
  -26.6951  -32.9002   24.5901 C   0  0  2  0  0  0  0  0  0  0  0  0
  -27.9323  -28.2909   24.7862 C   0  0  0  0  0  0  0  0  0  0  0  0
  -23.6535  -17.7186   21.0249 N   0  0  0  0  0  0  0  0  0  0  0  0
  -22.7021  -18.6409   20.8011 N   0  0  0  0  0  0  0  0  0  0  0  0
  -26.6931  -28.6382   21.4383 N   0  0  0  0  0  0  0  0  0  0  0  0
  -23.7174  -21.2835   23.3786 N   0  0  0  0  0  0  0  0  0  0  0  0
  -20.6471  -19.0010   19.6795 N   0  0  0  0  0  0  0  0  0  0  0  0
  -21.6699  -14.7282   18.6341 N   0  0  0  0  0  0  0  0  0  0  0  0
  -19.5939  -24.5186   22.5466 N   0  0  0  0  0  0  0  0  0  0  0  0
  -28.5479  -26.3003   19.8687 N   0  0  0  0  0  0  0  0  0  0  0  0
  -27.3546  -30.6508   24.0784 N   0  0  0  0  0  0  0  0  0  0  0  0
  -22.5422  -21.0203   25.4493 N   0  0  0  0  0  0  0  0  0  0  0  0
  -25.6853  -33.8572   24.0559 N   0  3  0  0  0  0  0  0  0  0  0  0
  -20.1351  -16.4041   18.3265 O   0  0  0  0  0  0  0  0  0  0  0  0
  -26.2767  -26.0451   20.3146 O   0  0  0  0  0  0  0  0  0  0  0  0
  -28.8514  -29.2369   22.0861 O   0  0  0  0  0  0  0  0  0  0  0  0
  -25.0930  -31.1167   24.2909 O   0  0  0  0  0  0  0  0  0  0  0  0
  -24.5450  -22.1564   25.3462 O   0  0  0  0  0  0  0  0  0  0  0  0
  -26.1790  -11.9171   20.3078 O   0  0  0  0  0  0  0  0  0  0  0  0
  -20.6936  -27.9131   20.2002 O   0  0  0  0  0  0  0  0  0  1  0  0
  -31.6249  -12.3090   19.5380 F   0  0  0  0  0  0  0  0  0  0  0  0
  -17.1341  -22.5719   26.1484 F   0  0  0  0  0  0  0  0  0  0  0  0
  -27.4005  -10.6781   18.1595 F   0  0  0  0  0  0  0  0  0  0  0  0
  1  2  1  0  0  0  0
  1  5  2  0  0  0  0
  2  6  2  0  0  0  0
  3  8  2  0  0  0  0
  3 18  1  0  0  0  0
  4  9  1  0  0  0  0
  4 18  2  0  0  0  0
  5 20  1  0  0  0  0
  6 22  1  0  0  0  0
  7 10  2  0  0  0  0
  7 21  1  0  0  0  0
  8 26  1  0  0  0  0
  9 26  2  0  0  0  0
 10 27  1  0  0  0  0
 11 12  2  0  0  0  0
 11 28  1  0  0  0  0
 12 29  1  0  0  0  0
 13 23  1  0  0  0  0
 13 27  2  0  0  0  0
 14 24  1  0  0  0  0
 14 25  2  0  0  0  0
 15 24  2  0  0  0  0
 15 30  1  0  0  0  0
 16 25  1  0  0  0  0
 16 30  2  0  0  0  0
 17 29  2  0  0  0  0
 17 31  1  0  0  0  0
 18 32  1  0  0  0  0
 19 32  1  0  0  0  0
 19 33  2  0  0  0  0
 19 34  1  0  0  0  0
 20 22  2  0  0  0  0
 20 39  1  0  0  0  0
 21 23  2  0  0  0  0
 21 40  1  0  0  0  0
 22 48  1  0  0  0  0
 23 41  1  0  0  0  0
 24 57  1  0  0  0  0
 25 70  1  0  0  0  0
 26 80  1  0  0  0  0
 27 81  1  0  0  0  0
 28 31  2  0  0  0  0
 28 80  1  0  0  0  0
 29 82  1  0  0  0  0
 30 83  1  0  0  0  0
 31 84  1  0  0  0  0
 32 64  2  0  0  0  0
 33 65  1  0  0  0  0
 33 68  1  0  0  0  0
 34 69  1  0  0  0  0
 34 75  2  0  0  0  0
 35 49  1  0  0  0  0
 35 71  1  0  0  0  0
 35 76  2  0  0  0  0
 36 61  1  0  0  0  0
 36 66  1  0  0  0  0
 36 77  2  0  0  0  0
 37 62  1  0  0  0  0
 37 72  1  0  0  0  0
 37 78  2  0  0  0  0
 38 67  1  0  0  0  0
 38 73  1  0  0  0  0
 38 79  2  0  0  0  0
 39 42  1  0  0  0  0
 40 49  1  0  0  0  0
 41 66  1  0  0  0  0
 42 44  1  0  0  0  0
 43 45  1  0  0  0  0
 43 46  1  0  0  0  0
 44 48  1  0  0  0  0
 45 50  1  0  0  0  0
 46 67  1  0  0  0  0
 47 50  1  0  0  0  0
 47 67  1  0  0  0  0
 48 71  1  0  0  0  0
 49 66  1  0  0  0  0
 50 65  1  0  0  0  0
 51 62  1  0  0  0  0
 52 63  1  0  0  0  0
 53 63  1  0  0  0  0
 54 63  1  0  0  0  0
 55 73  1  0  0  0  0
 56 74  1  0  0  0  0
 57 73  1  0  0  0  0
 58 59  1  0  0  0  0
 58 60  1  0  0  0  0
 59 70  1  0  0  0  0
 60 81  1  0  0  0  0
 61 63  1  0  0  0  0
 61 72  1  0  0  0  0
 62 74  1  0  0  0  0
 64 65  1  0  0  0  0
M  CHG  1  74   1
M  ISO  4  38 100  60 101  73 100  81 101
M  END
> <Batch ID>
0023

> <Smiles>
CNC(C)C(=O)NC(C(=O)N1Cc2cc([101O:1][101CH2:1]CCNc3cc(F)cc(C[100N:0](C)[100C:0](=O)N4CCCC(n5nc(-c6ccc(Oc7ccc(F)cc7F)cc6)c(C(N)=O)c5N)C4)c3)ccc2CC1C(=O)NC1CCCc2ccccc21)C(C)(C)C

> <Shape>
0.227

> <Color>
0.064

> <Negative vol penalty>
0.000

$$$$

  -OEChem-04042321173D

 87 96  0     1  0  0  0  0  0999 V2000
  -34.6977  -30.5278   21.1393 C   0  0  0  0  0  0  0  0  0  0  0  0
  -34.5045  -29.2063   20.7496 C   0  0  0  0  0  0  0  0  0  0  0  0
  -23.0700   -9.8561   19.8895 C   0  0  0  0  0  0  0  0  0  0  0  0
  -23.8625   -9.7665   22.1701 C   0  0  0  0  0  0  0  0  0  0  0  0
  -33.5993  -31.3329   21.4380 C   0  0  0  0  0  0  0  0  0  0  0  0
  -33.2127  -28.6889   20.6595 C   0  0  0  0  0  0  0  0  0  0  0  0
  -32.4925  -25.9863   16.4379 C   0  0  0  0  0  0  0  0  0  0  0  0
  -22.3544   -8.6761   20.0918 C   0  0  0  0  0  0  0  0  0  0  0  0
  -23.1468   -8.5864   22.3724 C   0  0  0  0  0  0  0  0  0  0  0  0
  -33.0054  -24.6901   16.4164 C   0  0  0  0  0  0  0  0  0  0  0  0
  -23.4999   -5.3031   21.6469 C   0  0  0  0  0  0  0  0  0  0  0  0
  -24.1472   -4.2573   22.3047 C   0  0  0  0  0  0  0  0  0  0  0  0
  -30.8097  -23.8196   16.9064 C   0  0  0  0  0  0  0  0  0  0  0  0
  -29.5194  -19.2717   22.6999 C   0  0  0  0  0  0  0  0  0  0  0  0
  -30.9866  -17.8166   20.8257 C   0  0  0  0  0  0  0  0  0  0  0  0
  -22.4672   -4.3092   24.0403 C   0  0  0  0  0  0  0  0  0  0  0  0
  -23.8241  -10.4013   20.9287 C   0  0  0  0  0  0  0  0  0  0  0  0
  -24.1107  -12.9362   20.9297 C   0  0  0  0  0  0  0  0  0  0  0  0
  -32.2930  -30.8280   21.3423 C   0  0  0  0  0  0  0  0  0  0  0  0
  -31.1341  -26.2099   16.7050 C   0  0  0  0  0  0  0  0  0  0  0  0
  -32.0959  -29.4877   20.9586 C   0  0  0  0  0  0  0  0  0  0  0  0
  -30.2815  -25.1194   16.9281 C   0  0  0  0  0  0  0  0  0  0  0  0
  -30.3939  -19.9300   21.8354 C   0  0  0  0  0  0  0  0  0  0  0  0
  -31.1275  -19.2024   20.8983 C   0  0  0  0  0  0  0  0  0  0  0  0
  -30.1120  -17.1583   21.6903 C   0  0  0  0  0  0  0  0  0  0  0  0
  -22.3927   -8.0412   21.3332 C   0  0  0  0  0  0  0  0  0  0  0  0
  -32.1646  -23.6067   16.6535 C   0  0  0  0  0  0  0  0  0  0  0  0
  -22.3363   -5.8521   22.1857 C   0  0  0  0  0  0  0  0  0  0  0  0
  -23.6309   -3.7603   23.5014 C   0  0  0  0  0  0  0  0  0  0  0  0
  -29.3785  -17.8858   22.6274 C   0  0  0  0  0  0  0  0  0  0  0  0
  -21.8199   -5.3551   23.3824 C   0  0  0  0  0  0  0  0  0  0  0  0
  -24.5640  -11.6200   20.7202 C   0  0  0  0  0  0  0  0  0  0  0  0
  -25.1814  -13.7264   20.5896 C   0  0  0  0  0  0  0  0  0  0  0  0
  -22.8357  -13.4028   21.3906 C   0  0  0  0  0  0  0  0  0  0  0  0
  -29.5163  -27.7370   18.9753 C   0  0  0  0  0  0  0  0  0  0  0  0
  -26.9701  -27.0260   17.0955 C   0  0  0  0  0  0  0  0  0  0  0  0
  -25.6088  -25.0089   14.7028 C   0  0  0  0  0  0  0  0  0  0  0  0
  -30.6262  -14.8812   20.7432 C   0  0  0  0  0  0  0  0  0  0  0  0
  -31.1393  -31.7225   21.7210 C   0  0  0  0  0  0  0  0  0  0  0  0
  -30.5911  -27.6126   16.6982 C   0  0  0  0  0  0  0  0  0  0  0  0
  -28.8116  -25.3046   17.1996 C   0  0  0  0  0  0  0  0  0  0  0  0
  -29.7855  -31.2076   21.2389 C   0  0  0  0  0  0  0  0  0  0  0  0
  -31.0222  -23.4883   22.7606 C   0  0  0  0  0  0  0  0  0  0  0  0
  -30.4210  -23.6316   21.3771 C   0  0  0  0  0  0  0  0  0  0  0  0
  -29.5292  -12.5635   18.2730 C   0  0  0  0  0  0  0  0  0  0  0  0
  -29.6380  -29.7216   21.5499 C   0  0  0  0  0  0  0  0  0  0  0  0
  -28.1023  -12.2197   18.7067 C   0  0  0  0  0  0  0  0  0  0  0  0
  -31.4844  -22.0357   22.7780 C   0  0  0  0  0  0  0  0  0  0  0  0
  -29.7074  -22.2989   21.1808 C   0  0  0  0  0  0  0  0  0  0  0  0
  -30.4564  -12.7526   19.4723 C   0  0  0  0  0  0  0  0  0  0  0  0
  -28.5546  -13.3662   20.9131 C   0  0  0  0  0  0  0  0  0  0  0  0
  -30.7089  -28.8973   20.8252 C   0  0  1  0  0  0  0  0  0  0  0  0
  -29.2945  -27.7552   17.4893 C   0  0  1  0  0  0  0  0  0  0  0  0
  -27.5688  -13.2301   19.7412 C   0  0  2  0  0  0  0  0  0  0  0  0
  -23.4966  -24.6519   13.3958 C   0  0  0  0  0  0  0  0  0  0  0  0
  -25.6636  -25.7757   19.5530 C   0  0  0  0  0  0  0  0  0  0  0  0
  -24.0467  -24.6288   18.0238 C   0  0  0  0  0  0  0  0  0  0  0  0
  -24.1170  -27.1205   18.1199 C   0  0  0  0  0  0  0  0  0  0  0  0
  -26.9872  -25.4759   12.1258 C   0  0  0  0  0  0  0  0  0  0  0  0
  -33.0487  -20.3256   17.8791 C   0  0  0  0  0  0  0  0  0  0  0  0
  -32.4694  -19.2546   18.7954 C   0  0  0  0  0  0  0  0  0  0  0  0
  -32.0242  -21.3781   17.4719 C   0  0  0  0  0  0  0  0  0  1  0  0
  -26.0047  -25.8697   16.9955 C   0  0  1  0  0  0  0  0  0  0  0  0
  -24.8578  -25.3294   13.4231 C   0  0  2  0  0  0  0  0  0  0  0  0
  -24.9861  -25.8450   18.1699 C   0  0  0  0  0  0  0  0  0  0  0  0
  -25.8245  -11.5726   20.2809 N   0  0  0  0  0  0  0  0  0  0  0  0
  -26.1723  -12.8688   20.2115 N   0  0  0  0  0  0  0  0  0  0  0  0
  -30.5202  -21.3294   21.9254 N   0  0  0  0  0  0  0  0  0  0  0  0
  -28.3295  -26.6956   17.1887 N   0  0  0  0  0  0  0  0  0  0  0  0
  -29.8884  -13.7264   20.4071 N   0  0  0  0  0  0  0  0  0  0  0  0
  -25.3625  -15.0641   20.5800 N   0  0  0  0  0  0  0  0  0  0  0  0
  -21.8482  -12.4562   21.6957 N   0  0  0  0  0  0  0  0  0  0  0  0
  -29.9712  -15.7504   21.6151 N   0  0  0  0  0  0  0  0  0  0  0  0
  -32.0019  -19.8372   20.0300 N   0  0  0  0  0  0  0  0  0  0  0  0
  -30.3610  -28.7315   19.4303 N   0  0  0  0  0  0  0  0  0  0  0  0
  -25.3920  -25.9625   15.6748 N   0  0  0  0  0  0  0  0  0  0  0  0
  -25.6352  -24.8704   12.2374 N   0  3  0  0  0  0  0  0  0  0  0  0
  -22.5743  -14.6236   21.5121 O   0  0  0  0  0  0  0  0  0  0  0  0
  -28.9609  -26.8848   19.6587 O   0  0  0  0  0  0  0  0  0  0  0  0
  -26.5346  -28.1801   17.0838 O   0  0  0  0  0  0  0  0  0  0  0  0
  -26.3142  -24.0103   14.8289 O   0  0  0  0  0  0  0  0  0  0  0  0
  -31.7446  -15.0975   20.2696 O   0  0  0  0  0  0  0  0  0  0  0  0
  -21.6943   -6.8898   21.5310 O   0  0  0  0  0  0  0  0  0  0  0  0
  -32.6628  -22.3405   16.6338 O   0  0  0  0  0  0  0  0  0  1  0  0
  -24.2517   -2.7550   24.1323 F   0  0  0  0  0  0  0  0  0  0  0  0
  -28.5353  -17.2635   23.4637 F   0  0  0  0  0  0  0  0  0  0  0  0
  -20.7017   -5.8776   23.9043 F   0  0  0  0  0  0  0  0  0  0  0  0
  1  2  1  0  0  0  0
  1  5  2  0  0  0  0
  2  6  2  0  0  0  0
  3  8  2  0  0  0  0
  3 17  1  0  0  0  0
  4  9  1  0  0  0  0
  4 17  2  0  0  0  0
  5 19  1  0  0  0  0
  6 21  1  0  0  0  0
  7 10  2  0  0  0  0
  7 20  1  0  0  0  0
  8 26  1  0  0  0  0
  9 26  2  0  0  0  0
 10 27  1  0  0  0  0
 11 12  2  0  0  0  0
 11 28  1  0  0  0  0
 12 29  1  0  0  0  0
 13 22  1  0  0  0  0
 13 27  2  0  0  0  0
 14 23  1  0  0  0  0
 14 30  2  0  0  0  0
 15 24  1  0  0  0  0
 15 25  2  0  0  0  0
 16 29  2  0  0  0  0
 16 31  1  0  0  0  0
 17 32  1  0  0  0  0
 18 32  1  0  0  0  0
 18 33  2  0  0  0  0
 18 34  1  0  0  0  0
 19 21  2  0  0  0  0
 19 39  1  0  0  0  0
 20 22  2  0  0  0  0
 20 40  1  0  0  0  0
 21 52  1  0  0  0  0
 22 41  1  0  0  0  0
 23 24  2  0  0  0  0
 23 68  1  0  0  0  0
 24 74  1  0  0  0  0
 25 30  1  0  0  0  0
 25 73  1  0  0  0  0
 26 83  1  0  0  0  0
 27 84  1  0  0  0  0
 28 31  2  0  0  0  0
 28 83  1  0  0  0  0
 29 85  1  0  0  0  0
 30 86  1  0  0  0  0
 31 87  1  0  0  0  0
 32 66  2  0  0  0  0
 33 67  1  0  0  0  0
 33 71  1  0  0  0  0
 34 72  1  0  0  0  0
 34 78  2  0  0  0  0
 35 53  1  0  0  0  0
 35 75  1  0  0  0  0
 35 79  2  0  0  0  0
 36 63  1  0  0  0  0
 36 69  1  0  0  0  0
 36 80  2  0  0  0  0
 37 64  1  0  0  0  0
 37 76  1  0  0  0  0
 37 81  2  0  0  0  0
 38 70  1  0  0  0  0
 38 73  1  0  0  0  0
 38 82  2  0  0  0  0
 39 42  1  0  0  0  0
 40 53  1  0  0  0  0
 41 69  1  0  0  0  0
 42 46  1  0  0  0  0
 43 44  1  0  0  0  0
 43 48  1  0  0  0  0
 44 49  1  0  0  0  0
 45 47  1  0  0  0  0
 45 50  1  0  0  0  0
 46 52  1  0  0  0  0
 47 54  1  0  0  0  0
 48 68  1  0  0  0  0
 49 68  1  0  0  0  0
 50 70  1  0  0  0  0
 51 54  1  0  0  0  0
 51 70  1  0  0  0  0
 52 75  1  0  0  0  0
 53 69  1  0  0  0  0
 54 67  1  0  0  0  0
 55 64  1  0  0  0  0
 56 65  1  0  0  0  0
 57 65  1  0  0  0  0
 58 65  1  0  0  0  0
 59 77  1  0  0  0  0
 60 61  1  0  0  0  0
 60 62  1  0  0  0  0
 61 74  1  0  0  0  0
 62 84  1  0  0  0  0
 63 65  1  0  0  0  0
 63 76  1  0  0  0  0
 64 77  1  0  0  0  0
 66 67  1  0  0  0  0
M  CHG  1  77   1
M  ISO  4  38 100  62 101  73 100  84 101
M  END
> <Batch ID>
0023

> <Smiles>
CNC(C)C(=O)NC(C(=O)N1Cc2cc([101O:1][101CH2:1]CCNc3cc([100NH:0][100C:0](=O)N4CCCC(n5nc(-c6ccc(Oc7ccc(F)cc7F)cc6)c(C(N)=O)c5N)C4)c(F)cc3N3CCCC3)ccc2CC1C(=O)NC1CCCc2ccccc21)C(C)(C)C

> <Shape>
0.235

> <Color>
0.203

> <Negative vol penalty>
0.000

$$$$

  -OEChem-04042321173D

 87 96  0     1  0  0  0  0  0999 V2000
  -28.4173  -31.6105   27.1909 C   0  0  0  0  0  0  0  0  0  0  0  0
  -28.0585  -30.4798   26.4640 C   0  0  0  0  0  0  0  0  0  0  0  0
  -22.7618  -10.9142   21.7652 C   0  0  0  0  0  0  0  0  0  0  0  0
  -24.5117   -9.2514   21.6656 C   0  0  0  0  0  0  0  0  0  0  0  0
  -27.5507  -32.7008   27.2547 C   0  0  0  0  0  0  0  0  0  0  0  0
  -26.8323  -30.4385   25.8014 C   0  0  0  0  0  0  0  0  0  0  0  0
  -27.2261  -28.5997   21.0993 C   0  0  0  0  0  0  0  0  0  0  0  0
  -22.0621  -10.1234   22.6766 C   0  0  0  0  0  0  0  0  0  0  0  0
  -23.8120   -8.4605   22.5770 C   0  0  0  0  0  0  0  0  0  0  0  0
  -27.3377  -27.2167   20.9638 C   0  0  0  0  0  0  0  0  0  0  0  0
  -21.1781   -6.3413   22.5289 C   0  0  0  0  0  0  0  0  0  0  0  0
  -21.0709   -4.9778   22.2552 C   0  0  0  0  0  0  0  0  0  0  0  0
  -24.9908  -27.0863   20.4214 C   0  0  0  0  0  0  0  0  0  0  0  0
  -28.9981  -19.1956   18.5822 C   0  0  0  0  0  0  0  0  0  0  0  0
  -26.7786  -20.0095   17.1009 C   0  0  0  0  0  0  0  0  0  0  0  0
  -22.2074   -4.4728   24.3266 C   0  0  0  0  0  0  0  0  0  0  0  0
  -23.9866  -10.4782   21.2597 C   0  0  0  0  0  0  0  0  0  0  0  0
  -24.2700  -11.7222   19.0506 C   0  0  0  0  0  0  0  0  0  0  0  0
  -26.3174  -32.6766   26.5846 C   0  0  0  0  0  0  0  0  0  0  0  0
  -25.9914  -29.2363   20.9073 C   0  0  0  0  0  0  0  0  0  0  0  0
  -25.9477  -31.5290   25.8574 C   0  0  0  0  0  0  0  0  0  0  0  0
  -24.8667  -28.4779   20.5526 C   0  0  0  0  0  0  0  0  0  0  0  0
  -28.8261  -20.5435   18.2672 C   0  0  0  0  0  0  0  0  0  0  0  0
  -27.7163  -20.9504   17.5266 C   0  0  0  0  0  0  0  0  0  0  0  0
  -28.0605  -18.2547   18.1565 C   0  0  0  0  0  0  0  0  0  0  0  0
  -22.5872   -8.8965   23.0825 C   0  0  0  0  0  0  0  0  0  0  0  0
  -26.2194  -26.4594   20.6276 C   0  0  0  0  0  0  0  0  0  0  0  0
  -21.8000   -6.7706   23.7013 C   0  0  0  0  0  0  0  0  0  0  0  0
  -21.5856   -4.0435   23.1541 C   0  0  0  0  0  0  0  0  0  0  0  0
  -26.9508  -18.6616   17.4160 C   0  0  0  0  0  0  0  0  0  0  0  0
  -22.3146   -5.8363   24.6002 C   0  0  0  0  0  0  0  0  0  0  0  0
  -24.7095  -11.2945   20.3178 C   0  0  0  0  0  0  0  0  0  0  0  0
  -25.3144  -12.4657   18.5578 C   0  0  0  0  0  0  0  0  0  0  0  0
  -26.8533  -23.2974   17.9019 C   0  0  0  0  0  0  0  0  0  0  0  0
  -23.0285  -11.4701   18.3791 C   0  0  0  0  0  0  0  0  0  0  0  0
  -26.0988  -23.2467   19.0088 C   0  0  0  0  0  0  0  0  0  0  0  0
  -24.0515  -30.9669   22.7363 C   0  0  0  0  0  0  0  0  0  0  0  0
  -22.4178  -31.3557   19.9610 C   0  0  0  0  0  0  0  0  0  0  0  0
  -21.4593  -29.2952   17.1587 C   0  0  0  0  0  0  0  0  0  0  0  0
  -29.2831  -16.3172   19.2043 C   0  0  0  0  0  0  0  0  0  0  0  0
  -25.3933  -33.8606   26.7217 C   0  0  0  0  0  0  0  0  0  0  0  0
  -25.8934  -30.7322   21.0310 C   0  0  0  0  0  0  0  0  0  0  0  0
  -23.5229  -29.1155   20.3157 C   0  0  0  0  0  0  0  0  0  0  0  0
  -27.0224  -24.6051   17.1577 C   0  0  0  0  0  0  0  0  0  0  0  0
  -24.2752  -33.8842   25.6827 C   0  0  0  0  0  0  0  0  0  0  0  0
  -28.1820  -24.3153   16.2077 C   0  0  0  0  0  0  0  0  0  0  0  0
  -30.0590  -12.9998   20.2387 C   0  0  0  0  0  0  0  0  0  0  0  0
  -23.6239  -32.5096   25.5681 C   0  0  0  0  0  0  0  0  0  0  0  0
  -28.7003  -12.2956   20.2473 C   0  0  0  0  0  0  0  0  0  0  0  0
  -28.0970  -22.8116   15.9479 C   0  0  0  0  0  0  0  0  0  0  0  0
  -29.9487  -14.4508   20.7038 C   0  0  0  0  0  0  0  0  0  0  0  0
  -27.5899  -14.5524   20.0004 C   0  0  0  0  0  0  0  0  0  0  0  0
  -24.6370  -31.4560   25.1046 C   0  0  1  0  0  0  0  0  0  0  0  0
  -24.4752  -31.2164   21.3165 C   0  0  1  0  0  0  0  0  0  0  0  0
  -27.6399  -13.1074   19.4777 C   0  0  2  0  0  0  0  0  0  0  0  0
  -29.8458  -21.5301   18.7356 C   0  0  0  0  0  0  0  0  0  0  0  0
  -25.8906  -21.9634   19.7600 C   0  0  0  0  0  0  0  0  0  0  0  0
  -20.9845  -29.9059   14.7715 C   0  0  0  0  0  0  0  0  0  0  0  0
  -19.5121  -31.5033   20.8802 C   0  0  0  0  0  0  0  0  0  0  0  0
  -18.8414  -30.4863   18.6930 C   0  0  0  0  0  0  0  0  0  0  0  0
  -19.9904  -32.7001   18.7369 C   0  0  0  0  0  0  0  0  0  0  0  0
  -23.4601  -27.3642   16.1452 C   0  0  0  0  0  0  0  0  0  0  0  0
  -25.4422  -24.4757   19.5708 C   0  0  0  0  0  0  0  0  0  1  0  0
  -21.3105  -30.6079   19.2585 C   0  0  1  0  0  0  0  0  0  0  0  0
  -22.0162  -29.3633   15.7481 C   0  0  2  0  0  0  0  0  0  0  0  0
  -19.9320  -31.3111   19.4093 C   0  0  0  0  0  0  0  0  0  0  0  0
  -25.9376  -11.7299   20.6116 N   0  0  0  0  0  0  0  0  0  0  0  0
  -26.2786  -12.4388   19.5221 N   0  0  0  0  0  0  0  0  0  0  0  0
  -27.5266  -22.3052   17.1995 N   0  0  0  0  0  0  0  0  0  0  0  0
  -23.4766  -30.5804   20.4548 N   0  0  0  0  0  0  0  0  0  0  0  0
  -28.9285  -15.1587   19.9274 N   0  0  0  0  0  0  0  0  0  0  0  0
  -25.4929  -13.1332   17.3981 N   0  0  0  0  0  0  0  0  0  0  0  0
  -22.9312  -10.3390   17.5571 N   0  0  0  0  0  0  0  0  0  0  0  0
  -28.2376  -16.8860   18.4777 N   0  0  0  0  0  0  0  0  0  0  0  0
  -24.8644  -31.5659   23.6796 N   0  0  0  0  0  0  0  0  0  0  0  0
  -21.7461  -30.4369   17.8767 N   0  0  0  0  0  0  0  0  0  0  0  0
  -22.4306  -28.0074   15.2888 N   0  3  0  0  0  0  0  0  0  0  0  0
  -22.0402  -12.2343   18.4913 O   0  0  0  0  0  0  0  0  0  0  0  0
  -23.0595  -30.2828   22.9595 O   0  0  0  0  0  0  0  0  0  0  0  0
  -22.3495  -32.5832   20.0614 O   0  0  0  0  0  0  0  0  0  0  0  0
  -20.8295  -28.3276   17.5802 O   0  0  0  0  0  0  0  0  0  0  0  0
  -30.4363  -16.7557   19.2062 O   0  0  0  0  0  0  0  0  0  0  0  0
  -21.9049   -8.1246   23.9720 O   0  0  0  0  0  0  0  0  0  0  0  0
  -26.3255  -25.1092   20.4954 O   0  0  0  0  0  0  0  0  0  1  0  0
  -21.4812   -2.7341   22.8919 F   0  0  0  0  0  0  0  0  0  0  0  0
  -26.0433  -17.7660   17.0016 F   0  0  0  0  0  0  0  0  0  0  0  0
  -22.9121   -6.2427   25.7288 F   0  0  0  0  0  0  0  0  0  0  0  0
  1  2  1  0  0  0  0
  1  5  2  0  0  0  0
  2  6  2  0  0  0  0
  3  8  2  0  0  0  0
  3 17  1  0  0  0  0
  4  9  1  0  0  0  0
  4 17  2  0  0  0  0
  5 19  1  0  0  0  0
  6 21  1  0  0  0  0
  7 10  2  0  0  0  0
  7 20  1  0  0  0  0
  8 26  1  0  0  0  0
  9 26  2  0  0  0  0
 10 27  1  0  0  0  0
 11 12  2  0  0  0  0
 11 28  1  0  0  0  0
 12 29  1  0  0  0  0
 13 22  1  0  0  0  0
 13 27  2  0  0  0  0
 14 23  1  0  0  0  0
 14 25  2  0  0  0  0
 15 24  1  0  0  0  0
 15 30  2  0  0  0  0
 16 29  2  0  0  0  0
 16 31  1  0  0  0  0
 17 32  1  0  0  0  0
 18 32  1  0  0  0  0
 18 33  2  0  0  0  0
 18 35  1  0  0  0  0
 19 21  2  0  0  0  0
 19 41  1  0  0  0  0
 20 22  2  0  0  0  0
 20 42  1  0  0  0  0
 21 53  1  0  0  0  0
 22 43  1  0  0  0  0
 23 24  2  0  0  0  0
 23 56  1  0  0  0  0
 24 69  1  0  0  0  0
 25 30  1  0  0  0  0
 25 74  1  0  0  0  0
 26 83  1  0  0  0  0
 27 84  1  0  0  0  0
 28 31  2  0  0  0  0
 28 83  1  0  0  0  0
 29 85  1  0  0  0  0
 30 86  1  0  0  0  0
 31 87  1  0  0  0  0
 32 67  2  0  0  0  0
 33 68  1  0  0  0  0
 33 72  1  0  0  0  0
 34 36  2  0  0  0  0
 34 44  1  0  0  0  0
 34 69  1  0  0  0  0
 35 73  1  0  0  0  0
 35 78  2  0  0  0  0
 36 57  1  0  0  0  0
 36 63  1  0  0  0  0
 37 54  1  0  0  0  0
 37 75  1  0  0  0  0
 37 79  2  0  0  0  0
 38 64  1  0  0  0  0
 38 70  1  0  0  0  0
 38 80  2  0  0  0  0
 39 65  1  0  0  0  0
 39 76  1  0  0  0  0
 39 81  2  0  0  0  0
 40 71  1  0  0  0  0
 40 74  1  0  0  0  0
 40 82  2  0  0  0  0
 41 45  1  0  0  0  0
 42 54  1  0  0  0  0
 43 70  1  0  0  0  0
 44 46  1  0  0  0  0
 45 48  1  0  0  0  0
 46 50  1  0  0  0  0
 47 49  1  0  0  0  0
 47 51  1  0  0  0  0
 48 53  1  0  0  0  0
 49 55  1  0  0  0  0
 50 69  1  0  0  0  0
 51 71  1  0  0  0  0
 52 55  1  0  0  0  0
 52 71  1  0  0  0  0
 53 75  1  0  0  0  0
 54 70  1  0  0  0  0
 55 68  1  0  0  0  0
 58 65  1  0  0  0  0
 59 66  1  0  0  0  0
 60 66  1  0  0  0  0
 61 66  1  0  0  0  0
 62 77  1  0  0  0  0
 63 84  1  0  0  0  0
 64 66  1  0  0  0  0
 64 76  1  0  0  0  0
 65 77  1  0  0  0  0
 67 68  1  0  0  0  0
M  CHG  1  77   1
M  ISO  4  40 100  63 101  74 100  84 101
M  END
> <Batch ID>
0023

> <Smiles>
CNC(C)C(=O)NC(C(=O)N1Cc2cc([101O:1][101CH2:1]C(C)=C3CCCN3c3cc(F)c([100NH:0][100C:0](=O)N4CCCC(n5nc(-c6ccc(Oc7ccc(F)cc7F)cc6)c(C(N)=O)c5N)C4)cc3C)ccc2CC1C(=O)NC1CCCc2ccccc21)C(C)(C)C

> <Shape>
0.264

> <Color>
0.088

> <Negative vol penalty>
0.000

$$$$

  -OEChem-04042321173D

 84 93  0     1  0  0  0  0  0999 V2000
  -18.0836  -29.4373   24.0067 C   0  0  0  0  0  0  0  0  0  0  0  0
  -19.4710  -29.5280   23.9579 C   0  0  0  0  0  0  0  0  0  0  0  0
  -25.0972  -13.2720   19.5490 C   0  0  0  0  0  0  0  0  0  0  0  0
  -25.9793  -13.8708   21.7170 C   0  0  0  0  0  0  0  0  0  0  0  0
  -17.4357  -28.3542   23.4142 C   0  0  0  0  0  0  0  0  0  0  0  0
  -20.2114  -28.5350   23.3175 C   0  0  0  0  0  0  0  0  0  0  0  0
  -25.3985  -29.2773   20.1476 C   0  0  0  0  0  0  0  0  0  0  0  0
  -30.5429  -24.6516   21.2870 C   0  0  0  0  0  0  0  0  0  0  0  0
  -30.3319  -23.5027   20.5247 C   0  0  0  0  0  0  0  0  0  0  0  0
  -24.9716  -11.9469   19.9660 C   0  0  0  0  0  0  0  0  0  0  0  0
  -25.8537  -12.5457   22.1341 C   0  0  0  0  0  0  0  0  0  0  0  0
  -26.7387  -29.0939   20.4855 C   0  0  0  0  0  0  0  0  0  0  0  0
  -22.8333  -10.1175   21.8405 C   0  0  0  0  0  0  0  0  0  0  0  0
  -21.6460   -9.4518   21.5359 C   0  0  0  0  0  0  0  0  0  0  0  0
  -26.6751  -26.8866   19.5145 C   0  0  0  0  0  0  0  0  0  0  0  0
  -28.0621  -23.3769   21.3429 C   0  0  0  0  0  0  0  0  0  0  0  0
  -22.8905   -7.8095   20.2744 C   0  0  0  0  0  0  0  0  0  0  0  0
  -25.6011  -14.2340   20.4245 C   0  0  0  0  0  0  0  0  0  0  0  0
  -24.7688  -16.6240   20.1040 C   0  0  0  0  0  0  0  0  0  0  0  0
  -18.1679  -27.3524   22.7578 C   0  0  0  0  0  0  0  0  0  0  0  0
  -24.6824  -28.2608   19.4993 C   0  0  0  0  0  0  0  0  0  0  0  0
  -19.5727  -27.4368   22.7168 C   0  0  0  0  0  0  0  0  0  0  0  0
  -25.3267  -27.0605   19.1672 C   0  0  0  0  0  0  0  0  0  0  0  0
  -28.2732  -24.5258   22.1052 C   0  0  0  0  0  0  0  0  0  0  0  0
  -29.5136  -25.1632   22.0772 C   0  0  0  0  0  0  0  0  0  0  0  0
  -29.0915  -22.8653   20.5527 C   0  0  0  0  0  0  0  0  0  0  0  0
  -25.3498  -11.5837   21.2585 C   0  0  0  0  0  0  0  0  0  0  0  0
  -27.3764  -27.8973   20.1715 C   0  0  0  0  0  0  0  0  0  0  0  0
  -24.0492   -9.6293   21.3620 C   0  0  0  0  0  0  0  0  0  0  0  0
  -21.6746   -8.2978   20.7529 C   0  0  0  0  0  0  0  0  0  0  0  0
  -24.0778   -8.4753   20.5789 C   0  0  0  0  0  0  0  0  0  0  0  0
  -25.7316  -15.6028   19.9941 C   0  0  0  0  0  0  0  0  0  0  0  0
  -25.3742  -17.7274   19.5540 C   0  0  0  0  0  0  0  0  0  0  0  0
  -23.4456  -16.5792   20.6543 C   0  0  0  0  0  0  0  0  0  0  0  0
  -22.1292  -26.5082   20.2158 C   0  0  0  0  0  0  0  0  0  0  0  0
  -22.4929  -25.4395   17.1747 C   0  0  0  0  0  0  0  0  0  0  0  0
  -24.5638  -24.9335   14.5098 C   0  0  0  0  0  0  0  0  0  0  0  0
  -29.7915  -21.0610   18.9400 C   0  0  0  0  0  0  0  0  0  0  0  0
  -17.4264  -26.1764   22.1730 C   0  0  0  0  0  0  0  0  0  0  0  0
  -23.2447  -28.4846   19.1178 C   0  0  0  0  0  0  0  0  0  0  0  0
  -24.6080  -25.9459   18.4534 C   0  0  0  0  0  0  0  0  0  0  0  0
  -18.2595  -25.3592   21.1890 C   0  0  0  0  0  0  0  0  0  0  0  0
  -29.6599  -18.1501   16.8939 C   0  0  0  0  0  0  0  0  0  0  0  0
  -29.9291  -27.7727   24.6724 C   0  0  0  0  0  0  0  0  0  0  0  0
  -19.6462  -25.0853   21.7624 C   0  0  0  0  0  0  0  0  0  0  0  0
  -28.5470  -17.3119   17.5271 C   0  0  0  0  0  0  0  0  0  0  0  0
  -30.8374  -28.2545   23.5522 C   0  0  0  0  0  0  0  0  0  0  0  0
  -29.6214  -26.3296   24.2859 C   0  0  0  0  0  0  0  0  0  0  0  0
  -30.4821  -18.8900   17.9477 C   0  0  0  0  0  0  0  0  0  0  0  0
  -28.5866  -18.8642   19.5211 C   0  0  0  0  0  0  0  0  0  0  0  0
  -20.4091  -26.3924   22.0098 C   0  0  1  0  0  0  0  0  0  0  0  0
  -22.4703  -27.1854   18.9185 C   0  0  1  0  0  0  0  0  0  0  0  0
  -27.6904  -18.1515   18.4951 C   0  0  2  0  0  0  0  0  0  0  0  0
  -30.2733  -27.5653   22.3018 C   0  0  2  0  0  0  0  0  0  0  0  0
  -27.1540  -25.0516   22.9438 C   0  0  0  0  0  0  0  0  0  0  0  0
  -24.5827  -24.0069   12.1777 C   0  0  0  0  0  0  0  0  0  0  0  0
  -22.4902  -22.6048   18.3036 C   0  0  0  0  0  0  0  0  0  0  0  0
  -23.4450  -21.8126   16.1289 C   0  0  0  0  0  0  0  0  0  0  0  0
  -21.1932  -22.8846   16.1837 C   0  0  0  0  0  0  0  0  0  0  0  0
  -25.3304  -27.5475   13.3530 C   0  0  0  0  0  0  0  0  0  0  0  0
  -29.1628  -28.3960   21.6601 C   0  0  0  0  0  0  0  0  0  1  0  0
  -23.2534  -24.3105   16.5220 C   0  0  1  0  0  0  0  0  0  0  0  0
  -24.4023  -25.2507   13.0341 C   0  0  2  0  0  0  0  0  0  0  0  0
  -22.6088  -22.9232   16.7997 C   0  0  0  0  0  0  0  0  0  0  0  0
  -26.8626  -16.0203   19.4192 N   0  0  0  0  0  0  0  0  0  0  0  0
  -26.6143  -17.3159   19.1629 N   0  0  0  0  0  0  0  0  0  0  0  0
  -29.7404  -26.3021   22.8268 N   0  0  3  0  0  0  0  0  0  0  0  0
  -23.2017  -26.2101   18.1072 N   0  0  0  0  0  0  0  0  0  0  0  0
  -29.6045  -19.6672   18.8256 N   0  0  0  0  0  0  0  0  0  0  0  0
  -24.9613  -18.9996   19.3714 N   0  0  0  0  0  0  0  0  0  0  0  0
  -22.9805  -15.3652   21.1780 N   0  0  0  0  0  0  0  0  0  0  0  0
  -28.8771  -21.6986   19.7778 N   0  0  0  0  0  0  0  0  0  0  0  0
  -20.9292  -26.9172   20.7654 N   0  0  0  0  0  0  0  0  0  0  0  0
  -23.3536  -24.6504   15.1068 N   0  0  0  0  0  0  0  0  0  0  0  0
  -25.4087  -26.2642   12.6088 N   0  3  0  0  0  0  0  0  0  0  0  0
  -22.6918  -17.5818   20.6659 O   0  0  0  0  0  0  0  0  0  0  0  0
  -22.8972  -25.6752   20.6827 O   0  0  0  0  0  0  0  0  0  0  0  0
  -21.3154  -25.6350   16.8632 O   0  0  0  0  0  0  0  0  0  0  0  0
  -25.6550  -24.9331   15.0754 O   0  0  0  0  0  0  0  0  0  0  0  0
  -30.6792  -21.6500   18.3178 O   0  0  0  0  0  0  0  0  0  0  0  0
  -25.2272  -10.2908   21.6659 O   0  0  0  0  0  0  0  0  0  0  0  0
  -28.6842  -27.7154   20.5007 O   0  0  0  0  0  0  0  0  0  1  0  0
  -20.5345   -7.6578   20.4618 F   0  0  0  0  0  0  0  0  0  0  0  0
  -25.2429   -8.0008   20.1173 F   0  0  0  0  0  0  0  0  0  0  0  0
  1  2  1  0  0  0  0
  1  5  2  0  0  0  0
  2  6  2  0  0  0  0
  3 10  2  0  0  0  0
  3 18  1  0  0  0  0
  4 11  1  0  0  0  0
  4 18  2  0  0  0  0
  5 20  1  0  0  0  0
  6 22  1  0  0  0  0
  7 12  2  0  0  0  0
  7 21  1  0  0  0  0
  8  9  2  0  0  0  0
  8 25  1  0  0  0  0
  9 26  1  0  0  0  0
 10 27  1  0  0  0  0
 11 27  2  0  0  0  0
 12 28  1  0  0  0  0
 13 14  2  0  0  0  0
 13 29  1  0  0  0  0
 14 30  1  0  0  0  0
 15 23  1  0  0  0  0
 15 28  2  0  0  0  0
 16 24  1  0  0  0  0
 16 26  2  0  0  0  0
 17 30  2  0  0  0  0
 17 31  1  0  0  0  0
 18 32  1  0  0  0  0
 19 32  1  0  0  0  0
 19 33  2  0  0  0  0
 19 34  1  0  0  0  0
 20 22  2  0  0  0  0
 20 39  1  0  0  0  0
 21 23  2  0  0  0  0
 21 40  1  0  0  0  0
 22 51  1  0  0  0  0
 23 41  1  0  0  0  0
 24 25  2  0  0  0  0
 24 55  1  0  0  0  0
 25 67  1  0  0  0  0
 26 72  1  0  0  0  0
 27 81  1  0  0  0  0
 28 82  1  0  0  0  0
 29 31  2  0  0  0  0
 29 81  1  0  0  0  0
 30 83  1  0  0  0  0
 31 84  1  0  0  0  0
 32 65  2  0  0  0  0
 33 66  1  0  0  0  0
 33 70  1  0  0  0  0
 34 71  1  0  0  0  0
 34 76  2  0  0  0  0
 35 52  1  0  0  0  0
 35 73  1  0  0  0  0
 35 77  2  0  0  0  0
 36 62  1  0  0  0  0
 36 68  1  0  0  0  0
 36 78  2  0  0  0  0
 37 63  1  0  0  0  0
 37 74  1  0  0  0  0
 37 79  2  0  0  0  0
 38 69  1  0  0  0  0
 38 72  1  0  0  0  0
 38 80  2  0  0  0  0
 39 42  1  0  0  0  0
 40 52  1  0  0  0  0
 41 68  1  0  0  0  0
 42 45  1  0  0  0  0
 43 46  1  0  0  0  0
 43 49  1  0  0  0  0
 44 47  1  0  0  0  0
 44 48  1  0  0  0  0
 45 51  1  0  0  0  0
 46 53  1  0  0  0  0
 47 54  1  0  0  0  0
 48 67  1  0  0  0  0
 49 69  1  0  0  0  0
 50 53  1  0  0  0  0
 50 69  1  0  0  0  0
 51 73  1  0  0  0  0
 52 68  1  0  0  0  0
 53 66  1  0  0  0  0
 54 61  1  0  0  0  0
 54 67  1  0  0  0  0
 56 63  1  0  0  0  0
 57 64  1  0  0  0  0
 58 64  1  0  0  0  0
 59 64  1  0  0  0  0
 60 75  1  0  0  0  0
 61 82  1  0  0  0  0
 62 64  1  0  0  0  0
 62 74  1  0  0  0  0
 63 75  1  0  0  0  0
 65 66  1  0  0  0  0
M  CHG  1  75   1
M  ISO  4  38 100  61 101  72 100  82 101
M  END
> <Batch ID>
0023

> <Smiles>
CNC(C)C(=O)NC(C(=O)N1Cc2cc([101O:1][101CH2:1]C3CCCN3c3ccc([100NH:0][100C:0](=O)N4CCCC(n5nc(-c6ccc(Oc7ccc(F)cc7F)cc6)c(C(N)=O)c5N)C4)cc3C)ccc2CC1C(=O)NC1CCCc2ccccc21)C(C)(C)C

> <Shape>
0.236

> <Color>
0.066

> <Negative vol penalty>
0.000

$$$$

  -OEChem-04042321173D

 85 94  0     1  0  0  0  0  0999 V2000
  -27.8050  -24.0187   17.3029 C   0  0  0  0  0  0  0  0  0  0  0  0
  -26.6309  -24.3139   17.9882 C   0  0  0  0  0  0  0  0  0  0  0  0
  -26.4734  -13.4202   20.3554 C   0  0  0  0  0  0  0  0  0  0  0  0
  -24.0823  -13.4714   20.6976 C   0  0  0  0  0  0  0  0  0  0  0  0
  -29.0231  -24.5183   17.7618 C   0  0  0  0  0  0  0  0  0  0  0  0
  -26.6743  -25.1079   19.1337 C   0  0  0  0  0  0  0  0  0  0  0  0
  -23.0345  -28.6283   19.1963 C   0  0  0  0  0  0  0  0  0  0  0  0
  -20.6722  -24.4158   23.1143 C   0  0  0  0  0  0  0  0  0  0  0  0
  -21.7307  -23.5203   23.2668 C   0  0  0  0  0  0  0  0  0  0  0  0
  -26.4518  -12.0267   20.4127 C   0  0  0  0  0  0  0  0  0  0  0  0
  -24.0606  -12.0779   20.7548 C   0  0  0  0  0  0  0  0  0  0  0  0
  -21.7505  -28.2104   19.5434 C   0  0  0  0  0  0  0  0  0  0  0  0
  -24.1439   -9.4956   18.5764 C   0  0  0  0  0  0  0  0  0  0  0  0
  -23.1451   -8.8345   17.8616 C   0  0  0  0  0  0  0  0  0  0  0  0
  -22.0883  -29.0500   21.7795 C   0  0  0  0  0  0  0  0  0  0  0  0
  -22.3226   -7.8589   19.9131 C   0  0  0  0  0  0  0  0  0  0  0  0
  -25.2887  -14.1425   20.4979 C   0  0  0  0  0  0  0  0  0  0  0  0
  -25.1638  -16.3887   19.2951 C   0  0  0  0  0  0  0  0  0  0  0  0
  -29.0803  -25.3269   18.9079 C   0  0  0  0  0  0  0  0  0  0  0  0
  -23.8605  -29.2513   20.1428 C   0  0  0  0  0  0  0  0  0  0  0  0
  -27.8945  -25.6177   19.6091 C   0  0  0  0  0  0  0  0  0  0  0  0
  -23.3815  -29.4771   21.4412 C   0  0  0  0  0  0  0  0  0  0  0  0
  -20.0321  -24.5355   21.8807 C   0  0  0  0  0  0  0  0  0  0  0  0
  -22.1492  -22.7446   22.1858 C   0  0  0  0  0  0  0  0  0  0  0  0
  -25.2454  -11.3555   20.6123 C   0  0  0  0  0  0  0  0  0  0  0  0
  -21.2783  -28.4186   20.8360 C   0  0  0  0  0  0  0  0  0  0  0  0
  -24.2321   -9.3382   19.9596 C   0  0  0  0  0  0  0  0  0  0  0  0
  -22.2344   -8.0162   18.5299 C   0  0  0  0  0  0  0  0  0  0  0  0
  -23.3214   -8.5199   20.6279 C   0  0  0  0  0  0  0  0  0  0  0  0
  -20.4506  -23.7598   20.7997 C   0  0  0  0  0  0  0  0  0  0  0  0
  -21.5092  -22.8643   20.9522 C   0  0  0  0  0  0  0  0  0  0  0  0
  -25.3104  -15.5821   20.4395 C   0  0  0  0  0  0  0  0  0  0  0  0
  -25.2581  -17.6750   19.7673 C   0  0  0  0  0  0  0  0  0  0  0  0
  -24.9604  -16.0092   17.9275 C   0  0  0  0  0  0  0  0  0  0  0  0
  -26.6675  -28.5662   21.4676 C   0  0  0  0  0  0  0  0  0  0  0  0
  -26.3298  -31.5148   22.7766 C   0  0  0  0  0  0  0  0  0  0  0  0
  -24.2395  -34.0328   23.7448 C   0  0  0  0  0  0  0  0  0  0  0  0
  -23.9685  -21.6002   23.4999 C   0  0  0  0  0  0  0  0  0  0  0  0
  -30.4261  -25.8048   19.3927 C   0  0  0  0  0  0  0  0  0  0  0  0
  -25.2332  -29.7202   19.7451 C   0  0  0  0  0  0  0  0  0  0  0  0
  -24.2212  -30.1597   22.4887 C   0  0  0  0  0  0  0  0  0  0  0  0
  -30.3396  -26.9479   20.4008 C   0  0  0  0  0  0  0  0  0  0  0  0
  -26.6694  -19.4237   24.3029 C   0  0  0  0  0  0  0  0  0  0  0  0
  -16.7287  -25.9673   21.3720 C   0  0  0  0  0  0  0  0  0  0  0  0
  -29.2908  -26.6425   21.4654 C   0  0  0  0  0  0  0  0  0  0  0  0
  -26.5446  -18.2966   23.2752 C   0  0  0  0  0  0  0  0  0  0  0  0
  -17.4040  -27.1611   22.0235 C   0  0  0  0  0  0  0  0  0  0  0  0
  -17.8972  -25.1854   20.7845 C   0  0  0  0  0  0  0  0  0  0  0  0
  -25.3020  -19.9261   24.7626 C   0  0  0  0  0  0  0  0  0  0  0  0
  -24.2635  -19.1894   22.6535 C   0  0  0  0  0  0  0  0  0  0  0  0
  -27.8977  -26.4961   20.8414 C   0  0  1  0  0  0  0  0  0  0  0  0
  -26.1768  -29.8818   20.9329 C   0  0  1  0  0  0  0  0  0  0  0  0
  -25.6148  -18.6948   22.1122 C   0  0  2  0  0  0  0  0  0  0  0  0
  -18.7101  -26.5816   22.5940 C   0  0  2  0  0  0  0  0  0  0  0  0
  -24.2530  -36.3013   24.8178 C   0  0  0  0  0  0  0  0  0  0  0  0
  -26.7884  -30.2206   25.5014 C   0  0  0  0  0  0  0  0  0  0  0  0
  -25.8641  -32.2912   26.5628 C   0  0  0  0  0  0  0  0  0  0  0  0
  -27.9387  -32.4183   25.1835 C   0  0  0  0  0  0  0  0  0  0  0  0
  -23.0561  -35.3018   21.3472 C   0  0  0  0  0  0  0  0  0  0  0  0
  -19.8140  -27.6326   22.5371 C   0  0  0  0  0  0  0  0  0  1  0  0
  -25.7117  -32.0583   24.0422 C   0  0  1  0  0  0  0  0  0  0  0  0
  -24.2898  -35.5313   23.5069 C   0  0  2  0  0  0  0  0  0  0  0  0
  -26.5604  -31.7325   25.3035 C   0  0  0  0  0  0  0  0  0  0  0  0
  -25.4848  -16.2961   21.5547 N   0  0  0  0  0  0  0  0  0  0  0  0
  -25.4484  -17.5649   21.1133 N   0  0  0  0  0  0  0  0  0  0  0  0
  -18.9847  -25.4228   21.7326 N   0  0  3  0  0  0  0  0  0  0  0  0
  -25.5587  -30.5942   22.0530 N   0  0  0  0  0  0  0  0  0  0  0  0
  -24.4776  -20.2887   23.6077 N   0  0  0  0  0  0  0  0  0  0  0  0
  -25.1960  -18.8782   19.1583 N   0  0  0  0  0  0  0  0  0  0  0  0
  -24.8874  -14.6445   17.6166 N   0  0  0  0  0  0  0  0  0  0  0  0
  -23.2262  -21.8374   22.3435 N   0  0  0  0  0  0  0  0  0  0  0  0
  -27.3406  -27.7968   20.5378 N   0  0  0  0  0  0  0  0  0  0  0  0
  -25.5026  -33.4841   23.8146 N   0  0  0  0  0  0  0  0  0  0  0  0
  -23.1308  -35.9630   22.6755 N   0  3  0  0  0  0  0  0  0  0  0  0
  -24.8632  -16.8548   17.0061 O   0  0  0  0  0  0  0  0  0  0  0  0
  -26.4526  -28.2715   22.6375 O   0  0  0  0  0  0  0  0  0  0  0  0
  -27.4524  -31.8986   22.4387 O   0  0  0  0  0  0  0  0  0  0  0  0
  -23.1853  -33.4119   23.8610 O   0  0  0  0  0  0  0  0  0  0  0  0
  -24.1986  -22.4581   24.3562 O   0  0  0  0  0  0  0  0  0  0  0  0
  -25.2239   -9.9957   20.6680 O   0  0  0  0  0  0  0  0  0  0  0  0
  -20.0256  -28.0112   21.1777 O   0  0  0  0  0  0  0  0  0  1  0  0
  -21.2743   -7.3828   17.8435 F   0  0  0  0  0  0  0  0  0  0  0  0
  -23.4004   -8.3658   21.9568 F   0  0  0  0  0  0  0  0  0  0  0  0
  -19.8427  -23.8668   19.6096 F   0  0  0  0  0  0  0  0  0  0  0  0
  -21.9044  -22.1240   19.9067 F   0  0  0  0  0  0  0  0  0  0  0  0
  1  2  1  0  0  0  0
  1  5  2  0  0  0  0
  2  6  2  0  0  0  0
  3 10  2  0  0  0  0
  3 17  1  0  0  0  0
  4 11  1  0  0  0  0
  4 17  2  0  0  0  0
  5 19  1  0  0  0  0
  6 21  1  0  0  0  0
  7 12  2  0  0  0  0
  7 20  1  0  0  0  0
  8  9  2  0  0  0  0
  8 23  1  0  0  0  0
  9 24  1  0  0  0  0
 10 25  1  0  0  0  0
 11 25  2  0  0  0  0
 12 26  1  0  0  0  0
 13 14  2  0  0  0  0
 13 27  1  0  0  0  0
 14 28  1  0  0  0  0
 15 22  1  0  0  0  0
 15 26  2  0  0  0  0
 16 28  2  0  0  0  0
 16 29  1  0  0  0  0
 17 32  1  0  0  0  0
 18 32  1  0  0  0  0
 18 33  2  0  0  0  0
 18 34  1  0  0  0  0
 19 21  2  0  0  0  0
 19 39  1  0  0  0  0
 20 22  2  0  0  0  0
 20 40  1  0  0  0  0
 21 51  1  0  0  0  0
 22 41  1  0  0  0  0
 23 30  2  0  0  0  0
 23 66  1  0  0  0  0
 24 31  2  0  0  0  0
 24 71  1  0  0  0  0
 25 80  1  0  0  0  0
 26 81  1  0  0  0  0
 27 29  2  0  0  0  0
 27 80  1  0  0  0  0
 28 82  1  0  0  0  0
 29 83  1  0  0  0  0
 30 31  1  0  0  0  0
 30 84  1  0  0  0  0
 31 85  1  0  0  0  0
 32 64  2  0  0  0  0
 33 65  1  0  0  0  0
 33 69  1  0  0  0  0
 34 70  1  0  0  0  0
 34 75  2  0  0  0  0
 35 52  1  0  0  0  0
 35 72  1  0  0  0  0
 35 76  2  0  0  0  0
 36 61  1  0  0  0  0
 36 67  1  0  0  0  0
 36 77  2  0  0  0  0
 37 62  1  0  0  0  0
 37 73  1  0  0  0  0
 37 78  2  0  0  0  0
 38 68  1  0  0  0  0
 38 71  1  0  0  0  0
 38 79  2  0  0  0  0
 39 42  1  0  0  0  0
 40 52  1  0  0  0  0
 41 67  1  0  0  0  0
 42 45  1  0  0  0  0
 43 46  1  0  0  0  0
 43 49  1  0  0  0  0
 44 47  1  0  0  0  0
 44 48  1  0  0  0  0
 45 51  1  0  0  0  0
 46 53  1  0  0  0  0
 47 54  1  0  0  0  0
 48 66  1  0  0  0  0
 49 68  1  0  0  0  0
 50 53  1  0  0  0  0
 50 68  1  0  0  0  0
 51 72  1  0  0  0  0
 52 67  1  0  0  0  0
 53 65  1  0  0  0  0
 54 60  1  0  0  0  0
 54 66  1  0  0  0  0
 55 62  1  0  0  0  0
 56 63  1  0  0  0  0
 57 63  1  0  0  0  0
 58 63  1  0  0  0  0
 59 74  1  0  0  0  0
 60 81  1  0  0  0  0
 61 63  1  0  0  0  0
 61 73  1  0  0  0  0
 62 74  1  0  0  0  0
 64 65  1  0  0  0  0
M  CHG  1  74   1
M  ISO  4  38 100  60 101  71 100  81 101
M  END
> <Batch ID>
0023

> <Smiles>
CNC(C)C(=O)NC(C(=O)N1Cc2cc([101O:1][101CH2:1]C3CCCN3c3ccc([100NH:0][100C:0](=O)N4CCCC(n5nc(-c6ccc(Oc7ccc(F)cc7F)cc6)c(C(N)=O)c5N)C4)c(F)c3F)ccc2CC1C(=O)NC1CCCc2ccccc21)C(C)(C)C

> <Shape>
0.277

> <Color>
0.074

> <Negative vol penalty>
0.000

$$$$

  -OEChem-04042321173D

 83 92  0     1  0  0  0  0  0999 V2000
  -27.2809  -32.5767   28.1094 C   0  0  0  0  0  0  0  0  0  0  0  0
  -27.4507  -31.4286   27.3423 C   0  0  0  0  0  0  0  0  0  0  0  0
  -24.2266   -8.7951   20.3491 C   0  0  0  0  0  0  0  0  0  0  0  0
  -22.7899  -10.6001   21.0667 C   0  0  0  0  0  0  0  0  0  0  0  0
  -26.0946  -33.3038   28.0208 C   0  0  0  0  0  0  0  0  0  0  0  0
  -26.4337  -31.0064   26.4867 C   0  0  0  0  0  0  0  0  0  0  0  0
  -27.0974  -28.2805   21.0429 C   0  0  0  0  0  0  0  0  0  0  0  0
  -23.3071   -7.8681   20.8399 C   0  0  0  0  0  0  0  0  0  0  0  0
  -21.8704   -9.6731   21.5575 C   0  0  0  0  0  0  0  0  0  0  0  0
  -27.0408  -26.9440   20.6500 C   0  0  0  0  0  0  0  0  0  0  0  0
  -22.4315   -6.5768   23.8383 C   0  0  0  0  0  0  0  0  0  0  0  0
  -22.9263   -5.5062   24.5829 C   0  0  0  0  0  0  0  0  0  0  0  0
  -24.7303  -27.2334   20.0197 C   0  0  0  0  0  0  0  0  0  0  0  0
  -27.2602  -20.2856   18.6264 C   0  0  0  0  0  0  0  0  0  0  0  0
  -28.7926  -19.3583   20.7652 C   0  0  0  0  0  0  0  0  0  0  0  0
  -22.0012   -3.9595   22.9739 C   0  0  0  0  0  0  0  0  0  0  0  0
  -23.9680  -10.1611   20.4626 C   0  0  0  0  0  0  0  0  0  0  0  0
  -24.9619  -11.6695   18.6613 C   0  0  0  0  0  0  0  0  0  0  0  0
  -25.0664  -32.8957   27.1565 C   0  0  0  0  0  0  0  0  0  0  0  0
  -25.9658  -29.1020   20.9371 C   0  0  0  0  0  0  0  0  0  0  0  0
  -25.2320  -31.7280   26.3874 C   0  0  0  0  0  0  0  0  0  0  0  0
  -24.7759  -28.5807   20.4095 C   0  0  0  0  0  0  0  0  0  0  0  0
  -27.8810  -21.1931   19.4847 C   0  0  0  0  0  0  0  0  0  0  0  0
  -28.1718  -18.4508   19.9069 C   0  0  0  0  0  0  0  0  0  0  0  0
  -22.1290   -8.3071   21.4441 C   0  0  0  0  0  0  0  0  0  0  0  0
  -25.8563  -26.4195   20.1410 C   0  0  0  0  0  0  0  0  0  0  0  0
  -21.7214   -6.3388   22.6615 C   0  0  0  0  0  0  0  0  0  0  0  0
  -22.7112   -4.1976   24.1507 C   0  0  0  0  0  0  0  0  0  0  0  0
  -28.6472  -20.7294   20.5541 C   0  0  0  0  0  0  0  0  0  0  0  0
  -21.5063   -5.0302   22.2293 C   0  0  0  0  0  0  0  0  0  0  0  0
  -27.4056  -18.9145   18.8375 C   0  0  0  0  0  0  0  0  0  0  0  0
  -24.9177  -11.1192   19.9563 C   0  0  0  0  0  0  0  0  0  0  0  0
  -26.0406  -12.5194   18.6860 C   0  0  0  0  0  0  0  0  0  0  0  0
  -24.1045  -11.4337   17.5366 C   0  0  0  0  0  0  0  0  0  0  0  0
  -24.1607  -30.7103   23.0007 C   0  0  0  0  0  0  0  0  0  0  0  0
  -22.7475  -31.8213   20.3006 C   0  0  0  0  0  0  0  0  0  0  0  0
  -22.0442  -31.3507   16.9944 C   0  0  0  0  0  0  0  0  0  0  0  0
  -29.0729  -16.4701   21.1760 C   0  0  0  0  0  0  0  0  0  0  0  0
  -23.7832  -33.6878   27.1299 C   0  0  0  0  0  0  0  0  0  0  0  0
  -26.0509  -30.5486   21.3403 C   0  0  0  0  0  0  0  0  0  0  0  0
  -23.5388  -29.4261   20.2565 C   0  0  0  0  0  0  0  0  0  0  0  0
  -22.9035  -33.3817   25.9204 C   0  0  0  0  0  0  0  0  0  0  0  0
  -29.6989  -13.0991   22.1361 C   0  0  0  0  0  0  0  0  0  0  0  0
  -22.7894  -31.8751   25.7109 C   0  0  0  0  0  0  0  0  0  0  0  0
  -28.5144  -12.3287   21.5480 C   0  0  0  0  0  0  0  0  0  0  0  0
  -29.2820  -14.4775   22.6460 C   0  0  0  0  0  0  0  0  0  0  0  0
  -27.3778  -14.5378   21.0841 C   0  0  0  0  0  0  0  0  0  0  0  0
  -27.7492  -23.5837   20.2582 C   0  0  0  0  0  0  0  0  0  0  0  0
  -26.7857  -23.1966   18.4280 C   0  0  0  0  0  0  0  0  0  0  0  0
  -24.1618  -31.2518   25.4292 C   0  0  1  0  0  0  0  0  0  0  0  0
  -24.6914  -31.1583   21.6684 C   0  0  1  0  0  0  0  0  0  0  0  0
  -27.7610  -13.1690   20.4983 C   0  0  2  0  0  0  0  0  0  0  0  0
  -26.9939  -24.4711   19.2587 C   0  0  0  0  0  0  0  0  0  1  0  0
  -20.8383  -32.4119   15.0665 C   0  0  0  0  0  0  0  0  0  0  0  0
  -20.0801  -30.9174   21.4745 C   0  0  0  0  0  0  0  0  0  0  0  0
  -19.0849  -31.1161   19.1857 C   0  0  0  0  0  0  0  0  0  0  0  0
  -20.0137  -33.1346   20.3194 C   0  0  0  0  0  0  0  0  0  0  0  0
  -24.5369  -31.5912   15.4174 C   0  0  0  0  0  0  0  0  0  0  0  0
  -21.5956  -31.3722   19.4343 C   0  0  1  0  0  0  0  0  0  0  0  0
  -22.1651  -32.2761   15.7972 C   0  0  2  0  0  0  0  0  0  0  0  0
  -20.2162  -31.6184   20.1080 C   0  0  0  0  0  0  0  0  0  0  0  0
  -25.8910  -11.5805   20.7461 N   0  0  0  0  0  0  0  0  0  0  0  0
  -26.5570  -12.4296   19.9452 N   0  0  0  0  0  0  0  0  0  0  0  0
  -27.7356  -22.5595   19.2723 N   0  0  0  0  0  0  0  0  0  0  0  0
  -23.6703  -30.8328   20.6706 N   0  0  0  0  0  0  0  0  0  0  0  0
  -28.5778  -15.2176   21.5967 N   0  0  0  0  0  0  0  0  0  0  0  0
  -26.5883  -13.3271   17.7533 N   0  0  0  0  0  0  0  0  0  0  0  0
  -23.0434  -10.5298   17.6833 N   0  0  0  0  0  0  0  0  0  0  0  0
  -28.3394  -17.0650   20.1501 N   0  0  0  0  0  0  0  0  0  0  0  0
  -24.5595  -31.5024   24.0605 N   0  0  0  0  0  0  0  0  0  0  0  0
  -21.7628  -32.0462   18.1513 N   0  0  0  0  0  0  0  0  0  0  0  0
  -23.1785  -31.7525   14.8381 N   0  3  0  0  0  0  0  0  0  0  0  0
  -24.2841  -11.9950   16.4293 O   0  0  0  0  0  0  0  0  0  0  0  0
  -23.4413  -29.7202   23.0625 O   0  0  0  0  0  0  0  0  0  0  0  0
  -22.8293  -33.0071   20.6308 O   0  0  0  0  0  0  0  0  0  0  0  0
  -22.1816  -30.1322   16.9111 O   0  0  0  0  0  0  0  0  0  0  0  0
  -30.0896  -16.9649   21.6695 O   0  0  0  0  0  0  0  0  0  0  0  0
  -21.2315   -7.4029   21.9229 O   0  0  0  0  0  0  0  0  0  0  0  0
  -25.7982  -25.1152   19.7574 O   0  0  0  0  0  0  0  0  0  1  0  0
  -23.1878   -3.1696   24.8651 F   0  0  0  0  0  0  0  0  0  0  0  0
  -29.2480  -21.5926   21.3855 F   0  0  0  0  0  0  0  0  0  0  0  0
  -20.8259   -4.7953   21.0989 F   0  0  0  0  0  0  0  0  0  0  0  0
  -26.6177  -17.8255   17.7518 Cl  0  0  0  0  0  0  0  0  0  0  0  0
  1  2  1  0  0  0  0
  1  5  2  0  0  0  0
  2  6  2  0  0  0  0
  3  8  2  0  0  0  0
  3 17  1  0  0  0  0
  4  9  1  0  0  0  0
  4 17  2  0  0  0  0
  5 19  1  0  0  0  0
  6 21  1  0  0  0  0
  7 10  2  0  0  0  0
  7 20  1  0  0  0  0
  8 25  1  0  0  0  0
  9 25  2  0  0  0  0
 10 26  1  0  0  0  0
 11 12  2  0  0  0  0
 11 27  1  0  0  0  0
 12 28  1  0  0  0  0
 13 22  1  0  0  0  0
 13 26  2  0  0  0  0
 14 23  1  0  0  0  0
 14 31  2  0  0  0  0
 15 24  2  0  0  0  0
 15 29  1  0  0  0  0
 16 28  2  0  0  0  0
 16 30  1  0  0  0  0
 17 32  1  0  0  0  0
 18 32  1  0  0  0  0
 18 33  2  0  0  0  0
 18 34  1  0  0  0  0
 19 21  2  0  0  0  0
 19 39  1  0  0  0  0
 20 22  2  0  0  0  0
 20 40  1  0  0  0  0
 21 50  1  0  0  0  0
 22 41  1  0  0  0  0
 23 29  2  0  0  0  0
 23 64  1  0  0  0  0
 24 31  1  0  0  0  0
 24 69  1  0  0  0  0
 25 78  1  0  0  0  0
 26 79  1  0  0  0  0
 27 30  2  0  0  0  0
 27 78  1  0  0  0  0
 28 80  1  0  0  0  0
 29 81  1  0  0  0  0
 30 82  1  0  0  0  0
 31 83  1  0  0  0  0
 32 62  2  0  0  0  0
 33 63  1  0  0  0  0
 33 67  1  0  0  0  0
 34 68  1  0  0  0  0
 34 73  2  0  0  0  0
 35 51  1  0  0  0  0
 35 70  1  0  0  0  0
 35 74  2  0  0  0  0
 36 59  1  0  0  0  0
 36 65  1  0  0  0  0
 36 75  2  0  0  0  0
 37 60  1  0  0  0  0
 37 71  1  0  0  0  0
 37 76  2  0  0  0  0
 38 66  1  0  0  0  0
 38 69  1  0  0  0  0
 38 77  2  0  0  0  0
 39 42  1  0  0  0  0
 40 51  1  0  0  0  0
 41 65  1  0  0  0  0
 42 44  1  0  0  0  0
 43 45  1  0  0  0  0
 43 46  1  0  0  0  0
 44 50  1  0  0  0  0
 45 52  1  0  0  0  0
 46 66  1  0  0  0  0
 47 52  1  0  0  0  0
 47 66  1  0  0  0  0
 48 53  1  0  0  0  0
 48 64  1  0  0  0  0
 49 53  1  0  0  0  0
 49 64  1  0  0  0  0
 50 70  1  0  0  0  0
 51 65  1  0  0  0  0
 52 63  1  0  0  0  0
 53 79  1  0  0  0  0
 54 60  1  0  0  0  0
 55 61  1  0  0  0  0
 56 61  1  0  0  0  0
 57 61  1  0  0  0  0
 58 72  1  0  0  0  0
 59 61  1  0  0  0  0
 59 71  1  0  0  0  0
 60 72  1  0  0  0  0
 62 63  1  0  0  0  0
M  CHG  1  72   1
M  ISO  4  38 100  53 101  69 100  79 101
M  END
> <Batch ID>
0023

> <Smiles>
CNC(C)C(=O)NC(C(=O)N1Cc2cc([101O:1][101CH:1]3CN(c4cc(Cl)c([100NH:0][100C:0](=O)N5CCCC(n6nc(-c7ccc(Oc8ccc(F)cc8F)cc7)c(C(N)=O)c6N)C5)cc4F)C3)ccc2CC1C(=O)NC1CCCc2ccccc21)C(C)(C)C

> <Shape>
0.278

> <Color>
0.107

> <Negative vol penalty>
0.000

$$$$

  -OEChem-04042321173D

 84 92  0     1  0  0  0  0  0999 V2000
  -29.7615  -23.6109   17.9556 C   0  0  0  0  0  0  0  0  0  0  0  0
  -28.5771  -23.6742   18.6827 C   0  0  0  0  0  0  0  0  0  0  0  0
  -28.3771  -14.5847   20.6597 C   0  0  0  0  0  0  0  0  0  0  0  0
  -26.1830  -15.5871   20.7947 C   0  0  0  0  0  0  0  0  0  0  0  0
  -30.8200  -24.4604   18.2745 C   0  0  0  0  0  0  0  0  0  0  0  0
  -28.4509  -24.5864   19.7297 C   0  0  0  0  0  0  0  0  0  0  0  0
  -24.0144  -27.0271   19.6561 C   0  0  0  0  0  0  0  0  0  0  0  0
  -25.0030  -22.6808   28.2579 C   0  0  0  0  0  0  0  0  0  0  0  0
  -26.1106  -22.2590   27.5225 C   0  0  0  0  0  0  0  0  0  0  0  0
  -27.7940  -13.3212   20.5637 C   0  0  0  0  0  0  0  0  0  0  0  0
  -25.5998  -14.3236   20.6986 C   0  0  0  0  0  0  0  0  0  0  0  0
  -22.9003  -26.3373   20.1323 C   0  0  0  0  0  0  0  0  0  0  0  0
  -25.0137  -11.6889   22.7347 C   0  0  0  0  0  0  0  0  0  0  0  0
  -23.9700  -11.3886   23.6099 C   0  0  0  0  0  0  0  0  0  0  0  0
  -24.7159  -22.0085   25.5656 C   0  0  0  0  0  0  0  0  0  0  0  0
  -23.0858  -27.5026   22.2364 C   0  0  0  0  0  0  0  0  0  0  0  0
  -22.4960  -11.0310   21.7294 C   0  0  0  0  0  0  0  0  0  0  0  0
  -27.5716  -15.7176   20.7753 C   0  0  0  0  0  0  0  0  0  0  0  0
  -23.6082  -22.4303   26.3011 C   0  0  0  0  0  0  0  0  0  0  0  0
  -28.5041  -17.8899   19.8163 C   0  0  0  0  0  0  0  0  0  0  0  0
  -30.7033  -25.3902   19.3197 C   0  0  0  0  0  0  0  0  0  0  0  0
  -24.6803  -27.9533   20.4716 C   0  0  0  0  0  0  0  0  0  0  0  0
  -29.5094  -25.4482   20.0637 C   0  0  0  0  0  0  0  0  0  0  0  0
  -24.2066  -28.2046   21.7672 C   0  0  0  0  0  0  0  0  0  0  0  0
  -23.7517  -22.7664   27.6473 C   0  0  0  0  0  0  0  0  0  0  0  0
  -25.9670  -21.9229   26.1763 C   0  0  0  0  0  0  0  0  0  0  0  0
  -26.4054  -13.1907   20.5831 C   0  0  0  0  0  0  0  0  0  0  0  0
  -22.4376  -26.5729   21.4236 C   0  0  0  0  0  0  0  0  0  0  0  0
  -24.7986  -11.6603   21.3568 C   0  0  0  0  0  0  0  0  0  0  0  0
  -22.7111  -11.0596   23.1073 C   0  0  0  0  0  0  0  0  0  0  0  0
  -23.5397  -11.3314   20.8542 C   0  0  0  0  0  0  0  0  0  0  0  0
  -28.1733  -17.0230   20.8751 C   0  0  0  0  0  0  0  0  0  0  0  0
  -29.0447  -18.9925   20.4314 C   0  0  0  0  0  0  0  0  0  0  0  0
  -22.2876  -22.5130   25.6258 C   0  0  0  0  0  0  0  0  0  0  0  0
  -28.3373  -17.7141   18.4032 C   0  0  0  0  0  0  0  0  0  0  0  0
  -27.6152  -28.1839   21.6703 C   0  0  0  0  0  0  0  0  0  0  0  0
  -26.5579  -31.0824   22.6720 C   0  0  0  0  0  0  0  0  0  0  0  0
  -23.9130  -33.0736   23.5005 C   0  0  0  0  0  0  0  0  0  0  0  0
  -28.4028  -21.3502   25.8844 C   0  0  0  0  0  0  0  0  0  0  0  0
  -31.8916  -26.2552   19.6580 C   0  0  0  0  0  0  0  0  0  0  0  0
  -25.8646  -28.7086   19.9337 C   0  0  0  0  0  0  0  0  0  0  0  0
  -24.8737  -29.2038   22.6756 C   0  0  0  0  0  0  0  0  0  0  0  0
  -31.5429  -27.4515   20.5398 C   0  0  0  0  0  0  0  0  0  0  0  0
  -31.4436  -20.2837   24.3700 C   0  0  0  0  0  0  0  0  0  0  0  0
  -30.6520  -27.0180   21.6996 C   0  0  0  0  0  0  0  0  0  0  0  0
  -30.9801  -19.4103   23.2019 C   0  0  0  0  0  0  0  0  0  0  0  0
  -30.5424  -20.1206   25.5927 C   0  0  0  0  0  0  0  0  0  0  0  0
  -28.6464  -19.4473   24.1711 C   0  0  0  0  0  0  0  0  0  0  0  0
  -29.3253  -26.4415   21.1906 C   0  0  1  0  0  0  0  0  0  0  0  0
  -26.7748  -29.2525   21.0306 C   0  0  1  0  0  0  0  0  0  0  0  0
  -29.4852  -19.6265   22.8952 C   0  0  2  0  0  0  0  0  0  0  0  0
  -22.5822  -23.2210   28.4581 C   0  0  0  0  0  0  0  0  0  0  0  0
  -23.3653  -35.3821   24.3180 C   0  0  0  0  0  0  0  0  0  0  0  0
  -27.4421  -30.2937   25.4838 C   0  0  0  0  0  0  0  0  0  0  0  0
  -26.0426  -32.1689   26.3745 C   0  0  0  0  0  0  0  0  0  0  0  0
  -27.9577  -32.6581   24.8528 C   0  0  0  0  0  0  0  0  0  0  0  0
  -22.3490  -33.6908   21.0649 C   0  0  0  0  0  0  0  0  0  0  0  0
  -20.5030  -24.3706   23.5341 C   0  0  0  0  0  0  0  0  0  0  0  0
  -20.4022  -24.0030   25.0083 C   0  0  0  0  0  0  0  0  0  0  0  0
  -21.2968  -25.6493   23.2948 C   0  0  0  0  0  0  0  0  0  1  0  0
  -25.8649  -31.5982   23.9100 C   0  0  1  0  0  0  0  0  0  0  0  0
  -23.5564  -34.4935   23.0988 C   0  0  2  0  0  0  0  0  0  0  0  0
  -26.8152  -31.6594   25.1391 C   0  0  0  0  0  0  0  0  0  0  0  0
  -28.4785  -17.5311   22.0721 N   0  0  0  0  0  0  0  0  0  0  0  0
  -29.0068  -18.7292   21.7691 N   0  0  0  0  0  0  0  0  0  0  0  0
  -26.0317  -29.9124   22.1061 N   0  0  0  0  0  0  0  0  0  0  0  0
  -29.1420  -20.3440   25.2271 N   0  0  0  0  0  0  0  0  0  0  0  0
  -29.5442  -20.1519   19.9532 N   0  0  0  0  0  0  0  0  0  0  0  0
  -27.7648  -16.5212   17.9412 N   0  0  0  0  0  0  0  0  0  0  0  0
  -27.0921  -21.4926   25.4302 N   0  0  0  0  0  0  0  0  0  0  0  0
  -21.6890  -23.7678   25.6024 N   0  0  0  0  0  0  0  0  0  0  0  0
  -28.4333  -27.5069   20.7861 N   0  0  0  0  0  0  0  0  0  0  0  0
  -25.2779  -32.8827   23.5440 N   0  0  0  0  0  0  0  0  0  0  0  0
  -22.2948  -34.5060   22.3057 N   0  3  0  0  0  0  0  0  0  0  0  0
  -21.7913  -21.4945   25.1516 O   0  0  0  0  0  0  0  0  0  0  0  0
  -28.7009  -18.5821   17.5738 O   0  0  0  0  0  0  0  0  0  0  0  0
  -27.5290  -27.9891   22.8771 O   0  0  0  0  0  0  0  0  0  0  0  0
  -27.5258  -31.6988   22.2195 O   0  0  0  0  0  0  0  0  0  0  0  0
  -23.0656  -32.2204   23.7542 O   0  0  0  0  0  0  0  0  0  0  0  0
  -28.9046  -22.0535   26.7651 O   0  0  0  0  0  0  0  0  0  0  0  0
  -25.8360  -11.9580   20.4891 O   0  0  0  0  0  0  0  0  0  0  0  0
  -21.3507  -25.9006   21.8912 O   0  0  0  0  0  0  0  0  0  1  0  0
  -21.7093  -10.7698   23.9479 F   0  0  0  0  0  0  0  0  0  0  0  0
  -23.3273  -11.3011   19.5314 F   0  0  0  0  0  0  0  0  0  0  0  0
  1  2  1  0  0  0  0
  1  5  2  0  0  0  0
  2  6  2  0  0  0  0
  3 10  2  0  0  0  0
  3 18  1  0  0  0  0
  4 11  1  0  0  0  0
  4 18  2  0  0  0  0
  5 21  1  0  0  0  0
  6 23  1  0  0  0  0
  7 12  2  0  0  0  0
  7 22  1  0  0  0  0
  8  9  2  0  0  0  0
  8 25  1  0  0  0  0
  9 26  1  0  0  0  0
 10 27  1  0  0  0  0
 11 27  2  0  0  0  0
 12 28  1  0  0  0  0
 13 14  2  0  0  0  0
 13 29  1  0  0  0  0
 14 30  1  0  0  0  0
 15 19  1  0  0  0  0
 15 26  2  0  0  0  0
 16 24  1  0  0  0  0
 16 28  2  0  0  0  0
 17 30  2  0  0  0  0
 17 31  1  0  0  0  0
 18 32  1  0  0  0  0
 19 25  2  0  0  0  0
 19 34  1  0  0  0  0
 20 32  1  0  0  0  0
 20 33  2  0  0  0  0
 20 35  1  0  0  0  0
 21 23  2  0  0  0  0
 21 40  1  0  0  0  0
 22 24  2  0  0  0  0
 22 41  1  0  0  0  0
 23 49  1  0  0  0  0
 24 42  1  0  0  0  0
 25 52  1  0  0  0  0
 26 70  1  0  0  0  0
 27 81  1  0  0  0  0
 28 82  1  0  0  0  0
 29 31  2  0  0  0  0
 29 81  1  0  0  0  0
 30 83  1  0  0  0  0
 31 84  1  0  0  0  0
 32 64  2  0  0  0  0
 33 65  1  0  0  0  0
 33 68  1  0  0  0  0
 34 71  1  0  0  0  0
 34 75  2  0  0  0  0
 35 69  1  0  0  0  0
 35 76  2  0  0  0  0
 36 50  1  0  0  0  0
 36 72  1  0  0  0  0
 36 77  2  0  0  0  0
 37 61  1  0  0  0  0
 37 66  1  0  0  0  0
 37 78  2  0  0  0  0
 38 62  1  0  0  0  0
 38 73  1  0  0  0  0
 38 79  2  0  0  0  0
 39 67  1  0  0  0  0
 39 70  1  0  0  0  0
 39 80  2  0  0  0  0
 40 43  1  0  0  0  0
 41 50  1  0  0  0  0
 42 66  1  0  0  0  0
 43 45  1  0  0  0  0
 44 46  1  0  0  0  0
 44 47  1  0  0  0  0
 45 49  1  0  0  0  0
 46 51  1  0  0  0  0
 47 67  1  0  0  0  0
 48 51  1  0  0  0  0
 48 67  1  0  0  0  0
 49 72  1  0  0  0  0
 50 66  1  0  0  0  0
 51 65  1  0  0  0  0
 53 62  1  0  0  0  0
 54 63  1  0  0  0  0
 55 63  1  0  0  0  0
 56 63  1  0  0  0  0
 57 74  1  0  0  0  0
 58 59  1  0  0  0  0
 58 60  1  0  0  0  0
 59 71  1  0  0  0  0
 60 82  1  0  0  0  0
 61 63  1  0  0  0  0
 61 73  1  0  0  0  0
 62 74  1  0  0  0  0
 64 65  1  0  0  0  0
M  CHG  1  74   1
M  ISO  4  39 100  60 101  70 100  82 101
M  END
> <Batch ID>
0023

> <Smiles>
CNC(C)C(=O)NC(C(=O)N1Cc2cc([101O:1][101CH2:1]CCNC(=O)c3cc([100NH:0][100C:0](=O)N4CCCC(n5nc(-c6ccc(Oc7ccc(F)cc7F)cc6)c(C(N)=O)c5N)C4)ccc3C)ccc2CC1C(=O)NC1CCCc2ccccc21)C(C)(C)C

> <Shape>
0.262

> <Color>
0.073

> <Negative vol penalty>
0.000

$$$$

  -OEChem-04042321173D

 89 97  0     1  0  0  0  0  0999 V2000
  -22.1154  -21.7584   33.2397 C   0  0  0  0  0  0  0  0  0  0  0  0
  -23.0302  -21.8240   32.1936 C   0  0  0  0  0  0  0  0  0  0  0  0
  -23.0415   -9.9084   19.9475 C   0  0  0  0  0  0  0  0  0  0  0  0
  -23.7655   -9.9313   22.2523 C   0  0  0  0  0  0  0  0  0  0  0  0
  -20.7682  -22.0296   33.0041 C   0  0  0  0  0  0  0  0  0  0  0  0
  -22.5981  -22.1598   30.9110 C   0  0  0  0  0  0  0  0  0  0  0  0
  -25.6345  -25.5285   28.6578 C   0  0  0  0  0  0  0  0  0  0  0  0
  -31.0875  -17.7611   20.6809 C   0  0  0  0  0  0  0  0  0  0  0  0
  -22.2964   -8.7550   20.1930 C   0  0  0  0  0  0  0  0  0  0  0  0
  -23.0204   -8.7780   22.4979 C   0  0  0  0  0  0  0  0  0  0  0  0
  -26.8295  -25.0502   28.1222 C   0  0  0  0  0  0  0  0  0  0  0  0
  -23.3275   -5.4533   21.9658 C   0  0  0  0  0  0  0  0  0  0  0  0
  -31.2518  -19.1462   20.6814 C   0  0  0  0  0  0  0  0  0  0  0  0
  -23.9340   -4.4339   22.6996 C   0  0  0  0  0  0  0  0  0  0  0  0
  -25.8318  -25.0344   25.9260 C   0  0  0  0  0  0  0  0  0  0  0  0
  -29.4281  -17.9573   22.4258 C   0  0  0  0  0  0  0  0  0  0  0  0
  -22.2059   -4.6141   24.3784 C   0  0  0  0  0  0  0  0  0  0  0  0
  -23.7761  -10.4965   20.9772 C   0  0  0  0  0  0  0  0  0  0  0  0
  -24.1140  -13.0217   20.8467 C   0  0  0  0  0  0  0  0  0  0  0  0
  -20.3209  -22.3783   31.7200 C   0  0  0  0  0  0  0  0  0  0  0  0
  -24.5238  -25.7533   27.8318 C   0  0  0  0  0  0  0  0  0  0  0  0
  -21.2434  -22.4346   30.6578 C   0  0  0  0  0  0  0  0  0  0  0  0
  -24.6246  -25.5180   26.4532 C   0  0  0  0  0  0  0  0  0  0  0  0
  -29.5924  -19.3425   22.4264 C   0  0  0  0  0  0  0  0  0  0  0  0
  -30.1755  -17.1666   21.5531 C   0  0  0  0  0  0  0  0  0  0  0  0
  -22.2859   -8.1899   21.4682 C   0  0  0  0  0  0  0  0  0  0  0  0
  -26.9274  -24.8004   26.7565 C   0  0  0  0  0  0  0  0  0  0  0  0
  -22.1601   -6.0532   22.4383 C   0  0  0  0  0  0  0  0  0  0  0  0
  -23.3732   -4.0143   23.9059 C   0  0  0  0  0  0  0  0  0  0  0  0
  -30.5043  -19.9369   21.5541 C   0  0  0  0  0  0  0  0  0  0  0  0
  -21.5993   -5.6335   23.6445 C   0  0  0  0  0  0  0  0  0  0  0  0
  -24.5464  -11.6876   20.7240 C   0  0  0  0  0  0  0  0  0  0  0  0
  -25.2100  -13.7715   20.4959 C   0  0  0  0  0  0  0  0  0  0  0  0
  -22.8360  -13.5371   21.2426 C   0  0  0  0  0  0  0  0  0  0  0  0
  -21.5800  -24.5669   27.6590 C   0  0  0  0  0  0  0  0  0  0  0  0
  -21.2035  -26.8695   25.4054 C   0  0  0  0  0  0  0  0  0  0  0  0
  -22.6481  -28.9382   23.1075 C   0  0  0  0  0  0  0  0  0  0  0  0
  -30.6704  -14.8310   20.7491 C   0  0  0  0  0  0  0  0  0  0  0  0
  -18.8474  -22.6166   31.5044 C   0  0  0  0  0  0  0  0  0  0  0  0
  -23.2502  -26.2948   28.4210 C   0  0  0  0  0  0  0  0  0  0  0  0
  -23.4676  -25.7624   25.5203 C   0  0  0  0  0  0  0  0  0  0  0  0
  -18.5314  -23.3308   30.1927 C   0  0  0  0  0  0  0  0  0  0  0  0
  -29.5985  -12.4000   18.3789 C   0  0  0  0  0  0  0  0  0  0  0  0
  -19.3043  -22.6973   29.0403 C   0  0  0  0  0  0  0  0  0  0  0  0
  -28.1530  -12.1076   18.7878 C   0  0  0  0  0  0  0  0  0  0  0  0
  -30.4943  -12.6384   19.5932 C   0  0  0  0  0  0  0  0  0  0  0  0
  -28.5644  -13.3669   20.9400 C   0  0  0  0  0  0  0  0  0  0  0  0
  -20.8173  -22.8195   29.2577 C   0  0  1  0  0  0  0  0  0  0  0  0
  -22.0228  -25.9996   27.5645 C   0  0  1  0  0  0  0  0  0  0  0  0
  -27.6104  -13.1840   19.7483 C   0  0  2  0  0  0  0  0  0  0  0  0
  -22.0796  -30.6787   21.3915 C   0  0  0  0  0  0  0  0  0  0  0  0
  -20.2313  -24.6825   23.5128 C   0  0  0  0  0  0  0  0  0  0  0  0
  -20.5897  -26.2680   21.6085 C   0  0  0  0  0  0  0  0  0  0  0  0
  -18.9353  -26.8181   23.3926 C   0  0  0  0  0  0  0  0  0  0  0  0
  -30.6661  -23.3194   25.2927 C   0  0  0  0  0  0  0  0  0  0  0  0
  -30.6708  -21.7297   27.2181 C   0  0  0  0  0  0  0  0  0  0  0  0
  -25.6874  -21.2226   25.5015 C   0  0  0  0  0  0  0  0  0  0  0  0
  -26.2207  -18.9535   26.0841 C   0  0  0  0  0  0  0  0  0  0  0  0
  -24.2353  -31.0055   24.5096 C   0  0  0  0  0  0  0  0  0  0  0  0
  -28.7865  -20.1911   23.3651 C   0  0  0  0  0  0  0  0  0  0  0  0
  -27.8892  -20.6702   26.2884 C   0  0  0  0  0  0  0  0  0  0  0  0
  -28.9075  -23.5228   27.0772 C   0  0  0  0  0  0  0  0  0  1  0  0
  -21.4064  -26.9466   23.9115 C   0  0  1  0  0  0  0  0  0  0  0  0
  -22.4738  -30.4218   22.8376 C   0  0  2  0  0  0  0  0  0  0  0  0
  -28.7959  -21.5807   25.4406 C   0  0  1  0  0  0  0  0  0  0  0  0
  -20.3121  -26.1722   23.1240 C   0  0  0  0  0  0  0  0  0  0  0  0
  -29.7569  -22.5161   26.2545 C   0  0  0  0  0  0  0  0  0  0  0  0
  -25.8178  -11.5921   20.3261 N   0  0  0  0  0  0  0  0  0  0  0  0
  -26.1938  -12.8758   20.1956 N   0  0  0  0  0  0  0  0  0  0  0  0
  -22.2418  -26.2861   26.1452 N   0  0  0  0  0  0  0  0  0  0  0  0
  -29.9194  -13.6733   20.4553 N   0  0  0  0  0  0  0  0  0  0  0  0
  -25.4185  -15.1029   20.4178 N   0  0  0  0  0  0  0  0  0  0  0  0
  -21.8210  -12.6276   21.5698 N   0  0  0  0  0  0  0  0  0  0  0  0
  -30.0083  -15.7596   21.5516 N   0  0  0  0  0  0  0  0  0  0  0  0
  -21.2669  -24.1582   28.9414 N   0  0  0  0  0  0  0  0  0  0  0  0
  -21.4874  -28.3658   23.5833 N   0  0  0  0  0  0  0  0  0  0  0  0
  -26.7343  -20.2018   25.5221 N   0  0  0  0  0  0  0  0  0  0  0  0
  -23.7433  -31.1514   23.1155 N   0  3  0  0  0  0  0  0  0  0  0  0
  -29.5753  -20.6968   24.5131 N   0  3  0  0  0  0  0  0  0  0  0  0
  -22.5961  -14.7674   21.2886 O   0  0  0  0  0  0  0  0  0  0  0  0
  -21.5249  -23.8832   26.6435 O   0  0  0  0  0  0  0  0  0  0  0  0
  -20.1651  -27.3170   25.8985 O   0  0  0  0  0  0  0  0  0  0  0  0
  -23.7068  -28.3454   22.9120 O   0  0  0  0  0  0  0  0  0  0  0  0
  -31.8063  -14.9995   20.2981 O   0  0  0  0  0  0  0  0  0  0  0  0
  -21.5587   -7.0646   21.7082 O   0  0  0  0  0  0  0  0  0  0  0  0
  -28.0925  -24.3329   26.2312 O   0  0  0  0  0  0  0  0  0  1  0  0
  -23.9549   -3.0343   24.6097 F   0  0  0  0  0  0  0  0  0  0  0  0
  -30.6702  -21.2669   21.5481 F   0  0  0  0  0  0  0  0  0  0  0  0
  -20.4773   -6.2052   24.1029 F   0  0  0  0  0  0  0  0  0  0  0  0
  1  2  1  0  0  0  0
  1  5  2  0  0  0  0
  2  6  2  0  0  0  0
  3  9  2  0  0  0  0
  3 18  1  0  0  0  0
  4 10  1  0  0  0  0
  4 18  2  0  0  0  0
  5 20  1  0  0  0  0
  6 22  1  0  0  0  0
  7 11  2  0  0  0  0
  7 21  1  0  0  0  0
  8 13  2  0  0  0  0
  8 25  1  0  0  0  0
  9 26  1  0  0  0  0
 10 26  2  0  0  0  0
 11 27  1  0  0  0  0
 12 14  2  0  0  0  0
 12 28  1  0  0  0  0
 13 30  1  0  0  0  0
 14 29  1  0  0  0  0
 15 23  1  0  0  0  0
 15 27  2  0  0  0  0
 16 24  1  0  0  0  0
 16 25  2  0  0  0  0
 17 29  2  0  0  0  0
 17 31  1  0  0  0  0
 18 32  1  0  0  0  0
 19 32  1  0  0  0  0
 19 33  2  0  0  0  0
 19 34  1  0  0  0  0
 20 22  2  0  0  0  0
 20 39  1  0  0  0  0
 21 23  2  0  0  0  0
 21 40  1  0  0  0  0
 22 48  1  0  0  0  0
 23 41  1  0  0  0  0
 24 30  2  0  0  0  0
 24 60  1  0  0  0  0
 25 74  1  0  0  0  0
 26 85  1  0  0  0  0
 27 86  1  0  0  0  0
 28 31  2  0  0  0  0
 28 85  1  0  0  0  0
 29 87  1  0  0  0  0
 30 88  1  0  0  0  0
 31 89  1  0  0  0  0
 32 68  2  0  0  0  0
 33 69  1  0  0  0  0
 33 72  1  0  0  0  0
 34 73  1  0  0  0  0
 34 80  2  0  0  0  0
 35 49  1  0  0  0  0
 35 75  1  0  0  0  0
 35 81  2  0  0  0  0
 36 63  1  0  0  0  0
 36 70  1  0  0  0  0
 36 82  2  0  0  0  0
 37 64  1  0  0  0  0
 37 76  1  0  0  0  0
 37 83  2  0  0  0  0
 38 71  1  0  0  0  0
 38 74  1  0  0  0  0
 38 84  2  0  0  0  0
 39 42  1  0  0  0  0
 40 49  1  0  0  0  0
 41 70  1  0  0  0  0
 42 44  1  0  0  0  0
 43 45  1  0  0  0  0
 43 46  1  0  0  0  0
 44 48  1  0  0  0  0
 45 50  1  0  0  0  0
 46 71  1  0  0  0  0
 47 50  1  0  0  0  0
 47 71  1  0  0  0  0
 48 75  1  0  0  0  0
 49 70  1  0  0  0  0
 50 69  1  0  0  0  0
 51 64  1  0  0  0  0
 52 66  1  0  0  0  0
 53 66  1  0  0  0  0
 54 66  1  0  0  0  0
 55 67  1  0  0  0  0
 56 67  1  0  0  0  0
 57 77  1  0  0  0  0
 58 77  1  0  0  0  0
 59 78  1  0  0  0  0
 60 79  1  0  0  0  0
 61 65  1  0  0  0  0
 61 77  1  0  0  0  0
 62 67  1  0  0  0  0
 62 86  1  0  0  0  0
 63 66  1  0  0  0  0
 63 76  1  0  0  0  0
 64 78  1  0  0  0  0
 65 67  1  0  0  0  0
 65 79  1  0  0  0  0
 68 69  1  0  0  0  0
M  CHG  2  78   1  79   1
M  ISO  4  38 100  62 101  74 100  86 101
M  END
> <Batch ID>
0023

> <Smiles>
CNC(C)C(=O)NC(C(=O)N1Cc2cc([101O:1][101CH2:1]C(C)(C)C(CN(C)C)NCc3cc([100NH:0][100C:0](=O)N4CCCC(n5nc(-c6ccc(Oc7ccc(F)cc7F)cc6)c(C(N)=O)c5N)C4)ccc3F)ccc2CC1C(=O)NC1CCCc2ccccc21)C(C)(C)C

> <Shape>
0.241

> <Color>
0.206

> <Negative vol penalty>
0.000

$$$$

  -OEChem-04042321173D

 85 93  0     1  0  0  0  0  0999 V2000
  -30.1111  -11.1525   20.1786 C   0  0  0  0  0  0  0  0  0  0  0  0
  -30.1080  -12.2891   20.9808 C   0  0  0  0  0  0  0  0  0  0  0  0
  -28.8823  -22.6570   20.1563 C   0  0  0  0  0  0  0  0  0  0  0  0
  -27.7518  -22.6356   18.0212 C   0  0  0  0  0  0  0  0  0  0  0  0
  -29.2410  -11.0646   19.0927 C   0  0  0  0  0  0  0  0  0  0  0  0
  -29.2354  -13.3391   20.6969 C   0  0  0  0  0  0  0  0  0  0  0  0
  -26.4538  -17.0084   24.7348 C   0  0  0  0  0  0  0  0  0  0  0  0
  -26.3431  -30.1041   25.8932 C   0  0  0  0  0  0  0  0  0  0  0  0
  -28.8765  -21.2623   20.1733 C   0  0  0  0  0  0  0  0  0  0  0  0
  -27.7460  -21.2409   18.0382 C   0  0  0  0  0  0  0  0  0  0  0  0
  -26.7491  -18.2908   25.1955 C   0  0  0  0  0  0  0  0  0  0  0  0
  -30.6381  -18.7466   18.7587 C   0  0  0  0  0  0  0  0  0  0  0  0
  -26.2893  -30.0965   27.2869 C   0  0  0  0  0  0  0  0  0  0  0  0
  -31.8165  -18.0979   19.1278 C   0  0  0  0  0  0  0  0  0  0  0  0
  -25.2215  -19.2181   23.5751 C   0  0  0  0  0  0  0  0  0  0  0  0
  -25.4233  -27.8415   27.2412 C   0  0  0  0  0  0  0  0  0  0  0  0
  -30.6630  -17.0542   20.9764 C   0  0  0  0  0  0  0  0  0  0  0  0
  -28.3199  -23.3437   19.0802 C   0  0  0  0  0  0  0  0  0  0  0  0
  -29.3198  -25.6244   18.5269 C   0  0  0  0  0  0  0  0  0  0  0  0
  -28.3506  -12.1100   18.8011 C   0  0  0  0  0  0  0  0  0  0  0  0
  -25.5469  -16.8218   23.6817 C   0  0  0  0  0  0  0  0  0  0  0  0
  -28.3535  -13.2657   19.6053 C   0  0  0  0  0  0  0  0  0  0  0  0
  -24.9145  -17.9323   23.1046 C   0  0  0  0  0  0  0  0  0  0  0  0
  -25.4771  -27.8491   25.8473 C   0  0  0  0  0  0  0  0  0  0  0  0
  -25.9369  -28.9804   25.1733 C   0  0  0  0  0  0  0  0  0  0  0  0
  -28.3084  -20.5542   19.1143 C   0  0  0  0  0  0  0  0  0  0  0  0
  -26.1351  -19.3960   24.6138 C   0  0  0  0  0  0  0  0  0  0  0  0
  -29.4722  -18.5491   19.4986 C   0  0  0  0  0  0  0  0  0  0  0  0
  -25.8294  -28.9652   27.9609 C   0  0  0  0  0  0  0  0  0  0  0  0
  -31.8290  -17.2517   20.2366 C   0  0  0  0  0  0  0  0  0  0  0  0
  -29.4846  -17.7029   20.6074 C   0  0  0  0  0  0  0  0  0  0  0  0
  -28.3250  -24.7844   19.0623 C   0  0  0  0  0  0  0  0  0  0  0  0
  -28.8564  -26.8964   18.7587 C   0  0  0  0  0  0  0  0  0  0  0  0
  -30.5525  -25.2852   17.8781 C   0  0  0  0  0  0  0  0  0  0  0  0
  -25.7315  -15.6032   20.7517 C   0  0  0  0  0  0  0  0  0  0  0  0
  -22.5208  -16.0644   20.7788 C   0  0  0  0  0  0  0  0  0  0  0  0
  -19.8472  -17.7537   22.0613 C   0  0  0  0  0  0  0  0  0  0  0  0
  -24.8428  -28.8349   22.9424 C   0  0  0  0  0  0  0  0  0  0  0  0
  -27.4618  -11.9895   17.5886 C   0  0  0  0  0  0  0  0  0  0  0  0
  -25.2190  -15.4303   23.2141 C   0  0  0  0  0  0  0  0  0  0  0  0
  -23.9181  -17.7843   21.9849 C   0  0  0  0  0  0  0  0  0  0  0  0
  -26.3067  -12.9874   17.5786 C   0  0  0  0  0  0  0  0  0  0  0  0
  -24.8094  -29.3801   19.2939 C   0  0  0  0  0  0  0  0  0  0  0  0
  -26.8053  -14.3847   17.9331 C   0  0  0  0  0  0  0  0  0  0  0  0
  -25.7452  -28.2883   18.7779 C   0  0  0  0  0  0  0  0  0  0  0  0
  -24.1051  -28.9612   20.5810 C   0  0  0  0  0  0  0  0  0  0  0  0
  -25.9735  -27.4383   21.1466 C   0  0  0  0  0  0  0  0  0  0  0  0
  -27.4044  -14.4151   19.3443 C   0  0  1  0  0  0  0  0  0  0  0  0
  -24.6681  -15.3921   21.7920 C   0  0  1  0  0  0  0  0  0  0  0  0
  -26.7306  -27.8471   19.8740 C   0  0  1  0  0  0  0  0  0  0  0  0
  -17.3527  -17.9383   21.8598 C   0  0  0  0  0  0  0  0  0  0  0  0
  -22.8488  -17.6239   18.1768 C   0  0  0  0  0  0  0  0  0  0  0  0
  -20.5551  -18.5626   18.5317 C   0  0  0  0  0  0  0  0  0  0  0  0
  -20.8633  -16.1046   18.2392 C   0  0  0  0  0  0  0  0  0  0  0  0
  -27.2415  -29.4619   23.0942 C   0  0  0  0  0  0  0  0  0  0  0  0
  -19.4439  -16.9554   24.8825 C   0  0  0  0  0  0  0  0  0  0  0  0
  -27.3964  -25.9543   24.6893 C   0  0  0  0  0  0  0  0  0  0  0  0
  -25.0341  -26.6262   25.0995 C   0  0  0  0  0  0  0  0  0  0  0  0
  -26.2261  -23.0394   25.0535 C   0  0  0  0  0  0  0  0  0  0  0  0
  -25.5681  -24.2783   24.4650 C   0  0  0  0  0  0  0  0  0  0  0  0
  -25.7564  -21.7359   24.4195 C   0  0  0  0  0  0  0  0  0  1  0  0
  -21.6003  -17.1981   20.3963 C   0  0  1  0  0  0  0  0  0  0  0  0
  -18.5083  -17.2697   22.5880 C   0  0  2  0  0  0  0  0  0  0  0  0
  -21.4871  -17.3756   18.8558 C   0  0  0  0  0  0  0  0  0  0  0  0
  -27.3065  -25.4655   19.5942 N   0  0  0  0  0  0  0  0  0  0  0  0
  -27.6590  -26.7468   19.3943 N   0  0  0  0  0  0  0  0  0  0  0  0
  -23.6355  -16.4038   21.5585 N   0  0  0  0  0  0  0  0  0  0  0  0
  -25.0609  -28.5034   21.5901 N   0  0  0  0  0  0  0  0  0  0  0  0
  -29.3604  -28.1171   18.4788 N   0  0  0  0  0  0  0  0  0  0  0  0
  -30.8746  -23.9301   17.7220 N   0  0  0  0  0  0  0  0  0  0  0  0
  -26.3536  -14.4403   20.3391 N   0  0  0  0  0  0  0  0  0  0  0  0
  -20.3294  -16.9346   21.0624 N   0  0  0  0  0  0  0  0  0  0  0  0
  -26.0007  -29.0084   23.7311 N   0  0  0  0  0  0  0  0  0  0  0  0
  -18.3843  -17.5706   24.0424 N   0  3  0  0  0  0  0  0  0  0  0  0
  -26.0367  -25.4990   25.1619 N   0  3  1  0  0  0  0  0  0  0  0  0
  -31.3527  -26.1580   17.4642 O   0  0  0  0  0  0  0  0  0  0  0  0
  -25.9690  -16.7369   20.3519 O   0  0  0  0  0  0  0  0  0  0  0  0
  -22.2564  -14.9187   20.4057 O   0  0  0  0  0  0  0  0  0  0  0  0
  -20.4074  -18.7601   22.4903 O   0  0  0  0  0  0  0  0  0  0  0  0
  -23.7047  -28.9925   23.4002 O   0  0  0  0  0  0  0  0  0  0  0  0
  -28.3029  -19.1932   19.1304 O   0  0  0  0  0  0  0  0  0  0  0  0
  -26.4220  -20.6488   25.0611 O   0  0  0  0  0  0  0  0  0  1  0  0
  -25.7784  -28.9578   29.2994 F   0  0  0  0  0  0  0  0  0  0  0  0
  -32.9603  -16.6277   20.5899 F   0  0  0  0  0  0  0  0  0  0  0  0
  -28.3674  -17.5084   21.3213 F   0  0  0  0  0  0  0  0  0  0  0  0
  1  2  1  0  0  0  0
  1  5  2  0  0  0  0
  2  6  2  0  0  0  0
  3  9  2  0  0  0  0
  3 18  1  0  0  0  0
  4 10  1  0  0  0  0
  4 18  2  0  0  0  0
  5 20  1  0  0  0  0
  6 22  1  0  0  0  0
  7 11  2  0  0  0  0
  7 21  1  0  0  0  0
  8 13  2  0  0  0  0
  8 25  1  0  0  0  0
  9 26  1  0  0  0  0
 10 26  2  0  0  0  0
 11 27  1  0  0  0  0
 12 14  2  0  0  0  0
 12 28  1  0  0  0  0
 13 29  1  0  0  0  0
 14 30  1  0  0  0  0
 15 23  1  0  0  0  0
 15 27  2  0  0  0  0
 16 24  1  0  0  0  0
 16 29  2  0  0  0  0
 17 30  2  0  0  0  0
 17 31  1  0  0  0  0
 18 32  1  0  0  0  0
 19 32  1  0  0  0  0
 19 33  2  0  0  0  0
 19 34  1  0  0  0  0
 20 22  2  0  0  0  0
 20 39  1  0  0  0  0
 21 23  2  0  0  0  0
 21 40  1  0  0  0  0
 22 48  1  0  0  0  0
 23 41  1  0  0  0  0
 24 25  2  0  0  0  0
 24 58  1  0  0  0  0
 25 73  1  0  0  0  0
 26 81  1  0  0  0  0
 27 82  1  0  0  0  0
 28 31  2  0  0  0  0
 28 81  1  0  0  0  0
 29 83  1  0  0  0  0
 30 84  1  0  0  0  0
 31 85  1  0  0  0  0
 32 65  2  0  0  0  0
 33 66  1  0  0  0  0
 33 69  1  0  0  0  0
 34 70  1  0  0  0  0
 34 76  2  0  0  0  0
 35 49  1  0  0  0  0
 35 71  1  0  0  0  0
 35 77  2  0  0  0  0
 36 62  1  0  0  0  0
 36 67  1  0  0  0  0
 36 78  2  0  0  0  0
 37 63  1  0  0  0  0
 37 72  1  0  0  0  0
 37 79  2  0  0  0  0
 38 68  1  0  0  0  0
 38 73  1  0  0  0  0
 38 80  2  0  0  0  0
 39 42  1  0  0  0  0
 40 49  1  0  0  0  0
 41 67  1  0  0  0  0
 42 44  1  0  0  0  0
 43 45  1  0  0  0  0
 43 46  1  0  0  0  0
 44 48  1  0  0  0  0
 45 50  1  0  0  0  0
 46 68  1  0  0  0  0
 47 50  1  0  0  0  0
 47 68  1  0  0  0  0
 48 71  1  0  0  0  0
 49 67  1  0  0  0  0
 50 66  1  0  0  0  0
 51 63  1  0  0  0  0
 52 64  1  0  0  0  0
 53 64  1  0  0  0  0
 54 64  1  0  0  0  0
 55 73  1  0  0  0  0
 56 74  1  0  0  0  0
 57 75  1  0  0  0  0
 58 75  1  0  0  0  0
 59 60  1  0  0  0  0
 59 61  1  0  0  0  0
 60 75  1  0  0  0  0
 61 82  1  0  0  0  0
 62 64  1  0  0  0  0
 62 72  1  0  0  0  0
 63 74  1  0  0  0  0
 65 66  1  0  0  0  0
M  CHG  2  74   1  75   1
M  ISO  4  38 100  61 101  73 100  82 101
M  END
> <Batch ID>
0023

> <Smiles>
CNC(C)C(=O)NC(C(=O)N1Cc2cc([101O:1][101CH2:1]CCN(C)Cc3cc(F)ccc3[100N:0](C)[100C:0](=O)N3CCCC(n4nc(-c5ccc(Oc6ccc(F)cc6F)cc5)c(C(N)=O)c4N)C3)ccc2CC1C(=O)NC1CCCc2ccccc21)C(C)(C)C

> <Shape>
0.209

> <Color>
0.066

> <Negative vol penalty>
0.000

$$$$

  -OEChem-04042321173D

 85 94  0     1  0  0  0  0  0999 V2000
  -20.6839  -12.5313   26.4123 C   0  0  0  0  0  0  0  0  0  0  0  0
  -21.5830  -13.5405   26.0829 C   0  0  0  0  0  0  0  0  0  0  0  0
  -23.0735   -9.8698   19.9419 C   0  0  0  0  0  0  0  0  0  0  0  0
  -23.8313   -9.8785   22.2360 C   0  0  0  0  0  0  0  0  0  0  0  0
  -19.3273  -12.6889   26.1317 C   0  0  0  0  0  0  0  0  0  0  0  0
  -21.1261  -14.7076   25.4715 C   0  0  0  0  0  0  0  0  0  0  0  0
  -23.1407  -18.8840   27.5072 C   0  0  0  0  0  0  0  0  0  0  0  0
  -32.0643  -16.6038   22.5495 C   0  0  0  0  0  0  0  0  0  0  0  0
  -22.3284   -8.7175   20.1924 C   0  0  0  0  0  0  0  0  0  0  0  0
  -23.0861   -8.7263   22.4865 C   0  0  0  0  0  0  0  0  0  0  0  0
  -24.4447  -19.2082   27.1353 C   0  0  0  0  0  0  0  0  0  0  0  0
  -19.3781   -7.9250   21.6417 C   0  0  0  0  0  0  0  0  0  0  0  0
  -32.6549  -17.4871   23.4531 C   0  0  0  0  0  0  0  0  0  0  0  0
  -18.0717   -7.8794   21.1552 C   0  0  0  0  0  0  0  0  0  0  0  0
  -23.5882  -20.8313   25.5697 C   0  0  0  0  0  0  0  0  0  0  0  0
  -18.6310   -5.9344   19.8356 C   0  0  0  0  0  0  0  0  0  0  0  0
  -23.8250  -10.4503   20.9637 C   0  0  0  0  0  0  0  0  0  0  0  0
  -24.1691  -12.9750   20.8413 C   0  0  0  0  0  0  0  0  0  0  0  0
  -18.8523  -13.8625   25.5253 C   0  0  0  0  0  0  0  0  0  0  0  0
  -22.0485  -19.5242   26.9042 C   0  0  0  0  0  0  0  0  0  0  0  0
  -19.7621  -14.8804   25.1813 C   0  0  0  0  0  0  0  0  0  0  0  0
  -22.2714  -20.5151   25.9375 C   0  0  0  0  0  0  0  0  0  0  0  0
  -30.4735  -18.3417   24.0434 C   0  0  0  0  0  0  0  0  0  0  0  0
  -30.6784  -16.5894   22.3927 C   0  0  0  0  0  0  0  0  0  0  0  0
  -22.3347   -8.1458   21.4647 C   0  0  0  0  0  0  0  0  0  0  0  0
  -24.6685  -20.1800   26.1644 C   0  0  0  0  0  0  0  0  0  0  0  0
  -20.3111   -6.9754   21.2250 C   0  0  0  0  0  0  0  0  0  0  0  0
  -17.6981   -6.8841   20.2522 C   0  0  0  0  0  0  0  0  0  0  0  0
  -31.8595  -18.3560   24.2001 C   0  0  0  0  0  0  0  0  0  0  0  0
  -19.9375   -5.9801   20.3220 C   0  0  0  0  0  0  0  0  0  0  0  0
  -29.8829  -17.4583   23.1396 C   0  0  0  0  0  0  0  0  0  0  0  0
  -24.5954  -11.6402   20.7054 C   0  0  0  0  0  0  0  0  0  0  0  0
  -25.2623  -13.7231   20.4783 C   0  0  0  0  0  0  0  0  0  0  0  0
  -29.5255  -19.3464   26.1199 C   0  0  0  0  0  0  0  0  0  0  0  0
  -22.8987  -13.4923   21.2585 C   0  0  0  0  0  0  0  0  0  0  0  0
  -19.5883  -18.5710   25.1316 C   0  0  0  0  0  0  0  0  0  0  0  0
  -18.6521  -21.6586   25.4667 C   0  0  0  0  0  0  0  0  0  0  0  0
  -19.5263  -24.9021   26.0689 C   0  0  0  0  0  0  0  0  0  0  0  0
  -30.7292  -14.7642   20.6571 C   0  0  0  0  0  0  0  0  0  0  0  0
  -17.3836  -13.9674   25.1985 C   0  0  0  0  0  0  0  0  0  0  0  0
  -20.6488  -19.1820   27.3357 C   0  0  0  0  0  0  0  0  0  0  0  0
  -21.1337  -21.2463   25.2745 C   0  0  0  0  0  0  0  0  0  0  0  0
  -16.9286  -15.3915   24.8896 C   0  0  0  0  0  0  0  0  0  0  0  0
  -29.6150  -12.3488   18.2903 C   0  0  0  0  0  0  0  0  0  0  0  0
  -17.9003  -16.0652   23.9259 C   0  0  0  0  0  0  0  0  0  0  0  0
  -28.1747  -12.0590   18.7188 C   0  0  0  0  0  0  0  0  0  0  0  0
  -30.5291  -12.5781   19.4926 C   0  0  0  0  0  0  0  0  0  0  0  0
  -28.5700  -20.0443   24.3826 C   0  0  0  0  0  0  0  0  0  0  0  0
  -28.6215  -13.3057   20.8713 C   0  0  0  0  0  0  0  0  0  0  0  0
  -19.3016  -16.1713   24.5397 C   0  0  1  0  0  0  0  0  0  0  0  0
  -28.3204  -20.2855   25.8933 C   0  0  1  0  0  0  0  0  0  0  0  0
  -19.5979  -19.5320   26.2867 C   0  0  1  0  0  0  0  0  0  0  0  0
  -27.6496  -13.1320   19.6927 C   0  0  2  0  0  0  0  0  0  0  0  0
  -18.5479  -27.2065   26.2413 C   0  0  0  0  0  0  0  0  0  0  0  0
  -18.4400  -21.7934   22.4259 C   0  0  0  0  0  0  0  0  0  0  0  0
  -18.4005  -24.2900   22.6089 C   0  0  0  0  0  0  0  0  0  0  0  0
  -16.5841  -22.9358   23.6527 C   0  0  0  0  0  0  0  0  0  0  0  0
  -20.3816  -25.1802   28.8885 C   0  0  0  0  0  0  0  0  0  0  0  0
  -26.9980  -19.7966   26.4515 C   0  0  0  0  0  0  0  0  0  1  0  0
  -18.8864  -22.9363   24.6975 C   0  0  1  0  0  0  0  0  0  0  0  0
  -18.9387  -25.9475   26.9996 C   0  0  2  0  0  0  0  0  0  0  0  0
  -18.0993  -22.9739   23.3572 C   0  0  0  0  0  0  0  0  0  0  0  0
  -25.8605  -11.5428   20.2884 N   0  0  0  0  0  0  0  0  0  0  0  0
  -26.2387  -12.8259   20.1591 N   0  0  0  0  0  0  0  0  0  0  0  0
  -29.6895  -19.2000   24.7799 N   0  0  0  0  0  0  0  0  0  0  0  0
  -19.7833  -20.8718   25.7258 N   0  0  0  0  0  0  0  0  0  0  0  0
  -29.9702  -13.6104   20.3683 N   0  0  0  0  0  0  0  0  0  0  0  0
  -25.4739  -15.0543   20.4041 N   0  0  0  0  0  0  0  0  0  0  0  0
  -21.8857  -12.5844   21.5957 N   0  0  0  0  0  0  0  0  0  0  0  0
  -30.0818  -15.6907   21.4739 N   0  0  0  0  0  0  0  0  0  0  0  0
  -19.3543  -17.2582   25.4939 N   0  0  0  0  0  0  0  0  0  0  0  0
  -18.5639  -24.0275   25.6107 N   0  0  0  0  0  0  0  0  0  0  0  0
  -19.9275  -26.3198   28.0506 N   0  3  0  0  0  0  0  0  0  0  0  0
  -30.0954  -18.8754   27.0777 O   0  0  0  0  0  0  0  0  0  0  0  0
  -22.6634  -14.7232   21.3143 O   0  0  0  0  0  0  0  0  0  0  0  0
  -19.7776  -18.9898   23.9956 O   0  0  0  0  0  0  0  0  0  0  0  0
  -17.5086  -21.3729   25.8307 O   0  0  0  0  0  0  0  0  0  0  0  0
  -20.7191  -24.8672   25.7747 O   0  0  0  0  0  0  0  0  0  0  0  0
  -31.8589  -14.9315   20.1904 O   0  0  0  0  0  0  0  0  0  0  0  0
  -21.6075   -7.0216   21.7095 O   0  0  0  0  0  0  0  0  0  0  0  0
  -25.9403  -20.4980   25.7991 O   0  0  0  0  0  0  0  0  0  1  0  0
  -16.4430   -6.8395   19.7864 F   0  0  0  0  0  0  0  0  0  0  0  0
  -32.4388  -19.2015   25.0647 F   0  0  0  0  0  0  0  0  0  0  0  0
  -20.8290   -5.0644   19.9190 F   0  0  0  0  0  0  0  0  0  0  0  0
  -28.5495  -17.4450   22.9881 F   0  0  0  0  0  0  0  0  0  0  0  0
  1  2  1  0  0  0  0
  1  5  2  0  0  0  0
  2  6  2  0  0  0  0
  3  9  2  0  0  0  0
  3 17  1  0  0  0  0
  4 10  1  0  0  0  0
  4 17  2  0  0  0  0
  5 19  1  0  0  0  0
  6 21  1  0  0  0  0
  7 11  2  0  0  0  0
  7 20  1  0  0  0  0
  8 13  1  0  0  0  0
  8 24  2  0  0  0  0
  9 25  1  0  0  0  0
 10 25  2  0  0  0  0
 11 26  1  0  0  0  0
 12 14  2  0  0  0  0
 12 27  1  0  0  0  0
 13 29  2  0  0  0  0
 14 28  1  0  0  0  0
 15 22  1  0  0  0  0
 15 26  2  0  0  0  0
 16 28  2  0  0  0  0
 16 30  1  0  0  0  0
 17 32  1  0  0  0  0
 18 32  1  0  0  0  0
 18 33  2  0  0  0  0
 18 35  1  0  0  0  0
 19 21  2  0  0  0  0
 19 40  1  0  0  0  0
 20 22  2  0  0  0  0
 20 41  1  0  0  0  0
 21 50  1  0  0  0  0
 22 42  1  0  0  0  0
 23 29  1  0  0  0  0
 23 31  2  0  0  0  0
 23 65  1  0  0  0  0
 24 31  1  0  0  0  0
 24 70  1  0  0  0  0
 25 80  1  0  0  0  0
 26 81  1  0  0  0  0
 27 30  2  0  0  0  0
 27 80  1  0  0  0  0
 28 82  1  0  0  0  0
 29 83  1  0  0  0  0
 30 84  1  0  0  0  0
 31 85  1  0  0  0  0
 32 63  2  0  0  0  0
 33 64  1  0  0  0  0
 33 68  1  0  0  0  0
 34 51  1  0  0  0  0
 34 65  1  0  0  0  0
 34 74  2  0  0  0  0
 35 69  1  0  0  0  0
 35 75  2  0  0  0  0
 36 52  1  0  0  0  0
 36 71  1  0  0  0  0
 36 76  2  0  0  0  0
 37 60  1  0  0  0  0
 37 66  1  0  0  0  0
 37 77  2  0  0  0  0
 38 61  1  0  0  0  0
 38 72  1  0  0  0  0
 38 78  2  0  0  0  0
 39 67  1  0  0  0  0
 39 70  1  0  0  0  0
 39 79  2  0  0  0  0
 40 43  1  0  0  0  0
 41 52  1  0  0  0  0
 42 66  1  0  0  0  0
 43 45  1  0  0  0  0
 44 46  1  0  0  0  0
 44 47  1  0  0  0  0
 45 50  1  0  0  0  0
 46 53  1  0  0  0  0
 47 67  1  0  0  0  0
 48 51  1  0  0  0  0
 48 65  1  0  0  0  0
 49 53  1  0  0  0  0
 49 67  1  0  0  0  0
 50 71  1  0  0  0  0
 51 59  1  0  0  0  0
 52 66  1  0  0  0  0
 53 64  1  0  0  0  0
 54 61  1  0  0  0  0
 55 62  1  0  0  0  0
 56 62  1  0  0  0  0
 57 62  1  0  0  0  0
 58 73  1  0  0  0  0
 59 81  1  0  0  0  0
 60 62  1  0  0  0  0
 60 72  1  0  0  0  0
 61 73  1  0  0  0  0
 63 64  1  0  0  0  0
M  CHG  1  73   1
M  ISO  4  39 100  59 101  70 100  81 101
M  END
> <Batch ID>
0023

> <Smiles>
CNC(C)C(=O)NC(C(=O)N1Cc2cc([101O:1][101CH2:1]C3CN(c4c(F)ccc([100NH:0][100C:0](=O)N5CCCC(n6nc(-c7ccc(Oc8ccc(F)cc8F)cc7)c(C(N)=O)c6N)C5)c4F)C3=O)ccc2CC1C(=O)NC1CCCc2ccccc21)C(C)(C)C

> <Shape>
0.148

> <Color>
0.191

> <Negative vol penalty>
0.000

$$$$

  -OEChem-04042321173D

 83 92  0     1  0  0  0  0  0999 V2000
  -16.1864  -27.2810   25.8953 C   0  0  0  0  0  0  0  0  0  0  0  0
  -17.0275  -26.1889   26.0830 C   0  0  0  0  0  0  0  0  0  0  0  0
  -22.9831   -9.9683   19.9889 C   0  0  0  0  0  0  0  0  0  0  0  0
  -23.7747   -9.9463   22.2715 C   0  0  0  0  0  0  0  0  0  0  0  0
  -16.3488  -28.1008   24.7792 C   0  0  0  0  0  0  0  0  0  0  0  0
  -18.0309  -25.9153   25.1540 C   0  0  0  0  0  0  0  0  0  0  0  0
  -24.6635  -23.2432   24.7247 C   0  0  0  0  0  0  0  0  0  0  0  0
  -22.1817   -8.8583   20.2562 C   0  0  0  0  0  0  0  0  0  0  0  0
  -22.9733   -8.8364   22.5387 C   0  0  0  0  0  0  0  0  0  0  0  0
  -25.3946  -22.2824   24.0274 C   0  0  0  0  0  0  0  0  0  0  0  0
  -19.7157   -8.2173   23.1908 C   0  0  0  0  0  0  0  0  0  0  0  0
  -18.9744   -8.2245   24.3723 C   0  0  0  0  0  0  0  0  0  0  0  0
  -25.6323  -23.8136   22.1787 C   0  0  0  0  0  0  0  0  0  0  0  0
  -20.1198   -6.2268   25.1032 C   0  0  0  0  0  0  0  0  0  0  0  0
  -23.7796  -10.5123   20.9966 C   0  0  0  0  0  0  0  0  0  0  0  0
  -24.2554  -13.0146   20.8565 C   0  0  0  0  0  0  0  0  0  0  0  0
  -17.3608  -27.8427   23.8412 C   0  0  0  0  0  0  0  0  0  0  0  0
  -24.4016  -24.4947   24.1488 C   0  0  0  0  0  0  0  0  0  0  0  0
  -18.2061  -26.7316   24.0237 C   0  0  0  0  0  0  0  0  0  0  0  0
  -24.8999  -24.7895   22.8717 C   0  0  0  0  0  0  0  0  0  0  0  0
  -22.1768   -8.2924   21.5311 C   0  0  0  0  0  0  0  0  0  0  0  0
  -25.8766  -22.5665   22.7531 C   0  0  0  0  0  0  0  0  0  0  0  0
  -20.6590   -7.2148   22.9654 C   0  0  0  0  0  0  0  0  0  0  0  0
  -19.1764   -7.2293   25.3285 C   0  0  0  0  0  0  0  0  0  0  0  0
  -20.8611   -6.2196   23.9216 C   0  0  0  0  0  0  0  0  0  0  0  0
  -24.6081  -11.6585   20.7210 C   0  0  0  0  0  0  0  0  0  0  0  0
  -25.3811  -13.7021   20.4736 C   0  0  0  0  0  0  0  0  0  0  0  0
  -28.4843  -17.6899   19.5835 C   0  0  0  0  0  0  0  0  0  0  0  0
  -27.3504  -18.3618   19.3089 C   0  0  0  0  0  0  0  0  0  0  0  0
  -23.0207  -13.6005   21.2899 C   0  0  0  0  0  0  0  0  0  0  0  0
  -21.7723  -26.0740   23.3146 C   0  0  0  0  0  0  0  0  0  0  0  0
  -23.8731  -28.4702   22.7088 C   0  0  0  0  0  0  0  0  0  0  0  0
  -27.0697  -29.3997   21.9572 C   0  0  0  0  0  0  0  0  0  0  0  0
  -30.9140  -14.4244   20.5796 C   0  0  0  0  0  0  0  0  0  0  0  0
  -17.4674  -28.7294   22.6258 C   0  0  0  0  0  0  0  0  0  0  0  0
  -23.6343  -25.5298   24.9247 C   0  0  0  0  0  0  0  0  0  0  0  0
  -24.6635  -26.1252   22.2172 C   0  0  0  0  0  0  0  0  0  0  0  0
  -26.8643  -19.5575   20.1124 C   0  0  0  0  0  0  0  0  0  0  0  0
  -18.7942  -28.5893   21.8842 C   0  0  0  0  0  0  0  0  0  0  0  0
  -29.6157  -12.0922   18.2234 C   0  0  0  0  0  0  0  0  0  0  0  0
  -19.1491  -27.1175   21.6983 C   0  0  0  0  0  0  0  0  0  0  0  0
  -28.1707  -11.8789   18.6780 C   0  0  0  0  0  0  0  0  0  0  0  0
  -30.5603  -12.2695   19.4100 C   0  0  0  0  0  0  0  0  0  0  0  0
  -28.7206  -13.1096   20.8185 C   0  0  0  0  0  0  0  0  0  0  0  0
  -29.0874  -20.5482   21.0324 C   0  0  0  0  0  0  0  0  0  0  0  0
  -31.1031  -19.1124   21.1901 C   0  0  0  0  0  0  0  0  0  0  0  0
  -19.3219  -26.4166   23.0512 C   0  0  1  0  0  0  0  0  0  0  0  0
  -29.3346  -18.1394   20.7005 C   0  0  1  0  0  0  0  0  0  0  0  0
  -22.9877  -26.5863   24.0342 C   0  0  1  0  0  0  0  0  0  0  0  0
  -27.8166  -20.7781   20.1901 C   0  0  2  0  0  0  0  0  0  0  0  0
  -30.8003  -17.6442   20.7764 C   0  0  2  0  0  0  0  0  0  0  0  0
  -27.7219  -12.9816   19.6555 C   0  0  2  0  0  0  0  0  0  0  0  0
  -26.4625  -17.9300   18.1756 C   0  0  0  0  0  0  0  0  0  0  0  0
  -28.4726  -31.4262   21.4857 C   0  0  0  0  0  0  0  0  0  0  0  0
  -22.6689  -28.6498   19.9110 C   0  0  0  0  0  0  0  0  0  0  0  0
  -24.6766  -29.9698   19.2073 C   0  0  0  0  0  0  0  0  0  0  0  0
  -23.1608  -30.8572   20.9787 C   0  0  0  0  0  0  0  0  0  0  0  0
  -28.8173  -28.8751   24.2873 C   0  0  0  0  0  0  0  0  0  0  0  0
  -31.1132  -16.5748   21.8025 C   0  0  0  0  0  0  0  0  0  0  0  0
  -27.0564  -21.9752   20.7746 C   0  0  0  0  0  0  0  0  0  1  0  0
  -24.6797  -28.9071   21.5099 C   0  0  1  0  0  0  0  0  0  0  0  0
  -27.9759  -30.4624   22.5520 C   0  0  2  0  0  0  0  0  0  0  0  0
  -23.7995  -29.5700   20.4130 C   0  0  0  0  0  0  0  0  0  0  0  0
  -25.8598  -11.4923   20.2858 N   0  0  0  0  0  0  0  0  0  0  0  0
  -26.3036  -12.7529   20.1444 N   0  0  0  0  0  0  0  0  0  0  0  0
  -23.9024  -27.1020   23.0136 N   0  0  0  0  0  0  0  0  0  0  0  0
  -30.0786  -13.3310   20.2973 N   0  0  0  0  0  0  0  0  0  0  0  0
  -25.6620  -15.0198   20.3896 N   0  0  0  0  0  0  0  0  0  0  0  0
  -21.9661  -12.7491   21.6467 N   0  0  0  0  0  0  0  0  0  0  0  0
  -20.6067  -26.7457   23.6305 N   0  0  0  0  0  0  0  0  0  0  0  0
  -25.7418  -29.7655   22.0233 N   0  0  0  0  0  0  0  0  0  0  0  0
  -30.3778  -15.3887   21.4243 N   0  0  0  0  0  0  0  0  0  0  0  0
  -29.9038  -19.4807   20.4139 N   0  3  1  0  0  0  0  0  0  0  0  0
  -29.1587  -29.8300   23.2017 N   0  3  0  0  0  0  0  0  0  0  0  0
  -22.8520  -14.8424   21.3431 O   0  0  0  0  0  0  0  0  0  0  0  0
  -21.8839  -25.1395   22.5298 O   0  0  0  0  0  0  0  0  0  0  0  0
  -23.2460  -29.3129   23.3555 O   0  0  0  0  0  0  0  0  0  0  0  0
  -27.4972  -28.3517   21.4782 O   0  0  0  0  0  0  0  0  0  0  0  0
  -32.0512  -14.5358   20.1092 O   0  0  0  0  0  0  0  0  0  0  0  0
  -21.3947   -7.2095   21.7923 O   0  0  0  0  0  0  0  0  0  0  0  0
  -26.5970  -21.6209   22.0633 O   0  0  0  0  0  0  0  0  0  1  0  0
  -18.4656   -7.2372   26.4638 F   0  0  0  0  0  0  0  0  0  0  0  0
  -21.7668   -5.2545   23.7112 F   0  0  0  0  0  0  0  0  0  0  0  0
  1  2  1  0  0  0  0
  1  5  2  0  0  0  0
  2  6  2  0  0  0  0
  3  8  2  0  0  0  0
  3 15  1  0  0  0  0
  4  9  1  0  0  0  0
  4 15  2  0  0  0  0
  5 17  1  0  0  0  0
  6 19  1  0  0  0  0
  7 10  2  0  0  0  0
  7 18  1  0  0  0  0
  8 21  1  0  0  0  0
  9 21  2  0  0  0  0
 10 22  1  0  0  0  0
 11 12  2  0  0  0  0
 11 23  1  0  0  0  0
 12 24  1  0  0  0  0
 13 20  1  0  0  0  0
 13 22  2  0  0  0  0
 14 24  2  0  0  0  0
 14 25  1  0  0  0  0
 15 26  1  0  0  0  0
 16 26  1  0  0  0  0
 16 27  2  0  0  0  0
 16 30  1  0  0  0  0
 17 19  2  0  0  0  0
 17 35  1  0  0  0  0
 18 20  2  0  0  0  0
 18 36  1  0  0  0  0
 19 47  1  0  0  0  0
 20 37  1  0  0  0  0
 21 80  1  0  0  0  0
 22 81  1  0  0  0  0
 23 25  2  0  0  0  0
 23 80  1  0  0  0  0
 24 82  1  0  0  0  0
 25 83  1  0  0  0  0
 26 64  2  0  0  0  0
 27 65  1  0  0  0  0
 27 68  1  0  0  0  0
 28 29  2  0  0  0  0
 28 48  1  0  0  0  0
 29 38  1  0  0  0  0
 29 53  1  0  0  0  0
 30 69  1  0  0  0  0
 30 75  2  0  0  0  0
 31 49  1  0  0  0  0
 31 70  1  0  0  0  0
 31 76  2  0  0  0  0
 32 61  1  0  0  0  0
 32 66  1  0  0  0  0
 32 77  2  0  0  0  0
 33 62  1  0  0  0  0
 33 71  1  0  0  0  0
 33 78  2  0  0  0  0
 34 67  1  0  0  0  0
 34 72  1  0  0  0  0
 34 79  2  0  0  0  0
 35 39  1  0  0  0  0
 36 49  1  0  0  0  0
 37 66  1  0  0  0  0
 38 50  1  0  0  0  0
 39 41  1  0  0  0  0
 40 42  1  0  0  0  0
 40 43  1  0  0  0  0
 41 47  1  0  0  0  0
 42 52  1  0  0  0  0
 43 67  1  0  0  0  0
 44 52  1  0  0  0  0
 44 67  1  0  0  0  0
 45 50  1  0  0  0  0
 45 73  1  0  0  0  0
 46 51  1  0  0  0  0
 46 73  1  0  0  0  0
 47 70  1  0  0  0  0
 48 51  1  0  0  0  0
 48 73  1  0  0  0  0
 49 66  1  0  0  0  0
 50 60  1  0  0  0  0
 51 59  1  0  0  0  0
 52 65  1  0  0  0  0
 54 62  1  0  0  0  0
 55 63  1  0  0  0  0
 56 63  1  0  0  0  0
 57 63  1  0  0  0  0
 58 74  1  0  0  0  0
 59 72  1  0  0  0  0
 60 81  1  0  0  0  0
 61 63  1  0  0  0  0
 61 71  1  0  0  0  0
 62 74  1  0  0  0  0
 64 65  1  0  0  0  0
M  CHG  2  73   1  74   1
M  ISO  4  34 100  60 101  72 100  81 101
M  END
> <Batch ID>
0023

> <Smiles>
CNC(C)C(=O)NC(C(=O)N1Cc2cc([101O:1][101CH2:1]C3CC(C)=CC4C(C[100NH:0][100C:0](=O)N5CCCC(n6nc(-c7ccc(Oc8ccc(F)cc8F)cc7)c(C(N)=O)c6N)C5)CN4C3)ccc2CC1C(=O)NC1CCCc2ccccc21)C(C)(C)C

> <Shape>
0.327

> <Color>
0.205

> <Negative vol penalty>
0.000

$$$$

  -OEChem-04042321173D

 85 94  0     1  0  0  0  0  0999 V2000
  -22.8029  -18.0946   24.5730 C   0  0  0  0  0  0  0  0  0  0  0  0
  -23.2527  -18.8246   23.4775 C   0  0  0  0  0  0  0  0  0  0  0  0
  -27.3083  -12.5036   21.4755 C   0  0  0  0  0  0  0  0  0  0  0  0
  -26.8207  -13.7413   19.4587 C   0  0  0  0  0  0  0  0  0  0  0  0
  -21.6464  -18.4889   25.2446 C   0  0  0  0  0  0  0  0  0  0  0  0
  -22.5457  -19.9486   23.0521 C   0  0  0  0  0  0  0  0  0  0  0  0
  -25.5745  -23.8744   22.0229 C   0  0  0  0  0  0  0  0  0  0  0  0
  -30.1095  -23.0280   19.2610 C   0  0  0  0  0  0  0  0  0  0  0  0
  -29.5866  -23.9227   18.3273 C   0  0  0  0  0  0  0  0  0  0  0  0
  -26.4714  -11.4738   21.0459 C   0  0  0  0  0  0  0  0  0  0  0  0
  -25.9838  -12.7115   19.0290 C   0  0  0  0  0  0  0  0  0  0  0  0
  -26.2555  -23.8515   20.8066 C   0  0  0  0  0  0  0  0  0  0  0  0
  -24.1811   -8.6779   20.6445 C   0  0  0  0  0  0  0  0  0  0  0  0
  -23.2924   -8.1330   21.5712 C   0  0  0  0  0  0  0  0  0  0  0  0
  -24.6132  -25.3472   19.8658 C   0  0  0  0  0  0  0  0  0  0  0  0
  -30.1196  -24.7752   20.9296 C   0  0  0  0  0  0  0  0  0  0  0  0
  -22.2616  -10.2993   21.8565 C   0  0  0  0  0  0  0  0  0  0  0  0
  -27.4829  -13.6374   20.6820 C   0  0  0  0  0  0  0  0  0  0  0  0
  -29.7255  -14.8378   20.8754 C   0  0  0  0  0  0  0  0  0  0  0  0
  -20.9301  -19.6240   24.8332 C   0  0  0  0  0  0  0  0  0  0  0  0
  -24.3997  -24.6266   22.1669 C   0  0  0  0  0  0  0  0  0  0  0  0
  -21.3777  -20.3577   23.7180 C   0  0  0  0  0  0  0  0  0  0  0  0
  -23.9206  -25.3800   21.0858 C   0  0  0  0  0  0  0  0  0  0  0  0
  -30.3760  -23.4543   20.5622 C   0  0  0  0  0  0  0  0  0  0  0  0
  -29.5967  -25.6699   19.9959 C   0  0  0  0  0  0  0  0  0  0  0  0
  -29.3302  -25.2436   18.6948 C   0  0  0  0  0  0  0  0  0  0  0  0
  -25.8092  -11.5777   19.8226 C   0  0  0  0  0  0  0  0  0  0  0  0
  -25.7733  -24.5856   19.7269 C   0  0  0  0  0  0  0  0  0  0  0  0
  -24.1101  -10.0335   20.3238 C   0  0  0  0  0  0  0  0  0  0  0  0
  -22.3327   -8.9437   22.1772 C   0  0  0  0  0  0  0  0  0  0  0  0
  -23.1504  -10.8443   20.9298 C   0  0  0  0  0  0  0  0  0  0  0  0
  -28.3469  -14.7019   21.1255 C   0  0  0  0  0  0  0  0  0  0  0  0
  -30.0755  -16.0062   21.5069 C   0  0  0  0  0  0  0  0  0  0  0  0
  -30.6107  -13.9843   20.1382 C   0  0  0  0  0  0  0  0  0  0  0  0
  -21.3670  -23.9447   22.8315 C   0  0  0  0  0  0  0  0  0  0  0  0
  -21.0589  -27.1735   22.8810 C   0  0  0  0  0  0  0  0  0  0  0  0
  -22.2335  -30.2119   21.8635 C   0  0  0  0  0  0  0  0  0  0  0  0
  -29.0785  -21.3555   22.7469 C   0  0  0  0  0  0  0  0  0  0  0  0
  -19.6594  -19.9838   25.5614 C   0  0  0  0  0  0  0  0  0  0  0  0
  -23.6916  -24.6620   23.4934 C   0  0  0  0  0  0  0  0  0  0  0  0
  -22.6750  -26.2198   21.1945 C   0  0  0  0  0  0  0  0  0  0  0  0
  -19.1759  -21.4037   25.2777 C   0  0  0  0  0  0  0  0  0  0  0  0
  -27.4947  -18.8877   24.7663 C   0  0  0  0  0  0  0  0  0  0  0  0
  -28.9929  -27.6137   15.9580 C   0  0  0  0  0  0  0  0  0  0  0  0
  -19.2195  -21.6932   23.7807 C   0  0  0  0  0  0  0  0  0  0  0  0
  -27.6835  -17.5918   23.9757 C   0  0  0  0  0  0  0  0  0  0  0  0
  -27.5576  -27.1224   16.0210 C   0  0  0  0  0  0  0  0  0  0  0  0
  -29.5177  -27.3334   17.3608 C   0  0  0  0  0  0  0  0  0  0  0  0
  -27.2591  -20.0820   23.8443 C   0  0  0  0  0  0  0  0  0  0  0  0
  -28.4707  -18.9721   22.0075 C   0  0  0  0  0  0  0  0  0  0  0  0
  -20.6519  -21.5971   23.2416 C   0  0  1  0  0  0  0  0  0  0  0  0
  -22.2219  -25.0540   23.3759 C   0  0  1  0  0  0  0  0  0  0  0  0
  -28.7671  -17.7489   22.8920 C   0  0  2  0  0  0  0  0  0  0  0  0
  -27.6332  -25.8724   16.9149 C   0  0  2  0  0  0  0  0  0  0  0  0
  -29.3317  -27.0790   20.4165 C   0  0  0  0  0  0  0  0  0  0  0  0
  -21.7499  -32.6684   22.0336 C   0  0  0  0  0  0  0  0  0  0  0  0
  -18.7820  -26.8617   20.8739 C   0  0  0  0  0  0  0  0  0  0  0  0
  -18.9822  -29.3065   20.3726 C   0  0  0  0  0  0  0  0  0  0  0  0
  -18.3660  -28.5524   22.6692 C   0  0  0  0  0  0  0  0  0  0  0  0
  -24.8299  -30.7501   23.1779 C   0  0  0  0  0  0  0  0  0  0  0  0
  -30.9351  -22.4973   21.5601 C   0  0  0  0  0  0  0  0  0  0  0  0
  -26.3486  -25.7340   17.7254 C   0  0  0  0  0  0  0  0  0  1  0  0
  -20.7379  -28.2327   21.8543 C   0  0  1  0  0  0  0  0  0  0  0  0
  -22.5092  -31.4932   22.6294 C   0  0  2  0  0  0  0  0  0  0  0  0
  -19.2394  -28.2211   21.4395 C   0  0  0  0  0  0  0  0  0  0  0  0
  -27.8546  -15.7038   21.8589 N   0  0  0  0  0  0  0  0  0  0  0  0
  -28.9298  -16.4805   22.0751 N   0  0  0  0  0  0  0  0  0  0  0  0
  -28.8126  -26.1155   17.7577 N   0  0  3  0  0  0  0  0  0  0  0  0
  -22.0146  -26.2169   22.5103 N   0  0  0  0  0  0  0  0  0  0  0  0
  -28.3224  -20.1755   22.8410 N   0  0  0  0  0  0  0  0  0  0  0  0
  -31.2483  -16.6640   21.6262 N   0  0  0  0  0  0  0  0  0  0  0  0
  -30.0865  -12.8234   19.5534 N   0  0  0  0  0  0  0  0  0  0  0  0
  -21.4017  -22.7865   23.5844 N   0  0  0  0  0  0  0  0  0  0  0  0
  -21.1919  -29.4991   22.4186 N   0  0  0  0  0  0  0  0  0  0  0  0
  -30.0704  -21.3582   21.7738 N   0  0  0  0  0  0  0  0  0  0  0  0
  -23.9650  -31.8110   22.6005 N   0  3  0  0  0  0  0  0  0  0  0  0
  -31.8337  -14.2348   20.0158 O   0  0  0  0  0  0  0  0  0  0  0  0
  -20.7225  -24.1266   21.8053 O   0  0  0  0  0  0  0  0  0  0  0  0
  -20.4882  -27.1984   23.9743 O   0  0  0  0  0  0  0  0  0  0  0  0
  -22.8754  -29.8786   20.8697 O   0  0  0  0  0  0  0  0  0  0  0  0
  -28.8876  -22.3320   23.4796 O   0  0  0  0  0  0  0  0  0  0  0  0
  -24.9926  -10.5729   19.4029 O   0  0  0  0  0  0  0  0  0  0  0  0
  -26.4357  -24.5645   18.5384 O   0  0  0  0  0  0  0  0  0  1  0  0
  -21.4783   -8.4199   23.0660 F   0  0  0  0  0  0  0  0  0  0  0  0
  -23.0765  -12.1471   20.6248 F   0  0  0  0  0  0  0  0  0  0  0  0
  1  2  1  0  0  0  0
  1  5  2  0  0  0  0
  2  6  2  0  0  0  0
  3 10  2  0  0  0  0
  3 18  1  0  0  0  0
  4 11  1  0  0  0  0
  4 18  2  0  0  0  0
  5 20  1  0  0  0  0
  6 22  1  0  0  0  0
  7 12  2  0  0  0  0
  7 21  1  0  0  0  0
  8  9  2  0  0  0  0
  8 24  1  0  0  0  0
  9 26  1  0  0  0  0
 10 27  1  0  0  0  0
 11 27  2  0  0  0  0
 12 28  1  0  0  0  0
 13 14  2  0  0  0  0
 13 29  1  0  0  0  0
 14 30  1  0  0  0  0
 15 23  1  0  0  0  0
 15 28  2  0  0  0  0
 16 24  2  0  0  0  0
 16 25  1  0  0  0  0
 17 30  2  0  0  0  0
 17 31  1  0  0  0  0
 18 32  1  0  0  0  0
 19 32  1  0  0  0  0
 19 33  2  0  0  0  0
 19 34  1  0  0  0  0
 20 22  2  0  0  0  0
 20 39  1  0  0  0  0
 21 23  2  0  0  0  0
 21 40  1  0  0  0  0
 22 51  1  0  0  0  0
 23 41  1  0  0  0  0
 24 61  1  0  0  0  0
 25 26  2  0  0  0  0
 25 55  1  0  0  0  0
 26 68  1  0  0  0  0
 27 82  1  0  0  0  0
 28 83  1  0  0  0  0
 29 31  2  0  0  0  0
 29 82  1  0  0  0  0
 30 84  1  0  0  0  0
 31 85  1  0  0  0  0
 32 66  2  0  0  0  0
 33 67  1  0  0  0  0
 33 71  1  0  0  0  0
 34 72  1  0  0  0  0
 34 77  2  0  0  0  0
 35 52  1  0  0  0  0
 35 73  1  0  0  0  0
 35 78  2  0  0  0  0
 36 63  1  0  0  0  0
 36 69  1  0  0  0  0
 36 79  2  0  0  0  0
 37 64  1  0  0  0  0
 37 74  1  0  0  0  0
 37 80  2  0  0  0  0
 38 70  1  0  0  0  0
 38 75  1  0  0  0  0
 38 81  2  0  0  0  0
 39 42  1  0  0  0  0
 40 52  1  0  0  0  0
 41 69  1  0  0  0  0
 42 45  1  0  0  0  0
 43 46  1  0  0  0  0
 43 49  1  0  0  0  0
 44 47  1  0  0  0  0
 44 48  1  0  0  0  0
 45 51  1  0  0  0  0
 46 53  1  0  0  0  0
 47 54  1  0  0  0  0
 48 68  1  0  0  0  0
 49 70  1  0  0  0  0
 50 53  1  0  0  0  0
 50 70  1  0  0  0  0
 51 73  1  0  0  0  0
 52 69  1  0  0  0  0
 53 67  1  0  0  0  0
 54 62  1  0  0  0  0
 54 68  1  0  0  0  0
 56 64  1  0  0  0  0
 57 65  1  0  0  0  0
 58 65  1  0  0  0  0
 59 65  1  0  0  0  0
 60 76  1  0  0  0  0
 61 75  1  0  0  0  0
 62 83  1  0  0  0  0
 63 65  1  0  0  0  0
 63 74  1  0  0  0  0
 64 76  1  0  0  0  0
 66 67  1  0  0  0  0
M  CHG  1  76   1
M  ISO  4  38 100  62 101  75 100  83 101
M  END
> <Batch ID>
0023

> <Smiles>
CNC(C)C(=O)NC(C(=O)N1Cc2cc([101O:1][101CH2:1]C3CCCN3c3ccc(C[100NH:0][100C:0](=O)N4CCCC(n5nc(-c6ccc(Oc7ccc(F)cc7F)cc6)c(C(N)=O)c5N)C4)cc3C)ccc2CC1C(=O)NC1CCCc2ccccc21)C(C)(C)C

> <Shape>
0.236

> <Color>
0.054

> <Negative vol penalty>
0.000

$$$$

  -OEChem-04042321173D

 92100  0     1  0  0  0  0  0999 V2000
  -21.3887  -18.8754   27.2141 C   0  0  0  0  0  0  0  0  0  0  0  0
  -22.1202  -19.0245   26.0402 C   0  0  0  0  0  0  0  0  0  0  0  0
  -26.0376  -13.1655   21.7208 C   0  0  0  0  0  0  0  0  0  0  0  0
  -25.3701  -14.1757   19.6302 C   0  0  0  0  0  0  0  0  0  0  0  0
  -20.2719  -19.6775   27.4449 C   0  0  0  0  0  0  0  0  0  0  0  0
  -21.7346  -19.9751   25.0957 C   0  0  0  0  0  0  0  0  0  0  0  0
  -25.4148  -23.2857   21.4899 C   0  0  0  0  0  0  0  0  0  0  0  0
  -32.6265  -21.7013   16.5282 C   0  0  0  0  0  0  0  0  0  0  0  0
  -32.0594  -20.9395   17.5497 C   0  0  0  0  0  0  0  0  0  0  0  0
  -24.9038  -12.3537   21.6906 C   0  0  0  0  0  0  0  0  0  0  0  0
  -24.2363  -13.3638   19.5998 C   0  0  0  0  0  0  0  0  0  0  0  0
  -25.8105  -23.1343   20.1617 C   0  0  0  0  0  0  0  0  0  0  0  0
  -23.9049   -9.5274   20.1261 C   0  0  0  0  0  0  0  0  0  0  0  0
  -24.0675   -8.1755   20.4284 C   0  0  0  0  0  0  0  0  0  0  0  0
  -24.0699  -24.6572   19.4759 C   0  0  0  0  0  0  0  0  0  0  0  0
  -31.2861  -22.9592   18.6266 C   0  0  0  0  0  0  0  0  0  0  0  0
  -22.5355   -8.4059   22.2824 C   0  0  0  0  0  0  0  0  0  0  0  0
  -26.2708  -14.0766   20.6907 C   0  0  0  0  0  0  0  0  0  0  0  0
  -28.7080  -14.6288   20.1783 C   0  0  0  0  0  0  0  0  0  0  0  0
  -19.8781  -20.6451   26.5072 C   0  0  0  0  0  0  0  0  0  0  0  0
  -24.3349  -24.1169   21.8206 C   0  0  0  0  0  0  0  0  0  0  0  0
  -20.6106  -20.7900   25.3135 C   0  0  0  0  0  0  0  0  0  0  0  0
  -23.6642  -24.8195   20.8093 C   0  0  0  0  0  0  0  0  0  0  0  0
  -32.5235  -23.0921   16.5559 C   0  0  0  0  0  0  0  0  0  0  0  0
  -31.3891  -21.5684   18.5989 C   0  0  0  0  0  0  0  0  0  0  0  0
  -31.8533  -23.7211   17.6051 C   0  0  0  0  0  0  0  0  0  0  0  0
  -24.0032  -12.4528   20.6301 C   0  0  0  0  0  0  0  0  0  0  0  0
  -25.1362  -23.8178   19.1541 C   0  0  0  0  0  0  0  0  0  0  0  0
  -23.0577  -10.3186   20.9020 C   0  0  0  0  0  0  0  0  0  0  0  0
  -23.3828   -7.6147   21.5065 C   0  0  0  0  0  0  0  0  0  0  0  0
  -22.3730   -9.7578   21.9801 C   0  0  0  0  0  0  0  0  0  0  0  0
  -27.4415  -14.9160   20.7216 C   0  0  0  0  0  0  0  0  0  0  0  0
  -29.4661  -15.7362   20.4704 C   0  0  0  0  0  0  0  0  0  0  0  0
  -29.1589  -13.4650   19.4725 C   0  0  0  0  0  0  0  0  0  0  0  0
  -21.4949  -23.6720   23.1770 C   0  0  0  0  0  0  0  0  0  0  0  0
  -21.3491  -26.9090   23.0236 C   0  0  0  0  0  0  0  0  0  0  0  0
  -22.4057  -29.7891   21.5285 C   0  0  0  0  0  0  0  0  0  0  0  0
  -30.1150  -21.2593   20.7500 C   0  0  0  0  0  0  0  0  0  0  0  0
  -18.6361  -21.4564   26.7791 C   0  0  0  0  0  0  0  0  0  0  0  0
  -23.9375  -24.2904   23.2609 C   0  0  0  0  0  0  0  0  0  0  0  0
  -22.5115  -25.7399   21.1138 C   0  0  0  0  0  0  0  0  0  0  0  0
  -18.5139  -22.6970   25.8982 C   0  0  0  0  0  0  0  0  0  0  0  0
  -28.5132  -19.6731   23.5060 C   0  0  0  0  0  0  0  0  0  0  0  0
  -18.8059  -22.3487   24.4421 C   0  0  0  0  0  0  0  0  0  0  0  0
  -28.1958  -18.2704   22.9826 C   0  0  0  0  0  0  0  0  0  0  0  0
  -28.3505  -20.7343   22.4192 C   0  0  0  0  0  0  0  0  0  0  0  0
  -28.7723  -19.0676   20.6547 C   0  0  0  0  0  0  0  0  0  0  0  0
  -20.2384  -21.8271   24.2762 C   0  0  1  0  0  0  0  0  0  0  0  0
  -22.4968  -24.7627   23.4305 C   0  0  1  0  0  0  0  0  0  0  0  0
  -28.9849  -17.9570   21.6963 C   0  0  2  0  0  0  0  0  0  0  0  0
  -33.1400  -23.8834   15.4486 C   0  0  0  0  0  0  0  0  0  0  0  0
  -22.0810  -32.2766   21.5944 C   0  0  0  0  0  0  0  0  0  0  0  0
  -18.6756  -26.5956   21.5870 C   0  0  0  0  0  0  0  0  0  0  0  0
  -18.8694  -28.9814   20.8532 C   0  0  0  0  0  0  0  0  0  0  0  0
  -18.7394  -28.4323   23.2831 C   0  0  0  0  0  0  0  0  0  0  0  0
  -26.1297  -25.9779   14.9386 C   0  0  0  0  0  0  0  0  0  0  0  0
  -32.7670  -25.9140   18.3235 C   0  0  0  0  0  0  0  0  0  0  0  0
  -25.2486  -30.2589   22.2037 C   0  0  0  0  0  0  0  0  0  0  0  0
  -30.6329  -25.8034   17.0267 C   0  0  0  0  0  0  0  0  0  0  0  0
  -27.8178  -24.7744   16.4178 C   0  0  0  0  0  0  0  0  0  0  0  0
  -25.3086  -24.7831   16.9874 C   0  0  0  0  0  0  0  0  0  1  0  0
  -20.8579  -27.9100   22.0059 C   0  0  1  0  0  0  0  0  0  0  0  0
  -22.8995  -31.1023   22.1081 C   0  0  2  0  0  0  0  0  0  0  0  0
  -29.3955  -25.7669   17.9301 C   0  0  1  0  0  0  0  0  0  0  0  0
  -19.3060  -27.9610   21.9260 C   0  0  0  0  0  0  0  0  0  0  0  0
  -26.3753  -24.8062   15.8882 C   0  0  1  0  0  0  0  0  0  0  0  0
  -29.4388  -26.8187   19.0316 C   0  0  0  0  0  0  0  0  0  0  0  0
  -27.3938  -16.1121   21.3142 N   0  0  0  0  0  0  0  0  0  0  0  0
  -28.6399  -16.5862   21.1450 N   0  0  0  0  0  0  0  0  0  0  0  0
  -22.1565  -25.8714   22.5365 N   0  0  0  0  0  0  0  0  0  0  0  0
  -29.1295  -20.3725   21.2329 N   0  0  0  0  0  0  0  0  0  0  0  0
  -30.7522  -16.0562   20.2135 N   0  0  0  0  0  0  0  0  0  0  0  0
  -28.2502  -12.4197   19.2584 N   0  0  0  0  0  0  0  0  0  0  0  0
  -30.8136  -20.7939   19.6365 N   0  0  0  0  0  0  0  0  0  0  0  0
  -21.1814  -22.9247   24.2962 N   0  0  0  0  0  0  0  0  0  0  0  0
  -21.4807  -29.1831   22.3521 N   0  0  0  0  0  0  0  0  0  0  0  0
  -28.2104  -25.9927   17.1143 N   0  0  0  0  0  0  0  0  0  0  0  0
  -31.7413  -25.1174   17.6490 N   0  0  3  0  0  0  0  0  0  0  0  0
  -24.3261  -31.3271   21.7401 N   0  3  0  0  0  0  0  0  0  0  0  0
  -30.3374  -13.3485   19.0588 O   0  0  0  0  0  0  0  0  0  0  0  0
  -21.0387  -23.5208   22.0497 O   0  0  0  0  0  0  0  0  0  0  0  0
  -21.0340  -27.0467   24.2083 O   0  0  0  0  0  0  0  0  0  0  0  0
  -22.7983  -29.3470   20.4510 O   0  0  0  0  0  0  0  0  0  0  0  0
  -30.3424  -22.3393   21.3013 O   0  0  0  0  0  0  0  0  0  0  0  0
  -22.8968  -11.6605   20.6001 O   0  0  0  0  0  0  0  0  0  0  0  0
  -25.5199  -23.6713   17.8567 O   0  0  0  0  0  0  0  0  0  1  0  0
  -23.5377   -6.3160   21.7958 F   0  0  0  0  0  0  0  0  0  0  0  0
  -21.5568  -10.5127   22.7283 F   0  0  0  0  0  0  0  0  0  0  0  0
  -26.2080  -23.6629   15.1476 F   0  0  0  0  0  0  0  0  0  0  0  0
  -30.4977  -26.6208   19.8499 F   0  0  0  0  0  0  0  0  0  0  0  0
  -29.5622  -28.0633   18.5194 F   0  0  0  0  0  0  0  0  0  0  0  0
  -28.3220  -26.7972   19.7910 F   0  0  0  0  0  0  0  0  0  0  0  0
  1  2  1  0  0  0  0
  1  5  2  0  0  0  0
  2  6  2  0  0  0  0
  3 10  2  0  0  0  0
  3 18  1  0  0  0  0
  4 11  1  0  0  0  0
  4 18  2  0  0  0  0
  5 20  1  0  0  0  0
  6 22  1  0  0  0  0
  7 12  2  0  0  0  0
  7 21  1  0  0  0  0
  8  9  2  0  0  0  0
  8 24  1  0  0  0  0
  9 25  1  0  0  0  0
 10 27  1  0  0  0  0
 11 27  2  0  0  0  0
 12 28  1  0  0  0  0
 13 14  2  0  0  0  0
 13 29  1  0  0  0  0
 14 30  1  0  0  0  0
 15 23  1  0  0  0  0
 15 28  2  0  0  0  0
 16 25  2  0  0  0  0
 16 26  1  0  0  0  0
 17 30  2  0  0  0  0
 17 31  1  0  0  0  0
 18 32  1  0  0  0  0
 19 32  1  0  0  0  0
 19 33  2  0  0  0  0
 19 34  1  0  0  0  0
 20 22  2  0  0  0  0
 20 39  1  0  0  0  0
 21 23  2  0  0  0  0
 21 40  1  0  0  0  0
 22 48  1  0  0  0  0
 23 41  1  0  0  0  0
 24 26  2  0  0  0  0
 24 51  1  0  0  0  0
 25 74  1  0  0  0  0
 26 78  1  0  0  0  0
 27 85  1  0  0  0  0
 28 86  1  0  0  0  0
 29 31  2  0  0  0  0
 29 85  1  0  0  0  0
 30 87  1  0  0  0  0
 31 88  1  0  0  0  0
 32 68  2  0  0  0  0
 33 69  1  0  0  0  0
 33 72  1  0  0  0  0
 34 73  1  0  0  0  0
 34 80  2  0  0  0  0
 35 49  1  0  0  0  0
 35 75  1  0  0  0  0
 35 81  2  0  0  0  0
 36 62  1  0  0  0  0
 36 70  1  0  0  0  0
 36 82  2  0  0  0  0
 37 63  1  0  0  0  0
 37 76  1  0  0  0  0
 37 83  2  0  0  0  0
 38 71  1  0  0  0  0
 38 74  1  0  0  0  0
 38 84  2  0  0  0  0
 39 42  1  0  0  0  0
 40 49  1  0  0  0  0
 41 70  1  0  0  0  0
 42 44  1  0  0  0  0
 43 45  1  0  0  0  0
 43 46  1  0  0  0  0
 44 48  1  0  0  0  0
 45 50  1  0  0  0  0
 46 71  1  0  0  0  0
 47 50  1  0  0  0  0
 47 71  1  0  0  0  0
 48 75  1  0  0  0  0
 49 70  1  0  0  0  0
 50 69  1  0  0  0  0
 52 63  1  0  0  0  0
 53 65  1  0  0  0  0
 54 65  1  0  0  0  0
 55 65  1  0  0  0  0
 56 66  1  0  0  0  0
 57 78  1  0  0  0  0
 58 79  1  0  0  0  0
 59 64  1  0  0  0  0
 59 78  1  0  0  0  0
 60 66  1  0  0  0  0
 60 77  1  0  0  0  0
 61 66  1  0  0  0  0
 61 86  1  0  0  0  0
 62 65  1  0  0  0  0
 62 76  1  0  0  0  0
 63 79  1  0  0  0  0
 64 67  1  0  0  0  0
 64 77  1  0  0  0  0
 66 89  1  0  0  0  0
 67 90  1  0  0  0  0
 67 91  1  0  0  0  0
 67 92  1  0  0  0  0
 68 69  1  0  0  0  0
M  CHG  1  79   1
M  ISO  4  38 100  61 101  74 100  86 101
M  END
> <Batch ID>
0023

> <Smiles>
CNC(C)C(=O)NC(C(=O)N1Cc2cc([101O:1][101CH2:1]C(C)(F)CNC(CN(C)c3cc([100NH:0][100C:0](=O)N4CCCC(n5nc(-c6ccc(Oc7ccc(F)cc7F)cc6)c(C(N)=O)c5N)C4)ccc3C)C(F)(F)F)ccc2CC1C(=O)NC1CCCc2ccccc21)C(C)(C)C

> <Shape>
0.242

> <Color>
0.050

> <Negative vol penalty>
0.000

$$$$

  -OEChem-04042321173D

 84 93  0     1  0  0  0  0  0999 V2000
  -27.9681  -22.8380   18.9473 C   0  0  0  0  0  0  0  0  0  0  0  0
  -26.7645  -23.2735   19.4925 C   0  0  0  0  0  0  0  0  0  0  0  0
  -27.3444  -14.9636   22.0907 C   0  0  0  0  0  0  0  0  0  0  0  0
  -25.4207  -15.5650   20.7585 C   0  0  0  0  0  0  0  0  0  0  0  0
  -29.1718  -23.3807   19.3951 C   0  0  0  0  0  0  0  0  0  0  0  0
  -26.7641  -24.2511   20.4869 C   0  0  0  0  0  0  0  0  0  0  0  0
  -23.2498  -27.8130   19.7076 C   0  0  0  0  0  0  0  0  0  0  0  0
  -20.4191  -24.4131   24.1900 C   0  0  0  0  0  0  0  0  0  0  0  0
  -21.1995  -23.3971   24.7416 C   0  0  0  0  0  0  0  0  0  0  0  0
  -27.1962  -13.6318   21.7036 C   0  0  0  0  0  0  0  0  0  0  0  0
  -25.2725  -14.2331   20.3713 C   0  0  0  0  0  0  0  0  0  0  0  0
  -21.9332  -27.4907   20.0340 C   0  0  0  0  0  0  0  0  0  0  0  0
  -27.9101  -11.7291   19.0012 C   0  0  0  0  0  0  0  0  0  0  0  0
  -29.0564  -11.0352   18.6138 C   0  0  0  0  0  0  0  0  0  0  0  0
  -22.1605  -28.6935   22.1126 C   0  0  0  0  0  0  0  0  0  0  0  0
  -20.6422  -21.9592   22.8817 C   0  0  0  0  0  0  0  0  0  0  0  0
  -28.6899   -9.4383   20.3893 C   0  0  0  0  0  0  0  0  0  0  0  0
  -26.4566  -15.9302   21.6182 C   0  0  0  0  0  0  0  0  0  0  0  0
  -27.3671  -18.3004   21.3716 C   0  0  0  0  0  0  0  0  0  0  0  0
  -29.1855  -24.3724   20.3886 C   0  0  0  0  0  0  0  0  0  0  0  0
  -24.0364  -28.5701   20.5877 C   0  0  0  0  0  0  0  0  0  0  0  0
  -27.9692  -24.8065   20.9494 C   0  0  0  0  0  0  0  0  0  0  0  0
  -23.4859  -29.0262   21.7939 C   0  0  0  0  0  0  0  0  0  0  0  0
  -19.7501  -24.2021   22.9843 C   0  0  0  0  0  0  0  0  0  0  0  0
  -21.3111  -22.1702   24.0875 C   0  0  0  0  0  0  0  0  0  0  0  0
  -26.1603  -13.2665   20.8439 C   0  0  0  0  0  0  0  0  0  0  0  0
  -21.3893  -27.9285   21.2379 C   0  0  0  0  0  0  0  0  0  0  0  0
  -27.1537  -11.2776   20.0828 C   0  0  0  0  0  0  0  0  0  0  0  0
  -29.4463   -9.8898   19.3078 C   0  0  0  0  0  0  0  0  0  0  0  0
  -19.8617  -22.9752   22.3302 C   0  0  0  0  0  0  0  0  0  0  0  0
  -27.5436  -10.1322   20.7768 C   0  0  0  0  0  0  0  0  0  0  0  0
  -26.6088  -17.3061   22.0182 C   0  0  0  0  0  0  0  0  0  0  0  0
  -27.1855  -19.4245   22.1398 C   0  0  0  0  0  0  0  0  0  0  0  0
  -28.1643  -18.2156   20.1830 C   0  0  0  0  0  0  0  0  0  0  0  0
  -26.7309  -28.0577   22.1942 C   0  0  0  0  0  0  0  0  0  0  0  0
  -26.4138  -31.1943   22.9582 C   0  0  0  0  0  0  0  0  0  0  0  0
  -24.3549  -33.8887   23.3430 C   0  0  0  0  0  0  0  0  0  0  0  0
  -22.8326  -21.1834   25.8361 C   0  0  0  0  0  0  0  0  0  0  0  0
  -30.5142  -24.8952   20.8741 C   0  0  0  0  0  0  0  0  0  0  0  0
  -25.4463  -28.9319   20.2088 C   0  0  0  0  0  0  0  0  0  0  0  0
  -24.2820  -29.8589   22.7642 C   0  0  0  0  0  0  0  0  0  0  0  0
  -30.4046  -26.1960   21.6655 C   0  0  0  0  0  0  0  0  0  0  0  0
  -26.2764  -20.7759   26.6432 C   0  0  0  0  0  0  0  0  0  0  0  0
  -17.5672  -26.4083   20.9631 C   0  0  0  0  0  0  0  0  0  0  0  0
  -29.2820  -26.1022   22.6940 C   0  0  0  0  0  0  0  0  0  0  0  0
  -26.8228  -19.9355   25.4868 C   0  0  0  0  0  0  0  0  0  0  0  0
  -17.3895  -26.9478   22.3735 C   0  0  0  0  0  0  0  0  0  0  0  0
  -18.2468  -25.0600   21.1803 C   0  0  0  0  0  0  0  0  0  0  0  0
  -24.8556  -20.3624   27.0229 C   0  0  0  0  0  0  0  0  0  0  0  0
  -24.4444  -19.4965   24.7535 C   0  0  0  0  0  0  0  0  0  0  0  0
  -27.9261  -25.8830   22.0122 C   0  0  1  0  0  0  0  0  0  0  0  0
  -26.3196  -29.2731   21.4123 C   0  0  1  0  0  0  0  0  0  0  0  0
  -25.8488  -19.9195   24.2924 C   0  0  2  0  0  0  0  0  0  0  0  0
  -18.6537  -26.4783   23.1069 C   0  0  2  0  0  0  0  0  0  0  0  0
  -24.3794  -36.3067   24.0138 C   0  0  0  0  0  0  0  0  0  0  0  0
  -26.6582  -30.3765   25.8876 C   0  0  0  0  0  0  0  0  0  0  0  0
  -25.7413  -32.6193   26.5179 C   0  0  0  0  0  0  0  0  0  0  0  0
  -27.9005  -32.4600   25.2790 C   0  0  0  0  0  0  0  0  0  0  0  0
  -23.3663  -34.7544   20.6912 C   0  0  0  0  0  0  0  0  0  0  0  0
  -19.7964  -27.4800   22.9460 C   0  0  0  0  0  0  0  0  0  1  0  0
  -25.7374  -31.9610   24.0689 C   0  0  1  0  0  0  0  0  0  0  0  0
  -24.4710  -35.3225   22.8581 C   0  0  2  0  0  0  0  0  0  0  0  0
  -26.4947  -31.8369   25.4212 C   0  0  0  0  0  0  0  0  0  0  0  0
  -25.9916  -17.7586   23.1129 N   0  0  0  0  0  0  0  0  0  0  0  0
  -26.3619  -19.0496   23.1601 N   0  0  0  0  0  0  0  0  0  0  0  0
  -18.9763  -25.2103   22.4409 N   0  0  3  0  0  0  0  0  0  0  0  0
  -25.6580  -30.1812   22.3514 N   0  0  0  0  0  0  0  0  0  0  0  0
  -23.9886  -20.3745   25.8426 N   0  0  0  0  0  0  0  0  0  0  0  0
  -27.6517  -20.6870   22.0352 N   0  0  0  0  0  0  0  0  0  0  0  0
  -28.2418  -16.9849   19.5169 N   0  0  0  0  0  0  0  0  0  0  0  0
  -22.1040  -21.1382   24.6480 N   0  0  0  0  0  0  0  0  0  0  0  0
  -27.4336  -27.1249   21.4556 N   0  0  0  0  0  0  0  0  0  0  0  0
  -25.5917  -33.3310   23.5892 N   0  0  0  0  0  0  0  0  0  0  0  0
  -23.3811  -35.6318   21.8899 N   0  3  0  0  0  0  0  0  0  0  0  0
  -28.8026  -19.1978   19.7342 O   0  0  0  0  0  0  0  0  0  0  0  0
  -26.4341  -27.9732   23.3801 O   0  0  0  0  0  0  0  0  0  0  0  0
  -27.5676  -31.4883   22.6359 O   0  0  0  0  0  0  0  0  0  0  0  0
  -23.2749  -33.3214   23.4922 O   0  0  0  0  0  0  0  0  0  0  0  0
  -22.5272  -21.8868   26.8025 O   0  0  0  0  0  0  0  0  0  0  0  0
  -26.0155  -11.9671   20.4657 O   0  0  0  0  0  0  0  0  0  0  0  0
  -20.1047  -27.6148   21.5592 O   0  0  0  0  0  0  0  0  0  1  0  0
  -30.5463   -9.2227   18.9346 F   0  0  0  0  0  0  0  0  0  0  0  0
  -19.2218  -22.7617   21.1716 F   0  0  0  0  0  0  0  0  0  0  0  0
  -26.8204   -9.6929   21.8159 F   0  0  0  0  0  0  0  0  0  0  0  0
  1  2  1  0  0  0  0
  1  5  2  0  0  0  0
  2  6  2  0  0  0  0
  3 10  2  0  0  0  0
  3 18  1  0  0  0  0
  4 11  1  0  0  0  0
  4 18  2  0  0  0  0
  5 20  1  0  0  0  0
  6 22  1  0  0  0  0
  7 12  2  0  0  0  0
  7 21  1  0  0  0  0
  8  9  2  0  0  0  0
  8 24  1  0  0  0  0
  9 25  1  0  0  0  0
 10 26  1  0  0  0  0
 11 26  2  0  0  0  0
 12 27  1  0  0  0  0
 13 14  2  0  0  0  0
 13 28  1  0  0  0  0
 14 29  1  0  0  0  0
 15 23  1  0  0  0  0
 15 27  2  0  0  0  0
 16 25  2  0  0  0  0
 16 30  1  0  0  0  0
 17 29  2  0  0  0  0
 17 31  1  0  0  0  0
 18 32  1  0  0  0  0
 19 32  1  0  0  0  0
 19 33  2  0  0  0  0
 19 34  1  0  0  0  0
 20 22  2  0  0  0  0
 20 39  1  0  0  0  0
 21 23  2  0  0  0  0
 21 40  1  0  0  0  0
 22 51  1  0  0  0  0
 23 41  1  0  0  0  0
 24 30  2  0  0  0  0
 24 66  1  0  0  0  0
 25 71  1  0  0  0  0
 26 80  1  0  0  0  0
 27 81  1  0  0  0  0
 28 31  2  0  0  0  0
 28 80  1  0  0  0  0
 29 82  1  0  0  0  0
 30 83  1  0  0  0  0
 31 84  1  0  0  0  0
 32 64  2  0  0  0  0
 33 65  1  0  0  0  0
 33 69  1  0  0  0  0
 34 70  1  0  0  0  0
 34 75  2  0  0  0  0
 35 52  1  0  0  0  0
 35 72  1  0  0  0  0
 35 76  2  0  0  0  0
 36 61  1  0  0  0  0
 36 67  1  0  0  0  0
 36 77  2  0  0  0  0
 37 62  1  0  0  0  0
 37 73  1  0  0  0  0
 37 78  2  0  0  0  0
 38 68  1  0  0  0  0
 38 71  1  0  0  0  0
 38 79  2  0  0  0  0
 39 42  1  0  0  0  0
 40 52  1  0  0  0  0
 41 67  1  0  0  0  0
 42 45  1  0  0  0  0
 43 46  1  0  0  0  0
 43 49  1  0  0  0  0
 44 47  1  0  0  0  0
 44 48  1  0  0  0  0
 45 51  1  0  0  0  0
 46 53  1  0  0  0  0
 47 54  1  0  0  0  0
 48 66  1  0  0  0  0
 49 68  1  0  0  0  0
 50 53  1  0  0  0  0
 50 68  1  0  0  0  0
 51 72  1  0  0  0  0
 52 67  1  0  0  0  0
 53 65  1  0  0  0  0
 54 60  1  0  0  0  0
 54 66  1  0  0  0  0
 55 62  1  0  0  0  0
 56 63  1  0  0  0  0
 57 63  1  0  0  0  0
 58 63  1  0  0  0  0
 59 74  1  0  0  0  0
 60 81  1  0  0  0  0
 61 63  1  0  0  0  0
 61 73  1  0  0  0  0
 62 74  1  0  0  0  0
 64 65  1  0  0  0  0
M  CHG  1  74   1
M  ISO  4  38 100  60 101  71 100  81 101
M  END
> <Batch ID>
0023

> <Smiles>
CNC(C)C(=O)NC(C(=O)N1Cc2cc([101O:1][101CH2:1]C3CCCN3c3ccc([100NH:0][100C:0](=O)N4CCCC(n5nc(-c6ccc(Oc7ccc(F)cc7F)cc6)c(C(N)=O)c5N)C4)cc3F)ccc2CC1C(=O)NC1CCCc2ccccc21)C(C)(C)C

> <Shape>
0.248

> <Color>
0.056

> <Negative vol penalty>
0.000

$$$$

  -OEChem-04042321173D

 84 93  0     1  0  0  0  0  0999 V2000
  -18.0836  -29.4373   24.0067 C   0  0  0  0  0  0  0  0  0  0  0  0
  -19.4710  -29.5280   23.9579 C   0  0  0  0  0  0  0  0  0  0  0  0
  -25.0972  -13.2720   19.5490 C   0  0  0  0  0  0  0  0  0  0  0  0
  -25.9793  -13.8708   21.7170 C   0  0  0  0  0  0  0  0  0  0  0  0
  -17.4357  -28.3542   23.4142 C   0  0  0  0  0  0  0  0  0  0  0  0
  -20.2114  -28.5350   23.3175 C   0  0  0  0  0  0  0  0  0  0  0  0
  -25.3985  -29.2773   20.1476 C   0  0  0  0  0  0  0  0  0  0  0  0
  -30.5429  -24.6516   21.2870 C   0  0  0  0  0  0  0  0  0  0  0  0
  -30.3319  -23.5027   20.5247 C   0  0  0  0  0  0  0  0  0  0  0  0
  -24.9716  -11.9469   19.9660 C   0  0  0  0  0  0  0  0  0  0  0  0
  -25.8537  -12.5457   22.1341 C   0  0  0  0  0  0  0  0  0  0  0  0
  -26.7387  -29.0939   20.4855 C   0  0  0  0  0  0  0  0  0  0  0  0
  -22.8333  -10.1175   21.8405 C   0  0  0  0  0  0  0  0  0  0  0  0
  -21.6460   -9.4518   21.5359 C   0  0  0  0  0  0  0  0  0  0  0  0
  -26.6751  -26.8866   19.5145 C   0  0  0  0  0  0  0  0  0  0  0  0
  -28.0621  -23.3769   21.3429 C   0  0  0  0  0  0  0  0  0  0  0  0
  -22.8905   -7.8095   20.2744 C   0  0  0  0  0  0  0  0  0  0  0  0
  -25.6011  -14.2340   20.4245 C   0  0  0  0  0  0  0  0  0  0  0  0
  -24.7688  -16.6240   20.1040 C   0  0  0  0  0  0  0  0  0  0  0  0
  -18.1679  -27.3524   22.7578 C   0  0  0  0  0  0  0  0  0  0  0  0
  -24.6824  -28.2608   19.4993 C   0  0  0  0  0  0  0  0  0  0  0  0
  -19.5727  -27.4368   22.7168 C   0  0  0  0  0  0  0  0  0  0  0  0
  -25.3267  -27.0605   19.1672 C   0  0  0  0  0  0  0  0  0  0  0  0
  -28.2732  -24.5258   22.1052 C   0  0  0  0  0  0  0  0  0  0  0  0
  -29.5136  -25.1632   22.0772 C   0  0  0  0  0  0  0  0  0  0  0  0
  -29.0915  -22.8653   20.5527 C   0  0  0  0  0  0  0  0  0  0  0  0
  -25.3498  -11.5837   21.2585 C   0  0  0  0  0  0  0  0  0  0  0  0
  -27.3764  -27.8973   20.1715 C   0  0  0  0  0  0  0  0  0  0  0  0
  -24.0492   -9.6293   21.3620 C   0  0  0  0  0  0  0  0  0  0  0  0
  -21.6746   -8.2978   20.7529 C   0  0  0  0  0  0  0  0  0  0  0  0
  -24.0778   -8.4753   20.5789 C   0  0  0  0  0  0  0  0  0  0  0  0
  -25.7316  -15.6028   19.9941 C   0  0  0  0  0  0  0  0  0  0  0  0
  -25.3742  -17.7274   19.5540 C   0  0  0  0  0  0  0  0  0  0  0  0
  -23.4456  -16.5792   20.6543 C   0  0  0  0  0  0  0  0  0  0  0  0
  -22.1292  -26.5082   20.2158 C   0  0  0  0  0  0  0  0  0  0  0  0
  -22.4929  -25.4395   17.1747 C   0  0  0  0  0  0  0  0  0  0  0  0
  -24.5638  -24.9335   14.5098 C   0  0  0  0  0  0  0  0  0  0  0  0
  -29.7915  -21.0610   18.9400 C   0  0  0  0  0  0  0  0  0  0  0  0
  -17.4264  -26.1764   22.1730 C   0  0  0  0  0  0  0  0  0  0  0  0
  -23.2447  -28.4846   19.1178 C   0  0  0  0  0  0  0  0  0  0  0  0
  -24.6080  -25.9459   18.4534 C   0  0  0  0  0  0  0  0  0  0  0  0
  -18.2595  -25.3592   21.1890 C   0  0  0  0  0  0  0  0  0  0  0  0
  -29.6599  -18.1501   16.8939 C   0  0  0  0  0  0  0  0  0  0  0  0
  -29.9291  -27.7727   24.6724 C   0  0  0  0  0  0  0  0  0  0  0  0
  -19.6462  -25.0853   21.7624 C   0  0  0  0  0  0  0  0  0  0  0  0
  -28.5470  -17.3119   17.5271 C   0  0  0  0  0  0  0  0  0  0  0  0
  -30.8374  -28.2545   23.5522 C   0  0  0  0  0  0  0  0  0  0  0  0
  -29.6214  -26.3296   24.2859 C   0  0  0  0  0  0  0  0  0  0  0  0
  -30.4821  -18.8900   17.9477 C   0  0  0  0  0  0  0  0  0  0  0  0
  -28.5866  -18.8642   19.5211 C   0  0  0  0  0  0  0  0  0  0  0  0
  -20.4091  -26.3924   22.0098 C   0  0  1  0  0  0  0  0  0  0  0  0
  -22.4703  -27.1854   18.9185 C   0  0  1  0  0  0  0  0  0  0  0  0
  -27.6904  -18.1515   18.4951 C   0  0  2  0  0  0  0  0  0  0  0  0
  -30.2733  -27.5653   22.3018 C   0  0  2  0  0  0  0  0  0  0  0  0
  -27.1540  -25.0516   22.9438 C   0  0  0  0  0  0  0  0  0  0  0  0
  -24.5827  -24.0069   12.1777 C   0  0  0  0  0  0  0  0  0  0  0  0
  -22.4902  -22.6048   18.3036 C   0  0  0  0  0  0  0  0  0  0  0  0
  -23.4450  -21.8126   16.1289 C   0  0  0  0  0  0  0  0  0  0  0  0
  -21.1932  -22.8846   16.1837 C   0  0  0  0  0  0  0  0  0  0  0  0
  -25.3304  -27.5475   13.3530 C   0  0  0  0  0  0  0  0  0  0  0  0
  -29.1628  -28.3960   21.6601 C   0  0  0  0  0  0  0  0  0  1  0  0
  -23.2534  -24.3105   16.5220 C   0  0  1  0  0  0  0  0  0  0  0  0
  -24.4023  -25.2507   13.0341 C   0  0  2  0  0  0  0  0  0  0  0  0
  -22.6088  -22.9232   16.7997 C   0  0  0  0  0  0  0  0  0  0  0  0
  -26.8626  -16.0203   19.4192 N   0  0  0  0  0  0  0  0  0  0  0  0
  -26.6143  -17.3159   19.1629 N   0  0  0  0  0  0  0  0  0  0  0  0
  -29.7404  -26.3021   22.8268 N   0  0  3  0  0  0  0  0  0  0  0  0
  -23.2017  -26.2101   18.1072 N   0  0  0  0  0  0  0  0  0  0  0  0
  -29.6045  -19.6672   18.8256 N   0  0  0  0  0  0  0  0  0  0  0  0
  -24.9613  -18.9996   19.3714 N   0  0  0  0  0  0  0  0  0  0  0  0
  -22.9805  -15.3652   21.1780 N   0  0  0  0  0  0  0  0  0  0  0  0
  -28.8771  -21.6986   19.7778 N   0  0  0  0  0  0  0  0  0  0  0  0
  -20.9292  -26.9172   20.7654 N   0  0  0  0  0  0  0  0  0  0  0  0
  -23.3536  -24.6504   15.1068 N   0  0  0  0  0  0  0  0  0  0  0  0
  -25.4087  -26.2642   12.6088 N   0  3  0  0  0  0  0  0  0  0  0  0
  -22.6918  -17.5818   20.6659 O   0  0  0  0  0  0  0  0  0  0  0  0
  -22.8972  -25.6752   20.6827 O   0  0  0  0  0  0  0  0  0  0  0  0
  -21.3154  -25.6350   16.8632 O   0  0  0  0  0  0  0  0  0  0  0  0
  -25.6550  -24.9331   15.0754 O   0  0  0  0  0  0  0  0  0  0  0  0
  -30.6792  -21.6500   18.3178 O   0  0  0  0  0  0  0  0  0  0  0  0
  -25.2272  -10.2908   21.6659 O   0  0  0  0  0  0  0  0  0  0  0  0
  -28.6842  -27.7154   20.5007 O   0  0  0  0  0  0  0  0  0  1  0  0
  -20.5345   -7.6578   20.4618 F   0  0  0  0  0  0  0  0  0  0  0  0
  -25.2429   -8.0008   20.1173 F   0  0  0  0  0  0  0  0  0  0  0  0
  1  2  1  0  0  0  0
  1  5  2  0  0  0  0
  2  6  2  0  0  0  0
  3 10  2  0  0  0  0
  3 18  1  0  0  0  0
  4 11  1  0  0  0  0
  4 18  2  0  0  0  0
  5 20  1  0  0  0  0
  6 22  1  0  0  0  0
  7 12  2  0  0  0  0
  7 21  1  0  0  0  0
  8  9  2  0  0  0  0
  8 25  1  0  0  0  0
  9 26  1  0  0  0  0
 10 27  1  0  0  0  0
 11 27  2  0  0  0  0
 12 28  1  0  0  0  0
 13 14  2  0  0  0  0
 13 29  1  0  0  0  0
 14 30  1  0  0  0  0
 15 23  1  0  0  0  0
 15 28  2  0  0  0  0
 16 24  1  0  0  0  0
 16 26  2  0  0  0  0
 17 30  2  0  0  0  0
 17 31  1  0  0  0  0
 18 32  1  0  0  0  0
 19 32  1  0  0  0  0
 19 33  2  0  0  0  0
 19 34  1  0  0  0  0
 20 22  2  0  0  0  0
 20 39  1  0  0  0  0
 21 23  2  0  0  0  0
 21 40  1  0  0  0  0
 22 51  1  0  0  0  0
 23 41  1  0  0  0  0
 24 25  2  0  0  0  0
 24 55  1  0  0  0  0
 25 67  1  0  0  0  0
 26 72  1  0  0  0  0
 27 81  1  0  0  0  0
 28 82  1  0  0  0  0
 29 31  2  0  0  0  0
 29 81  1  0  0  0  0
 30 83  1  0  0  0  0
 31 84  1  0  0  0  0
 32 65  2  0  0  0  0
 33 66  1  0  0  0  0
 33 70  1  0  0  0  0
 34 71  1  0  0  0  0
 34 76  2  0  0  0  0
 35 52  1  0  0  0  0
 35 73  1  0  0  0  0
 35 77  2  0  0  0  0
 36 62  1  0  0  0  0
 36 68  1  0  0  0  0
 36 78  2  0  0  0  0
 37 63  1  0  0  0  0
 37 74  1  0  0  0  0
 37 79  2  0  0  0  0
 38 69  1  0  0  0  0
 38 72  1  0  0  0  0
 38 80  2  0  0  0  0
 39 42  1  0  0  0  0
 40 52  1  0  0  0  0
 41 68  1  0  0  0  0
 42 45  1  0  0  0  0
 43 46  1  0  0  0  0
 43 49  1  0  0  0  0
 44 47  1  0  0  0  0
 44 48  1  0  0  0  0
 45 51  1  0  0  0  0
 46 53  1  0  0  0  0
 47 54  1  0  0  0  0
 48 67  1  0  0  0  0
 49 69  1  0  0  0  0
 50 53  1  0  0  0  0
 50 69  1  0  0  0  0
 51 73  1  0  0  0  0
 52 68  1  0  0  0  0
 53 66  1  0  0  0  0
 54 61  1  0  0  0  0
 54 67  1  0  0  0  0
 56 63  1  0  0  0  0
 57 64  1  0  0  0  0
 58 64  1  0  0  0  0
 59 64  1  0  0  0  0
 60 75  1  0  0  0  0
 61 82  1  0  0  0  0
 62 64  1  0  0  0  0
 62 74  1  0  0  0  0
 63 75  1  0  0  0  0
 65 66  1  0  0  0  0
M  CHG  1  75   1
M  ISO  4  38 100  61 101  72 100  82 101
M  END
> <Batch ID>
0023

> <Smiles>
CNC(C)C(=O)NC(C(=O)N1Cc2cc([101O:1][101CH2:1]C3CCCN3c3ccc([100NH:0][100C:0](=O)N4CCCC(n5nc(-c6ccc(Oc7ccc(F)cc7F)cc6)c(C(N)=O)c5N)C4)cc3C)ccc2CC1C(=O)NC1CCCc2ccccc21)C(C)(C)C

> <Shape>
0.236

> <Color>
0.066

> <Negative vol penalty>
0.000

$$$$

  -OEChem-04042321173D

 84 93  0     1  0  0  0  0  0999 V2000
  -18.0836  -29.4373   24.0067 C   0  0  0  0  0  0  0  0  0  0  0  0
  -19.4710  -29.5280   23.9579 C   0  0  0  0  0  0  0  0  0  0  0  0
  -25.0972  -13.2720   19.5490 C   0  0  0  0  0  0  0  0  0  0  0  0
  -25.9793  -13.8708   21.7170 C   0  0  0  0  0  0  0  0  0  0  0  0
  -17.4357  -28.3542   23.4142 C   0  0  0  0  0  0  0  0  0  0  0  0
  -20.2114  -28.5350   23.3175 C   0  0  0  0  0  0  0  0  0  0  0  0
  -25.3985  -29.2773   20.1476 C   0  0  0  0  0  0  0  0  0  0  0  0
  -30.5429  -24.6516   21.2870 C   0  0  0  0  0  0  0  0  0  0  0  0
  -30.3319  -23.5027   20.5247 C   0  0  0  0  0  0  0  0  0  0  0  0
  -24.9716  -11.9469   19.9660 C   0  0  0  0  0  0  0  0  0  0  0  0
  -25.8537  -12.5457   22.1341 C   0  0  0  0  0  0  0  0  0  0  0  0
  -26.7387  -29.0939   20.4855 C   0  0  0  0  0  0  0  0  0  0  0  0
  -22.8333  -10.1175   21.8405 C   0  0  0  0  0  0  0  0  0  0  0  0
  -21.6460   -9.4518   21.5359 C   0  0  0  0  0  0  0  0  0  0  0  0
  -26.6751  -26.8866   19.5145 C   0  0  0  0  0  0  0  0  0  0  0  0
  -28.0621  -23.3769   21.3429 C   0  0  0  0  0  0  0  0  0  0  0  0
  -22.8905   -7.8095   20.2744 C   0  0  0  0  0  0  0  0  0  0  0  0
  -25.6011  -14.2340   20.4245 C   0  0  0  0  0  0  0  0  0  0  0  0
  -24.7688  -16.6240   20.1040 C   0  0  0  0  0  0  0  0  0  0  0  0
  -18.1679  -27.3524   22.7578 C   0  0  0  0  0  0  0  0  0  0  0  0
  -24.6824  -28.2608   19.4993 C   0  0  0  0  0  0  0  0  0  0  0  0
  -19.5727  -27.4368   22.7168 C   0  0  0  0  0  0  0  0  0  0  0  0
  -25.3267  -27.0605   19.1672 C   0  0  0  0  0  0  0  0  0  0  0  0
  -28.2732  -24.5258   22.1052 C   0  0  0  0  0  0  0  0  0  0  0  0
  -29.5136  -25.1632   22.0772 C   0  0  0  0  0  0  0  0  0  0  0  0
  -29.0915  -22.8653   20.5527 C   0  0  0  0  0  0  0  0  0  0  0  0
  -25.3498  -11.5837   21.2585 C   0  0  0  0  0  0  0  0  0  0  0  0
  -27.3764  -27.8973   20.1715 C   0  0  0  0  0  0  0  0  0  0  0  0
  -24.0492   -9.6293   21.3620 C   0  0  0  0  0  0  0  0  0  0  0  0
  -21.6746   -8.2978   20.7529 C   0  0  0  0  0  0  0  0  0  0  0  0
  -24.0778   -8.4753   20.5789 C   0  0  0  0  0  0  0  0  0  0  0  0
  -25.7316  -15.6028   19.9941 C   0  0  0  0  0  0  0  0  0  0  0  0
  -25.3742  -17.7274   19.5540 C   0  0  0  0  0  0  0  0  0  0  0  0
  -23.4456  -16.5792   20.6543 C   0  0  0  0  0  0  0  0  0  0  0  0
  -22.1292  -26.5082   20.2158 C   0  0  0  0  0  0  0  0  0  0  0  0
  -22.4929  -25.4395   17.1747 C   0  0  0  0  0  0  0  0  0  0  0  0
  -24.5638  -24.9335   14.5098 C   0  0  0  0  0  0  0  0  0  0  0  0
  -29.7915  -21.0610   18.9400 C   0  0  0  0  0  0  0  0  0  0  0  0
  -17.4264  -26.1764   22.1730 C   0  0  0  0  0  0  0  0  0  0  0  0
  -23.2447  -28.4846   19.1178 C   0  0  0  0  0  0  0  0  0  0  0  0
  -24.6080  -25.9459   18.4534 C   0  0  0  0  0  0  0  0  0  0  0  0
  -18.2595  -25.3592   21.1890 C   0  0  0  0  0  0  0  0  0  0  0  0
  -29.6599  -18.1501   16.8939 C   0  0  0  0  0  0  0  0  0  0  0  0
  -29.9291  -27.7727   24.6724 C   0  0  0  0  0  0  0  0  0  0  0  0
  -19.6462  -25.0853   21.7624 C   0  0  0  0  0  0  0  0  0  0  0  0
  -28.5470  -17.3119   17.5271 C   0  0  0  0  0  0  0  0  0  0  0  0
  -30.8374  -28.2545   23.5522 C   0  0  0  0  0  0  0  0  0  0  0  0
  -29.6214  -26.3296   24.2859 C   0  0  0  0  0  0  0  0  0  0  0  0
  -30.4821  -18.8900   17.9477 C   0  0  0  0  0  0  0  0  0  0  0  0
  -28.5866  -18.8642   19.5211 C   0  0  0  0  0  0  0  0  0  0  0  0
  -20.4091  -26.3924   22.0098 C   0  0  1  0  0  0  0  0  0  0  0  0
  -22.4703  -27.1854   18.9185 C   0  0  1  0  0  0  0  0  0  0  0  0
  -27.6904  -18.1515   18.4951 C   0  0  2  0  0  0  0  0  0  0  0  0
  -30.2733  -27.5653   22.3018 C   0  0  2  0  0  0  0  0  0  0  0  0
  -27.1540  -25.0516   22.9438 C   0  0  0  0  0  0  0  0  0  0  0  0
  -24.5827  -24.0069   12.1777 C   0  0  0  0  0  0  0  0  0  0  0  0
  -22.4902  -22.6048   18.3036 C   0  0  0  0  0  0  0  0  0  0  0  0
  -23.4450  -21.8126   16.1289 C   0  0  0  0  0  0  0  0  0  0  0  0
  -21.1932  -22.8846   16.1837 C   0  0  0  0  0  0  0  0  0  0  0  0
  -25.3304  -27.5475   13.3530 C   0  0  0  0  0  0  0  0  0  0  0  0
  -29.1628  -28.3960   21.6601 C   0  0  0  0  0  0  0  0  0  1  0  0
  -23.2534  -24.3105   16.5220 C   0  0  1  0  0  0  0  0  0  0  0  0
  -24.4023  -25.2507   13.0341 C   0  0  2  0  0  0  0  0  0  0  0  0
  -22.6088  -22.9232   16.7997 C   0  0  0  0  0  0  0  0  0  0  0  0
  -26.8626  -16.0203   19.4192 N   0  0  0  0  0  0  0  0  0  0  0  0
  -26.6143  -17.3159   19.1629 N   0  0  0  0  0  0  0  0  0  0  0  0
  -29.7404  -26.3021   22.8268 N   0  0  3  0  0  0  0  0  0  0  0  0
  -23.2017  -26.2101   18.1072 N   0  0  0  0  0  0  0  0  0  0  0  0
  -29.6045  -19.6672   18.8256 N   0  0  0  0  0  0  0  0  0  0  0  0
  -24.9613  -18.9996   19.3714 N   0  0  0  0  0  0  0  0  0  0  0  0
  -22.9805  -15.3652   21.1780 N   0  0  0  0  0  0  0  0  0  0  0  0
  -28.8771  -21.6986   19.7778 N   0  0  0  0  0  0  0  0  0  0  0  0
  -20.9292  -26.9172   20.7654 N   0  0  0  0  0  0  0  0  0  0  0  0
  -23.3536  -24.6504   15.1068 N   0  0  0  0  0  0  0  0  0  0  0  0
  -25.4087  -26.2642   12.6088 N   0  3  0  0  0  0  0  0  0  0  0  0
  -22.6918  -17.5818   20.6659 O   0  0  0  0  0  0  0  0  0  0  0  0
  -22.8972  -25.6752   20.6827 O   0  0  0  0  0  0  0  0  0  0  0  0
  -21.3154  -25.6350   16.8632 O   0  0  0  0  0  0  0  0  0  0  0  0
  -25.6550  -24.9331   15.0754 O   0  0  0  0  0  0  0  0  0  0  0  0
  -30.6792  -21.6500   18.3178 O   0  0  0  0  0  0  0  0  0  0  0  0
  -25.2272  -10.2908   21.6659 O   0  0  0  0  0  0  0  0  0  0  0  0
  -28.6842  -27.7154   20.5007 O   0  0  0  0  0  0  0  0  0  1  0  0
  -20.5345   -7.6578   20.4618 F   0  0  0  0  0  0  0  0  0  0  0  0
  -25.2429   -8.0008   20.1173 F   0  0  0  0  0  0  0  0  0  0  0  0
  1  2  1  0  0  0  0
  1  5  2  0  0  0  0
  2  6  2  0  0  0  0
  3 10  2  0  0  0  0
  3 18  1  0  0  0  0
  4 11  1  0  0  0  0
  4 18  2  0  0  0  0
  5 20  1  0  0  0  0
  6 22  1  0  0  0  0
  7 12  2  0  0  0  0
  7 21  1  0  0  0  0
  8  9  2  0  0  0  0
  8 25  1  0  0  0  0
  9 26  1  0  0  0  0
 10 27  1  0  0  0  0
 11 27  2  0  0  0  0
 12 28  1  0  0  0  0
 13 14  2  0  0  0  0
 13 29  1  0  0  0  0
 14 30  1  0  0  0  0
 15 23  1  0  0  0  0
 15 28  2  0  0  0  0
 16 24  1  0  0  0  0
 16 26  2  0  0  0  0
 17 30  2  0  0  0  0
 17 31  1  0  0  0  0
 18 32  1  0  0  0  0
 19 32  1  0  0  0  0
 19 33  2  0  0  0  0
 19 34  1  0  0  0  0
 20 22  2  0  0  0  0
 20 39  1  0  0  0  0
 21 23  2  0  0  0  0
 21 40  1  0  0  0  0
 22 51  1  0  0  0  0
 23 41  1  0  0  0  0
 24 25  2  0  0  0  0
 24 55  1  0  0  0  0
 25 67  1  0  0  0  0
 26 72  1  0  0  0  0
 27 81  1  0  0  0  0
 28 82  1  0  0  0  0
 29 31  2  0  0  0  0
 29 81  1  0  0  0  0
 30 83  1  0  0  0  0
 31 84  1  0  0  0  0
 32 65  2  0  0  0  0
 33 66  1  0  0  0  0
 33 70  1  0  0  0  0
 34 71  1  0  0  0  0
 34 76  2  0  0  0  0
 35 52  1  0  0  0  0
 35 73  1  0  0  0  0
 35 77  2  0  0  0  0
 36 62  1  0  0  0  0
 36 68  1  0  0  0  0
 36 78  2  0  0  0  0
 37 63  1  0  0  0  0
 37 74  1  0  0  0  0
 37 79  2  0  0  0  0
 38 69  1  0  0  0  0
 38 72  1  0  0  0  0
 38 80  2  0  0  0  0
 39 42  1  0  0  0  0
 40 52  1  0  0  0  0
 41 68  1  0  0  0  0
 42 45  1  0  0  0  0
 43 46  1  0  0  0  0
 43 49  1  0  0  0  0
 44 47  1  0  0  0  0
 44 48  1  0  0  0  0
 45 51  1  0  0  0  0
 46 53  1  0  0  0  0
 47 54  1  0  0  0  0
 48 67  1  0  0  0  0
 49 69  1  0  0  0  0
 50 53  1  0  0  0  0
 50 69  1  0  0  0  0
 51 73  1  0  0  0  0
 52 68  1  0  0  0  0
 53 66  1  0  0  0  0
 54 61  1  0  0  0  0
 54 67  1  0  0  0  0
 56 63  1  0  0  0  0
 57 64  1  0  0  0  0
 58 64  1  0  0  0  0
 59 64  1  0  0  0  0
 60 75  1  0  0  0  0
 61 82  1  0  0  0  0
 62 64  1  0  0  0  0
 62 74  1  0  0  0  0
 63 75  1  0  0  0  0
 65 66  1  0  0  0  0
M  CHG  1  75   1
M  ISO  4  38 100  61 101  72 100  82 101
M  END
> <Batch ID>
0023

> <Smiles>
CNC(C)C(=O)NC(C(=O)N1Cc2cc([101O:1][101CH2:1]C3CCCN3c3ccc([100NH:0][100C:0](=O)N4CCCC(n5nc(-c6ccc(Oc7ccc(F)cc7F)cc6)c(C(N)=O)c5N)C4)cc3C)ccc2CC1C(=O)NC1CCCc2ccccc21)C(C)(C)C

> <Shape>
0.236

> <Color>
0.066

> <Negative vol penalty>
0.000

$$$$

  -OEChem-04042321173D

 86 95  0     1  0  0  0  0  0999 V2000
  -33.0204  -24.8769   19.0746 C   0  0  0  0  0  0  0  0  0  0  0  0
  -31.6815  -24.7510   19.4308 C   0  0  0  0  0  0  0  0  0  0  0  0
  -22.9896  -10.0287   20.0560 C   0  0  0  0  0  0  0  0  0  0  0  0
  -24.4427   -9.4028   21.8818 C   0  0  0  0  0  0  0  0  0  0  0  0
  -33.8024  -25.8777   19.6497 C   0  0  0  0  0  0  0  0  0  0  0  0
  -31.1241  -25.6252   20.3633 C   0  0  0  0  0  0  0  0  0  0  0  0
  -26.5820  -27.3505   18.9359 C   0  0  0  0  0  0  0  0  0  0  0  0
  -24.9926  -20.5525   21.7069 C   0  0  0  0  0  0  0  0  0  0  0  0
  -25.8056  -19.4217   21.6292 C   0  0  0  0  0  0  0  0  0  0  0  0
  -21.9570   -9.2807   20.6214 C   0  0  0  0  0  0  0  0  0  0  0  0
  -23.4101   -8.6548   22.4473 C   0  0  0  0  0  0  0  0  0  0  0  0
  -25.4949  -26.4933   19.1004 C   0  0  0  0  0  0  0  0  0  0  0  0
  -21.9698   -5.6340   21.9664 C   0  0  0  0  0  0  0  0  0  0  0  0
  -22.2772   -4.3579   22.4383 C   0  0  0  0  0  0  0  0  0  0  0  0
  -24.8904  -27.6581   21.1246 C   0  0  0  0  0  0  0  0  0  0  0  0
  -24.3204  -18.4674   19.9798 C   0  0  0  0  0  0  0  0  0  0  0  0
  -21.5751   -5.0092   24.6565 C   0  0  0  0  0  0  0  0  0  0  0  0
  -24.2325  -10.0897   20.6862 C   0  0  0  0  0  0  0  0  0  0  0  0
  -25.8839  -10.6818   18.8341 C   0  0  0  0  0  0  0  0  0  0  0  0
  -33.2519  -26.7707   20.5825 C   0  0  0  0  0  0  0  0  0  0  0  0
  -26.8383  -28.3627   19.8720 C   0  0  0  0  0  0  0  0  0  0  0  0
  -31.8999  -26.6380   20.9525 C   0  0  0  0  0  0  0  0  0  0  0  0
  -25.9800  -28.5284   20.9683 C   0  0  0  0  0  0  0  0  0  0  0  0
  -23.8435  -20.6407   20.9212 C   0  0  0  0  0  0  0  0  0  0  0  0
  -25.4695  -18.3792   20.7656 C   0  0  0  0  0  0  0  0  0  0  0  0
  -22.1672   -8.5937   21.8170 C   0  0  0  0  0  0  0  0  0  0  0  0
  -24.6505  -26.6452   20.1964 C   0  0  0  0  0  0  0  0  0  0  0  0
  -21.4651   -6.5977   22.8395 C   0  0  0  0  0  0  0  0  0  0  0  0
  -22.0798   -4.0455   23.7834 C   0  0  0  0  0  0  0  0  0  0  0  0
  -23.5074  -19.5982   20.0576 C   0  0  0  0  0  0  0  0  0  0  0  0
  -21.2677   -6.2853   24.1845 C   0  0  0  0  0  0  0  0  0  0  0  0
  -25.2998  -10.8618   20.1023 C   0  0  0  0  0  0  0  0  0  0  0  0
  -26.8441  -11.6608   18.7563 C   0  0  0  0  0  0  0  0  0  0  0  0
  -23.5538  -23.0727   21.3202 C   0  0  0  0  0  0  0  0  0  0  0  0
  -25.5851   -9.7161   17.8173 C   0  0  0  0  0  0  0  0  0  0  0  0
  -29.2352  -29.0361   21.8481 C   0  0  0  0  0  0  0  0  0  0  0  0
  -27.5117  -31.7288   22.3966 C   0  0  0  0  0  0  0  0  0  0  0  0
  -24.0372  -32.5820   22.8630 C   0  0  0  0  0  0  0  0  0  0  0  0
  -27.4698  -16.9842   21.3973 C   0  0  0  0  0  0  0  0  0  0  0  0
  -34.1487  -27.8067   21.2126 C   0  0  0  0  0  0  0  0  0  0  0  0
  -27.9997  -29.2960   19.6659 C   0  0  0  0  0  0  0  0  0  0  0  0
  -26.1998  -29.6122   21.9908 C   0  0  0  0  0  0  0  0  0  0  0  0
  -33.3857  -28.9283   21.9126 C   0  0  0  0  0  0  0  0  0  0  0  0
  -20.6542  -22.7309   21.0642 C   0  0  0  0  0  0  0  0  0  0  0  0
  -29.7673  -14.2666   21.5128 C   0  0  0  0  0  0  0  0  0  0  0  0
  -32.2746  -28.3539   22.7858 C   0  0  0  0  0  0  0  0  0  0  0  0
  -21.2659  -24.1102   20.9462 C   0  0  0  0  0  0  0  0  0  0  0  0
  -28.9372  -13.0699   21.0430 C   0  0  0  0  0  0  0  0  0  0  0  0
  -21.6170  -21.6903   20.5191 C   0  0  0  0  0  0  0  0  0  0  0  0
  -28.9419  -15.2306   22.3632 C   0  0  0  0  0  0  0  0  0  0  0  0
  -26.8589  -14.4886   21.2770 C   0  0  0  0  0  0  0  0  0  0  0  0
  -31.2526  -27.5827   21.9418 C   0  0  1  0  0  0  0  0  0  0  0  0
  -22.5521  -24.1464   21.7578 C   0  0  2  0  0  0  0  0  0  0  0  0
  -28.4636  -29.9664   20.9554 C   0  0  1  0  0  0  0  0  0  0  0  0
  -27.6303  -13.5227   20.3629 C   0  0  2  0  0  0  0  0  0  0  0  0
  -22.8088  -34.7239   22.4147 C   0  0  0  0  0  0  0  0  0  0  0  0
  -28.0813  -32.3319   25.3329 C   0  0  0  0  0  0  0  0  0  0  0  0
  -25.8016  -33.3545   25.4930 C   0  0  0  0  0  0  0  0  0  0  0  0
  -27.5002  -34.3333   23.9505 C   0  0  0  0  0  0  0  0  0  0  0  0
  -22.0599  -31.2211   21.1318 C   0  0  0  0  0  0  0  0  0  0  0  0
  -23.1722  -25.5428   21.6981 C   0  0  0  0  0  0  0  0  0  1  0  0
  -26.4227  -32.1223   23.3653 C   0  0  1  0  0  0  0  0  0  0  0  0
  -23.1485  -33.3370   21.8911 C   0  0  2  0  0  0  0  0  0  0  0  0
  -26.9547  -33.0086   24.5268 C   0  0  0  0  0  0  0  0  0  0  0  0
  -25.8436  -11.8753   20.7813 N   0  0  0  0  0  0  0  0  0  0  0  0
  -26.7795  -12.3410   19.9367 N   0  0  0  0  0  0  0  0  0  0  0  0
  -23.0019  -21.8151   21.0040 N   0  0  0  0  0  0  0  0  0  0  0  0
  -27.3524  -30.4956   21.7488 N   0  0  0  0  0  0  0  0  0  0  0  0
  -27.7215  -15.6197   21.6532 N   0  0  0  0  0  0  0  0  0  0  0  0
  -27.7289  -11.9976   17.7939 N   0  0  0  0  0  0  0  0  0  0  0  0
  -24.5687   -8.7823   18.0608 N   0  0  0  0  0  0  0  0  0  0  0  0
  -26.2955  -17.2306   20.6868 N   0  0  0  0  0  0  0  0  0  0  0  0
  -30.3650  -28.5001   21.2599 N   0  0  0  0  0  0  0  0  0  0  0  0
  -25.3738  -32.7486   22.5679 N   0  0  0  0  0  0  0  0  0  0  0  0
  -21.8759  -32.5940   21.6686 N   0  3  0  0  0  0  0  0  0  0  0  0
  -24.7614  -23.3257   21.3296 O   0  0  0  0  0  0  0  0  0  0  0  0
  -26.2123   -9.6719   16.7319 O   0  0  0  0  0  0  0  0  0  0  0  0
  -28.8360  -28.8216   22.9866 O   0  0  0  0  0  0  0  0  0  0  0  0
  -28.4647  -32.4908   22.2160 O   0  0  0  0  0  0  0  0  0  0  0  0
  -23.5906  -31.9146   23.7934 O   0  0  0  0  0  0  0  0  0  0  0  0
  -28.2531  -17.8670   21.7565 O   0  0  0  0  0  0  0  0  0  0  0  0
  -21.1597   -7.8639   22.3692 O   0  0  0  0  0  0  0  0  0  0  0  0
  -23.5890  -25.8094   20.3597 O   0  0  0  0  0  0  0  0  0  1  0  0
  -22.3736   -2.8196   24.2361 F   0  0  0  0  0  0  0  0  0  0  0  0
  -22.4048  -19.6718   19.2981 F   0  0  0  0  0  0  0  0  0  0  0  0
  -20.7820   -7.2066   25.0278 F   0  0  0  0  0  0  0  0  0  0  0  0
  1  2  1  0  0  0  0
  1  5  2  0  0  0  0
  2  6  2  0  0  0  0
  3 10  2  0  0  0  0
  3 18  1  0  0  0  0
  4 11  1  0  0  0  0
  4 18  2  0  0  0  0
  5 20  1  0  0  0  0
  6 22  1  0  0  0  0
  7 12  2  0  0  0  0
  7 21  1  0  0  0  0
  8  9  2  0  0  0  0
  8 24  1  0  0  0  0
  9 25  1  0  0  0  0
 10 26  1  0  0  0  0
 11 26  2  0  0  0  0
 12 27  1  0  0  0  0
 13 14  2  0  0  0  0
 13 28  1  0  0  0  0
 14 29  1  0  0  0  0
 15 23  1  0  0  0  0
 15 27  2  0  0  0  0
 16 25  2  0  0  0  0
 16 30  1  0  0  0  0
 17 29  2  0  0  0  0
 17 31  1  0  0  0  0
 18 32  1  0  0  0  0
 19 32  1  0  0  0  0
 19 33  2  0  0  0  0
 19 35  1  0  0  0  0
 20 22  2  0  0  0  0
 20 40  1  0  0  0  0
 21 23  2  0  0  0  0
 21 41  1  0  0  0  0
 22 52  1  0  0  0  0
 23 42  1  0  0  0  0
 24 30  2  0  0  0  0
 24 67  1  0  0  0  0
 25 72  1  0  0  0  0
 26 82  1  0  0  0  0
 27 83  1  0  0  0  0
 28 31  2  0  0  0  0
 28 82  1  0  0  0  0
 29 84  1  0  0  0  0
 30 85  1  0  0  0  0
 31 86  1  0  0  0  0
 32 65  2  0  0  0  0
 33 66  1  0  0  0  0
 33 70  1  0  0  0  0
 34 53  1  0  0  0  0
 34 67  1  0  0  0  0
 34 76  2  0  0  0  0
 35 71  1  0  0  0  0
 35 77  2  0  0  0  0
 36 54  1  0  0  0  0
 36 73  1  0  0  0  0
 36 78  2  0  0  0  0
 37 62  1  0  0  0  0
 37 68  1  0  0  0  0
 37 79  2  0  0  0  0
 38 63  1  0  0  0  0
 38 74  1  0  0  0  0
 38 80  2  0  0  0  0
 39 69  1  0  0  0  0
 39 72  1  0  0  0  0
 39 81  2  0  0  0  0
 40 43  1  0  0  0  0
 41 54  1  0  0  0  0
 42 68  1  0  0  0  0
 43 46  1  0  0  0  0
 44 47  1  0  0  0  0
 44 49  1  0  0  0  0
 45 48  1  0  0  0  0
 45 50  1  0  0  0  0
 46 52  1  0  0  0  0
 47 53  1  0  0  0  0
 48 55  1  0  0  0  0
 49 67  1  0  0  0  0
 50 69  1  0  0  0  0
 51 55  1  0  0  0  0
 51 69  1  0  0  0  0
 52 73  1  0  0  0  0
 53 61  1  0  0  0  0
 54 68  1  0  0  0  0
 55 66  1  0  0  0  0
 56 63  1  0  0  0  0
 57 64  1  0  0  0  0
 58 64  1  0  0  0  0
 59 64  1  0  0  0  0
 60 75  1  0  0  0  0
 61 83  1  0  0  0  0
 62 64  1  0  0  0  0
 62 74  1  0  0  0  0
 63 75  1  0  0  0  0
 65 66  1  0  0  0  0
M  CHG  1  75   1
M  ISO  4  39 100  61 101  72 100  83 101
M  END
> <Batch ID>
0023

> <Smiles>
CNC(C)C(=O)NC(C(=O)N1Cc2cc([101O:1][101CH2:1]C3CCCN(c4ccc([100NH:0][100C:0](=O)N5CCCC(n6nc(-c7ccc(Oc8ccc(F)cc8F)cc7)c(C(N)=O)c6N)C5)cc4F)C3=O)ccc2CC1C(=O)NC1CCCc2ccccc21)C(C)(C)C

> <Shape>
0.247

> <Color>
0.088

> <Negative vol penalty>
0.000

$$$$

  -OEChem-04042321173D

 86 95  0     1  0  0  0  0  0999 V2000
  -15.7694  -24.0014   21.2755 C   0  0  0  0  0  0  0  0  0  0  0  0
  -16.4765  -24.0024   22.4736 C   0  0  0  0  0  0  0  0  0  0  0  0
  -25.5154  -14.2977   20.8466 C   0  0  0  0  0  0  0  0  0  0  0  0
  -25.8080  -14.2773   18.4485 C   0  0  0  0  0  0  0  0  0  0  0  0
  -16.4380  -24.2249   20.0726 C   0  0  0  0  0  0  0  0  0  0  0  0
  -17.8529  -24.2257   22.4694 C   0  0  0  0  0  0  0  0  0  0  0  0
  -21.1177  -27.1711   26.7322 C   0  0  0  0  0  0  0  0  0  0  0  0
  -25.5334  -23.4932   26.0742 C   0  0  0  0  0  0  0  0  0  0  0  0
  -25.7676  -22.9368   24.8168 C   0  0  0  0  0  0  0  0  0  0  0  0
  -24.6247  -13.2289   20.7470 C   0  0  0  0  0  0  0  0  0  0  0  0
  -24.9173  -13.2085   18.3489 C   0  0  0  0  0  0  0  0  0  0  0  0
  -21.8904  -26.7185   27.8007 C   0  0  0  0  0  0  0  0  0  0  0  0
  -24.7923   -9.8759   20.3446 C   0  0  0  0  0  0  0  0  0  0  0  0
  -24.9376   -8.8245   21.2496 C   0  0  0  0  0  0  0  0  0  0  0  0
  -23.8696  -26.8831   26.4314 C   0  0  0  0  0  0  0  0  0  0  0  0
  -27.9066  -22.1125   25.5800 C   0  0  0  0  0  0  0  0  0  0  0  0
  -22.6979   -9.2174   22.0658 C   0  0  0  0  0  0  0  0  0  0  0  0
  -26.1071  -14.8219   19.6973 C   0  0  0  0  0  0  0  0  0  0  0  0
  -28.4225  -15.8573   19.9701 C   0  0  0  0  0  0  0  0  0  0  0  0
  -17.8218  -24.4607   20.0546 C   0  0  0  0  0  0  0  0  0  0  0  0
  -21.7147  -27.4733   25.4998 C   0  0  0  0  0  0  0  0  0  0  0  0
  -18.5409  -24.4512   21.2650 C   0  0  0  0  0  0  0  0  0  0  0  0
  -23.1026  -27.3419   25.3496 C   0  0  0  0  0  0  0  0  0  0  0  0
  -26.4858  -23.3594   27.0845 C   0  0  0  0  0  0  0  0  0  0  0  0
  -26.9541  -22.2464   24.5697 C   0  0  0  0  0  0  0  0  0  0  0  0
  -24.3257  -12.6843   19.4982 C   0  0  0  0  0  0  0  0  0  0  0  0
  -23.2662  -26.5717   27.6496 C   0  0  0  0  0  0  0  0  0  0  0  0
  -23.5998  -10.5981   20.3003 C   0  0  0  0  0  0  0  0  0  0  0  0
  -23.8904   -8.4952   22.1102 C   0  0  0  0  0  0  0  0  0  0  0  0
  -27.6724  -22.6690   26.8374 C   0  0  0  0  0  0  0  0  0  0  0  0
  -22.5526  -10.2689   21.1608 C   0  0  0  0  0  0  0  0  0  0  0  0
  -27.0268  -15.9264   19.7994 C   0  0  0  0  0  0  0  0  0  0  0  0
  -28.8291  -17.1687   20.0077 C   0  0  0  0  0  0  0  0  0  0  0  0
  -29.2752  -14.7104   20.0843 C   0  0  0  0  0  0  0  0  0  0  0  0
  -21.4465  -26.3441   22.5406 C   0  0  0  0  0  0  0  0  0  0  0  0
  -23.4249  -28.8161   21.8351 C   0  0  0  0  0  0  0  0  0  0  0  0
  -25.7875  -31.0331   22.9074 C   0  0  0  0  0  0  0  0  0  0  0  0
  -26.6583  -22.2512   22.0983 C   0  0  0  0  0  0  0  0  0  0  0  0
  -18.5085  -24.6503   18.7253 C   0  0  0  0  0  0  0  0  0  0  0  0
  -20.8708  -27.9860   24.3651 C   0  0  0  0  0  0  0  0  0  0  0  0
  -23.7947  -27.6723   24.0533 C   0  0  0  0  0  0  0  0  0  0  0  0
  -19.9070  -25.2509   18.8424 C   0  0  0  0  0  0  0  0  0  0  0  0
  -26.9269  -21.4673   18.5034 C   0  0  0  0  0  0  0  0  0  0  0  0
  -24.9028  -22.1987   31.1773 C   0  0  0  0  0  0  0  0  0  0  0  0
  -20.7019  -24.5437   19.9356 C   0  0  0  0  0  0  0  0  0  0  0  0
  -27.0432  -19.9440   18.4948 C   0  0  0  0  0  0  0  0  0  0  0  0
  -23.8852  -23.3217   31.2089 C   0  0  0  0  0  0  0  0  0  0  0  0
  -26.1190  -21.9674   19.6972 C   0  0  0  0  0  0  0  0  0  0  0  0
  -26.7458  -19.9601   21.0041 C   0  0  0  0  0  0  0  0  0  0  0  0
  -25.2024  -22.0281   29.7005 C   0  0  0  0  0  0  0  0  0  0  0  0
  -20.0307  -24.7143   21.3038 C   0  0  1  0  0  0  0  0  0  0  0  0
  -21.5145  -27.7736   22.9984 C   0  0  1  0  0  0  0  0  0  0  0  0
  -27.5908  -19.4280   19.8368 C   0  0  1  0  0  0  0  0  0  0  0  0
  -24.4417  -24.3072   30.1921 C   0  0  2  0  0  0  0  0  0  0  0  0
  -27.2448  -32.9065   22.0926 C   0  0  0  0  0  0  0  0  0  0  0  0
  -25.2675  -26.7927   20.4857 C   0  0  0  0  0  0  0  0  0  0  0  0
  -27.0855  -28.5130   20.5456 C   0  0  0  0  0  0  0  0  0  0  0  0
  -25.0006  -28.9489   19.2471 C   0  0  0  0  0  0  0  0  0  0  0  0
  -28.2120  -20.6201   23.1450 C   0  0  0  0  0  0  0  0  0  0  0  0
  -24.5443  -32.9660   24.7722 C   0  0  0  0  0  0  0  0  0  0  0  0
  -26.2291  -23.9578   28.4362 C   0  0  0  0  0  0  0  0  0  0  0  0
  -23.3958  -25.2462   29.6199 C   0  0  0  0  0  0  0  0  0  1  0  0
  -24.9216  -29.0036   21.7735 C   0  0  1  0  0  0  0  0  0  0  0  0
  -25.9141  -32.5352   22.7285 C   0  0  2  0  0  0  0  0  0  0  0  0
  -25.5558  -28.3064   20.5370 C   0  0  0  0  0  0  0  0  0  0  0  0
  -26.5769  -17.1822   19.7333 N   0  0  0  0  0  0  0  0  0  0  0  0
  -27.6963  -17.9145   19.8633 N   0  0  0  0  0  0  0  0  0  0  0  0
  -22.9256  -28.1639   22.9714 N   0  0  0  0  0  0  0  0  0  0  0  0
  -26.6324  -21.4260   20.9561 N   0  0  0  0  0  0  0  0  0  0  0  0
  -30.0415  -17.7452   20.1500 N   0  0  0  0  0  0  0  0  0  0  0  0
  -28.6933  -13.4367   20.0249 N   0  0  0  0  0  0  0  0  0  0  0  0
  -20.2985  -26.0326   21.8373 N   0  0  0  0  0  0  0  0  0  0  0  0
  -25.1555  -30.4423   21.8337 N   0  0  0  0  0  0  0  0  0  0  0  0
  -27.1975  -21.6721   23.2675 N   0  0  0  0  0  0  0  0  0  0  0  0
  -25.0021  -23.4086   29.0980 N   0  3  1  0  0  0  0  0  0  0  0  0
  -25.8145  -33.2241   24.0462 N   0  3  0  0  0  0  0  0  0  0  0  0
  -30.5143  -14.8121   20.2511 O   0  0  0  0  0  0  0  0  0  0  0  0
  -22.3680  -25.5807   22.8046 O   0  0  0  0  0  0  0  0  0  0  0  0
  -22.7239  -29.2392   20.9125 O   0  0  0  0  0  0  0  0  0  0  0  0
  -26.2104  -30.4423   23.8987 O   0  0  0  0  0  0  0  0  0  0  0  0
  -26.2591  -23.4213   22.0670 O   0  0  0  0  0  0  0  0  0  0  0  0
  -23.4568  -11.6412   19.4007 O   0  0  0  0  0  0  0  0  0  0  0  0
  -24.0226  -26.1294   28.6907 O   0  0  0  0  0  0  0  0  0  1  0  0
  -24.0296   -7.4845   22.9781 F   0  0  0  0  0  0  0  0  0  0  0  0
  -28.5934  -22.5351   27.8018 F   0  0  0  0  0  0  0  0  0  0  0  0
  -21.4041  -10.9583   21.1220 F   0  0  0  0  0  0  0  0  0  0  0  0
  1  2  1  0  0  0  0
  1  5  2  0  0  0  0
  2  6  2  0  0  0  0
  3 10  2  0  0  0  0
  3 18  1  0  0  0  0
  4 11  1  0  0  0  0
  4 18  2  0  0  0  0
  5 20  1  0  0  0  0
  6 22  1  0  0  0  0
  7 12  2  0  0  0  0
  7 21  1  0  0  0  0
  8  9  2  0  0  0  0
  8 24  1  0  0  0  0
  9 25  1  0  0  0  0
 10 26  1  0  0  0  0
 11 26  2  0  0  0  0
 12 27  1  0  0  0  0
 13 14  2  0  0  0  0
 13 28  1  0  0  0  0
 14 29  1  0  0  0  0
 15 23  1  0  0  0  0
 15 27  2  0  0  0  0
 16 25  2  0  0  0  0
 16 30  1  0  0  0  0
 17 29  2  0  0  0  0
 17 31  1  0  0  0  0
 18 32  1  0  0  0  0
 19 32  1  0  0  0  0
 19 33  2  0  0  0  0
 19 34  1  0  0  0  0
 20 22  2  0  0  0  0
 20 39  1  0  0  0  0
 21 23  2  0  0  0  0
 21 40  1  0  0  0  0
 22 51  1  0  0  0  0
 23 41  1  0  0  0  0
 24 30  2  0  0  0  0
 24 61  1  0  0  0  0
 25 74  1  0  0  0  0
 26 82  1  0  0  0  0
 27 83  1  0  0  0  0
 28 31  2  0  0  0  0
 28 82  1  0  0  0  0
 29 84  1  0  0  0  0
 30 85  1  0  0  0  0
 31 86  1  0  0  0  0
 32 66  2  0  0  0  0
 33 67  1  0  0  0  0
 33 70  1  0  0  0  0
 34 71  1  0  0  0  0
 34 77  2  0  0  0  0
 35 52  1  0  0  0  0
 35 72  1  0  0  0  0
 35 78  2  0  0  0  0
 36 63  1  0  0  0  0
 36 68  1  0  0  0  0
 36 79  2  0  0  0  0
 37 64  1  0  0  0  0
 37 73  1  0  0  0  0
 37 80  2  0  0  0  0
 38 69  1  0  0  0  0
 38 74  1  0  0  0  0
 38 81  2  0  0  0  0
 39 42  1  0  0  0  0
 40 52  1  0  0  0  0
 41 68  1  0  0  0  0
 42 45  1  0  0  0  0
 43 46  1  0  0  0  0
 43 48  1  0  0  0  0
 44 47  1  0  0  0  0
 44 50  1  0  0  0  0
 45 51  1  0  0  0  0
 46 53  1  0  0  0  0
 47 54  1  0  0  0  0
 48 69  1  0  0  0  0
 49 53  1  0  0  0  0
 49 69  1  0  0  0  0
 50 75  1  0  0  0  0
 51 72  1  0  0  0  0
 52 68  1  0  0  0  0
 53 67  1  0  0  0  0
 54 62  1  0  0  0  0
 54 75  1  0  0  0  0
 55 64  1  0  0  0  0
 56 65  1  0  0  0  0
 57 65  1  0  0  0  0
 58 65  1  0  0  0  0
 59 74  1  0  0  0  0
 60 76  1  0  0  0  0
 61 75  1  0  0  0  0
 62 83  1  0  0  0  0
 63 65  1  0  0  0  0
 63 73  1  0  0  0  0
 64 76  1  0  0  0  0
 66 67  1  0  0  0  0
M  CHG  2  75   1  76   1
M  ISO  4  38 100  62 101  74 100  83 101
M  END
> <Batch ID>
0023

> <Smiles>
CNC(C)C(=O)NC(C(=O)N1Cc2cc([101O:1][101CH2:1]C3CCCN3Cc3ccc([100N:0](C)[100C:0](=O)N4CCCC(n5nc(-c6ccc(Oc7ccc(F)cc7F)cc6)c(C(N)=O)c5N)C4)cc3F)ccc2CC1C(=O)NC1CCCc2ccccc21)C(C)(C)C

> <Shape>
0.208

> <Color>
0.045

> <Negative vol penalty>
0.000

$$$$

  -OEChem-04042321173D

 85 94  0     1  0  0  0  0  0999 V2000
  -29.0342  -35.9617   19.6765 C   0  0  0  0  0  0  0  0  0  0  0  0
  -29.1873  -34.5913   19.8609 C   0  0  0  0  0  0  0  0  0  0  0  0
  -26.0247  -11.9482   21.0885 C   0  0  0  0  0  0  0  0  0  0  0  0
  -25.7003  -13.8761   19.6689 C   0  0  0  0  0  0  0  0  0  0  0  0
  -28.0777  -36.6603   20.4119 C   0  0  0  0  0  0  0  0  0  0  0  0
  -28.3846  -33.9189   20.7818 C   0  0  0  0  0  0  0  0  0  0  0  0
  -26.5635  -29.5613   18.9542 C   0  0  0  0  0  0  0  0  0  0  0  0
  -31.0018  -21.3259   19.2387 C   0  0  0  0  0  0  0  0  0  0  0  0
  -31.1070  -19.9474   19.4238 C   0  0  0  0  0  0  0  0  0  0  0  0
  -24.6545  -11.9075   21.3464 C   0  0  0  0  0  0  0  0  0  0  0  0
  -24.3301  -13.8354   19.9268 C   0  0  0  0  0  0  0  0  0  0  0  0
  -27.4315  -28.4707   18.9254 C   0  0  0  0  0  0  0  0  0  0  0  0
  -21.8550  -10.8426   19.7773 C   0  0  0  0  0  0  0  0  0  0  0  0
  -21.2212   -9.6014   19.7202 C   0  0  0  0  0  0  0  0  0  0  0  0
  -26.4192  -27.6195   20.9428 C   0  0  0  0  0  0  0  0  0  0  0  0
  -32.4299  -20.3153   21.4117 C   0  0  0  0  0  0  0  0  0  0  0  0
  -20.5593   -9.8330   22.0322 C   0  0  0  0  0  0  0  0  0  0  0  0
  -26.5476  -12.9325   20.2498 C   0  0  0  0  0  0  0  0  0  0  0  0
  -28.6522  -12.3250   18.9424 C   0  0  0  0  0  0  0  0  0  0  0  0
  -27.2562  -35.9944   21.3352 C   0  0  0  0  0  0  0  0  0  0  0  0
  -25.6225  -29.6951   19.9853 C   0  0  0  0  0  0  0  0  0  0  0  0
  -27.4170  -34.6095   21.5312 C   0  0  0  0  0  0  0  0  0  0  0  0
  -25.5387  -28.7114   20.9810 C   0  0  0  0  0  0  0  0  0  0  0  0
  -31.6107  -22.1991   20.1401 C   0  0  0  0  0  0  0  0  0  0  0  0
  -31.8210  -19.4421   20.5103 C   0  0  0  0  0  0  0  0  0  0  0  0
  -23.8072  -12.8511   20.7655 C   0  0  0  0  0  0  0  0  0  0  0  0
  -27.3614  -27.5010   19.9214 C   0  0  0  0  0  0  0  0  0  0  0  0
  -21.8410  -11.5790   20.9619 C   0  0  0  0  0  0  0  0  0  0  0  0
  -20.5733   -9.0966   20.8476 C   0  0  0  0  0  0  0  0  0  0  0  0
  -21.1931  -11.0743   22.0893 C   0  0  0  0  0  0  0  0  0  0  0  0
  -32.3247  -21.6938   21.2266 C   0  0  0  0  0  0  0  0  0  0  0  0
  -27.9630  -12.9754   19.9835 C   0  0  0  0  0  0  0  0  0  0  0  0
  -29.9660  -12.6816   19.1251 C   0  0  0  0  0  0  0  0  0  0  0  0
  -32.5323  -24.5188   19.7144 C   0  0  0  0  0  0  0  0  0  0  0  0
  -28.1498  -11.4747   17.9031 C   0  0  0  0  0  0  0  0  0  0  0  0
  -25.0939  -31.8344   22.2760 C   0  0  0  0  0  0  0  0  0  0  0  0
  -22.4505  -30.0320   22.8106 C   0  0  0  0  0  0  0  0  0  0  0  0
  -20.9029  -27.0035   22.5272 C   0  0  0  0  0  0  0  0  0  0  0  0
  -32.5986  -17.3751   21.7224 C   0  0  0  0  0  0  0  0  0  0  0  0
  -26.2685  -36.8003   22.1412 C   0  0  0  0  0  0  0  0  0  0  0  0
  -24.6754  -30.8636   19.9873 C   0  0  0  0  0  0  0  0  0  0  0  0
  -24.5327  -28.7980   22.0986 C   0  0  0  0  0  0  0  0  0  0  0  0
  -31.9069  -25.8652   19.4297 C   0  0  0  0  0  0  0  0  0  0  0  0
  -25.2021  -35.9488   22.8254 C   0  0  0  0  0  0  0  0  0  0  0  0
  -33.0615  -13.9442   22.5541 C   0  0  0  0  0  0  0  0  0  0  0  0
  -25.8402  -34.7477   23.5161 C   0  0  0  0  0  0  0  0  0  0  0  0
  -31.8726  -13.2464   21.8895 C   0  0  0  0  0  0  0  0  0  0  0  0
  -32.6770  -15.3145   23.1091 C   0  0  0  0  0  0  0  0  0  0  0  0
  -30.1909  -24.2530   19.8087 C   0  0  0  0  0  0  0  0  0  0  0  0
  -30.8375  -15.5158   21.4827 C   0  0  0  0  0  0  0  0  0  0  0  0
  -26.5483  -33.8405   22.5027 C   0  0  1  0  0  0  0  0  0  0  0  0
  -24.1013  -31.1650   21.3682 C   0  0  1  0  0  0  0  0  0  0  0  0
  -30.4990  -25.7312   19.9921 C   0  0  2  0  0  0  0  0  0  0  0  0
  -31.1917  -14.1596   20.8512 C   0  0  2  0  0  0  0  0  0  0  0  0
  -18.7596  -25.8262   23.0906 C   0  0  0  0  0  0  0  0  0  0  0  0
  -23.3296  -29.8315   25.7256 C   0  0  0  0  0  0  0  0  0  0  0  0
  -21.7344  -27.9218   26.0027 C   0  0  0  0  0  0  0  0  0  0  0  0
  -20.8756  -30.1844   25.3980 C   0  0  0  0  0  0  0  0  0  0  0  0
  -20.3137  -26.4659   19.6772 C   0  0  0  0  0  0  0  0  0  0  0  0
  -29.4924  -26.6409   19.3093 C   0  0  0  0  0  0  0  0  0  1  0  0
  -22.1303  -28.8322   23.6691 C   0  0  1  0  0  0  0  0  0  0  0  0
  -19.5169  -26.6223   22.0392 C   0  0  2  0  0  0  0  0  0  0  0  0
  -22.0378  -29.1916   25.1790 C   0  0  0  0  0  0  0  0  0  0  0  0
  -28.7720  -13.6908   20.7694 N   0  0  0  0  0  0  0  0  0  0  0  0
  -29.9832  -13.4921   20.2220 N   0  0  0  0  0  0  0  0  0  0  0  0
  -31.4833  -23.6034   19.9211 N   0  0  0  0  0  0  0  0  0  0  0  0
  -23.6328  -29.9626   22.0603 N   0  0  0  0  0  0  0  0  0  0  0  0
  -32.0415  -16.1259   22.0686 N   0  0  0  0  0  0  0  0  0  0  0  0
  -31.0966  -12.3778   18.4530 N   0  0  0  0  0  0  0  0  0  0  0  0
  -26.7738  -11.2117   17.8617 N   0  0  0  0  0  0  0  0  0  0  0  0
  -31.9275  -18.0416   20.6977 N   0  0  0  0  0  0  0  0  0  0  0  0
  -25.5841  -33.0310   21.7889 N   0  0  0  0  0  0  0  0  0  0  0  0
  -20.9117  -28.2494   23.1179 N   0  0  0  0  0  0  0  0  0  0  0  0
  -19.6122  -25.7962   20.8025 N   0  3  0  0  0  0  0  0  0  0  0  0
  -33.7412  -24.3385   19.6886 O   0  0  0  0  0  0  0  0  0  0  0  0
  -28.9012  -10.9499   17.0466 O   0  0  0  0  0  0  0  0  0  0  0  0
  -25.3919  -31.3052   23.3404 O   0  0  0  0  0  0  0  0  0  0  0  0
  -21.6763  -30.9923   22.8005 O   0  0  0  0  0  0  0  0  0  0  0  0
  -21.8794  -26.2679   22.4006 O   0  0  0  0  0  0  0  0  0  0  0  0
  -33.6133  -17.8084   22.2743 O   0  0  0  0  0  0  0  0  0  0  0  0
  -22.4701  -12.8115   21.0167 O   0  0  0  0  0  0  0  0  0  0  0  0
  -28.2079  -26.4358   19.8960 O   0  0  0  0  0  0  0  0  0  1  0  0
  -19.9634   -7.9053   20.7922 F   0  0  0  0  0  0  0  0  0  0  0  0
  -21.1753  -11.7777   23.2298 F   0  0  0  0  0  0  0  0  0  0  0  0
  -33.0940  -22.7396   22.3666 Cl  0  0  0  0  0  0  0  0  0  0  0  0
  1  2  1  0  0  0  0
  1  5  2  0  0  0  0
  2  6  2  0  0  0  0
  3 10  2  0  0  0  0
  3 18  1  0  0  0  0
  4 11  1  0  0  0  0
  4 18  2  0  0  0  0
  5 20  1  0  0  0  0
  6 22  1  0  0  0  0
  7 12  2  0  0  0  0
  7 21  1  0  0  0  0
  8  9  2  0  0  0  0
  8 24  1  0  0  0  0
  9 25  1  0  0  0  0
 10 26  1  0  0  0  0
 11 26  2  0  0  0  0
 12 27  1  0  0  0  0
 13 14  2  0  0  0  0
 13 28  1  0  0  0  0
 14 29  1  0  0  0  0
 15 23  1  0  0  0  0
 15 27  2  0  0  0  0
 16 25  2  0  0  0  0
 16 31  1  0  0  0  0
 17 29  2  0  0  0  0
 17 30  1  0  0  0  0
 18 32  1  0  0  0  0
 19 32  1  0  0  0  0
 19 33  2  0  0  0  0
 19 35  1  0  0  0  0
 20 22  2  0  0  0  0
 20 40  1  0  0  0  0
 21 23  2  0  0  0  0
 21 41  1  0  0  0  0
 22 51  1  0  0  0  0
 23 42  1  0  0  0  0
 24 31  2  0  0  0  0
 24 66  1  0  0  0  0
 25 71  1  0  0  0  0
 26 81  1  0  0  0  0
 27 82  1  0  0  0  0
 28 30  2  0  0  0  0
 28 81  1  0  0  0  0
 29 83  1  0  0  0  0
 30 84  1  0  0  0  0
 31 85  1  0  0  0  0
 32 64  2  0  0  0  0
 33 65  1  0  0  0  0
 33 69  1  0  0  0  0
 34 43  1  0  0  0  0
 34 66  1  0  0  0  0
 34 75  2  0  0  0  0
 35 70  1  0  0  0  0
 35 76  2  0  0  0  0
 36 52  1  0  0  0  0
 36 72  1  0  0  0  0
 36 77  2  0  0  0  0
 37 61  1  0  0  0  0
 37 67  1  0  0  0  0
 37 78  2  0  0  0  0
 38 62  1  0  0  0  0
 38 73  1  0  0  0  0
 38 79  2  0  0  0  0
 39 68  1  0  0  0  0
 39 71  1  0  0  0  0
 39 80  2  0  0  0  0
 40 44  1  0  0  0  0
 41 52  1  0  0  0  0
 42 67  1  0  0  0  0
 43 53  1  0  0  0  0
 44 46  1  0  0  0  0
 45 47  1  0  0  0  0
 45 48  1  0  0  0  0
 46 51  1  0  0  0  0
 47 54  1  0  0  0  0
 48 68  1  0  0  0  0
 49 53  1  0  0  0  0
 49 66  1  0  0  0  0
 50 54  1  0  0  0  0
 50 68  1  0  0  0  0
 51 72  1  0  0  0  0
 52 67  1  0  0  0  0
 53 60  1  0  0  0  0
 54 65  1  0  0  0  0
 55 62  1  0  0  0  0
 56 63  1  0  0  0  0
 57 63  1  0  0  0  0
 58 63  1  0  0  0  0
 59 74  1  0  0  0  0
 60 82  1  0  0  0  0
 61 63  1  0  0  0  0
 61 73  1  0  0  0  0
 62 74  1  0  0  0  0
 64 65  1  0  0  0  0
M  CHG  1  74   1
M  ISO  4  39 100  60 101  71 100  82 101
M  END
> <Batch ID>
0023

> <Smiles>
CNC(C)C(=O)NC(C(=O)N1Cc2cc([101O:1][101CH2:1]C3CC(=O)N(c4ccc([100NH:0][100C:0](=O)N5CCCC(n6nc(-c7ccc(Oc8ccc(F)cc8F)cc7)c(C(N)=O)c6N)C5)cc4Cl)C3)ccc2CC1C(=O)NC1CCCc2ccccc21)C(C)(C)C

> <Shape>
0.306

> <Color>
0.087

> <Negative vol penalty>
0.000

$$$$

  -OEChem-04042321173D

 84 92  0     1  0  0  0  0  0999 V2000
  -29.9359  -33.7495   25.4867 C   0  0  0  0  0  0  0  0  0  0  0  0
  -30.4563  -33.0254   24.4189 C   0  0  0  0  0  0  0  0  0  0  0  0
  -23.0970   -9.8588   19.8893 C   0  0  0  0  0  0  0  0  0  0  0  0
  -24.2459   -9.6351   22.0028 C   0  0  0  0  0  0  0  0  0  0  0  0
  -28.8092  -33.2816   26.1616 C   0  0  0  0  0  0  0  0  0  0  0  0
  -29.8509  -31.8322   24.0261 C   0  0  0  0  0  0  0  0  0  0  0  0
  -28.5562  -27.8862   18.1892 C   0  0  0  0  0  0  0  0  0  0  0  0
  -22.4886   -8.6195   20.0888 C   0  0  0  0  0  0  0  0  0  0  0  0
  -23.6375   -8.3959   22.2024 C   0  0  0  0  0  0  0  0  0  0  0  0
  -28.7132  -26.5858   17.7117 C   0  0  0  0  0  0  0  0  0  0  0  0
  -20.6273   -7.2337   23.2064 C   0  0  0  0  0  0  0  0  0  0  0  0
  -20.0924   -6.9717   24.4677 C   0  0  0  0  0  0  0  0  0  0  0  0
  -26.7244  -25.9153   18.9009 C   0  0  0  0  0  0  0  0  0  0  0  0
  -28.5612  -19.1001   21.0848 C   0  0  0  0  0  0  0  0  0  0  0  0
  -29.2750  -19.6516   18.4449 C   0  0  0  0  0  0  0  0  0  0  0  0
  -21.5725   -5.0765   24.7016 C   0  0  0  0  0  0  0  0  0  0  0  0
  -23.9757  -10.3665   20.8462 C   0  0  0  0  0  0  0  0  0  0  0  0
  -24.1189  -12.9063   21.0381 C   0  0  0  0  0  0  0  0  0  0  0  0
  -28.1839  -32.0871   25.7708 C   0  0  0  0  0  0  0  0  0  0  0  0
  -27.4864  -28.2090   19.0364 C   0  0  0  0  0  0  0  0  0  0  0  0
  -28.7156  -31.3472   24.6973 C   0  0  0  0  0  0  0  0  0  0  0  0
  -26.5546  -27.2212   19.3858 C   0  0  0  0  0  0  0  0  0  0  0  0
  -28.8782  -18.0563   20.2155 C   0  0  0  0  0  0  0  0  0  0  0  0
  -28.9580  -20.6953   19.3143 C   0  0  0  0  0  0  0  0  0  0  0  0
  -22.7588   -7.8881   21.2454 C   0  0  0  0  0  0  0  0  0  0  0  0
  -27.7989  -25.5995   18.0698 C   0  0  0  0  0  0  0  0  0  0  0  0
  -21.6347   -6.4171   22.6926 C   0  0  0  0  0  0  0  0  0  0  0  0
  -20.5650   -5.8931   25.2153 C   0  0  0  0  0  0  0  0  0  0  0  0
  -28.6011  -20.4196   20.6342 C   0  0  0  0  0  0  0  0  0  0  0  0
  -22.1073   -5.3385   23.4403 C   0  0  0  0  0  0  0  0  0  0  0  0
  -29.2351  -18.3321   18.8956 C   0  0  0  0  0  0  0  0  0  0  0  0
  -24.6049  -11.6463   20.6404 C   0  0  0  0  0  0  0  0  0  0  0  0
  -25.0768  -13.7938   20.6122 C   0  0  0  0  0  0  0  0  0  0  0  0
  -22.9099  -13.2442   21.7306 C   0  0  0  0  0  0  0  0  0  0  0  0
  -27.2308  -29.2810   22.0179 C   0  0  0  0  0  0  0  0  0  0  0  0
  -24.0764  -29.4366   21.2775 C   0  0  0  0  0  0  0  0  0  0  0  0
  -21.4968  -28.3233   19.3402 C   0  0  0  0  0  0  0  0  0  0  0  0
  -30.6426  -14.9302   20.3952 C   0  0  0  0  0  0  0  0  0  0  0  0
  -26.9964  -31.5971   26.5609 C   0  0  0  0  0  0  0  0  0  0  0  0
  -27.3160  -29.6225   19.5215 C   0  0  0  0  0  0  0  0  0  0  0  0
  -25.3774  -27.5208   20.2763 C   0  0  0  0  0  0  0  0  0  0  0  0
  -26.1917  -30.5162   25.8436 C   0  0  0  0  0  0  0  0  0  0  0  0
  -29.0489  -13.1643   17.5592 C   0  0  0  0  0  0  0  0  0  0  0  0
  -27.1212  -29.4545   25.2644 C   0  0  0  0  0  0  0  0  0  0  0  0
  -27.7442  -12.6587   18.1724 C   0  0  0  0  0  0  0  0  0  0  0  0
  -30.1507  -13.3037   18.6052 C   0  0  0  0  0  0  0  0  0  0  0  0
  -28.4668  -13.6423   20.3839 C   0  0  0  0  0  0  0  0  0  0  0  0
  -28.0722  -30.0612   24.2256 C   0  0  1  0  0  0  0  0  0  0  0  0
  -26.4794  -29.7210   20.7934 C   0  0  1  0  0  0  0  0  0  0  0  0
  -27.3226  -13.5351   19.3647 C   0  0  2  0  0  0  0  0  0  0  0  0
  -19.0277  -28.6079   18.9942 C   0  0  0  0  0  0  0  0  0  0  0  0
  -23.5366  -27.7648   23.7723 C   0  0  0  0  0  0  0  0  0  0  0  0
  -21.2492  -27.2882   22.8730 C   0  0  0  0  0  0  0  0  0  0  0  0
  -21.9172  -29.6335   23.3982 C   0  0  0  0  0  0  0  0  0  0  0  0
  -31.0873  -17.0011   21.6575 C   0  0  0  0  0  0  0  0  0  0  0  0
  -21.8777  -29.2689   16.5618 C   0  0  0  0  0  0  0  0  0  0  0  0
  -28.8246  -16.6566   20.7371 C   0  0  0  0  0  0  0  0  0  0  0  0
  -29.3552  -22.3778   17.5150 C   0  0  0  0  0  0  0  0  0  0  0  0
  -29.2820  -23.8863   17.3477 C   0  0  0  0  0  0  0  0  0  1  0  0
  -22.9074  -28.4863   21.3745 C   0  0  1  0  0  0  0  0  0  0  0  0
  -20.4160  -29.0676   18.5772 C   0  0  2  0  0  0  0  0  0  0  0  0
  -22.4257  -28.2868   22.8393 C   0  0  0  0  0  0  0  0  0  0  0  0
  -25.7800  -11.7224   20.0101 N   0  0  0  0  0  0  0  0  0  0  0  0
  -26.0405  -13.0408   20.0085 N   0  0  0  0  0  0  0  0  0  0  0  0
  -25.2576  -28.9163   20.7300 N   0  0  0  0  0  0  0  0  0  0  0  0
  -29.7089  -14.1052   19.7470 N   0  0  0  0  0  0  0  0  0  0  0  0
  -25.1803  -15.1370   20.6989 N   0  0  0  0  0  0  0  0  0  0  0  0
  -22.0370  -12.2099   22.0948 N   0  0  0  0  0  0  0  0  0  0  0  0
  -28.9974  -22.0047   18.8644 N   0  0  0  0  0  0  0  0  0  0  0  0
  -27.3827  -30.2704   22.9705 N   0  0  0  0  0  0  0  0  0  0  0  0
  -21.8835  -29.0057   20.4743 N   0  0  0  0  0  0  0  0  0  0  0  0
  -30.1561  -16.1073   20.9837 N   0  0  0  0  0  0  0  0  0  0  0  0
  -20.5661  -28.8400   17.1120 N   0  3  0  0  0  0  0  0  0  0  0  0
  -22.6044  -14.4299   22.0034 O   0  0  0  0  0  0  0  0  0  0  0  0
  -27.6410  -28.1288   22.0935 O   0  0  0  0  0  0  0  0  0  0  0  0
  -23.9441  -30.5997   21.6665 O   0  0  0  0  0  0  0  0  0  0  0  0
  -21.9500  -27.2427   18.9694 O   0  0  0  0  0  0  0  0  0  0  0  0
  -31.8443  -14.6364   20.4369 O   0  0  0  0  0  0  0  0  0  0  0  0
  -22.1652   -6.6790   21.4406 O   0  0  0  0  0  0  0  0  0  0  0  0
  -27.9502  -24.3292   17.6056 O   0  0  0  0  0  0  0  0  0  1  0  0
  -20.0524   -5.6425   26.4272 F   0  0  0  0  0  0  0  0  0  0  0  0
  -28.2937  -21.4147   21.4783 F   0  0  0  0  0  0  0  0  0  0  0  0
  -23.0758   -4.5512   22.9525 F   0  0  0  0  0  0  0  0  0  0  0  0
  -29.6332  -17.0665   17.7913 Cl  0  0  0  0  0  0  0  0  0  0  0  0
  1  2  1  0  0  0  0
  1  5  2  0  0  0  0
  2  6  2  0  0  0  0
  3  8  2  0  0  0  0
  3 17  1  0  0  0  0
  4  9  1  0  0  0  0
  4 17  2  0  0  0  0
  5 19  1  0  0  0  0
  6 21  1  0  0  0  0
  7 10  2  0  0  0  0
  7 20  1  0  0  0  0
  8 25  1  0  0  0  0
  9 25  2  0  0  0  0
 10 26  1  0  0  0  0
 11 12  2  0  0  0  0
 11 27  1  0  0  0  0
 12 28  1  0  0  0  0
 13 22  1  0  0  0  0
 13 26  2  0  0  0  0
 14 23  2  0  0  0  0
 14 29  1  0  0  0  0
 15 24  1  0  0  0  0
 15 31  2  0  0  0  0
 16 28  2  0  0  0  0
 16 30  1  0  0  0  0
 17 32  1  0  0  0  0
 18 32  1  0  0  0  0
 18 33  2  0  0  0  0
 18 34  1  0  0  0  0
 19 21  2  0  0  0  0
 19 39  1  0  0  0  0
 20 22  2  0  0  0  0
 20 40  1  0  0  0  0
 21 48  1  0  0  0  0
 22 41  1  0  0  0  0
 23 31  1  0  0  0  0
 23 57  1  0  0  0  0
 24 29  2  0  0  0  0
 24 69  1  0  0  0  0
 25 79  1  0  0  0  0
 26 80  1  0  0  0  0
 27 30  2  0  0  0  0
 27 79  1  0  0  0  0
 28 81  1  0  0  0  0
 29 82  1  0  0  0  0
 30 83  1  0  0  0  0
 31 84  1  0  0  0  0
 32 63  2  0  0  0  0
 33 64  1  0  0  0  0
 33 67  1  0  0  0  0
 34 68  1  0  0  0  0
 34 74  2  0  0  0  0
 35 49  1  0  0  0  0
 35 70  1  0  0  0  0
 35 75  2  0  0  0  0
 36 60  1  0  0  0  0
 36 65  1  0  0  0  0
 36 76  2  0  0  0  0
 37 61  1  0  0  0  0
 37 71  1  0  0  0  0
 37 77  2  0  0  0  0
 38 66  1  0  0  0  0
 38 72  1  0  0  0  0
 38 78  2  0  0  0  0
 39 42  1  0  0  0  0
 40 49  1  0  0  0  0
 41 65  1  0  0  0  0
 42 44  1  0  0  0  0
 43 45  1  0  0  0  0
 43 46  1  0  0  0  0
 44 48  1  0  0  0  0
 45 50  1  0  0  0  0
 46 66  1  0  0  0  0
 47 50  1  0  0  0  0
 47 66  1  0  0  0  0
 48 70  1  0  0  0  0
 49 65  1  0  0  0  0
 50 64  1  0  0  0  0
 51 61  1  0  0  0  0
 52 62  1  0  0  0  0
 53 62  1  0  0  0  0
 54 62  1  0  0  0  0
 55 72  1  0  0  0  0
 56 73  1  0  0  0  0
 57 72  1  0  0  0  0
 58 59  1  0  0  0  0
 58 69  1  0  0  0  0
 59 80  1  0  0  0  0
 60 62  1  0  0  0  0
 60 71  1  0  0  0  0
 61 73  1  0  0  0  0
 63 64  1  0  0  0  0
M  CHG  1  73   1
M  ISO  4  38 100  59 101  72 100  80 101
M  END
> <Batch ID>
0023

> <Smiles>
CNC(C)C(=O)NC(C(=O)N1Cc2cc([101O:1][101CH2:1]CNc3cc(Cl)c(C[100N:0](C)[100C:0](=O)N4CCCC(n5nc(-c6ccc(Oc7ccc(F)cc7F)cc6)c(C(N)=O)c5N)C4)cc3F)ccc2CC1C(=O)NC1CCCc2ccccc21)C(C)(C)C

> <Shape>
0.398

> <Color>
0.181

> <Negative vol penalty>
0.000

$$$$

  -OEChem-04042321173D

 87 96  0     1  0  0  0  0  0999 V2000
  -27.7413  -25.1536   16.1802 C   0  0  0  0  0  0  0  0  0  0  0  0
  -26.6525  -25.9214   16.5777 C   0  0  0  0  0  0  0  0  0  0  0  0
  -27.7910  -14.3979   19.6767 C   0  0  0  0  0  0  0  0  0  0  0  0
  -25.4471  -14.7406   19.2018 C   0  0  0  0  0  0  0  0  0  0  0  0
  -28.8460  -25.0302   17.0201 C   0  0  0  0  0  0  0  0  0  0  0  0
  -26.6731  -26.5756   17.8100 C   0  0  0  0  0  0  0  0  0  0  0  0
  -22.9517  -29.6462   18.7724 C   0  0  0  0  0  0  0  0  0  0  0  0
  -27.5083  -13.1155   20.1468 C   0  0  0  0  0  0  0  0  0  0  0  0
  -25.1643  -13.4582   19.6719 C   0  0  0  0  0  0  0  0  0  0  0  0
  -21.6607  -29.2011   19.0533 C   0  0  0  0  0  0  0  0  0  0  0  0
  -24.7952  -11.9265   22.6633 C   0  0  0  0  0  0  0  0  0  0  0  0
  -23.7015  -11.7752   23.5156 C   0  0  0  0  0  0  0  0  0  0  0  0
  -22.0217  -29.6509   21.3956 C   0  0  0  0  0  0  0  0  0  0  0  0
  -20.5970  -22.3587   20.7263 C   0  0  0  0  0  0  0  0  0  0  0  0
  -22.8342  -23.3981   22.0292 C   0  0  0  0  0  0  0  0  0  0  0  0
  -22.6809  -10.2579   21.9366 C   0  0  0  0  0  0  0  0  0  0  0  0
  -26.7604  -15.2105   19.2042 C   0  0  0  0  0  0  0  0  0  0  0  0
  -27.3731  -16.9060   17.3993 C   0  0  0  0  0  0  0  0  0  0  0  0
  -28.8741  -25.6734   18.2685 C   0  0  0  0  0  0  0  0  0  0  0  0
  -23.7926  -30.0875   19.8041 C   0  0  0  0  0  0  0  0  0  0  0  0
  -27.7889  -26.4828   18.6614 C   0  0  0  0  0  0  0  0  0  0  0  0
  -23.3221  -30.1036   21.1249 C   0  0  0  0  0  0  0  0  0  0  0  0
  -20.4357  -23.2735   21.7668 C   0  0  0  0  0  0  0  0  0  0  0  0
  -22.9955  -22.4833   20.9886 C   0  0  0  0  0  0  0  0  0  0  0  0
  -26.1950  -12.6456   20.1444 C   0  0  0  0  0  0  0  0  0  0  0  0
  -21.1965  -29.2007   20.3654 C   0  0  0  0  0  0  0  0  0  0  0  0
  -24.8318  -11.2436   21.4476 C   0  0  0  0  0  0  0  0  0  0  0  0
  -22.6443  -10.9409   23.1523 C   0  0  0  0  0  0  0  0  0  0  0  0
  -21.8770  -21.9635   20.3372 C   0  0  0  0  0  0  0  0  0  0  0  0
  -21.5542  -23.7933   22.4182 C   0  0  0  0  0  0  0  0  0  0  0  0
  -23.7747  -10.4092   21.0843 C   0  0  0  0  0  0  0  0  0  0  0  0
  -27.0517  -16.5356   18.7189 C   0  0  0  0  0  0  0  0  0  0  0  0
  -27.5587  -18.2656   17.4599 C   0  0  0  0  0  0  0  0  0  0  0  0
  -18.5933  -26.0898   22.9397 C   0  0  0  0  0  0  0  0  0  0  0  0
  -27.4929  -16.0939   16.2239 C   0  0  0  0  0  0  0  0  0  0  0  0
  -26.5894  -29.1384   20.9793 C   0  0  0  0  0  0  0  0  0  0  0  0
  -26.3142  -31.8345   22.7617 C   0  0  0  0  0  0  0  0  0  0  0  0
  -24.2772  -34.1962   24.1474 C   0  0  0  0  0  0  0  0  0  0  0  0
  -25.5102  -22.5054   21.1386 C   0  0  0  0  0  0  0  0  0  0  0  0
  -30.0985  -25.5122   19.1345 C   0  0  0  0  0  0  0  0  0  0  0  0
  -25.1732  -30.5897   19.4812 C   0  0  0  0  0  0  0  0  0  0  0  0
  -24.1783  -30.5866   22.2660 C   0  0  0  0  0  0  0  0  0  0  0  0
  -29.8457  -25.8731   20.5947 C   0  0  0  0  0  0  0  0  0  0  0  0
  -28.9208  -21.7284   20.4745 C   0  0  0  0  0  0  0  0  0  0  0  0
  -29.1537  -27.2251   20.6836 C   0  0  0  0  0  0  0  0  0  0  0  0
  -28.8573  -20.3449   19.8233 C   0  0  0  0  0  0  0  0  0  0  0  0
  -27.8758  -21.8844   21.5779 C   0  0  0  0  0  0  0  0  0  0  0  0
  -26.4352  -20.1847   20.5267 C   0  0  0  0  0  0  0  0  0  0  0  0
  -18.9189  -25.9470   20.8631 C   0  0  0  0  0  0  0  0  0  0  0  0
  -27.7761  -27.1788   20.0105 C   0  0  1  0  0  0  0  0  0  0  0  0
  -26.1234  -30.5337   20.6735 C   0  0  1  0  0  0  0  0  0  0  0  0
  -27.4259  -20.0028   19.3653 C   0  0  2  0  0  0  0  0  0  0  0  0
  -18.6034  -27.1543   21.8011 C   0  0  1  0  0  0  0  0  0  0  0  0
  -17.2490  -27.8111   21.5586 C   0  0  0  0  0  0  0  0  0  0  0  0
  -24.3388  -36.2542   25.5820 C   0  0  0  0  0  0  0  0  0  0  0  0
  -26.7550  -30.0972   25.2310 C   0  0  0  0  0  0  0  0  0  0  0  0
  -25.8751  -31.9800   26.6271 C   0  0  0  0  0  0  0  0  0  0  0  0
  -27.9478  -32.2948   25.2752 C   0  0  0  0  0  0  0  0  0  0  0  0
  -23.1122  -35.8681   22.0012 C   0  0  0  0  0  0  0  0  0  0  0  0
  -19.0566  -23.6973   22.1825 C   0  0  0  0  0  0  0  0  0  0  0  0
  -19.7219  -28.1711   21.9215 C   0  0  0  0  0  0  0  0  0  1  0  0
  -25.7107  -32.1720   24.1037 C   0  0  1  0  0  0  0  0  0  0  0  0
  -24.3565  -35.7121   24.1613 C   0  0  2  0  0  0  0  0  0  0  0  0
  -26.5565  -31.6250   25.2882 C   0  0  0  0  0  0  0  0  0  0  0  0
  -27.0336  -17.5757   19.5566 N   0  0  0  0  0  0  0  0  0  0  0  0
  -27.3459  -18.6132   18.7615 N   0  0  0  0  0  0  0  0  0  0  0  0
  -18.8680  -25.1092   22.0507 N   0  0  0  0  0  0  0  0  0  0  0  0
  -25.5228  -31.0618   21.9001 N   0  0  0  0  0  0  0  0  0  0  0  0
  -26.5441  -21.5477   21.0700 N   0  0  0  0  0  0  0  0  0  0  0  0
  -27.8816  -19.1856   16.5263 N   0  0  0  0  0  0  0  0  0  0  0  0
  -27.2689  -14.7151   16.3387 N   0  0  0  0  0  0  0  0  0  0  0  0
  -24.2969  -22.0839   20.5954 N   0  0  0  0  0  0  0  0  0  0  0  0
  -27.2444  -28.5214   19.9305 N   0  0  0  0  0  0  0  0  0  0  0  0
  -25.5293  -33.6195   24.1174 N   0  0  0  0  0  0  0  0  0  0  0  0
  -23.2038  -36.2979   23.4203 N   0  3  0  0  0  0  0  0  0  0  0  0
  -18.4180  -26.0894   24.1366 O   0  0  0  0  0  0  0  0  0  0  0  0
  -27.8060  -16.5742   15.1081 O   0  0  0  0  0  0  0  0  0  0  0  0
  -26.3722  -28.6576   22.0854 O   0  0  0  0  0  0  0  0  0  0  0  0
  -27.4431  -32.2476   22.4852 O   0  0  0  0  0  0  0  0  0  0  0  0
  -23.2112  -33.5848   24.1655 O   0  0  0  0  0  0  0  0  0  0  0  0
  -25.6953  -23.6271   21.6176 O   0  0  0  0  0  0  0  0  0  0  0  0
  -25.9188  -11.3942   20.6029 O   0  0  0  0  0  0  0  0  0  0  0  0
  -19.9370  -28.7661   20.6425 O   0  0  0  0  0  0  0  0  0  1  0  0
  -21.5948  -10.7945   23.9715 F   0  0  0  0  0  0  0  0  0  0  0  0
  -22.0203  -21.0835   19.3359 F   0  0  0  0  0  0  0  0  0  0  0  0
  -21.4090  -24.6726   23.4191 F   0  0  0  0  0  0  0  0  0  0  0  0
  -23.8047   -9.7496   19.9182 F   0  0  0  0  0  0  0  0  0  0  0  0
  1  2  1  0  0  0  0
  1  5  2  0  0  0  0
  2  6  2  0  0  0  0
  3  8  2  0  0  0  0
  3 17  1  0  0  0  0
  4  9  1  0  0  0  0
  4 17  2  0  0  0  0
  5 19  1  0  0  0  0
  6 21  1  0  0  0  0
  7 10  2  0  0  0  0
  7 20  1  0  0  0  0
  8 25  1  0  0  0  0
  9 25  2  0  0  0  0
 10 26  1  0  0  0  0
 11 12  2  0  0  0  0
 11 27  1  0  0  0  0
 12 28  1  0  0  0  0
 13 22  1  0  0  0  0
 13 26  2  0  0  0  0
 14 23  1  0  0  0  0
 14 29  2  0  0  0  0
 15 24  2  0  0  0  0
 15 30  1  0  0  0  0
 16 28  2  0  0  0  0
 16 31  1  0  0  0  0
 17 32  1  0  0  0  0
 18 32  1  0  0  0  0
 18 33  2  0  0  0  0
 18 35  1  0  0  0  0
 19 21  2  0  0  0  0
 19 40  1  0  0  0  0
 20 22  2  0  0  0  0
 20 41  1  0  0  0  0
 21 50  1  0  0  0  0
 22 42  1  0  0  0  0
 23 30  2  0  0  0  0
 23 60  1  0  0  0  0
 24 29  1  0  0  0  0
 24 72  1  0  0  0  0
 25 82  1  0  0  0  0
 26 83  1  0  0  0  0
 27 31  2  0  0  0  0
 27 82  1  0  0  0  0
 28 84  1  0  0  0  0
 29 85  1  0  0  0  0
 30 86  1  0  0  0  0
 31 87  1  0  0  0  0
 32 65  2  0  0  0  0
 33 66  1  0  0  0  0
 33 70  1  0  0  0  0
 34 53  1  0  0  0  0
 34 67  1  0  0  0  0
 34 76  2  0  0  0  0
 35 71  1  0  0  0  0
 35 77  2  0  0  0  0
 36 51  1  0  0  0  0
 36 73  1  0  0  0  0
 36 78  2  0  0  0  0
 37 62  1  0  0  0  0
 37 68  1  0  0  0  0
 37 79  2  0  0  0  0
 38 63  1  0  0  0  0
 38 74  1  0  0  0  0
 38 80  2  0  0  0  0
 39 69  1  0  0  0  0
 39 72  1  0  0  0  0
 39 81  2  0  0  0  0
 40 43  1  0  0  0  0
 41 51  1  0  0  0  0
 42 68  1  0  0  0  0
 43 45  1  0  0  0  0
 44 46  1  0  0  0  0
 44 47  1  0  0  0  0
 45 50  1  0  0  0  0
 46 52  1  0  0  0  0
 47 69  1  0  0  0  0
 48 52  1  0  0  0  0
 48 69  1  0  0  0  0
 49 53  1  0  0  0  0
 49 67  1  0  0  0  0
 50 73  1  0  0  0  0
 51 68  1  0  0  0  0
 52 66  1  0  0  0  0
 53 54  1  0  0  0  0
 53 61  1  0  0  0  0
 55 63  1  0  0  0  0
 56 64  1  0  0  0  0
 57 64  1  0  0  0  0
 58 64  1  0  0  0  0
 59 75  1  0  0  0  0
 60 67  1  0  0  0  0
 61 83  1  0  0  0  0
 62 64  1  0  0  0  0
 62 74  1  0  0  0  0
 63 75  1  0  0  0  0
 65 66  1  0  0  0  0
M  CHG  1  75   1
M  ISO  4  39 100  61 101  72 100  83 101
M  END
> <Batch ID>
0023

> <Smiles>
CNC(C)C(=O)NC(C(=O)N1Cc2cc([101O:1][101CH2:1]C3(C)CN(Cc4cc(F)c([100NH:0][100C:0](=O)N5CCCC(n6nc(-c7ccc(Oc8ccc(F)cc8F)cc7)c(C(N)=O)c6N)C5)cc4F)C3=O)ccc2CC1C(=O)NC1CCCc2ccccc21)C(C)(C)C

> <Shape>
0.304

> <Color>
0.072

> <Negative vol penalty>
0.000

$$$$

  -OEChem-04042321173D

 85 94  0     1  0  0  0  0  0999 V2000
  -17.2705  -24.6220   25.0420 C   0  0  0  0  0  0  0  0  0  0  0  0
  -18.4944  -24.2351   25.5784 C   0  0  0  0  0  0  0  0  0  0  0  0
  -23.0495   -9.8911   19.9195 C   0  0  0  0  0  0  0  0  0  0  0  0
  -23.8245   -9.8700   22.2078 C   0  0  0  0  0  0  0  0  0  0  0  0
  -17.2114  -25.1512   23.7534 C   0  0  0  0  0  0  0  0  0  0  0  0
  -19.6599  -24.3761   24.8260 C   0  0  0  0  0  0  0  0  0  0  0  0
  -26.6495  -25.7597   25.5663 C   0  0  0  0  0  0  0  0  0  0  0  0
  -31.3726  -19.0301   20.6129 C   0  0  0  0  0  0  0  0  0  0  0  0
  -31.1919  -17.6471   20.5961 C   0  0  0  0  0  0  0  0  0  0  0  0
  -22.2981   -8.7416   20.1634 C   0  0  0  0  0  0  0  0  0  0  0  0
  -23.0730   -8.7205   22.4517 C   0  0  0  0  0  0  0  0  0  0  0  0
  -27.8937  -25.2405   25.2113 C   0  0  0  0  0  0  0  0  0  0  0  0
  -19.8425   -7.9427   23.0680 C   0  0  0  0  0  0  0  0  0  0  0  0
  -19.0930   -7.8976   24.2434 C   0  0  0  0  0  0  0  0  0  0  0  0
  -27.6810  -26.2405   23.0264 C   0  0  0  0  0  0  0  0  0  0  0  0
  -29.7551  -19.2198   22.3975 C   0  0  0  0  0  0  0  0  0  0  0  0
  -20.3236   -5.9433   24.9531 C   0  0  0  0  0  0  0  0  0  0  0  0
  -23.8128  -10.4553   20.9417 C   0  0  0  0  0  0  0  0  0  0  0  0
  -24.1741  -12.9787   20.8435 C   0  0  0  0  0  0  0  0  0  0  0  0
  -18.3780  -25.3077   22.9885 C   0  0  0  0  0  0  0  0  0  0  0  0
  -25.9055  -26.5154   24.6487 C   0  0  0  0  0  0  0  0  0  0  0  0
  -19.6163  -24.9066   23.5255 C   0  0  0  0  0  0  0  0  0  0  0  0
  -26.4287  -26.7704   23.3730 C   0  0  0  0  0  0  0  0  0  0  0  0
  -30.6543  -19.8165   21.5137 C   0  0  0  0  0  0  0  0  0  0  0  0
  -30.2927  -17.0505   21.4799 C   0  0  0  0  0  0  0  0  0  0  0  0
  -22.3098   -8.1563   21.4295 C   0  0  0  0  0  0  0  0  0  0  0  0
  -28.4084  -25.4784   23.9402 C   0  0  0  0  0  0  0  0  0  0  0  0
  -20.8326   -6.9881   22.8350 C   0  0  0  0  0  0  0  0  0  0  0  0
  -19.3335   -6.8979   25.1860 C   0  0  0  0  0  0  0  0  0  0  0  0
  -29.5743  -17.8368   22.3806 C   0  0  0  0  0  0  0  0  0  0  0  0
  -21.0731   -5.9884   23.7776 C   0  0  0  0  0  0  0  0  0  0  0  0
  -24.5897  -11.6424   20.6902 C   0  0  0  0  0  0  0  0  0  0  0  0
  -25.2699  -13.7229   20.4801 C   0  0  0  0  0  0  0  0  0  0  0  0
  -30.1904  -22.1551   22.3765 C   0  0  0  0  0  0  0  0  0  0  0  0
  -22.9106  -13.5006   21.2757 C   0  0  0  0  0  0  0  0  0  0  0  0
  -23.0714  -26.1863   23.2475 C   0  0  0  0  0  0  0  0  0  0  0  0
  -23.7161  -29.1608   22.1256 C   0  0  0  0  0  0  0  0  0  0  0  0
  -26.0570  -31.5169   21.3409 C   0  0  0  0  0  0  0  0  0  0  0  0
  -30.7453  -14.7231   20.6285 C   0  0  0  0  0  0  0  0  0  0  0  0
  -18.2583  -25.8405   21.5826 C   0  0  0  0  0  0  0  0  0  0  0  0
  -24.5769  -27.0909   25.0561 C   0  0  0  0  0  0  0  0  0  0  0  0
  -25.6787  -27.5925   22.3581 C   0  0  0  0  0  0  0  0  0  0  0  0
  -19.5871  -26.3051   20.9921 C   0  0  0  0  0  0  0  0  0  0  0  0
  -29.5960  -12.3411   18.2448 C   0  0  0  0  0  0  0  0  0  0  0  0
  -20.6763  -25.2680   21.2470 C   0  0  0  0  0  0  0  0  0  0  0  0
  -28.1569  -12.0569   18.6811 C   0  0  0  0  0  0  0  0  0  0  0  0
  -31.3951  -23.3535   20.7100 C   0  0  0  0  0  0  0  0  0  0  0  0
  -30.5208  -12.5510   19.4425 C   0  0  0  0  0  0  0  0  0  0  0  0
  -31.8016  -21.8939   20.6707 C   0  0  0  0  0  0  0  0  0  0  0  0
  -28.6288  -13.2774   20.8432 C   0  0  0  0  0  0  0  0  0  0  0  0
  -20.9057  -25.0670   22.7498 C   0  0  1  0  0  0  0  0  0  0  0  0
  -30.8157  -23.5145   22.1080 C   0  0  1  0  0  0  0  0  0  0  0  0
  -23.6760  -27.4139   23.8681 C   0  0  1  0  0  0  0  0  0  0  0  0
  -27.6469  -13.1232   19.6703 C   0  0  2  0  0  0  0  0  0  0  0  0
  -26.2823  -33.8358   20.4083 C   0  0  0  0  0  0  0  0  0  0  0  0
  -23.1873  -28.0818   19.3210 C   0  0  0  0  0  0  0  0  0  0  0  0
  -24.3266  -30.1122   18.4005 C   0  0  0  0  0  0  0  0  0  0  0  0
  -22.2478  -30.3581   19.7573 C   0  0  0  0  0  0  0  0  0  0  0  0
  -27.3110  -32.5200   23.8269 C   0  0  0  0  0  0  0  0  0  0  0  0
  -29.8225  -24.6564   22.2138 C   0  0  0  0  0  0  0  0  0  1  0  0
  -24.4077  -29.7160   20.9040 C   0  0  1  0  0  0  0  0  0  0  0  0
  -26.1466  -32.9964   21.6692 C   0  0  2  0  0  0  0  0  0  0  0  0
  -23.5558  -29.5499   19.6139 C   0  0  0  0  0  0  0  0  0  0  0  0
  -25.8510  -11.5405   20.2627 N   0  0  0  0  0  0  0  0  0  0  0  0
  -26.2374  -12.8222   20.1441 N   0  0  0  0  0  0  0  0  0  0  0  0
  -30.8387  -21.2316   21.5307 N   0  0  0  0  0  0  0  0  0  0  0  0
  -24.3811  -28.1282   22.8018 N   0  0  0  0  0  0  0  0  0  0  0  0
  -29.9759  -13.5778   20.3333 N   0  0  0  0  0  0  0  0  0  0  0  0
  -25.4905  -15.0532   20.4184 N   0  0  0  0  0  0  0  0  0  0  0  0
  -21.8936  -12.5963   21.6110 N   0  0  0  0  0  0  0  0  0  0  0  0
  -30.1108  -15.6454   21.4600 N   0  0  0  0  0  0  0  0  0  0  0  0
  -21.6906  -26.1556   23.2913 N   0  0  0  0  0  0  0  0  0  0  0  0
  -24.7486  -31.0987   21.2209 N   0  0  0  0  0  0  0  0  0  0  0  0
  -27.3257  -33.2631   22.5406 N   0  3  0  0  0  0  0  0  0  0  0  0
  -29.3346  -21.9686   23.2293 O   0  0  0  0  0  0  0  0  0  0  0  0
  -22.6846  -14.7324   21.3464 O   0  0  0  0  0  0  0  0  0  0  0  0
  -23.8034  -25.3310   22.7634 O   0  0  0  0  0  0  0  0  0  0  0  0
  -22.6294  -29.6311   22.4715 O   0  0  0  0  0  0  0  0  0  0  0  0
  -27.0486  -30.8045   21.2009 O   0  0  0  0  0  0  0  0  0  0  0  0
  -31.8726  -14.8873   20.1551 O   0  0  0  0  0  0  0  0  0  0  0  0
  -21.5764   -7.0347   21.6679 O   0  0  0  0  0  0  0  0  0  0  0  0
  -29.6223  -24.9722   23.5909 O   0  0  0  0  0  0  0  0  0  1  0  0
  -18.6147   -6.8556   26.3155 F   0  0  0  0  0  0  0  0  0  0  0  0
  -28.7062  -17.2744   23.2337 F   0  0  0  0  0  0  0  0  0  0  0  0
  -22.0237   -5.0693   23.5599 F   0  0  0  0  0  0  0  0  0  0  0  0
  1  2  1  0  0  0  0
  1  5  2  0  0  0  0
  2  6  2  0  0  0  0
  3 10  2  0  0  0  0
  3 18  1  0  0  0  0
  4 11  1  0  0  0  0
  4 18  2  0  0  0  0
  5 20  1  0  0  0  0
  6 22  1  0  0  0  0
  7 12  2  0  0  0  0
  7 21  1  0  0  0  0
  8  9  2  0  0  0  0
  8 24  1  0  0  0  0
  9 25  1  0  0  0  0
 10 26  1  0  0  0  0
 11 26  2  0  0  0  0
 12 27  1  0  0  0  0
 13 14  2  0  0  0  0
 13 28  1  0  0  0  0
 14 29  1  0  0  0  0
 15 23  1  0  0  0  0
 15 27  2  0  0  0  0
 16 24  2  0  0  0  0
 16 30  1  0  0  0  0
 17 29  2  0  0  0  0
 17 31  1  0  0  0  0
 18 32  1  0  0  0  0
 19 32  1  0  0  0  0
 19 33  2  0  0  0  0
 19 35  1  0  0  0  0
 20 22  2  0  0  0  0
 20 40  1  0  0  0  0
 21 23  2  0  0  0  0
 21 41  1  0  0  0  0
 22 51  1  0  0  0  0
 23 42  1  0  0  0  0
 24 66  1  0  0  0  0
 25 30  2  0  0  0  0
 25 71  1  0  0  0  0
 26 81  1  0  0  0  0
 27 82  1  0  0  0  0
 28 31  2  0  0  0  0
 28 81  1  0  0  0  0
 29 83  1  0  0  0  0
 30 84  1  0  0  0  0
 31 85  1  0  0  0  0
 32 64  2  0  0  0  0
 33 65  1  0  0  0  0
 33 69  1  0  0  0  0
 34 52  1  0  0  0  0
 34 66  1  0  0  0  0
 34 75  2  0  0  0  0
 35 70  1  0  0  0  0
 35 76  2  0  0  0  0
 36 53  1  0  0  0  0
 36 72  1  0  0  0  0
 36 77  2  0  0  0  0
 37 61  1  0  0  0  0
 37 67  1  0  0  0  0
 37 78  2  0  0  0  0
 38 62  1  0  0  0  0
 38 73  1  0  0  0  0
 38 79  2  0  0  0  0
 39 68  1  0  0  0  0
 39 71  1  0  0  0  0
 39 80  2  0  0  0  0
 40 43  1  0  0  0  0
 41 53  1  0  0  0  0
 42 67  1  0  0  0  0
 43 45  1  0  0  0  0
 44 46  1  0  0  0  0
 44 48  1  0  0  0  0
 45 51  1  0  0  0  0
 46 54  1  0  0  0  0
 47 49  1  0  0  0  0
 47 52  1  0  0  0  0
 48 68  1  0  0  0  0
 49 66  1  0  0  0  0
 50 54  1  0  0  0  0
 50 68  1  0  0  0  0
 51 72  1  0  0  0  0
 52 60  1  0  0  0  0
 53 67  1  0  0  0  0
 54 65  1  0  0  0  0
 55 62  1  0  0  0  0
 56 63  1  0  0  0  0
 57 63  1  0  0  0  0
 58 63  1  0  0  0  0
 59 74  1  0  0  0  0
 60 82  1  0  0  0  0
 61 63  1  0  0  0  0
 61 73  1  0  0  0  0
 62 74  1  0  0  0  0
 64 65  1  0  0  0  0
M  CHG  1  74   1
M  ISO  4  39 100  60 101  71 100  82 101
M  END
> <Batch ID>
0023

> <Smiles>
CNC(C)C(=O)NC(C(=O)N1Cc2cc([101O:1][101CH2:1]C3CCN(c4ccc([100NH:0][100C:0](=O)N5CCCC(n6nc(-c7ccc(Oc8ccc(F)cc8F)cc7)c(C(N)=O)c6N)C5)c(F)c4)C3=O)ccc2CC1C(=O)NC1CCCc2ccccc21)C(C)(C)C

> <Shape>
0.296

> <Color>
0.195

> <Negative vol penalty>
0.000

$$$$

  -OEChem-04042321173D

 84 93  0     1  0  0  0  0  0999 V2000
  -17.2056  -30.8773   24.3281 C   0  0  0  0  0  0  0  0  0  0  0  0
  -18.5084  -31.2411   24.6534 C   0  0  0  0  0  0  0  0  0  0  0  0
  -24.6459  -14.1347   19.9150 C   0  0  0  0  0  0  0  0  0  0  0  0
  -26.2514  -14.3130   21.7116 C   0  0  0  0  0  0  0  0  0  0  0  0
  -16.9664  -29.6899   23.6376 C   0  0  0  0  0  0  0  0  0  0  0  0
  -19.5727  -30.4170   24.2895 C   0  0  0  0  0  0  0  0  0  0  0  0
  -26.4451  -30.7284   22.2920 C   0  0  0  0  0  0  0  0  0  0  0  0
  -30.0735  -25.3576   22.5126 C   0  0  0  0  0  0  0  0  0  0  0  0
  -29.6215  -24.3999   21.6049 C   0  0  0  0  0  0  0  0  0  0  0  0
  -24.7154  -12.7437   19.9909 C   0  0  0  0  0  0  0  0  0  0  0  0
  -26.3208  -12.9219   21.7876 C   0  0  0  0  0  0  0  0  0  0  0  0
  -27.6886  -30.1927   22.6242 C   0  0  0  0  0  0  0  0  0  0  0  0
  -23.4653  -10.2907   21.9539 C   0  0  0  0  0  0  0  0  0  0  0  0
  -22.2660   -9.5792   21.9238 C   0  0  0  0  0  0  0  0  0  0  0  0
  -27.1620  -28.2043   21.3641 C   0  0  0  0  0  0  0  0  0  0  0  0
  -28.2718  -24.7829   24.0162 C   0  0  0  0  0  0  0  0  0  0  0  0
  -22.9962   -8.4327   19.9264 C   0  0  0  0  0  0  0  0  0  0  0  0
  -25.4140  -14.9194   20.7753 C   0  0  0  0  0  0  0  0  0  0  0  0
  -24.4645  -17.2037   21.3982 C   0  0  0  0  0  0  0  0  0  0  0  0
  -18.0291  -28.8556   23.2565 C   0  0  0  0  0  0  0  0  0  0  0  0
  -25.5448  -30.0002   21.5010 C   0  0  0  0  0  0  0  0  0  0  0  0
  -19.3474  -29.2166   23.5945 C   0  0  0  0  0  0  0  0  0  0  0  0
  -25.9087  -28.7340   21.0211 C   0  0  0  0  0  0  0  0  0  0  0  0
  -29.3987  -25.5491   23.7183 C   0  0  0  0  0  0  0  0  0  0  0  0
  -28.4946  -23.6337   21.9028 C   0  0  0  0  0  0  0  0  0  0  0  0
  -25.5528  -12.1373   20.9272 C   0  0  0  0  0  0  0  0  0  0  0  0
  -28.0461  -28.9293   22.1627 C   0  0  0  0  0  0  0  0  0  0  0  0
  -24.4301  -10.0733   20.9701 C   0  0  0  0  0  0  0  0  0  0  0  0
  -22.0314   -8.6502   20.9101 C   0  0  0  0  0  0  0  0  0  0  0  0
  -27.8197  -23.8252   23.1084 C   0  0  0  0  0  0  0  0  0  0  0  0
  -24.1955   -9.1443   19.9565 C   0  0  0  0  0  0  0  0  0  0  0  0
  -25.3431  -16.3564   20.6969 C   0  0  0  0  0  0  0  0  0  0  0  0
  -24.7970  -18.4679   20.9768 C   0  0  0  0  0  0  0  0  0  0  0  0
  -23.4394  -16.8772   22.3460 C   0  0  0  0  0  0  0  0  0  0  0  0
  -22.6240  -28.8228   21.9326 C   0  0  0  0  0  0  0  0  0  0  0  0
  -22.8749  -28.0934   18.7818 C   0  0  0  0  0  0  0  0  0  0  0  0
  -24.8972  -27.4558   16.1077 C   0  0  0  0  0  0  0  0  0  0  0  0
  -28.5933  -22.3483   19.7384 C   0  0  0  0  0  0  0  0  0  0  0  0
  -17.7174  -27.5585   22.5529 C   0  0  0  0  0  0  0  0  0  0  0  0
  -24.2179  -30.6033   21.1292 C   0  0  0  0  0  0  0  0  0  0  0  0
  -24.9864  -27.9201   20.1520 C   0  0  0  0  0  0  0  0  0  0  0  0
  -18.9304  -26.9265   21.8750 C   0  0  0  0  0  0  0  0  0  0  0  0
  -27.7863  -19.9974   17.1891 C   0  0  0  0  0  0  0  0  0  0  0  0
  -30.2829  -27.6359   26.6476 C   0  0  0  0  0  0  0  0  0  0  0  0
  -20.1304  -26.9301   22.8168 C   0  0  0  0  0  0  0  0  0  0  0  0
  -27.0064  -18.9103   17.9321 C   0  0  0  0  0  0  0  0  0  0  0  0
  -31.3304  -28.0281   25.6177 C   0  0  0  0  0  0  0  0  0  0  0  0
  -29.6681  -26.3671   26.0654 C   0  0  0  0  0  0  0  0  0  0  0  0
  -28.9212  -20.5637   18.0406 C   0  0  0  0  0  0  0  0  0  0  0  0
  -27.7417  -19.9507   20.1148 C   0  0  0  0  0  0  0  0  0  0  0  0
  -20.5303  -28.3613   23.1953 C   0  0  1  0  0  0  0  0  0  0  0  0
  -23.1741  -29.5595   20.7441 C   0  0  1  0  0  0  0  0  0  0  0  0
  -26.5477  -19.3955   19.3212 C   0  0  2  0  0  0  0  0  0  0  0  0
  -30.6824  -27.6558   24.2767 C   0  0  2  0  0  0  0  0  0  0  0  0
  -24.8123  -26.8546   13.6728 C   0  0  0  0  0  0  0  0  0  0  0  0
  -22.1621  -25.2196   19.5187 C   0  0  0  0  0  0  0  0  0  0  0  0
  -23.0101  -24.5072   17.2733 C   0  0  0  0  0  0  0  0  0  0  0  0
  -21.0679  -26.0642   17.4345 C   0  0  0  0  0  0  0  0  0  0  0  0
  -26.3026  -29.9403   15.3262 C   0  0  0  0  0  0  0  0  0  0  0  0
  -29.8264  -28.7995   23.7343 C   0  0  0  0  0  0  0  0  0  1  0  0
  -23.3837  -26.9092   17.9958 C   0  0  1  0  0  0  0  0  0  0  0  0
  -24.8841  -27.9868   14.6857 C   0  0  2  0  0  0  0  0  0  0  0  0
  -22.4228  -25.6893   18.0736 C   0  0  0  0  0  0  0  0  0  0  0  0
  -26.1715  -17.0259   19.8909 N   0  0  0  0  0  0  0  0  0  0  0  0
  -25.8148  -18.3072   20.0831 N   0  0  0  0  0  0  0  0  0  0  0  0
  -29.8471  -26.4978   24.6180 N   0  0  3  0  0  0  0  0  0  0  0  0
  -23.6976  -28.5504   19.8212 N   0  0  0  0  0  0  0  0  0  0  0  0
  -28.4112  -21.0071   19.3398 N   0  0  0  0  0  0  0  0  0  0  0  0
  -24.3152  -19.6902   21.2870 N   0  0  0  0  0  0  0  0  0  0  0  0
  -23.2301  -15.5288   22.6659 N   0  0  0  0  0  0  0  0  0  0  0  0
  -28.0376  -22.6619   20.9783 N   0  0  0  0  0  0  0  0  0  0  0  0
  -21.2636  -28.9839   22.1140 N   0  0  0  0  0  0  0  0  0  0  0  0
  -23.6272  -27.3926   16.6411 N   0  0  0  0  0  0  0  0  0  0  0  0
  -26.1170  -28.7798   14.4175 N   0  3  0  0  0  0  0  0  0  0  0  0
  -22.7190  -17.7540   22.8807 O   0  0  0  0  0  0  0  0  0  0  0  0
  -23.3776  -28.1564   22.6322 O   0  0  0  0  0  0  0  0  0  0  0  0
  -21.7910  -28.5990   18.4800 O   0  0  0  0  0  0  0  0  0  0  0  0
  -25.9303  -27.1262   16.6862 O   0  0  0  0  0  0  0  0  0  0  0  0
  -29.1740  -23.1657   19.0197 O   0  0  0  0  0  0  0  0  0  0  0  0
  -25.6206  -10.7799   21.0018 O   0  0  0  0  0  0  0  0  0  0  0  0
  -29.2590  -28.4038   22.4861 O   0  0  0  0  0  0  0  0  0  1  0  0
  -20.8803   -7.9659   20.8823 F   0  0  0  0  0  0  0  0  0  0  0  0
  -26.7353  -23.0947   23.4048 F   0  0  0  0  0  0  0  0  0  0  0  0
  -25.1191   -8.9303   19.0094 F   0  0  0  0  0  0  0  0  0  0  0  0
  1  2  1  0  0  0  0
  1  5  2  0  0  0  0
  2  6  2  0  0  0  0
  3 10  2  0  0  0  0
  3 18  1  0  0  0  0
  4 11  1  0  0  0  0
  4 18  2  0  0  0  0
  5 20  1  0  0  0  0
  6 22  1  0  0  0  0
  7 12  2  0  0  0  0
  7 21  1  0  0  0  0
  8  9  2  0  0  0  0
  8 24  1  0  0  0  0
  9 25  1  0  0  0  0
 10 26  1  0  0  0  0
 11 26  2  0  0  0  0
 12 27  1  0  0  0  0
 13 14  2  0  0  0  0
 13 28  1  0  0  0  0
 14 29  1  0  0  0  0
 15 23  1  0  0  0  0
 15 27  2  0  0  0  0
 16 24  2  0  0  0  0
 16 30  1  0  0  0  0
 17 29  2  0  0  0  0
 17 31  1  0  0  0  0
 18 32  1  0  0  0  0
 19 32  1  0  0  0  0
 19 33  2  0  0  0  0
 19 34  1  0  0  0  0
 20 22  2  0  0  0  0
 20 39  1  0  0  0  0
 21 23  2  0  0  0  0
 21 40  1  0  0  0  0
 22 51  1  0  0  0  0
 23 41  1  0  0  0  0
 24 66  1  0  0  0  0
 25 30  2  0  0  0  0
 25 71  1  0  0  0  0
 26 80  1  0  0  0  0
 27 81  1  0  0  0  0
 28 31  2  0  0  0  0
 28 80  1  0  0  0  0
 29 82  1  0  0  0  0
 30 83  1  0  0  0  0
 31 84  1  0  0  0  0
 32 64  2  0  0  0  0
 33 65  1  0  0  0  0
 33 69  1  0  0  0  0
 34 70  1  0  0  0  0
 34 75  2  0  0  0  0
 35 52  1  0  0  0  0
 35 72  1  0  0  0  0
 35 76  2  0  0  0  0
 36 61  1  0  0  0  0
 36 67  1  0  0  0  0
 36 77  2  0  0  0  0
 37 62  1  0  0  0  0
 37 73  1  0  0  0  0
 37 78  2  0  0  0  0
 38 68  1  0  0  0  0
 38 71  1  0  0  0  0
 38 79  2  0  0  0  0
 39 42  1  0  0  0  0
 40 52  1  0  0  0  0
 41 67  1  0  0  0  0
 42 45  1  0  0  0  0
 43 46  1  0  0  0  0
 43 49  1  0  0  0  0
 44 47  1  0  0  0  0
 44 48  1  0  0  0  0
 45 51  1  0  0  0  0
 46 53  1  0  0  0  0
 47 54  1  0  0  0  0
 48 66  1  0  0  0  0
 49 68  1  0  0  0  0
 50 53  1  0  0  0  0
 50 68  1  0  0  0  0
 51 72  1  0  0  0  0
 52 67  1  0  0  0  0
 53 65  1  0  0  0  0
 54 60  1  0  0  0  0
 54 66  1  0  0  0  0
 55 62  1  0  0  0  0
 56 63  1  0  0  0  0
 57 63  1  0  0  0  0
 58 63  1  0  0  0  0
 59 74  1  0  0  0  0
 60 81  1  0  0  0  0
 61 63  1  0  0  0  0
 61 73  1  0  0  0  0
 62 74  1  0  0  0  0
 64 65  1  0  0  0  0
M  CHG  1  74   1
M  ISO  4  38 100  60 101  71 100  81 101
M  END
> <Batch ID>
0023

> <Smiles>
CNC(C)C(=O)NC(C(=O)N1Cc2cc([101O:1][101CH2:1]C3CCCN3c3ccc([100NH:0][100C:0](=O)N4CCCC(n5nc(-c6ccc(Oc7ccc(F)cc7F)cc6)c(C(N)=O)c5N)C4)c(F)c3)ccc2CC1C(=O)NC1CCCc2ccccc21)C(C)(C)C

> <Shape>
0.238

> <Color>
0.111

> <Negative vol penalty>
0.000

$$$$

  -OEChem-04042321173D

 84 93  0     1  0  0  0  0  0999 V2000
  -17.2056  -30.8773   24.3281 C   0  0  0  0  0  0  0  0  0  0  0  0
  -18.5084  -31.2411   24.6534 C   0  0  0  0  0  0  0  0  0  0  0  0
  -24.6459  -14.1347   19.9150 C   0  0  0  0  0  0  0  0  0  0  0  0
  -26.2514  -14.3130   21.7116 C   0  0  0  0  0  0  0  0  0  0  0  0
  -16.9664  -29.6899   23.6376 C   0  0  0  0  0  0  0  0  0  0  0  0
  -19.5727  -30.4170   24.2895 C   0  0  0  0  0  0  0  0  0  0  0  0
  -26.4451  -30.7284   22.2920 C   0  0  0  0  0  0  0  0  0  0  0  0
  -30.0735  -25.3576   22.5126 C   0  0  0  0  0  0  0  0  0  0  0  0
  -29.6215  -24.3999   21.6049 C   0  0  0  0  0  0  0  0  0  0  0  0
  -24.7154  -12.7437   19.9909 C   0  0  0  0  0  0  0  0  0  0  0  0
  -26.3208  -12.9219   21.7876 C   0  0  0  0  0  0  0  0  0  0  0  0
  -27.6886  -30.1927   22.6242 C   0  0  0  0  0  0  0  0  0  0  0  0
  -23.4653  -10.2907   21.9539 C   0  0  0  0  0  0  0  0  0  0  0  0
  -22.2660   -9.5792   21.9238 C   0  0  0  0  0  0  0  0  0  0  0  0
  -27.1620  -28.2043   21.3641 C   0  0  0  0  0  0  0  0  0  0  0  0
  -28.2718  -24.7829   24.0162 C   0  0  0  0  0  0  0  0  0  0  0  0
  -22.9962   -8.4327   19.9264 C   0  0  0  0  0  0  0  0  0  0  0  0
  -25.4140  -14.9194   20.7753 C   0  0  0  0  0  0  0  0  0  0  0  0
  -24.4645  -17.2037   21.3982 C   0  0  0  0  0  0  0  0  0  0  0  0
  -18.0291  -28.8556   23.2565 C   0  0  0  0  0  0  0  0  0  0  0  0
  -25.5448  -30.0002   21.5010 C   0  0  0  0  0  0  0  0  0  0  0  0
  -19.3474  -29.2166   23.5945 C   0  0  0  0  0  0  0  0  0  0  0  0
  -25.9087  -28.7340   21.0211 C   0  0  0  0  0  0  0  0  0  0  0  0
  -29.3987  -25.5491   23.7183 C   0  0  0  0  0  0  0  0  0  0  0  0
  -28.4946  -23.6337   21.9028 C   0  0  0  0  0  0  0  0  0  0  0  0
  -25.5528  -12.1373   20.9272 C   0  0  0  0  0  0  0  0  0  0  0  0
  -28.0461  -28.9293   22.1627 C   0  0  0  0  0  0  0  0  0  0  0  0
  -24.4301  -10.0733   20.9701 C   0  0  0  0  0  0  0  0  0  0  0  0
  -22.0314   -8.6502   20.9101 C   0  0  0  0  0  0  0  0  0  0  0  0
  -27.8197  -23.8252   23.1084 C   0  0  0  0  0  0  0  0  0  0  0  0
  -24.1955   -9.1443   19.9565 C   0  0  0  0  0  0  0  0  0  0  0  0
  -25.3431  -16.3564   20.6969 C   0  0  0  0  0  0  0  0  0  0  0  0
  -24.7970  -18.4679   20.9768 C   0  0  0  0  0  0  0  0  0  0  0  0
  -23.4394  -16.8772   22.3460 C   0  0  0  0  0  0  0  0  0  0  0  0
  -22.6240  -28.8228   21.9326 C   0  0  0  0  0  0  0  0  0  0  0  0
  -22.8749  -28.0934   18.7818 C   0  0  0  0  0  0  0  0  0  0  0  0
  -24.8972  -27.4558   16.1077 C   0  0  0  0  0  0  0  0  0  0  0  0
  -28.5933  -22.3483   19.7384 C   0  0  0  0  0  0  0  0  0  0  0  0
  -17.7174  -27.5585   22.5529 C   0  0  0  0  0  0  0  0  0  0  0  0
  -24.2179  -30.6033   21.1292 C   0  0  0  0  0  0  0  0  0  0  0  0
  -24.9864  -27.9201   20.1520 C   0  0  0  0  0  0  0  0  0  0  0  0
  -18.9304  -26.9265   21.8750 C   0  0  0  0  0  0  0  0  0  0  0  0
  -27.7863  -19.9974   17.1891 C   0  0  0  0  0  0  0  0  0  0  0  0
  -30.2829  -27.6359   26.6476 C   0  0  0  0  0  0  0  0  0  0  0  0
  -20.1304  -26.9301   22.8168 C   0  0  0  0  0  0  0  0  0  0  0  0
  -27.0064  -18.9103   17.9321 C   0  0  0  0  0  0  0  0  0  0  0  0
  -31.3304  -28.0281   25.6177 C   0  0  0  0  0  0  0  0  0  0  0  0
  -29.6681  -26.3671   26.0654 C   0  0  0  0  0  0  0  0  0  0  0  0
  -28.9212  -20.5637   18.0406 C   0  0  0  0  0  0  0  0  0  0  0  0
  -27.7417  -19.9507   20.1148 C   0  0  0  0  0  0  0  0  0  0  0  0
  -20.5303  -28.3613   23.1953 C   0  0  1  0  0  0  0  0  0  0  0  0
  -23.1741  -29.5595   20.7441 C   0  0  1  0  0  0  0  0  0  0  0  0
  -26.5477  -19.3955   19.3212 C   0  0  2  0  0  0  0  0  0  0  0  0
  -30.6824  -27.6558   24.2767 C   0  0  2  0  0  0  0  0  0  0  0  0
  -24.8123  -26.8546   13.6728 C   0  0  0  0  0  0  0  0  0  0  0  0
  -22.1621  -25.2196   19.5187 C   0  0  0  0  0  0  0  0  0  0  0  0
  -23.0101  -24.5072   17.2733 C   0  0  0  0  0  0  0  0  0  0  0  0
  -21.0679  -26.0642   17.4345 C   0  0  0  0  0  0  0  0  0  0  0  0
  -26.3026  -29.9403   15.3262 C   0  0  0  0  0  0  0  0  0  0  0  0
  -29.8264  -28.7995   23.7343 C   0  0  0  0  0  0  0  0  0  1  0  0
  -23.3837  -26.9092   17.9958 C   0  0  1  0  0  0  0  0  0  0  0  0
  -24.8841  -27.9868   14.6857 C   0  0  2  0  0  0  0  0  0  0  0  0
  -22.4228  -25.6893   18.0736 C   0  0  0  0  0  0  0  0  0  0  0  0
  -26.1715  -17.0259   19.8909 N   0  0  0  0  0  0  0  0  0  0  0  0
  -25.8148  -18.3072   20.0831 N   0  0  0  0  0  0  0  0  0  0  0  0
  -29.8471  -26.4978   24.6180 N   0  0  3  0  0  0  0  0  0  0  0  0
  -23.6976  -28.5504   19.8212 N   0  0  0  0  0  0  0  0  0  0  0  0
  -28.4112  -21.0071   19.3398 N   0  0  0  0  0  0  0  0  0  0  0  0
  -24.3152  -19.6902   21.2870 N   0  0  0  0  0  0  0  0  0  0  0  0
  -23.2301  -15.5288   22.6659 N   0  0  0  0  0  0  0  0  0  0  0  0
  -28.0376  -22.6619   20.9783 N   0  0  0  0  0  0  0  0  0  0  0  0
  -21.2636  -28.9839   22.1140 N   0  0  0  0  0  0  0  0  0  0  0  0
  -23.6272  -27.3926   16.6411 N   0  0  0  0  0  0  0  0  0  0  0  0
  -26.1170  -28.7798   14.4175 N   0  3  0  0  0  0  0  0  0  0  0  0
  -22.7190  -17.7540   22.8807 O   0  0  0  0  0  0  0  0  0  0  0  0
  -23.3776  -28.1564   22.6322 O   0  0  0  0  0  0  0  0  0  0  0  0
  -21.7910  -28.5990   18.4800 O   0  0  0  0  0  0  0  0  0  0  0  0
  -25.9303  -27.1262   16.6862 O   0  0  0  0  0  0  0  0  0  0  0  0
  -29.1740  -23.1657   19.0197 O   0  0  0  0  0  0  0  0  0  0  0  0
  -25.6206  -10.7799   21.0018 O   0  0  0  0  0  0  0  0  0  0  0  0
  -29.2590  -28.4038   22.4861 O   0  0  0  0  0  0  0  0  0  1  0  0
  -20.8803   -7.9659   20.8823 F   0  0  0  0  0  0  0  0  0  0  0  0
  -26.7353  -23.0947   23.4048 F   0  0  0  0  0  0  0  0  0  0  0  0
  -25.1191   -8.9303   19.0094 F   0  0  0  0  0  0  0  0  0  0  0  0
  1  2  1  0  0  0  0
  1  5  2  0  0  0  0
  2  6  2  0  0  0  0
  3 10  2  0  0  0  0
  3 18  1  0  0  0  0
  4 11  1  0  0  0  0
  4 18  2  0  0  0  0
  5 20  1  0  0  0  0
  6 22  1  0  0  0  0
  7 12  2  0  0  0  0
  7 21  1  0  0  0  0
  8  9  2  0  0  0  0
  8 24  1  0  0  0  0
  9 25  1  0  0  0  0
 10 26  1  0  0  0  0
 11 26  2  0  0  0  0
 12 27  1  0  0  0  0
 13 14  2  0  0  0  0
 13 28  1  0  0  0  0
 14 29  1  0  0  0  0
 15 23  1  0  0  0  0
 15 27  2  0  0  0  0
 16 24  2  0  0  0  0
 16 30  1  0  0  0  0
 17 29  2  0  0  0  0
 17 31  1  0  0  0  0
 18 32  1  0  0  0  0
 19 32  1  0  0  0  0
 19 33  2  0  0  0  0
 19 34  1  0  0  0  0
 20 22  2  0  0  0  0
 20 39  1  0  0  0  0
 21 23  2  0  0  0  0
 21 40  1  0  0  0  0
 22 51  1  0  0  0  0
 23 41  1  0  0  0  0
 24 66  1  0  0  0  0
 25 30  2  0  0  0  0
 25 71  1  0  0  0  0
 26 80  1  0  0  0  0
 27 81  1  0  0  0  0
 28 31  2  0  0  0  0
 28 80  1  0  0  0  0
 29 82  1  0  0  0  0
 30 83  1  0  0  0  0
 31 84  1  0  0  0  0
 32 64  2  0  0  0  0
 33 65  1  0  0  0  0
 33 69  1  0  0  0  0
 34 70  1  0  0  0  0
 34 75  2  0  0  0  0
 35 52  1  0  0  0  0
 35 72  1  0  0  0  0
 35 76  2  0  0  0  0
 36 61  1  0  0  0  0
 36 67  1  0  0  0  0
 36 77  2  0  0  0  0
 37 62  1  0  0  0  0
 37 73  1  0  0  0  0
 37 78  2  0  0  0  0
 38 68  1  0  0  0  0
 38 71  1  0  0  0  0
 38 79  2  0  0  0  0
 39 42  1  0  0  0  0
 40 52  1  0  0  0  0
 41 67  1  0  0  0  0
 42 45  1  0  0  0  0
 43 46  1  0  0  0  0
 43 49  1  0  0  0  0
 44 47  1  0  0  0  0
 44 48  1  0  0  0  0
 45 51  1  0  0  0  0
 46 53  1  0  0  0  0
 47 54  1  0  0  0  0
 48 66  1  0  0  0  0
 49 68  1  0  0  0  0
 50 53  1  0  0  0  0
 50 68  1  0  0  0  0
 51 72  1  0  0  0  0
 52 67  1  0  0  0  0
 53 65  1  0  0  0  0
 54 60  1  0  0  0  0
 54 66  1  0  0  0  0
 55 62  1  0  0  0  0
 56 63  1  0  0  0  0
 57 63  1  0  0  0  0
 58 63  1  0  0  0  0
 59 74  1  0  0  0  0
 60 81  1  0  0  0  0
 61 63  1  0  0  0  0
 61 73  1  0  0  0  0
 62 74  1  0  0  0  0
 64 65  1  0  0  0  0
M  CHG  1  74   1
M  ISO  4  38 100  60 101  71 100  81 101
M  END
> <Batch ID>
0023

> <Smiles>
CNC(C)C(=O)NC(C(=O)N1Cc2cc([101O:1][101CH2:1]C3CCCN3c3ccc([100NH:0][100C:0](=O)N4CCCC(n5nc(-c6ccc(Oc7ccc(F)cc7F)cc6)c(C(N)=O)c5N)C4)c(F)c3)ccc2CC1C(=O)NC1CCCc2ccccc21)C(C)(C)C

> <Shape>
0.238

> <Color>
0.111

> <Negative vol penalty>
0.000

$$$$

  -OEChem-04042321173D

 85 94  0     1  0  0  0  0  0999 V2000
  -28.2863  -26.4020   30.6116 C   0  0  0  0  0  0  0  0  0  0  0  0
  -28.9286  -25.9559   29.4610 C   0  0  0  0  0  0  0  0  0  0  0  0
  -23.2985   -9.6651   21.2158 C   0  0  0  0  0  0  0  0  0  0  0  0
  -24.0218  -10.5188   23.3571 C   0  0  0  0  0  0  0  0  0  0  0  0
  -27.0673  -27.0715   30.5129 C   0  0  0  0  0  0  0  0  0  0  0  0
  -28.3517  -26.1779   28.2111 C   0  0  0  0  0  0  0  0  0  0  0  0
  -31.2801  -27.3203   22.9551 C   0  0  0  0  0  0  0  0  0  0  0  0
  -30.7996  -19.1522   18.5659 C   0  0  0  0  0  0  0  0  0  0  0  0
  -30.7382  -17.8410   19.0376 C   0  0  0  0  0  0  0  0  0  0  0  0
  -22.6418   -8.6145   21.8565 C   0  0  0  0  0  0  0  0  0  0  0  0
  -23.3650   -9.4682   23.9978 C   0  0  0  0  0  0  0  0  0  0  0  0
  -31.6323  -26.5042   21.8811 C   0  0  0  0  0  0  0  0  0  0  0  0
  -20.1991   -8.6797   24.8786 C   0  0  0  0  0  0  0  0  0  0  0  0
  -19.4303   -8.9866   26.0013 C   0  0  0  0  0  0  0  0  0  0  0  0
  -29.6398  -27.1955   20.7101 C   0  0  0  0  0  0  0  0  0  0  0  0
  -29.0716  -18.5018   20.6572 C   0  0  0  0  0  0  0  0  0  0  0  0
  -20.8058   -7.5223   27.3434 C   0  0  0  0  0  0  0  0  0  0  0  0
  -23.9886  -10.6173   21.9661 C   0  0  0  0  0  0  0  0  0  0  0  0
  -24.1374  -12.9655   20.9807 C   0  0  0  0  0  0  0  0  0  0  0  0
  -26.4798  -27.3104   29.2606 C   0  0  0  0  0  0  0  0  0  0  0  0
  -30.0975  -28.0731   22.9192 C   0  0  0  0  0  0  0  0  0  0  0  0
  -27.1230  -26.8500   28.0957 C   0  0  0  0  0  0  0  0  0  0  0  0
  -29.2761  -28.0224   21.7840 C   0  0  0  0  0  0  0  0  0  0  0  0
  -29.9971  -20.1383   19.1398 C   0  0  0  0  0  0  0  0  0  0  0  0
  -29.8742  -17.5158   20.0832 C   0  0  0  0  0  0  0  0  0  0  0  0
  -22.6750   -8.5160   23.2475 C   0  0  0  0  0  0  0  0  0  0  0  0
  -30.8107  -26.4394   20.7596 C   0  0  0  0  0  0  0  0  0  0  0  0
  -21.2712   -7.7941   24.9883 C   0  0  0  0  0  0  0  0  0  0  0  0
  -19.7337   -8.4079   27.2337 C   0  0  0  0  0  0  0  0  0  0  0  0
  -21.5746   -7.2155   26.2207 C   0  0  0  0  0  0  0  0  0  0  0  0
  -29.1331  -19.8131   20.1854 C   0  0  0  0  0  0  0  0  0  0  0  0
  -24.6678  -11.7024   21.3049 C   0  0  0  0  0  0  0  0  0  0  0  0
  -25.1740  -13.6263   20.3681 C   0  0  0  0  0  0  0  0  0  0  0  0
  -30.4552  -22.6228   19.3553 C   0  0  0  0  0  0  0  0  0  0  0  0
  -22.8250  -13.4943   21.2127 C   0  0  0  0  0  0  0  0  0  0  0  0
  -27.4322  -28.1472   24.6498 C   0  0  0  0  0  0  0  0  0  0  0  0
  -26.7619  -30.7218   22.7939 C   0  0  0  0  0  0  0  0  0  0  0  0
  -27.2714  -32.3905   19.8609 C   0  0  0  0  0  0  0  0  0  0  0  0
  -30.5406  -15.0865   20.1035 C   0  0  0  0  0  0  0  0  0  0  0  0
  -25.1379  -27.9966   29.2073 C   0  0  0  0  0  0  0  0  0  0  0  0
  -29.7452  -28.9691   24.0749 C   0  0  0  0  0  0  0  0  0  0  0  0
  -28.0062  -28.8264   21.6874 C   0  0  0  0  0  0  0  0  0  0  0  0
  -24.7771  -28.5220   27.8202 C   0  0  0  0  0  0  0  0  0  0  0  0
  -29.6498  -11.9272   18.7241 C   0  0  0  0  0  0  0  0  0  0  0  0
  -25.0528  -27.4613   26.7592 C   0  0  0  0  0  0  0  0  0  0  0  0
  -28.2306  -11.6910   19.2459 C   0  0  0  0  0  0  0  0  0  0  0  0
  -29.6394  -23.2829   17.2192 C   0  0  0  0  0  0  0  0  0  0  0  0
  -30.5268  -12.6251   19.7621 C   0  0  0  0  0  0  0  0  0  0  0  0
  -29.8407  -21.7808   17.2371 C   0  0  0  0  0  0  0  0  0  0  0  0
  -28.5498  -13.6309   20.8339 C   0  0  0  0  0  0  0  0  0  0  0  0
  -26.5410  -27.0937   26.7202 C   0  0  1  0  0  0  0  0  0  0  0  0
  -30.5293  -23.7654   18.3555 C   0  0  1  0  0  0  0  0  0  0  0  0
  -28.2570  -29.2971   24.1446 C   0  0  1  0  0  0  0  0  0  0  0  0
  -27.6106  -12.9888   19.7999 C   0  0  2  0  0  0  0  0  0  0  0  0
  -26.5552  -34.4476   18.6147 C   0  0  0  0  0  0  0  0  0  0  0  0
  -24.1090  -29.3796   22.1079 C   0  0  0  0  0  0  0  0  0  0  0  0
  -23.8829  -30.9669   20.1851 C   0  0  0  0  0  0  0  0  0  0  0  0
  -23.9566  -31.8415   22.5201 C   0  0  0  0  0  0  0  0  0  0  0  0
  -30.0306  -33.4597   19.8071 C   0  0  0  0  0  0  0  0  0  0  0  0
  -30.0849  -25.0940   18.9378 C   0  0  0  0  0  0  0  0  0  1  0  0
  -26.0694  -30.9337   21.4693 C   0  0  1  0  0  0  0  0  0  0  0  0
  -27.5747  -33.8496   19.5716 C   0  0  2  0  0  0  0  0  0  0  0  0
  -24.5274  -30.7637   21.5729 C   0  0  0  0  0  0  0  0  0  0  0  0
  -25.9423  -11.5665   20.9291 N   0  0  0  0  0  0  0  0  0  0  0  0
  -26.2214  -12.7527   20.3625 N   0  0  0  0  0  0  0  0  0  0  0  0
  -30.0849  -21.4696   18.6331 N   0  0  0  0  0  0  0  0  0  0  0  0
  -27.7017  -29.6827   22.8457 N   0  0  0  0  0  0  0  0  0  0  0  0
  -29.8775  -13.8484   20.2385 N   0  0  0  0  0  0  0  0  0  0  0  0
  -25.2826  -14.8635   19.8390 N   0  0  0  0  0  0  0  0  0  0  0  0
  -21.8810  -12.6814   21.8548 N   0  0  0  0  0  0  0  0  0  0  0  0
  -29.8122  -16.1836   20.5620 N   0  0  0  0  0  0  0  0  0  0  0  0
  -27.2955  -28.1140   26.0244 N   0  0  0  0  0  0  0  0  0  0  0  0
  -26.4952  -32.2446   20.9911 N   0  0  0  0  0  0  0  0  0  0  0  0
  -28.9279  -33.9865   18.9624 N   0  3  0  0  0  0  0  0  0  0  0  0
  -30.7414  -22.7478   20.5373 O   0  0  0  0  0  0  0  0  0  0  0  0
  -22.4942  -14.6475   20.8463 O   0  0  0  0  0  0  0  0  0  0  0  0
  -26.9540  -27.3500   23.8514 O   0  0  0  0  0  0  0  0  0  0  0  0
  -26.4846  -31.4561   23.7455 O   0  0  0  0  0  0  0  0  0  0  0  0
  -27.6790  -31.4724   19.1528 O   0  0  0  0  0  0  0  0  0  0  0  0
  -31.6602  -15.1707   19.5922 O   0  0  0  0  0  0  0  0  0  0  0  0
  -22.0340   -7.4911   23.8730 O   0  0  0  0  0  0  0  0  0  0  0  0
  -31.1518  -25.6431   19.7101 O   0  0  0  0  0  0  0  0  0  1  0  0
  -18.9963   -8.7038   28.3120 F   0  0  0  0  0  0  0  0  0  0  0  0
  -22.6041   -6.3649   26.3325 F   0  0  0  0  0  0  0  0  0  0  0  0
  -28.1220  -21.0032   20.9246 Cl  0  0  0  0  0  0  0  0  0  0  0  0
  1  2  1  0  0  0  0
  1  5  2  0  0  0  0
  2  6  2  0  0  0  0
  3 10  2  0  0  0  0
  3 18  1  0  0  0  0
  4 11  1  0  0  0  0
  4 18  2  0  0  0  0
  5 20  1  0  0  0  0
  6 22  1  0  0  0  0
  7 12  2  0  0  0  0
  7 21  1  0  0  0  0
  8  9  2  0  0  0  0
  8 24  1  0  0  0  0
  9 25  1  0  0  0  0
 10 26  1  0  0  0  0
 11 26  2  0  0  0  0
 12 27  1  0  0  0  0
 13 14  2  0  0  0  0
 13 28  1  0  0  0  0
 14 29  1  0  0  0  0
 15 23  1  0  0  0  0
 15 27  2  0  0  0  0
 16 25  2  0  0  0  0
 16 31  1  0  0  0  0
 17 29  2  0  0  0  0
 17 30  1  0  0  0  0
 18 32  1  0  0  0  0
 19 32  1  0  0  0  0
 19 33  2  0  0  0  0
 19 35  1  0  0  0  0
 20 22  2  0  0  0  0
 20 40  1  0  0  0  0
 21 23  2  0  0  0  0
 21 41  1  0  0  0  0
 22 51  1  0  0  0  0
 23 42  1  0  0  0  0
 24 31  2  0  0  0  0
 24 66  1  0  0  0  0
 25 71  1  0  0  0  0
 26 81  1  0  0  0  0
 27 82  1  0  0  0  0
 28 30  2  0  0  0  0
 28 81  1  0  0  0  0
 29 83  1  0  0  0  0
 30 84  1  0  0  0  0
 31 85  1  0  0  0  0
 32 64  2  0  0  0  0
 33 65  1  0  0  0  0
 33 69  1  0  0  0  0
 34 52  1  0  0  0  0
 34 66  1  0  0  0  0
 34 75  2  0  0  0  0
 35 70  1  0  0  0  0
 35 76  2  0  0  0  0
 36 53  1  0  0  0  0
 36 72  1  0  0  0  0
 36 77  2  0  0  0  0
 37 61  1  0  0  0  0
 37 67  1  0  0  0  0
 37 78  2  0  0  0  0
 38 62  1  0  0  0  0
 38 73  1  0  0  0  0
 38 79  2  0  0  0  0
 39 68  1  0  0  0  0
 39 71  1  0  0  0  0
 39 80  2  0  0  0  0
 40 43  1  0  0  0  0
 41 53  1  0  0  0  0
 42 67  1  0  0  0  0
 43 45  1  0  0  0  0
 44 46  1  0  0  0  0
 44 48  1  0  0  0  0
 45 51  1  0  0  0  0
 46 54  1  0  0  0  0
 47 49  1  0  0  0  0
 47 52  1  0  0  0  0
 48 68  1  0  0  0  0
 49 66  1  0  0  0  0
 50 54  1  0  0  0  0
 50 68  1  0  0  0  0
 51 72  1  0  0  0  0
 52 60  1  0  0  0  0
 53 67  1  0  0  0  0
 54 65  1  0  0  0  0
 55 62  1  0  0  0  0
 56 63  1  0  0  0  0
 57 63  1  0  0  0  0
 58 63  1  0  0  0  0
 59 74  1  0  0  0  0
 60 82  1  0  0  0  0
 61 63  1  0  0  0  0
 61 73  1  0  0  0  0
 62 74  1  0  0  0  0
 64 65  1  0  0  0  0
M  CHG  1  74   1
M  ISO  4  39 100  60 101  71 100  82 101
M  END
> <Batch ID>
0023

> <Smiles>
CNC(C)C(=O)NC(C(=O)N1Cc2cc([101O:1][101CH2:1]C3CCN(c4ccc([100NH:0][100C:0](=O)N5CCCC(n6nc(-c7ccc(Oc8ccc(F)cc8F)cc7)c(C(N)=O)c6N)C5)cc4Cl)C3=O)ccc2CC1C(=O)NC1CCCc2ccccc21)C(C)(C)C

> <Shape>
0.288

> <Color>
0.153

> <Negative vol penalty>
0.000

$$$$

  -OEChem-04042321173D

 82 91  0     1  0  0  0  0  0999 V2000
  -28.4238  -37.3451   22.1240 C   0  0  0  0  0  0  0  0  0  0  0  0
  -28.7872  -36.1094   21.5985 C   0  0  0  0  0  0  0  0  0  0  0  0
  -23.5966  -11.6778   23.3196 C   0  0  0  0  0  0  0  0  0  0  0  0
  -22.6503  -13.8639   22.9160 C   0  0  0  0  0  0  0  0  0  0  0  0
  -27.5215  -37.4121   23.1848 C   0  0  0  0  0  0  0  0  0  0  0  0
  -28.2493  -34.9397   22.1341 C   0  0  0  0  0  0  0  0  0  0  0  0
  -26.8357  -29.8113   19.0998 C   0  0  0  0  0  0  0  0  0  0  0  0
  -27.1767  -21.4335   20.4658 C   0  0  0  0  0  0  0  0  0  0  0  0
  -27.2044  -20.0550   20.2545 C   0  0  0  0  0  0  0  0  0  0  0  0
  -22.7619  -11.5207   24.4260 C   0  0  0  0  0  0  0  0  0  0  0  0
  -21.8156  -13.7068   24.0224 C   0  0  0  0  0  0  0  0  0  0  0  0
  -27.5126  -28.6040   18.9318 C   0  0  0  0  0  0  0  0  0  0  0  0
  -19.5287  -10.7250   25.0141 C   0  0  0  0  0  0  0  0  0  0  0  0
  -18.8707   -9.5039   25.1617 C   0  0  0  0  0  0  0  0  0  0  0  0
  -26.2570  -27.6528   20.7588 C   0  0  0  0  0  0  0  0  0  0  0  0
  -29.5505  -20.0140   20.8301 C   0  0  0  0  0  0  0  0  0  0  0  0
  -19.9648   -9.1716   27.2900 C   0  0  0  0  0  0  0  0  0  0  0  0
  -23.5409  -12.8494   22.5646 C   0  0  0  0  0  0  0  0  0  0  0  0
  -24.1281  -12.6478   20.0903 C   0  0  0  0  0  0  0  0  0  0  0  0
  -26.9648  -36.2432   23.7274 C   0  0  0  0  0  0  0  0  0  0  0  0
  -25.8706  -29.9520   20.1074 C   0  0  0  0  0  0  0  0  0  0  0  0
  -27.3397  -34.9910   23.2040 C   0  0  0  0  0  0  0  0  0  0  0  0
  -25.5676  -28.8621   20.9359 C   0  0  0  0  0  0  0  0  0  0  0  0
  -28.3359  -22.1023   20.8592 C   0  0  0  0  0  0  0  0  0  0  0  0
  -28.3913  -19.3453   20.4367 C   0  0  0  0  0  0  0  0  0  0  0  0
  -21.8714  -12.5352   24.7774 C   0  0  0  0  0  0  0  0  0  0  0  0
  -27.2253  -27.5255   19.7632 C   0  0  0  0  0  0  0  0  0  0  0  0
  -20.4047  -11.1693   26.0045 C   0  0  0  0  0  0  0  0  0  0  0  0
  -19.0888   -8.7273   26.2996 C   0  0  0  0  0  0  0  0  0  0  0  0
  -20.6228  -10.3927   27.1424 C   0  0  0  0  0  0  0  0  0  0  0  0
  -29.5228  -21.3925   21.0414 C   0  0  0  0  0  0  0  0  0  0  0  0
  -24.4032  -13.0125   21.4219 C   0  0  0  0  0  0  0  0  0  0  0  0
  -25.2564  -13.0088   19.3953 C   0  0  0  0  0  0  0  0  0  0  0  0
  -22.9573  -12.0373   19.5316 C   0  0  0  0  0  0  0  0  0  0  0  0
  -25.5675  -31.7910   22.6821 C   0  0  0  0  0  0  0  0  0  0  0  0
  -22.6366  -30.4104   22.8439 C   0  0  0  0  0  0  0  0  0  0  0  0
  -20.6311  -27.7672   22.0450 C   0  0  0  0  0  0  0  0  0  0  0  0
  -29.5127  -17.0908   20.3582 C   0  0  0  0  0  0  0  0  0  0  0  0
  -26.0297  -36.3632   24.9046 C   0  0  0  0  0  0  0  0  0  0  0  0
  -25.1303  -31.2526   20.2583 C   0  0  0  0  0  0  0  0  0  0  0  0
  -24.5256  -28.9553   22.0194 C   0  0  0  0  0  0  0  0  0  0  0  0
  -25.2181  -35.0977   25.1693 C   0  0  0  0  0  0  0  0  0  0  0  0
  -29.9774  -13.5835   19.9578 C   0  0  0  0  0  0  0  0  0  0  0  0
  -26.1184  -33.8671   25.1252 C   0  0  0  0  0  0  0  0  0  0  0  0
  -28.5746  -13.0064   20.1606 C   0  0  0  0  0  0  0  0  0  0  0  0
  -30.2402  -14.7727   20.8800 C   0  0  0  0  0  0  0  0  0  0  0  0
  -27.8301  -15.2624   21.0227 C   0  0  0  0  0  0  0  0  0  0  0  0
  -27.1382  -24.3144   20.9120 C   0  0  0  0  0  0  0  0  0  0  0  0
  -29.2180  -24.4465   20.6205 C   0  0  0  0  0  0  0  0  0  0  0  0
  -26.7587  -33.7013   23.7418 C   0  0  1  0  0  0  0  0  0  0  0  0
  -24.5334  -31.4423   21.6494 C   0  0  1  0  0  0  0  0  0  0  0  0
  -27.4955  -14.1032   20.0698 C   0  0  2  0  0  0  0  0  0  0  0  0
  -28.1049  -25.4961   20.7517 C   0  0  0  0  0  0  0  0  0  1  0  0
  -18.2938  -26.9055   22.3484 C   0  0  0  0  0  0  0  0  0  0  0  0
  -23.2977  -29.6369   25.7205 C   0  0  0  0  0  0  0  0  0  0  0  0
  -21.3964  -28.0097   25.6463 C   0  0  0  0  0  0  0  0  0  0  0  0
  -20.9587  -30.4500   25.3701 C   0  0  0  0  0  0  0  0  0  0  0  0
  -20.1302  -27.7623   19.1282 C   0  0  0  0  0  0  0  0  0  0  0  0
  -22.0733  -29.1707   23.4957 C   0  0  1  0  0  0  0  0  0  0  0  0
  -19.2324  -27.7053   21.4583 C   0  0  2  0  0  0  0  0  0  0  0  0
  -21.9526  -29.3154   25.0391 C   0  0  0  0  0  0  0  0  0  0  0  0
  -25.6116  -13.5628   21.5666 N   0  0  0  0  0  0  0  0  0  0  0  0
  -26.1059  -13.5465   20.3170 N   0  0  0  0  0  0  0  0  0  0  0  0
  -28.2770  -23.4766   21.0620 N   0  0  0  0  0  0  0  0  0  0  0  0
  -23.8335  -30.2499   22.1315 N   0  0  0  0  0  0  0  0  0  0  0  0
  -29.1800  -15.7729   20.7368 N   0  0  0  0  0  0  0  0  0  0  0  0
  -25.5950  -12.9155   18.0918 N   0  0  0  0  0  0  0  0  0  0  0  0
  -21.8898  -11.7324   20.3871 N   0  0  0  0  0  0  0  0  0  0  0  0
  -28.4189  -17.9450   20.2220 N   0  0  0  0  0  0  0  0  0  0  0  0
  -25.8040  -33.1468   22.8061 N   0  0  0  0  0  0  0  0  0  0  0  0
  -20.8100  -28.8929   22.8210 N   0  0  0  0  0  0  0  0  0  0  0  0
  -19.2630  -27.0654   20.1127 N   0  3  0  0  0  0  0  0  0  0  0  0
  -22.8670  -11.7552   18.3127 O   0  0  0  0  0  0  0  0  0  0  0  0
  -26.1096  -30.8964   23.3204 O   0  0  0  0  0  0  0  0  0  0  0  0
  -22.0330  -31.4803   22.9565 O   0  0  0  0  0  0  0  0  0  0  0  0
  -21.4788  -26.9016   21.8389 O   0  0  0  0  0  0  0  0  0  0  0  0
  -30.6792  -17.4291   20.1424 O   0  0  0  0  0  0  0  0  0  0  0  0
  -21.0566  -12.3822   25.8569 O   0  0  0  0  0  0  0  0  0  0  0  0
  -27.8849  -26.3462   19.6017 O   0  0  0  0  0  0  0  0  0  1  0  0
  -18.4557   -7.5554   26.4419 F   0  0  0  0  0  0  0  0  0  0  0  0
  -21.4623  -10.8149   28.0978 F   0  0  0  0  0  0  0  0  0  0  0  0
  -30.9804  -22.1818   21.5279 Cl  0  0  0  0  0  0  0  0  0  0  0  0
  1  2  1  0  0  0  0
  1  5  2  0  0  0  0
  2  6  2  0  0  0  0
  3 10  2  0  0  0  0
  3 18  1  0  0  0  0
  4 11  1  0  0  0  0
  4 18  2  0  0  0  0
  5 20  1  0  0  0  0
  6 22  1  0  0  0  0
  7 12  2  0  0  0  0
  7 21  1  0  0  0  0
  8  9  2  0  0  0  0
  8 24  1  0  0  0  0
  9 25  1  0  0  0  0
 10 26  1  0  0  0  0
 11 26  2  0  0  0  0
 12 27  1  0  0  0  0
 13 14  2  0  0  0  0
 13 28  1  0  0  0  0
 14 29  1  0  0  0  0
 15 23  1  0  0  0  0
 15 27  2  0  0  0  0
 16 25  2  0  0  0  0
 16 31  1  0  0  0  0
 17 29  2  0  0  0  0
 17 30  1  0  0  0  0
 18 32  1  0  0  0  0
 19 32  1  0  0  0  0
 19 33  2  0  0  0  0
 19 34  1  0  0  0  0
 20 22  2  0  0  0  0
 20 39  1  0  0  0  0
 21 23  2  0  0  0  0
 21 40  1  0  0  0  0
 22 50  1  0  0  0  0
 23 41  1  0  0  0  0
 24 31  2  0  0  0  0
 24 64  1  0  0  0  0
 25 69  1  0  0  0  0
 26 78  1  0  0  0  0
 27 79  1  0  0  0  0
 28 30  2  0  0  0  0
 28 78  1  0  0  0  0
 29 80  1  0  0  0  0
 30 81  1  0  0  0  0
 31 82  1  0  0  0  0
 32 62  2  0  0  0  0
 33 63  1  0  0  0  0
 33 67  1  0  0  0  0
 34 68  1  0  0  0  0
 34 73  2  0  0  0  0
 35 51  1  0  0  0  0
 35 70  1  0  0  0  0
 35 74  2  0  0  0  0
 36 59  1  0  0  0  0
 36 65  1  0  0  0  0
 36 75  2  0  0  0  0
 37 60  1  0  0  0  0
 37 71  1  0  0  0  0
 37 76  2  0  0  0  0
 38 66  1  0  0  0  0
 38 69  1  0  0  0  0
 38 77  2  0  0  0  0
 39 42  1  0  0  0  0
 40 51  1  0  0  0  0
 41 65  1  0  0  0  0
 42 44  1  0  0  0  0
 43 45  1  0  0  0  0
 43 46  1  0  0  0  0
 44 50  1  0  0  0  0
 45 52  1  0  0  0  0
 46 66  1  0  0  0  0
 47 52  1  0  0  0  0
 47 66  1  0  0  0  0
 48 53  1  0  0  0  0
 48 64  1  0  0  0  0
 49 53  1  0  0  0  0
 49 64  1  0  0  0  0
 50 70  1  0  0  0  0
 51 65  1  0  0  0  0
 52 63  1  0  0  0  0
 53 79  1  0  0  0  0
 54 60  1  0  0  0  0
 55 61  1  0  0  0  0
 56 61  1  0  0  0  0
 57 61  1  0  0  0  0
 58 72  1  0  0  0  0
 59 61  1  0  0  0  0
 59 71  1  0  0  0  0
 60 72  1  0  0  0  0
 62 63  1  0  0  0  0
M  CHG  1  72   1
M  ISO  4  38 100  53 101  69 100  79 101
M  END
> <Batch ID>
0023

> <Smiles>
CNC(C)C(=O)NC(C(=O)N1Cc2cc([101O:1][101CH:1]3CN(c4ccc([100NH:0][100C:0](=O)N5CCCC(n6nc(-c7ccc(Oc8ccc(F)cc8F)cc7)c(C(N)=O)c6N)C5)cc4Cl)C3)ccc2CC1C(=O)NC1CCCc2ccccc21)C(C)(C)C

> <Shape>
0.296

> <Color>
0.085

> <Negative vol penalty>
0.000

$$$$

  -OEChem-04042321173D

 84 93  0     1  0  0  0  0  0999 V2000
  -28.9198  -23.7311   18.3078 C   0  0  0  0  0  0  0  0  0  0  0  0
  -27.7247  -23.9504   18.9855 C   0  0  0  0  0  0  0  0  0  0  0  0
  -26.5940  -17.6943   21.5851 C   0  0  0  0  0  0  0  0  0  0  0  0
  -27.8160  -15.6693   22.0782 C   0  0  0  0  0  0  0  0  0  0  0  0
  -20.5146  -22.0088   27.7195 C   0  0  0  0  0  0  0  0  0  0  0  0
  -30.0671  -24.4331   18.6752 C   0  0  0  0  0  0  0  0  0  0  0  0
  -27.6766  -24.8710   20.0317 C   0  0  0  0  0  0  0  0  0  0  0  0
  -23.6086  -27.8772   19.7885 C   0  0  0  0  0  0  0  0  0  0  0  0
  -20.1311  -23.0587   26.8852 C   0  0  0  0  0  0  0  0  0  0  0  0
  -27.7020  -18.1968   20.9027 C   0  0  0  0  0  0  0  0  0  0  0  0
  -28.9240  -16.1718   21.3958 C   0  0  0  0  0  0  0  0  0  0  0  0
  -22.3941  -27.3408   20.2141 C   0  0  0  0  0  0  0  0  0  0  0  0
  -29.9214  -16.5237   18.1862 C   0  0  0  0  0  0  0  0  0  0  0  0
  -30.5824  -15.6665   17.3065 C   0  0  0  0  0  0  0  0  0  0  0  0
  -21.7237  -20.9960   25.8894 C   0  0  0  0  0  0  0  0  0  0  0  0
  -22.6439  -28.4707   22.3308 C   0  0  0  0  0  0  0  0  0  0  0  0
  -32.6126  -15.9117   18.5931 C   0  0  0  0  0  0  0  0  0  0  0  0
  -26.6511  -16.4306   22.1729 C   0  0  0  0  0  0  0  0  0  0  0  0
  -21.3109  -20.9774   27.2217 C   0  0  0  0  0  0  0  0  0  0  0  0
  -24.4541  -15.1453   22.3432 C   0  0  0  0  0  0  0  0  0  0  0  0
  -30.0306  -25.3698   19.7201 C   0  0  0  0  0  0  0  0  0  0  0  0
  -24.3563  -28.7070   20.6363 C   0  0  0  0  0  0  0  0  0  0  0  0
  -28.8248  -25.5851   20.4143 C   0  0  0  0  0  0  0  0  0  0  0  0
  -23.8663  -29.0184   21.9126 C   0  0  0  0  0  0  0  0  0  0  0  0
  -20.5438  -23.0773   25.5529 C   0  0  0  0  0  0  0  0  0  0  0  0
  -28.8670  -17.4355   20.8081 C   0  0  0  0  0  0  0  0  0  0  0  0
  -21.9130  -27.6352   21.4865 C   0  0  0  0  0  0  0  0  0  0  0  0
  -30.6060  -17.0751   19.2693 C   0  0  0  0  0  0  0  0  0  0  0  0
  -31.9279  -15.3604   17.5100 C   0  0  0  0  0  0  0  0  0  0  0  0
  -21.3401  -22.0459   25.0550 C   0  0  0  0  0  0  0  0  0  0  0  0
  -31.9516  -16.7690   19.4727 C   0  0  0  0  0  0  0  0  0  0  0  0
  -25.5071  -15.9113   22.8783 C   0  0  0  0  0  0  0  0  0  0  0  0
  -23.6263  -14.9052   23.4126 C   0  0  0  0  0  0  0  0  0  0  0  0
  -21.7168  -19.8677   28.1024 C   0  0  0  0  0  0  0  0  0  0  0  0
  -24.2432  -14.6913   20.9997 C   0  0  0  0  0  0  0  0  0  0  0  0
  -27.2432  -28.5469   21.9569 C   0  0  0  0  0  0  0  0  0  0  0  0
  -26.5373  -31.5595   22.9306 C   0  0  0  0  0  0  0  0  0  0  0  0
  -24.1465  -33.8830   23.6603 C   0  0  0  0  0  0  0  0  0  0  0  0
  -22.7928  -17.8860   28.5568 C   0  0  0  0  0  0  0  0  0  0  0  0
  -31.3076  -26.0699   20.1123 C   0  0  0  0  0  0  0  0  0  0  0  0
  -25.6515  -29.2991   20.1522 C   0  0  0  0  0  0  0  0  0  0  0  0
  -24.6210  -29.9203   22.8535 C   0  0  0  0  0  0  0  0  0  0  0  0
  -31.0835  -27.3016   20.9858 C   0  0  0  0  0  0  0  0  0  0  0  0
  -23.6765  -14.4118   28.1646 C   0  0  0  0  0  0  0  0  0  0  0  0
  -30.0954  -26.9895   22.1051 C   0  0  0  0  0  0  0  0  0  0  0  0
  -24.1820  -14.3428   26.7237 C   0  0  0  0  0  0  0  0  0  0  0  0
  -24.0377  -15.7405   28.8218 C   0  0  0  0  0  0  0  0  0  0  0  0
  -19.3640  -25.2899   24.9555 C   0  0  0  0  0  0  0  0  0  0  0  0
  -20.2370  -24.3030   23.3062 C   0  0  0  0  0  0  0  0  0  0  0  0
  -24.0736  -16.8719   26.6156 C   0  0  0  0  0  0  0  0  0  0  0  0
  -28.7266  -26.5937   21.5383 C   0  0  1  0  0  0  0  0  0  0  0  0
  -26.5789  -29.7175   21.2890 C   0  0  1  0  0  0  0  0  0  0  0  0
  -19.6294  -25.7032   23.4977 C   0  0  0  0  0  0  0  0  0  0  0  0
  -23.7001  -15.5571   25.9100 C   0  0  1  0  0  0  0  0  0  0  0  0
  -23.8750  -36.2434   24.4678 C   0  0  0  0  0  0  0  0  0  0  0  0
  -27.1911  -30.6601   25.7720 C   0  0  0  0  0  0  0  0  0  0  0  0
  -26.0157  -32.7038   26.6148 C   0  0  0  0  0  0  0  0  0  0  0  0
  -28.0406  -32.9357   25.1766 C   0  0  0  0  0  0  0  0  0  0  0  0
  -22.7811  -34.7023   21.1656 C   0  0  0  0  0  0  0  0  0  0  0  0
  -20.5828  -26.8701   23.3035 C   0  0  0  0  0  0  0  0  0  1  0  0
  -25.8674  -32.1622   24.1418 C   0  0  1  0  0  0  0  0  0  0  0  0
  -23.9978  -35.3377   23.2524 C   0  0  2  0  0  0  0  0  0  0  0  0
  -26.7652  -32.0969   25.4095 C   0  0  0  0  0  0  0  0  0  0  0  0
  -25.3637  -16.1426   24.1860 N   0  0  0  0  0  0  0  0  0  0  0  0
  -22.4517  -18.8938   27.6750 N   0  0  0  0  0  0  0  0  0  0  0  0
  -24.2108  -15.5183   24.4815 N   0  0  0  0  0  0  0  0  0  0  0  0
  -20.1565  -24.1330   24.7163 N   0  0  0  0  0  0  0  0  0  0  0  0
  -25.8853  -30.4696   22.3366 N   0  0  0  0  0  0  0  0  0  0  0  0
  -23.5935  -16.8699   28.0038 N   0  0  0  0  0  0  0  0  0  0  0  0
  -22.4627  -14.2315   23.5334 N   0  0  0  0  0  0  0  0  0  0  0  0
  -25.1920  -15.0272   20.0243 N   0  0  0  0  0  0  0  0  0  0  0  0
  -28.0009  -27.7679   21.1034 N   0  0  0  0  0  0  0  0  0  0  0  0
  -25.4712  -33.5132   23.7592 N   0  0  0  0  0  0  0  0  0  0  0  0
  -22.7832  -35.5172   22.4077 N   0  3  0  0  0  0  0  0  0  0  0  0
  -23.2347  -14.0220   20.6704 O   0  0  0  0  0  0  0  0  0  0  0  0
  -27.0816  -28.3649   23.1579 O   0  0  0  0  0  0  0  0  0  0  0  0
  -27.5963  -32.0427   22.5222 O   0  0  0  0  0  0  0  0  0  0  0  0
  -23.1839  -33.1493   23.8737 O   0  0  0  0  0  0  0  0  0  0  0  0
  -22.4418  -17.8589   29.7388 O   0  0  0  0  0  0  0  0  0  0  0  0
  -29.9482  -17.9254   20.1421 O   0  0  0  0  0  0  0  0  0  0  0  0
  -20.7282  -27.1124   21.9047 O   0  0  0  0  0  0  0  0  0  1  0  0
  -32.5621  -14.5360   16.6660 F   0  0  0  0  0  0  0  0  0  0  0  0
  -21.7424  -22.0534   23.7761 F   0  0  0  0  0  0  0  0  0  0  0  0
  -32.6143  -17.2947   20.5121 F   0  0  0  0  0  0  0  0  0  0  0  0
  1  2  1  0  0  0  0
  1  6  2  0  0  0  0
  2  7  2  0  0  0  0
  3 10  2  0  0  0  0
  3 18  1  0  0  0  0
  4 11  1  0  0  0  0
  4 18  2  0  0  0  0
  5  9  2  0  0  0  0
  5 19  1  0  0  0  0
  6 21  1  0  0  0  0
  7 23  1  0  0  0  0
  8 12  2  0  0  0  0
  8 22  1  0  0  0  0
  9 25  1  0  0  0  0
 10 26  1  0  0  0  0
 11 26  2  0  0  0  0
 12 27  1  0  0  0  0
 13 14  2  0  0  0  0
 13 28  1  0  0  0  0
 14 29  1  0  0  0  0
 15 19  2  0  0  0  0
 15 30  1  0  0  0  0
 16 24  1  0  0  0  0
 16 27  2  0  0  0  0
 17 29  2  0  0  0  0
 17 31  1  0  0  0  0
 18 32  1  0  0  0  0
 19 34  1  0  0  0  0
 20 32  1  0  0  0  0
 20 33  2  0  0  0  0
 20 35  1  0  0  0  0
 21 23  2  0  0  0  0
 21 40  1  0  0  0  0
 22 24  2  0  0  0  0
 22 41  1  0  0  0  0
 23 51  1  0  0  0  0
 24 42  1  0  0  0  0
 25 30  2  0  0  0  0
 25 67  1  0  0  0  0
 26 80  1  0  0  0  0
 27 81  1  0  0  0  0
 28 31  2  0  0  0  0
 28 80  1  0  0  0  0
 29 82  1  0  0  0  0
 30 83  1  0  0  0  0
 31 84  1  0  0  0  0
 32 64  2  0  0  0  0
 33 66  1  0  0  0  0
 33 70  1  0  0  0  0
 34 65  2  0  0  0  0
 35 71  1  0  0  0  0
 35 75  2  0  0  0  0
 36 52  1  0  0  0  0
 36 72  1  0  0  0  0
 36 76  2  0  0  0  0
 37 61  1  0  0  0  0
 37 68  1  0  0  0  0
 37 77  2  0  0  0  0
 38 62  1  0  0  0  0
 38 73  1  0  0  0  0
 38 78  2  0  0  0  0
 39 65  1  0  0  0  0
 39 69  1  0  0  0  0
 39 79  2  0  0  0  0
 40 43  1  0  0  0  0
 41 52  1  0  0  0  0
 42 68  1  0  0  0  0
 43 45  1  0  0  0  0
 44 46  1  0  0  0  0
 44 47  1  0  0  0  0
 45 51  1  0  0  0  0
 46 54  1  0  0  0  0
 47 69  1  0  0  0  0
 48 53  1  0  0  0  0
 48 67  1  0  0  0  0
 49 53  1  0  0  0  0
 49 67  1  0  0  0  0
 50 54  1  0  0  0  0
 50 69  1  0  0  0  0
 51 72  1  0  0  0  0
 52 68  1  0  0  0  0
 53 60  1  0  0  0  0
 54 66  1  0  0  0  0
 55 62  1  0  0  0  0
 56 63  1  0  0  0  0
 57 63  1  0  0  0  0
 58 63  1  0  0  0  0
 59 74  1  0  0  0  0
 60 81  1  0  0  0  0
 61 63  1  0  0  0  0
 61 73  1  0  0  0  0
 62 74  1  0  0  0  0
 64 66  1  0  0  0  0
M  CHG  1  74   1
M  ISO  4  39 100  60 101  65 100  81 101
M  END
> <Batch ID>
0023

> <Smiles>
CNC(C)C(=O)NC(C(=O)N1Cc2cc([101O:1][101CH2:1]C3CN(c4ccc(C=[100N:0][100C:0](=O)N5CCCC(n6nc(-c7ccc(Oc8ccc(F)cc8F)cc7)c(C(N)=O)c6N)C5)cc4F)C3)ccc2CC1C(=O)NC1CCCc2ccccc21)C(C)(C)C

> <Shape>
0.222

> <Color>
0.075

> <Negative vol penalty>
0.000

$$$$

  -OEChem-04042321173D

 86 95  0     1  0  0  0  0  0999 V2000
  -27.5999  -33.9541   24.0707 C   0  0  0  0  0  0  0  0  0  0  0  0
  -27.8584  -32.5950   24.2167 C   0  0  0  0  0  0  0  0  0  0  0  0
  -23.3142   -9.8328   19.8882 C   0  0  0  0  0  0  0  0  0  0  0  0
  -23.7358   -9.9497   22.2643 C   0  0  0  0  0  0  0  0  0  0  0  0
  -26.3027  -34.3913   23.8060 C   0  0  0  0  0  0  0  0  0  0  0  0
  -26.8195  -31.6722   24.0991 C   0  0  0  0  0  0  0  0  0  0  0  0
  -27.1585  -26.0263   21.7508 C   0  0  0  0  0  0  0  0  0  0  0  0
  -27.1580  -18.2911   19.3212 C   0  0  0  0  0  0  0  0  0  0  0  0
  -27.5234  -17.4765   18.2495 C   0  0  0  0  0  0  0  0  0  0  0  0
  -22.5995   -8.6494   20.0732 C   0  0  0  0  0  0  0  0  0  0  0  0
  -23.0211   -8.7662   22.4493 C   0  0  0  0  0  0  0  0  0  0  0  0
  -27.2849  -24.7703   22.3426 C   0  0  0  0  0  0  0  0  0  0  0  0
  -19.5161   -7.7392   21.1207 C   0  0  0  0  0  0  0  0  0  0  0  0
  -18.2963   -7.6082   20.4572 C   0  0  0  0  0  0  0  0  0  0  0  0
  -24.8931  -24.4799   22.2232 C   0  0  0  0  0  0  0  0  0  0  0  0
  -19.1344   -5.6591   19.3013 C   0  0  0  0  0  0  0  0  0  0  0  0
  -23.8824  -10.4830   20.9838 C   0  0  0  0  0  0  0  0  0  0  0  0
  -24.1138  -13.0181   20.8190 C   0  0  0  0  0  0  0  0  0  0  0  0
  -25.2492  -33.4728   23.6756 C   0  0  0  0  0  0  0  0  0  0  0  0
  -25.8952  -26.5240   21.4001 C   0  0  0  0  0  0  0  0  0  0  0  0
  -25.5068  -32.0977   23.8337 C   0  0  0  0  0  0  0  0  0  0  0  0
  -24.7536  -25.7415   21.6247 C   0  0  0  0  0  0  0  0  0  0  0  0
  -27.9603  -18.3457   20.4610 C   0  0  0  0  0  0  0  0  0  0  0  0
  -28.6910  -16.7164   18.3176 C   0  0  0  0  0  0  0  0  0  0  0  0
  -22.4530   -8.1160   21.3537 C   0  0  0  0  0  0  0  0  0  0  0  0
  -26.1519  -23.9981   22.5815 C   0  0  0  0  0  0  0  0  0  0  0  0
  -20.5452   -6.8303   20.8745 C   0  0  0  0  0  0  0  0  0  0  0  0
  -18.1054   -6.5681   19.5475 C   0  0  0  0  0  0  0  0  0  0  0  0
  -20.3543   -5.7903   19.9649 C   0  0  0  0  0  0  0  0  0  0  0  0
  -29.1279  -17.5856   20.5290 C   0  0  0  0  0  0  0  0  0  0  0  0
  -29.4933  -16.7710   19.4574 C   0  0  0  0  0  0  0  0  0  0  0  0
  -24.6212  -11.7052   20.7933 C   0  0  0  0  0  0  0  0  0  0  0  0
  -25.2088  -13.8140   20.5864 C   0  0  0  0  0  0  0  0  0  0  0  0
  -26.5330  -19.9731   21.6996 C   0  0  0  0  0  0  0  0  0  0  0  0
  -22.7726  -13.4772   21.0339 C   0  0  0  0  0  0  0  0  0  0  0  0
  -24.1523  -29.0350   22.2723 C   0  0  0  0  0  0  0  0  0  0  0  0
  -22.1849  -27.9982   19.9108 C   0  0  0  0  0  0  0  0  0  0  0  0
  -21.1025  -25.4080   17.9701 C   0  0  0  0  0  0  0  0  0  0  0  0
  -29.7950  -14.6795   17.3567 C   0  0  0  0  0  0  0  0  0  0  0  0
  -23.8552  -33.9963   23.4361 C   0  0  0  0  0  0  0  0  0  0  0  0
  -25.7783  -27.8695   20.7381 C   0  0  0  0  0  0  0  0  0  0  0  0
  -23.3765  -26.2215   21.2483 C   0  0  0  0  0  0  0  0  0  0  0  0
  -22.8775  -32.9274   22.9546 C   0  0  0  0  0  0  0  0  0  0  0  0
  -30.1403  -12.7473   20.4937 C   0  0  0  0  0  0  0  0  0  0  0  0
  -23.0051  -31.6662   23.8029 C   0  0  0  0  0  0  0  0  0  0  0  0
  -28.7003  -12.3422   20.8030 C   0  0  0  0  0  0  0  0  0  0  0  0
  -30.3714  -12.9179   18.9953 C   0  0  0  0  0  0  0  0  0  0  0  0
  -28.3615  -19.6089   22.6701 C   0  0  0  0  0  0  0  0  0  0  0  0
  -27.9788  -13.4704   18.6609 C   0  0  0  0  0  0  0  0  0  0  0  0
  -24.4108  -31.0643   23.6886 C   0  0  1  0  0  0  0  0  0  0  0  0
  -27.1813  -20.5683   22.9688 C   0  0  1  0  0  0  0  0  0  0  0  0
  -24.3944  -28.4929   20.8920 C   0  0  1  0  0  0  0  0  0  0  0  0
  -27.7100  -13.3317   20.1669 C   0  0  1  0  0  0  0  0  0  0  0  0
  -19.4584  -24.8593   16.1554 C   0  0  0  0  0  0  0  0  0  0  0  0
  -19.9221  -28.0200   21.9576 C   0  0  0  0  0  0  0  0  0  0  0  0
  -18.5845  -26.5975   20.3905 C   0  0  0  0  0  0  0  0  0  0  0  0
  -19.2930  -28.8868   19.6977 C   0  0  0  0  0  0  0  0  0  0  0  0
  -28.9105  -16.4123   15.8579 C   0  0  0  0  0  0  0  0  0  0  0  0
  -23.2551  -24.6180   16.0989 C   0  0  0  0  0  0  0  0  0  0  0  0
  -27.4807  -22.0539   22.9134 C   0  0  0  0  0  0  0  0  0  1  0  0
  -21.0180  -27.0435   19.8336 C   0  0  1  0  0  0  0  0  0  0  0  0
  -20.8803  -25.2957   16.4726 C   0  0  2  0  0  0  0  0  0  0  0  0
  -19.7300  -27.6284   20.4788 C   0  0  0  0  0  0  0  0  0  0  0  0
  -25.9362  -11.6651   20.5624 N   0  0  0  0  0  0  0  0  0  0  0  0
  -26.2643  -12.9627   20.4408 N   0  0  0  0  0  0  0  0  0  0  0  0
  -27.5977  -19.1504   21.5168 N   0  0  0  0  0  0  0  0  0  0  0  0
  -23.3135  -27.5464   20.6093 N   0  0  0  0  0  0  0  0  0  0  0  0
  -29.3845  -13.8154   18.3926 N   0  0  0  0  0  0  0  0  0  0  0  0
  -25.3620  -15.1521   20.4941 N   0  0  0  0  0  0  0  0  0  0  0  0
  -21.7686  -12.5254   21.2582 N   0  0  0  0  0  0  0  0  0  0  0  0
  -24.5533  -30.3467   22.4400 N   0  0  0  0  0  0  0  0  0  0  0  0
  -20.8731  -26.6890   18.4258 N   0  0  0  0  0  0  0  0  0  0  0  0
  -29.0662  -15.8748   17.2077 N   0  0  0  0  0  0  0  0  0  0  0  0
  -21.8200  -24.3008   15.8826 N   0  3  0  0  0  0  0  0  0  0  0  0
  -25.5176  -20.1618   21.0693 O   0  0  0  0  0  0  0  0  0  0  0  0
  -22.4706  -14.6945   21.0111 O   0  0  0  0  0  0  0  0  0  0  0  0
  -23.6382  -28.3169   23.1219 O   0  0  0  0  0  0  0  0  0  0  0  0
  -22.1009  -29.1013   19.3651 O   0  0  0  0  0  0  0  0  0  0  0  0
  -21.4418  -24.4539   18.6665 O   0  0  0  0  0  0  0  0  0  0  0  0
  -30.7121  -14.3821   16.5814 O   0  0  0  0  0  0  0  0  0  0  0  0
  -21.7555   -6.9613   21.5347 O   0  0  0  0  0  0  0  0  0  0  0  0
  -26.2724  -22.7721   23.1597 O   0  0  0  0  0  0  0  0  0  1  0  0
  -16.9333   -6.4414   18.9115 F   0  0  0  0  0  0  0  0  0  0  0  0
  -21.3388   -4.9133   19.7251 F   0  0  0  0  0  0  0  0  0  0  0  0
  -29.9057  -17.6286   21.6204 F   0  0  0  0  0  0  0  0  0  0  0  0
  -30.6165  -16.0432   19.5350 F   0  0  0  0  0  0  0  0  0  0  0  0
  1  2  1  0  0  0  0
  1  5  2  0  0  0  0
  2  6  2  0  0  0  0
  3 10  2  0  0  0  0
  3 17  1  0  0  0  0
  4 11  1  0  0  0  0
  4 17  2  0  0  0  0
  5 19  1  0  0  0  0
  6 21  1  0  0  0  0
  7 12  2  0  0  0  0
  7 20  1  0  0  0  0
  8  9  2  0  0  0  0
  8 23  1  0  0  0  0
  9 24  1  0  0  0  0
 10 25  1  0  0  0  0
 11 25  2  0  0  0  0
 12 26  1  0  0  0  0
 13 14  2  0  0  0  0
 13 27  1  0  0  0  0
 14 28  1  0  0  0  0
 15 22  1  0  0  0  0
 15 26  2  0  0  0  0
 16 28  2  0  0  0  0
 16 29  1  0  0  0  0
 17 32  1  0  0  0  0
 18 32  1  0  0  0  0
 18 33  2  0  0  0  0
 18 35  1  0  0  0  0
 19 21  2  0  0  0  0
 19 40  1  0  0  0  0
 20 22  2  0  0  0  0
 20 41  1  0  0  0  0
 21 50  1  0  0  0  0
 22 42  1  0  0  0  0
 23 30  2  0  0  0  0
 23 66  1  0  0  0  0
 24 31  2  0  0  0  0
 24 73  1  0  0  0  0
 25 81  1  0  0  0  0
 26 82  1  0  0  0  0
 27 29  2  0  0  0  0
 27 81  1  0  0  0  0
 28 83  1  0  0  0  0
 29 84  1  0  0  0  0
 30 31  1  0  0  0  0
 30 85  1  0  0  0  0
 31 86  1  0  0  0  0
 32 64  2  0  0  0  0
 33 65  1  0  0  0  0
 33 69  1  0  0  0  0
 34 51  1  0  0  0  0
 34 66  1  0  0  0  0
 34 75  2  0  0  0  0
 35 70  1  0  0  0  0
 35 76  2  0  0  0  0
 36 52  1  0  0  0  0
 36 71  1  0  0  0  0
 36 77  2  0  0  0  0
 37 61  1  0  0  0  0
 37 67  1  0  0  0  0
 37 78  2  0  0  0  0
 38 62  1  0  0  0  0
 38 72  1  0  0  0  0
 38 79  2  0  0  0  0
 39 68  1  0  0  0  0
 39 73  1  0  0  0  0
 39 80  2  0  0  0  0
 40 43  1  0  0  0  0
 41 52  1  0  0  0  0
 42 67  1  0  0  0  0
 43 45  1  0  0  0  0
 44 46  1  0  0  0  0
 44 47  1  0  0  0  0
 45 50  1  0  0  0  0
 46 53  1  0  0  0  0
 47 68  1  0  0  0  0
 48 51  1  0  0  0  0
 48 66  1  0  0  0  0
 49 53  1  0  0  0  0
 49 68  1  0  0  0  0
 50 71  1  0  0  0  0
 51 60  1  0  0  0  0
 52 67  1  0  0  0  0
 53 65  1  0  0  0  0
 54 62  1  0  0  0  0
 55 63  1  0  0  0  0
 56 63  1  0  0  0  0
 57 63  1  0  0  0  0
 58 73  1  0  0  0  0
 59 74  1  0  0  0  0
 60 82  1  0  0  0  0
 61 63  1  0  0  0  0
 61 72  1  0  0  0  0
 62 74  1  0  0  0  0
 64 65  1  0  0  0  0
M  CHG  1  74   1
M  ISO  4  39 100  60 101  73 100  82 101
M  END
> <Batch ID>
0023

> <Smiles>
CNC(C)C(=O)NC(C(=O)N1Cc2cc([101O:1][101CH2:1]C3CN(c4ccc([100N:0](C)[100C:0](=O)N5CCCC(n6nc(-c7ccc(Oc8ccc(F)cc8F)cc7)c(C(N)=O)c6N)C5)c(F)c4F)C3=O)ccc2CC1C(=O)NC1CCCc2ccccc21)C(C)(C)C

> <Shape>
0.259

> <Color>
0.194

> <Negative vol penalty>
0.000

$$$$

  -OEChem-04042321173D

 83 92  0     1  0  0  0  0  0999 V2000
  -16.8821  -30.0118   24.3143 C   0  0  0  0  0  0  0  0  0  0  0  0
  -17.2143  -28.7107   24.6777 C   0  0  0  0  0  0  0  0  0  0  0  0
  -21.9803  -14.7080   18.6892 C   0  0  0  0  0  0  0  0  0  0  0  0
  -23.0413  -13.8170   18.8495 C   0  0  0  0  0  0  0  0  0  0  0  0
  -30.7983  -22.4398   18.4772 C   0  0  0  0  0  0  0  0  0  0  0  0
  -28.4107  -22.6663   18.1855 C   0  0  0  0  0  0  0  0  0  0  0  0
  -17.4391  -30.5781   23.1685 C   0  0  0  0  0  0  0  0  0  0  0  0
  -18.1029  -27.9746   23.8948 C   0  0  0  0  0  0  0  0  0  0  0  0
  -23.1852  -22.9556   24.4385 C   0  0  0  0  0  0  0  0  0  0  0  0
  -22.1171  -16.0357   19.0946 C   0  0  0  0  0  0  0  0  0  0  0  0
  -24.2392  -14.2535   19.4153 C   0  0  0  0  0  0  0  0  0  0  0  0
  -31.0114  -23.2452   17.3585 C   0  0  0  0  0  0  0  0  0  0  0  0
  -28.6238  -23.4718   17.0668 C   0  0  0  0  0  0  0  0  0  0  0  0
  -23.5381  -21.7177   23.9030 C   0  0  0  0  0  0  0  0  0  0  0  0
  -29.4568  -26.6856   16.4359 C   0  0  0  0  0  0  0  0  0  0  0  0
  -28.6974  -27.8502   16.3236 C   0  0  0  0  0  0  0  0  0  0  0  0
  -24.4996  -22.8267   21.9887 C   0  0  0  0  0  0  0  0  0  0  0  0
  -27.7796  -27.0504   14.2367 C   0  0  0  0  0  0  0  0  0  0  0  0
  -29.4979  -22.1502   18.8906 C   0  0  0  0  0  0  0  0  0  0  0  0
  -29.1532  -21.7364   21.3841 C   0  0  0  0  0  0  0  0  0  0  0  0
  -18.3424  -29.8520   22.3764 C   0  0  0  0  0  0  0  0  0  0  0  0
  -23.4776  -24.1398   23.7468 C   0  0  0  0  0  0  0  0  0  0  0  0
  -18.6715  -28.5313   22.7365 C   0  0  0  0  0  0  0  0  0  0  0  0
  -24.1516  -24.0785   22.5188 C   0  0  0  0  0  0  0  0  0  0  0  0
  -23.3150  -16.4722   19.6604 C   0  0  0  0  0  0  0  0  0  0  0  0
  -24.3761  -15.5811   19.8208 C   0  0  0  0  0  0  0  0  0  0  0  0
  -29.9242  -23.7613   16.6534 C   0  0  0  0  0  0  0  0  0  0  0  0
  -24.1928  -21.6529   22.6765 C   0  0  0  0  0  0  0  0  0  0  0  0
  -29.3777  -25.7035   15.4486 C   0  0  0  0  0  0  0  0  0  0  0  0
  -27.8588  -28.0326   15.2240 C   0  0  0  0  0  0  0  0  0  0  0  0
  -28.5391  -25.8859   14.3490 C   0  0  0  0  0  0  0  0  0  0  0  0
  -29.2771  -21.3178   20.0458 C   0  0  0  0  0  0  0  0  0  0  0  0
  -28.9559  -20.5750   22.0903 C   0  0  0  0  0  0  0  0  0  0  0  0
  -23.6946  -18.3049   21.3701 C   0  0  0  0  0  0  0  0  0  0  0  0
  -29.2111  -23.0570   21.9394 C   0  0  0  0  0  0  0  0  0  0  0  0
  -21.7453  -26.4946   22.4988 C   0  0  0  0  0  0  0  0  0  0  0  0
  -24.6539  -27.8303   21.9707 C   0  0  0  0  0  0  0  0  0  0  0  0
  -28.1324  -27.6908   21.0230 C   0  0  0  0  0  0  0  0  0  0  0  0
  -26.7409  -15.2255   20.6130 C   0  0  0  0  0  0  0  0  0  0  0  0
  -18.8822  -30.4898   21.1208 C   0  0  0  0  0  0  0  0  0  0  0  0
  -23.1140  -25.4685   24.3507 C   0  0  0  0  0  0  0  0  0  0  0  0
  -24.5065  -25.3216   21.7460 C   0  0  0  0  0  0  0  0  0  0  0  0
  -20.1048  -29.7746   20.5515 C   0  0  0  0  0  0  0  0  0  0  0  0
  -29.9675  -15.8959   21.9609 C   0  0  0  0  0  0  0  0  0  0  0  0
  -19.8729  -28.2674   20.5155 C   0  0  0  0  0  0  0  0  0  0  0  0
  -30.1428  -17.4015   21.7500 C   0  0  0  0  0  0  0  0  0  0  0  0
  -23.8175  -20.1373   19.8513 C   0  0  0  0  0  0  0  0  0  0  0  0
  -29.2188  -15.2440   20.7998 C   0  0  0  0  0  0  0  0  0  0  0  0
  -23.2235  -18.9366   19.1436 C   0  0  0  0  0  0  0  0  0  0  0  0
  -28.1085  -17.3736   20.2508 C   0  0  0  0  0  0  0  0  0  0  0  0
  -19.6507  -27.7096   21.9265 C   0  0  1  0  0  0  0  0  0  0  0  0
  -23.5961  -19.8181   21.3183 C   0  0  2  0  0  0  0  0  0  1  0  0
  -23.0027  -26.5845   23.3165 C   0  0  1  0  0  0  0  0  0  0  0  0
  -28.8002  -18.0851   21.4251 C   0  0  2  0  0  0  0  0  0  0  0  0
  -30.3077  -28.9196   20.7880 C   0  0  0  0  0  0  0  0  0  0  0  0
  -23.8421  -28.1390   19.0457 C   0  0  0  0  0  0  0  0  0  0  0  0
  -26.2543  -28.5106   18.4878 C   0  0  0  0  0  0  0  0  0  0  0  0
  -25.0668  -30.0991   20.0009 C   0  0  0  0  0  0  0  0  0  0  0  0
  -29.1318  -26.6518   23.6077 C   0  0  0  0  0  0  0  0  0  0  0  0
  -25.6599  -27.7912   20.8458 C   0  0  1  0  0  0  0  0  0  0  0  0
  -29.3006  -28.3223   21.7585 C   0  0  2  0  0  0  0  0  0  0  0  0
  -25.1975  -28.6112   19.6084 C   0  0  0  0  0  0  0  0  0  0  0  0
  -29.1679  -19.9938   19.9074 N   0  0  0  0  0  0  0  0  0  0  0  0
  -28.9733  -19.5704   21.1680 N   0  0  0  0  0  0  0  0  0  0  0  0
  -23.4305  -17.8353   20.0673 N   0  0  0  0  0  0  0  0  0  0  0  0
  -24.1243  -26.5967   22.3751 N   0  0  0  0  0  0  0  0  0  0  0  0
  -27.9551  -15.9417   20.5524 N   0  0  0  0  0  0  0  0  0  0  0  0
  -28.7709  -20.3252   23.4040 N   0  0  0  0  0  0  0  0  0  0  0  0
  -29.4204  -24.1379   21.0720 N   0  0  0  0  0  0  0  0  0  0  0  0
  -25.6028  -16.0005   20.3928 N   0  0  0  0  0  0  0  0  0  0  0  0
  -20.9116  -27.5892   22.6267 N   0  0  0  0  0  0  0  0  0  0  0  0
  -26.9275  -28.2339   21.4164 N   0  0  0  0  0  0  0  0  0  0  0  0
  -29.9989  -27.3039   22.5928 N   0  3  0  0  0  0  0  0  0  0  0  0
  -23.9331  -17.6881   22.3978 O   0  0  0  0  0  0  0  0  0  0  0  0
  -29.0975  -23.2706   23.1702 O   0  0  0  0  0  0  0  0  0  0  0  0
  -21.5470  -25.5062   21.8021 O   0  0  0  0  0  0  0  0  0  0  0  0
  -24.3545  -28.9146   22.4768 O   0  0  0  0  0  0  0  0  0  0  0  0
  -28.2746  -26.8069   20.1810 O   0  0  0  0  0  0  0  0  0  0  0  0
  -26.7111  -14.0193   20.8703 O   0  0  0  0  0  0  0  0  0  0  0  0
  -30.1318  -24.5475   15.5619 O   0  0  0  0  0  0  0  0  0  0  0  0
  -24.5379  -20.4459   22.1512 O   0  0  0  0  0  0  0  0  0  1  0  0
  -27.1283  -29.1503   15.1171 F   0  0  0  0  0  0  0  0  0  0  0  0
  -28.4581  -24.9453   13.3978 F   0  0  0  0  0  0  0  0  0  0  0  0
  1  2  1  0  0  0  0
  1  7  2  0  0  0  0
  2  8  2  0  0  0  0
  3  4  1  0  0  0  0
  3 10  2  0  0  0  0
  4 11  2  0  0  0  0
  5 12  2  0  0  0  0
  5 19  1  0  0  0  0
  6 13  1  0  0  0  0
  6 19  2  0  0  0  0
  7 21  1  0  0  0  0
  8 23  1  0  0  0  0
  9 14  2  0  0  0  0
  9 22  1  0  0  0  0
 10 25  1  0  0  0  0
 11 26  1  0  0  0  0
 12 27  1  0  0  0  0
 13 27  2  0  0  0  0
 14 28  1  0  0  0  0
 15 16  2  0  0  0  0
 15 29  1  0  0  0  0
 16 30  1  0  0  0  0
 17 24  1  0  0  0  0
 17 28  2  0  0  0  0
 18 30  2  0  0  0  0
 18 31  1  0  0  0  0
 19 32  1  0  0  0  0
 20 32  1  0  0  0  0
 20 33  2  0  0  0  0
 20 35  1  0  0  0  0
 21 23  2  0  0  0  0
 21 40  1  0  0  0  0
 22 24  2  0  0  0  0
 22 41  1  0  0  0  0
 23 51  1  0  0  0  0
 24 42  1  0  0  0  0
 25 26  2  0  0  0  0
 25 65  1  0  0  0  0
 26 70  1  0  0  0  0
 27 80  1  0  0  0  0
 28 81  1  0  0  0  0
 29 31  2  0  0  0  0
 29 80  1  0  0  0  0
 30 82  1  0  0  0  0
 31 83  1  0  0  0  0
 32 63  2  0  0  0  0
 33 64  1  0  0  0  0
 33 68  1  0  0  0  0
 34 52  1  0  0  0  0
 34 65  1  0  0  0  0
 34 74  2  0  0  0  0
 35 69  1  0  0  0  0
 35 75  2  0  0  0  0
 36 53  1  0  0  0  0
 36 71  1  0  0  0  0
 36 76  2  0  0  0  0
 37 60  1  0  0  0  0
 37 66  1  0  0  0  0
 37 77  2  0  0  0  0
 38 61  1  0  0  0  0
 38 72  1  0  0  0  0
 38 78  2  0  0  0  0
 39 67  1  0  0  0  0
 39 70  1  0  0  0  0
 39 79  2  0  0  0  0
 40 43  1  0  0  0  0
 41 53  1  0  0  0  0
 42 66  1  0  0  0  0
 43 45  1  0  0  0  0
 44 46  1  0  0  0  0
 44 48  1  0  0  0  0
 45 51  1  0  0  0  0
 46 54  1  0  0  0  0
 47 49  1  0  0  0  0
 47 52  1  0  0  0  0
 48 67  1  0  0  0  0
 49 65  1  0  0  0  0
 50 54  1  0  0  0  0
 50 67  1  0  0  0  0
 51 71  1  0  0  0  0
 52 81  1  0  0  0  0
 53 66  1  0  0  0  0
 54 64  1  0  0  0  0
 55 61  1  0  0  0  0
 56 62  1  0  0  0  0
 57 62  1  0  0  0  0
 58 62  1  0  0  0  0
 59 73  1  0  0  0  0
 60 62  1  0  0  0  0
 60 72  1  0  0  0  0
 61 73  1  0  0  0  0
 63 64  1  0  0  0  0
M  CHG  1  73   1
M  ISO  4  39 100  52 101  70 100  81 101
M  END
> <Batch ID>
0023

> <Smiles>
CNC(C)C(=O)NC(C(=O)N1Cc2cc([101O:1][101CH:1]3CCN(c4ccccc4[100NH:0][100C:0](=O)N4CCCC(n5nc(-c6ccc(Oc7ccc(F)cc7F)cc6)c(C(N)=O)c5N)C4)C3=O)ccc2CC1C(=O)NC1CCCc2ccccc21)C(C)(C)C

> <Shape>
0.205

> <Color>
0.068

> <Negative vol penalty>
0.000

$$$$

  -OEChem-04042321173D

 86 95  0     1  0  0  0  0  0999 V2000
  -21.0604  -23.0240   19.2598 C   0  0  0  0  0  0  0  0  0  0  0  0
  -22.2586  -22.5857   18.7053 C   0  0  0  0  0  0  0  0  0  0  0  0
  -26.1401  -27.8670   18.8870 C   0  0  0  0  0  0  0  0  0  0  0  0
  -25.9603  -26.8846   21.0869 C   0  0  0  0  0  0  0  0  0  0  0  0
  -20.6272  -22.5058   20.4795 C   0  0  0  0  0  0  0  0  0  0  0  0
  -23.0250  -21.6296   19.3708 C   0  0  0  0  0  0  0  0  0  0  0  0
  -27.4498  -16.1434   18.0906 C   0  0  0  0  0  0  0  0  0  0  0  0
  -30.3395  -17.5076   23.2305 C   0  0  0  0  0  0  0  0  0  0  0  0
  -24.9836  -28.6098   19.1242 C   0  0  0  0  0  0  0  0  0  0  0  0
  -24.8038  -27.6275   21.3241 C   0  0  0  0  0  0  0  0  0  0  0  0
  -28.7193  -15.6807   18.4343 C   0  0  0  0  0  0  0  0  0  0  0  0
  -24.0155  -30.7986   22.1863 C   0  0  0  0  0  0  0  0  0  0  0  0
  -29.0658  -18.0414   23.4262 C   0  0  0  0  0  0  0  0  0  0  0  0
  -23.8991  -31.4371   23.4209 C   0  0  0  0  0  0  0  0  0  0  0  0
  -27.8325  -14.7979   20.4968 C   0  0  0  0  0  0  0  0  0  0  0  0
  -21.8912  -30.1757   23.8839 C   0  0  0  0  0  0  0  0  0  0  0  0
  -26.6284  -27.0042   19.8683 C   0  0  0  0  0  0  0  0  0  0  0  0
  -29.1494  -26.6157   19.9018 C   0  0  0  0  0  0  0  0  0  0  0  0
  -21.3840  -21.5357   21.1556 C   0  0  0  0  0  0  0  0  0  0  0  0
  -26.3625  -15.9461   18.9539 C   0  0  0  0  0  0  0  0  0  0  0  0
  -22.6023  -21.0989   20.6014 C   0  0  0  0  0  0  0  0  0  0  0  0
  -26.5498  -15.2568   20.1605 C   0  0  0  0  0  0  0  0  0  0  0  0
  -31.0190  -17.7445   22.0355 C   0  0  0  0  0  0  0  0  0  0  0  0
  -29.1509  -19.0489   21.2319 C   0  0  0  0  0  0  0  0  0  0  0  0
  -24.3155  -28.4902   20.3427 C   0  0  0  0  0  0  0  0  0  0  0  0
  -28.9114  -15.0104   19.6389 C   0  0  0  0  0  0  0  0  0  0  0  0
  -23.0697  -29.8487   21.8004 C   0  0  0  0  0  0  0  0  0  0  0  0
  -22.8370  -31.1256   24.2698 C   0  0  0  0  0  0  0  0  0  0  0  0
  -28.4715  -18.8120   22.4269 C   0  0  0  0  0  0  0  0  0  0  0  0
  -22.0076  -29.5372   22.6492 C   0  0  0  0  0  0  0  0  0  0  0  0
  -30.4247  -18.5151   21.0362 C   0  0  0  0  0  0  0  0  0  0  0  0
  -27.8227  -26.2361   19.6237 C   0  0  0  0  0  0  0  0  0  0  0  0
  -29.9064  -25.5472   19.4875 C   0  0  0  0  0  0  0  0  0  0  0  0
  -29.6527  -27.8260   20.4830 C   0  0  0  0  0  0  0  0  0  0  0  0
  -24.3799  -17.8602   20.5379 C   0  0  0  0  0  0  0  0  0  0  0  0
  -22.8941  -15.0710   21.2696 C   0  0  0  0  0  0  0  0  0  0  0  0
  -23.1087  -11.6858   21.6452 C   0  0  0  0  0  0  0  0  0  0  0  0
  -28.7374  -19.7231   18.8401 C   0  0  0  0  0  0  0  0  0  0  0  0
  -20.8984  -21.0396   22.4945 C   0  0  0  0  0  0  0  0  0  0  0  0
  -24.9942  -16.4278   18.5563 C   0  0  0  0  0  0  0  0  0  0  0  0
  -25.4113  -15.0015   21.1129 C   0  0  0  0  0  0  0  0  0  0  0  0
  -21.5835  -19.7548   22.9530 C   0  0  0  0  0  0  0  0  0  0  0  0
  -29.8967  -21.9553   16.3200 C   0  0  0  0  0  0  0  0  0  0  0  0
  -34.1329  -14.3384   20.6833 C   0  0  0  0  0  0  0  0  0  0  0  0
  -23.0932  -19.8568   22.7605 C   0  0  0  0  0  0  0  0  0  0  0  0
  -29.6227  -23.3409   16.9091 C   0  0  0  0  0  0  0  0  0  0  0  0
  -32.7986  -13.6390   20.8512 C   0  0  0  0  0  0  0  0  0  0  0  0
  -28.7990  -20.9571   16.6840 C   0  0  0  0  0  0  0  0  0  0  0  0
  -28.2293  -22.2411   18.7079 C   0  0  0  0  0  0  0  0  0  0  0  0
  -33.7505  -15.7414   20.2528 C   0  0  0  0  0  0  0  0  0  0  0  0
  -23.4493  -20.0449   21.2809 C   0  0  1  0  0  0  0  0  0  0  0  0
  -24.0603  -16.6235   19.7467 C   0  0  1  0  0  0  0  0  0  0  0  0
  -29.3407  -23.2642   18.4225 C   0  0  2  0  0  0  0  0  0  0  0  0
  -31.9534  -14.6929   21.5512 C   0  0  2  0  0  0  0  0  0  0  0  0
  -21.7383   -9.6844   22.2884 C   0  0  0  0  0  0  0  0  0  0  0  0
  -23.1001  -15.8764   24.2054 C   0  0  0  0  0  0  0  0  0  0  0  0
  -22.6108  -13.4991   24.8197 C   0  0  0  0  0  0  0  0  0  0  0  0
  -20.9206  -14.8331   23.5602 C   0  0  0  0  0  0  0  0  0  0  0  0
  -23.4913  -10.4270   18.9942 C   0  0  0  0  0  0  0  0  0  0  0  0
  -32.3892  -17.1694   21.8288 C   0  0  0  0  0  0  0  0  0  0  0  0
  -30.4600  -14.4945   21.3684 C   0  0  0  0  0  0  0  0  0  1  0  0
  -23.0155  -14.0539   22.3785 C   0  0  1  0  0  0  0  0  0  0  0  0
  -22.2247  -10.5585   21.1429 C   0  0  2  0  0  0  0  0  0  0  0  0
  -22.4338  -14.5720   23.7241 C   0  0  0  0  0  0  0  0  0  0  0  0
  -27.7382  -25.0214   19.0749 N   0  0  0  0  0  0  0  0  0  0  0  0
  -29.0214  -24.6284   19.0048 N   0  0  0  0  0  0  0  0  0  0  0  0
  -24.0937  -15.4975   20.6822 N   0  0  0  0  0  0  0  0  0  0  0  0
  -28.5900  -20.9354   18.1334 N   0  0  0  0  0  0  0  0  0  0  0  0
  -31.2359  -25.3133   19.4925 N   0  0  0  0  0  0  0  0  0  0  0  0
  -28.7372  -28.8211   20.8517 N   0  0  0  0  0  0  0  0  0  0  0  0
  -28.5464  -19.8316   20.2172 N   0  0  0  0  0  0  0  0  0  0  0  0
  -23.3542  -18.7855   20.5742 N   0  0  0  0  0  0  0  0  0  0  0  0
  -22.3847  -12.8345   21.8849 N   0  0  0  0  0  0  0  0  0  0  0  0
  -32.3987  -15.9947   20.8987 N   0  3  1  0  0  0  0  0  0  0  0  0
  -22.9748   -9.7005   20.1827 N   0  3  0  0  0  0  0  0  0  0  0  0
  -30.8791  -28.0260   20.6546 O   0  0  0  0  0  0  0  0  0  0  0  0
  -25.4753  -17.9663   21.0769 O   0  0  0  0  0  0  0  0  0  0  0  0
  -21.7757  -15.4670   20.9319 O   0  0  0  0  0  0  0  0  0  0  0  0
  -24.3197  -11.5588   21.8121 O   0  0  0  0  0  0  0  0  0  0  0  0
  -29.0395  -18.6719   18.2694 O   0  0  0  0  0  0  0  0  0  0  0  0
  -23.1871  -29.2151   20.5746 O   0  0  0  0  0  0  0  0  0  0  0  0
  -30.1495  -14.5583   19.9771 O   0  0  0  0  0  0  0  0  0  1  0  0
  -22.7262  -31.7377   25.4560 F   0  0  0  0  0  0  0  0  0  0  0  0
  -27.2468  -19.3198   22.6255 F   0  0  0  0  0  0  0  0  0  0  0  0
  -21.0966  -28.6246   22.2845 F   0  0  0  0  0  0  0  0  0  0  0  0
  -31.0801  -18.7420   19.8879 F   0  0  0  0  0  0  0  0  0  0  0  0
  1  2  1  0  0  0  0
  1  5  2  0  0  0  0
  2  6  2  0  0  0  0
  3  9  2  0  0  0  0
  3 17  1  0  0  0  0
  4 10  1  0  0  0  0
  4 17  2  0  0  0  0
  5 19  1  0  0  0  0
  6 21  1  0  0  0  0
  7 11  2  0  0  0  0
  7 20  1  0  0  0  0
  8 13  2  0  0  0  0
  8 23  1  0  0  0  0
  9 25  1  0  0  0  0
 10 25  2  0  0  0  0
 11 26  1  0  0  0  0
 12 14  2  0  0  0  0
 12 27  1  0  0  0  0
 13 29  1  0  0  0  0
 14 28  1  0  0  0  0
 15 22  1  0  0  0  0
 15 26  2  0  0  0  0
 16 28  2  0  0  0  0
 16 30  1  0  0  0  0
 17 32  1  0  0  0  0
 18 32  1  0  0  0  0
 18 33  2  0  0  0  0
 18 34  1  0  0  0  0
 19 21  2  0  0  0  0
 19 39  1  0  0  0  0
 20 22  2  0  0  0  0
 20 40  1  0  0  0  0
 21 51  1  0  0  0  0
 22 41  1  0  0  0  0
 23 31  2  0  0  0  0
 23 60  1  0  0  0  0
 24 29  2  0  0  0  0
 24 31  1  0  0  0  0
 24 71  1  0  0  0  0
 25 81  1  0  0  0  0
 26 82  1  0  0  0  0
 27 30  2  0  0  0  0
 27 81  1  0  0  0  0
 28 83  1  0  0  0  0
 29 84  1  0  0  0  0
 30 85  1  0  0  0  0
 31 86  1  0  0  0  0
 32 65  2  0  0  0  0
 33 66  1  0  0  0  0
 33 69  1  0  0  0  0
 34 70  1  0  0  0  0
 34 76  2  0  0  0  0
 35 52  1  0  0  0  0
 35 72  1  0  0  0  0
 35 77  2  0  0  0  0
 36 62  1  0  0  0  0
 36 67  1  0  0  0  0
 36 78  2  0  0  0  0
 37 63  1  0  0  0  0
 37 73  1  0  0  0  0
 37 79  2  0  0  0  0
 38 68  1  0  0  0  0
 38 71  1  0  0  0  0
 38 80  2  0  0  0  0
 39 42  1  0  0  0  0
 40 52  1  0  0  0  0
 41 67  1  0  0  0  0
 42 45  1  0  0  0  0
 43 46  1  0  0  0  0
 43 48  1  0  0  0  0
 44 47  1  0  0  0  0
 44 50  1  0  0  0  0
 45 51  1  0  0  0  0
 46 53  1  0  0  0  0
 47 54  1  0  0  0  0
 48 68  1  0  0  0  0
 49 53  1  0  0  0  0
 49 68  1  0  0  0  0
 50 74  1  0  0  0  0
 51 72  1  0  0  0  0
 52 67  1  0  0  0  0
 53 66  1  0  0  0  0
 54 61  1  0  0  0  0
 54 74  1  0  0  0  0
 55 63  1  0  0  0  0
 56 64  1  0  0  0  0
 57 64  1  0  0  0  0
 58 64  1  0  0  0  0
 59 75  1  0  0  0  0
 60 74  1  0  0  0  0
 61 82  1  0  0  0  0
 62 64  1  0  0  0  0
 62 73  1  0  0  0  0
 63 75  1  0  0  0  0
 65 66  1  0  0  0  0
M  CHG  2  74   1  75   1
M  ISO  4  38 100  61 101  71 100  82 101
M  END
> <Batch ID>
0023

> <Smiles>
CNC(C)C(=O)NC(C(=O)N1Cc2cc([101O:1][101CH2:1]C3CCCN3Cc3ccc(F)c([100NH:0][100C:0](=O)N4CCCC(n5nc(-c6ccc(Oc7ccc(F)cc7F)cc6)c(C(N)=O)c5N)C4)c3F)ccc2CC1C(=O)NC1CCCc2ccccc21)C(C)(C)C

> <Shape>
0.252

> <Color>
0.049

> <Negative vol penalty>
0.000

$$$$

  -OEChem-04042321173D

 83 91  0     1  0  0  0  0  0999 V2000
  -16.5768  -29.4388   23.5645 C   0  0  0  0  0  0  0  0  0  0  0  0
  -17.1898  -28.7427   22.5276 C   0  0  0  0  0  0  0  0  0  0  0  0
  -28.6202  -10.7162   22.1371 C   0  0  0  0  0  0  0  0  0  0  0  0
  -27.3879  -11.2440   20.1272 C   0  0  0  0  0  0  0  0  0  0  0  0
  -17.2304  -30.5158   24.1617 C   0  0  0  0  0  0  0  0  0  0  0  0
  -18.4564  -29.1241   22.0865 C   0  0  0  0  0  0  0  0  0  0  0  0
  -21.5468  -25.1711   21.4021 C   0  0  0  0  0  0  0  0  0  0  0  0
  -27.8330   -9.5795   22.3213 C   0  0  0  0  0  0  0  0  0  0  0  0
  -26.6007  -10.1072   20.3113 C   0  0  0  0  0  0  0  0  0  0  0  0
  -21.3749  -24.4225   20.2385 C   0  0  0  0  0  0  0  0  0  0  0  0
  -23.9678   -9.1826   22.2202 C   0  0  0  0  0  0  0  0  0  0  0  0
  -22.5895   -9.3145   22.0516 C   0  0  0  0  0  0  0  0  0  0  0  0
  -23.2343  -25.5793   19.2267 C   0  0  0  0  0  0  0  0  0  0  0  0
  -25.6308  -18.9221   18.0958 C   0  0  0  0  0  0  0  0  0  0  0  0
  -25.4288  -20.5121   19.9036 C   0  0  0  0  0  0  0  0  0  0  0  0
  -22.6493   -7.6734   20.2795 C   0  0  0  0  0  0  0  0  0  0  0  0
  -28.3976  -11.5485   21.0401 C   0  0  0  0  0  0  0  0  0  0  0  0
  -30.4180  -12.8141   20.1326 C   0  0  0  0  0  0  0  0  0  0  0  0
  -18.5098  -30.9045   23.7342 C   0  0  0  0  0  0  0  0  0  0  0  0
  -22.5586  -26.1387   21.4829 C   0  0  0  0  0  0  0  0  0  0  0  0
  -19.1273  -30.2082   22.6776 C   0  0  0  0  0  0  0  0  0  0  0  0
  -23.4186  -26.3371   20.3933 C   0  0  0  0  0  0  0  0  0  0  0  0
  -24.5557  -19.5262   17.4442 C   0  0  0  0  0  0  0  0  0  0  0  0
  -26.0674  -19.4150   19.3255 C   0  0  0  0  0  0  0  0  0  0  0  0
  -23.9171  -20.6233   18.0223 C   0  0  0  0  0  0  0  0  0  0  0  0
  -26.8233   -9.2750   21.4084 C   0  0  0  0  0  0  0  0  0  0  0  0
  -22.2169  -24.6285   19.1496 C   0  0  0  0  0  0  0  0  0  0  0  0
  -24.6869   -8.2962   21.4185 C   0  0  0  0  0  0  0  0  0  0  0  0
  -21.9303   -8.5599   21.0812 C   0  0  0  0  0  0  0  0  0  0  0  0
  -24.3536  -21.1163   19.2520 C   0  0  0  0  0  0  0  0  0  0  0  0
  -24.0277   -7.5416   20.4481 C   0  0  0  0  0  0  0  0  0  0  0  0
  -29.2100  -12.7231   20.8496 C   0  0  0  0  0  0  0  0  0  0  0  0
  -30.7888  -14.1313   20.2502 C   0  0  0  0  0  0  0  0  0  0  0  0
  -31.1405  -11.7986   19.4236 C   0  0  0  0  0  0  0  0  0  0  0  0
  -22.6213  -29.2888   21.9033 C   0  0  0  0  0  0  0  0  0  0  0  0
  -25.8280  -28.8164   22.0292 C   0  0  0  0  0  0  0  0  0  0  0  0
  -28.5050  -26.8714   21.1938 C   0  0  0  0  0  0  0  0  0  0  0  0
  -27.7178  -19.1661   21.2124 C   0  0  0  0  0  0  0  0  0  0  0  0
  -19.1570  -32.1048   24.3785 C   0  0  0  0  0  0  0  0  0  0  0  0
  -22.7478  -26.9192   22.7547 C   0  0  0  0  0  0  0  0  0  0  0  0
  -24.5329  -27.3494   20.4367 C   0  0  0  0  0  0  0  0  0  0  0  0
  -20.6549  -32.2099   24.1039 C   0  0  0  0  0  0  0  0  0  0  0  0
  -30.3848  -17.8868   23.1943 C   0  0  0  0  0  0  0  0  0  0  0  0
  -20.9437  -31.9812   22.6236 C   0  0  0  0  0  0  0  0  0  0  0  0
  -30.5002  -16.4273   22.7483 C   0  0  0  0  0  0  0  0  0  0  0  0
  -28.9318  -18.3575   23.2243 C   0  0  0  0  0  0  0  0  0  0  0  0
  -28.2984  -16.6811   21.5338 C   0  0  0  0  0  0  0  0  0  0  0  0
  -20.5111  -30.5760   22.1878 C   0  0  1  0  0  0  0  0  0  0  0  0
  -23.4846  -28.2381   22.5423 C   0  0  1  0  0  0  0  0  0  0  0  0
  -29.7483  -16.1812   21.4256 C   0  0  2  0  0  0  0  0  0  0  0  0
  -24.1087  -18.9774   16.1284 C   0  0  0  0  0  0  0  0  0  0  0  0
  -31.0033  -26.7635   21.4035 C   0  0  0  0  0  0  0  0  0  0  0  0
  -26.0999  -30.9375   19.8527 C   0  0  0  0  0  0  0  0  0  0  0  0
  -28.4298  -30.1181   19.4425 C   0  0  0  0  0  0  0  0  0  0  0  0
  -27.8190  -31.0749   21.6638 C   0  0  0  0  0  0  0  0  0  0  0  0
  -21.4700  -20.7846   17.6401 C   0  0  0  0  0  0  0  0  0  0  0  0
  -28.3842  -24.3327   22.7101 C   0  0  0  0  0  0  0  0  0  0  0  0
  -23.0329  -22.3412   16.4642 C   0  0  0  0  0  0  0  0  0  0  0  0
  -23.2166  -23.6399   17.2316 C   0  0  0  0  0  0  0  0  0  1  0  0
  -26.9458  -28.7927   21.0148 C   0  0  1  0  0  0  0  0  0  0  0  0
  -29.6723  -26.3572   22.0168 C   0  0  2  0  0  0  0  0  0  0  0  0
  -27.3015  -30.2130   20.4916 C   0  0  0  0  0  0  0  0  0  0  0  0
  -28.8381  -13.8896   21.3833 N   0  0  0  0  0  0  0  0  0  0  0  0
  -29.8182  -14.7261   21.0015 N   0  0  0  0  0  0  0  0  0  0  0  0
  -24.6735  -28.0921   21.7001 N   0  0  0  0  0  0  0  0  0  0  0  0
  -28.2847  -18.0961   21.9367 N   0  0  0  0  0  0  0  0  0  0  0  0
  -31.8471  -14.8273   19.7832 N   0  0  0  0  0  0  0  0  0  0  0  0
  -30.6184  -10.4981   19.4031 N   0  0  0  0  0  0  0  0  0  0  0  0
  -27.1597  -18.8016   19.9876 N   0  0  0  0  0  0  0  0  0  0  0  0
  -21.4799  -29.5919   22.6208 N   0  0  0  0  0  0  0  0  0  0  0  0
  -28.0581  -28.0938   21.6493 N   0  0  0  0  0  0  0  0  0  0  0  0
  -22.8357  -21.2410   17.3799 N   0  0  3  0  0  0  0  0  0  0  0  0
  -29.6295  -24.8701   22.1039 N   0  3  0  0  0  0  0  0  0  0  0  0
  -32.2255  -12.0339   18.8397 O   0  0  0  0  0  0  0  0  0  0  0  0
  -22.9660  -29.7886   20.8388 O   0  0  0  0  0  0  0  0  0  0  0  0
  -25.9766  -29.4482   23.0782 O   0  0  0  0  0  0  0  0  0  0  0  0
  -28.0387  -26.2526   20.2398 O   0  0  0  0  0  0  0  0  0  0  0  0
  -27.7510  -20.3249   21.6342 O   0  0  0  0  0  0  0  0  0  0  0  0
  -26.0552   -8.1658   21.5877 O   0  0  0  0  0  0  0  0  0  0  0  0
  -22.0509  -23.8997   18.0125 O   0  0  0  0  0  0  0  0  0  1  0  0
  -20.6064   -8.6856   20.9205 F   0  0  0  0  0  0  0  0  0  0  0  0
  -23.7480  -22.1705   19.8172 F   0  0  0  0  0  0  0  0  0  0  0  0
  -24.7130   -6.6874   19.6757 F   0  0  0  0  0  0  0  0  0  0  0  0
  1  2  1  0  0  0  0
  1  5  2  0  0  0  0
  2  6  2  0  0  0  0
  3  8  2  0  0  0  0
  3 17  1  0  0  0  0
  4  9  1  0  0  0  0
  4 17  2  0  0  0  0
  5 19  1  0  0  0  0
  6 21  1  0  0  0  0
  7 10  2  0  0  0  0
  7 20  1  0  0  0  0
  8 26  1  0  0  0  0
  9 26  2  0  0  0  0
 10 27  1  0  0  0  0
 11 12  2  0  0  0  0
 11 28  1  0  0  0  0
 12 29  1  0  0  0  0
 13 22  1  0  0  0  0
 13 27  2  0  0  0  0
 14 23  2  0  0  0  0
 14 24  1  0  0  0  0
 15 24  2  0  0  0  0
 15 30  1  0  0  0  0
 16 29  2  0  0  0  0
 16 31  1  0  0  0  0
 17 32  1  0  0  0  0
 18 32  1  0  0  0  0
 18 33  2  0  0  0  0
 18 34  1  0  0  0  0
 19 21  2  0  0  0  0
 19 39  1  0  0  0  0
 20 22  2  0  0  0  0
 20 40  1  0  0  0  0
 21 48  1  0  0  0  0
 22 41  1  0  0  0  0
 23 25  1  0  0  0  0
 23 51  1  0  0  0  0
 24 69  1  0  0  0  0
 25 30  2  0  0  0  0
 25 72  1  0  0  0  0
 26 79  1  0  0  0  0
 27 80  1  0  0  0  0
 28 31  2  0  0  0  0
 28 79  1  0  0  0  0
 29 81  1  0  0  0  0
 30 82  1  0  0  0  0
 31 83  1  0  0  0  0
 32 63  2  0  0  0  0
 33 64  1  0  0  0  0
 33 67  1  0  0  0  0
 34 68  1  0  0  0  0
 34 74  2  0  0  0  0
 35 49  1  0  0  0  0
 35 70  1  0  0  0  0
 35 75  2  0  0  0  0
 36 60  1  0  0  0  0
 36 65  1  0  0  0  0
 36 76  2  0  0  0  0
 37 61  1  0  0  0  0
 37 71  1  0  0  0  0
 37 77  2  0  0  0  0
 38 66  1  0  0  0  0
 38 69  1  0  0  0  0
 38 78  2  0  0  0  0
 39 42  1  0  0  0  0
 40 49  1  0  0  0  0
 41 65  1  0  0  0  0
 42 44  1  0  0  0  0
 43 45  1  0  0  0  0
 43 46  1  0  0  0  0
 44 48  1  0  0  0  0
 45 50  1  0  0  0  0
 46 66  1  0  0  0  0
 47 50  1  0  0  0  0
 47 66  1  0  0  0  0
 48 70  1  0  0  0  0
 49 65  1  0  0  0  0
 50 64  1  0  0  0  0
 52 61  1  0  0  0  0
 53 62  1  0  0  0  0
 54 62  1  0  0  0  0
 55 62  1  0  0  0  0
 56 72  1  0  0  0  0
 57 73  1  0  0  0  0
 58 59  1  0  0  0  0
 58 72  1  0  0  0  0
 59 80  1  0  0  0  0
 60 62  1  0  0  0  0
 60 71  1  0  0  0  0
 61 73  1  0  0  0  0
 63 64  1  0  0  0  0
M  CHG  1  73   1
M  ISO  4  38 100  59 101  69 100  80 101
M  END
> <Batch ID>
0023

> <Smiles>
CNC(C)C(=O)NC(C(=O)N1Cc2cc([101O:1][101CH2:1]CN(C)c3c(C)cc([100NH:0][100C:0](=O)N4CCCC(n5nc(-c6ccc(Oc7ccc(F)cc7F)cc6)c(C(N)=O)c5N)C4)cc3F)ccc2CC1C(=O)NC1CCCc2ccccc21)C(C)(C)C

> <Shape>
0.229

> <Color>
0.075

> <Negative vol penalty>
0.000

$$$$

  -OEChem-04042321173D

 85 93  0     1  0  0  0  0  0999 V2000
  -16.6467  -29.5389   23.7051 C   0  0  0  0  0  0  0  0  0  0  0  0
  -17.6977  -30.2807   24.2348 C   0  0  0  0  0  0  0  0  0  0  0  0
  -29.7597  -21.4936   19.8382 C   0  0  0  0  0  0  0  0  0  0  0  0
  -30.5616  -20.8571   22.0266 C   0  0  0  0  0  0  0  0  0  0  0  0
  -16.9101  -28.3725   22.9881 C   0  0  0  0  0  0  0  0  0  0  0  0
  -19.0127  -29.8559   24.0488 C   0  0  0  0  0  0  0  0  0  0  0  0
  -25.6413  -32.4300   23.1817 C   0  0  0  0  0  0  0  0  0  0  0  0
  -33.7567  -30.2765   28.4720 C   0  0  0  0  0  0  0  0  0  0  0  0
  -32.5285  -29.7117   28.1284 C   0  0  0  0  0  0  0  0  0  0  0  0
  -29.6667  -20.1485   19.4810 C   0  0  0  0  0  0  0  0  0  0  0  0
  -30.4686  -19.5119   21.6694 C   0  0  0  0  0  0  0  0  0  0  0  0
  -26.9247  -32.3009   23.7109 C   0  0  0  0  0  0  0  0  0  0  0  0
  -30.0997  -15.9012   21.4571 C   0  0  0  0  0  0  0  0  0  0  0  0
  -29.5258  -15.0234   22.3767 C   0  0  0  0  0  0  0  0  0  0  0  0
  -27.2639  -30.3128   22.3874 C   0  0  0  0  0  0  0  0  0  0  0  0
  -34.6327  -29.6950   26.2969 C   0  0  0  0  0  0  0  0  0  0  0  0
  -27.4713  -16.2927   22.3061 C   0  0  0  0  0  0  0  0  0  0  0  0
  -30.2072  -21.8479   21.1110 C   0  0  0  0  0  0  0  0  0  0  0  0
  -29.3052  -24.0298   22.0772 C   0  0  0  0  0  0  0  0  0  0  0  0
  -18.2296  -27.9384   22.7849 C   0  0  0  0  0  0  0  0  0  0  0  0
  -25.1548  -31.4938   22.2580 C   0  0  0  0  0  0  0  0  0  0  0  0
  -19.2940  -28.6819   23.3296 C   0  0  0  0  0  0  0  0  0  0  0  0
  -25.9750  -30.4337   21.8460 C   0  0  0  0  0  0  0  0  0  0  0  0
  -34.8088  -30.2682   27.5562 C   0  0  0  0  0  0  0  0  0  0  0  0
  -32.3524  -29.1384   26.8690 C   0  0  0  0  0  0  0  0  0  0  0  0
  -33.4045  -29.1300   25.9532 C   0  0  0  0  0  0  0  0  0  0  0  0
  -30.0211  -19.1576   20.3966 C   0  0  0  0  0  0  0  0  0  0  0  0
  -27.7351  -31.2406   23.3160 C   0  0  0  0  0  0  0  0  0  0  0  0
  -29.3594  -16.9748   20.9620 C   0  0  0  0  0  0  0  0  0  0  0  0
  -28.2116  -15.2191   22.8012 C   0  0  0  0  0  0  0  0  0  0  0  0
  -28.0452  -17.1705   21.3865 C   0  0  0  0  0  0  0  0  0  0  0  0
  -30.3040  -23.2372   21.4804 C   0  0  0  0  0  0  0  0  0  0  0  0
  -29.8886  -25.2646   22.2235 C   0  0  0  0  0  0  0  0  0  0  0  0
  -27.9696  -23.6810   22.4646 C   0  0  0  0  0  0  0  0  0  0  0  0
  -22.7371  -29.4306   22.2172 C   0  0  0  0  0  0  0  0  0  0  0  0
  -23.6882  -28.9749   19.1496 C   0  0  0  0  0  0  0  0  0  0  0  0
  -30.0490  -29.3311   25.9345 C   0  0  0  0  0  0  0  0  0  0  0  0
  -26.1923  -29.1446   16.8371 C   0  0  0  0  0  0  0  0  0  0  0  0
  -34.2081  -28.4719   23.6582 C   0  0  0  0  0  0  0  0  0  0  0  0
  -18.4625  -26.6458   22.0435 C   0  0  0  0  0  0  0  0  0  0  0  0
  -23.7780  -31.6622   21.6762 C   0  0  0  0  0  0  0  0  0  0  0  0
  -25.5074  -29.4132   20.8419 C   0  0  0  0  0  0  0  0  0  0  0  0
  -19.9028  -26.4656   21.5711 C   0  0  0  0  0  0  0  0  0  0  0  0
  -34.2294  -27.0971   20.3739 C   0  0  0  0  0  0  0  0  0  0  0  0
  -20.8790  -26.8033   22.6935 C   0  0  0  0  0  0  0  0  0  0  0  0
  -33.1279  -26.0355   20.4180 C   0  0  0  0  0  0  0  0  0  0  0  0
  -34.9973  -27.1728   21.6923 C   0  0  0  0  0  0  0  0  0  0  0  0
  -33.0612  -26.2872   22.9319 C   0  0  0  0  0  0  0  0  0  0  0  0
  -20.7353  -28.2670   23.1279 C   0  0  1  0  0  0  0  0  0  0  0  0
  -23.1966  -30.3614   21.1309 C   0  0  1  0  0  0  0  0  0  0  0  0
  -32.2177  -26.2187   21.6483 C   0  0  2  0  0  0  0  0  0  0  0  0
  -30.3201  -26.8302   28.0946 C   0  0  0  0  0  0  0  0  0  0  0  0
  -26.6787  -28.6685   14.4217 C   0  0  0  0  0  0  0  0  0  0  0  0
  -23.8320  -25.9907   19.7693 C   0  0  0  0  0  0  0  0  0  0  0  0
  -25.1970  -25.6959   17.6913 C   0  0  0  0  0  0  0  0  0  0  0  0
  -22.8571  -26.5463   17.5343 C   0  0  0  0  0  0  0  0  0  0  0  0
  -26.8275  -31.9821   16.2856 C   0  0  0  0  0  0  0  0  0  0  0  0
  -30.3352  -30.8278   25.8101 C   0  0  0  0  0  0  0  0  0  0  0  0
  -30.9236  -27.1106   26.7605 C   0  0  0  0  0  0  0  0  0  0  0  0
  -29.2001  -31.6050   25.1537 C   0  0  0  0  0  0  0  0  0  1  0  0
  -24.6642  -28.0536   18.4586 C   0  0  1  0  0  0  0  0  0  0  0  0
  -26.2272  -29.7135   15.4301 C   0  0  2  0  0  0  0  0  0  0  0  0
  -24.1460  -26.5896   18.3838 C   0  0  0  0  0  0  0  0  0  0  0  0
  -31.4359  -23.9119   21.2625 N   0  0  0  0  0  0  0  0  0  0  0  0
  -31.1520  -25.1415   21.7247 N   0  0  0  0  0  0  0  0  0  0  0  0
  -24.1512  -29.6174   20.3066 N   0  0  0  0  0  0  0  0  0  0  0  0
  -34.0707  -27.3509   22.8123 N   0  0  0  0  0  0  0  0  0  0  0  0
  -36.0507  -30.8391   27.9039 N   0  0  0  0  0  0  0  0  0  0  0  0
  -29.4389  -26.4329   22.7289 N   0  0  0  0  0  0  0  0  0  0  0  0
  -27.5308  -22.3685   22.2428 N   0  0  0  0  0  0  0  0  0  0  0  0
  -33.2503  -28.5527   24.6685 N   0  0  0  0  0  0  0  0  0  0  0  0
  -21.3862  -29.1426   22.1771 N   0  0  0  0  0  0  0  0  0  0  0  0
  -24.9440  -28.6555   17.1594 N   0  0  0  0  0  0  0  0  0  0  0  0
  -31.0670  -28.5577   26.5362 N   0  0  0  0  0  0  0  0  0  0  0  0
  -27.1659  -30.8690   15.3617 N   0  3  0  0  0  0  0  0  0  0  0  0
  -27.1829  -24.5130   22.9769 O   0  0  0  0  0  0  0  0  0  0  0  0
  -23.5483  -29.0041   23.0306 O   0  0  0  0  0  0  0  0  0  0  0  0
  -22.5590  -29.1247   18.6761 O   0  0  0  0  0  0  0  0  0  0  0  0
  -28.9654  -28.8881   25.5455 O   0  0  0  0  0  0  0  0  0  0  0  0
  -27.1751  -29.1318   17.5750 O   0  0  0  0  0  0  0  0  0  0  0  0
  -35.0925  -29.3136   23.4815 O   0  0  0  0  0  0  0  0  0  0  0  0
  -29.9303  -17.8450   20.0484 O   0  0  0  0  0  0  0  0  0  0  0  0
  -28.9880  -31.1118   23.8315 O   0  0  0  0  0  0  0  0  0  1  0  0
  -27.6601  -14.3752   23.6831 F   0  0  0  0  0  0  0  0  0  0  0  0
  -27.3286  -18.1994   20.9135 F   0  0  0  0  0  0  0  0  0  0  0  0
  1  2  1  0  0  0  0
  1  5  2  0  0  0  0
  2  6  2  0  0  0  0
  3 10  2  0  0  0  0
  3 18  1  0  0  0  0
  4 11  1  0  0  0  0
  4 18  2  0  0  0  0
  5 20  1  0  0  0  0
  6 22  1  0  0  0  0
  7 12  2  0  0  0  0
  7 21  1  0  0  0  0
  8  9  2  0  0  0  0
  8 24  1  0  0  0  0
  9 25  1  0  0  0  0
 10 27  1  0  0  0  0
 11 27  2  0  0  0  0
 12 28  1  0  0  0  0
 13 14  2  0  0  0  0
 13 29  1  0  0  0  0
 14 30  1  0  0  0  0
 15 23  1  0  0  0  0
 15 28  2  0  0  0  0
 16 24  2  0  0  0  0
 16 26  1  0  0  0  0
 17 30  2  0  0  0  0
 17 31  1  0  0  0  0
 18 32  1  0  0  0  0
 19 32  1  0  0  0  0
 19 33  2  0  0  0  0
 19 34  1  0  0  0  0
 20 22  2  0  0  0  0
 20 40  1  0  0  0  0
 21 23  2  0  0  0  0
 21 41  1  0  0  0  0
 22 49  1  0  0  0  0
 23 42  1  0  0  0  0
 24 68  1  0  0  0  0
 25 26  2  0  0  0  0
 25 74  1  0  0  0  0
 26 71  1  0  0  0  0
 27 82  1  0  0  0  0
 28 83  1  0  0  0  0
 29 31  2  0  0  0  0
 29 82  1  0  0  0  0
 30 84  1  0  0  0  0
 31 85  1  0  0  0  0
 32 64  2  0  0  0  0
 33 65  1  0  0  0  0
 33 69  1  0  0  0  0
 34 70  1  0  0  0  0
 34 76  2  0  0  0  0
 35 50  1  0  0  0  0
 35 72  1  0  0  0  0
 35 77  2  0  0  0  0
 36 61  1  0  0  0  0
 36 66  1  0  0  0  0
 36 78  2  0  0  0  0
 37 58  1  0  0  0  0
 37 74  1  0  0  0  0
 37 79  2  0  0  0  0
 38 62  1  0  0  0  0
 38 73  1  0  0  0  0
 38 80  2  0  0  0  0
 39 67  1  0  0  0  0
 39 71  1  0  0  0  0
 39 81  2  0  0  0  0
 40 43  1  0  0  0  0
 41 50  1  0  0  0  0
 42 66  1  0  0  0  0
 43 45  1  0  0  0  0
 44 46  1  0  0  0  0
 44 47  1  0  0  0  0
 45 49  1  0  0  0  0
 46 51  1  0  0  0  0
 47 67  1  0  0  0  0
 48 51  1  0  0  0  0
 48 67  1  0  0  0  0
 49 72  1  0  0  0  0
 50 66  1  0  0  0  0
 51 65  1  0  0  0  0
 52 59  1  0  0  0  0
 53 62  1  0  0  0  0
 54 63  1  0  0  0  0
 55 63  1  0  0  0  0
 56 63  1  0  0  0  0
 57 75  1  0  0  0  0
 58 60  1  0  0  0  0
 59 74  1  0  0  0  0
 60 83  1  0  0  0  0
 61 63  1  0  0  0  0
 61 73  1  0  0  0  0
 62 75  1  0  0  0  0
 64 65  1  0  0  0  0
M  CHG  1  75   1
M  ISO  4  39 100  60 101  71 100  83 101
M  END
> <Batch ID>
0023

> <Smiles>
CCN(C(=O)C[101CH2:1][101O:1]c1ccc2c(c1)CN(C(=O)C(NC(=O)C(C)NC)C(C)(C)C)C(C(=O)NC1CCCc3ccccc31)C2)c1ccc(N)cc1[100NH:0][100C:0](=O)N1CCCC(n2nc(-c3ccc(Oc4ccc(F)cc4F)cc3)c(C(N)=O)c2N)C1

> <Shape>
0.221

> <Color>
0.101

> <Negative vol penalty>
0.000

$$$$

  -OEChem-04042321173D

 84 93  0     1  0  0  0  0  0999 V2000
  -27.6059  -32.3091   23.5995 C   0  0  0  0  0  0  0  0  0  0  0  0
  -27.0506  -31.0844   23.9562 C   0  0  0  0  0  0  0  0  0  0  0  0
  -27.6753  -24.3975   15.4065 C   0  0  0  0  0  0  0  0  0  0  0  0
  -24.1256  -13.5653   21.0825 C   0  0  0  0  0  0  0  0  0  0  0  0
  -26.3196  -13.7447   20.0870 C   0  0  0  0  0  0  0  0  0  0  0  0
  -26.7775  -33.3666   23.2262 C   0  0  0  0  0  0  0  0  0  0  0  0
  -25.6663  -30.9169   23.9410 C   0  0  0  0  0  0  0  0  0  0  0  0
  -25.8529  -29.1721   19.3121 C   0  0  0  0  0  0  0  0  0  0  0  0
  -28.6000  -24.7575   16.3866 C   0  0  0  0  0  0  0  0  0  0  0  0
  -26.7243  -23.4124   15.6730 C   0  0  0  0  0  0  0  0  0  0  0  0
  -24.2937  -12.1860   21.2045 C   0  0  0  0  0  0  0  0  0  0  0  0
  -26.4878  -12.3654   20.2090 C   0  0  0  0  0  0  0  0  0  0  0  0
  -27.1070  -28.5631   19.3022 C   0  0  0  0  0  0  0  0  0  0  0  0
  -25.8999  -10.0457   23.2714 C   0  0  0  0  0  0  0  0  0  0  0  0
  -25.5371   -9.4529   24.4808 C   0  0  0  0  0  0  0  0  0  0  0  0
  -26.2527  -26.7945   20.7026 C   0  0  0  0  0  0  0  0  0  0  0  0
  -23.9296   -8.0713   23.3213 C   0  0  0  0  0  0  0  0  0  0  0  0
  -25.1385  -14.3446   20.5236 C   0  0  0  0  0  0  0  0  0  0  0  0
  -25.3126  -16.7553   21.3396 C   0  0  0  0  0  0  0  0  0  0  0  0
  -25.3829  -33.2091   23.1971 C   0  0  0  0  0  0  0  0  0  0  0  0
  -24.7903  -28.6016   20.0276 C   0  0  0  0  0  0  0  0  0  0  0  0
  -24.8184  -31.9737   23.5683 C   0  0  0  0  0  0  0  0  0  0  0  0
  -24.9854  -27.3968   20.7180 C   0  0  0  0  0  0  0  0  0  0  0  0
  -28.5740  -24.1324   17.6333 C   0  0  0  0  0  0  0  0  0  0  0  0
  -26.6983  -22.7873   16.9196 C   0  0  0  0  0  0  0  0  0  0  0  0
  -25.4748  -11.5860   20.7678 C   0  0  0  0  0  0  0  0  0  0  0  0
  -27.3079  -27.3757   19.9999 C   0  0  0  0  0  0  0  0  0  0  0  0
  -25.2775   -9.6513   22.0870 C   0  0  0  0  0  0  0  0  0  0  0  0
  -24.5520   -8.4657   24.5058 C   0  0  0  0  0  0  0  0  0  0  0  0
  -24.2924   -8.6641   22.1120 C   0  0  0  0  0  0  0  0  0  0  0  0
  -27.6231  -23.1472   17.8998 C   0  0  0  0  0  0  0  0  0  0  0  0
  -24.9651  -15.7694   20.3967 C   0  0  0  0  0  0  0  0  0  0  0  0
  -24.9481  -17.9400   20.7478 C   0  0  0  0  0  0  0  0  0  0  0  0
  -25.9113  -16.6130   22.6346 C   0  0  0  0  0  0  0  0  0  0  0  0
  -22.9793  -29.5254   22.4710 C   0  0  0  0  0  0  0  0  0  0  0  0
  -21.3704  -26.7877   21.8085 C   0  0  0  0  0  0  0  0  0  0  0  0
  -21.4112  -23.6626   20.4379 C   0  0  0  0  0  0  0  0  0  0  0  0
  -24.7437  -21.3141   16.3233 C   0  0  0  0  0  0  0  0  0  0  0  0
  -24.5258  -34.3953   22.8324 C   0  0  0  0  0  0  0  0  0  0  0  0
  -23.4366  -29.2568   20.0063 C   0  0  0  0  0  0  0  0  0  0  0  0
  -23.8719  -26.7331   21.4848 C   0  0  0  0  0  0  0  0  0  0  0  0
  -23.0876  -34.0227   22.4817 C   0  0  0  0  0  0  0  0  0  0  0  0
  -22.1995  -18.8379   16.5932 C   0  0  0  0  0  0  0  0  0  0  0  0
  -31.3301  -24.0869   20.0046 C   0  0  0  0  0  0  0  0  0  0  0  0
  -22.5208  -33.0524   23.5132 C   0  0  0  0  0  0  0  0  0  0  0  0
  -22.7208  -17.8999   17.6844 C   0  0  0  0  0  0  0  0  0  0  0  0
  -31.1546  -25.5898   19.8778 C   0  0  0  0  0  0  0  0  0  0  0  0
  -29.9625  -23.5431   19.6098 C   0  0  0  0  0  0  0  0  0  0  0  0
  -23.3297  -19.3646   15.7106 C   0  0  0  0  0  0  0  0  0  0  0  0
  -24.9649  -19.0516   17.5265 C   0  0  0  0  0  0  0  0  0  0  0  0
  -23.3227  -31.7456   23.5404 C   0  0  1  0  0  0  0  0  0  0  0  0
  -22.5615  -28.8588   21.1909 C   0  0  1  0  0  0  0  0  0  0  0  0
  -23.8708  -18.5466   18.4813 C   0  0  2  0  0  0  0  0  0  0  0  0
  -30.2417  -25.7534   18.6502 C   0  0  2  0  0  0  0  0  0  0  0  0
  -19.9576  -21.6479   20.0833 C   0  0  0  0  0  0  0  0  0  0  0  0
  -21.7334  -26.0133   24.7374 C   0  0  0  0  0  0  0  0  0  0  0  0
  -21.1371  -23.6621   24.1173 C   0  0  0  0  0  0  0  0  0  0  0  0
  -19.4763  -25.4949   23.7934 C   0  0  0  0  0  0  0  0  0  0  0  0
  -21.6212  -23.8852   17.4942 C   0  0  0  0  0  0  0  0  0  0  0  0
  -29.3391  -26.9695   18.8316 C   0  0  0  0  0  0  0  0  0  1  0  0
  -21.4777  -25.3497   22.2554 C   0  0  1  0  0  0  0  0  0  0  0  0
  -20.4474  -22.9628   19.4967 C   0  0  2  0  0  0  0  0  0  0  0  0
  -20.9779  -25.1433   23.7131 C   0  0  0  0  0  0  0  0  0  0  0  0
  -24.4216  -16.2830   19.2901 N   0  0  0  0  0  0  0  0  0  0  0  0
  -24.4246  -17.6046   19.5339 N   0  0  0  0  0  0  0  0  0  0  0  0
  -29.4904  -24.4911   18.6017 N   0  0  3  0  0  0  0  0  0  0  0  0
  -22.5683  -27.4157   21.4390 N   0  0  0  0  0  0  0  0  0  0  0  0
  -24.3807  -19.9670   16.5337 N   0  0  0  0  0  0  0  0  0  0  0  0
  -25.0274  -19.2254   21.1527 N   0  0  0  0  0  0  0  0  0  0  0  0
  -26.2220  -15.3242   23.0891 N   0  0  0  0  0  0  0  0  0  0  0  0
  -25.7311  -21.7868   17.1870 N   0  0  0  0  0  0  0  0  0  0  0  0
  -22.9591  -30.9061   22.4190 N   0  0  0  0  0  0  0  0  0  0  0  0
  -20.7618  -24.5586   21.2605 N   0  0  0  0  0  0  0  0  0  0  0  0
  -21.1113  -22.6776   18.1933 N   0  3  0  0  0  0  0  0  0  0  0  0
  -26.1481  -17.5984   23.3739 O   0  0  0  0  0  0  0  0  0  0  0  0
  -23.2951  -28.8379   23.4351 O   0  0  0  0  0  0  0  0  0  0  0  0
  -20.2635  -27.3315   21.7813 O   0  0  0  0  0  0  0  0  0  0  0  0
  -22.6188  -23.4343   20.4453 O   0  0  0  0  0  0  0  0  0  0  0  0
  -24.1981  -22.0059   15.4597 O   0  0  0  0  0  0  0  0  0  0  0  0
  -25.6393  -10.2402   20.8870 O   0  0  0  0  0  0  0  0  0  0  0  0
  -28.5311  -26.7796   19.9924 O   0  0  0  0  0  0  0  0  0  1  0  0
  -24.2048   -7.8955   25.6670 F   0  0  0  0  0  0  0  0  0  0  0  0
  -23.6917   -8.2803   20.9772 F   0  0  0  0  0  0  0  0  0  0  0  0
  -27.5984  -22.5463   19.0994 F   0  0  0  0  0  0  0  0  0  0  0  0
  1  2  1  0  0  0  0
  1  6  2  0  0  0  0
  2  7  2  0  0  0  0
  3  9  2  0  0  0  0
  3 10  1  0  0  0  0
  4 11  2  0  0  0  0
  4 18  1  0  0  0  0
  5 12  1  0  0  0  0
  5 18  2  0  0  0  0
  6 20  1  0  0  0  0
  7 22  1  0  0  0  0
  8 13  2  0  0  0  0
  8 21  1  0  0  0  0
  9 24  1  0  0  0  0
 10 25  2  0  0  0  0
 11 26  1  0  0  0  0
 12 26  2  0  0  0  0
 13 27  1  0  0  0  0
 14 15  2  0  0  0  0
 14 28  1  0  0  0  0
 15 29  1  0  0  0  0
 16 23  1  0  0  0  0
 16 27  2  0  0  0  0
 17 29  2  0  0  0  0
 17 30  1  0  0  0  0
 18 32  1  0  0  0  0
 19 32  1  0  0  0  0
 19 33  2  0  0  0  0
 19 34  1  0  0  0  0
 20 22  2  0  0  0  0
 20 39  1  0  0  0  0
 21 23  2  0  0  0  0
 21 40  1  0  0  0  0
 22 51  1  0  0  0  0
 23 41  1  0  0  0  0
 24 31  2  0  0  0  0
 24 66  1  0  0  0  0
 25 31  1  0  0  0  0
 25 71  1  0  0  0  0
 26 80  1  0  0  0  0
 27 81  1  0  0  0  0
 28 30  2  0  0  0  0
 28 80  1  0  0  0  0
 29 82  1  0  0  0  0
 30 83  1  0  0  0  0
 31 84  1  0  0  0  0
 32 64  2  0  0  0  0
 33 65  1  0  0  0  0
 33 69  1  0  0  0  0
 34 70  1  0  0  0  0
 34 75  2  0  0  0  0
 35 52  1  0  0  0  0
 35 72  1  0  0  0  0
 35 76  2  0  0  0  0
 36 61  1  0  0  0  0
 36 67  1  0  0  0  0
 36 77  2  0  0  0  0
 37 62  1  0  0  0  0
 37 73  1  0  0  0  0
 37 78  2  0  0  0  0
 38 68  1  0  0  0  0
 38 71  1  0  0  0  0
 38 79  2  0  0  0  0
 39 42  1  0  0  0  0
 40 52  1  0  0  0  0
 41 67  1  0  0  0  0
 42 45  1  0  0  0  0
 43 46  1  0  0  0  0
 43 49  1  0  0  0  0
 44 47  1  0  0  0  0
 44 48  1  0  0  0  0
 45 51  1  0  0  0  0
 46 53  1  0  0  0  0
 47 54  1  0  0  0  0
 48 66  1  0  0  0  0
 49 68  1  0  0  0  0
 50 53  1  0  0  0  0
 50 68  1  0  0  0  0
 51 72  1  0  0  0  0
 52 67  1  0  0  0  0
 53 65  1  0  0  0  0
 54 60  1  0  0  0  0
 54 66  1  0  0  0  0
 55 62  1  0  0  0  0
 56 63  1  0  0  0  0
 57 63  1  0  0  0  0
 58 63  1  0  0  0  0
 59 74  1  0  0  0  0
 60 81  1  0  0  0  0
 61 63  1  0  0  0  0
 61 73  1  0  0  0  0
 62 74  1  0  0  0  0
 64 65  1  0  0  0  0
M  CHG  1  74   1
M  ISO  4  38 100  60 101  71 100  81 101
M  END
> <Batch ID>
0023

> <Smiles>
CNC(C)C(=O)NC(C(=O)N1Cc2cc([101O:1][101CH2:1]C3CCCN3c3cccc([100NH:0][100C:0](=O)N4CCCC(n5nc(-c6ccc(Oc7ccc(F)cc7F)cc6)c(C(N)=O)c5N)C4)c3F)ccc2CC1C(=O)NC1CCCc2ccccc21)C(C)(C)C

> <Shape>
0.228

> <Color>
0.077

> <Negative vol penalty>
0.000

$$$$

  -OEChem-04042321173D

 85 94  0     1  0  0  0  0  0999 V2000
  -19.1609  -24.4752   22.0884 C   0  0  0  0  0  0  0  0  0  0  0  0
  -20.1684  -24.8620   21.2105 C   0  0  0  0  0  0  0  0  0  0  0  0
  -28.8295  -13.8821   21.2419 C   0  0  0  0  0  0  0  0  0  0  0  0
  -27.2524  -15.0669   19.8470 C   0  0  0  0  0  0  0  0  0  0  0  0
  -18.4734  -25.4378   22.8265 C   0  0  0  0  0  0  0  0  0  0  0  0
  -20.4882  -26.2119   21.0693 C   0  0  0  0  0  0  0  0  0  0  0  0
  -25.4851  -27.0344   21.0657 C   0  0  0  0  0  0  0  0  0  0  0  0
  -29.9239  -26.4711   19.6693 C   0  0  0  0  0  0  0  0  0  0  0  0
  -29.9597  -25.3329   20.4748 C   0  0  0  0  0  0  0  0  0  0  0  0
  -28.0071  -12.7558   21.2153 C   0  0  0  0  0  0  0  0  0  0  0  0
  -26.4299  -13.9406   19.8203 C   0  0  0  0  0  0  0  0  0  0  0  0
  -26.1755  -26.7549   19.8872 C   0  0  0  0  0  0  0  0  0  0  0  0
  -26.3192  -10.9769   18.2002 C   0  0  0  0  0  0  0  0  0  0  0  0
  -25.7838  -10.5963   16.9697 C   0  0  0  0  0  0  0  0  0  0  0  0
  -26.1622  -29.1020   19.3300 C   0  0  0  0  0  0  0  0  0  0  0  0
  -23.5528  -10.8774   17.8535 C   0  0  0  0  0  0  0  0  0  0  0  0
  -28.4522  -15.0376   20.5578 C   0  0  0  0  0  0  0  0  0  0  0  0
  -30.3359  -16.5204   19.6858 C   0  0  0  0  0  0  0  0  0  0  0  0
  -18.7916  -26.7993   22.7014 C   0  0  0  0  0  0  0  0  0  0  0  0
  -25.1179  -28.3506   21.3805 C   0  0  0  0  0  0  0  0  0  0  0  0
  -19.8035  -27.1937   21.8054 C   0  0  0  0  0  0  0  0  0  0  0  0
  -25.4694  -29.3958   20.5145 C   0  0  0  0  0  0  0  0  0  0  0  0
  -30.7846  -25.1851   17.8139 C   0  0  0  0  0  0  0  0  0  0  0  0
  -30.3362  -26.3972   18.3388 C   0  0  0  0  0  0  0  0  0  0  0  0
  -30.4081  -24.1208   19.9499 C   0  0  0  0  0  0  0  0  0  0  0  0
  -26.8072  -12.7851   20.5045 C   0  0  0  0  0  0  0  0  0  0  0  0
  -26.5117  -27.7884   19.0177 C   0  0  0  0  0  0  0  0  0  0  0  0
  -25.4714  -11.3077   19.2574 C   0  0  0  0  0  0  0  0  0  0  0  0
  -24.4006  -10.5465   16.7964 C   0  0  0  0  0  0  0  0  0  0  0  0
  -24.0883  -11.2580   19.0840 C   0  0  0  0  0  0  0  0  0  0  0  0
  -30.8205  -24.0469   18.6194 C   0  0  0  0  0  0  0  0  0  0  0  0
  -29.3011  -16.2015   20.5853 C   0  0  0  0  0  0  0  0  0  0  0  0
  -30.8306  -17.7178   20.1420 C   0  0  0  0  0  0  0  0  0  0  0  0
  -30.8078  -15.7989   18.5402 C   0  0  0  0  0  0  0  0  0  0  0  0
  -22.3585  -29.8629   21.8305 C   0  0  0  0  0  0  0  0  0  0  0  0
  -24.2933  -32.3269   22.6717 C   0  0  0  0  0  0  0  0  0  0  0  0
  -27.3572  -33.8126   22.4448 C   0  0  0  0  0  0  0  0  0  0  0  0
  -30.0682  -22.8703   22.1102 C   0  0  0  0  0  0  0  0  0  0  0  0
  -17.9887  -27.8073   23.4850 C   0  0  0  0  0  0  0  0  0  0  0  0
  -24.3968  -28.6387   22.6687 C   0  0  0  0  0  0  0  0  0  0  0  0
  -25.1162  -30.8285   20.8162 C   0  0  0  0  0  0  0  0  0  0  0  0
  -18.6429  -29.1847   23.5559 C   0  0  0  0  0  0  0  0  0  0  0  0
  -29.9715  -20.2033   24.4671 C   0  0  0  0  0  0  0  0  0  0  0  0
  -30.9254  -29.5661   16.5144 C   0  0  0  0  0  0  0  0  0  0  0  0
  -19.1335  -29.6143   22.1769 C   0  0  0  0  0  0  0  0  0  0  0  0
  -29.8736  -18.9506   23.5933 C   0  0  0  0  0  0  0  0  0  0  0  0
  -29.8865  -28.8630   15.6552 C   0  0  0  0  0  0  0  0  0  0  0  0
  -31.4216  -28.4649   17.4462 C   0  0  0  0  0  0  0  0  0  0  0  0
  -29.1781  -21.3686   23.8787 C   0  0  0  0  0  0  0  0  0  0  0  0
  -29.3955  -20.4391   21.6076 C   0  0  0  0  0  0  0  0  0  0  0  0
  -20.1962  -28.6462   21.6431 C   0  0  1  0  0  0  0  0  0  0  0  0
  -23.6219  -29.9525   22.6388 C   0  0  1  0  0  0  0  0  0  0  0  0
  -30.2317  -19.2577   22.1260 C   0  0  2  0  0  0  0  0  0  0  0  0
  -29.2144  -27.8805   16.6244 C   0  0  2  0  0  0  0  0  0  0  0  0
  -31.2315  -25.0816   16.3917 C   0  0  0  0  0  0  0  0  0  0  0  0
  -28.6263  -35.8373   23.2110 C   0  0  0  0  0  0  0  0  0  0  0  0
  -22.7993  -34.0329   20.6303 C   0  0  0  0  0  0  0  0  0  0  0  0
  -24.6719  -35.6904   20.7488 C   0  0  0  0  0  0  0  0  0  0  0  0
  -23.3158  -35.1957   22.7833 C   0  0  0  0  0  0  0  0  0  0  0  0
  -29.3558  -32.1624   23.8736 C   0  0  0  0  0  0  0  0  0  0  0  0
  -28.0505  -28.5367   17.3660 C   0  0  0  0  0  0  0  0  0  1  0  0
  -24.9541  -33.4669   21.9351 C   0  0  1  0  0  0  0  0  0  0  0  0
  -28.2796  -34.3861   23.5053 C   0  0  2  0  0  0  0  0  0  0  0  0
  -23.9404  -34.5693   21.5174 C   0  0  0  0  0  0  0  0  0  0  0  0
  -29.1466  -17.1219   21.5409 N   0  0  0  0  0  0  0  0  0  0  0  0
  -30.0910  -18.0309   21.2444 N   0  0  0  0  0  0  0  0  0  0  0  0
  -30.2956  -27.5352   17.5555 N   0  0  3  0  0  0  0  0  0  0  0  0
  -24.4056  -31.0584   22.0849 N   0  0  0  0  0  0  0  0  0  0  0  0
  -29.5736  -21.6041   22.4884 N   0  0  0  0  0  0  0  0  0  0  0  0
  -31.8218  -18.5228   19.7038 N   0  0  0  0  0  0  0  0  0  0  0  0
  -30.1873  -14.5857   18.2126 N   0  0  0  0  0  0  0  0  0  0  0  0
  -30.4430  -22.9662   20.7704 N   0  0  0  0  0  0  0  0  0  0  0  0
  -21.4734  -28.8992   22.2749 N   0  0  0  0  0  0  0  0  0  0  0  0
  -26.0306  -33.9410   22.7981 N   0  0  0  0  0  0  0  0  0  0  0  0
  -29.5465  -33.6037   23.5680 N   0  3  0  0  0  0  0  0  0  0  0  0
  -31.7625  -16.2095   17.8378 O   0  0  0  0  0  0  0  0  0  0  0  0
  -22.1978  -30.6135   20.8753 O   0  0  0  0  0  0  0  0  0  0  0  0
  -23.7053  -32.5522   23.7325 O   0  0  0  0  0  0  0  0  0  0  0  0
  -27.7719  -33.3050   21.4051 O   0  0  0  0  0  0  0  0  0  0  0  0
  -30.1786  -23.7928   22.9218 O   0  0  0  0  0  0  0  0  0  0  0  0
  -26.0045  -11.6862   20.4781 O   0  0  0  0  0  0  0  0  0  0  0  0
  -27.1850  -27.5184   17.8664 O   0  0  0  0  0  0  0  0  0  1  0  0
  -23.8866  -10.1824   15.6143 F   0  0  0  0  0  0  0  0  0  0  0  0
  -23.2688  -11.5758   20.0956 F   0  0  0  0  0  0  0  0  0  0  0  0
  -31.2555  -22.8824   18.1144 F   0  0  0  0  0  0  0  0  0  0  0  0
  1  2  1  0  0  0  0
  1  5  2  0  0  0  0
  2  6  2  0  0  0  0
  3 10  2  0  0  0  0
  3 17  1  0  0  0  0
  4 11  1  0  0  0  0
  4 17  2  0  0  0  0
  5 19  1  0  0  0  0
  6 21  1  0  0  0  0
  7 12  2  0  0  0  0
  7 20  1  0  0  0  0
  8  9  2  0  0  0  0
  8 24  1  0  0  0  0
  9 25  1  0  0  0  0
 10 26  1  0  0  0  0
 11 26  2  0  0  0  0
 12 27  1  0  0  0  0
 13 14  2  0  0  0  0
 13 28  1  0  0  0  0
 14 29  1  0  0  0  0
 15 22  1  0  0  0  0
 15 27  2  0  0  0  0
 16 29  2  0  0  0  0
 16 30  1  0  0  0  0
 17 32  1  0  0  0  0
 18 32  1  0  0  0  0
 18 33  2  0  0  0  0
 18 34  1  0  0  0  0
 19 21  2  0  0  0  0
 19 39  1  0  0  0  0
 20 22  2  0  0  0  0
 20 40  1  0  0  0  0
 21 51  1  0  0  0  0
 22 41  1  0  0  0  0
 23 24  2  0  0  0  0
 23 31  1  0  0  0  0
 23 55  1  0  0  0  0
 24 67  1  0  0  0  0
 25 31  2  0  0  0  0
 25 72  1  0  0  0  0
 26 81  1  0  0  0  0
 27 82  1  0  0  0  0
 28 30  2  0  0  0  0
 28 81  1  0  0  0  0
 29 83  1  0  0  0  0
 30 84  1  0  0  0  0
 31 85  1  0  0  0  0
 32 65  2  0  0  0  0
 33 66  1  0  0  0  0
 33 70  1  0  0  0  0
 34 71  1  0  0  0  0
 34 76  2  0  0  0  0
 35 52  1  0  0  0  0
 35 73  1  0  0  0  0
 35 77  2  0  0  0  0
 36 62  1  0  0  0  0
 36 68  1  0  0  0  0
 36 78  2  0  0  0  0
 37 63  1  0  0  0  0
 37 74  1  0  0  0  0
 37 79  2  0  0  0  0
 38 69  1  0  0  0  0
 38 72  1  0  0  0  0
 38 80  2  0  0  0  0
 39 42  1  0  0  0  0
 40 52  1  0  0  0  0
 41 68  1  0  0  0  0
 42 45  1  0  0  0  0
 43 46  1  0  0  0  0
 43 49  1  0  0  0  0
 44 47  1  0  0  0  0
 44 48  1  0  0  0  0
 45 51  1  0  0  0  0
 46 53  1  0  0  0  0
 47 54  1  0  0  0  0
 48 67  1  0  0  0  0
 49 69  1  0  0  0  0
 50 53  1  0  0  0  0
 50 69  1  0  0  0  0
 51 73  1  0  0  0  0
 52 68  1  0  0  0  0
 53 66  1  0  0  0  0
 54 61  1  0  0  0  0
 54 67  1  0  0  0  0
 56 63  1  0  0  0  0
 57 64  1  0  0  0  0
 58 64  1  0  0  0  0
 59 64  1  0  0  0  0
 60 75  1  0  0  0  0
 61 82  1  0  0  0  0
 62 64  1  0  0  0  0
 62 74  1  0  0  0  0
 63 75  1  0  0  0  0
 65 66  1  0  0  0  0
M  CHG  1  75   1
M  ISO  4  38 100  61 101  72 100  82 101
M  END
> <Batch ID>
0023

> <Smiles>
CNC(C)C(=O)NC(C(=O)N1Cc2cc([101O:1][101CH2:1]C3CCCN3c3ccc([100NH:0][100C:0](=O)N4CCCC(n5nc(-c6ccc(Oc7ccc(F)cc7F)cc6)c(C(N)=O)c5N)C4)c(F)c3C)ccc2CC1C(=O)NC1CCCc2ccccc21)C(C)(C)C

> <Shape>
0.274

> <Color>
0.099

> <Negative vol penalty>
0.000

$$$$

  -OEChem-04042321173D

 87 96  0     1  0  0  0  0  0999 V2000
  -24.0764  -35.6210   15.6031 C   0  0  0  0  0  0  0  0  0  0  0  0
  -24.4107  -34.2706   15.6175 C   0  0  0  0  0  0  0  0  0  0  0  0
  -23.9356   -8.2882   20.2844 C   0  0  0  0  0  0  0  0  0  0  0  0
  -23.5969  -10.5935   20.9234 C   0  0  0  0  0  0  0  0  0  0  0  0
  -24.3700  -36.4224   16.7056 C   0  0  0  0  0  0  0  0  0  0  0  0
  -25.0399  -33.7211   16.7340 C   0  0  0  0  0  0  0  0  0  0  0  0
  -24.2975  -28.0673   18.9675 C   0  0  0  0  0  0  0  0  0  0  0  0
  -29.4437  -18.7599   21.3115 C   0  0  0  0  0  0  0  0  0  0  0  0
  -29.6809  -17.4345   20.9473 C   0  0  0  0  0  0  0  0  0  0  0  0
  -22.8796   -7.9040   21.1107 C   0  0  0  0  0  0  0  0  0  0  0  0
  -22.5408  -10.2093   21.7497 C   0  0  0  0  0  0  0  0  0  0  0  0
  -25.0448  -26.8984   18.8291 C   0  0  0  0  0  0  0  0  0  0  0  0
  -19.5002   -7.9082   20.9985 C   0  0  0  0  0  0  0  0  0  0  0  0
  -18.5734   -7.0003   20.4861 C   0  0  0  0  0  0  0  0  0  0  0  0
  -26.1673  -27.3769   20.9101 C   0  0  0  0  0  0  0  0  0  0  0  0
  -27.5573  -17.3705   19.7969 C   0  0  0  0  0  0  0  0  0  0  0  0
  -19.1107   -5.4507   22.2602 C   0  0  0  0  0  0  0  0  0  0  0  0
  -24.2943   -9.6330   20.1908 C   0  0  0  0  0  0  0  0  0  0  0  0
  -25.4885   -9.8435   17.9464 C   0  0  0  0  0  0  0  0  0  0  0  0
  -24.9944  -35.8803   17.8400 C   0  0  0  0  0  0  0  0  0  0  0  0
  -24.4875  -28.9067   20.0746 C   0  0  0  0  0  0  0  0  0  0  0  0
  -25.3433  -34.5163   17.8522 C   0  0  0  0  0  0  0  0  0  0  0  0
  -25.4193  -28.5545   21.0615 C   0  0  0  0  0  0  0  0  0  0  0  0
  -28.2632  -19.3906   20.9185 C   0  0  0  0  0  0  0  0  0  0  0  0
  -28.7378  -16.7398   20.1900 C   0  0  0  0  0  0  0  0  0  0  0  0
  -22.1822   -8.8645   21.8433 C   0  0  0  0  0  0  0  0  0  0  0  0
  -25.9819  -26.5546   19.7990 C   0  0  0  0  0  0  0  0  0  0  0  0
  -20.2323   -7.5873   22.1416 C   0  0  0  0  0  0  0  0  0  0  0  0
  -18.3787   -5.7716   21.1170 C   0  0  0  0  0  0  0  0  0  0  0  0
  -27.3200  -18.6959   20.1612 C   0  0  0  0  0  0  0  0  0  0  0  0
  -20.0375   -6.3586   22.7725 C   0  0  0  0  0  0  0  0  0  0  0  0
  -25.3855  -10.0304   19.3379 C   0  0  0  0  0  0  0  0  0  0  0  0
  -26.7033  -10.3920   17.6152 C   0  0  0  0  0  0  0  0  0  0  0  0
  -27.1516  -22.5577   19.7912 C   0  0  0  0  0  0  0  0  0  0  0  0
  -24.5682   -9.2290   17.0347 C   0  0  0  0  0  0  0  0  0  0  0  0
  -25.4391  -31.9133   20.4728 C   0  0  0  0  0  0  0  0  0  0  0  0
  -24.6562  -31.3406   23.5682 C   0  0  0  0  0  0  0  0  0  0  0  0
  -24.1853  -29.0604   26.0634 C   0  0  0  0  0  0  0  0  0  0  0  0
  -30.0958  -14.6189   20.1312 C   0  0  0  0  0  0  0  0  0  0  0  0
  -25.3344  -36.7964   18.9889 C   0  0  0  0  0  0  0  0  0  0  0  0
  -23.6544  -30.1502   20.2227 C   0  0  0  0  0  0  0  0  0  0  0  0
  -25.6467  -29.4112   22.2792 C   0  0  0  0  0  0  0  0  0  0  0  0
  -25.6642  -36.0551   20.2820 C   0  0  0  0  0  0  0  0  0  0  0  0
  -29.7373  -22.6122   18.4135 C   0  0  0  0  0  0  0  0  0  0  0  0
  -31.0447  -11.2569   19.4425 C   0  0  0  0  0  0  0  0  0  0  0  0
  -26.6281  -34.9052   20.0071 C   0  0  0  0  0  0  0  0  0  0  0  0
  -28.8452  -23.8378   18.3860 C   0  0  0  0  0  0  0  0  0  0  0  0
  -29.7108  -10.5452   19.2049 C   0  0  0  0  0  0  0  0  0  0  0  0
  -29.5869  -21.9012   19.7444 C   0  0  0  0  0  0  0  0  0  0  0  0
  -30.9352  -12.3157   20.5383 C   0  0  0  0  0  0  0  0  0  0  0  0
  -28.5236  -12.5834   20.1123 C   0  0  0  0  0  0  0  0  0  0  0  0
  -26.0042  -33.8780   19.0547 C   0  0  1  0  0  0  0  0  0  0  0  0
  -27.3932  -23.4007   18.5369 C   0  0  2  0  0  0  0  0  0  0  0  0
  -24.2958  -31.1944   21.1314 C   0  0  1  0  0  0  0  0  0  0  0  0
  -28.5680  -11.5528   18.9722 C   0  0  2  0  0  0  0  0  0  0  0  0
  -23.5860  -28.8964   28.4947 C   0  0  0  0  0  0  0  0  0  0  0  0
  -27.4612  -32.2769   24.3203 C   0  0  0  0  0  0  0  0  0  0  0  0
  -27.1386  -31.2146   26.5643 C   0  0  0  0  0  0  0  0  0  0  0  0
  -25.6491  -33.0816   25.8445 C   0  0  0  0  0  0  0  0  0  0  0  0
  -21.7709  -27.4515   25.4791 C   0  0  0  0  0  0  0  0  0  0  0  0
  -28.0126  -20.8180   21.3110 C   0  0  0  0  0  0  0  0  0  0  0  0
  -26.4688  -24.6176   18.5079 C   0  0  0  0  0  0  0  0  0  1  0  0
  -25.3888  -30.8056   24.7749 C   0  0  1  0  0  0  0  0  0  0  0  0
  -23.0606  -28.8840   27.0676 C   0  0  2  0  0  0  0  0  0  0  0  0
  -26.4068  -31.8293   25.3522 C   0  0  0  0  0  0  0  0  0  0  0  0
  -26.4502  -10.6492   19.8552 N   0  0  0  0  0  0  0  0  0  0  0  0
  -27.2337  -10.8558   18.7830 N   0  0  0  0  0  0  0  0  0  0  0  0
  -28.2049  -21.7327   20.1931 N   0  0  0  0  0  0  0  0  0  0  0  0
  -24.8122  -30.6203   22.3755 N   0  0  0  0  0  0  0  0  0  0  0  0
  -29.8345  -13.2373   20.2485 N   0  0  0  0  0  0  0  0  0  0  0  0
  -27.3590  -10.5180   16.4419 N   0  0  0  0  0  0  0  0  0  0  0  0
  -23.3662   -8.7171   17.5422 N   0  0  0  0  0  0  0  0  0  0  0  0
  -28.9779  -15.3928   19.8217 N   0  0  0  0  0  0  0  0  0  0  0  0
  -25.0629  -33.0379   19.7636 N   0  0  0  0  0  0  0  0  0  0  0  0
  -24.3623  -30.3846   25.7222 N   0  0  0  0  0  0  0  0  0  0  0  0
  -22.3581  -27.5901   26.8366 N   0  3  0  0  0  0  0  0  0  0  0  0
  -26.0443  -22.5592   20.3364 O   0  0  0  0  0  0  0  0  0  0  0  0
  -24.8121   -9.1218   15.8089 O   0  0  0  0  0  0  0  0  0  0  0  0
  -26.5785  -31.4805   20.6001 O   0  0  0  0  0  0  0  0  0  0  0  0
  -23.9651  -32.3560   23.6815 O   0  0  0  0  0  0  0  0  0  0  0  0
  -24.8436  -28.1182   25.6282 O   0  0  0  0  0  0  0  0  0  0  0  0
  -31.2328  -15.0781   20.2664 O   0  0  0  0  0  0  0  0  0  0  0  0
  -21.1514   -8.4900   22.6495 O   0  0  0  0  0  0  0  0  0  0  0  0
  -26.7132  -25.4147   19.6661 O   0  0  0  0  0  0  0  0  0  1  0  0
  -17.4876   -4.9005   20.6258 F   0  0  0  0  0  0  0  0  0  0  0  0
  -26.1829  -19.2934   19.7787 F   0  0  0  0  0  0  0  0  0  0  0  0
  -20.7371   -6.0452   23.8717 F   0  0  0  0  0  0  0  0  0  0  0  0
  1  2  1  0  0  0  0
  1  5  2  0  0  0  0
  2  6  2  0  0  0  0
  3 10  2  0  0  0  0
  3 18  1  0  0  0  0
  4 11  1  0  0  0  0
  4 18  2  0  0  0  0
  5 20  1  0  0  0  0
  6 22  1  0  0  0  0
  7 12  2  0  0  0  0
  7 21  1  0  0  0  0
  8  9  2  0  0  0  0
  8 24  1  0  0  0  0
  9 25  1  0  0  0  0
 10 26  1  0  0  0  0
 11 26  2  0  0  0  0
 12 27  1  0  0  0  0
 13 14  2  0  0  0  0
 13 28  1  0  0  0  0
 14 29  1  0  0  0  0
 15 23  1  0  0  0  0
 15 27  2  0  0  0  0
 16 25  2  0  0  0  0
 16 30  1  0  0  0  0
 17 29  2  0  0  0  0
 17 31  1  0  0  0  0
 18 32  1  0  0  0  0
 19 32  1  0  0  0  0
 19 33  2  0  0  0  0
 19 35  1  0  0  0  0
 20 22  2  0  0  0  0
 20 40  1  0  0  0  0
 21 23  2  0  0  0  0
 21 41  1  0  0  0  0
 22 52  1  0  0  0  0
 23 42  1  0  0  0  0
 24 30  2  0  0  0  0
 24 61  1  0  0  0  0
 25 73  1  0  0  0  0
 26 83  1  0  0  0  0
 27 84  1  0  0  0  0
 28 31  2  0  0  0  0
 28 83  1  0  0  0  0
 29 85  1  0  0  0  0
 30 86  1  0  0  0  0
 31 87  1  0  0  0  0
 32 66  2  0  0  0  0
 33 67  1  0  0  0  0
 33 71  1  0  0  0  0
 34 53  1  0  0  0  0
 34 68  1  0  0  0  0
 34 77  2  0  0  0  0
 35 72  1  0  0  0  0
 35 78  2  0  0  0  0
 36 54  1  0  0  0  0
 36 74  1  0  0  0  0
 36 79  2  0  0  0  0
 37 63  1  0  0  0  0
 37 69  1  0  0  0  0
 37 80  2  0  0  0  0
 38 64  1  0  0  0  0
 38 75  1  0  0  0  0
 38 81  2  0  0  0  0
 39 70  1  0  0  0  0
 39 73  1  0  0  0  0
 39 82  2  0  0  0  0
 40 43  1  0  0  0  0
 41 54  1  0  0  0  0
 42 69  1  0  0  0  0
 43 46  1  0  0  0  0
 44 47  1  0  0  0  0
 44 49  1  0  0  0  0
 45 48  1  0  0  0  0
 45 50  1  0  0  0  0
 46 52  1  0  0  0  0
 47 53  1  0  0  0  0
 48 55  1  0  0  0  0
 49 68  1  0  0  0  0
 50 70  1  0  0  0  0
 51 55  1  0  0  0  0
 51 70  1  0  0  0  0
 52 74  1  0  0  0  0
 53 62  1  0  0  0  0
 54 69  1  0  0  0  0
 55 67  1  0  0  0  0
 56 64  1  0  0  0  0
 57 65  1  0  0  0  0
 58 65  1  0  0  0  0
 59 65  1  0  0  0  0
 60 76  1  0  0  0  0
 61 68  1  0  0  0  0
 62 84  1  0  0  0  0
 63 65  1  0  0  0  0
 63 75  1  0  0  0  0
 64 76  1  0  0  0  0
 66 67  1  0  0  0  0
M  CHG  1  76   1
M  ISO  4  39 100  62 101  73 100  84 101
M  END
> <Batch ID>
0023

> <Smiles>
CNC(C)C(=O)NC(C(=O)N1Cc2cc([101O:1][101CH2:1]C3CCCN(Cc4ccc([100NH:0][100C:0](=O)N5CCCC(n6nc(-c7ccc(Oc8ccc(F)cc8F)cc7)c(C(N)=O)c6N)C5)cc4F)C3=O)ccc2CC1C(=O)NC1CCCc2ccccc21)C(C)(C)C

> <Shape>
0.257

> <Color>
0.091

> <Negative vol penalty>
0.000

$$$$

  -OEChem-04042321173D

 85 94  0     1  0  0  0  0  0999 V2000
  -28.1883  -24.5094   17.8347 C   0  0  0  0  0  0  0  0  0  0  0  0
  -27.0703  -25.0981   18.4169 C   0  0  0  0  0  0  0  0  0  0  0  0
  -26.0906  -14.0961   19.5411 C   0  0  0  0  0  0  0  0  0  0  0  0
  -24.2770  -14.1560   21.1362 C   0  0  0  0  0  0  0  0  0  0  0  0
  -29.4260  -24.5850   18.4720 C   0  0  0  0  0  0  0  0  0  0  0  0
  -27.1893  -25.7618   19.6375 C   0  0  0  0  0  0  0  0  0  0  0  0
  -24.7594  -30.2047   19.6778 C   0  0  0  0  0  0  0  0  0  0  0  0
  -21.2092  -25.2674   23.2191 C   0  0  0  0  0  0  0  0  0  0  0  0
  -22.2995  -24.4571   22.9027 C   0  0  0  0  0  0  0  0  0  0  0  0
  -26.2969  -12.7464   19.8263 C   0  0  0  0  0  0  0  0  0  0  0  0
  -24.4833  -12.8063   21.4215 C   0  0  0  0  0  0  0  0  0  0  0  0
  -23.3749  -30.1718   19.8388 C   0  0  0  0  0  0  0  0  0  0  0  0
  -23.7423   -9.8237   20.0161 C   0  0  0  0  0  0  0  0  0  0  0  0
  -22.6192   -9.0001   20.0929 C   0  0  0  0  0  0  0  0  0  0  0  0
  -23.6397  -30.7154   22.1741 C   0  0  0  0  0  0  0  0  0  0  0  0
  -20.9676  -23.3130   21.2431 C   0  0  0  0  0  0  0  0  0  0  0  0
  -23.1711   -8.4608   22.3823 C   0  0  0  0  0  0  0  0  0  0  0  0
  -25.0807  -14.8009   20.1961 C   0  0  0  0  0  0  0  0  0  0  0  0
  -24.0192  -16.7366   18.9178 C   0  0  0  0  0  0  0  0  0  0  0  0
  -29.5622  -25.2583   19.6962 C   0  0  0  0  0  0  0  0  0  0  0  0
  -25.5963  -30.4829   20.7679 C   0  0  0  0  0  0  0  0  0  0  0  0
  -28.4298  -25.8453   20.2924 C   0  0  0  0  0  0  0  0  0  0  0  0
  -25.0343  -30.7538   22.0237 C   0  0  0  0  0  0  0  0  0  0  0  0
  -19.9980  -25.1005   22.5476 C   0  0  0  0  0  0  0  0  0  0  0  0
  -22.1787  -23.4799   21.9147 C   0  0  0  0  0  0  0  0  0  0  0  0
  -25.4932  -12.1015   20.7665 C   0  0  0  0  0  0  0  0  0  0  0  0
  -22.8150  -30.4243   21.0878 C   0  0  0  0  0  0  0  0  0  0  0  0
  -24.5799   -9.9658   21.1224 C   0  0  0  0  0  0  0  0  0  0  0  0
  -22.3335   -8.3186   21.2760 C   0  0  0  0  0  0  0  0  0  0  0  0
  -19.8772  -24.1233   21.5596 C   0  0  0  0  0  0  0  0  0  0  0  0
  -24.2942   -9.2843   22.3055 C   0  0  0  0  0  0  0  0  0  0  0  0
  -24.8675  -16.1953   19.9023 C   0  0  0  0  0  0  0  0  0  0  0  0
  -24.1724  -18.0958   19.0421 C   0  0  0  0  0  0  0  0  0  0  0  0
  -19.1625  -28.4279   23.5116 C   0  0  0  0  0  0  0  0  0  0  0  0
  -23.1687  -16.0703   17.9752 C   0  0  0  0  0  0  0  0  0  0  0  0
  -27.8777  -28.8928   22.3077 C   0  0  0  0  0  0  0  0  0  0  0  0
  -28.2416  -31.7091   23.8755 C   0  0  0  0  0  0  0  0  0  0  0  0
  -26.8659  -34.6689   24.8724 C   0  0  0  0  0  0  0  0  0  0  0  0
  -24.5571  -22.6886   22.1665 C   0  0  0  0  0  0  0  0  0  0  0  0
  -30.9111  -25.2729   20.3706 C   0  0  0  0  0  0  0  0  0  0  0  0
  -27.0865  -30.5410   20.5718 C   0  0  0  0  0  0  0  0  0  0  0  0
  -25.8882  -31.0776   23.2214 C   0  0  0  0  0  0  0  0  0  0  0  0
  -31.0272  -26.3171   21.4781 C   0  0  0  0  0  0  0  0  0  0  0  0
  -27.5383  -20.8036   21.6804 C   0  0  0  0  0  0  0  0  0  0  0  0
  -29.8020  -26.2712   22.3856 C   0  0  0  0  0  0  0  0  0  0  0  0
  -27.0394  -19.4812   21.0935 C   0  0  0  0  0  0  0  0  0  0  0  0
  -26.5771  -21.3561   22.7314 C   0  0  0  0  0  0  0  0  0  0  0  0
  -19.5911  -28.0445   21.4904 C   0  0  0  0  0  0  0  0  0  0  0  0
  -24.6833  -20.1616   21.7038 C   0  0  0  0  0  0  0  0  0  0  0  0
  -28.5235  -26.5955   21.6034 C   0  0  1  0  0  0  0  0  0  0  0  0
  -19.6201  -29.3388   22.3477 C   0  0  2  0  0  0  0  0  0  0  0  0
  -27.8681  -30.3285   21.8645 C   0  0  1  0  0  0  0  0  0  0  0  0
  -25.5861  -19.5990   20.5939 C   0  0  2  0  0  0  0  0  0  0  0  0
  -27.3958  -36.7485   26.1731 C   0  0  0  0  0  0  0  0  0  0  0  0
  -27.9334  -30.1541   26.4825 C   0  0  0  0  0  0  0  0  0  0  0  0
  -27.5191  -32.3298   27.6500 C   0  0  0  0  0  0  0  0  0  0  0  0
  -29.7061  -31.9178   26.5231 C   0  0  0  0  0  0  0  0  0  0  0  0
  -26.4363  -36.3966   22.5082 C   0  0  0  0  0  0  0  0  0  0  0  0
  -18.8274  -25.9762   22.8900 C   0  0  0  0  0  0  0  0  0  0  0  0
  -20.9709  -30.0034   22.5293 C   0  0  0  0  0  0  0  0  0  1  0  0
  -27.6449  -32.3264   25.1172 C   0  0  1  0  0  0  0  0  0  0  0  0
  -27.3821  -36.0947   24.8001 C   0  0  2  0  0  0  0  0  0  0  0  0
  -28.1846  -31.6740   26.4213 C   0  0  0  0  0  0  0  0  0  0  0  0
  -25.5120  -17.1341   20.6004 N   0  0  0  0  0  0  0  0  0  0  0  0
  -25.0685  -18.2789   20.0539 N   0  0  0  0  0  0  0  0  0  0  0  0
  -19.1166  -27.3617   22.6824 N   0  0  0  0  0  0  0  0  0  0  0  0
  -27.3400  -31.1162   22.9803 N   0  0  0  0  0  0  0  0  0  0  0  0
  -25.2208  -21.4436   22.1858 N   0  0  0  0  0  0  0  0  0  0  0  0
  -23.6267  -19.1403   18.3836 N   0  0  0  0  0  0  0  0  0  0  0  0
  -23.1307  -14.6693   17.9836 N   0  0  0  0  0  0  0  0  0  0  0  0
  -23.2857  -22.6554   21.5946 N   0  0  0  0  0  0  0  0  0  0  0  0
  -28.4157  -28.0213   21.3800 N   0  0  0  0  0  0  0  0  0  0  0  0
  -27.8929  -33.7607   25.0197 N   0  0  0  0  0  0  0  0  0  0  0  0
  -26.5216  -36.9121   23.8988 N   0  3  0  0  0  0  0  0  0  0  0  0
  -18.9360  -28.5653   24.6917 O   0  0  0  0  0  0  0  0  0  0  0  0
  -22.4758  -16.6983   17.1391 O   0  0  0  0  0  0  0  0  0  0  0  0
  -27.4314  -28.5978   23.4102 O   0  0  0  0  0  0  0  0  0  0  0  0
  -29.4620  -31.7578   23.7025 O   0  0  0  0  0  0  0  0  0  0  0  0
  -25.6708  -34.3892   24.8085 O   0  0  0  0  0  0  0  0  0  0  0  0
  -25.0890  -23.7143   22.5989 O   0  0  0  0  0  0  0  0  0  0  0  0
  -25.6941  -10.7844   21.0449 O   0  0  0  0  0  0  0  0  0  0  0  0
  -21.4640  -30.3921   21.2479 O   0  0  0  0  0  0  0  0  0  1  0  0
  -21.2541   -7.5290   21.3500 F   0  0  0  0  0  0  0  0  0  0  0  0
  -18.7176  -23.9555   20.9088 F   0  0  0  0  0  0  0  0  0  0  0  0
  -25.0946   -9.4178   23.3721 F   0  0  0  0  0  0  0  0  0  0  0  0
  1  2  1  0  0  0  0
  1  5  2  0  0  0  0
  2  6  2  0  0  0  0
  3 10  2  0  0  0  0
  3 18  1  0  0  0  0
  4 11  1  0  0  0  0
  4 18  2  0  0  0  0
  5 20  1  0  0  0  0
  6 22  1  0  0  0  0
  7 12  2  0  0  0  0
  7 21  1  0  0  0  0
  8  9  2  0  0  0  0
  8 24  1  0  0  0  0
  9 25  1  0  0  0  0
 10 26  1  0  0  0  0
 11 26  2  0  0  0  0
 12 27  1  0  0  0  0
 13 14  2  0  0  0  0
 13 28  1  0  0  0  0
 14 29  1  0  0  0  0
 15 23  1  0  0  0  0
 15 27  2  0  0  0  0
 16 25  2  0  0  0  0
 16 30  1  0  0  0  0
 17 29  2  0  0  0  0
 17 31  1  0  0  0  0
 18 32  1  0  0  0  0
 19 32  1  0  0  0  0
 19 33  2  0  0  0  0
 19 35  1  0  0  0  0
 20 22  2  0  0  0  0
 20 40  1  0  0  0  0
 21 23  2  0  0  0  0
 21 41  1  0  0  0  0
 22 50  1  0  0  0  0
 23 42  1  0  0  0  0
 24 30  2  0  0  0  0
 24 59  1  0  0  0  0
 25 71  1  0  0  0  0
 26 81  1  0  0  0  0
 27 82  1  0  0  0  0
 28 31  2  0  0  0  0
 28 81  1  0  0  0  0
 29 83  1  0  0  0  0
 30 84  1  0  0  0  0
 31 85  1  0  0  0  0
 32 64  2  0  0  0  0
 33 65  1  0  0  0  0
 33 69  1  0  0  0  0
 34 51  1  0  0  0  0
 34 66  1  0  0  0  0
 34 75  2  0  0  0  0
 35 70  1  0  0  0  0
 35 76  2  0  0  0  0
 36 52  1  0  0  0  0
 36 72  1  0  0  0  0
 36 77  2  0  0  0  0
 37 61  1  0  0  0  0
 37 67  1  0  0  0  0
 37 78  2  0  0  0  0
 38 62  1  0  0  0  0
 38 73  1  0  0  0  0
 38 79  2  0  0  0  0
 39 68  1  0  0  0  0
 39 71  1  0  0  0  0
 39 80  2  0  0  0  0
 40 43  1  0  0  0  0
 41 52  1  0  0  0  0
 42 67  1  0  0  0  0
 43 45  1  0  0  0  0
 44 46  1  0  0  0  0
 44 47  1  0  0  0  0
 45 50  1  0  0  0  0
 46 53  1  0  0  0  0
 47 68  1  0  0  0  0
 48 51  1  0  0  0  0
 48 66  1  0  0  0  0
 49 53  1  0  0  0  0
 49 68  1  0  0  0  0
 50 72  1  0  0  0  0
 51 60  1  0  0  0  0
 52 67  1  0  0  0  0
 53 65  1  0  0  0  0
 54 62  1  0  0  0  0
 55 63  1  0  0  0  0
 56 63  1  0  0  0  0
 57 63  1  0  0  0  0
 58 74  1  0  0  0  0
 59 66  1  0  0  0  0
 60 82  1  0  0  0  0
 61 63  1  0  0  0  0
 61 73  1  0  0  0  0
 62 74  1  0  0  0  0
 64 65  1  0  0  0  0
M  CHG  1  74   1
M  ISO  4  39 100  60 101  71 100  82 101
M  END
> <Batch ID>
0023

> <Smiles>
CNC(C)C(=O)NC(C(=O)N1Cc2cc([101O:1][101CH2:1]C3CN(Cc4ccc([100NH:0][100C:0](=O)N5CCCC(n6nc(-c7ccc(Oc8ccc(F)cc8F)cc7)c(C(N)=O)c6N)C5)cc4F)C3=O)ccc2CC1C(=O)NC1CCCc2ccccc21)C(C)(C)C

> <Shape>
0.297

> <Color>
0.094

> <Negative vol penalty>
0.000

$$$$

  -OEChem-04042321173D

 89 98  0     1  0  0  0  0  0999 V2000
  -29.5351  -32.0275   20.9883 C   0  0  0  0  0  0  0  0  0  0  0  0
  -29.2051  -30.8563   21.6627 C   0  0  0  0  0  0  0  0  0  0  0  0
  -22.8573  -15.6206   21.4736 C   0  0  0  0  0  0  0  0  0  0  0  0
  -22.2105  -14.5773   19.3926 C   0  0  0  0  0  0  0  0  0  0  0  0
  -28.5772  -33.0262   20.8184 C   0  0  0  0  0  0  0  0  0  0  0  0
  -27.9172  -30.6836   22.1685 C   0  0  0  0  0  0  0  0  0  0  0  0
  -26.0497  -26.0778   21.1971 C   0  0  0  0  0  0  0  0  0  0  0  0
  -29.0479  -18.9463   18.8506 C   0  0  0  0  0  0  0  0  0  0  0  0
  -29.7353  -17.8109   19.2795 C   0  0  0  0  0  0  0  0  0  0  0  0
  -21.7314  -16.4415   21.4120 C   0  0  0  0  0  0  0  0  0  0  0  0
  -21.0845  -15.3983   19.3311 C   0  0  0  0  0  0  0  0  0  0  0  0
  -26.4971  -25.0275   21.9975 C   0  0  0  0  0  0  0  0  0  0  0  0
  -20.7804  -19.2463   19.7831 C   0  0  0  0  0  0  0  0  0  0  0  0
  -20.9515  -20.6018   20.0638 C   0  0  0  0  0  0  0  0  0  0  0  0
  -24.4731  -25.1678   23.3024 C   0  0  0  0  0  0  0  0  0  0  0  0
  -19.3903  -20.4188   21.8986 C   0  0  0  0  0  0  0  0  0  0  0  0
  -23.0969  -14.6885   20.4639 C   0  0  0  0  0  0  0  0  0  0  0  0
  -24.3567  -12.5731   21.1318 C   0  0  0  0  0  0  0  0  0  0  0  0
  -27.2742  -32.8616   21.3140 C   0  0  0  0  0  0  0  0  0  0  0  0
  -24.8135  -26.6892   21.4506 C   0  0  0  0  0  0  0  0  0  0  0  0
  -26.9413  -31.6817   22.0063 C   0  0  0  0  0  0  0  0  0  0  0  0
  -24.0112  -26.2239   22.5022 C   0  0  0  0  0  0  0  0  0  0  0  0
  -28.2320  -19.6453   19.7403 C   0  0  0  0  0  0  0  0  0  0  0  0
  -29.6067  -17.3744   20.5980 C   0  0  0  0  0  0  0  0  0  0  0  0
  -28.1034  -19.2087   21.0588 C   0  0  0  0  0  0  0  0  0  0  0  0
  -20.8449  -16.3304   20.3408 C   0  0  0  0  0  0  0  0  0  0  0  0
  -25.7101  -24.5743   23.0521 C   0  0  0  0  0  0  0  0  0  0  0  0
  -19.9142  -18.4770   20.5600 C   0  0  0  0  0  0  0  0  0  0  0  0
  -20.2565  -21.1881   21.1216 C   0  0  0  0  0  0  0  0  0  0  0  0
  -19.2192  -19.0633   21.6178 C   0  0  0  0  0  0  0  0  0  0  0  0
  -28.7908  -18.0733   21.4877 C   0  0  0  0  0  0  0  0  0  0  0  0
  -24.2602  -13.8405   20.5266 C   0  0  0  0  0  0  0  0  0  0  0  0
  -25.6581  -12.1891   20.9188 C   0  0  0  0  0  0  0  0  0  0  0  0
  -23.3591  -11.8111   21.8244 C   0  0  0  0  0  0  0  0  0  0  0  0
  -23.8831  -29.6221   22.2482 C   0  0  0  0  0  0  0  0  0  0  0  0
  -20.9180  -28.3728   21.8363 C   0  0  0  0  0  0  0  0  0  0  0  0
  -18.9230  -25.6045   21.7775 C   0  0  0  0  0  0  0  0  0  0  0  0
  -30.6157  -15.1455   20.1448 C   0  0  0  0  0  0  0  0  0  0  0  0
  -26.2863  -33.9890   21.1472 C   0  0  0  0  0  0  0  0  0  0  0  0
  -24.3332  -27.8033   20.5614 C   0  0  0  0  0  0  0  0  0  0  0  0
  -22.6670  -26.8330   22.8035 C   0  0  0  0  0  0  0  0  0  0  0  0
  -24.8380  -33.5701   21.3862 C   0  0  0  0  0  0  0  0  0  0  0  0
  -29.2875  -12.7609   17.8662 C   0  0  0  0  0  0  0  0  0  0  0  0
  -24.3591  -20.4045   17.3787 C   0  0  0  0  0  0  0  0  0  0  0  0
  -24.4471  -21.8741   17.7384 C   0  0  0  0  0  0  0  0  0  0  0  0
  -24.7264  -32.7369   22.6591 C   0  0  0  0  0  0  0  0  0  0  0  0
  -27.8414  -12.6528   18.3487 C   0  0  0  0  0  0  0  0  0  0  0  0
  -29.8043  -14.1987   17.9241 C   0  0  0  0  0  0  0  0  0  0  0  0
  -28.2018  -14.7326   19.7328 C   0  0  0  0  0  0  0  0  0  0  0  0
  -25.7345  -19.8917   17.7480 C   0  0  0  0  0  0  0  0  0  0  0  0
  -25.2027  -21.8867   19.0557 C   0  0  0  0  0  0  0  0  0  0  0  0
  -25.5479  -31.4469   22.5478 C   0  0  1  0  0  0  0  0  0  0  0  0
  -23.2883  -28.6922   21.2288 C   0  0  1  0  0  0  0  0  0  0  0  0
  -27.6744  -13.2893   19.7398 C   0  0  1  0  0  0  0  0  0  0  0  0
  -16.8450  -24.2387   21.4404 C   0  0  0  0  0  0  0  0  0  0  0  0
  -20.2452  -29.3686   24.6409 C   0  0  0  0  0  0  0  0  0  0  0  0
  -18.2534  -27.8518   24.6261 C   0  0  0  0  0  0  0  0  0  0  0  0
  -18.4279  -29.6949   22.9541 C   0  0  0  0  0  0  0  0  0  0  0  0
  -30.9424  -16.2123   22.3653 C   0  0  0  0  0  0  0  0  0  0  0  0
  -19.5504  -25.1421   18.9224 C   0  0  0  0  0  0  0  0  0  0  0  0
  -27.5077  -20.8584   19.2541 C   0  0  0  0  0  0  0  0  0  0  0  0
  -26.7947  -21.2415   23.9265 C   0  0  0  0  0  0  0  0  0  0  0  0
  -27.6470  -20.1258   23.3340 C   0  0  0  0  0  0  0  0  0  0  0  0
  -26.9930  -22.5791   23.2233 C   0  0  0  0  0  0  0  0  0  1  0  0
  -19.9219  -27.6681   22.7252 C   0  0  1  0  0  0  0  0  0  0  0  0
  -17.8799  -25.1357   20.7793 C   0  0  2  0  0  0  0  0  0  0  0  0
  -19.2382  -28.6355   23.7324 C   0  0  0  0  0  0  0  0  0  0  0  0
  -25.4088  -14.2354   19.9710 N   0  0  0  0  0  0  0  0  0  0  0  0
  -26.2394  -13.2102   20.2263 N   0  0  0  0  0  0  0  0  0  0  0  0
  -22.2442  -27.9237   21.9096 N   0  0  0  0  0  0  0  0  0  0  0  0
  -29.5868  -14.7773   19.2575 N   0  0  0  0  0  0  0  0  0  0  0  0
  -26.3504  -11.0811   21.2583 N   0  0  0  0  0  0  0  0  0  0  0  0
  -22.0733  -12.3539   21.9528 N   0  0  0  0  0  0  0  0  0  0  0  0
  -27.2959  -19.8929   21.9539 N   0  0  0  0  0  0  0  0  0  0  0  0
  -24.8485  -30.4704   21.7404 N   0  0  0  0  0  0  0  0  0  0  0  0
  -18.9942  -26.9804   21.8336 N   0  0  0  0  0  0  0  0  0  0  0  0
  -30.3182  -16.1973   21.0379 N   0  0  0  0  0  0  0  0  0  0  0  0
  -26.0475  -20.6259   19.0333 N   0  3  0  0  0  0  0  0  0  0  0  0
  -18.5263  -24.3724   19.6745 N   0  3  0  0  0  0  0  0  0  0  0  0
  -23.6051  -10.6894   22.3292 O   0  0  0  0  0  0  0  0  0  0  0  0
  -23.4940  -29.5745   23.4092 O   0  0  0  0  0  0  0  0  0  0  0  0
  -20.5323  -29.2831   21.0987 O   0  0  0  0  0  0  0  0  0  0  0  0
  -19.6039  -24.8279   22.4437 O   0  0  0  0  0  0  0  0  0  0  0  0
  -31.7066  -14.5625   20.1565 O   0  0  0  0  0  0  0  0  0  0  0  0
  -19.7460  -17.1312   20.2805 O   0  0  0  0  0  0  0  0  0  0  0  0
  -26.1446  -23.5497   23.8353 O   0  0  0  0  0  0  0  0  0  1  0  0
  -20.4220  -22.4895   21.3921 F   0  0  0  0  0  0  0  0  0  0  0  0
  -18.3865  -18.3291   22.3685 F   0  0  0  0  0  0  0  0  0  0  0  0
  -28.6675  -17.6520   22.7559 F   0  0  0  0  0  0  0  0  0  0  0  0
  1  2  1  0  0  0  0
  1  5  2  0  0  0  0
  2  6  2  0  0  0  0
  3 10  2  0  0  0  0
  3 17  1  0  0  0  0
  4 11  1  0  0  0  0
  4 17  2  0  0  0  0
  5 19  1  0  0  0  0
  6 21  1  0  0  0  0
  7 12  2  0  0  0  0
  7 20  1  0  0  0  0
  8  9  1  0  0  0  0
  8 23  2  0  0  0  0
  9 24  2  0  0  0  0
 10 26  1  0  0  0  0
 11 26  2  0  0  0  0
 12 27  1  0  0  0  0
 13 14  2  0  0  0  0
 13 28  1  0  0  0  0
 14 29  1  0  0  0  0
 15 22  1  0  0  0  0
 15 27  2  0  0  0  0
 16 29  2  0  0  0  0
 16 30  1  0  0  0  0
 17 32  1  0  0  0  0
 18 32  1  0  0  0  0
 18 33  2  0  0  0  0
 18 34  1  0  0  0  0
 19 21  2  0  0  0  0
 19 39  1  0  0  0  0
 20 22  2  0  0  0  0
 20 40  1  0  0  0  0
 21 52  1  0  0  0  0
 22 41  1  0  0  0  0
 23 25  1  0  0  0  0
 23 61  1  0  0  0  0
 24 31  1  0  0  0  0
 24 77  1  0  0  0  0
 25 31  2  0  0  0  0
 25 74  1  0  0  0  0
 26 85  1  0  0  0  0
 27 86  1  0  0  0  0
 28 30  2  0  0  0  0
 28 85  1  0  0  0  0
 29 87  1  0  0  0  0
 30 88  1  0  0  0  0
 31 89  1  0  0  0  0
 32 68  2  0  0  0  0
 33 69  1  0  0  0  0
 33 72  1  0  0  0  0
 34 73  1  0  0  0  0
 34 80  2  0  0  0  0
 35 53  1  0  0  0  0
 35 75  1  0  0  0  0
 35 81  2  0  0  0  0
 36 65  1  0  0  0  0
 36 70  1  0  0  0  0
 36 82  2  0  0  0  0
 37 66  1  0  0  0  0
 37 76  1  0  0  0  0
 37 83  2  0  0  0  0
 38 71  1  0  0  0  0
 38 77  1  0  0  0  0
 38 84  2  0  0  0  0
 39 42  1  0  0  0  0
 40 53  1  0  0  0  0
 41 70  1  0  0  0  0
 42 46  1  0  0  0  0
 43 47  1  0  0  0  0
 43 48  1  0  0  0  0
 44 45  1  0  0  0  0
 44 50  1  0  0  0  0
 45 51  1  0  0  0  0
 46 52  1  0  0  0  0
 47 54  1  0  0  0  0
 48 71  1  0  0  0  0
 49 54  1  0  0  0  0
 49 71  1  0  0  0  0
 50 78  1  0  0  0  0
 51 78  1  0  0  0  0
 52 75  1  0  0  0  0
 53 70  1  0  0  0  0
 54 69  1  0  0  0  0
 55 66  1  0  0  0  0
 56 67  1  0  0  0  0
 57 67  1  0  0  0  0
 58 67  1  0  0  0  0
 59 77  1  0  0  0  0
 60 79  1  0  0  0  0
 61 78  1  0  0  0  0
 62 63  1  0  0  0  0
 62 64  1  0  0  0  0
 63 74  1  0  0  0  0
 64 86  1  0  0  0  0
 65 67  1  0  0  0  0
 65 76  1  0  0  0  0
 66 79  1  0  0  0  0
 68 69  1  0  0  0  0
M  CHG  2  78   1  79   1
M  ISO  4  38 100  64 101  77 100  86 101
M  END
> <Batch ID>
0023

> <Smiles>
CNC(C)C(=O)NC(C(=O)N1Cc2cc([101O:1][101CH2:1]CCNc3c(CN4CCCC4)ccc([100N:0](C)[100C:0](=O)N4CCCC(n5nc(-c6ccc(Oc7ccc(F)cc7F)cc6)c(C(N)=O)c5N)C4)c3F)ccc2CC1C(=O)NC1CCCc2ccccc21)C(C)(C)C

> <Shape>
0.250

> <Color>
0.075

> <Negative vol penalty>
0.000

$$$$

  -OEChem-04042321173D

 86 95  0     1  0  0  0  0  0999 V2000
  -21.3492  -28.1021   10.3543 C   0  0  0  0  0  0  0  0  0  0  0  0
  -22.3400  -27.8098   11.2861 C   0  0  0  0  0  0  0  0  0  0  0  0
  -23.0662   -9.8996   19.9302 C   0  0  0  0  0  0  0  0  0  0  0  0
  -23.8406   -9.8756   22.2186 C   0  0  0  0  0  0  0  0  0  0  0  0
  -20.0488  -28.3675   10.7814 C   0  0  0  0  0  0  0  0  0  0  0  0
  -22.0312  -27.7839   12.6457 C   0  0  0  0  0  0  0  0  0  0  0  0
  -24.0264  -23.7777   15.0151 C   0  0  0  0  0  0  0  0  0  0  0  0
  -31.6501  -18.3527   20.0903 C   0  0  0  0  0  0  0  0  0  0  0  0
  -31.4490  -19.3993   19.1904 C   0  0  0  0  0  0  0  0  0  0  0  0
  -22.3181   -8.7473   20.1712 C   0  0  0  0  0  0  0  0  0  0  0  0
  -23.0924   -8.7233   22.4597 C   0  0  0  0  0  0  0  0  0  0  0  0
  -25.3829  -23.8358   15.3318 C   0  0  0  0  0  0  0  0  0  0  0  0
  -19.8641   -7.9346   23.0732 C   0  0  0  0  0  0  0  0  0  0  0  0
  -19.1143   -7.8846   24.2484 C   0  0  0  0  0  0  0  0  0  0  0  0
  -24.8217  -24.4324   17.6007 C   0  0  0  0  0  0  0  0  0  0  0  0
  -29.2077  -19.7000   20.0410 C   0  0  0  0  0  0  0  0  0  0  0  0
  -20.3505   -5.9323   24.9539 C   0  0  0  0  0  0  0  0  0  0  0  0
  -23.8275  -10.4637   20.9539 C   0  0  0  0  0  0  0  0  0  0  0  0
  -24.1815  -12.9884   20.8616 C   0  0  0  0  0  0  0  0  0  0  0  0
  -19.7217  -28.3354   12.1461 C   0  0  0  0  0  0  0  0  0  0  0  0
  -23.0559  -24.0578   15.9878 C   0  0  0  0  0  0  0  0  0  0  0  0
  -20.7255  -28.0505   13.0915 C   0  0  0  0  0  0  0  0  0  0  0  0
  -23.4534  -24.3748   17.2945 C   0  0  0  0  0  0  0  0  0  0  0  0
  -30.6299  -17.9796   20.9655 C   0  0  0  0  0  0  0  0  0  0  0  0
  -30.2279  -20.0730   19.1658 C   0  0  0  0  0  0  0  0  0  0  0  0
  -22.3311   -8.1592   21.4359 C   0  0  0  0  0  0  0  0  0  0  0  0
  -25.7808  -24.1660   16.6240 C   0  0  0  0  0  0  0  0  0  0  0  0
  -20.8570   -6.9834   22.8384 C   0  0  0  0  0  0  0  0  0  0  0  0
  -19.3575   -6.8835   25.1887 C   0  0  0  0  0  0  0  0  0  0  0  0
  -29.4088  -18.6533   20.9408 C   0  0  0  0  0  0  0  0  0  0  0  0
  -21.1002   -5.9823   23.7787 C   0  0  0  0  0  0  0  0  0  0  0  0
  -24.6010  -11.6537   20.7053 C   0  0  0  0  0  0  0  0  0  0  0  0
  -25.2751  -13.7366   20.5002 C   0  0  0  0  0  0  0  0  0  0  0  0
  -28.8507  -21.9151   18.0986 C   0  0  0  0  0  0  0  0  0  0  0  0
  -22.9163  -13.5055   21.2946 C   0  0  0  0  0  0  0  0  0  0  0  0
  -20.7782  -26.2503   16.3178 C   0  0  0  0  0  0  0  0  0  0  0  0
  -19.9929  -24.4799   18.9200 C   0  0  0  0  0  0  0  0  0  0  0  0
  -20.9779  -22.2637   21.3211 C   0  0  0  0  0  0  0  0  0  0  0  0
  -30.7651  -14.7257   20.6657 C   0  0  0  0  0  0  0  0  0  0  0  0
  -18.3128  -28.6755   12.5632 C   0  0  0  0  0  0  0  0  0  0  0  0
  -21.5962  -23.9648   15.6371 C   0  0  0  0  0  0  0  0  0  0  0  0
  -22.4506  -24.6642   18.3803 C   0  0  0  0  0  0  0  0  0  0  0  0
  -17.9841  -28.2598   13.9948 C   0  0  0  0  0  0  0  0  0  0  0  0
  -29.6003  -12.3755   18.2582 C   0  0  0  0  0  0  0  0  0  0  0  0
  -19.1044  -28.6769   14.9423 C   0  0  0  0  0  0  0  0  0  0  0  0
  -28.1641  -12.0839   18.6967 C   0  0  0  0  0  0  0  0  0  0  0  0
  -30.3357  -22.4268   16.3105 C   0  0  0  0  0  0  0  0  0  0  0  0
  -30.5261  -12.5774   19.4557 C   0  0  0  0  0  0  0  0  0  0  0  0
  -31.0683  -21.6036   17.3510 C   0  0  0  0  0  0  0  0  0  0  0  0
  -28.6369  -13.3015   20.8630 C   0  0  0  0  0  0  0  0  0  0  0  0
  -20.4240  -27.9885   14.5732 C   0  0  1  0  0  0  0  0  0  0  0  0
  -29.1648  -23.0080   17.0897 C   0  0  1  0  0  0  0  0  0  0  0  0
  -20.7037  -24.7718   16.5750 C   0  0  1  0  0  0  0  0  0  0  0  0
  -27.6544  -13.1458   19.6896 C   0  0  2  0  0  0  0  0  0  0  0  0
  -20.1242  -21.0306   23.3330 C   0  0  0  0  0  0  0  0  0  0  0  0
  -20.1618  -27.0463   20.5616 C   0  0  0  0  0  0  0  0  0  0  0  0
  -20.2484  -25.6360   22.6285 C   0  0  0  0  0  0  0  0  0  0  0  0
  -18.2412  -25.5564   21.1495 C   0  0  0  0  0  0  0  0  0  0  0  0
  -21.4977  -19.6313   20.0724 C   0  0  0  0  0  0  0  0  0  0  0  0
  -30.8497  -16.8611   21.9275 C   0  0  0  0  0  0  0  0  0  0  0  0
  -27.9806  -23.3625   16.2101 C   0  0  0  0  0  0  0  0  0  1  0  0
  -20.3947  -24.4817   20.3752 C   0  0  1  0  0  0  0  0  0  0  0  0
  -20.3441  -20.9812   21.8290 C   0  0  2  0  0  0  0  0  0  0  0  0
  -19.7807  -25.6766   21.1580 C   0  0  0  0  0  0  0  0  0  0  0  0
  -25.8627  -11.5565   20.2779 N   0  0  0  0  0  0  0  0  0  0  0  0
  -26.2454  -12.8395   20.1624 N   0  0  0  0  0  0  0  0  0  0  0  0
  -30.0215  -21.1426   18.2438 N   0  0  0  0  0  0  0  0  0  0  0  0
  -21.0354  -24.5666   17.9864 N   0  0  0  0  0  0  0  0  0  0  0  0
  -29.9864  -13.5981   20.3573 N   0  0  0  0  0  0  0  0  0  0  0  0
  -25.4919  -15.0678   20.4416 N   0  0  0  0  0  0  0  0  0  0  0  0
  -21.9019  -12.5975   21.6276 N   0  0  0  0  0  0  0  0  0  0  0  0
  -20.4243  -26.6164   15.0332 N   0  0  0  0  0  0  0  0  0  0  0  0
  -20.0284  -23.1713   20.9014 N   0  0  0  0  0  0  0  0  0  0  0  0
  -30.1760  -15.6475   21.5225 N   0  0  0  0  0  0  0  0  0  0  0  0
  -21.2176  -19.8140   21.5199 N   0  3  0  0  0  0  0  0  0  0  0  0
  -27.7788  -21.8288   18.6801 O   0  0  0  0  0  0  0  0  0  0  0  0
  -22.6867  -14.7366   21.3680 O   0  0  0  0  0  0  0  0  0  0  0  0
  -21.1293  -27.0033   17.2186 O   0  0  0  0  0  0  0  0  0  0  0  0
  -18.7986  -24.3971   18.6224 O   0  0  0  0  0  0  0  0  0  0  0  0
  -22.1935  -22.4440   21.3022 O   0  0  0  0  0  0  0  0  0  0  0  0
  -31.8990  -14.9009   20.2069 O   0  0  0  0  0  0  0  0  0  0  0  0
  -21.6010   -7.0349   21.6716 O   0  0  0  0  0  0  0  0  0  0  0  0
  -27.1042  -24.2239   16.9355 O   0  0  0  0  0  0  0  0  0  1  0  0
  -18.6385   -6.8365   26.3179 F   0  0  0  0  0  0  0  0  0  0  0  0
  -28.4227  -18.3023   21.7779 F   0  0  0  0  0  0  0  0  0  0  0  0
  -22.0535   -5.0665   23.5592 F   0  0  0  0  0  0  0  0  0  0  0  0
  1  2  1  0  0  0  0
  1  5  2  0  0  0  0
  2  6  2  0  0  0  0
  3 10  2  0  0  0  0
  3 18  1  0  0  0  0
  4 11  1  0  0  0  0
  4 18  2  0  0  0  0
  5 20  1  0  0  0  0
  6 22  1  0  0  0  0
  7 12  2  0  0  0  0
  7 21  1  0  0  0  0
  8  9  2  0  0  0  0
  8 24  1  0  0  0  0
  9 25  1  0  0  0  0
 10 26  1  0  0  0  0
 11 26  2  0  0  0  0
 12 27  1  0  0  0  0
 13 14  2  0  0  0  0
 13 28  1  0  0  0  0
 14 29  1  0  0  0  0
 15 23  1  0  0  0  0
 15 27  2  0  0  0  0
 16 25  2  0  0  0  0
 16 30  1  0  0  0  0
 17 29  2  0  0  0  0
 17 31  1  0  0  0  0
 18 32  1  0  0  0  0
 19 32  1  0  0  0  0
 19 33  2  0  0  0  0
 19 35  1  0  0  0  0
 20 22  2  0  0  0  0
 20 40  1  0  0  0  0
 21 23  2  0  0  0  0
 21 41  1  0  0  0  0
 22 51  1  0  0  0  0
 23 42  1  0  0  0  0
 24 30  2  0  0  0  0
 24 60  1  0  0  0  0
 25 67  1  0  0  0  0
 26 82  1  0  0  0  0
 27 83  1  0  0  0  0
 28 31  2  0  0  0  0
 28 82  1  0  0  0  0
 29 84  1  0  0  0  0
 30 85  1  0  0  0  0
 31 86  1  0  0  0  0
 32 65  2  0  0  0  0
 33 66  1  0  0  0  0
 33 70  1  0  0  0  0
 34 52  1  0  0  0  0
 34 67  1  0  0  0  0
 34 76  2  0  0  0  0
 35 71  1  0  0  0  0
 35 77  2  0  0  0  0
 36 53  1  0  0  0  0
 36 72  1  0  0  0  0
 36 78  2  0  0  0  0
 37 62  1  0  0  0  0
 37 68  1  0  0  0  0
 37 79  2  0  0  0  0
 38 63  1  0  0  0  0
 38 73  1  0  0  0  0
 38 80  2  0  0  0  0
 39 69  1  0  0  0  0
 39 74  1  0  0  0  0
 39 81  2  0  0  0  0
 40 43  1  0  0  0  0
 41 53  1  0  0  0  0
 42 68  1  0  0  0  0
 43 45  1  0  0  0  0
 44 46  1  0  0  0  0
 44 48  1  0  0  0  0
 45 51  1  0  0  0  0
 46 54  1  0  0  0  0
 47 49  1  0  0  0  0
 47 52  1  0  0  0  0
 48 69  1  0  0  0  0
 49 67  1  0  0  0  0
 50 54  1  0  0  0  0
 50 69  1  0  0  0  0
 51 72  1  0  0  0  0
 52 61  1  0  0  0  0
 53 68  1  0  0  0  0
 54 66  1  0  0  0  0
 55 63  1  0  0  0  0
 56 64  1  0  0  0  0
 57 64  1  0  0  0  0
 58 64  1  0  0  0  0
 59 75  1  0  0  0  0
 60 74  1  0  0  0  0
 61 83  1  0  0  0  0
 62 64  1  0  0  0  0
 62 73  1  0  0  0  0
 63 75  1  0  0  0  0
 65 66  1  0  0  0  0
M  CHG  1  75   1
M  ISO  4  39 100  61 101  74 100  83 101
M  END
> <Batch ID>
0023

> <Smiles>
CNC(C)C(=O)NC(C(=O)N1Cc2cc([101O:1][101CH2:1]C3CCN(c4ccc(C[100NH:0][100C:0](=O)N5CCCC(n6nc(-c7ccc(Oc8ccc(F)cc8F)cc7)c(C(N)=O)c6N)C5)c(F)c4)C3=O)ccc2CC1C(=O)NC1CCCc2ccccc21)C(C)(C)C

> <Shape>
0.224

> <Color>
0.193

> <Negative vol penalty>
0.000

$$$$

  -OEChem-04042321173D

 88 97  0     1  0  0  0  0  0999 V2000
  -20.3581  -33.8647   21.3662 C   0  0  0  0  0  0  0  0  0  0  0  0
  -19.8674  -32.7754   20.6534 C   0  0  0  0  0  0  0  0  0  0  0  0
  -26.1607  -17.7193   21.0033 C   0  0  0  0  0  0  0  0  0  0  0  0
  -26.6750  -17.7230   23.3639 C   0  0  0  0  0  0  0  0  0  0  0  0
  -21.5193  -33.7329   22.1265 C   0  0  0  0  0  0  0  0  0  0  0  0
  -20.5382  -31.5538   20.6998 C   0  0  0  0  0  0  0  0  0  0  0  0
  -19.3087  -24.4989   20.5202 C   0  0  0  0  0  0  0  0  0  0  0  0
  -26.8034  -21.1409   17.9986 C   0  0  0  0  0  0  0  0  0  0  0  0
  -27.9788  -21.8917   18.0085 C   0  0  0  0  0  0  0  0  0  0  0  0
  -26.4066  -16.3473   20.9518 C   0  0  0  0  0  0  0  0  0  0  0  0
  -26.9209  -16.3509   23.3124 C   0  0  0  0  0  0  0  0  0  0  0  0
  -19.7168  -23.3514   19.8416 C   0  0  0  0  0  0  0  0  0  0  0  0
  -24.7863  -13.4939   21.7678 C   0  0  0  0  0  0  0  0  0  0  0  0
  -23.8742  -12.6974   21.0755 C   0  0  0  0  0  0  0  0  0  0  0  0
  -21.6694  -23.2191   21.2519 C   0  0  0  0  0  0  0  0  0  0  0  0
  -25.6335  -11.9800   19.5831 C   0  0  0  0  0  0  0  0  0  0  0  0
  -26.2949  -18.4072   22.2093 C   0  0  0  0  0  0  0  0  0  0  0  0
  -24.8136  -20.4592   22.5298 C   0  0  0  0  0  0  0  0  0  0  0  0
  -22.1994  -32.5065   22.1899 C   0  0  0  0  0  0  0  0  0  0  0  0
  -20.0847  -25.0222   21.5643 C   0  0  0  0  0  0  0  0  0  0  0  0
  -21.7104  -31.4058   21.4606 C   0  0  0  0  0  0  0  0  0  0  0  0
  -21.2676  -24.3719   21.9438 C   0  0  0  0  0  0  0  0  0  0  0  0
  -25.5967  -21.7294   18.3772 C   0  0  0  0  0  0  0  0  0  0  0  0
  -26.7411  -23.8195   18.7758 C   0  0  0  0  0  0  0  0  0  0  0  0
  -27.9478  -23.2310   18.3971 C   0  0  0  0  0  0  0  0  0  0  0  0
  -26.7866  -15.6631   22.1063 C   0  0  0  0  0  0  0  0  0  0  0  0
  -20.8987  -22.7129   20.2055 C   0  0  0  0  0  0  0  0  0  0  0  0
  -26.1220  -13.5335   21.3677 C   0  0  0  0  0  0  0  0  0  0  0  0
  -24.2978  -11.9404   19.9832 C   0  0  0  0  0  0  0  0  0  0  0  0
  -26.5456  -12.7765   20.2754 C   0  0  0  0  0  0  0  0  0  0  0  0
  -25.5656  -23.0687   18.7658 C   0  0  0  0  0  0  0  0  0  0  0  0
  -26.0416  -19.8246   22.2630 C   0  0  0  0  0  0  0  0  0  0  0  0
  -25.0997  -21.8011   22.4662 C   0  0  0  0  0  0  0  0  0  0  0  0
  -23.5293  -19.8869   22.8100 C   0  0  0  0  0  0  0  0  0  0  0  0
  -21.6170  -27.7618   22.0649 C   0  0  0  0  0  0  0  0  0  0  0  0
  -22.1124  -26.4961   25.0102 C   0  0  0  0  0  0  0  0  0  0  0  0
  -22.3420  -23.7074   26.9640 C   0  0  0  0  0  0  0  0  0  0  0  0
  -29.7053  -24.5937   19.5570 C   0  0  0  0  0  0  0  0  0  0  0  0
  -23.4769  -32.4252   22.9875 C   0  0  0  0  0  0  0  0  0  0  0  0
  -19.6170  -26.2455   22.3040 C   0  0  0  0  0  0  0  0  0  0  0  0
  -22.1263  -24.8818   23.0713 C   0  0  0  0  0  0  0  0  0  0  0  0
  -23.9204  -30.9947   23.2832 C   0  0  0  0  0  0  0  0  0  0  0  0
  -28.6600  -24.9287   23.0908 C   0  0  0  0  0  0  0  0  0  0  0  0
  -22.4583  -21.5744   15.2344 C   0  0  0  0  0  0  0  0  0  0  0  0
  -23.8373  -30.1388   22.0233 C   0  0  0  0  0  0  0  0  0  0  0  0
  -27.8342  -23.6645   23.3217 C   0  0  0  0  0  0  0  0  0  0  0  0
  -21.6682  -20.4917   15.9471 C   0  0  0  0  0  0  0  0  0  0  0  0
  -29.7336  -24.7176   22.0276 C   0  0  0  0  0  0  0  0  0  0  0  0
  -28.3663  -22.9490   20.9581 C   0  0  0  0  0  0  0  0  0  0  0  0
  -23.7522  -21.6159   16.0158 C   0  0  0  0  0  0  0  0  0  0  0  0
  -22.3962  -30.0576   21.5055 C   0  0  1  0  0  0  0  0  0  0  0  0
  -20.7482  -26.9842   23.0126 C   0  0  1  0  0  0  0  0  0  0  0  0
  -27.2515  -23.1477   21.9959 C   0  0  1  0  0  0  0  0  0  0  0  0
  -21.9852  -20.6835   17.4300 C   0  0  2  0  0  0  0  0  0  0  0  0
  -26.6827  -25.2525   19.1965 C   0  0  0  0  0  0  0  0  0  0  0  0
  -29.0372  -25.5525   16.5019 C   0  0  0  0  0  0  0  0  0  0  0  0
  -22.7942  -22.9883   29.3253 C   0  0  0  0  0  0  0  0  0  0  0  0
  -25.0901  -27.0175   24.5961 C   0  0  0  0  0  0  0  0  0  0  0  0
  -25.5566  -25.4574   26.4979 C   0  0  0  0  0  0  0  0  0  0  0  0
  -24.2480  -27.5444   26.8913 C   0  0  0  0  0  0  0  0  0  0  0  0
  -19.6672  -22.4671   27.2214 C   0  0  0  0  0  0  0  0  0  0  0  0
  -24.3341  -20.9190   18.3639 C   0  0  0  0  0  0  0  0  0  0  0  0
  -20.9205  -21.4774   18.1735 C   0  0  0  0  0  0  0  0  0  1  0  0
  -29.7522  -24.3640   17.1122 C   0  0  0  0  0  0  0  0  0  0  0  0
  -23.1779  -25.6286   25.6356 C   0  0  1  0  0  0  0  0  0  0  0  0
  -21.7275  -23.3670   28.3097 C   0  0  2  0  0  0  0  0  0  0  0  0
  -24.5032  -26.4032   25.8827 C   0  0  0  0  0  0  0  0  0  0  0  0
  -27.0339  -20.6920   22.0460 N   0  0  0  0  0  0  0  0  0  0  0  0
  -26.4297  -21.8854   22.1762 N   0  0  0  0  0  0  0  0  0  0  0  0
  -21.6297  -26.0848   23.7597 N   0  0  0  0  0  0  0  0  0  0  0  0
  -29.1732  -24.1688   20.7917 N   0  0  0  0  0  0  0  0  0  0  0  0
  -24.3407  -22.9053   22.6306 N   0  0  0  0  0  0  0  0  0  0  0  0
  -23.4115  -18.4906   22.8371 N   0  0  0  0  0  0  0  0  0  0  0  0
  -21.6261  -29.1237   22.2987 N   0  0  0  0  0  0  0  0  0  0  0  0
  -22.5851  -25.0591   26.8409 N   0  0  0  0  0  0  0  0  0  0  0  0
  -29.1746  -23.9896   18.4012 N   0  0  0  0  0  0  0  0  0  0  0  0
  -23.2907  -21.4747   17.4474 N   0  3  1  0  0  0  0  0  0  0  0  0
  -20.7818  -22.2233   28.1729 N   0  3  0  0  0  0  0  0  0  0  0  0
  -22.5126  -20.5928   23.0138 O   0  0  0  0  0  0  0  0  0  0  0  0
  -22.2345  -27.1699   21.1874 O   0  0  0  0  0  0  0  0  0  0  0  0
  -21.7176  -27.4977   25.6123 O   0  0  0  0  0  0  0  0  0  0  0  0
  -22.5856  -22.8587   26.1091 O   0  0  0  0  0  0  0  0  0  0  0  0
  -30.6290  -25.4140   19.4900 O   0  0  0  0  0  0  0  0  0  0  0  0
  -27.0264  -14.3242   22.0565 O   0  0  0  0  0  0  0  0  0  0  0  0
  -21.2997  -21.5931   19.5444 O   0  0  0  0  0  0  0  0  0  1  0  0
  -23.4222  -11.1744   19.3194 F   0  0  0  0  0  0  0  0  0  0  0  0
  -27.8278  -12.8096   19.8871 F   0  0  0  0  0  0  0  0  0  0  0  0
  -24.4044  -23.6336   19.1291 F   0  0  0  0  0  0  0  0  0  0  0  0
  1  2  1  0  0  0  0
  1  5  2  0  0  0  0
  2  6  2  0  0  0  0
  3 10  2  0  0  0  0
  3 17  1  0  0  0  0
  4 11  1  0  0  0  0
  4 17  2  0  0  0  0
  5 19  1  0  0  0  0
  6 21  1  0  0  0  0
  7 12  2  0  0  0  0
  7 20  1  0  0  0  0
  8  9  2  0  0  0  0
  8 23  1  0  0  0  0
  9 25  1  0  0  0  0
 10 26  1  0  0  0  0
 11 26  2  0  0  0  0
 12 27  1  0  0  0  0
 13 14  2  0  0  0  0
 13 28  1  0  0  0  0
 14 29  1  0  0  0  0
 15 22  1  0  0  0  0
 15 27  2  0  0  0  0
 16 29  2  0  0  0  0
 16 30  1  0  0  0  0
 17 32  1  0  0  0  0
 18 32  1  0  0  0  0
 18 33  2  0  0  0  0
 18 34  1  0  0  0  0
 19 21  2  0  0  0  0
 19 39  1  0  0  0  0
 20 22  2  0  0  0  0
 20 40  1  0  0  0  0
 21 51  1  0  0  0  0
 22 41  1  0  0  0  0
 23 31  2  0  0  0  0
 23 62  1  0  0  0  0
 24 25  2  0  0  0  0
 24 31  1  0  0  0  0
 24 55  1  0  0  0  0
 25 76  1  0  0  0  0
 26 84  1  0  0  0  0
 27 85  1  0  0  0  0
 28 30  2  0  0  0  0
 28 84  1  0  0  0  0
 29 86  1  0  0  0  0
 30 87  1  0  0  0  0
 31 88  1  0  0  0  0
 32 68  2  0  0  0  0
 33 69  1  0  0  0  0
 33 72  1  0  0  0  0
 34 73  1  0  0  0  0
 34 79  2  0  0  0  0
 35 52  1  0  0  0  0
 35 74  1  0  0  0  0
 35 80  2  0  0  0  0
 36 65  1  0  0  0  0
 36 70  1  0  0  0  0
 36 81  2  0  0  0  0
 37 66  1  0  0  0  0
 37 75  1  0  0  0  0
 37 82  2  0  0  0  0
 38 71  1  0  0  0  0
 38 76  1  0  0  0  0
 38 83  2  0  0  0  0
 39 42  1  0  0  0  0
 40 52  1  0  0  0  0
 41 70  1  0  0  0  0
 42 45  1  0  0  0  0
 43 46  1  0  0  0  0
 43 48  1  0  0  0  0
 44 47  1  0  0  0  0
 44 50  1  0  0  0  0
 45 51  1  0  0  0  0
 46 53  1  0  0  0  0
 47 54  1  0  0  0  0
 48 71  1  0  0  0  0
 49 53  1  0  0  0  0
 49 71  1  0  0  0  0
 50 77  1  0  0  0  0
 51 74  1  0  0  0  0
 52 70  1  0  0  0  0
 53 69  1  0  0  0  0
 54 63  1  0  0  0  0
 54 77  1  0  0  0  0
 56 64  1  0  0  0  0
 57 66  1  0  0  0  0
 58 67  1  0  0  0  0
 59 67  1  0  0  0  0
 60 67  1  0  0  0  0
 61 78  1  0  0  0  0
 62 77  1  0  0  0  0
 63 85  1  0  0  0  0
 64 76  1  0  0  0  0
 65 67  1  0  0  0  0
 65 75  1  0  0  0  0
 66 78  1  0  0  0  0
 68 69  1  0  0  0  0
M  CHG  2  77   1  78   1
M  ISO  4  38 100  63 101  76 100  85 101
M  END
> <Batch ID>
0023

> <Smiles>
CC[100N:0](c1ccc(CN2CCCC2[101CH2:1][101O:1]c2ccc3c(c2)CN(C(=O)C(NC(=O)C(C)NC)C(C)(C)C)C(C(=O)NC2CCCc4ccccc42)C3)c(F)c1C)[100C:0](=O)N1CCCC(n2nc(-c3ccc(Oc4ccc(F)cc4F)cc3)c(C(N)=O)c2N)C1

> <Shape>
0.141

> <Color>
0.054

> <Negative vol penalty>
0.000

$$$$

  -OEChem-04042321173D

 85 94  0     1  0  0  0  0  0999 V2000
  -20.4830  -28.4624   23.4167 C   0  0  0  0  0  0  0  0  0  0  0  0
  -20.5450  -27.1385   22.9940 C   0  0  0  0  0  0  0  0  0  0  0  0
  -23.3152   -9.7421   19.8780 C   0  0  0  0  0  0  0  0  0  0  0  0
  -23.8204   -9.8552   22.2379 C   0  0  0  0  0  0  0  0  0  0  0  0
  -19.4287  -29.2761   23.0042 C   0  0  0  0  0  0  0  0  0  0  0  0
  -19.5518  -26.6270   22.1594 C   0  0  0  0  0  0  0  0  0  0  0  0
  -21.4424  -23.8891   18.3417 C   0  0  0  0  0  0  0  0  0  0  0  0
  -25.5119  -15.2025   15.9330 C   0  0  0  0  0  0  0  0  0  0  0  0
  -26.6121  -14.3838   15.6784 C   0  0  0  0  0  0  0  0  0  0  0  0
  -22.6264   -8.5467   20.0827 C   0  0  0  0  0  0  0  0  0  0  0  0
  -23.1315   -8.6597   22.4426 C   0  0  0  0  0  0  0  0  0  0  0  0
  -21.8560  -22.5901   18.6336 C   0  0  0  0  0  0  0  0  0  0  0  0
  -19.5974   -7.5831   21.2359 C   0  0  0  0  0  0  0  0  0  0  0  0
  -18.3567   -7.4356   20.6160 C   0  0  0  0  0  0  0  0  0  0  0  0
  -19.7876  -21.7357   17.7333 C   0  0  0  0  0  0  0  0  0  0  0  0
  -26.8188  -16.4632   17.5267 C   0  0  0  0  0  0  0  0  0  0  0  0
  -19.1831   -5.5053   19.4211 C   0  0  0  0  0  0  0  0  0  0  0  0
  -23.9123  -10.3964   20.9556 C   0  0  0  0  0  0  0  0  0  0  0  0
  -24.0978  -12.9356   20.7951 C   0  0  0  0  0  0  0  0  0  0  0  0
  -18.4273  -28.7771   22.1563 C   0  0  0  0  0  0  0  0  0  0  0  0
  -20.1915  -24.1224   17.7524 C   0  0  0  0  0  0  0  0  0  0  0  0
  -18.4824  -27.4344   21.7363 C   0  0  0  0  0  0  0  0  0  0  0  0
  -19.3615  -23.0385   17.4326 C   0  0  0  0  0  0  0  0  0  0  0  0
  -25.6152  -16.2423   16.8571 C   0  0  0  0  0  0  0  0  0  0  0  0
  -27.8156  -14.6048   16.3479 C   0  0  0  0  0  0  0  0  0  0  0  0
  -22.5345   -8.0055   21.3650 C   0  0  0  0  0  0  0  0  0  0  0  0
  -21.0273  -21.5133   18.3320 C   0  0  0  0  0  0  0  0  0  0  0  0
  -20.6311   -6.6918   20.9483 C   0  0  0  0  0  0  0  0  0  0  0  0
  -18.1495   -6.3967   19.7087 C   0  0  0  0  0  0  0  0  0  0  0  0
  -27.9190  -15.6445   17.2720 C   0  0  0  0  0  0  0  0  0  0  0  0
  -20.4239   -5.6528   20.0410 C   0  0  0  0  0  0  0  0  0  0  0  0
  -24.6245  -11.6311   20.7447 C   0  0  0  0  0  0  0  0  0  0  0  0
  -25.1710  -13.7498   20.5272 C   0  0  0  0  0  0  0  0  0  0  0  0
  -22.7582  -13.3724   21.0605 C   0  0  0  0  0  0  0  0  0  0  0  0
  -17.5590  -25.6790   18.6188 C   0  0  0  0  0  0  0  0  0  0  0  0
  -16.6116  -24.9640   15.5999 C   0  0  0  0  0  0  0  0  0  0  0  0
  -16.9100  -22.9318   12.8744 C   0  0  0  0  0  0  0  0  0  0  0  0
  -29.9411  -13.4680   17.0417 C   0  0  0  0  0  0  0  0  0  0  0  0
  -17.2819  -29.6812   21.7751 C   0  0  0  0  0  0  0  0  0  0  0  0
  -19.7714  -25.5277   17.4195 C   0  0  0  0  0  0  0  0  0  0  0  0
  -18.0178  -23.2339   16.7810 C   0  0  0  0  0  0  0  0  0  0  0  0
  -16.4707  -29.1690   20.5877 C   0  0  0  0  0  0  0  0  0  0  0  0
  -30.0787  -13.2815   20.7348 C   0  0  0  0  0  0  0  0  0  0  0  0
  -16.1533  -27.6867   20.7577 C   0  0  0  0  0  0  0  0  0  0  0  0
  -28.6544  -12.8740   21.1072 C   0  0  0  0  0  0  0  0  0  0  0  0
  -22.4768  -18.1759   16.8346 C   0  0  0  0  0  0  0  0  0  0  0  0
  -30.4724  -12.7664   19.3538 C   0  0  0  0  0  0  0  0  0  0  0  0
  -23.2283  -16.9007   16.4589 C   0  0  0  0  0  0  0  0  0  0  0  0
  -24.5383  -18.1695   18.0498 C   0  0  0  0  0  0  0  0  0  0  0  0
  -28.0976  -12.7678   18.6455 C   0  0  0  0  0  0  0  0  0  0  0  0
  -17.4374  -26.8501   20.8107 C   0  0  1  0  0  0  0  0  0  0  0  0
  -18.2595  -25.6845   17.2895 C   0  0  1  0  0  0  0  0  0  0  0  0
  -23.0567  -18.5329   18.2001 C   0  0  1  0  0  0  0  0  0  0  0  0
  -27.6627  -13.3090   20.0157 C   0  0  1  0  0  0  0  0  0  0  0  0
  -15.9770  -22.5738   10.5726 C   0  0  0  0  0  0  0  0  0  0  0  0
  -14.0922  -23.7434   16.8136 C   0  0  0  0  0  0  0  0  0  0  0  0
  -13.6823  -22.5909   14.6291 C   0  0  0  0  0  0  0  0  0  0  0  0
  -13.7064  -25.0829   14.7373 C   0  0  0  0  0  0  0  0  0  0  0  0
  -29.2238  -13.3912   14.6941 C   0  0  0  0  0  0  0  0  0  0  0  0
  -19.5503  -23.3676   11.6104 C   0  0  0  0  0  0  0  0  0  0  0  0
  -22.8311  -19.9843   18.5858 C   0  0  0  0  0  0  0  0  0  1  0  0
  -15.8812  -23.8118   14.9532 C   0  0  1  0  0  0  0  0  0  0  0  0
  -17.0648  -23.2444   11.3970 C   0  0  2  0  0  0  0  0  0  0  0  0
  -14.3650  -23.8034   15.2974 C   0  0  0  0  0  0  0  0  0  0  0  0
  -25.9308  -11.6128   20.4664 N   0  0  0  0  0  0  0  0  0  0  0  0
  -26.2338  -12.9159   20.3396 N   0  0  0  0  0  0  0  0  0  0  0  0
  -24.5278  -17.0518   17.1083 N   0  0  3  0  0  0  0  0  0  0  0  0
  -17.6491  -24.6273   16.4808 N   0  0  0  0  0  0  0  0  0  0  0  0
  -29.4884  -13.1370   18.3354 N   0  0  0  0  0  0  0  0  0  0  0  0
  -25.2998  -15.0905   20.4362 N   0  0  0  0  0  0  0  0  0  0  0  0
  -21.7779  -12.4038   21.3159 N   0  0  0  0  0  0  0  0  0  0  0  0
  -17.9805  -26.6732   19.4809 N   0  0  0  0  0  0  0  0  0  0  0  0
  -16.1694  -23.8956   13.5256 N   0  0  0  0  0  0  0  0  0  0  0  0
  -28.9515  -13.7560   16.0826 N   0  0  0  0  0  0  0  0  0  0  0  0
  -18.3885  -22.7703   10.9031 N   0  3  0  0  0  0  0  0  0  0  0  0
  -22.4365  -14.5848   21.0545 O   0  0  0  0  0  0  0  0  0  0  0  0
  -16.6987  -24.8361   18.8449 O   0  0  0  0  0  0  0  0  0  0  0  0
  -16.2786  -26.1201   15.3278 O   0  0  0  0  0  0  0  0  0  0  0  0
  -17.3943  -21.9308   13.3978 O   0  0  0  0  0  0  0  0  0  0  0  0
  -31.1421  -13.4539   16.7451 O   0  0  0  0  0  0  0  0  0  0  0  0
  -21.8622   -6.8391   21.5651 O   0  0  0  0  0  0  0  0  0  0  0  0
  -21.4283  -20.2444   18.6164 O   0  0  0  0  0  0  0  0  0  1  0  0
  -16.9574   -6.2542   19.1146 F   0  0  0  0  0  0  0  0  0  0  0  0
  -29.0709  -15.8656   17.9215 F   0  0  0  0  0  0  0  0  0  0  0  0
  -21.4128   -4.7927   19.7616 F   0  0  0  0  0  0  0  0  0  0  0  0
  1  2  1  0  0  0  0
  1  5  2  0  0  0  0
  2  6  2  0  0  0  0
  3 10  2  0  0  0  0
  3 18  1  0  0  0  0
  4 11  1  0  0  0  0
  4 18  2  0  0  0  0
  5 20  1  0  0  0  0
  6 22  1  0  0  0  0
  7 12  2  0  0  0  0
  7 21  1  0  0  0  0
  8  9  2  0  0  0  0
  8 24  1  0  0  0  0
  9 25  1  0  0  0  0
 10 26  1  0  0  0  0
 11 26  2  0  0  0  0
 12 27  1  0  0  0  0
 13 14  2  0  0  0  0
 13 28  1  0  0  0  0
 14 29  1  0  0  0  0
 15 23  1  0  0  0  0
 15 27  2  0  0  0  0
 16 24  2  0  0  0  0
 16 30  1  0  0  0  0
 17 29  2  0  0  0  0
 17 31  1  0  0  0  0
 18 32  1  0  0  0  0
 19 32  1  0  0  0  0
 19 33  2  0  0  0  0
 19 34  1  0  0  0  0
 20 22  2  0  0  0  0
 20 39  1  0  0  0  0
 21 23  2  0  0  0  0
 21 40  1  0  0  0  0
 22 51  1  0  0  0  0
 23 41  1  0  0  0  0
 24 67  1  0  0  0  0
 25 30  2  0  0  0  0
 25 74  1  0  0  0  0
 26 81  1  0  0  0  0
 27 82  1  0  0  0  0
 28 31  2  0  0  0  0
 28 81  1  0  0  0  0
 29 83  1  0  0  0  0
 30 84  1  0  0  0  0
 31 85  1  0  0  0  0
 32 65  2  0  0  0  0
 33 66  1  0  0  0  0
 33 70  1  0  0  0  0
 34 71  1  0  0  0  0
 34 76  2  0  0  0  0
 35 52  1  0  0  0  0
 35 72  1  0  0  0  0
 35 77  2  0  0  0  0
 36 62  1  0  0  0  0
 36 68  1  0  0  0  0
 36 78  2  0  0  0  0
 37 63  1  0  0  0  0
 37 73  1  0  0  0  0
 37 79  2  0  0  0  0
 38 69  1  0  0  0  0
 38 74  1  0  0  0  0
 38 80  2  0  0  0  0
 39 42  1  0  0  0  0
 40 52  1  0  0  0  0
 41 68  1  0  0  0  0
 42 44  1  0  0  0  0
 43 45  1  0  0  0  0
 43 47  1  0  0  0  0
 44 51  1  0  0  0  0
 45 54  1  0  0  0  0
 46 48  1  0  0  0  0
 46 53  1  0  0  0  0
 47 69  1  0  0  0  0
 48 67  1  0  0  0  0
 49 53  1  0  0  0  0
 49 67  1  0  0  0  0
 50 54  1  0  0  0  0
 50 69  1  0  0  0  0
 51 72  1  0  0  0  0
 52 68  1  0  0  0  0
 53 61  1  0  0  0  0
 54 66  1  0  0  0  0
 55 63  1  0  0  0  0
 56 64  1  0  0  0  0
 57 64  1  0  0  0  0
 58 64  1  0  0  0  0
 59 74  1  0  0  0  0
 60 75  1  0  0  0  0
 61 82  1  0  0  0  0
 62 64  1  0  0  0  0
 62 73  1  0  0  0  0
 63 75  1  0  0  0  0
 65 66  1  0  0  0  0
M  CHG  1  75   1
M  ISO  4  38 100  61 101  74 100  82 101
M  END
> <Batch ID>
0023

> <Smiles>
CNC(C)C(=O)NC(C(=O)N1Cc2cc([101O:1][101CH2:1]C3CCN(c4ccc([100N:0](C)[100C:0](=O)N5CCCC(n6nc(-c7ccc(Oc8ccc(F)cc8F)cc7)c(C(N)=O)c6N)C5)c(F)c4)C3)ccc2CC1C(=O)NC1CCCc2ccccc21)C(C)(C)C

> <Shape>
0.170

> <Color>
0.201

> <Negative vol penalty>
0.000

$$$$

  -OEChem-04042321173D

 85 94  0     1  0  0  0  0  0999 V2000
  -19.9190  -27.3796   25.9308 C   0  0  0  0  0  0  0  0  0  0  0  0
  -21.2634  -27.0248   25.9790 C   0  0  0  0  0  0  0  0  0  0  0  0
  -23.1759   -9.8181   21.4044 C   0  0  0  0  0  0  0  0  0  0  0  0
  -23.8423  -10.7970   23.5103 C   0  0  0  0  0  0  0  0  0  0  0  0
  -19.2636  -27.4580   24.7027 C   0  0  0  0  0  0  0  0  0  0  0  0
  -21.9528  -26.7472   24.7992 C   0  0  0  0  0  0  0  0  0  0  0  0
  -28.4678  -27.3129   21.8749 C   0  0  0  0  0  0  0  0  0  0  0  0
  -29.4326  -19.6527   19.9230 C   0  0  0  0  0  0  0  0  0  0  0  0
  -29.3020  -18.3814   20.4818 C   0  0  0  0  0  0  0  0  0  0  0  0
  -22.4533   -8.8400   22.0878 C   0  0  0  0  0  0  0  0  0  0  0  0
  -23.1197   -9.8190   24.1936 C   0  0  0  0  0  0  0  0  0  0  0  0
  -29.4273  -26.5384   21.2244 C   0  0  0  0  0  0  0  0  0  0  0  0
  -19.8922   -9.2084   24.9876 C   0  0  0  0  0  0  0  0  0  0  0  0
  -19.0900   -9.6220   26.0511 C   0  0  0  0  0  0  0  0  0  0  0  0
  -28.2128  -26.7830   19.1545 C   0  0  0  0  0  0  0  0  0  0  0  0
  -31.0076  -17.5490   18.9868 C   0  0  0  0  0  0  0  0  0  0  0  0
  -20.3516   -8.2100   27.5518 C   0  0  0  0  0  0  0  0  0  0  0  0
  -23.8704  -10.7965   22.1157 C   0  0  0  0  0  0  0  0  0  0  0  0
  -24.1499  -13.0613   20.9754 C   0  0  0  0  0  0  0  0  0  0  0  0
  -19.9478  -27.1906   23.5065 C   0  0  0  0  0  0  0  0  0  0  0  0
  -27.3659  -27.8200   21.1712 C   0  0  0  0  0  0  0  0  0  0  0  0
  -21.3056  -26.8208   23.5541 C   0  0  0  0  0  0  0  0  0  0  0  0
  -27.2420  -27.5658   19.7978 C   0  0  0  0  0  0  0  0  0  0  0  0
  -30.3506  -19.8721   18.8959 C   0  0  0  0  0  0  0  0  0  0  0  0
  -30.0895  -17.3295   20.0138 C   0  0  0  0  0  0  0  0  0  0  0  0
  -22.4252   -8.8405   23.4823 C   0  0  0  0  0  0  0  0  0  0  0  0
  -29.2984  -26.2709   19.8646 C   0  0  0  0  0  0  0  0  0  0  0  0
  -20.9240   -8.2955   25.2062 C   0  0  0  0  0  0  0  0  0  0  0  0
  -19.3197   -9.1229   27.3332 C   0  0  0  0  0  0  0  0  0  0  0  0
  -31.1381  -18.8203   18.4279 C   0  0  0  0  0  0  0  0  0  0  0  0
  -21.1537   -7.7964   26.4883 C   0  0  0  0  0  0  0  0  0  0  0  0
  -24.6175  -11.8068   21.4104 C   0  0  0  0  0  0  0  0  0  0  0  0
  -25.2356  -13.6393   20.3641 C   0  0  0  0  0  0  0  0  0  0  0  0
  -30.2649  -22.4049   18.9787 C   0  0  0  0  0  0  0  0  0  0  0  0
  -22.8504  -13.6515   21.1118 C   0  0  0  0  0  0  0  0  0  0  0  0
  -24.2154  -27.4450   21.3640 C   0  0  0  0  0  0  0  0  0  0  0  0
  -24.1922  -29.7647   19.0968 C   0  0  0  0  0  0  0  0  0  0  0  0
  -25.8490  -31.3823   16.5897 C   0  0  0  0  0  0  0  0  0  0  0  0
  -30.6607  -14.8858   20.2338 C   0  0  0  0  0  0  0  0  0  0  0  0
  -19.1848  -27.2423   22.2066 C   0  0  0  0  0  0  0  0  0  0  0  0
  -26.3537  -28.6761   21.8818 C   0  0  0  0  0  0  0  0  0  0  0  0
  -26.0885  -28.1039   18.9926 C   0  0  0  0  0  0  0  0  0  0  0  0
  -20.0840  -27.2975   20.9743 C   0  0  0  0  0  0  0  0  0  0  0  0
  -29.7069  -11.6693   19.0417 C   0  0  0  0  0  0  0  0  0  0  0  0
  -21.1986  -26.2615   21.0799 C   0  0  0  0  0  0  0  0  0  0  0  0
  -28.2593  -11.5215   19.5159 C   0  0  0  0  0  0  0  0  0  0  0  0
  -30.5420  -22.8086   16.6497 C   0  0  0  0  0  0  0  0  0  0  0  0
  -30.5665  -12.4084   20.0657 C   0  0  0  0  0  0  0  0  0  0  0  0
  -30.9272  -21.3760   16.9597 C   0  0  0  0  0  0  0  0  0  0  0  0
  -28.5869  -13.5579   20.9763 C   0  0  0  0  0  0  0  0  0  0  0  0
  -22.0940  -26.5363   22.2941 C   0  0  1  0  0  0  0  0  0  0  0  0
  -30.6597  -23.4994   18.0005 C   0  0  1  0  0  0  0  0  0  0  0  0
  -25.0012  -28.7119   21.1768 C   0  0  1  0  0  0  0  0  0  0  0  0
  -27.6672  -12.8768   19.9497 C   0  0  2  0  0  0  0  0  0  0  0  0
  -25.5579  -33.2101   14.8951 C   0  0  0  0  0  0  0  0  0  0  0  0
  -22.4732  -27.9074   17.3923 C   0  0  0  0  0  0  0  0  0  0  0  0
  -23.0086  -29.3429   15.4122 C   0  0  0  0  0  0  0  0  0  0  0  0
  -21.7717  -30.3075   17.3518 C   0  0  0  0  0  0  0  0  0  0  0  0
  -28.0698  -32.9631   17.7421 C   0  0  0  0  0  0  0  0  0  0  0  0
  -29.7920  -24.7387   18.1140 C   0  0  0  0  0  0  0  0  0  1  0  0
  -24.2341  -29.7853   17.5879 C   0  0  1  0  0  0  0  0  0  0  0  0
  -26.0362  -32.8597   16.2955 C   0  0  2  0  0  0  0  0  0  0  0  0
  -22.8927  -29.3239   16.9514 C   0  0  0  0  0  0  0  0  0  0  0  0
  -25.9003  -11.5992   21.1015 N   0  0  0  0  0  0  0  0  0  0  0  0
  -26.2480  -12.7310   20.4658 N   0  0  0  0  0  0  0  0  0  0  0  0
  -30.4820  -21.1739   18.3259 N   0  0  0  0  0  0  0  0  0  0  0  0
  -25.1216  -28.9304   19.7339 N   0  0  0  0  0  0  0  0  0  0  0  0
  -29.9455  -13.6849   20.4260 N   0  0  0  0  0  0  0  0  0  0  0  0
  -25.4135  -14.8307   19.7547 N   0  0  0  0  0  0  0  0  0  0  0  0
  -21.8501  -12.9207   21.7673 N   0  0  0  0  0  0  0  0  0  0  0  0
  -29.9567  -16.0382   20.5817 N   0  0  0  0  0  0  0  0  0  0  0  0
  -23.0081  -27.6224   22.0125 N   0  0  0  0  0  0  0  0  0  0  0  0
  -24.6425  -31.1338   17.2092 N   0  0  0  0  0  0  0  0  0  0  0  0
  -27.4749  -33.2320   16.4076 N   0  3  0  0  0  0  0  0  0  0  0  0
  -29.8980  -22.6300   20.1229 O   0  0  0  0  0  0  0  0  0  0  0  0
  -22.5795  -14.7864   20.6512 O   0  0  0  0  0  0  0  0  0  0  0  0
  -24.6700  -26.3852   20.9495 O   0  0  0  0  0  0  0  0  0  0  0  0
  -23.3700  -30.4686   19.6885 O   0  0  0  0  0  0  0  0  0  0  0  0
  -26.6875  -30.5331   16.2958 O   0  0  0  0  0  0  0  0  0  0  0  0
  -31.8029  -14.8934   19.7675 O   0  0  0  0  0  0  0  0  0  0  0  0
  -21.7200   -7.8864   24.1495 O   0  0  0  0  0  0  0  0  0  0  0  0
  -30.2332  -25.5147   19.2274 O   0  0  0  0  0  0  0  0  0  1  0  0
  -18.5503   -9.5213   28.3547 F   0  0  0  0  0  0  0  0  0  0  0  0
  -32.0234  -19.0194   17.4407 F   0  0  0  0  0  0  0  0  0  0  0  0
  -22.1442   -6.9201   26.7046 F   0  0  0  0  0  0  0  0  0  0  0  0
  1  2  1  0  0  0  0
  1  5  2  0  0  0  0
  2  6  2  0  0  0  0
  3 10  2  0  0  0  0
  3 18  1  0  0  0  0
  4 11  1  0  0  0  0
  4 18  2  0  0  0  0
  5 20  1  0  0  0  0
  6 22  1  0  0  0  0
  7 12  2  0  0  0  0
  7 21  1  0  0  0  0
  8  9  2  0  0  0  0
  8 24  1  0  0  0  0
  9 25  1  0  0  0  0
 10 26  1  0  0  0  0
 11 26  2  0  0  0  0
 12 27  1  0  0  0  0
 13 14  2  0  0  0  0
 13 28  1  0  0  0  0
 14 29  1  0  0  0  0
 15 23  1  0  0  0  0
 15 27  2  0  0  0  0
 16 25  2  0  0  0  0
 16 30  1  0  0  0  0
 17 29  2  0  0  0  0
 17 31  1  0  0  0  0
 18 32  1  0  0  0  0
 19 32  1  0  0  0  0
 19 33  2  0  0  0  0
 19 35  1  0  0  0  0
 20 22  2  0  0  0  0
 20 40  1  0  0  0  0
 21 23  2  0  0  0  0
 21 41  1  0  0  0  0
 22 51  1  0  0  0  0
 23 42  1  0  0  0  0
 24 30  2  0  0  0  0
 24 66  1  0  0  0  0
 25 71  1  0  0  0  0
 26 81  1  0  0  0  0
 27 82  1  0  0  0  0
 28 31  2  0  0  0  0
 28 81  1  0  0  0  0
 29 83  1  0  0  0  0
 30 84  1  0  0  0  0
 31 85  1  0  0  0  0
 32 64  2  0  0  0  0
 33 65  1  0  0  0  0
 33 69  1  0  0  0  0
 34 52  1  0  0  0  0
 34 66  1  0  0  0  0
 34 75  2  0  0  0  0
 35 70  1  0  0  0  0
 35 76  2  0  0  0  0
 36 53  1  0  0  0  0
 36 72  1  0  0  0  0
 36 77  2  0  0  0  0
 37 61  1  0  0  0  0
 37 67  1  0  0  0  0
 37 78  2  0  0  0  0
 38 62  1  0  0  0  0
 38 73  1  0  0  0  0
 38 79  2  0  0  0  0
 39 68  1  0  0  0  0
 39 71  1  0  0  0  0
 39 80  2  0  0  0  0
 40 43  1  0  0  0  0
 41 53  1  0  0  0  0
 42 67  1  0  0  0  0
 43 45  1  0  0  0  0
 44 46  1  0  0  0  0
 44 48  1  0  0  0  0
 45 51  1  0  0  0  0
 46 54  1  0  0  0  0
 47 49  1  0  0  0  0
 47 52  1  0  0  0  0
 48 68  1  0  0  0  0
 49 66  1  0  0  0  0
 50 54  1  0  0  0  0
 50 68  1  0  0  0  0
 51 72  1  0  0  0  0
 52 60  1  0  0  0  0
 53 67  1  0  0  0  0
 54 65  1  0  0  0  0
 55 62  1  0  0  0  0
 56 63  1  0  0  0  0
 57 63  1  0  0  0  0
 58 63  1  0  0  0  0
 59 74  1  0  0  0  0
 60 82  1  0  0  0  0
 61 63  1  0  0  0  0
 61 73  1  0  0  0  0
 62 74  1  0  0  0  0
 64 65  1  0  0  0  0
M  CHG  1  74   1
M  ISO  4  39 100  60 101  71 100  82 101
M  END
> <Batch ID>
0023

> <Smiles>
CNC(C)C(=O)NC(C(=O)N1Cc2cc([101O:1][101CH2:1]C3CCN(c4ccc([100NH:0][100C:0](=O)N5CCCC(n6nc(-c7ccc(Oc8ccc(F)cc8F)cc7)c(C(N)=O)c6N)C5)cc4F)C3=O)ccc2CC1C(=O)NC1CCCc2ccccc21)C(C)(C)C

> <Shape>
0.287

> <Color>
0.171

> <Negative vol penalty>
0.000

$$$$

  -OEChem-04042321173D

 89 99  0     1  0  0  0  0  0999 V2000
  -27.3664  -23.0824   15.1644 C   0  0  0  0  0  0  0  0  0  0  0  0
  -28.3517  -22.3135   15.7754 C   0  0  0  0  0  0  0  0  0  0  0  0
  -23.0760   -9.8680   19.9389 C   0  0  0  0  0  0  0  0  0  0  0  0
  -23.8361   -9.8726   22.2322 C   0  0  0  0  0  0  0  0  0  0  0  0
  -27.6148  -24.4210   14.8637 C   0  0  0  0  0  0  0  0  0  0  0  0
  -29.5865  -22.8826   16.0851 C   0  0  0  0  0  0  0  0  0  0  0  0
  -31.1812  -21.6534   20.7317 C   0  0  0  0  0  0  0  0  0  0  0  0
  -22.3324   -8.7143   20.1877 C   0  0  0  0  0  0  0  0  0  0  0  0
  -23.0925   -8.7189   22.4810 C   0  0  0  0  0  0  0  0  0  0  0  0
  -31.7320  -20.3839   20.9008 C   0  0  0  0  0  0  0  0  0  0  0  0
  -19.8647   -7.9196   23.0830 C   0  0  0  0  0  0  0  0  0  0  0  0
  -19.1079   -7.8781   24.2539 C   0  0  0  0  0  0  0  0  0  0  0  0
  -33.9456  -21.3366   20.7946 C   0  0  0  0  0  0  0  0  0  0  0  0
  -32.0618  -16.6073   22.5526 C   0  0  0  0  0  0  0  0  0  0  0  0
  -30.4687  -18.3409   24.0490 C   0  0  0  0  0  0  0  0  0  0  0  0
  -20.3499   -5.9402   24.9880 C   0  0  0  0  0  0  0  0  0  0  0  0
  -23.8279  -10.4471   20.9612 C   0  0  0  0  0  0  0  0  0  0  0  0
  -24.1690  -12.9724   20.8440 C   0  0  0  0  0  0  0  0  0  0  0  0
  -28.8498  -25.0093   15.1787 C   0  0  0  0  0  0  0  0  0  0  0  0
  -32.0100  -22.7746   20.5817 C   0  0  0  0  0  0  0  0  0  0  0  0
  -29.8521  -24.2299   15.7872 C   0  0  0  0  0  0  0  0  0  0  0  0
  -33.4029  -22.6197   20.6264 C   0  0  0  0  0  0  0  0  0  0  0  0
  -32.6513  -17.4907   23.4569 C   0  0  0  0  0  0  0  0  0  0  0  0
  -31.8547  -18.3575   24.2051 C   0  0  0  0  0  0  0  0  0  0  0  0
  -30.6758  -16.5908   22.3964 C   0  0  0  0  0  0  0  0  0  0  0  0
  -22.3407   -8.1398   21.4587 C   0  0  0  0  0  0  0  0  0  0  0  0
  -33.1144  -20.2249   20.9294 C   0  0  0  0  0  0  0  0  0  0  0  0
  -20.8640   -6.9713   22.8645 C   0  0  0  0  0  0  0  0  0  0  0  0
  -19.3505   -6.8885   25.2065 C   0  0  0  0  0  0  0  0  0  0  0  0
  -29.8793  -17.4576   23.1446 C   0  0  0  0  0  0  0  0  0  0  0  0
  -21.1066   -5.9816   23.8170 C   0  0  0  0  0  0  0  0  0  0  0  0
  -24.5966  -11.6384   20.7047 C   0  0  0  0  0  0  0  0  0  0  0  0
  -25.2609  -13.7226   20.4814 C   0  0  0  0  0  0  0  0  0  0  0  0
  -22.8985  -13.4874   21.2636 C   0  0  0  0  0  0  0  0  0  0  0  0
  -32.4813  -24.9249   18.2887 C   0  0  0  0  0  0  0  0  0  0  0  0
  -34.3786  -26.3164   20.5217 C   0  0  0  0  0  0  0  0  0  0  0  0
  -36.2786  -25.9652   23.3348 C   0  0  0  0  0  0  0  0  0  0  0  0
  -30.7269  -14.7695   20.6567 C   0  0  0  0  0  0  0  0  0  0  0  0
  -29.0887  -26.4473   14.7914 C   0  0  0  0  0  0  0  0  0  0  0  0
  -31.4001  -24.1408   20.4269 C   0  0  0  0  0  0  0  0  0  0  0  0
  -34.3362  -23.7939   20.4902 C   0  0  0  0  0  0  0  0  0  0  0  0
  -30.2907  -27.0752   15.4923 C   0  0  0  0  0  0  0  0  0  0  0  0
  -32.7506  -20.5994   27.0483 C   0  0  0  0  0  0  0  0  0  0  0  0
  -33.9370  -20.7852   26.1242 C   0  0  0  0  0  0  0  0  0  0  0  0
  -29.6128  -12.3580   18.2858 C   0  0  0  0  0  0  0  0  0  0  0  0
  -36.0479  -16.6791   24.4698 C   0  0  0  0  0  0  0  0  0  0  0  0
  -31.4917  -26.1364   15.4364 C   0  0  0  0  0  0  0  0  0  0  0  0
  -28.1733  -12.0656   18.7152 C   0  0  0  0  0  0  0  0  0  0  0  0
  -36.3607  -17.4670   23.2101 C   0  0  0  0  0  0  0  0  0  0  0  0
  -32.1494  -19.2848   26.5642 C   0  0  0  0  0  0  0  0  0  0  0  0
  -33.3955  -20.3082   24.7815 C   0  0  0  0  0  0  0  0  0  0  0  0
  -34.6741  -17.2006   24.8732 C   0  0  0  0  0  0  0  0  0  0  0  0
  -30.5280  -12.5857   19.4876 C   0  0  0  0  0  0  0  0  0  0  0  0
  -28.6210  -13.3081   20.8699 C   0  0  0  0  0  0  0  0  0  0  0  0
  -31.1954  -24.8179   16.1612 C   0  0  1  0  0  0  0  0  0  0  0  0
  -32.3417  -25.1444   19.7685 C   0  0  1  0  0  0  0  0  0  0  0  0
  -27.6481  -13.1359   19.6920 C   0  0  2  0  0  0  0  0  0  0  0  0
  -35.0006  -17.5857   22.5006 C   0  0  2  0  0  0  0  0  0  0  0  0
  -37.7370  -27.2735   24.9029 C   0  0  0  0  0  0  0  0  0  0  0  0
  -36.6162  -26.3037   18.4473 C   0  0  0  0  0  0  0  0  0  0  0  0
  -38.2450  -26.7139   20.3039 C   0  0  0  0  0  0  0  0  0  0  0  0
  -36.4693  -28.3951   19.8106 C   0  0  0  0  0  0  0  0  0  0  0  0
  -34.5178  -25.3849   25.6416 C   0  0  0  0  0  0  0  0  0  0  0  0
  -34.9188  -18.9117   21.7513 C   0  0  0  0  0  0  0  0  0  1  0  0
  -35.8343  -26.2068   20.9060 C   0  0  1  0  0  0  0  0  0  0  0  0
  -36.3304  -26.7682   24.6220 C   0  0  2  0  0  0  0  0  0  0  0  0
  -36.7739  -26.8823   19.8676 C   0  0  0  0  0  0  0  0  0  0  0  0
  -25.8614  -11.5434   20.2862 N   0  0  0  0  0  0  0  0  0  0  0  0
  -26.2380  -12.8272   20.1593 N   0  0  0  0  0  0  0  0  0  0  0  0
  -32.4287  -19.2576   25.1231 N   0  0  0  0  0  0  0  0  0  0  0  0
  -34.0250  -17.4915   23.5958 N   0  0  3  0  0  0  0  0  0  0  0  0
  -33.6917  -25.1085   20.3347 N   0  0  0  0  0  0  0  0  0  0  0  0
  -29.9689  -13.6154   20.3662 N   0  0  0  0  0  0  0  0  0  0  0  0
  -25.4710  -15.0542   20.4099 N   0  0  0  0  0  0  0  0  0  0  0  0
  -21.8868  -12.5776   21.6000 N   0  0  0  0  0  0  0  0  0  0  0  0
  -30.0793  -15.6934   21.4762 N   0  0  0  0  0  0  0  0  0  0  0  0
  -31.2887  -24.9968   17.5943 N   0  0  0  0  0  0  0  0  0  0  0  0
  -35.9428  -26.7534   22.2543 N   0  0  0  0  0  0  0  0  0  0  0  0
  -35.8937  -25.9293   25.7738 N   0  3  0  0  0  0  0  0  0  0  0  0
  -22.6619  -14.7179   21.3224 O   0  0  0  0  0  0  0  0  0  0  0  0
  -33.5891  -24.7078   17.8119 O   0  0  0  0  0  0  0  0  0  0  0  0
  -33.8678  -27.4325   20.3990 O   0  0  0  0  0  0  0  0  0  0  0  0
  -36.5162  -24.7602   23.2914 O   0  0  0  0  0  0  0  0  0  0  0  0
  -31.8559  -14.9390   20.1891 O   0  0  0  0  0  0  0  0  0  0  0  0
  -21.6151   -7.0143   21.7018 O   0  0  0  0  0  0  0  0  0  0  0  0
  -33.6546  -18.9867   21.0936 O   0  0  0  0  0  0  0  0  0  1  0  0
  -18.6247   -6.8497   26.3316 F   0  0  0  0  0  0  0  0  0  0  0  0
  -28.5463  -17.4519   23.0010 F   0  0  0  0  0  0  0  0  0  0  0  0
  -22.0662   -5.0686   23.6133 F   0  0  0  0  0  0  0  0  0  0  0  0
  1  2  1  0  0  0  0
  1  5  2  0  0  0  0
  2  6  2  0  0  0  0
  3  8  2  0  0  0  0
  3 17  1  0  0  0  0
  4  9  1  0  0  0  0
  4 17  2  0  0  0  0
  5 19  1  0  0  0  0
  6 21  1  0  0  0  0
  7 10  2  0  0  0  0
  7 20  1  0  0  0  0
  8 26  1  0  0  0  0
  9 26  2  0  0  0  0
 10 27  1  0  0  0  0
 11 12  2  0  0  0  0
 11 28  1  0  0  0  0
 12 29  1  0  0  0  0
 13 22  1  0  0  0  0
 13 27  2  0  0  0  0
 14 23  1  0  0  0  0
 14 25  2  0  0  0  0
 15 24  1  0  0  0  0
 15 30  2  0  0  0  0
 16 29  2  0  0  0  0
 16 31  1  0  0  0  0
 17 32  1  0  0  0  0
 18 32  1  0  0  0  0
 18 33  2  0  0  0  0
 18 34  1  0  0  0  0
 19 21  2  0  0  0  0
 19 39  1  0  0  0  0
 20 22  2  0  0  0  0
 20 40  1  0  0  0  0
 21 55  1  0  0  0  0
 22 41  1  0  0  0  0
 23 24  2  0  0  0  0
 23 71  1  0  0  0  0
 24 70  1  0  0  0  0
 25 30  1  0  0  0  0
 25 76  1  0  0  0  0
 26 85  1  0  0  0  0
 27 86  1  0  0  0  0
 28 31  2  0  0  0  0
 28 85  1  0  0  0  0
 29 87  1  0  0  0  0
 30 88  1  0  0  0  0
 31 89  1  0  0  0  0
 32 68  2  0  0  0  0
 33 69  1  0  0  0  0
 33 74  1  0  0  0  0
 34 75  1  0  0  0  0
 34 80  2  0  0  0  0
 35 56  1  0  0  0  0
 35 77  1  0  0  0  0
 35 81  2  0  0  0  0
 36 65  1  0  0  0  0
 36 72  1  0  0  0  0
 36 82  2  0  0  0  0
 37 66  1  0  0  0  0
 37 78  1  0  0  0  0
 37 83  2  0  0  0  0
 38 73  1  0  0  0  0
 38 76  1  0  0  0  0
 38 84  2  0  0  0  0
 39 42  1  0  0  0  0
 40 56  1  0  0  0  0
 41 72  1  0  0  0  0
 42 47  1  0  0  0  0
 43 44  1  0  0  0  0
 43 50  1  0  0  0  0
 44 51  1  0  0  0  0
 45 48  1  0  0  0  0
 45 53  1  0  0  0  0
 46 49  1  0  0  0  0
 46 52  1  0  0  0  0
 47 55  1  0  0  0  0
 48 57  1  0  0  0  0
 49 58  1  0  0  0  0
 50 70  1  0  0  0  0
 51 70  1  0  0  0  0
 52 71  1  0  0  0  0
 53 73  1  0  0  0  0
 54 57  1  0  0  0  0
 54 73  1  0  0  0  0
 55 77  1  0  0  0  0
 56 72  1  0  0  0  0
 57 69  1  0  0  0  0
 58 64  1  0  0  0  0
 58 71  1  0  0  0  0
 59 66  1  0  0  0  0
 60 67  1  0  0  0  0
 61 67  1  0  0  0  0
 62 67  1  0  0  0  0
 63 79  1  0  0  0  0
 64 86  1  0  0  0  0
 65 67  1  0  0  0  0
 65 78  1  0  0  0  0
 66 79  1  0  0  0  0
 68 69  1  0  0  0  0
M  CHG  1  79   1
M  ISO  4  38 100  64 101  76 100  86 101
M  END
> <Batch ID>
0023

> <Smiles>
CNC(C)C(=O)NC(C(=O)N1Cc2cc([101O:1][101CH2:1]C3CCCN3c3cc([100NH:0][100C:0](=O)N4CCCC(n5nc(-c6ccc(Oc7ccc(F)cc7F)cc6)c(C(N)=O)c5N)C4)c(F)cc3N3CCCC3)ccc2CC1C(=O)NC1CCCc2ccccc21)C(C)(C)C

> <Shape>
0.185

> <Color>
0.192

> <Negative vol penalty>
0.000

$$$$

  -OEChem-04042321173D

 81 89  0     1  0  0  0  0  0999 V2000
  -27.8008  -34.3898   20.3404 C   0  0  0  0  0  0  0  0  0  0  0  0
  -28.0957  -33.0746   20.6851 C   0  0  0  0  0  0  0  0  0  0  0  0
  -23.0874   -9.8564   19.9381 C   0  0  0  0  0  0  0  0  0  0  0  0
  -23.8426   -9.8717   22.2330 C   0  0  0  0  0  0  0  0  0  0  0  0
  -31.2919  -19.1015   20.5806 C   0  0  0  0  0  0  0  0  0  0  0  0
  -27.8668  -34.7911   19.0068 C   0  0  0  0  0  0  0  0  0  0  0  0
  -28.4557  -32.1598   19.6962 C   0  0  0  0  0  0  0  0  0  0  0  0
  -32.4580  -27.5543   20.2225 C   0  0  0  0  0  0  0  0  0  0  0  0
  -31.1182  -17.7176   20.5904 C   0  0  0  0  0  0  0  0  0  0  0  0
  -22.3500   -8.6992   20.1885 C   0  0  0  0  0  0  0  0  0  0  0  0
  -23.1052   -8.7145   22.4834 C   0  0  0  0  0  0  0  0  0  0  0  0
  -32.2924  -26.1897   20.4559 C   0  0  0  0  0  0  0  0  0  0  0  0
  -19.8807   -7.8982   23.0808 C   0  0  0  0  0  0  0  0  0  0  0  0
  -19.1217   -7.8556   24.2503 C   0  0  0  0  0  0  0  0  0  0  0  0
  -29.6605  -19.3187   22.3494 C   0  0  0  0  0  0  0  0  0  0  0  0
  -32.4058  -25.7762   18.0820 C   0  0  0  0  0  0  0  0  0  0  0  0
  -20.3733   -5.9269   24.9924 C   0  0  0  0  0  0  0  0  0  0  0  0
  -23.8337  -10.4427   20.9604 C   0  0  0  0  0  0  0  0  0  0  0  0
  -30.5631  -19.9021   21.4602 C   0  0  0  0  0  0  0  0  0  0  0  0
  -24.1605  -12.9696   20.8368 C   0  0  0  0  0  0  0  0  0  0  0  0
  -28.2371  -33.8832   18.0022 C   0  0  0  0  0  0  0  0  0  0  0  0
  -32.5880  -28.0420   18.9142 C   0  0  0  0  0  0  0  0  0  0  0  0
  -28.5253  -32.5490   18.3478 C   0  0  0  0  0  0  0  0  0  0  0  0
  -32.5755  -27.1470   17.8349 C   0  0  0  0  0  0  0  0  0  0  0  0
  -29.4868  -17.9348   22.3591 C   0  0  0  0  0  0  0  0  0  0  0  0
  -30.2156  -17.1342   21.4796 C   0  0  0  0  0  0  0  0  0  0  0  0
  -22.3589   -8.1282   21.4612 C   0  0  0  0  0  0  0  0  0  0  0  0
  -32.2634  -25.3008   19.3854 C   0  0  0  0  0  0  0  0  0  0  0  0
  -20.8860   -6.9551   22.8671 C   0  0  0  0  0  0  0  0  0  0  0  0
  -19.3680   -6.8700   25.2061 C   0  0  0  0  0  0  0  0  0  0  0  0
  -21.1323   -5.9695   23.8229 C   0  0  0  0  0  0  0  0  0  0  0  0
  -24.5961  -11.6377   20.7022 C   0  0  0  0  0  0  0  0  0  0  0  0
  -25.2488  -13.7251   20.4745 C   0  0  0  0  0  0  0  0  0  0  0  0
  -30.7470  -21.3630   21.4495 C   0  0  0  0  0  0  0  0  0  0  0  0
  -31.8118  -22.0056   20.9450 C   0  0  0  0  0  0  0  0  0  0  0  0
  -22.8861  -13.4784   21.2524 C   0  0  0  0  0  0  0  0  0  0  0  0
  -30.9112  -30.0269   17.0832 C   0  0  0  0  0  0  0  0  0  0  0  0
  -33.4020  -29.6280   15.0438 C   0  0  0  0  0  0  0  0  0  0  0  0
  -36.0110  -27.6909   14.0009 C   0  0  0  0  0  0  0  0  0  0  0  0
  -30.7082  -14.8041   20.6584 C   0  0  0  0  0  0  0  0  0  0  0  0
  -28.2485  -34.3516   16.5687 C   0  0  0  0  0  0  0  0  0  0  0  0
  -32.7927  -29.5138   18.6810 C   0  0  0  0  0  0  0  0  0  0  0  0
  -32.7311  -27.6176   16.4126 C   0  0  0  0  0  0  0  0  0  0  0  0
  -29.0019  -33.4148   15.6278 C   0  0  0  0  0  0  0  0  0  0  0  0
  -29.6132  -12.3797   18.2919 C   0  0  0  0  0  0  0  0  0  0  0  0
  -28.5944  -31.9662   15.8777 C   0  0  0  0  0  0  0  0  0  0  0  0
  -28.1745  -12.0801   18.7191 C   0  0  0  0  0  0  0  0  0  0  0  0
  -30.5245  -12.6160   19.4950 C   0  0  0  0  0  0  0  0  0  0  0  0
  -28.6104  -13.3312   20.8712 C   0  0  0  0  0  0  0  0  0  0  0  0
  -28.9438  -31.5335   17.3067 C   0  0  1  0  0  0  0  0  0  0  0  0
  -32.3998  -29.9562   17.2748 C   0  0  1  0  0  0  0  0  0  0  0  0
  -27.6410  -13.1501   19.6918 C   0  0  2  0  0  0  0  0  0  0  0  0
  -28.5133  -17.3366   23.3223 C   0  0  0  0  0  0  0  0  0  0  0  0
  -37.8428  -27.6100   12.2876 C   0  0  0  0  0  0  0  0  0  0  0  0
  -31.3664  -28.8517   12.9077 C   0  0  0  0  0  0  0  0  0  0  0  0
  -33.2469  -27.8881   11.5648 C   0  0  0  0  0  0  0  0  0  0  0  0
  -33.2180  -30.3249   12.0979 C   0  0  0  0  0  0  0  0  0  0  0  0
  -38.1153  -27.6764   16.0820 C   0  0  0  0  0  0  0  0  0  0  0  0
  -31.9604  -23.4931   20.9695 C   0  0  0  0  0  0  0  0  0  1  0  0
  -33.7288  -28.6610   13.9316 C   0  0  1  0  0  0  0  0  0  0  0  0
  -37.4594  -28.0301   13.6980 C   0  0  2  0  0  0  0  0  0  0  0  0
  -32.8851  -28.9225   12.6520 C   0  0  0  0  0  0  0  0  0  0  0  0
  -25.8624  -11.5489   20.2866 N   0  0  0  0  0  0  0  0  0  0  0  0
  -26.2317  -12.8345   20.1569 N   0  0  0  0  0  0  0  0  0  0  0  0
  -32.9224  -29.0666   16.2357 N   0  0  0  0  0  0  0  0  0  0  0  0
  -29.9575  -13.6449   20.3695 N   0  0  0  0  0  0  0  0  0  0  0  0
  -25.4513  -15.0577   20.3997 N   0  0  0  0  0  0  0  0  0  0  0  0
  -21.8790  -12.5637   21.5891 N   0  0  0  0  0  0  0  0  0  0  0  0
  -30.0536  -15.7266   21.4740 N   0  0  0  0  0  0  0  0  0  0  0  0
  -30.3584  -31.2485   17.4170 N   0  0  0  0  0  0  0  0  0  0  0  0
  -35.1704  -28.7485   13.7250 N   0  0  0  0  0  0  0  0  0  0  0  0
  -38.3652  -27.3373   14.6574 N   0  3  0  0  0  0  0  0  0  0  0  0
  -22.6423  -14.7077   21.3072 O   0  0  0  0  0  0  0  0  0  0  0  0
  -30.3090  -29.0461   16.6623 O   0  0  0  0  0  0  0  0  0  0  0  0
  -33.5731  -30.8364   14.8643 O   0  0  0  0  0  0  0  0  0  0  0  0
  -35.6601  -26.5960   14.4351 O   0  0  0  0  0  0  0  0  0  0  0  0
  -31.8372  -14.9789   20.1927 O   0  0  0  0  0  0  0  0  0  0  0  0
  -21.6393   -6.9992   21.7059 O   0  0  0  0  0  0  0  0  0  0  0  0
  -32.1012  -23.9685   19.6103 O   0  0  0  0  0  0  0  0  0  1  0  0
  -18.6400   -6.8301   26.3298 F   0  0  0  0  0  0  0  0  0  0  0  0
  -22.0976   -5.0615   23.6237 F   0  0  0  0  0  0  0  0  0  0  0  0
  1  2  1  0  0  0  0
  1  6  2  0  0  0  0
  2  7  2  0  0  0  0
  3 10  2  0  0  0  0
  3 18  1  0  0  0  0
  4 11  1  0  0  0  0
  4 18  2  0  0  0  0
  5  9  2  0  0  0  0
  5 19  1  0  0  0  0
  6 21  1  0  0  0  0
  7 23  1  0  0  0  0
  8 12  2  0  0  0  0
  8 22  1  0  0  0  0
  9 26  1  0  0  0  0
 10 27  1  0  0  0  0
 11 27  2  0  0  0  0
 12 28  1  0  0  0  0
 13 14  2  0  0  0  0
 13 29  1  0  0  0  0
 14 30  1  0  0  0  0
 15 19  2  0  0  0  0
 15 25  1  0  0  0  0
 16 24  1  0  0  0  0
 16 28  2  0  0  0  0
 17 30  2  0  0  0  0
 17 31  1  0  0  0  0
 18 32  1  0  0  0  0
 19 34  1  0  0  0  0
 20 32  1  0  0  0  0
 20 33  2  0  0  0  0
 20 36  1  0  0  0  0
 21 23  2  0  0  0  0
 21 41  1  0  0  0  0
 22 24  2  0  0  0  0
 22 42  1  0  0  0  0
 23 50  1  0  0  0  0
 24 43  1  0  0  0  0
 25 26  2  0  0  0  0
 25 53  1  0  0  0  0
 26 69  1  0  0  0  0
 27 78  1  0  0  0  0
 28 79  1  0  0  0  0
 29 31  2  0  0  0  0
 29 78  1  0  0  0  0
 30 80  1  0  0  0  0
 31 81  1  0  0  0  0
 32 63  2  0  0  0  0
 33 64  1  0  0  0  0
 33 67  1  0  0  0  0
 34 35  2  0  0  0  0
 35 59  1  0  0  0  0
 36 68  1  0  0  0  0
 36 73  2  0  0  0  0
 37 51  1  0  0  0  0
 37 70  1  0  0  0  0
 37 74  2  0  0  0  0
 38 60  1  0  0  0  0
 38 65  1  0  0  0  0
 38 75  2  0  0  0  0
 39 61  1  0  0  0  0
 39 71  1  0  0  0  0
 39 76  2  0  0  0  0
 40 66  1  0  0  0  0
 40 69  1  0  0  0  0
 40 77  2  0  0  0  0
 41 44  1  0  0  0  0
 42 51  1  0  0  0  0
 43 65  1  0  0  0  0
 44 46  1  0  0  0  0
 45 47  1  0  0  0  0
 45 48  1  0  0  0  0
 46 50  1  0  0  0  0
 47 52  1  0  0  0  0
 48 66  1  0  0  0  0
 49 52  1  0  0  0  0
 49 66  1  0  0  0  0
 50 70  1  0  0  0  0
 51 65  1  0  0  0  0
 52 64  1  0  0  0  0
 54 61  1  0  0  0  0
 55 62  1  0  0  0  0
 56 62  1  0  0  0  0
 57 62  1  0  0  0  0
 58 72  1  0  0  0  0
 59 79  1  0  0  0  0
 60 62  1  0  0  0  0
 60 71  1  0  0  0  0
 61 72  1  0  0  0  0
 63 64  1  0  0  0  0
M  CHG  1  72   1
M  ISO  4  40 100  59 101  69 100  79 101
M  END
> <Batch ID>
0023

> <Smiles>
CNC(C)C(=O)NC(C(=O)N1Cc2cc([101O:1][101CH2:1]C=Cc3ccc([100NH:0][100C:0](=O)N4CCCC(n5nc(-c6ccc(Oc7ccc(F)cc7F)cc6)c(C(N)=O)c5N)C4)c(C)c3)ccc2CC1C(=O)NC1CCCc2ccccc21)C(C)(C)C

> <Shape>
0.196

> <Color>
0.201

> <Negative vol penalty>
0.000

$$$$

  -OEChem-04042321173D

 85 94  0     1  0  0  0  0  0999 V2000
  -34.3629  -29.8008   13.6679 C   0  0  0  0  0  0  0  0  0  0  0  0
  -33.6330  -29.1095   14.6295 C   0  0  0  0  0  0  0  0  0  0  0  0
  -22.9972   -9.9043   19.9768 C   0  0  0  0  0  0  0  0  0  0  0  0
  -23.7293   -9.9402   22.2790 C   0  0  0  0  0  0  0  0  0  0  0  0
  -34.0626  -31.1339   13.3914 C   0  0  0  0  0  0  0  0  0  0  0  0
  -32.6029  -29.7514   15.3161 C   0  0  0  0  0  0  0  0  0  0  0  0
  -28.4327  -26.9003   15.6704 C   0  0  0  0  0  0  0  0  0  0  0  0
  -31.3965  -18.9802   20.5733 C   0  0  0  0  0  0  0  0  0  0  0  0
  -31.2052  -17.5987   20.5902 C   0  0  0  0  0  0  0  0  0  0  0  0
  -22.2294   -8.7696   20.2386 C   0  0  0  0  0  0  0  0  0  0  0  0
  -22.9614   -8.8055   22.5408 C   0  0  0  0  0  0  0  0  0  0  0  0
  -28.4324  -25.8890   16.6301 C   0  0  0  0  0  0  0  0  0  0  0  0
  -23.1983   -5.4690   22.0483 C   0  0  0  0  0  0  0  0  0  0  0  0
  -23.7862   -4.4463   22.7926 C   0  0  0  0  0  0  0  0  0  0  0  0
  -27.1468  -27.2986   18.1064 C   0  0  0  0  0  0  0  0  0  0  0  0
  -29.5549  -17.8486   22.3369 C   0  0  0  0  0  0  0  0  0  0  0  0
  -22.0677   -4.6823   24.4743 C   0  0  0  0  0  0  0  0  0  0  0  0
  -23.7472  -10.4895   20.9970 C   0  0  0  0  0  0  0  0  0  0  0  0
  -24.1366  -13.0054   20.8348 C   0  0  0  0  0  0  0  0  0  0  0  0
  -33.0219  -31.7896   14.0681 C   0  0  0  0  0  0  0  0  0  0  0  0
  -27.7983  -28.1244   15.9262 C   0  0  0  0  0  0  0  0  0  0  0  0
  -32.2892  -31.0949   15.0494 C   0  0  0  0  0  0  0  0  0  0  0  0
  -27.1382  -28.3228   17.1473 C   0  0  0  0  0  0  0  0  0  0  0  0
  -30.6671  -19.7960   21.4383 C   0  0  0  0  0  0  0  0  0  0  0  0
  -29.7463  -19.2302   22.3201 C   0  0  0  0  0  0  0  0  0  0  0  0
  -30.2844  -17.0329   21.4720 C   0  0  0  0  0  0  0  0  0  0  0  0
  -22.2115   -8.2202   21.5206 C   0  0  0  0  0  0  0  0  0  0  0  0
  -27.7919  -26.0891   17.8495 C   0  0  0  0  0  0  0  0  0  0  0  0
  -22.0451   -6.0985   22.5170 C   0  0  0  0  0  0  0  0  0  0  0  0
  -23.2209   -4.0529   24.0056 C   0  0  0  0  0  0  0  0  0  0  0  0
  -21.4798   -5.7051   23.7300 C   0  0  0  0  0  0  0  0  0  0  0  0
  -24.5410  -11.6613   20.7270 C   0  0  0  0  0  0  0  0  0  0  0  0
  -25.2466  -13.7282   20.4714 C   0  0  0  0  0  0  0  0  0  0  0  0
  -29.3162  -23.2139   20.8631 C   0  0  0  0  0  0  0  0  0  0  0  0
  -22.8708  -13.5518   21.2283 C   0  0  0  0  0  0  0  0  0  0  0  0
  -28.7575  -31.1477   16.1343 C   0  0  0  0  0  0  0  0  0  0  0  0
  -25.5768  -31.7311   16.3897 C   0  0  0  0  0  0  0  0  0  0  0  0
  -22.4757  -30.5710   17.2168 C   0  0  0  0  0  0  0  0  0  0  0  0
  -30.7285  -14.6780   20.6950 C   0  0  0  0  0  0  0  0  0  0  0  0
  -32.7652  -33.2453   13.7687 C   0  0  0  0  0  0  0  0  0  0  0  0
  -27.7846  -29.1954   14.8702 C   0  0  0  0  0  0  0  0  0  0  0  0
  -26.4251  -29.6113   17.4631 C   0  0  0  0  0  0  0  0  0  0  0  0
  -31.4131  -33.7419   14.2743 C   0  0  0  0  0  0  0  0  0  0  0  0
  -29.5989  -12.2410   18.3578 C   0  0  0  0  0  0  0  0  0  0  0  0
  -31.1771  -33.2799   15.7087 C   0  0  0  0  0  0  0  0  0  0  0  0
  -28.1490  -11.9835   18.7747 C   0  0  0  0  0  0  0  0  0  0  0  0
  -30.5034  -12.4756   19.5663 C   0  0  0  0  0  0  0  0  0  0  0  0
  -29.0107  -21.5543   19.6108 C   0  0  0  0  0  0  0  0  0  0  0  0
  -28.5934  -13.2600   20.9102 C   0  0  0  0  0  0  0  0  0  0  0  0
  -31.1482  -31.7493   15.7977 C   0  0  1  0  0  0  0  0  0  0  0  0
  -28.3242  -22.9437   19.7070 C   0  0  2  0  0  0  0  0  0  0  0  0
  -27.5478  -30.5914   15.4379 C   0  0  1  0  0  0  0  0  0  0  0  0
  -27.6319  -13.0824   19.7237 C   0  0  2  0  0  0  0  0  0  0  0  0
  -28.9527  -20.0840   23.2537 C   0  0  0  0  0  0  0  0  0  0  0  0
  -20.0760  -31.2912   17.3577 C   0  0  0  0  0  0  0  0  0  0  0  0
  -26.1923  -33.2727   18.9499 C   0  0  0  0  0  0  0  0  0  0  0  0
  -23.7604  -33.1420   19.5305 C   0  0  0  0  0  0  0  0  0  0  0  0
  -24.4859  -34.3466   17.4701 C   0  0  0  0  0  0  0  0  0  0  0  0
  -21.6289  -28.5389   15.2388 C   0  0  0  0  0  0  0  0  0  0  0  0
  -30.8910  -21.2802   21.4022 C   0  0  0  0  0  0  0  0  0  0  0  0
  -28.4606  -23.8539   18.5019 C   0  0  0  0  0  0  0  0  0  1  0  0
  -24.5949  -31.8215   17.5328 C   0  0  1  0  0  0  0  0  0  0  0  0
  -21.1452  -30.6460   16.4898 C   0  0  2  0  0  0  0  0  0  0  0  0
  -24.7734  -33.1220   18.3659 C   0  0  0  0  0  0  0  0  0  0  0  0
  -25.8089  -11.5349   20.3263 N   0  0  0  0  0  0  0  0  0  0  0  0
  -26.2107  -12.8089   20.1791 N   0  0  0  0  0  0  0  0  0  0  0  0
  -29.8231  -21.9668   20.7431 N   0  0  0  0  0  0  0  0  0  0  0  0
  -26.4453  -30.6304   16.4008 N   0  0  0  0  0  0  0  0  0  0  0  0
  -29.9528  -13.5325   20.4176 N   0  0  0  0  0  0  0  0  0  0  0  0
  -25.4822  -15.0541   20.3766 N   0  0  0  0  0  0  0  0  0  0  0  0
  -21.8384  -12.6675   21.5696 N   0  0  0  0  0  0  0  0  0  0  0  0
  -30.0882  -15.6296   21.4881 N   0  0  0  0  0  0  0  0  0  0  0  0
  -29.8771  -31.2398   15.3296 N   0  0  0  0  0  0  0  0  0  0  0  0
  -23.2687  -31.6657   16.9450 N   0  0  0  0  0  0  0  0  0  0  0  0
  -20.6833  -29.2802   16.1126 N   0  3  0  0  0  0  0  0  0  0  0  0
  -29.5747  -24.1423   21.5939 O   0  0  0  0  0  0  0  0  0  0  0  0
  -22.6564  -14.7874   21.2601 O   0  0  0  0  0  0  0  0  0  0  0  0
  -28.6804  -31.4710   17.3138 O   0  0  0  0  0  0  0  0  0  0  0  0
  -25.5686  -32.6011   15.5152 O   0  0  0  0  0  0  0  0  0  0  0  0
  -22.7796  -29.6366   17.9552 O   0  0  0  0  0  0  0  0  0  0  0  0
  -31.8660  -14.8176   20.2384 O   0  0  0  0  0  0  0  0  0  0  0  0
  -21.4622   -7.1131   21.7765 O   0  0  0  0  0  0  0  0  0  0  0  0
  -27.7907  -25.1039   18.7882 O   0  0  0  0  0  0  0  0  0  1  0  0
  -23.7847   -3.0697   24.7195 F   0  0  0  0  0  0  0  0  0  0  0  0
  -20.3713   -6.3053   24.1849 F   0  0  0  0  0  0  0  0  0  0  0  0
  1  2  1  0  0  0  0
  1  5  2  0  0  0  0
  2  6  2  0  0  0  0
  3 10  2  0  0  0  0
  3 18  1  0  0  0  0
  4 11  1  0  0  0  0
  4 18  2  0  0  0  0
  5 20  1  0  0  0  0
  6 22  1  0  0  0  0
  7 12  2  0  0  0  0
  7 21  1  0  0  0  0
  8  9  2  0  0  0  0
  8 24  1  0  0  0  0
  9 26  1  0  0  0  0
 10 27  1  0  0  0  0
 11 27  2  0  0  0  0
 12 28  1  0  0  0  0
 13 14  2  0  0  0  0
 13 29  1  0  0  0  0
 14 30  1  0  0  0  0
 15 23  1  0  0  0  0
 15 28  2  0  0  0  0
 16 25  1  0  0  0  0
 16 26  2  0  0  0  0
 17 30  2  0  0  0  0
 17 31  1  0  0  0  0
 18 32  1  0  0  0  0
 19 32  1  0  0  0  0
 19 33  2  0  0  0  0
 19 35  1  0  0  0  0
 20 22  2  0  0  0  0
 20 40  1  0  0  0  0
 21 23  2  0  0  0  0
 21 41  1  0  0  0  0
 22 50  1  0  0  0  0
 23 42  1  0  0  0  0
 24 25  2  0  0  0  0
 24 60  1  0  0  0  0
 25 54  1  0  0  0  0
 26 72  1  0  0  0  0
 27 82  1  0  0  0  0
 28 83  1  0  0  0  0
 29 31  2  0  0  0  0
 29 82  1  0  0  0  0
 30 84  1  0  0  0  0
 31 85  1  0  0  0  0
 32 65  2  0  0  0  0
 33 66  1  0  0  0  0
 33 70  1  0  0  0  0
 34 51  1  0  0  0  0
 34 67  1  0  0  0  0
 34 76  2  0  0  0  0
 35 71  1  0  0  0  0
 35 77  2  0  0  0  0
 36 52  1  0  0  0  0
 36 73  1  0  0  0  0
 36 78  2  0  0  0  0
 37 62  1  0  0  0  0
 37 68  1  0  0  0  0
 37 79  2  0  0  0  0
 38 63  1  0  0  0  0
 38 74  1  0  0  0  0
 38 80  2  0  0  0  0
 39 69  1  0  0  0  0
 39 72  1  0  0  0  0
 39 81  2  0  0  0  0
 40 43  1  0  0  0  0
 41 52  1  0  0  0  0
 42 68  1  0  0  0  0
 43 45  1  0  0  0  0
 44 46  1  0  0  0  0
 44 47  1  0  0  0  0
 45 50  1  0  0  0  0
 46 53  1  0  0  0  0
 47 69  1  0  0  0  0
 48 51  1  0  0  0  0
 48 67  1  0  0  0  0
 49 53  1  0  0  0  0
 49 69  1  0  0  0  0
 50 73  1  0  0  0  0
 51 61  1  0  0  0  0
 52 68  1  0  0  0  0
 53 66  1  0  0  0  0
 55 63  1  0  0  0  0
 56 64  1  0  0  0  0
 57 64  1  0  0  0  0
 58 64  1  0  0  0  0
 59 75  1  0  0  0  0
 60 67  1  0  0  0  0
 61 83  1  0  0  0  0
 62 64  1  0  0  0  0
 62 74  1  0  0  0  0
 63 75  1  0  0  0  0
 65 66  1  0  0  0  0
M  CHG  1  75   1
M  ISO  4  39 100  61 101  72 100  83 101
M  END
> <Batch ID>
0023

> <Smiles>
CNC(C)C(=O)NC(C(=O)N1Cc2cc([101O:1][101CH2:1]C3CN(Cc4ccc([100NH:0][100C:0](=O)N5CCCC(n6nc(-c7ccc(Oc8ccc(F)cc8F)cc7)c(C(N)=O)c6N)C5)cc4C)C3=O)ccc2CC1C(=O)NC1CCCc2ccccc21)C(C)(C)C

> <Shape>
0.225

> <Color>
0.198

> <Negative vol penalty>
0.000

$$$$

  -OEChem-04042321173D

 87 96  0     1  0  0  0  0  0999 V2000
  -28.9532  -18.6628   14.3141 C   0  0  0  0  0  0  0  0  0  0  0  0
  -29.4055  -17.9338   15.4093 C   0  0  0  0  0  0  0  0  0  0  0  0
  -23.4876  -29.0821   21.1284 C   0  0  0  0  0  0  0  0  0  0  0  0
  -25.7837  -29.0112   20.3801 C   0  0  0  0  0  0  0  0  0  0  0  0
  -27.6998  -19.2723   14.3534 C   0  0  0  0  0  0  0  0  0  0  0  0
  -28.6051  -17.8148   16.5449 C   0  0  0  0  0  0  0  0  0  0  0  0
  -28.4708  -13.0813   18.3397 C   0  0  0  0  0  0  0  0  0  0  0  0
  -32.5373  -18.5263   21.6775 C   0  0  0  0  0  0  0  0  0  0  0  0
  -30.7658  -16.9064   21.4043 C   0  0  0  0  0  0  0  0  0  0  0  0
  -31.8405  -19.4246   20.8694 C   0  0  0  0  0  0  0  0  0  0  0  0
  -30.0689  -17.8047   20.5962 C   0  0  0  0  0  0  0  0  0  0  0  0
  -23.6917  -30.3662   21.6332 C   0  0  0  0  0  0  0  0  0  0  0  0
  -25.9878  -30.2955   20.8849 C   0  0  0  0  0  0  0  0  0  0  0  0
  -29.5711  -12.6492   19.0788 C   0  0  0  0  0  0  0  0  0  0  0  0
  -23.7090  -33.5229   23.4383 C   0  0  0  0  0  0  0  0  0  0  0  0
  -23.2134  -33.8076   24.7107 C   0  0  0  0  0  0  0  0  0  0  0  0
  -28.3549  -13.0636   21.1204 C   0  0  0  0  0  0  0  0  0  0  0  0
  -24.5989  -32.0607   25.6412 C   0  0  0  0  0  0  0  0  0  0  0  0
  -24.5336  -28.4045   20.5019 C   0  0  0  0  0  0  0  0  0  0  0  0
  -23.3994  -26.6890   18.9926 C   0  0  0  0  0  0  0  0  0  0  0  0
  -26.8796  -19.1526   15.4864 C   0  0  0  0  0  0  0  0  0  0  0  0
  -27.3062  -13.5189   18.9867 C   0  0  0  0  0  0  0  0  0  0  0  0
  -27.3401  -18.4244   16.5999 C   0  0  0  0  0  0  0  0  0  0  0  0
  -27.2402  -13.4984   20.3872 C   0  0  0  0  0  0  0  0  0  0  0  0
  -31.9999  -17.2672   21.9450 C   0  0  0  0  0  0  0  0  0  0  0  0
  -30.6063  -19.0639   20.3287 C   0  0  0  0  0  0  0  0  0  0  0  0
  -24.9417  -30.9730   21.5114 C   0  0  0  0  0  0  0  0  0  0  0  0
  -29.5143  -12.6430   20.4694 C   0  0  0  0  0  0  0  0  0  0  0  0
  -24.6495  -32.5071   23.2674 C   0  0  0  0  0  0  0  0  0  0  0  0
  -23.6584  -33.0766   25.8121 C   0  0  0  0  0  0  0  0  0  0  0  0
  -25.0945  -31.7760   24.3688 C   0  0  0  0  0  0  0  0  0  0  0  0
  -24.3236  -27.0777   19.9808 C   0  0  0  0  0  0  0  0  0  0  0  0
  -23.5923  -25.3360   18.8553 C   0  0  0  0  0  0  0  0  0  0  0  0
  -32.5364  -13.8520   22.5736 C   0  0  0  0  0  0  0  0  0  0  0  0
  -22.4514  -27.4801   18.2638 C   0  0  0  0  0  0  0  0  0  0  0  0
  -25.7036  -16.2613   19.1090 C   0  0  0  0  0  0  0  0  0  0  0  0
  -23.5675  -14.4881   20.7869 C   0  0  0  0  0  0  0  0  0  0  0  0
  -22.9712  -11.7517   22.7371 C   0  0  0  0  0  0  0  0  0  0  0  0
  -28.2970  -21.9122   19.8548 C   0  0  0  0  0  0  0  0  0  0  0  0
  -25.5523  -19.8687   15.5005 C   0  0  0  0  0  0  0  0  0  0  0  0
  -26.1183  -13.9568   18.1745 C   0  0  0  0  0  0  0  0  0  0  0  0
  -26.0060  -13.9391   21.1295 C   0  0  0  0  0  0  0  0  0  0  0  0
  -24.6090  -19.3814   16.5974 C   0  0  0  0  0  0  0  0  0  0  0  0
  -34.5509  -13.9852   20.3860 C   0  0  0  0  0  0  0  0  0  0  0  0
  -25.0147  -21.4871   21.3189 C   0  0  0  0  0  0  0  0  0  0  0  0
  -25.3483  -19.2711   17.9271 C   0  0  0  0  0  0  0  0  0  0  0  0
  -34.3318  -12.7517   21.2491 C   0  0  0  0  0  0  0  0  0  0  0  0
  -24.3789  -22.8505   21.0412 C   0  0  0  0  0  0  0  0  0  0  0  0
  -33.7236  -15.1920   20.8203 C   0  0  0  0  0  0  0  0  0  0  0  0
  -26.4950  -21.6270   21.6616 C   0  0  0  0  0  0  0  0  0  0  0  0
  -26.6661  -23.7100   20.3556 C   0  0  0  0  0  0  0  0  0  0  0  0
  -26.4906  -18.2517   17.8403 C   0  0  1  0  0  0  0  0  0  0  0  0
  -32.8923  -12.6327   21.7382 C   0  0  2  0  0  0  0  0  0  0  0  0
  -25.1685  -14.8666   18.9476 C   0  0  1  0  0  0  0  0  0  0  0  0
  -25.1748  -23.6344   19.9809 C   0  0  2  0  0  0  0  0  0  0  0  0
  -21.1343  -10.5877   23.9893 C   0  0  0  0  0  0  0  0  0  0  0  0
  -23.7342  -16.5964   22.9862 C   0  0  0  0  0  0  0  0  0  0  0  0
  -22.6684  -14.9533   24.5458 C   0  0  0  0  0  0  0  0  0  0  0  0
  -21.4276  -15.7437   22.5312 C   0  0  0  0  0  0  0  0  0  0  0  0
  -23.2505   -9.3014   21.1009 C   0  0  0  0  0  0  0  0  0  0  0  0
  -32.7493  -16.2996   22.8148 C   0  0  0  0  0  0  0  0  0  0  0  0
  -29.8611  -20.0256   19.4661 C   0  0  0  0  0  0  0  0  0  0  0  0
  -31.8777  -12.4244   20.6190 C   0  0  0  0  0  0  0  0  0  1  0  0
  -23.3696  -14.1503   22.2449 C   0  0  1  0  0  0  0  0  0  0  0  0
  -21.8919  -10.6860   22.6744 C   0  0  2  0  0  0  0  0  0  0  0  0
  -22.8240  -15.3544   23.0634 C   0  0  0  0  0  0  0  0  0  0  0  0
  -25.0495  -26.0544   20.4390 N   0  0  0  0  0  0  0  0  0  0  0  0
  -24.5815  -25.0093   19.7355 N   0  0  0  0  0  0  0  0  0  0  0  0
  -33.0563  -15.0616   22.1134 N   0  0  0  0  0  0  0  0  0  0  0  0
  -24.8731  -14.3644   20.2910 N   0  0  0  0  0  0  0  0  0  0  0  0
  -27.1985  -22.3660   20.6037 N   0  0  0  0  0  0  0  0  0  0  0  0
  -23.0105  -24.4059   18.0687 N   0  0  0  0  0  0  0  0  0  0  0  0
  -22.8544  -28.0576   17.0520 N   0  0  0  0  0  0  0  0  0  0  0  0
  -25.9712  -16.9030   17.9148 N   0  0  0  0  0  0  0  0  0  0  0  0
  -22.5143  -12.9689   22.2777 N   0  0  0  0  0  0  0  0  0  0  0  0
  -28.7442  -20.6317   20.1562 N   0  0  0  0  0  0  0  0  0  0  0  0
  -22.4944   -9.3554   22.3786 N   0  3  0  0  0  0  0  0  0  0  0  0
  -31.8197  -13.7296   23.5686 O   0  0  0  0  0  0  0  0  0  0  0  0
  -21.2867  -27.6828   18.6831 O   0  0  0  0  0  0  0  0  0  0  0  0
  -25.8607  -16.7217   20.2338 O   0  0  0  0  0  0  0  0  0  0  0  0
  -22.5980  -14.8416   20.1110 O   0  0  0  0  0  0  0  0  0  0  0  0
  -24.1049  -11.5278   23.1554 O   0  0  0  0  0  0  0  0  0  0  0  0
  -28.8363  -22.5959   18.9780 O   0  0  0  0  0  0  0  0  0  0  0  0
  -25.1412  -32.2262   22.0036 O   0  0  0  0  0  0  0  0  0  0  0  0
  -30.5871  -12.2223   21.1933 O   0  0  0  0  0  0  0  0  0  1  0  0
  -23.1835  -33.3511   27.0341 F   0  0  0  0  0  0  0  0  0  0  0  0
  -25.9988  -30.7997   24.2110 F   0  0  0  0  0  0  0  0  0  0  0  0
  1  2  1  0  0  0  0
  1  5  2  0  0  0  0
  2  6  2  0  0  0  0
  3 12  2  0  0  0  0
  3 19  1  0  0  0  0
  4 13  1  0  0  0  0
  4 19  2  0  0  0  0
  5 21  1  0  0  0  0
  6 23  1  0  0  0  0
  7 14  2  0  0  0  0
  7 22  1  0  0  0  0
  8 10  2  0  0  0  0
  8 25  1  0  0  0  0
  9 11  1  0  0  0  0
  9 25  2  0  0  0  0
 10 26  1  0  0  0  0
 11 26  2  0  0  0  0
 12 27  1  0  0  0  0
 13 27  2  0  0  0  0
 14 28  1  0  0  0  0
 15 16  2  0  0  0  0
 15 29  1  0  0  0  0
 16 30  1  0  0  0  0
 17 24  1  0  0  0  0
 17 28  2  0  0  0  0
 18 30  2  0  0  0  0
 18 31  1  0  0  0  0
 19 32  1  0  0  0  0
 20 32  1  0  0  0  0
 20 33  2  0  0  0  0
 20 35  1  0  0  0  0
 21 23  2  0  0  0  0
 21 40  1  0  0  0  0
 22 24  2  0  0  0  0
 22 41  1  0  0  0  0
 23 52  1  0  0  0  0
 24 42  1  0  0  0  0
 25 61  1  0  0  0  0
 26 62  1  0  0  0  0
 27 84  1  0  0  0  0
 28 85  1  0  0  0  0
 29 31  2  0  0  0  0
 29 84  1  0  0  0  0
 30 86  1  0  0  0  0
 31 87  1  0  0  0  0
 32 67  2  0  0  0  0
 33 68  1  0  0  0  0
 33 72  1  0  0  0  0
 34 53  1  0  0  0  0
 34 69  1  0  0  0  0
 34 78  2  0  0  0  0
 35 73  1  0  0  0  0
 35 79  2  0  0  0  0
 36 54  1  0  0  0  0
 36 74  1  0  0  0  0
 36 80  2  0  0  0  0
 37 64  1  0  0  0  0
 37 70  1  0  0  0  0
 37 81  2  0  0  0  0
 38 65  1  0  0  0  0
 38 75  1  0  0  0  0
 38 82  2  0  0  0  0
 39 71  1  0  0  0  0
 39 76  1  0  0  0  0
 39 83  2  0  0  0  0
 40 43  1  0  0  0  0
 41 54  1  0  0  0  0
 42 70  1  0  0  0  0
 43 46  1  0  0  0  0
 44 47  1  0  0  0  0
 44 49  1  0  0  0  0
 45 48  1  0  0  0  0
 45 50  1  0  0  0  0
 46 52  1  0  0  0  0
 47 53  1  0  0  0  0
 48 55  1  0  0  0  0
 49 69  1  0  0  0  0
 50 71  1  0  0  0  0
 51 55  1  0  0  0  0
 51 71  1  0  0  0  0
 52 74  1  0  0  0  0
 53 63  1  0  0  0  0
 54 70  1  0  0  0  0
 55 68  1  0  0  0  0
 56 65  1  0  0  0  0
 57 66  1  0  0  0  0
 58 66  1  0  0  0  0
 59 66  1  0  0  0  0
 60 77  1  0  0  0  0
 61 69  1  0  0  0  0
 62 76  1  0  0  0  0
 63 85  1  0  0  0  0
 64 66  1  0  0  0  0
 64 75  1  0  0  0  0
 65 77  1  0  0  0  0
 67 68  1  0  0  0  0
M  CHG  1  77   1
M  ISO  4  39 100  63 101  76 100  85 101
M  END
> <Batch ID>
0023

> <Smiles>
CNC(C)C(=O)NC(C(=O)N1Cc2cc([101O:1][101CH2:1]C3CCCN(Cc4ccc(C[100NH:0][100C:0](=O)N5CCCC(n6nc(-c7ccc(Oc8ccc(F)cc8F)cc7)c(C(N)=O)c6N)C5)cc4)C3=O)ccc2CC1C(=O)NC1CCCc2ccccc21)C(C)(C)C

> <Shape>
0.227

> <Color>
0.072

> <Negative vol penalty>
0.000

$$$$

  -OEChem-04042321173D

 84 93  0     1  0  0  0  0  0999 V2000
  -23.7479  -26.8943   22.7936 C   0  0  0  0  0  0  0  0  0  0  0  0
  -24.8759  -26.1732   23.1718 C   0  0  0  0  0  0  0  0  0  0  0  0
  -23.1843   -9.7230   20.0499 C   0  0  0  0  0  0  0  0  0  0  0  0
  -23.8358   -9.9622   22.3640 C   0  0  0  0  0  0  0  0  0  0  0  0
  -23.8198  -27.7908   21.7282 C   0  0  0  0  0  0  0  0  0  0  0  0
  -26.0764  -26.3475   22.4841 C   0  0  0  0  0  0  0  0  0  0  0  0
  -30.0522  -26.7703   25.5920 C   0  0  0  0  0  0  0  0  0  0  0  0
  -30.0388  -18.8316   23.6962 C   0  0  0  0  0  0  0  0  0  0  0  0
  -29.5295  -17.8474   22.8491 C   0  0  0  0  0  0  0  0  0  0  0  0
  -22.4752   -8.5651   20.3692 C   0  0  0  0  0  0  0  0  0  0  0  0
  -23.1267   -8.8042   22.6834 C   0  0  0  0  0  0  0  0  0  0  0  0
  -30.5514  -25.5945   26.1508 C   0  0  0  0  0  0  0  0  0  0  0  0
  -19.9076   -7.9239   23.2153 C   0  0  0  0  0  0  0  0  0  0  0  0
  -19.0991   -7.9535   24.3516 C   0  0  0  0  0  0  0  0  0  0  0  0
  -32.3123  -25.5659   24.5023 C   0  0  0  0  0  0  0  0  0  0  0  0
  -31.7704  -17.0463   22.4325 C   0  0  0  0  0  0  0  0  0  0  0  0
  -20.3796   -6.1427   25.3099 C   0  0  0  0  0  0  0  0  0  0  0  0
  -23.8647  -10.4215   21.0473 C   0  0  0  0  0  0  0  0  0  0  0  0
  -24.1129  -12.9390   20.7181 C   0  0  0  0  0  0  0  0  0  0  0  0
  -25.0242  -27.9833   21.0333 C   0  0  0  0  0  0  0  0  0  0  0  0
  -30.6739  -27.3477   24.4755 C   0  0  0  0  0  0  0  0  0  0  0  0
  -26.1641  -27.2465   21.4075 C   0  0  0  0  0  0  0  0  0  0  0  0
  -31.8206  -26.7503   23.9328 C   0  0  0  0  0  0  0  0  0  0  0  0
  -31.4140  -18.9232   23.9114 C   0  0  0  0  0  0  0  0  0  0  0  0
  -30.3952  -16.9548   22.2173 C   0  0  0  0  0  0  0  0  0  0  0  0
  -22.4463   -8.1057   21.6859 C   0  0  0  0  0  0  0  0  0  0  0  0
  -31.6799  -24.9906   25.6042 C   0  0  0  0  0  0  0  0  0  0  0  0
  -20.9520   -7.0036   23.1263 C   0  0  0  0  0  0  0  0  0  0  0  0
  -19.3351   -7.0629   25.3989 C   0  0  0  0  0  0  0  0  0  0  0  0
  -32.2797  -18.0305   23.2795 C   0  0  0  0  0  0  0  0  0  0  0  0
  -21.1880   -6.1130   24.1736 C   0  0  0  0  0  0  0  0  0  0  0  0
  -24.5979  -11.6174   20.7180 C   0  0  0  0  0  0  0  0  0  0  0  0
  -25.1907  -13.7003   20.3369 C   0  0  0  0  0  0  0  0  0  0  0  0
  -31.2991  -20.8673   25.4694 C   0  0  0  0  0  0  0  0  0  0  0  0
  -22.8052  -13.4342   21.0347 C   0  0  0  0  0  0  0  0  0  0  0  0
  -29.7841  -27.9822   21.4907 C   0  0  0  0  0  0  0  0  0  0  0  0
  -32.6797  -29.4375   21.3503 C   0  0  0  0  0  0  0  0  0  0  0  0
  -35.8562  -29.6930   22.5718 C   0  0  0  0  0  0  0  0  0  0  0  0
  -30.5979  -14.9910   20.6524 C   0  0  0  0  0  0  0  0  0  0  0  0
  -25.0411  -28.9284   19.8580 C   0  0  0  0  0  0  0  0  0  0  0  0
  -30.1388  -28.6306   23.9010 C   0  0  0  0  0  0  0  0  0  0  0  0
  -32.5369  -27.3413   22.7470 C   0  0  0  0  0  0  0  0  0  0  0  0
  -26.4470  -29.3318   19.4210 C   0  0  0  0  0  0  0  0  0  0  0  0
  -29.6899  -12.3346   18.4623 C   0  0  0  0  0  0  0  0  0  0  0  0
  -27.3514  -28.1065   19.3347 C   0  0  0  0  0  0  0  0  0  0  0  0
  -28.2443  -12.0199   18.8540 C   0  0  0  0  0  0  0  0  0  0  0  0
  -30.5385  -12.7062   19.6771 C   0  0  0  0  0  0  0  0  0  0  0  0
  -33.2727  -20.3908   24.9255 C   0  0  0  0  0  0  0  0  0  0  0  0
  -28.5425  -13.4655   20.9054 C   0  0  0  0  0  0  0  0  0  0  0  0
  -27.4907  -27.4263   20.7020 C   0  0  1  0  0  0  0  0  0  0  0  0
  -32.6598  -21.5272   25.7832 C   0  0  1  0  0  0  0  0  0  0  0  0
  -30.5489  -28.8516   22.4483 C   0  0  1  0  0  0  0  0  0  0  0  0
  -27.6330  -13.1488   19.7070 C   0  0  2  0  0  0  0  0  0  0  0  0
  -38.0032  -30.9463   22.2300 C   0  0  0  0  0  0  0  0  0  0  0  0
  -33.2689  -27.7491   18.8781 C   0  0  0  0  0  0  0  0  0  0  0  0
  -35.6912  -28.3203   19.1509 C   0  0  0  0  0  0  0  0  0  0  0  0
  -34.0261  -30.1275   18.7217 C   0  0  0  0  0  0  0  0  0  0  0  0
  -35.7678  -30.8216   25.3063 C   0  0  0  0  0  0  0  0  0  0  0  0
  -32.8340  -22.9389   25.2656 C   0  0  0  0  0  0  0  0  0  1  0  0
  -34.0784  -29.0024   20.9852 C   0  0  1  0  0  0  0  0  0  0  0  0
  -36.6832  -30.8976   22.9835 C   0  0  2  0  0  0  0  0  0  0  0  0
  -34.2518  -28.7874   19.4551 C   0  0  0  0  0  0  0  0  0  0  0  0
  -25.8836  -11.5400   20.3645 N   0  0  0  0  0  0  0  0  0  0  0  0
  -26.2157  -12.8225   20.1390 N   0  0  0  0  0  0  0  0  0  0  0  0
  -31.9138  -19.8952   24.7476 N   0  0  0  0  0  0  0  0  0  0  0  0
  -31.9715  -28.5930   22.2169 N   0  0  0  0  0  0  0  0  0  0  0  0
  -29.8995  -13.7845   20.4346 N   0  0  0  0  0  0  0  0  0  0  0  0
  -25.3522  -15.0281   20.1550 N   0  0  0  0  0  0  0  0  0  0  0  0
  -21.8149  -12.5152   21.4077 N   0  0  0  0  0  0  0  0  0  0  0  0
  -29.8775  -15.9551   21.3568 N   0  0  0  0  0  0  0  0  0  0  0  0
  -28.4147  -28.1602   21.5398 N   0  0  0  0  0  0  0  0  0  0  0  0
  -34.9779  -30.0002   21.5541 N   0  0  0  0  0  0  0  0  0  0  0  0
  -36.9771  -30.8494   24.4438 N   0  3  0  0  0  0  0  0  0  0  0  0
  -30.1379  -21.1071   25.7106 O   0  0  0  0  0  0  0  0  0  0  0  0
  -22.5187  -14.6539   20.9722 O   0  0  0  0  0  0  0  0  0  0  0  0
  -30.3917  -27.2082   20.7602 O   0  0  0  0  0  0  0  0  0  0  0  0
  -32.2347  -30.4917   20.8895 O   0  0  0  0  0  0  0  0  0  0  0  0
  -35.9797  -28.5890   23.0976 O   0  0  0  0  0  0  0  0  0  0  0  0
  -31.7401  -15.1668   20.2205 O   0  0  0  0  0  0  0  0  0  0  0  0
  -21.7543   -6.9760   21.9979 O   0  0  0  0  0  0  0  0  0  0  0  0
  -32.1688  -23.8426   26.1472 O   0  0  0  0  0  0  0  0  0  1  0  0
  -18.5596   -7.0925   26.4906 F   0  0  0  0  0  0  0  0  0  0  0  0
  -33.6034  -18.1095   23.4785 F   0  0  0  0  0  0  0  0  0  0  0  0
  -22.1907   -5.2274   24.0943 F   0  0  0  0  0  0  0  0  0  0  0  0
  1  2  1  0  0  0  0
  1  5  2  0  0  0  0
  2  6  2  0  0  0  0
  3 10  2  0  0  0  0
  3 18  1  0  0  0  0
  4 11  1  0  0  0  0
  4 18  2  0  0  0  0
  5 20  1  0  0  0  0
  6 22  1  0  0  0  0
  7 12  2  0  0  0  0
  7 21  1  0  0  0  0
  8  9  2  0  0  0  0
  8 24  1  0  0  0  0
  9 25  1  0  0  0  0
 10 26  1  0  0  0  0
 11 26  2  0  0  0  0
 12 27  1  0  0  0  0
 13 14  2  0  0  0  0
 13 28  1  0  0  0  0
 14 29  1  0  0  0  0
 15 23  1  0  0  0  0
 15 27  2  0  0  0  0
 16 25  2  0  0  0  0
 16 30  1  0  0  0  0
 17 29  2  0  0  0  0
 17 31  1  0  0  0  0
 18 32  1  0  0  0  0
 19 32  1  0  0  0  0
 19 33  2  0  0  0  0
 19 35  1  0  0  0  0
 20 22  2  0  0  0  0
 20 40  1  0  0  0  0
 21 23  2  0  0  0  0
 21 41  1  0  0  0  0
 22 50  1  0  0  0  0
 23 42  1  0  0  0  0
 24 30  2  0  0  0  0
 24 65  1  0  0  0  0
 25 70  1  0  0  0  0
 26 80  1  0  0  0  0
 27 81  1  0  0  0  0
 28 31  2  0  0  0  0
 28 80  1  0  0  0  0
 29 82  1  0  0  0  0
 30 83  1  0  0  0  0
 31 84  1  0  0  0  0
 32 63  2  0  0  0  0
 33 64  1  0  0  0  0
 33 68  1  0  0  0  0
 34 51  1  0  0  0  0
 34 65  1  0  0  0  0
 34 74  2  0  0  0  0
 35 69  1  0  0  0  0
 35 75  2  0  0  0  0
 36 52  1  0  0  0  0
 36 71  1  0  0  0  0
 36 76  2  0  0  0  0
 37 60  1  0  0  0  0
 37 66  1  0  0  0  0
 37 77  2  0  0  0  0
 38 61  1  0  0  0  0
 38 72  1  0  0  0  0
 38 78  2  0  0  0  0
 39 67  1  0  0  0  0
 39 70  1  0  0  0  0
 39 79  2  0  0  0  0
 40 43  1  0  0  0  0
 41 52  1  0  0  0  0
 42 66  1  0  0  0  0
 43 45  1  0  0  0  0
 44 46  1  0  0  0  0
 44 47  1  0  0  0  0
 45 50  1  0  0  0  0
 46 53  1  0  0  0  0
 47 67  1  0  0  0  0
 48 51  1  0  0  0  0
 48 65  1  0  0  0  0
 49 53  1  0  0  0  0
 49 67  1  0  0  0  0
 50 71  1  0  0  0  0
 51 59  1  0  0  0  0
 52 66  1  0  0  0  0
 53 64  1  0  0  0  0
 54 61  1  0  0  0  0
 55 62  1  0  0  0  0
 56 62  1  0  0  0  0
 57 62  1  0  0  0  0
 58 73  1  0  0  0  0
 59 81  1  0  0  0  0
 60 62  1  0  0  0  0
 60 72  1  0  0  0  0
 61 73  1  0  0  0  0
 63 64  1  0  0  0  0
M  CHG  1  73   1
M  ISO  4  39 100  59 101  70 100  81 101
M  END
> <Batch ID>
0023

> <Smiles>
CNC(C)C(=O)NC(C(=O)N1Cc2cc([101O:1][101CH2:1]C3CN(c4ccc([100NH:0][100C:0](=O)N5CCCC(n6nc(-c7ccc(Oc8ccc(F)cc8F)cc7)c(C(N)=O)c6N)C5)cc4F)C3=O)ccc2CC1C(=O)NC1CCCc2ccccc21)C(C)(C)C

> <Shape>
0.214

> <Color>
0.206

> <Negative vol penalty>
0.000

$$$$

  -OEChem-04042321173D

 88 97  0     1  0  0  0  0  0999 V2000
  -15.9540  -19.4968   24.9427 C   0  0  0  0  0  0  0  0  0  0  0  0
  -17.2967  -19.5956   25.2933 C   0  0  0  0  0  0  0  0  0  0  0  0
  -27.1203  -18.0973   21.4292 C   0  0  0  0  0  0  0  0  0  0  0  0
  -28.6011  -17.0590   19.8272 C   0  0  0  0  0  0  0  0  0  0  0  0
  -15.4648  -20.2151   23.8524 C   0  0  0  0  0  0  0  0  0  0  0  0
  -18.1512  -20.4119   24.5531 C   0  0  0  0  0  0  0  0  0  0  0  0
  -22.8830  -23.6705   26.6739 C   0  0  0  0  0  0  0  0  0  0  0  0
  -28.8098  -23.4958   22.9559 C   0  0  0  0  0  0  0  0  0  0  0  0
  -28.7396  -24.4130   21.9073 C   0  0  0  0  0  0  0  0  0  0  0  0
  -26.2078  -17.0559   21.2608 C   0  0  0  0  0  0  0  0  0  0  0  0
  -27.6886  -16.0175   19.6588 C   0  0  0  0  0  0  0  0  0  0  0  0
  -24.2555  -23.4265   26.6951 C   0  0  0  0  0  0  0  0  0  0  0  0
  -25.8466  -13.8650   22.3194 C   0  0  0  0  0  0  0  0  0  0  0  0
  -25.2759  -13.3115   23.4654 C   0  0  0  0  0  0  0  0  0  0  0  0
  -24.5097  -24.7149   24.6716 C   0  0  0  0  0  0  0  0  0  0  0  0
  -26.5952  -23.5081   21.2594 C   0  0  0  0  0  0  0  0  0  0  0  0
  -23.0798  -13.9299   22.6706 C   0  0  0  0  0  0  0  0  0  0  0  0
  -28.3169  -18.0989   20.7124 C   0  0  0  0  0  0  0  0  0  0  0  0
  -30.3134  -19.2401   21.8168 C   0  0  0  0  0  0  0  0  0  0  0  0
  -16.3117  -21.0481   23.1044 C   0  0  0  0  0  0  0  0  0  0  0  0
  -22.3110  -24.4306   25.6436 C   0  0  0  0  0  0  0  0  0  0  0  0
  -17.6731  -21.1410   23.4510 C   0  0  0  0  0  0  0  0  0  0  0  0
  -23.1300  -24.9692   24.6410 C   0  0  0  0  0  0  0  0  0  0  0  0
  -26.6654  -22.5909   22.3079 C   0  0  0  0  0  0  0  0  0  0  0  0
  -27.7727  -22.5848   23.1562 C   0  0  0  0  0  0  0  0  0  0  0  0
  -27.6323  -24.4191   21.0590 C   0  0  0  0  0  0  0  0  0  0  0  0
  -26.4920  -16.0160   20.3756 C   0  0  0  0  0  0  0  0  0  0  0  0
  -25.0687  -23.9463   25.6923 C   0  0  0  0  0  0  0  0  0  0  0  0
  -25.0339  -14.4510   21.3489 C   0  0  0  0  0  0  0  0  0  0  0  0
  -23.8926  -13.3439   23.6411 C   0  0  0  0  0  0  0  0  0  0  0  0
  -23.6505  -14.4834   21.5245 C   0  0  0  0  0  0  0  0  0  0  0  0
  -29.2597  -19.1747   20.8855 C   0  0  0  0  0  0  0  0  0  0  0  0
  -30.9080  -20.4549   21.5778 C   0  0  0  0  0  0  0  0  0  0  0  0
  -30.7185  -18.2878   22.8091 C   0  0  0  0  0  0  0  0  0  0  0  0
  -20.1640  -23.8689   23.3680 C   0  0  0  0  0  0  0  0  0  0  0  0
  -20.4872  -27.0498   22.8202 C   0  0  0  0  0  0  0  0  0  0  0  0
  -22.4152  -29.8535   23.0819 C   0  0  0  0  0  0  0  0  0  0  0  0
  -28.5101  -25.4306   18.9383 C   0  0  0  0  0  0  0  0  0  0  0  0
  -15.7474  -21.7683   21.9054 C   0  0  0  0  0  0  0  0  0  0  0  0
  -20.8325  -24.7072   25.6498 C   0  0  0  0  0  0  0  0  0  0  0  0
  -22.5680  -25.8087   23.5239 C   0  0  0  0  0  0  0  0  0  0  0  0
  -16.6372  -22.9017   21.4013 C   0  0  0  0  0  0  0  0  0  0  0  0
  -31.6585  -23.6674   18.1188 C   0  0  0  0  0  0  0  0  0  0  0  0
  -27.9365  -19.6458   25.4040 C   0  0  0  0  0  0  0  0  0  0  0  0
  -18.0884  -22.4409   21.3101 C   0  0  0  0  0  0  0  0  0  0  0  0
  -31.4493  -22.2903   18.7458 C   0  0  0  0  0  0  0  0  0  0  0  0
  -28.6594  -20.7243   26.1954 C   0  0  0  0  0  0  0  0  0  0  0  0
  -27.8508  -20.2321   23.9985 C   0  0  0  0  0  0  0  0  0  0  0  0
  -30.3372  -24.3079   17.7047 C   0  0  0  0  0  0  0  0  0  0  0  0
  -29.1346  -23.0197   19.4471 C   0  0  0  0  0  0  0  0  0  0  0  0
  -18.6260  -22.0351   22.6877 C   0  0  1  0  0  0  0  0  0  0  0  0
  -20.2856  -25.0637   24.2709 C   0  0  1  0  0  0  0  0  0  0  0  0
  -30.4477  -22.3707   19.9096 C   0  0  1  0  0  0  0  0  0  0  0  0
  -28.1260  -22.0347   25.5997 C   0  0  2  0  0  0  0  0  0  0  0  0
  -25.5414  -21.6253   22.4991 C   0  0  0  0  0  0  0  0  0  0  0  0
  -22.4266  -32.2968   22.5099 C   0  0  0  0  0  0  0  0  0  0  0  0
  -21.0641  -26.3618   19.9041 C   0  0  0  0  0  0  0  0  0  0  0  0
  -21.9822  -28.6728   19.6132 C   0  0  0  0  0  0  0  0  0  0  0  0
  -19.5873  -28.3530   20.2337 C   0  0  0  0  0  0  0  0  0  0  0  0
  -25.8700  -26.3541   21.4311 C   0  0  0  0  0  0  0  0  0  0  0  0
  -27.3723  -27.8026   20.0405 C   0  0  0  0  0  0  0  0  0  0  0  0
  -25.6078  -26.4078   18.9378 C   0  0  0  0  0  0  0  0  0  0  0  0
  -22.6250  -30.6376   25.9280 C   0  0  0  0  0  0  0  0  0  0  0  0
  -26.8434  -22.4839   26.2985 C   0  0  0  0  0  0  0  0  0  1  0  0
  -21.3845  -27.8995   21.9532 C   0  0  1  0  0  0  0  0  0  0  0  0
  -22.0936  -31.2555   23.5670 C   0  0  2  0  0  0  0  0  0  0  0  0
  -21.0151  -27.8044   20.4459 C   0  0  0  0  0  0  0  0  0  0  0  0
  -26.6110  -26.4730   20.0952 C   0  0  0  0  0  0  0  0  0  0  0  0
  -29.1865  -20.2616   20.1126 N   0  0  0  0  0  0  0  0  0  0  0  0
  -30.2016  -21.0214   20.5578 N   0  0  0  0  0  0  0  0  0  0  0  0
  -27.8592  -21.6824   24.1997 N   0  0  3  0  0  0  0  0  0  0  0  0
  -21.1157  -26.0457   23.5703 N   0  0  0  0  0  0  0  0  0  0  0  0
  -29.3728  -24.3232   18.8058 N   0  0  0  0  0  0  0  0  0  0  0  0
  -31.9609  -21.0831   22.1427 N   0  0  0  0  0  0  0  0  0  0  0  0
  -29.9979  -17.0908   22.9199 N   0  0  0  0  0  0  0  0  0  0  0  0
  -18.9540  -23.2090   23.4681 N   0  0  0  0  0  0  0  0  0  0  0  0
  -21.3202  -29.2505   22.5001 N   0  0  0  0  0  0  0  0  0  0  0  0
  -27.5597  -25.3681   19.9751 N   0  0  0  0  0  0  0  0  0  0  0  0
  -22.8730  -31.5694   24.7978 N   0  3  0  0  0  0  0  0  0  0  0  0
  -31.6805  -18.4994   23.5858 O   0  0  0  0  0  0  0  0  0  0  0  0
  -21.0981  -23.5689   22.6338 O   0  0  0  0  0  0  0  0  0  0  0  0
  -19.2742  -27.2734   22.8370 O   0  0  0  0  0  0  0  0  0  0  0  0
  -23.5278  -29.3455   23.2034 O   0  0  0  0  0  0  0  0  0  0  0  0
  -28.5459  -26.3856   18.1527 O   0  0  0  0  0  0  0  0  0  0  0  0
  -25.6019  -14.9995   20.2112 O   0  0  0  0  0  0  0  0  0  0  0  0
  -26.4085  -23.7091   25.7102 O   0  0  0  0  0  0  0  0  0  1  0  0
  -23.3446  -12.8109   24.7410 F   0  0  0  0  0  0  0  0  0  0  0  0
  -22.8645  -15.0440   20.5951 F   0  0  0  0  0  0  0  0  0  0  0  0
  1  2  1  0  0  0  0
  1  5  2  0  0  0  0
  2  6  2  0  0  0  0
  3 10  2  0  0  0  0
  3 18  1  0  0  0  0
  4 11  1  0  0  0  0
  4 18  2  0  0  0  0
  5 20  1  0  0  0  0
  6 22  1  0  0  0  0
  7 12  2  0  0  0  0
  7 21  1  0  0  0  0
  8  9  2  0  0  0  0
  8 25  1  0  0  0  0
  9 26  1  0  0  0  0
 10 27  1  0  0  0  0
 11 27  2  0  0  0  0
 12 28  1  0  0  0  0
 13 14  2  0  0  0  0
 13 29  1  0  0  0  0
 14 30  1  0  0  0  0
 15 23  1  0  0  0  0
 15 28  2  0  0  0  0
 16 24  1  0  0  0  0
 16 26  2  0  0  0  0
 17 30  2  0  0  0  0
 17 31  1  0  0  0  0
 18 32  1  0  0  0  0
 19 32  1  0  0  0  0
 19 33  2  0  0  0  0
 19 34  1  0  0  0  0
 20 22  2  0  0  0  0
 20 39  1  0  0  0  0
 21 23  2  0  0  0  0
 21 40  1  0  0  0  0
 22 51  1  0  0  0  0
 23 41  1  0  0  0  0
 24 25  2  0  0  0  0
 24 55  1  0  0  0  0
 25 71  1  0  0  0  0
 26 78  1  0  0  0  0
 27 85  1  0  0  0  0
 28 86  1  0  0  0  0
 29 31  2  0  0  0  0
 29 85  1  0  0  0  0
 30 87  1  0  0  0  0
 31 88  1  0  0  0  0
 32 69  2  0  0  0  0
 33 70  1  0  0  0  0
 33 74  1  0  0  0  0
 34 75  1  0  0  0  0
 34 80  2  0  0  0  0
 35 52  1  0  0  0  0
 35 76  1  0  0  0  0
 35 81  2  0  0  0  0
 36 65  1  0  0  0  0
 36 72  1  0  0  0  0
 36 82  2  0  0  0  0
 37 66  1  0  0  0  0
 37 77  1  0  0  0  0
 37 83  2  0  0  0  0
 38 73  1  0  0  0  0
 38 78  1  0  0  0  0
 38 84  2  0  0  0  0
 39 42  1  0  0  0  0
 40 52  1  0  0  0  0
 41 72  1  0  0  0  0
 42 45  1  0  0  0  0
 43 46  1  0  0  0  0
 43 49  1  0  0  0  0
 44 47  1  0  0  0  0
 44 48  1  0  0  0  0
 45 51  1  0  0  0  0
 46 53  1  0  0  0  0
 47 54  1  0  0  0  0
 48 71  1  0  0  0  0
 49 73  1  0  0  0  0
 50 53  1  0  0  0  0
 50 73  1  0  0  0  0
 51 76  1  0  0  0  0
 52 72  1  0  0  0  0
 53 70  1  0  0  0  0
 54 64  1  0  0  0  0
 54 71  1  0  0  0  0
 56 66  1  0  0  0  0
 57 67  1  0  0  0  0
 58 67  1  0  0  0  0
 59 67  1  0  0  0  0
 60 68  1  0  0  0  0
 61 68  1  0  0  0  0
 62 68  1  0  0  0  0
 63 79  1  0  0  0  0
 64 86  1  0  0  0  0
 65 67  1  0  0  0  0
 65 77  1  0  0  0  0
 66 79  1  0  0  0  0
 68 78  1  0  0  0  0
 69 70  1  0  0  0  0
M  CHG  1  79   1
M  ISO  4  38 100  64 101  78 100  86 101
M  END
> <Batch ID>
0023

> <Smiles>
CNC(C)C(=O)NC(C(=O)N1Cc2cc([101O:1][101CH2:1]C3CCCN3c3ccc([100N:0]([100C:0](=O)N4CCCC(n5nc(-c6ccc(Oc7ccc(F)cc7F)cc6)c(C(N)=O)c5N)C4)C(C)(C)C)cc3C)ccc2CC1C(=O)NC1CCCc2ccccc21)C(C)(C)C

> <Shape>
0.169

> <Color>
0.069

> <Negative vol penalty>
0.000

$$$$

  -OEChem-04042321173D

 90 99  0     1  0  0  0  0  0999 V2000
  -31.6116  -12.7654   22.3873 C   0  0  0  0  0  0  0  0  0  0  0  0
  -31.0758  -14.0401   22.5406 C   0  0  0  0  0  0  0  0  0  0  0  0
  -27.6571  -25.6101   20.6839 C   0  0  0  0  0  0  0  0  0  0  0  0
  -27.2948  -26.1988   18.3689 C   0  0  0  0  0  0  0  0  0  0  0  0
  -31.0152  -11.8607   21.5100 C   0  0  0  0  0  0  0  0  0  0  0  0
  -29.9438  -14.4111   21.8159 C   0  0  0  0  0  0  0  0  0  0  0  0
  -26.5242  -16.8331   24.6594 C   0  0  0  0  0  0  0  0  0  0  0  0
  -20.4137  -24.9598   22.5230 C   0  0  0  0  0  0  0  0  0  0  0  0
  -20.4836  -26.2959   22.9173 C   0  0  0  0  0  0  0  0  0  0  0  0
  -28.2279  -24.4009   20.2871 C   0  0  0  0  0  0  0  0  0  0  0  0
  -27.8657  -24.9896   17.9720 C   0  0  0  0  0  0  0  0  0  0  0  0
  -26.7709  -18.1748   24.9472 C   0  0  0  0  0  0  0  0  0  0  0  0
  -27.1632  -21.3762   19.2184 C   0  0  0  0  0  0  0  0  0  0  0  0
  -26.7721  -20.2221   19.8972 C   0  0  0  0  0  0  0  0  0  0  0  0
  -25.2357  -18.8248   23.2036 C   0  0  0  0  0  0  0  0  0  0  0  0
  -29.0606  -19.8445   20.5736 C   0  0  0  0  0  0  0  0  0  0  0  0
  -27.1904  -26.5091   19.7248 C   0  0  0  0  0  0  0  0  0  0  0  0
  -27.2615  -28.9833   20.3420 C   0  0  0  0  0  0  0  0  0  0  0  0
  -29.8696  -12.2175   20.7814 C   0  0  0  0  0  0  0  0  0  0  0  0
  -25.6382  -16.4766   23.6325 C   0  0  0  0  0  0  0  0  0  0  0  0
  -29.3322  -13.5108   20.9270 C   0  0  0  0  0  0  0  0  0  0  0  0
  -24.9776  -17.4779   22.9065 C   0  0  0  0  0  0  0  0  0  0  0  0
  -21.3243  -24.0338   23.0322 C   0  0  0  0  0  0  0  0  0  0  0  0
  -21.4639  -26.7061   23.8208 C   0  0  0  0  0  0  0  0  0  0  0  0
  -22.3046  -24.4440   23.9356 C   0  0  0  0  0  0  0  0  0  0  0  0
  -28.3323  -24.0907   18.9311 C   0  0  0  0  0  0  0  0  0  0  0  0
  -26.1288  -19.1709   24.2174 C   0  0  0  0  0  0  0  0  0  0  0  0
  -28.5030  -21.7644   19.2172 C   0  0  0  0  0  0  0  0  0  0  0  0
  -27.7208  -19.4563   20.5748 C   0  0  0  0  0  0  0  0  0  0  0  0
  -29.4517  -20.9986   19.8948 C   0  0  0  0  0  0  0  0  0  0  0  0
  -22.3745  -25.7802   24.3300 C   0  0  0  0  0  0  0  0  0  0  0  0
  -26.6000  -27.7581   20.1341 C   0  0  0  0  0  0  0  0  0  0  0  0
  -26.2658  -29.8516   20.7177 C   0  0  0  0  0  0  0  0  0  0  0  0
  -28.6516  -29.3075   20.2073 C   0  0  0  0  0  0  0  0  0  0  0  0
  -25.9026  -14.8853   20.8937 C   0  0  0  0  0  0  0  0  0  0  0  0
  -22.6784  -15.2354   20.8297 C   0  0  0  0  0  0  0  0  0  0  0  0
  -20.2009  -16.5900   22.2216 C   0  0  0  0  0  0  0  0  0  0  0  0
  -21.1264  -29.1278   23.3597 C   0  0  0  0  0  0  0  0  0  0  0  0
  -29.2878  -11.2216   19.8097 C   0  0  0  0  0  0  0  0  0  0  0  0
  -25.3626  -15.0248   23.3523 C   0  0  0  0  0  0  0  0  0  0  0  0
  -24.0019  -17.1478   21.8076 C   0  0  0  0  0  0  0  0  0  0  0  0
  -27.8704  -11.5663   19.3596 C   0  0  0  0  0  0  0  0  0  0  0  0
  -20.5701  -20.4209   22.4933 C   0  0  0  0  0  0  0  0  0  0  0  0
  -21.6208  -20.6776   21.4322 C   0  0  0  0  0  0  0  0  0  0  0  0
  -21.5876  -30.6547   20.1818 C   0  0  0  0  0  0  0  0  0  0  0  0
  -27.7751  -13.0400   18.9778 C   0  0  0  0  0  0  0  0  0  0  0  0
  -22.9987  -30.1898   19.8237 C   0  0  0  0  0  0  0  0  0  0  0  0
  -20.0674  -21.8235   22.8155 C   0  0  0  0  0  0  0  0  0  0  0  0
  -22.2989  -21.9486   21.9307 C   0  0  0  0  0  0  0  0  0  0  0  0
  -20.7807  -29.5550   20.8728 C   0  0  0  0  0  0  0  0  0  0  0  0
  -22.8641  -28.5051   21.6984 C   0  0  0  0  0  0  0  0  0  0  0  0
  -28.0907  -13.9421   20.1770 C   0  0  1  0  0  0  0  0  0  0  0  0
  -24.8326  -14.7784   21.9431 C   0  0  1  0  0  0  0  0  0  0  0  0
  -23.7175  -29.6086   21.0541 C   0  0  1  0  0  0  0  0  0  0  0  0
  -17.7983  -17.3028   22.3515 C   0  0  0  0  0  0  0  0  0  0  0  0
  -22.9903  -16.4444   18.0456 C   0  0  0  0  0  0  0  0  0  0  0  0
  -20.6624  -17.3426   18.2510 C   0  0  0  0  0  0  0  0  0  0  0  0
  -21.0551  -14.8796   18.2926 C   0  0  0  0  0  0  0  0  0  0  0  0
  -26.8734  -23.0338   25.3567 C   0  0  0  0  0  0  0  0  0  0  0  0
  -24.8593  -22.2071   26.5850 C   0  0  0  0  0  0  0  0  0  0  0  0
  -21.8049  -28.3945   25.6350 C   0  0  0  0  0  0  0  0  0  0  0  0
  -19.7474  -15.0186   24.6882 C   0  0  0  0  0  0  0  0  0  0  0  0
  -24.6158  -23.8364   24.6532 C   0  0  0  0  0  0  0  0  0  0  0  0
  -25.3061  -21.4020   24.2503 C   0  0  0  0  0  0  0  0  0  1  0  0
  -21.7264  -16.2757   20.2907 C   0  0  1  0  0  0  0  0  0  0  0  0
  -18.8111  -16.2275   22.7131 C   0  0  2  0  0  0  0  0  0  0  0  0
  -21.6283  -16.2421   18.7393 C   0  0  0  0  0  0  0  0  0  0  0  0
  -25.3961  -22.6167   25.2010 C   0  0  0  0  0  0  0  0  0  0  0  0
  -25.2858  -27.8369   20.3593 N   0  0  0  0  0  0  0  0  0  0  0  0
  -25.1134  -29.1220   20.7126 N   0  0  0  0  0  0  0  0  0  0  0  0
  -21.2360  -22.6904   22.6200 N   0  0  0  0  0  0  0  0  0  0  0  0
  -23.7707  -15.7138   21.5671 N   0  0  0  0  0  0  0  0  0  0  0  0
  -21.5233  -29.0033   22.0149 N   0  0  0  0  0  0  0  0  0  0  0  0
  -26.2723  -31.1603   21.0488 N   0  0  0  0  0  0  0  0  0  0  0  0
  -29.5382  -28.2965   19.8123 N   0  0  0  0  0  0  0  0  0  0  0  0
  -23.2161  -23.5383   24.4523 N   0  0  0  0  0  0  0  0  0  0  0  0
  -26.9554  -14.0083   21.0722 N   0  0  0  0  0  0  0  0  0  0  0  0
  -20.4559  -16.0598   20.9745 N   0  0  0  0  0  0  0  0  0  0  0  0
  -21.5340  -28.0905   24.2257 N   0  0  0  0  0  0  0  0  0  0  0  0
  -18.8123  -16.0620   24.1942 N   0  3  0  0  0  0  0  0  0  0  0  0
  -29.0968  -30.4556   20.4466 O   0  0  0  0  0  0  0  0  0  0  0  0
  -25.7812  -15.7020   19.9881 O   0  0  0  0  0  0  0  0  0  0  0  0
  -22.4569  -14.0418   20.6107 O   0  0  0  0  0  0  0  0  0  0  0  0
  -20.9807  -17.2780   22.8766 O   0  0  0  0  0  0  0  0  0  0  0  0
  -20.4803  -30.1032   23.7613 O   0  0  0  0  0  0  0  0  0  0  0  0
  -28.8896  -22.9109   18.5435 O   0  0  0  0  0  0  0  0  0  0  0  0
  -26.3683  -20.4812   24.4958 O   0  0  0  0  0  0  0  0  0  1  0  0
  -27.3448  -18.3488   21.2278 F   0  0  0  0  0  0  0  0  0  0  0  0
  -30.7401  -21.3672   19.8982 F   0  0  0  0  0  0  0  0  0  0  0  0
  -23.3193  -26.1758   25.1970 F   0  0  0  0  0  0  0  0  0  0  0  0
  1  2  1  0  0  0  0
  1  5  2  0  0  0  0
  2  6  2  0  0  0  0
  3 10  2  0  0  0  0
  3 17  1  0  0  0  0
  4 11  1  0  0  0  0
  4 17  2  0  0  0  0
  5 19  1  0  0  0  0
  6 21  1  0  0  0  0
  7 12  2  0  0  0  0
  7 20  1  0  0  0  0
  8  9  1  0  0  0  0
  8 23  2  0  0  0  0
  9 24  2  0  0  0  0
 10 26  1  0  0  0  0
 11 26  2  0  0  0  0
 12 27  1  0  0  0  0
 13 14  2  0  0  0  0
 13 28  1  0  0  0  0
 14 29  1  0  0  0  0
 15 22  1  0  0  0  0
 15 27  2  0  0  0  0
 16 29  2  0  0  0  0
 16 30  1  0  0  0  0
 17 32  1  0  0  0  0
 18 32  1  0  0  0  0
 18 33  2  0  0  0  0
 18 34  1  0  0  0  0
 19 21  2  0  0  0  0
 19 39  1  0  0  0  0
 20 22  2  0  0  0  0
 20 40  1  0  0  0  0
 21 52  1  0  0  0  0
 22 41  1  0  0  0  0
 23 25  1  0  0  0  0
 23 71  1  0  0  0  0
 24 31  1  0  0  0  0
 24 79  1  0  0  0  0
 25 31  2  0  0  0  0
 25 76  1  0  0  0  0
 26 86  1  0  0  0  0
 27 87  1  0  0  0  0
 28 30  2  0  0  0  0
 28 86  1  0  0  0  0
 29 88  1  0  0  0  0
 30 89  1  0  0  0  0
 31 90  1  0  0  0  0
 32 69  2  0  0  0  0
 33 70  1  0  0  0  0
 33 74  1  0  0  0  0
 34 75  1  0  0  0  0
 34 81  2  0  0  0  0
 35 53  1  0  0  0  0
 35 77  1  0  0  0  0
 35 82  2  0  0  0  0
 36 65  1  0  0  0  0
 36 72  1  0  0  0  0
 36 83  2  0  0  0  0
 37 66  1  0  0  0  0
 37 78  1  0  0  0  0
 37 84  2  0  0  0  0
 38 73  1  0  0  0  0
 38 79  1  0  0  0  0
 38 85  2  0  0  0  0
 39 42  1  0  0  0  0
 40 53  1  0  0  0  0
 41 72  1  0  0  0  0
 42 46  1  0  0  0  0
 43 44  1  0  0  0  0
 43 48  1  0  0  0  0
 44 49  1  0  0  0  0
 45 47  1  0  0  0  0
 45 50  1  0  0  0  0
 46 52  1  0  0  0  0
 47 54  1  0  0  0  0
 48 71  1  0  0  0  0
 49 71  1  0  0  0  0
 50 73  1  0  0  0  0
 51 54  1  0  0  0  0
 51 73  1  0  0  0  0
 52 77  1  0  0  0  0
 53 72  1  0  0  0  0
 54 70  1  0  0  0  0
 55 66  1  0  0  0  0
 56 67  1  0  0  0  0
 57 67  1  0  0  0  0
 58 67  1  0  0  0  0
 59 68  1  0  0  0  0
 60 68  1  0  0  0  0
 61 79  1  0  0  0  0
 62 80  1  0  0  0  0
 63 68  1  0  0  0  0
 63 76  1  0  0  0  0
 64 68  1  0  0  0  0
 64 87  1  0  0  0  0
 65 67  1  0  0  0  0
 65 78  1  0  0  0  0
 66 80  1  0  0  0  0
 69 70  1  0  0  0  0
M  CHG  1  80   1
M  ISO  4  38 100  64 101  79 100  87 101
M  END
> <Batch ID>
0023

> <Smiles>
CNC(C)C(=O)NC(C(=O)N1Cc2cc([101O:1][101CH2:1]C(C)(C)CNc3c(N4CCCC4)ccc([100N:0](C)[100C:0](=O)N4CCCC(n5nc(-c6ccc(Oc7ccc(F)cc7F)cc6)c(C(N)=O)c5N)C4)c3F)ccc2CC1C(=O)NC1CCCc2ccccc21)C(C)(C)C

> <Shape>
0.211

> <Color>
0.070

> <Negative vol penalty>
0.000

$$$$

  -OEChem-04042321173D

 86 95  0     1  0  0  0  0  0999 V2000
  -30.3483  -35.2623   22.2123 C   0  0  0  0  0  0  0  0  0  0  0  0
  -30.0087  -33.9715   22.6043 C   0  0  0  0  0  0  0  0  0  0  0  0
  -24.2773   -9.6398   22.5083 C   0  0  0  0  0  0  0  0  0  0  0  0
  -25.1431   -8.9320   20.3667 C   0  0  0  0  0  0  0  0  0  0  0  0
  -29.3593  -36.2387   22.1007 C   0  0  0  0  0  0  0  0  0  0  0  0
  -28.6798  -33.6565   22.8860 C   0  0  0  0  0  0  0  0  0  0  0  0
  -27.2466  -29.2587   20.8243 C   0  0  0  0  0  0  0  0  0  0  0  0
  -29.0671  -20.5199   23.1592 C   0  0  0  0  0  0  0  0  0  0  0  0
  -29.0363  -19.3694   22.3712 C   0  0  0  0  0  0  0  0  0  0  0  0
  -24.1161   -8.3062   22.8840 C   0  0  0  0  0  0  0  0  0  0  0  0
  -24.9820   -7.5984   20.7424 C   0  0  0  0  0  0  0  0  0  0  0  0
  -27.6525  -28.0910   21.4689 C   0  0  0  0  0  0  0  0  0  0  0  0
  -21.9122   -5.8075   22.3150 C   0  0  0  0  0  0  0  0  0  0  0  0
  -20.7146   -5.4495   22.9339 C   0  0  0  0  0  0  0  0  0  0  0  0
  -25.4726  -27.9011   22.4845 C   0  0  0  0  0  0  0  0  0  0  0  0
  -26.6817  -20.3488   23.5023 C   0  0  0  0  0  0  0  0  0  0  0  0
  -21.9394   -4.7314   24.8886 C   0  0  0  0  0  0  0  0  0  0  0  0
  -24.7907   -9.9527   21.2497 C   0  0  0  0  0  0  0  0  0  0  0  0
  -23.9535  -12.3127   20.7627 C   0  0  0  0  0  0  0  0  0  0  0  0
  -28.0163  -35.9331   22.3719 C   0  0  0  0  0  0  0  0  0  0  0  0
  -25.9520  -29.7632   21.0139 C   0  0  0  0  0  0  0  0  0  0  0  0
  -27.6721  -34.6300   22.7793 C   0  0  0  0  0  0  0  0  0  0  0  0
  -25.0519  -29.0740   21.8391 C   0  0  0  0  0  0  0  0  0  0  0  0
  -27.8898  -21.0096   23.7248 C   0  0  0  0  0  0  0  0  0  0  0  0
  -27.8282  -18.7086   22.1487 C   0  0  0  0  0  0  0  0  0  0  0  0
  -24.4685   -7.2855   22.0010 C   0  0  0  0  0  0  0  0  0  0  0  0
  -26.7664  -27.4136   22.3015 C   0  0  0  0  0  0  0  0  0  0  0  0
  -23.1235   -5.6274   22.9829 C   0  0  0  0  0  0  0  0  0  0  0  0
  -20.7281   -4.9115   24.2207 C   0  0  0  0  0  0  0  0  0  0  0  0
  -23.1371   -5.0893   24.2697 C   0  0  0  0  0  0  0  0  0  0  0  0
  -26.6509  -19.1983   22.7142 C   0  0  0  0  0  0  0  0  0  0  0  0
  -24.9569  -11.3301   20.8608 C   0  0  0  0  0  0  0  0  0  0  0  0
  -24.6193  -13.4442   20.3589 C   0  0  0  0  0  0  0  0  0  0  0  0
  -27.2558  -23.3768   24.3209 C   0  0  0  0  0  0  0  0  0  0  0  0
  -22.5456  -12.2118   21.0142 C   0  0  0  0  0  0  0  0  0  0  0  0
  -26.7650  -23.9285   23.2020 C   0  0  0  0  0  0  0  0  0  0  0  0
  -24.7440  -32.4500   22.2078 C   0  0  0  0  0  0  0  0  0  0  0  0
  -21.9411  -31.1942   21.1642 C   0  0  0  0  0  0  0  0  0  0  0  0
  -20.3570  -27.9527   21.1341 C   0  0  0  0  0  0  0  0  0  0  0  0
  -28.9301  -16.9497   20.7210 C   0  0  0  0  0  0  0  0  0  0  0  0
  -26.9891  -37.0338   22.2832 C   0  0  0  0  0  0  0  0  0  0  0  0
  -25.5209  -31.0094   20.2903 C   0  0  0  0  0  0  0  0  0  0  0  0
  -23.6445  -29.5628   22.0599 C   0  0  0  0  0  0  0  0  0  0  0  0
  -27.2358  -24.1276   25.6315 C   0  0  0  0  0  0  0  0  0  0  0  0
  -25.5513  -36.5230   22.2373 C   0  0  0  0  0  0  0  0  0  0  0  0
  -28.4372  -23.5364   26.3620 C   0  0  0  0  0  0  0  0  0  0  0  0
  -29.3577  -14.0582   18.6879 C   0  0  0  0  0  0  0  0  0  0  0  0
  -25.3296  -35.4560   23.3047 C   0  0  0  0  0  0  0  0  0  0  0  0
  -28.1684  -13.1715   19.0639 C   0  0  0  0  0  0  0  0  0  0  0  0
  -28.5301  -22.0955   25.8535 C   0  0  0  0  0  0  0  0  0  0  0  0
  -29.9035  -14.8173   19.8960 C   0  0  0  0  0  0  0  0  0  0  0  0
  -27.7158  -14.7025   21.0230 C   0  0  0  0  0  0  0  0  0  0  0  0
  -26.2381  -34.2433   23.0695 C   0  0  1  0  0  0  0  0  0  0  0  0
  -24.3450  -31.7131   20.9607 C   0  0  1  0  0  0  0  0  0  0  0  0
  -27.0908  -13.9674   19.8261 C   0  0  2  0  0  0  0  0  0  0  0  0
  -26.7782  -23.1943   21.8924 C   0  0  0  0  0  0  0  0  0  0  0  0
  -18.6452  -26.9878   19.5733 C   0  0  0  0  0  0  0  0  0  0  0  0
  -19.9236  -32.1902   23.2253 C   0  0  0  0  0  0  0  0  0  0  0  0
  -18.5901  -30.1099   22.8225 C   0  0  0  0  0  0  0  0  0  0  0  0
  -18.9627  -31.7301   20.9627 C   0  0  0  0  0  0  0  0  0  0  0  0
  -22.0631  -25.6127   20.5237 C   0  0  0  0  0  0  0  0  0  0  0  0
  -26.1527  -25.3007   23.2041 C   0  0  0  0  0  0  0  0  0  1  0  0
  -20.8852  -30.2945   21.7598 C   0  0  1  0  0  0  0  0  0  0  0  0
  -20.1230  -27.0669   19.9238 C   0  0  2  0  0  0  0  0  0  0  0  0
  -19.6176  -31.0796   22.2007 C   0  0  0  0  0  0  0  0  0  0  0  0
  -26.1679  -11.7964   20.5446 N   0  0  0  0  0  0  0  0  0  0  0  0
  -25.9299  -13.0844   20.2438 N   0  0  0  0  0  0  0  0  0  0  0  0
  -27.9214  -22.1723   24.5197 N   0  0  0  0  0  0  0  0  0  0  0  0
  -23.2724  -30.7892   21.3353 N   0  0  0  0  0  0  0  0  0  0  0  0
  -28.8274  -15.5511   20.5656 N   0  0  0  0  0  0  0  0  0  0  0  0
  -24.2057  -14.7017   20.0944 N   0  0  0  0  0  0  0  0  0  0  0  0
  -21.7014  -11.8550   19.9538 N   0  0  0  0  0  0  0  0  0  0  0  0
  -27.8321  -17.5429   21.3431 N   0  0  0  0  0  0  0  0  0  0  0  0
  -25.7113  -33.4158   22.0055 N   0  0  0  0  0  0  0  0  0  0  0  0
  -20.6294  -29.2543   20.7694 N   0  0  0  0  0  0  0  0  0  0  0  0
  -20.6176  -25.6863   20.1889 N   0  3  0  0  0  0  0  0  0  0  0  0
  -22.0490  -12.4474   22.1417 O   0  0  0  0  0  0  0  0  0  0  0  0
  -24.2125  -32.1645   23.2744 O   0  0  0  0  0  0  0  0  0  0  0  0
  -21.5969  -32.2149   20.5631 O   0  0  0  0  0  0  0  0  0  0  0  0
  -20.3001  -27.5329   22.2878 O   0  0  0  0  0  0  0  0  0  0  0  0
  -29.9072  -17.5786   20.3065 O   0  0  0  0  0  0  0  0  0  0  0  0
  -24.3116   -5.9840   22.3674 O   0  0  0  0  0  0  0  0  0  0  0  0
  -27.1603  -26.2740   22.9324 O   0  0  0  0  0  0  0  0  0  1  0  0
  -19.5778   -4.5692   24.8155 F   0  0  0  0  0  0  0  0  0  0  0  0
  -24.2976   -4.9150   24.9168 F   0  0  0  0  0  0  0  0  0  0  0  0
  -25.1333  -18.4111   22.4637 Cl  0  0  0  0  0  0  0  0  0  0  0  0
  1  2  1  0  0  0  0
  1  5  2  0  0  0  0
  2  6  2  0  0  0  0
  3 10  2  0  0  0  0
  3 18  1  0  0  0  0
  4 11  1  0  0  0  0
  4 18  2  0  0  0  0
  5 20  1  0  0  0  0
  6 22  1  0  0  0  0
  7 12  2  0  0  0  0
  7 21  1  0  0  0  0
  8  9  2  0  0  0  0
  8 24  1  0  0  0  0
  9 25  1  0  0  0  0
 10 26  1  0  0  0  0
 11 26  2  0  0  0  0
 12 27  1  0  0  0  0
 13 14  2  0  0  0  0
 13 28  1  0  0  0  0
 14 29  1  0  0  0  0
 15 23  1  0  0  0  0
 15 27  2  0  0  0  0
 16 24  2  0  0  0  0
 16 31  1  0  0  0  0
 17 29  2  0  0  0  0
 17 30  1  0  0  0  0
 18 32  1  0  0  0  0
 19 32  1  0  0  0  0
 19 33  2  0  0  0  0
 19 35  1  0  0  0  0
 20 22  2  0  0  0  0
 20 41  1  0  0  0  0
 21 23  2  0  0  0  0
 21 42  1  0  0  0  0
 22 53  1  0  0  0  0
 23 43  1  0  0  0  0
 24 68  1  0  0  0  0
 25 31  2  0  0  0  0
 25 73  1  0  0  0  0
 26 82  1  0  0  0  0
 27 83  1  0  0  0  0
 28 30  2  0  0  0  0
 28 82  1  0  0  0  0
 29 84  1  0  0  0  0
 30 85  1  0  0  0  0
 31 86  1  0  0  0  0
 32 66  2  0  0  0  0
 33 67  1  0  0  0  0
 33 71  1  0  0  0  0
 34 36  2  0  0  0  0
 34 44  1  0  0  0  0
 34 68  1  0  0  0  0
 35 72  1  0  0  0  0
 35 77  2  0  0  0  0
 36 56  1  0  0  0  0
 36 62  1  0  0  0  0
 37 54  1  0  0  0  0
 37 74  1  0  0  0  0
 37 78  2  0  0  0  0
 38 63  1  0  0  0  0
 38 69  1  0  0  0  0
 38 79  2  0  0  0  0
 39 64  1  0  0  0  0
 39 75  1  0  0  0  0
 39 80  2  0  0  0  0
 40 70  1  0  0  0  0
 40 73  1  0  0  0  0
 40 81  2  0  0  0  0
 41 45  1  0  0  0  0
 42 54  1  0  0  0  0
 43 69  1  0  0  0  0
 44 46  1  0  0  0  0
 45 48  1  0  0  0  0
 46 50  1  0  0  0  0
 47 49  1  0  0  0  0
 47 51  1  0  0  0  0
 48 53  1  0  0  0  0
 49 55  1  0  0  0  0
 50 68  1  0  0  0  0
 51 70  1  0  0  0  0
 52 55  1  0  0  0  0
 52 70  1  0  0  0  0
 53 74  1  0  0  0  0
 54 69  1  0  0  0  0
 55 67  1  0  0  0  0
 57 64  1  0  0  0  0
 58 65  1  0  0  0  0
 59 65  1  0  0  0  0
 60 65  1  0  0  0  0
 61 76  1  0  0  0  0
 62 83  1  0  0  0  0
 63 65  1  0  0  0  0
 63 75  1  0  0  0  0
 64 76  1  0  0  0  0
 66 67  1  0  0  0  0
M  CHG  1  76   1
M  ISO  4  40 100  62 101  73 100  83 101
M  END
> <Batch ID>
0023

> <Smiles>
CNC(C)C(=O)NC(C(=O)N1Cc2cc([101O:1][101CH2:1]C(C)=C3CCCN3c3ccc([100NH:0][100C:0](=O)N4CCCC(n5nc(-c6ccc(Oc7ccc(F)cc7F)cc6)c(C(N)=O)c5N)C4)c(Cl)c3)ccc2CC1C(=O)NC1CCCc2ccccc21)C(C)(C)C

> <Shape>
0.256

> <Color>
0.108

> <Negative vol penalty>
0.000

$$$$

  -OEChem-04042321173D

 87 96  0     1  0  0  0  0  0999 V2000
  -26.0433  -37.5764   20.4861 C   0  0  0  0  0  0  0  0  0  0  0  0
  -26.7033  -36.3915   20.1768 C   0  0  0  0  0  0  0  0  0  0  0  0
  -22.1394  -12.0576   20.8931 C   0  0  0  0  0  0  0  0  0  0  0  0
  -24.3688  -12.7148   21.5525 C   0  0  0  0  0  0  0  0  0  0  0  0
  -25.1570  -37.6191   21.5615 C   0  0  0  0  0  0  0  0  0  0  0  0
  -26.4782  -35.2487   20.9435 C   0  0  0  0  0  0  0  0  0  0  0  0
  -26.3859  -29.4515   18.9713 C   0  0  0  0  0  0  0  0  0  0  0  0
  -27.7394  -21.6393   17.5024 C   0  0  0  0  0  0  0  0  0  0  0  0
  -26.4646  -21.1633   17.8089 C   0  0  0  0  0  0  0  0  0  0  0  0
  -22.5952  -10.7637   20.6412 C   0  0  0  0  0  0  0  0  0  0  0  0
  -24.8247  -11.4208   21.3006 C   0  0  0  0  0  0  0  0  0  0  0  0
  -27.3434  -28.4383   18.9919 C   0  0  0  0  0  0  0  0  0  0  0  0
  -23.3653   -8.0011   22.4323 C   0  0  0  0  0  0  0  0  0  0  0  0
  -22.5942   -6.9388   22.9039 C   0  0  0  0  0  0  0  0  0  0  0  0
  -26.3737  -27.5713   21.0234 C   0  0  0  0  0  0  0  0  0  0  0  0
  -27.3451  -20.0722   19.7765 C   0  0  0  0  0  0  0  0  0  0  0  0
  -22.3257   -6.1299   20.6432 C   0  0  0  0  0  0  0  0  0  0  0  0
  -23.0262  -13.0332   21.3487 C   0  0  0  0  0  0  0  0  0  0  0  0
  -22.0493  -14.8722   22.8222 C   0  0  0  0  0  0  0  0  0  0  0  0
  -24.9135  -36.4738   22.3358 C   0  0  0  0  0  0  0  0  0  0  0  0
  -25.4201  -29.5387   19.9843 C   0  0  0  0  0  0  0  0  0  0  0  0
  -25.5888  -35.2765   22.0311 C   0  0  0  0  0  0  0  0  0  0  0  0
  -25.4034  -28.5850   21.0120 C   0  0  0  0  0  0  0  0  0  0  0  0
  -28.8171  -21.3316   18.3329 C   0  0  0  0  0  0  0  0  0  0  0  0
  -26.2674  -20.3798   18.9460 C   0  0  0  0  0  0  0  0  0  0  0  0
  -23.9379  -10.4452   20.8449 C   0  0  0  0  0  0  0  0  0  0  0  0
  -27.3392  -27.4998   20.0196 C   0  0  0  0  0  0  0  0  0  0  0  0
  -23.6166   -8.1279   21.0661 C   0  0  0  0  0  0  0  0  0  0  0  0
  -22.0744   -6.0032   22.0094 C   0  0  0  0  0  0  0  0  0  0  0  0
  -28.6199  -20.5481   19.4700 C   0  0  0  0  0  0  0  0  0  0  0  0
  -23.0968   -7.1923   20.1716 C   0  0  0  0  0  0  0  0  0  0  0  0
  -22.5560  -14.3702   21.6086 C   0  0  0  0  0  0  0  0  0  0  0  0
  -21.7440  -16.1835   22.5506 C   0  0  0  0  0  0  0  0  0  0  0  0
  -31.6452  -23.7898   18.2773 C   0  0  0  0  0  0  0  0  0  0  0  0
  -32.8758  -23.2989   18.0896 C   0  0  0  0  0  0  0  0  0  0  0  0
  -21.8706  -14.2123   24.0825 C   0  0  0  0  0  0  0  0  0  0  0  0
  -24.6746  -31.7000   22.1926 C   0  0  0  0  0  0  0  0  0  0  0  0
  -22.1847  -29.6977   22.7528 C   0  0  0  0  0  0  0  0  0  0  0  0
  -20.9039  -26.5408   22.5527 C   0  0  0  0  0  0  0  0  0  0  0  0
  -23.7968  -20.1058   18.5372 C   0  0  0  0  0  0  0  0  0  0  0  0
  -23.9826  -36.5809   23.5176 C   0  0  0  0  0  0  0  0  0  0  0  0
  -24.3776  -30.6218   19.9332 C   0  0  0  0  0  0  0  0  0  0  0  0
  -24.3754  -28.6226   22.1121 C   0  0  0  0  0  0  0  0  0  0  0  0
  -31.2423  -25.2201   18.1035 C   0  0  0  0  0  0  0  0  0  0  0  0
  -23.5156  -35.2284   24.0497 C   0  0  0  0  0  0  0  0  0  0  0  0
  -20.4210  -19.0524   18.9515 C   0  0  0  0  0  0  0  0  0  0  0  0
  -24.6958  -34.2715   24.1848 C   0  0  0  0  0  0  0  0  0  0  0  0
  -20.5389  -17.7812   19.7955 C   0  0  0  0  0  0  0  0  0  0  0  0
  -21.5680  -19.1767   17.9502 C   0  0  0  0  0  0  0  0  0  0  0  0
  -23.0307  -17.7975   19.3741 C   0  0  0  0  0  0  0  0  0  0  0  0
  -29.4889  -23.9740   19.1564 C   0  0  0  0  0  0  0  0  0  0  0  0
  -25.3522  -34.0094   22.8240 C   0  0  1  0  0  0  0  0  0  0  0  0
  -23.7573  -30.9188   21.2949 C   0  0  1  0  0  0  0  0  0  0  0  0
  -30.1842  -25.3324   19.1953 C   0  0  2  0  0  0  0  0  0  0  0  0
  -21.9329  -17.6611   20.4418 C   0  0  2  0  0  0  0  0  0  0  0  0
  -33.2384  -21.8638   18.2734 C   0  0  0  0  0  0  0  0  0  0  0  0
  -18.8589  -25.2046   23.1270 C   0  0  0  0  0  0  0  0  0  0  0  0
  -23.0295  -29.6695   25.6847 C   0  0  0  0  0  0  0  0  0  0  0  0
  -21.5972  -27.6412   26.0056 C   0  0  0  0  0  0  0  0  0  0  0  0
  -20.5601  -29.8012   25.3118 C   0  0  0  0  0  0  0  0  0  0  0  0
  -20.4095  -25.8608   19.7151 C   0  0  0  0  0  0  0  0  0  0  0  0
  -30.1863  -21.8471   18.0007 C   0  0  0  0  0  0  0  0  0  0  0  0
  -29.2277  -26.4934   18.9818 C   0  0  0  0  0  0  0  0  0  1  0  0
  -21.9531  -28.5042   23.6477 C   0  0  1  0  0  0  0  0  0  0  0  0
  -19.5634  -26.0270   22.0593 C   0  0  2  0  0  0  0  0  0  0  0  0
  -21.8057  -28.9042   25.1429 C   0  0  0  0  0  0  0  0  0  0  0  0
  -22.5731  -15.2877   20.6381 N   0  0  0  0  0  0  0  0  0  0  0  0
  -22.0733  -16.3795   21.2417 N   0  0  0  0  0  0  0  0  0  0  0  0
  -23.3810  -29.7044   22.0215 N   0  0  0  0  0  0  0  0  0  0  0  0
  -22.8573  -19.0576   18.6347 N   0  0  0  0  0  0  0  0  0  0  0  0
  -21.2287  -17.1765   23.3061 N   0  0  0  0  0  0  0  0  0  0  0  0
  -22.2361  -12.8634   24.1881 N   0  0  0  0  0  0  0  0  0  0  0  0
  -24.9728  -19.8947   19.2563 N   0  0  0  0  0  0  0  0  0  0  0  0
  -24.5637  -33.0705   22.0550 N   0  0  0  0  0  0  0  0  0  0  0  0
  -20.7975  -27.8018   23.1003 N   0  0  0  0  0  0  0  0  0  0  0  0
  -30.6143  -22.9846   18.8776 N   0  3  1  0  0  0  0  0  0  0  0  0
  -19.7487  -25.1715   20.8532 N   0  3  0  0  0  0  0  0  0  0  0  0
  -21.3854  -14.7968   25.0807 O   0  0  0  0  0  0  0  0  0  0  0  0
  -25.4263  -31.1036   22.9548 O   0  0  0  0  0  0  0  0  0  0  0  0
  -21.3323  -30.5878   22.6991 O   0  0  0  0  0  0  0  0  0  0  0  0
  -21.9411  -25.8872   22.4649 O   0  0  0  0  0  0  0  0  0  0  0  0
  -23.5633  -21.1282   17.8875 O   0  0  0  0  0  0  0  0  0  0  0  0
  -24.3830   -9.1826   20.5994 O   0  0  0  0  0  0  0  0  0  0  0  0
  -28.2731  -26.5103   20.0425 O   0  0  0  0  0  0  0  0  0  1  0  0
  -21.3352   -4.9823   22.4627 F   0  0  0  0  0  0  0  0  0  0  0  0
  -29.6491  -20.2472   20.2741 F   0  0  0  0  0  0  0  0  0  0  0  0
  -23.3359   -7.3082   18.8581 F   0  0  0  0  0  0  0  0  0  0  0  0
  1  2  1  0  0  0  0
  1  5  2  0  0  0  0
  2  6  2  0  0  0  0
  3 10  2  0  0  0  0
  3 18  1  0  0  0  0
  4 11  1  0  0  0  0
  4 18  2  0  0  0  0
  5 20  1  0  0  0  0
  6 22  1  0  0  0  0
  7 12  2  0  0  0  0
  7 21  1  0  0  0  0
  8  9  2  0  0  0  0
  8 24  1  0  0  0  0
  9 25  1  0  0  0  0
 10 26  1  0  0  0  0
 11 26  2  0  0  0  0
 12 27  1  0  0  0  0
 13 14  2  0  0  0  0
 13 28  1  0  0  0  0
 14 29  1  0  0  0  0
 15 23  1  0  0  0  0
 15 27  2  0  0  0  0
 16 25  2  0  0  0  0
 16 30  1  0  0  0  0
 17 29  2  0  0  0  0
 17 31  1  0  0  0  0
 18 32  1  0  0  0  0
 19 32  1  0  0  0  0
 19 33  2  0  0  0  0
 19 36  1  0  0  0  0
 20 22  2  0  0  0  0
 20 41  1  0  0  0  0
 21 23  2  0  0  0  0
 21 42  1  0  0  0  0
 22 52  1  0  0  0  0
 23 43  1  0  0  0  0
 24 30  2  0  0  0  0
 24 62  1  0  0  0  0
 25 73  1  0  0  0  0
 26 83  1  0  0  0  0
 27 84  1  0  0  0  0
 28 31  2  0  0  0  0
 28 83  1  0  0  0  0
 29 85  1  0  0  0  0
 30 86  1  0  0  0  0
 31 87  1  0  0  0  0
 32 67  2  0  0  0  0
 33 68  1  0  0  0  0
 33 71  1  0  0  0  0
 34 35  2  0  0  0  0
 34 44  1  0  0  0  0
 34 76  1  0  0  0  0
 35 56  1  0  0  0  0
 36 72  1  0  0  0  0
 36 78  2  0  0  0  0
 37 53  1  0  0  0  0
 37 74  1  0  0  0  0
 37 79  2  0  0  0  0
 38 64  1  0  0  0  0
 38 69  1  0  0  0  0
 38 80  2  0  0  0  0
 39 65  1  0  0  0  0
 39 75  1  0  0  0  0
 39 81  2  0  0  0  0
 40 70  1  0  0  0  0
 40 73  1  0  0  0  0
 40 82  2  0  0  0  0
 41 45  1  0  0  0  0
 42 53  1  0  0  0  0
 43 69  1  0  0  0  0
 44 54  1  0  0  0  0
 45 47  1  0  0  0  0
 46 48  1  0  0  0  0
 46 49  1  0  0  0  0
 47 52  1  0  0  0  0
 48 55  1  0  0  0  0
 49 70  1  0  0  0  0
 50 55  1  0  0  0  0
 50 70  1  0  0  0  0
 51 54  1  0  0  0  0
 51 76  1  0  0  0  0
 52 74  1  0  0  0  0
 53 69  1  0  0  0  0
 54 63  1  0  0  0  0
 55 68  1  0  0  0  0
 57 65  1  0  0  0  0
 58 66  1  0  0  0  0
 59 66  1  0  0  0  0
 60 66  1  0  0  0  0
 61 77  1  0  0  0  0
 62 76  1  0  0  0  0
 63 84  1  0  0  0  0
 64 66  1  0  0  0  0
 64 75  1  0  0  0  0
 65 77  1  0  0  0  0
 67 68  1  0  0  0  0
M  CHG  2  76   1  77   1
M  ISO  4  40 100  63 101  73 100  84 101
M  END
> <Batch ID>
0023

> <Smiles>
CC=C1CC([101CH2:1][101O:1]c2ccc3c(c2)CN(C(=O)C(NC(=O)C(C)NC)C(C)(C)C)C(C(=O)NC2CCCc4ccccc42)C3)CN1Cc1ccc([100NH:0][100C:0](=O)N2CCCC(n3nc(-c4ccc(Oc5ccc(F)cc5F)cc4)c(C(N)=O)c3N)C2)cc1F

> <Shape>
0.276

> <Color>
0.058

> <Negative vol penalty>
0.000

$$$$

  -OEChem-04042321173D

 85 94  0     1  0  0  0  0  0999 V2000
  -17.2705  -24.6220   25.0420 C   0  0  0  0  0  0  0  0  0  0  0  0
  -18.4944  -24.2351   25.5784 C   0  0  0  0  0  0  0  0  0  0  0  0
  -23.0495   -9.8911   19.9195 C   0  0  0  0  0  0  0  0  0  0  0  0
  -23.8245   -9.8700   22.2078 C   0  0  0  0  0  0  0  0  0  0  0  0
  -17.2114  -25.1512   23.7534 C   0  0  0  0  0  0  0  0  0  0  0  0
  -19.6599  -24.3761   24.8260 C   0  0  0  0  0  0  0  0  0  0  0  0
  -26.6495  -25.7597   25.5663 C   0  0  0  0  0  0  0  0  0  0  0  0
  -31.3726  -19.0301   20.6129 C   0  0  0  0  0  0  0  0  0  0  0  0
  -31.1919  -17.6471   20.5961 C   0  0  0  0  0  0  0  0  0  0  0  0
  -22.2981   -8.7416   20.1634 C   0  0  0  0  0  0  0  0  0  0  0  0
  -23.0730   -8.7205   22.4517 C   0  0  0  0  0  0  0  0  0  0  0  0
  -27.8937  -25.2405   25.2113 C   0  0  0  0  0  0  0  0  0  0  0  0
  -19.8425   -7.9427   23.0680 C   0  0  0  0  0  0  0  0  0  0  0  0
  -19.0930   -7.8976   24.2434 C   0  0  0  0  0  0  0  0  0  0  0  0
  -27.6810  -26.2405   23.0264 C   0  0  0  0  0  0  0  0  0  0  0  0
  -29.7551  -19.2198   22.3975 C   0  0  0  0  0  0  0  0  0  0  0  0
  -20.3236   -5.9433   24.9531 C   0  0  0  0  0  0  0  0  0  0  0  0
  -23.8128  -10.4553   20.9417 C   0  0  0  0  0  0  0  0  0  0  0  0
  -24.1741  -12.9787   20.8435 C   0  0  0  0  0  0  0  0  0  0  0  0
  -18.3780  -25.3077   22.9885 C   0  0  0  0  0  0  0  0  0  0  0  0
  -25.9055  -26.5154   24.6487 C   0  0  0  0  0  0  0  0  0  0  0  0
  -19.6163  -24.9066   23.5255 C   0  0  0  0  0  0  0  0  0  0  0  0
  -26.4287  -26.7704   23.3730 C   0  0  0  0  0  0  0  0  0  0  0  0
  -30.6543  -19.8165   21.5137 C   0  0  0  0  0  0  0  0  0  0  0  0
  -30.2927  -17.0505   21.4799 C   0  0  0  0  0  0  0  0  0  0  0  0
  -22.3098   -8.1563   21.4295 C   0  0  0  0  0  0  0  0  0  0  0  0
  -28.4084  -25.4784   23.9402 C   0  0  0  0  0  0  0  0  0  0  0  0
  -20.8326   -6.9881   22.8350 C   0  0  0  0  0  0  0  0  0  0  0  0
  -19.3335   -6.8979   25.1860 C   0  0  0  0  0  0  0  0  0  0  0  0
  -29.5743  -17.8368   22.3806 C   0  0  0  0  0  0  0  0  0  0  0  0
  -21.0731   -5.9884   23.7776 C   0  0  0  0  0  0  0  0  0  0  0  0
  -24.5897  -11.6424   20.6902 C   0  0  0  0  0  0  0  0  0  0  0  0
  -25.2699  -13.7229   20.4801 C   0  0  0  0  0  0  0  0  0  0  0  0
  -30.1904  -22.1551   22.3765 C   0  0  0  0  0  0  0  0  0  0  0  0
  -22.9106  -13.5006   21.2757 C   0  0  0  0  0  0  0  0  0  0  0  0
  -23.0714  -26.1863   23.2475 C   0  0  0  0  0  0  0  0  0  0  0  0
  -23.7161  -29.1608   22.1256 C   0  0  0  0  0  0  0  0  0  0  0  0
  -26.0570  -31.5169   21.3409 C   0  0  0  0  0  0  0  0  0  0  0  0
  -30.7453  -14.7231   20.6285 C   0  0  0  0  0  0  0  0  0  0  0  0
  -18.2583  -25.8405   21.5826 C   0  0  0  0  0  0  0  0  0  0  0  0
  -24.5769  -27.0909   25.0561 C   0  0  0  0  0  0  0  0  0  0  0  0
  -25.6787  -27.5925   22.3581 C   0  0  0  0  0  0  0  0  0  0  0  0
  -19.5871  -26.3051   20.9921 C   0  0  0  0  0  0  0  0  0  0  0  0
  -29.5960  -12.3411   18.2448 C   0  0  0  0  0  0  0  0  0  0  0  0
  -20.6763  -25.2680   21.2470 C   0  0  0  0  0  0  0  0  0  0  0  0
  -28.1569  -12.0569   18.6811 C   0  0  0  0  0  0  0  0  0  0  0  0
  -31.3951  -23.3535   20.7100 C   0  0  0  0  0  0  0  0  0  0  0  0
  -30.5208  -12.5510   19.4425 C   0  0  0  0  0  0  0  0  0  0  0  0
  -31.8016  -21.8939   20.6707 C   0  0  0  0  0  0  0  0  0  0  0  0
  -28.6288  -13.2774   20.8432 C   0  0  0  0  0  0  0  0  0  0  0  0
  -20.9057  -25.0670   22.7498 C   0  0  1  0  0  0  0  0  0  0  0  0
  -30.8157  -23.5145   22.1080 C   0  0  1  0  0  0  0  0  0  0  0  0
  -23.6760  -27.4139   23.8681 C   0  0  1  0  0  0  0  0  0  0  0  0
  -27.6469  -13.1232   19.6703 C   0  0  2  0  0  0  0  0  0  0  0  0
  -26.2823  -33.8358   20.4083 C   0  0  0  0  0  0  0  0  0  0  0  0
  -23.1873  -28.0818   19.3210 C   0  0  0  0  0  0  0  0  0  0  0  0
  -24.3266  -30.1122   18.4005 C   0  0  0  0  0  0  0  0  0  0  0  0
  -22.2478  -30.3581   19.7573 C   0  0  0  0  0  0  0  0  0  0  0  0
  -27.3110  -32.5200   23.8269 C   0  0  0  0  0  0  0  0  0  0  0  0
  -29.8225  -24.6564   22.2138 C   0  0  0  0  0  0  0  0  0  1  0  0
  -24.4077  -29.7160   20.9040 C   0  0  1  0  0  0  0  0  0  0  0  0
  -26.1466  -32.9964   21.6692 C   0  0  2  0  0  0  0  0  0  0  0  0
  -23.5558  -29.5499   19.6139 C   0  0  0  0  0  0  0  0  0  0  0  0
  -25.8510  -11.5405   20.2627 N   0  0  0  0  0  0  0  0  0  0  0  0
  -26.2374  -12.8222   20.1441 N   0  0  0  0  0  0  0  0  0  0  0  0
  -30.8387  -21.2316   21.5307 N   0  0  0  0  0  0  0  0  0  0  0  0
  -24.3811  -28.1282   22.8018 N   0  0  0  0  0  0  0  0  0  0  0  0
  -29.9759  -13.5778   20.3333 N   0  0  0  0  0  0  0  0  0  0  0  0
  -25.4905  -15.0532   20.4184 N   0  0  0  0  0  0  0  0  0  0  0  0
  -21.8936  -12.5963   21.6110 N   0  0  0  0  0  0  0  0  0  0  0  0
  -30.1108  -15.6454   21.4600 N   0  0  0  0  0  0  0  0  0  0  0  0
  -21.6906  -26.1556   23.2913 N   0  0  0  0  0  0  0  0  0  0  0  0
  -24.7486  -31.0987   21.2209 N   0  0  0  0  0  0  0  0  0  0  0  0
  -27.3257  -33.2631   22.5406 N   0  3  0  0  0  0  0  0  0  0  0  0
  -29.3346  -21.9686   23.2293 O   0  0  0  0  0  0  0  0  0  0  0  0
  -22.6846  -14.7324   21.3464 O   0  0  0  0  0  0  0  0  0  0  0  0
  -23.8034  -25.3310   22.7634 O   0  0  0  0  0  0  0  0  0  0  0  0
  -22.6294  -29.6311   22.4715 O   0  0  0  0  0  0  0  0  0  0  0  0
  -27.0486  -30.8045   21.2009 O   0  0  0  0  0  0  0  0  0  0  0  0
  -31.8726  -14.8873   20.1551 O   0  0  0  0  0  0  0  0  0  0  0  0
  -21.5764   -7.0347   21.6679 O   0  0  0  0  0  0  0  0  0  0  0  0
  -29.6223  -24.9722   23.5909 O   0  0  0  0  0  0  0  0  0  1  0  0
  -18.6147   -6.8556   26.3155 F   0  0  0  0  0  0  0  0  0  0  0  0
  -28.7062  -17.2744   23.2337 F   0  0  0  0  0  0  0  0  0  0  0  0
  -22.0237   -5.0693   23.5599 F   0  0  0  0  0  0  0  0  0  0  0  0
  1  2  1  0  0  0  0
  1  5  2  0  0  0  0
  2  6  2  0  0  0  0
  3 10  2  0  0  0  0
  3 18  1  0  0  0  0
  4 11  1  0  0  0  0
  4 18  2  0  0  0  0
  5 20  1  0  0  0  0
  6 22  1  0  0  0  0
  7 12  2  0  0  0  0
  7 21  1  0  0  0  0
  8  9  2  0  0  0  0
  8 24  1  0  0  0  0
  9 25  1  0  0  0  0
 10 26  1  0  0  0  0
 11 26  2  0  0  0  0
 12 27  1  0  0  0  0
 13 14  2  0  0  0  0
 13 28  1  0  0  0  0
 14 29  1  0  0  0  0
 15 23  1  0  0  0  0
 15 27  2  0  0  0  0
 16 24  2  0  0  0  0
 16 30  1  0  0  0  0
 17 29  2  0  0  0  0
 17 31  1  0  0  0  0
 18 32  1  0  0  0  0
 19 32  1  0  0  0  0
 19 33  2  0  0  0  0
 19 35  1  0  0  0  0
 20 22  2  0  0  0  0
 20 40  1  0  0  0  0
 21 23  2  0  0  0  0
 21 41  1  0  0  0  0
 22 51  1  0  0  0  0
 23 42  1  0  0  0  0
 24 66  1  0  0  0  0
 25 30  2  0  0  0  0
 25 71  1  0  0  0  0
 26 81  1  0  0  0  0
 27 82  1  0  0  0  0
 28 31  2  0  0  0  0
 28 81  1  0  0  0  0
 29 83  1  0  0  0  0
 30 84  1  0  0  0  0
 31 85  1  0  0  0  0
 32 64  2  0  0  0  0
 33 65  1  0  0  0  0
 33 69  1  0  0  0  0
 34 52  1  0  0  0  0
 34 66  1  0  0  0  0
 34 75  2  0  0  0  0
 35 70  1  0  0  0  0
 35 76  2  0  0  0  0
 36 53  1  0  0  0  0
 36 72  1  0  0  0  0
 36 77  2  0  0  0  0
 37 61  1  0  0  0  0
 37 67  1  0  0  0  0
 37 78  2  0  0  0  0
 38 62  1  0  0  0  0
 38 73  1  0  0  0  0
 38 79  2  0  0  0  0
 39 68  1  0  0  0  0
 39 71  1  0  0  0  0
 39 80  2  0  0  0  0
 40 43  1  0  0  0  0
 41 53  1  0  0  0  0
 42 67  1  0  0  0  0
 43 45  1  0  0  0  0
 44 46  1  0  0  0  0
 44 48  1  0  0  0  0
 45 51  1  0  0  0  0
 46 54  1  0  0  0  0
 47 49  1  0  0  0  0
 47 52  1  0  0  0  0
 48 68  1  0  0  0  0
 49 66  1  0  0  0  0
 50 54  1  0  0  0  0
 50 68  1  0  0  0  0
 51 72  1  0  0  0  0
 52 60  1  0  0  0  0
 53 67  1  0  0  0  0
 54 65  1  0  0  0  0
 55 62  1  0  0  0  0
 56 63  1  0  0  0  0
 57 63  1  0  0  0  0
 58 63  1  0  0  0  0
 59 74  1  0  0  0  0
 60 82  1  0  0  0  0
 61 63  1  0  0  0  0
 61 73  1  0  0  0  0
 62 74  1  0  0  0  0
 64 65  1  0  0  0  0
M  CHG  1  74   1
M  ISO  4  39 100  60 101  71 100  82 101
M  END
> <Batch ID>
0023

> <Smiles>
CNC(C)C(=O)NC(C(=O)N1Cc2cc([101O:1][101CH2:1]C3CCN(c4ccc([100NH:0][100C:0](=O)N5CCCC(n6nc(-c7ccc(Oc8ccc(F)cc8F)cc7)c(C(N)=O)c6N)C5)c(F)c4)C3=O)ccc2CC1C(=O)NC1CCCc2ccccc21)C(C)(C)C

> <Shape>
0.296

> <Color>
0.195

> <Negative vol penalty>
0.000

$$$$

  -OEChem-04042321173D

 84 93  0     1  0  0  0  0  0999 V2000
  -19.7250  -26.2255   26.3256 C   0  0  0  0  0  0  0  0  0  0  0  0
  -21.0215  -26.0377   25.8575 C   0  0  0  0  0  0  0  0  0  0  0  0
  -23.9752  -10.4997   23.0751 C   0  0  0  0  0  0  0  0  0  0  0  0
  -23.8520  -12.1699   24.8165 C   0  0  0  0  0  0  0  0  0  0  0  0
  -18.7290  -26.6699   25.4570 C   0  0  0  0  0  0  0  0  0  0  0  0
  -21.3226  -26.2931   24.5201 C   0  0  0  0  0  0  0  0  0  0  0  0
  -26.5653  -28.5406   22.2911 C   0  0  0  0  0  0  0  0  0  0  0  0
  -30.0587  -20.3105   18.6008 C   0  0  0  0  0  0  0  0  0  0  0  0
  -30.0976  -19.2635   19.5217 C   0  0  0  0  0  0  0  0  0  0  0  0
  -23.3603   -9.5747   23.9187 C   0  0  0  0  0  0  0  0  0  0  0  0
  -23.2369  -11.2449   25.6601 C   0  0  0  0  0  0  0  0  0  0  0  0
  -27.6748  -27.9301   21.7080 C   0  0  0  0  0  0  0  0  0  0  0  0
  -21.4962   -6.8783   25.4903 C   0  0  0  0  0  0  0  0  0  0  0  0
  -20.4734   -6.0940   24.9570 C   0  0  0  0  0  0  0  0  0  0  0  0
  -26.7638  -28.3785   19.5198 C   0  0  0  0  0  0  0  0  0  0  0  0
  -27.8905  -20.9678   19.4398 C   0  0  0  0  0  0  0  0  0  0  0  0
  -19.2062   -8.0887   24.4541 C   0  0  0  0  0  0  0  0  0  0  0  0
  -24.2212  -11.7973   23.5240 C   0  0  0  0  0  0  0  0  0  0  0  0
  -24.2267  -13.6392   21.7590 C   0  0  0  0  0  0  0  0  0  0  0  0
  -19.0202  -26.9402   24.1106 C   0  0  0  0  0  0  0  0  0  0  0  0
  -25.5398  -29.0659   21.4918 C   0  0  0  0  0  0  0  0  0  0  0  0
  -20.3293  -26.7403   23.6324 C   0  0  0  0  0  0  0  0  0  0  0  0
  -25.6436  -28.9974   20.0952 C   0  0  0  0  0  0  0  0  0  0  0  0
  -28.9551  -21.1627   18.5599 C   0  0  0  0  0  0  0  0  0  0  0  0
  -29.0329  -19.0686   20.4015 C   0  0  0  0  0  0  0  0  0  0  0  0
  -22.9911   -9.9473   25.2112 C   0  0  0  0  0  0  0  0  0  0  0  0
  -27.7728  -27.8464   20.3222 C   0  0  0  0  0  0  0  0  0  0  0  0
  -21.3740   -8.2677   25.5055 C   0  0  0  0  0  0  0  0  0  0  0  0
  -19.3284   -6.6992   24.4389 C   0  0  0  0  0  0  0  0  0  0  0  0
  -27.9293  -19.9208   20.3606 C   0  0  0  0  0  0  0  0  0  0  0  0
  -20.2291   -8.8729   24.9874 C   0  0  0  0  0  0  0  0  0  0  0  0
  -24.8569  -12.7531   22.6532 C   0  0  0  0  0  0  0  0  0  0  0  0
  -25.2602  -14.3280   21.1726 C   0  0  0  0  0  0  0  0  0  0  0  0
  -22.8318  -13.8232   21.4832 C   0  0  0  0  0  0  0  0  0  0  0  0
  -22.4406  -28.4576   21.1332 C   0  0  0  0  0  0  0  0  0  0  0  0
  -22.5506  -31.0634   19.2044 C   0  0  0  0  0  0  0  0  0  0  0  0
  -24.4126  -33.1212   17.2182 C   0  0  0  0  0  0  0  0  0  0  0  0
  -30.0954  -17.0690   21.5055 C   0  0  0  0  0  0  0  0  0  0  0  0
  -17.9000  -27.3736   23.1985 C   0  0  0  0  0  0  0  0  0  0  0  0
  -24.3623  -29.7451   22.1358 C   0  0  0  0  0  0  0  0  0  0  0  0
  -24.5796  -29.5639   19.1922 C   0  0  0  0  0  0  0  0  0  0  0  0
  -18.3848  -27.9802   21.8842 C   0  0  0  0  0  0  0  0  0  0  0  0
  -30.2549  -13.5175   21.3081 C   0  0  0  0  0  0  0  0  0  0  0  0
  -19.4805  -27.1154   21.2692 C   0  0  0  0  0  0  0  0  0  0  0  0
  -28.8129  -13.0750   21.5669 C   0  0  0  0  0  0  0  0  0  0  0  0
  -30.6359  -14.7316   22.1534 C   0  0  0  0  0  0  0  0  0  0  0  0
  -28.2789  -15.4325   22.3042 C   0  0  0  0  0  0  0  0  0  0  0  0
  -29.2786  -24.1554   19.1112 C   0  0  0  0  0  0  0  0  0  0  0  0
  -29.5508  -24.6037   17.0890 C   0  0  0  0  0  0  0  0  0  0  0  0
  -20.7006  -27.0303   22.1943 C   0  0  1  0  0  0  0  0  0  0  0  0
  -23.1315  -29.7880   21.2355 C   0  0  1  0  0  0  0  0  0  0  0  0
  -29.6358  -25.4610   18.3696 C   0  0  0  0  0  0  0  0  0  0  0  0
  -27.8284  -14.2526   21.4276 C   0  0  2  0  0  0  0  0  0  0  0  0
  -24.2170  -35.1434   15.7451 C   0  0  0  0  0  0  0  0  0  0  0  0
  -21.2726  -29.3504   17.0268 C   0  0  0  0  0  0  0  0  0  0  0  0
  -21.9679  -31.0799   15.3554 C   0  0  0  0  0  0  0  0  0  0  0  0
  -20.3774  -31.6804   17.1809 C   0  0  0  0  0  0  0  0  0  0  0  0
  -26.2910  -34.6714   18.8997 C   0  0  0  0  0  0  0  0  0  0  0  0
  -28.9125  -22.2882   17.5688 C   0  0  0  0  0  0  0  0  0  0  0  0
  -28.6528  -26.6091   18.4917 C   0  0  0  0  0  0  0  0  0  1  0  0
  -22.8138  -31.2965   17.7363 C   0  0  1  0  0  0  0  0  0  0  0  0
  -24.5112  -34.6344   17.1476 C   0  0  2  0  0  0  0  0  0  0  0  0
  -21.6272  -30.8393   16.8416 C   0  0  0  0  0  0  0  0  0  0  0  0
  -26.1877  -12.8665   22.6394 N   0  0  0  0  0  0  0  0  0  0  0  0
  -26.4022  -13.8318   21.7293 N   0  0  0  0  0  0  0  0  0  0  0  0
  -23.4448  -30.2126   19.8696 N   0  0  0  0  0  0  0  0  0  0  0  0
  -29.6609  -15.8085   21.9673 N   0  0  0  0  0  0  0  0  0  0  0  0
  -25.2945  -15.3037   20.2403 N   0  0  0  0  0  0  0  0  0  0  0  0
  -21.9040  -13.0325   22.1748 N   0  0  0  0  0  0  0  0  0  0  0  0
  -29.0749  -18.0040   21.3356 N   0  0  0  0  0  0  0  0  0  0  0  0
  -21.4854  -28.2432   22.1084 N   0  0  0  0  0  0  0  0  0  0  0  0
  -23.1541  -32.7088   17.6018 N   0  0  0  0  0  0  0  0  0  0  0  0
  -29.7915  -23.4191   17.9379 N   0  3  0  0  0  0  0  0  0  0  0  0
  -25.8792  -35.0829   17.5329 N   0  3  0  0  0  0  0  0  0  0  0  0
  -22.4212  -14.6523   20.6362 O   0  0  0  0  0  0  0  0  0  0  0  0
  -22.7501  -27.6836   20.2349 O   0  0  0  0  0  0  0  0  0  0  0  0
  -21.5913  -31.6215   19.7429 O   0  0  0  0  0  0  0  0  0  0  0  0
  -25.3565  -32.3792   16.9555 O   0  0  0  0  0  0  0  0  0  0  0  0
  -31.2817  -17.2935   21.2517 O   0  0  0  0  0  0  0  0  0  0  0  0
  -22.3907   -9.0450   26.0346 O   0  0  0  0  0  0  0  0  0  0  0  0
  -28.8544  -27.2504   19.7504 O   0  0  0  0  0  0  0  0  0  1  0  0
  -18.3470   -5.9461   23.9254 F   0  0  0  0  0  0  0  0  0  0  0  0
  -26.8998  -19.7420   21.2006 F   0  0  0  0  0  0  0  0  0  0  0  0
  -20.1065  -10.2073   24.9983 F   0  0  0  0  0  0  0  0  0  0  0  0
  1  2  1  0  0  0  0
  1  5  2  0  0  0  0
  2  6  2  0  0  0  0
  3 10  2  0  0  0  0
  3 18  1  0  0  0  0
  4 11  1  0  0  0  0
  4 18  2  0  0  0  0
  5 20  1  0  0  0  0
  6 22  1  0  0  0  0
  7 12  2  0  0  0  0
  7 21  1  0  0  0  0
  8  9  2  0  0  0  0
  8 24  1  0  0  0  0
  9 25  1  0  0  0  0
 10 26  1  0  0  0  0
 11 26  2  0  0  0  0
 12 27  1  0  0  0  0
 13 14  2  0  0  0  0
 13 28  1  0  0  0  0
 14 29  1  0  0  0  0
 15 23  1  0  0  0  0
 15 27  2  0  0  0  0
 16 24  2  0  0  0  0
 16 30  1  0  0  0  0
 17 29  2  0  0  0  0
 17 31  1  0  0  0  0
 18 32  1  0  0  0  0
 19 32  1  0  0  0  0
 19 33  2  0  0  0  0
 19 34  1  0  0  0  0
 20 22  2  0  0  0  0
 20 39  1  0  0  0  0
 21 23  2  0  0  0  0
 21 40  1  0  0  0  0
 22 50  1  0  0  0  0
 23 41  1  0  0  0  0
 24 59  1  0  0  0  0
 25 30  2  0  0  0  0
 25 70  1  0  0  0  0
 26 80  1  0  0  0  0
 27 81  1  0  0  0  0
 28 31  2  0  0  0  0
 28 80  1  0  0  0  0
 29 82  1  0  0  0  0
 30 83  1  0  0  0  0
 31 84  1  0  0  0  0
 32 64  2  0  0  0  0
 33 65  1  0  0  0  0
 33 68  1  0  0  0  0
 34 69  1  0  0  0  0
 34 75  2  0  0  0  0
 35 51  1  0  0  0  0
 35 71  1  0  0  0  0
 35 76  2  0  0  0  0
 36 61  1  0  0  0  0
 36 66  1  0  0  0  0
 36 77  2  0  0  0  0
 37 62  1  0  0  0  0
 37 72  1  0  0  0  0
 37 78  2  0  0  0  0
 38 67  1  0  0  0  0
 38 70  1  0  0  0  0
 38 79  2  0  0  0  0
 39 42  1  0  0  0  0
 40 51  1  0  0  0  0
 41 66  1  0  0  0  0
 42 44  1  0  0  0  0
 43 45  1  0  0  0  0
 43 46  1  0  0  0  0
 44 50  1  0  0  0  0
 45 53  1  0  0  0  0
 46 67  1  0  0  0  0
 47 53  1  0  0  0  0
 47 67  1  0  0  0  0
 48 52  1  0  0  0  0
 48 73  1  0  0  0  0
 49 52  1  0  0  0  0
 49 73  1  0  0  0  0
 50 71  1  0  0  0  0
 51 66  1  0  0  0  0
 52 60  1  0  0  0  0
 53 65  1  0  0  0  0
 54 62  1  0  0  0  0
 55 63  1  0  0  0  0
 56 63  1  0  0  0  0
 57 63  1  0  0  0  0
 58 74  1  0  0  0  0
 59 73  1  0  0  0  0
 60 81  1  0  0  0  0
 61 63  1  0  0  0  0
 61 72  1  0  0  0  0
 62 74  1  0  0  0  0
 64 65  1  0  0  0  0
M  CHG  2  73   1  74   1
M  ISO  4  38 100  60 101  70 100  81 101
M  END
> <Batch ID>
0023

> <Smiles>
CNC(C)C(=O)NC(C(=O)N1Cc2cc([101O:1][101CH2:1]C3CN(Cc4ccc([100NH:0][100C:0](=O)N5CCCC(n6nc(-c7ccc(Oc8ccc(F)cc8F)cc7)c(C(N)=O)c6N)C5)c(F)c4)C3)ccc2CC1C(=O)NC1CCCc2ccccc21)C(C)(C)C

> <Shape>
0.257

> <Color>
0.130

> <Negative vol penalty>
0.000

$$$$

  -OEChem-04042321173D

 83 92  0     1  0  0  0  0  0999 V2000
  -30.4467  -33.3382   25.9211 C   0  0  0  0  0  0  0  0  0  0  0  0
  -30.2457  -32.1401   25.2434 C   0  0  0  0  0  0  0  0  0  0  0  0
  -24.6405   -9.1341   21.6692 C   0  0  0  0  0  0  0  0  0  0  0  0
  -23.6723  -10.9585   22.9226 C   0  0  0  0  0  0  0  0  0  0  0  0
  -29.3521  -34.0770   26.3683 C   0  0  0  0  0  0  0  0  0  0  0  0
  -28.9498  -31.6793   25.0133 C   0  0  0  0  0  0  0  0  0  0  0  0
  -26.9550  -28.5940   20.1136 C   0  0  0  0  0  0  0  0  0  0  0  0
  -24.0825   -8.2223   22.5652 C   0  0  0  0  0  0  0  0  0  0  0  0
  -23.1142  -10.0468   23.8186 C   0  0  0  0  0  0  0  0  0  0  0  0
  -26.7393  -27.2359   19.8843 C   0  0  0  0  0  0  0  0  0  0  0  0
  -22.6125   -5.3964   24.3168 C   0  0  0  0  0  0  0  0  0  0  0  0
  -21.9846   -4.2687   23.7878 C   0  0  0  0  0  0  0  0  0  0  0  0
  -24.4065  -27.5206   20.4284 C   0  0  0  0  0  0  0  0  0  0  0  0
  -26.2055  -20.5264   18.3410 C   0  0  0  0  0  0  0  0  0  0  0  0
  -28.6050  -19.7504   19.5338 C   0  0  0  0  0  0  0  0  0  0  0  0
  -20.4308   -5.6897   22.6030 C   0  0  0  0  0  0  0  0  0  0  0  0
  -24.4355  -10.5022   21.8479 C   0  0  0  0  0  0  0  0  0  0  0  0
  -24.4278  -11.9448   19.7439 C   0  0  0  0  0  0  0  0  0  0  0  0
  -28.0420  -33.6299   26.1352 C   0  0  0  0  0  0  0  0  0  0  0  0
  -25.8984  -29.4249   20.5133 C   0  0  0  0  0  0  0  0  0  0  0  0
  -27.8367  -32.4121   25.4590 C   0  0  0  0  0  0  0  0  0  0  0  0
  -24.6108  -28.8895   20.6597 C   0  0  0  0  0  0  0  0  0  0  0  0
  -27.1179  -21.4925   18.7650 C   0  0  0  0  0  0  0  0  0  0  0  0
  -27.6925  -18.7844   19.1098 C   0  0  0  0  0  0  0  0  0  0  0  0
  -23.3193   -8.6787   23.6399 C   0  0  0  0  0  0  0  0  0  0  0  0
  -25.4655  -26.6983   20.0444 C   0  0  0  0  0  0  0  0  0  0  0  0
  -22.1495   -6.6707   23.9889 C   0  0  0  0  0  0  0  0  0  0  0  0
  -20.8938   -4.4154   22.9309 C   0  0  0  0  0  0  0  0  0  0  0  0
  -26.4927  -19.1724   18.5134 C   0  0  0  0  0  0  0  0  0  0  0  0
  -28.3177  -21.1045   19.3614 C   0  0  0  0  0  0  0  0  0  0  0  0
  -21.0587   -6.8173   23.1321 C   0  0  0  0  0  0  0  0  0  0  0  0
  -25.0122  -11.4446   20.9230 C   0  0  0  0  0  0  0  0  0  0  0  0
  -25.3712  -12.8001   19.2293 C   0  0  0  0  0  0  0  0  0  0  0  0
  -23.1468  -11.6616   19.1657 C   0  0  0  0  0  0  0  0  0  0  0  0
  -25.2836  -31.1931   23.0823 C   0  0  0  0  0  0  0  0  0  0  0  0
  -22.7249  -32.1483   21.3321 C   0  0  0  0  0  0  0  0  0  0  0  0
  -20.5236  -31.4744   18.8128 C   0  0  0  0  0  0  0  0  0  0  0  0
  -29.1301  -16.8584   19.8650 C   0  0  0  0  0  0  0  0  0  0  0  0
  -26.8912  -34.4391   26.6790 C   0  0  0  0  0  0  0  0  0  0  0  0
  -26.1421  -30.8932   20.7309 C   0  0  0  0  0  0  0  0  0  0  0  0
  -23.4387  -29.7429   21.0675 C   0  0  0  0  0  0  0  0  0  0  0  0
  -25.5430  -34.0690   26.0661 C   0  0  0  0  0  0  0  0  0  0  0  0
  -30.2104  -13.5300   20.5220 C   0  0  0  0  0  0  0  0  0  0  0  0
  -25.3683  -32.5540   26.0357 C   0  0  0  0  0  0  0  0  0  0  0  0
  -28.9063  -12.7319   20.5879 C   0  0  0  0  0  0  0  0  0  0  0  0
  -30.0527  -14.9250   21.1243 C   0  0  0  0  0  0  0  0  0  0  0  0
  -27.6360  -14.9159   20.6460 C   0  0  0  0  0  0  0  0  0  0  0  0
  -27.2621  -23.9198   19.4116 C   0  0  0  0  0  0  0  0  0  0  0  0
  -25.5660  -23.4113   18.2748 C   0  0  0  0  0  0  0  0  0  0  0  0
  -26.4457  -31.8917   25.1685 C   0  0  1  0  0  0  0  0  0  0  0  0
  -25.0987  -31.5447   21.6332 C   0  0  1  0  0  0  0  0  0  0  0  0
  -27.7281  -13.5274   19.9925 C   0  0  2  0  0  0  0  0  0  0  0  0
  -26.0858  -24.7343   18.8554 C   0  0  0  0  0  0  0  0  0  1  0  0
  -18.5196  -32.4269   17.6406 C   0  0  0  0  0  0  0  0  0  0  0  0
  -20.9697  -31.3657   23.7021 C   0  0  0  0  0  0  0  0  0  0  0  0
  -18.9914  -31.4306   22.1690 C   0  0  0  0  0  0  0  0  0  0  0  0
  -20.3164  -33.5037   22.5811 C   0  0  0  0  0  0  0  0  0  0  0  0
  -21.9430  -31.5716   16.2177 C   0  0  0  0  0  0  0  0  0  0  0  0
  -21.3062  -31.6621   21.1595 C   0  0  1  0  0  0  0  0  0  0  0  0
  -20.0364  -32.3177   17.6484 C   0  0  2  0  0  0  0  0  0  0  0  0
  -20.4182  -31.9738   22.3971 C   0  0  0  0  0  0  0  0  0  0  0  0
  -26.2324  -11.9407   21.1443 N   0  0  0  0  0  0  0  0  0  0  0  0
  -26.4225  -12.7615   20.0973 N   0  0  0  0  0  0  0  0  0  0  0  0
  -26.8293  -22.8417   18.5922 N   0  0  0  0  0  0  0  0  0  0  0  0
  -23.7289  -31.1713   21.2747 N   0  0  0  0  0  0  0  0  0  0  0  0
  -28.9202  -15.6207   20.5091 N   0  0  0  0  0  0  0  0  0  0  0  0
  -25.3958  -13.5739   18.1233 N   0  0  0  0  0  0  0  0  0  0  0  0
  -22.3010  -10.7590   19.8248 N   0  0  0  0  0  0  0  0  0  0  0  0
  -27.9861  -17.4098   19.2889 N   0  0  0  0  0  0  0  0  0  0  0  0
  -26.1300  -32.0461   23.7646 N   0  0  0  0  0  0  0  0  0  0  0  0
  -20.8225  -32.2483   19.9141 N   0  0  0  0  0  0  0  0  0  0  0  0
  -20.4710  -31.7165   16.3559 N   0  3  0  0  0  0  0  0  0  0  0  0
  -22.7701  -12.1807   18.0877 O   0  0  0  0  0  0  0  0  0  0  0  0
  -24.7005  -30.2207   23.5472 O   0  0  0  0  0  0  0  0  0  0  0  0
  -22.9352  -33.3515   21.5042 O   0  0  0  0  0  0  0  0  0  0  0  0
  -20.6250  -30.2510   18.7527 O   0  0  0  0  0  0  0  0  0  0  0  0
  -30.2479  -17.3768   19.8037 O   0  0  0  0  0  0  0  0  0  0  0  0
  -22.7744   -7.7892   24.5143 O   0  0  0  0  0  0  0  0  0  0  0  0
  -25.2524  -25.3729   19.8219 O   0  0  0  0  0  0  0  0  0  1  0  0
  -20.2919   -3.3325   22.4218 F   0  0  0  0  0  0  0  0  0  0  0  0
  -25.6083  -18.2519   18.1036 F   0  0  0  0  0  0  0  0  0  0  0  0
  -29.2017  -22.0241   19.7741 F   0  0  0  0  0  0  0  0  0  0  0  0
  -20.6101   -8.0390   22.8125 F   0  0  0  0  0  0  0  0  0  0  0  0
  1  2  1  0  0  0  0
  1  5  2  0  0  0  0
  2  6  2  0  0  0  0
  3  8  2  0  0  0  0
  3 17  1  0  0  0  0
  4  9  1  0  0  0  0
  4 17  2  0  0  0  0
  5 19  1  0  0  0  0
  6 21  1  0  0  0  0
  7 10  2  0  0  0  0
  7 20  1  0  0  0  0
  8 25  1  0  0  0  0
  9 25  2  0  0  0  0
 10 26  1  0  0  0  0
 11 12  2  0  0  0  0
 11 27  1  0  0  0  0
 12 28  1  0  0  0  0
 13 22  1  0  0  0  0
 13 26  2  0  0  0  0
 14 23  1  0  0  0  0
 14 29  2  0  0  0  0
 15 24  2  0  0  0  0
 15 30  1  0  0  0  0
 16 28  2  0  0  0  0
 16 31  1  0  0  0  0
 17 32  1  0  0  0  0
 18 32  1  0  0  0  0
 18 33  2  0  0  0  0
 18 34  1  0  0  0  0
 19 21  2  0  0  0  0
 19 39  1  0  0  0  0
 20 22  2  0  0  0  0
 20 40  1  0  0  0  0
 21 50  1  0  0  0  0
 22 41  1  0  0  0  0
 23 30  2  0  0  0  0
 23 64  1  0  0  0  0
 24 29  1  0  0  0  0
 24 69  1  0  0  0  0
 25 78  1  0  0  0  0
 26 79  1  0  0  0  0
 27 31  2  0  0  0  0
 27 78  1  0  0  0  0
 28 80  1  0  0  0  0
 29 81  1  0  0  0  0
 30 82  1  0  0  0  0
 31 83  1  0  0  0  0
 32 62  2  0  0  0  0
 33 63  1  0  0  0  0
 33 67  1  0  0  0  0
 34 68  1  0  0  0  0
 34 73  2  0  0  0  0
 35 51  1  0  0  0  0
 35 70  1  0  0  0  0
 35 74  2  0  0  0  0
 36 59  1  0  0  0  0
 36 65  1  0  0  0  0
 36 75  2  0  0  0  0
 37 60  1  0  0  0  0
 37 71  1  0  0  0  0
 37 76  2  0  0  0  0
 38 66  1  0  0  0  0
 38 69  1  0  0  0  0
 38 77  2  0  0  0  0
 39 42  1  0  0  0  0
 40 51  1  0  0  0  0
 41 65  1  0  0  0  0
 42 44  1  0  0  0  0
 43 45  1  0  0  0  0
 43 46  1  0  0  0  0
 44 50  1  0  0  0  0
 45 52  1  0  0  0  0
 46 66  1  0  0  0  0
 47 52  1  0  0  0  0
 47 66  1  0  0  0  0
 48 53  1  0  0  0  0
 48 64  1  0  0  0  0
 49 53  1  0  0  0  0
 49 64  1  0  0  0  0
 50 70  1  0  0  0  0
 51 65  1  0  0  0  0
 52 63  1  0  0  0  0
 53 79  1  0  0  0  0
 54 60  1  0  0  0  0
 55 61  1  0  0  0  0
 56 61  1  0  0  0  0
 57 61  1  0  0  0  0
 58 72  1  0  0  0  0
 59 61  1  0  0  0  0
 59 71  1  0  0  0  0
 60 72  1  0  0  0  0
 62 63  1  0  0  0  0
M  CHG  1  72   1
M  ISO  4  38 100  53 101  69 100  79 101
M  END
> <Batch ID>
0023

> <Smiles>
CNC(C)C(=O)NC(C(=O)N1Cc2cc([101O:1][101CH:1]3CN(c4cc(F)c([100NH:0][100C:0](=O)N5CCCC(n6nc(-c7ccc(Oc8ccc(F)cc8F)cc7)c(C(N)=O)c6N)C5)cc4F)C3)ccc2CC1C(=O)NC1CCCc2ccccc21)C(C)(C)C

> <Shape>
0.285

> <Color>
0.098

> <Negative vol penalty>
0.000

$$$$

  -OEChem-04042321173D

 86 95  0     1  0  0  0  0  0999 V2000
  -31.1980  -24.4523   16.7243 C   0  0  0  0  0  0  0  0  0  0  0  0
  -30.1150  -24.3272   17.5886 C   0  0  0  0  0  0  0  0  0  0  0  0
  -24.4411   -8.4317   20.4940 C   0  0  0  0  0  0  0  0  0  0  0  0
  -23.0891  -10.3726   20.9860 C   0  0  0  0  0  0  0  0  0  0  0  0
  -32.0302  -25.5679   16.8083 C   0  0  0  0  0  0  0  0  0  0  0  0
  -29.8643  -25.3171   18.5382 C   0  0  0  0  0  0  0  0  0  0  0  0
  -24.9663  -26.5806   18.7805 C   0  0  0  0  0  0  0  0  0  0  0  0
  -23.5724  -19.2939   21.5282 C   0  0  0  0  0  0  0  0  0  0  0  0
  -24.3853  -18.1915   21.2643 C   0  0  0  0  0  0  0  0  0  0  0  0
  -23.4033   -7.6015   20.9171 C   0  0  0  0  0  0  0  0  0  0  0  0
  -22.0512   -9.5423   21.4091 C   0  0  0  0  0  0  0  0  0  0  0  0
  -24.1188  -25.7146   19.4700 C   0  0  0  0  0  0  0  0  0  0  0  0
  -22.1181   -6.5187   23.8497 C   0  0  0  0  0  0  0  0  0  0  0  0
  -22.4439   -5.4480   24.6822 C   0  0  0  0  0  0  0  0  0  0  0  0
  -24.2080  -27.1683   21.3931 C   0  0  0  0  0  0  0  0  0  0  0  0
  -25.8593  -18.8481   23.0625 C   0  0  0  0  0  0  0  0  0  0  0  0
  -21.5687   -3.9057   23.0414 C   0  0  0  0  0  0  0  0  0  0  0  0
  -24.2841   -9.8173   20.5285 C   0  0  0  0  0  0  0  0  0  0  0  0
  -25.9486  -10.7137   18.8157 C   0  0  0  0  0  0  0  0  0  0  0  0
  -31.7838  -26.5766   17.7529 C   0  0  0  0  0  0  0  0  0  0  0  0
  -25.4506  -27.7433   19.3969 C   0  0  0  0  0  0  0  0  0  0  0  0
  -30.6947  -26.4466   18.6357 C   0  0  0  0  0  0  0  0  0  0  0  0
  -25.0595  -28.0486   20.7084 C   0  0  0  0  0  0  0  0  0  0  0  0
  -23.9030  -20.1734   22.5592 C   0  0  0  0  0  0  0  0  0  0  0  0
  -25.5288  -17.9686   22.0315 C   0  0  0  0  0  0  0  0  0  0  0  0
  -22.2083   -8.1567   21.3746 C   0  0  0  0  0  0  0  0  0  0  0  0
  -23.7417  -26.0069   20.7775 C   0  0  0  0  0  0  0  0  0  0  0  0
  -21.5174   -6.2829   22.6130 C   0  0  0  0  0  0  0  0  0  0  0  0
  -22.1693   -4.1416   24.2781 C   0  0  0  0  0  0  0  0  0  0  0  0
  -21.2428   -4.9764   22.2089 C   0  0  0  0  0  0  0  0  0  0  0  0
  -25.0464  -19.9504   23.3264 C   0  0  0  0  0  0  0  0  0  0  0  0
  -25.3561  -10.6755   20.0921 C   0  0  0  0  0  0  0  0  0  0  0  0
  -26.9102  -11.6895   18.9125 C   0  0  0  0  0  0  0  0  0  0  0  0
  -23.5332  -22.6225   22.7091 C   0  0  0  0  0  0  0  0  0  0  0  0
  -25.6557   -9.9366   17.6469 C   0  0  0  0  0  0  0  0  0  0  0  0
  -28.3329  -28.8383   20.1700 C   0  0  0  0  0  0  0  0  0  0  0  0
  -26.6739  -31.5052   20.9812 C   0  0  0  0  0  0  0  0  0  0  0  0
  -23.5666  -32.2681   22.6483 C   0  0  0  0  0  0  0  0  0  0  0  0
  -27.5234  -16.4819   22.4285 C   0  0  0  0  0  0  0  0  0  0  0  0
  -32.7388  -27.7409   17.8373 C   0  0  0  0  0  0  0  0  0  0  0  0
  -26.3427  -28.6808   18.6303 C   0  0  0  0  0  0  0  0  0  0  0  0
  -25.5355  -29.2945   21.4081 C   0  0  0  0  0  0  0  0  0  0  0  0
  -32.1849  -28.9273   18.6222 C   0  0  0  0  0  0  0  0  0  0  0  0
  -20.8058  -22.1147   23.6544 C   0  0  0  0  0  0  0  0  0  0  0  0
  -29.8173  -13.7797   22.0928 C   0  0  0  0  0  0  0  0  0  0  0  0
  -31.5542  -28.4554   19.9285 C   0  0  0  0  0  0  0  0  0  0  0  0
  -21.1791  -23.4817   23.1228 C   0  0  0  0  0  0  0  0  0  0  0  0
  -28.9892  -12.6826   21.4200 C   0  0  0  0  0  0  0  0  0  0  0  0
  -21.5935  -21.0426   22.9217 C   0  0  0  0  0  0  0  0  0  0  0  0
  -28.9871  -14.5859   23.0900 C   0  0  0  0  0  0  0  0  0  0  0  0
  -26.9108  -14.0449   21.8794 C   0  0  0  0  0  0  0  0  0  0  0  0
  -30.3755  -27.5113   19.6626 C   0  0  1  0  0  0  0  0  0  0  0  0
  -22.6655  -23.7080   23.3547 C   0  0  2  0  0  0  0  0  0  0  0  0
  -27.1877  -29.5739   19.5335 C   0  0  1  0  0  0  0  0  0  0  0  0
  -27.6874  -13.2478   20.8188 C   0  0  2  0  0  0  0  0  0  0  0  0
  -22.0429  -34.2503   22.4321 C   0  0  0  0  0  0  0  0  0  0  0  0
  -28.2471  -32.6075   23.3518 C   0  0  0  0  0  0  0  0  0  0  0  0
  -26.1045  -33.5401   24.2506 C   0  0  0  0  0  0  0  0  0  0  0  0
  -26.9794  -34.3266   22.0509 C   0  0  0  0  0  0  0  0  0  0  0  0
  -21.2350  -30.5545   22.0267 C   0  0  0  0  0  0  0  0  0  0  0  0
  -23.0669  -25.1017   22.8706 C   0  0  0  0  0  0  0  0  0  1  0  0
  -25.9985  -32.0038   22.2358 C   0  0  1  0  0  0  0  0  0  0  0  0
  -22.3021  -32.8128   22.0089 C   0  0  2  0  0  0  0  0  0  0  0  0
  -26.8349  -33.0917   22.9668 C   0  0  0  0  0  0  0  0  0  0  0  0
  -25.8963  -11.5569   20.9379 N   0  0  0  0  0  0  0  0  0  0  0  0
  -26.8384  -12.1581   20.1914 N   0  0  0  0  0  0  0  0  0  0  0  0
  -23.0376  -21.3068   22.8056 N   0  0  0  0  0  0  0  0  0  0  0  0
  -26.4112  -30.1764   20.6189 N   0  0  0  0  0  0  0  0  0  0  0  0
  -27.7719  -15.0932   22.4490 N   0  0  0  0  0  0  0  0  0  0  0  0
  -27.8019  -12.1839   18.0277 N   0  0  0  0  0  0  0  0  0  0  0  0
  -24.6368   -8.9771   17.7205 N   0  0  0  0  0  0  0  0  0  0  0  0
  -26.3541  -16.8486   21.7629 N   0  0  0  0  0  0  0  0  0  0  0  0
  -29.2050  -28.2637   19.2651 N   0  0  0  0  0  0  0  0  0  0  0  0
  -24.6663  -32.4431   21.8352 N   0  0  0  0  0  0  0  0  0  0  0  0
  -21.1254  -31.9875   22.4030 N   0  3  0  0  0  0  0  0  0  0  0  0
  -24.6207  -22.9272   22.2121 O   0  0  0  0  0  0  0  0  0  0  0  0
  -26.2902  -10.0772   16.5740 O   0  0  0  0  0  0  0  0  0  0  0  0
  -28.4196  -28.7963   21.3916 O   0  0  0  0  0  0  0  0  0  0  0  0
  -27.4020  -32.2688   20.3420 O   0  0  0  0  0  0  0  0  0  0  0  0
  -23.5782  -31.7435   23.7597 O   0  0  0  0  0  0  0  0  0  0  0  0
  -28.3051  -17.2887   22.9384 O   0  0  0  0  0  0  0  0  0  0  0  0
  -21.1952   -7.3468   21.7873 O   0  0  0  0  0  0  0  0  0  0  0  0
  -22.9151  -25.1630   21.4530 O   0  0  0  0  0  0  0  0  0  1  0  0
  -22.4837   -3.1134   25.0770 F   0  0  0  0  0  0  0  0  0  0  0  0
  -20.6670   -4.7436   21.0214 F   0  0  0  0  0  0  0  0  0  0  0  0
  -25.4925  -21.0145   24.6124 Cl  0  0  0  0  0  0  0  0  0  0  0  0
  1  2  1  0  0  0  0
  1  5  2  0  0  0  0
  2  6  2  0  0  0  0
  3 10  2  0  0  0  0
  3 18  1  0  0  0  0
  4 11  1  0  0  0  0
  4 18  2  0  0  0  0
  5 20  1  0  0  0  0
  6 22  1  0  0  0  0
  7 12  2  0  0  0  0
  7 21  1  0  0  0  0
  8  9  2  0  0  0  0
  8 24  1  0  0  0  0
  9 25  1  0  0  0  0
 10 26  1  0  0  0  0
 11 26  2  0  0  0  0
 12 27  1  0  0  0  0
 13 14  2  0  0  0  0
 13 28  1  0  0  0  0
 14 29  1  0  0  0  0
 15 23  1  0  0  0  0
 15 27  2  0  0  0  0
 16 25  2  0  0  0  0
 16 31  1  0  0  0  0
 17 29  2  0  0  0  0
 17 30  1  0  0  0  0
 18 32  1  0  0  0  0
 19 32  1  0  0  0  0
 19 33  2  0  0  0  0
 19 35  1  0  0  0  0
 20 22  2  0  0  0  0
 20 40  1  0  0  0  0
 21 23  2  0  0  0  0
 21 41  1  0  0  0  0
 22 52  1  0  0  0  0
 23 42  1  0  0  0  0
 24 31  2  0  0  0  0
 24 67  1  0  0  0  0
 25 72  1  0  0  0  0
 26 82  1  0  0  0  0
 27 83  1  0  0  0  0
 28 30  2  0  0  0  0
 28 82  1  0  0  0  0
 29 84  1  0  0  0  0
 30 85  1  0  0  0  0
 31 86  1  0  0  0  0
 32 65  2  0  0  0  0
 33 66  1  0  0  0  0
 33 70  1  0  0  0  0
 34 53  1  0  0  0  0
 34 67  1  0  0  0  0
 34 76  2  0  0  0  0
 35 71  1  0  0  0  0
 35 77  2  0  0  0  0
 36 54  1  0  0  0  0
 36 73  1  0  0  0  0
 36 78  2  0  0  0  0
 37 62  1  0  0  0  0
 37 68  1  0  0  0  0
 37 79  2  0  0  0  0
 38 63  1  0  0  0  0
 38 74  1  0  0  0  0
 38 80  2  0  0  0  0
 39 69  1  0  0  0  0
 39 72  1  0  0  0  0
 39 81  2  0  0  0  0
 40 43  1  0  0  0  0
 41 54  1  0  0  0  0
 42 68  1  0  0  0  0
 43 46  1  0  0  0  0
 44 47  1  0  0  0  0
 44 49  1  0  0  0  0
 45 48  1  0  0  0  0
 45 50  1  0  0  0  0
 46 52  1  0  0  0  0
 47 53  1  0  0  0  0
 48 55  1  0  0  0  0
 49 67  1  0  0  0  0
 50 69  1  0  0  0  0
 51 55  1  0  0  0  0
 51 69  1  0  0  0  0
 52 73  1  0  0  0  0
 53 61  1  0  0  0  0
 54 68  1  0  0  0  0
 55 66  1  0  0  0  0
 56 63  1  0  0  0  0
 57 64  1  0  0  0  0
 58 64  1  0  0  0  0
 59 64  1  0  0  0  0
 60 75  1  0  0  0  0
 61 83  1  0  0  0  0
 62 64  1  0  0  0  0
 62 74  1  0  0  0  0
 63 75  1  0  0  0  0
 65 66  1  0  0  0  0
M  CHG  1  75   1
M  ISO  4  39 100  61 101  72 100  83 101
M  END
> <Batch ID>
0023

> <Smiles>
CNC(C)C(=O)NC(C(=O)N1Cc2cc([101O:1][101CH2:1]C3CCCN(c4ccc([100NH:0][100C:0](=O)N5CCCC(n6nc(-c7ccc(Oc8ccc(F)cc8F)cc7)c(C(N)=O)c6N)C5)cc4Cl)C3=O)ccc2CC1C(=O)NC1CCCc2ccccc21)C(C)(C)C

> <Shape>
0.239

> <Color>
0.095

> <Negative vol penalty>
0.000

$$$$

  -OEChem-04042321173D

 83 91  0     1  0  0  0  0  0999 V2000
  -26.8598  -19.1699   17.8141 C   0  0  0  0  0  0  0  0  0  0  0  0
  -27.5548  -19.5668   18.9520 C   0  0  0  0  0  0  0  0  0  0  0  0
  -23.0835   -9.9116   19.8944 C   0  0  0  0  0  0  0  0  0  0  0  0
  -23.8455   -9.8531   22.1863 C   0  0  0  0  0  0  0  0  0  0  0  0
  -27.0585  -19.8404   16.6080 C   0  0  0  0  0  0  0  0  0  0  0  0
  -28.4499  -20.6339   18.8841 C   0  0  0  0  0  0  0  0  0  0  0  0
  -27.9549  -23.8356   22.7763 C   0  0  0  0  0  0  0  0  0  0  0  0
  -30.3569  -18.3489   24.2730 C   0  0  0  0  0  0  0  0  0  0  0  0
  -32.5522  -17.5516   23.6549 C   0  0  0  0  0  0  0  0  0  0  0  0
  -29.7810  -17.4873   23.3394 C   0  0  0  0  0  0  0  0  0  0  0  0
  -31.9763  -16.6899   22.7213 C   0  0  0  0  0  0  0  0  0  0  0  0
  -22.3564   -8.7403   20.1062 C   0  0  0  0  0  0  0  0  0  0  0  0
  -23.1184   -8.6818   22.3982 C   0  0  0  0  0  0  0  0  0  0  0  0
  -28.5171  -23.4508   23.9927 C   0  0  0  0  0  0  0  0  0  0  0  0
  -23.4560   -5.3847   21.7304 C   0  0  0  0  0  0  0  0  0  0  0  0
  -24.0868   -4.3450   22.4135 C   0  0  0  0  0  0  0  0  0  0  0  0
  -30.4222  -24.8636   23.5522 C   0  0  0  0  0  0  0  0  0  0  0  0
  -22.3848   -4.4374   24.1257 C   0  0  0  0  0  0  0  0  0  0  0  0
  -23.8281  -10.4680   20.9344 C   0  0  0  0  0  0  0  0  0  0  0  0
  -24.1338  -13.0004   20.8983 C   0  0  0  0  0  0  0  0  0  0  0  0
  -27.9493  -20.9224   16.5275 C   0  0  0  0  0  0  0  0  0  0  0  0
  -28.6284  -24.7304   21.9323 C   0  0  0  0  0  0  0  0  0  0  0  0
  -28.6618  -21.3187   17.6754 C   0  0  0  0  0  0  0  0  0  0  0  0
  -29.8652  -25.2601   22.3268 C   0  0  0  0  0  0  0  0  0  0  0  0
  -31.7424  -18.3811   24.4307 C   0  0  0  0  0  0  0  0  0  0  0  0
  -30.5907  -16.6578   22.5636 C   0  0  0  0  0  0  0  0  0  0  0  0
  -22.3738   -8.1254   21.3581 C   0  0  0  0  0  0  0  0  0  0  0  0
  -29.7523  -23.9626   24.3795 C   0  0  0  0  0  0  0  0  0  0  0  0
  -22.2897   -5.9509   22.2450 C   0  0  0  0  0  0  0  0  0  0  0  0
  -23.5512   -3.8713   23.6111 C   0  0  0  0  0  0  0  0  0  0  0  0
  -21.7541   -5.4772   23.4426 C   0  0  0  0  0  0  0  0  0  0  0  0
  -24.5799  -11.6777   20.7161 C   0  0  0  0  0  0  0  0  0  0  0  0
  -25.2148  -13.7771   20.5596 C   0  0  0  0  0  0  0  0  0  0  0  0
  -22.8566  -13.4838   21.3349 C   0  0  0  0  0  0  0  0  0  0  0  0
  -29.8126  -24.5759   18.9865 C   0  0  0  0  0  0  0  0  0  0  0  0
  -30.3507  -27.7401   19.4559 C   0  0  0  0  0  0  0  0  0  0  0  0
  -30.8365  -30.3008   21.6590 C   0  0  0  0  0  0  0  0  0  0  0  0
  -30.6657  -14.8942   20.7662 C   0  0  0  0  0  0  0  0  0  0  0  0
  -28.1664  -21.5861   15.1907 C   0  0  0  0  0  0  0  0  0  0  0  0
  -27.9961  -25.1561   20.6356 C   0  0  0  0  0  0  0  0  0  0  0  0
  -30.6193  -26.2394   21.4661 C   0  0  0  0  0  0  0  0  0  0  0  0
  -28.8524  -22.9461   15.2901 C   0  0  0  0  0  0  0  0  0  0  0  0
  -29.5835  -12.5449   18.3195 C   0  0  0  0  0  0  0  0  0  0  0  0
  -30.0540  -22.8707   16.2268 C   0  0  0  0  0  0  0  0  0  0  0  0
  -28.1486  -12.2186   18.7398 C   0  0  0  0  0  0  0  0  0  0  0  0
  -30.4964  -12.7466   19.5276 C   0  0  0  0  0  0  0  0  0  0  0  0
  -28.5807  -13.3974   20.9332 C   0  0  0  0  0  0  0  0  0  0  0  0
  -29.6228  -22.4874   17.6475 C   0  0  1  0  0  0  0  0  0  0  0  0
  -29.0084  -25.6759   19.6195 C   0  0  1  0  0  0  0  0  0  0  0  0
  -27.6093  -13.2496   19.7508 C   0  0  2  0  0  0  0  0  0  0  0  0
  -31.2881  -32.7678   21.7435 C   0  0  0  0  0  0  0  0  0  0  0  0
  -33.2598  -27.2315   18.6886 C   0  0  0  0  0  0  0  0  0  0  0  0
  -33.8393  -29.4516   19.6903 C   0  0  0  0  0  0  0  0  0  0  0  0
  -32.2836  -29.3313   17.7440 C   0  0  0  0  0  0  0  0  0  0  0  0
  -28.3174  -30.8295   23.1195 C   0  0  0  0  0  0  0  0  0  0  0  0
  -33.4109  -20.9884   23.9262 C   0  0  0  0  0  0  0  0  0  0  0  0
  -32.3617  -19.3080   25.4349 C   0  0  0  0  0  0  0  0  0  0  0  0
  -31.1551  -21.7727   26.8821 C   0  0  0  0  0  0  0  0  0  0  0  0
  -32.4692  -21.6998   26.1192 C   0  0  0  0  0  0  0  0  0  0  0  0
  -29.9878  -22.2818   26.0454 C   0  0  0  0  0  0  0  0  0  1  0  0
  -31.4879  -28.5596   20.0164 C   0  0  1  0  0  0  0  0  0  0  0  0
  -30.2200  -31.6853   21.7461 C   0  0  2  0  0  0  0  0  0  0  0  0
  -32.7046  -28.6236   19.0504 C   0  0  0  0  0  0  0  0  0  0  0  0
  -25.8456  -11.6139   20.2941 N   0  0  0  0  0  0  0  0  0  0  0  0
  -26.2040  -12.9063   20.2084 N   0  0  0  0  0  0  0  0  0  0  0  0
  -29.9626  -26.6201   20.2046 N   0  0  0  0  0  0  0  0  0  0  0  0
  -29.9237  -13.7396   20.4391 N   0  0  0  0  0  0  0  0  0  0  0  0
  -25.4062  -15.1131   20.5309 N   0  0  0  0  0  0  0  0  0  0  0  0
  -21.8580  -12.5496   21.6422 N   0  0  0  0  0  0  0  0  0  0  0  0
  -30.0061  -15.7821   21.6153 N   0  0  0  0  0  0  0  0  0  0  0  0
  -29.0510  -23.6297   18.3277 N   0  0  0  0  0  0  0  0  0  0  0  0
  -30.9245  -29.8621   20.3548 N   0  0  0  0  0  0  0  0  0  0  0  0
  -29.4194  -31.8180   22.9961 N   0  3  0  0  0  0  0  0  0  0  0  0
  -32.3632  -20.7499   24.9870 N   0  3  1  0  0  0  0  0  0  0  0  0
  -22.6028  -14.7083   21.4333 O   0  0  0  0  0  0  0  0  0  0  0  0
  -31.0339  -24.5856   19.0871 O   0  0  0  0  0  0  0  0  0  0  0  0
  -29.8214  -28.0853   18.3965 O   0  0  0  0  0  0  0  0  0  0  0  0
  -31.2067  -29.6730   22.6486 O   0  0  0  0  0  0  0  0  0  0  0  0
  -31.7919  -15.0945   20.3038 O   0  0  0  0  0  0  0  0  0  0  0  0
  -21.6642   -6.9825   21.5652 O   0  0  0  0  0  0  0  0  0  0  0  0
  -30.3035  -23.5882   25.5660 O   0  0  0  0  0  0  0  0  0  1  0  0
  -24.1562   -2.8717   24.2662 F   0  0  0  0  0  0  0  0  0  0  0  0
  -20.6331   -6.0163   23.9413 F   0  0  0  0  0  0  0  0  0  0  0  0
  1  2  1  0  0  0  0
  1  5  2  0  0  0  0
  2  6  2  0  0  0  0
  3 12  2  0  0  0  0
  3 19  1  0  0  0  0
  4 13  1  0  0  0  0
  4 19  2  0  0  0  0
  5 21  1  0  0  0  0
  6 23  1  0  0  0  0
  7 14  2  0  0  0  0
  7 22  1  0  0  0  0
  8 10  2  0  0  0  0
  8 25  1  0  0  0  0
  9 11  1  0  0  0  0
  9 25  2  0  0  0  0
 10 26  1  0  0  0  0
 11 26  2  0  0  0  0
 12 27  1  0  0  0  0
 13 27  2  0  0  0  0
 14 28  1  0  0  0  0
 15 16  2  0  0  0  0
 15 29  1  0  0  0  0
 16 30  1  0  0  0  0
 17 24  1  0  0  0  0
 17 28  2  0  0  0  0
 18 30  2  0  0  0  0
 18 31  1  0  0  0  0
 19 32  1  0  0  0  0
 20 32  1  0  0  0  0
 20 33  2  0  0  0  0
 20 34  1  0  0  0  0
 21 23  2  0  0  0  0
 21 39  1  0  0  0  0
 22 24  2  0  0  0  0
 22 40  1  0  0  0  0
 23 48  1  0  0  0  0
 24 41  1  0  0  0  0
 25 57  1  0  0  0  0
 26 70  1  0  0  0  0
 27 80  1  0  0  0  0
 28 81  1  0  0  0  0
 29 31  2  0  0  0  0
 29 80  1  0  0  0  0
 30 82  1  0  0  0  0
 31 83  1  0  0  0  0
 32 64  2  0  0  0  0
 33 65  1  0  0  0  0
 33 68  1  0  0  0  0
 34 69  1  0  0  0  0
 34 75  2  0  0  0  0
 35 49  1  0  0  0  0
 35 71  1  0  0  0  0
 35 76  2  0  0  0  0
 36 61  1  0  0  0  0
 36 66  1  0  0  0  0
 36 77  2  0  0  0  0
 37 62  1  0  0  0  0
 37 72  1  0  0  0  0
 37 78  2  0  0  0  0
 38 67  1  0  0  0  0
 38 70  1  0  0  0  0
 38 79  2  0  0  0  0
 39 42  1  0  0  0  0
 40 49  1  0  0  0  0
 41 66  1  0  0  0  0
 42 44  1  0  0  0  0
 43 45  1  0  0  0  0
 43 46  1  0  0  0  0
 44 48  1  0  0  0  0
 45 50  1  0  0  0  0
 46 67  1  0  0  0  0
 47 50  1  0  0  0  0
 47 67  1  0  0  0  0
 48 71  1  0  0  0  0
 49 66  1  0  0  0  0
 50 65  1  0  0  0  0
 51 62  1  0  0  0  0
 52 63  1  0  0  0  0
 53 63  1  0  0  0  0
 54 63  1  0  0  0  0
 55 73  1  0  0  0  0
 56 74  1  0  0  0  0
 57 74  1  0  0  0  0
 58 59  1  0  0  0  0
 58 60  1  0  0  0  0
 59 74  1  0  0  0  0
 60 81  1  0  0  0  0
 61 63  1  0  0  0  0
 61 72  1  0  0  0  0
 62 73  1  0  0  0  0
 64 65  1  0  0  0  0
M  CHG  2  73   1  74   1
M  ISO  4  38 100  60 101  70 100  81 101
M  END
> <Batch ID>
0023

> <Smiles>
CNC(C)C(=O)NC(C(=O)N1Cc2cc([101O:1][101CH2:1]CCN(C)Cc3ccc([100NH:0][100C:0](=O)N4CCCC(n5nc(-c6ccc(Oc7ccc(F)cc7F)cc6)c(C(N)=O)c5N)C4)cc3)ccc2CC1C(=O)NC1CCCc2ccccc21)C(C)(C)C

> <Shape>
0.252

> <Color>
0.203

> <Negative vol penalty>
0.000

$$$$

  -OEChem-04042321173D

 83 92  0     1  0  0  0  0  0999 V2000
  -29.4182  -30.8752   26.6202 C   0  0  0  0  0  0  0  0  0  0  0  0
  -29.2134  -30.0151   25.5461 C   0  0  0  0  0  0  0  0  0  0  0  0
  -24.2442   -8.8600   21.3894 C   0  0  0  0  0  0  0  0  0  0  0  0
  -23.9113  -10.7012   22.9179 C   0  0  0  0  0  0  0  0  0  0  0  0
  -28.3304  -31.3320   27.3632 C   0  0  0  0  0  0  0  0  0  0  0  0
  -27.9207  -29.6104   25.2151 C   0  0  0  0  0  0  0  0  0  0  0  0
  -27.0368  -29.8158   20.2330 C   0  0  0  0  0  0  0  0  0  0  0  0
  -29.6059  -20.1627   19.0084 C   0  0  0  0  0  0  0  0  0  0  0  0
  -27.2632  -20.0568   18.4274 C   0  0  0  0  0  0  0  0  0  0  0  0
  -29.6598  -18.7694   19.0449 C   0  0  0  0  0  0  0  0  0  0  0  0
  -27.3171  -18.6635   18.4639 C   0  0  0  0  0  0  0  0  0  0  0  0
  -23.7113   -7.9810   22.3322 C   0  0  0  0  0  0  0  0  0  0  0  0
  -23.3784   -9.8222   23.8607 C   0  0  0  0  0  0  0  0  0  0  0  0
  -27.5526  -28.7827   19.4516 C   0  0  0  0  0  0  0  0  0  0  0  0
  -20.6489   -7.0858   23.4518 C   0  0  0  0  0  0  0  0  0  0  0  0
  -19.7219   -6.1429   23.0077 C   0  0  0  0  0  0  0  0  0  0  0  0
  -25.3816  -27.7316   19.4190 C   0  0  0  0  0  0  0  0  0  0  0  0
  -21.1751   -4.3628   23.7539 C   0  0  0  0  0  0  0  0  0  0  0  0
  -24.3442  -10.2201   21.6822 C   0  0  0  0  0  0  0  0  0  0  0  0
  -24.1950  -11.8315   19.7102 C   0  0  0  0  0  0  0  0  0  0  0  0
  -27.0229  -30.9403   27.0351 C   0  0  0  0  0  0  0  0  0  0  0  0
  -25.6898  -29.8089   20.6229 C   0  0  0  0  0  0  0  0  0  0  0  0
  -26.8146  -30.0613   25.9552 C   0  0  0  0  0  0  0  0  0  0  0  0
  -24.8505  -28.7671   20.2031 C   0  0  0  0  0  0  0  0  0  0  0  0
  -28.4075  -20.8065   18.6997 C   0  0  0  0  0  0  0  0  0  0  0  0
  -28.5155  -18.0198   18.7726 C   0  0  0  0  0  0  0  0  0  0  0  0
  -23.2783   -8.4620   23.5678 C   0  0  0  0  0  0  0  0  0  0  0  0
  -26.7257  -27.7389   19.0470 C   0  0  0  0  0  0  0  0  0  0  0  0
  -21.8391   -6.6672   24.0469 C   0  0  0  0  0  0  0  0  0  0  0  0
  -19.9850   -4.7814   23.1588 C   0  0  0  0  0  0  0  0  0  0  0  0
  -22.1021   -5.3057   24.1979 C   0  0  0  0  0  0  0  0  0  0  0  0
  -24.8952  -11.1286   20.7090 C   0  0  0  0  0  0  0  0  0  0  0  0
  -25.1633  -12.5519   19.0545 C   0  0  0  0  0  0  0  0  0  0  0  0
  -22.7946  -11.8330   19.4026 C   0  0  0  0  0  0  0  0  0  0  0  0
  -24.1614  -29.7059   23.4081 C   0  0  0  0  0  0  0  0  0  0  0  0
  -21.5426  -30.1413   21.5440 C   0  0  0  0  0  0  0  0  0  0  0  0
  -20.0910  -29.8361   18.4706 C   0  0  0  0  0  0  0  0  0  0  0  0
  -29.6789  -15.8092   19.0985 C   0  0  0  0  0  0  0  0  0  0  0  0
  -25.8828  -31.4226   27.8967 C   0  0  0  0  0  0  0  0  0  0  0  0
  -25.1424  -30.9445   21.4435 C   0  0  0  0  0  0  0  0  0  0  0  0
  -23.3924  -28.7233   20.5780 C   0  0  0  0  0  0  0  0  0  0  0  0
  -24.5121  -31.2442   27.2490 C   0  0  0  0  0  0  0  0  0  0  0  0
  -30.2112  -12.2962   19.3277 C   0  0  0  0  0  0  0  0  0  0  0  0
  -24.3822  -29.8471   26.6506 C   0  0  0  0  0  0  0  0  0  0  0  0
  -28.8180  -11.7371   19.6253 C   0  0  0  0  0  0  0  0  0  0  0  0
  -28.8768  -24.4444   19.0664 C   0  0  0  0  0  0  0  0  0  0  0  0
  -30.4460  -13.6349   20.0253 C   0  0  0  0  0  0  0  0  0  0  0  0
  -29.4949  -23.0539   18.9369 C   0  0  0  0  0  0  0  0  0  0  0  0
  -27.1465  -22.9493   18.3613 C   0  0  0  0  0  0  0  0  0  0  0  0
  -28.0262  -14.0953   20.0715 C   0  0  0  0  0  0  0  0  0  0  0  0
  -25.4252  -29.6194   25.5497 C   0  0  1  0  0  0  0  0  0  0  0  0
  -23.8789  -30.5711   22.2125 C   0  0  1  0  0  0  0  0  0  0  0  0
  -27.6651  -24.3749   18.1415 C   0  0  1  0  0  0  0  0  0  0  0  0
  -27.7194  -12.7793   19.3382 C   0  0  2  0  0  0  0  0  0  0  0  0
  -17.9281  -30.2419   17.2645 C   0  0  0  0  0  0  0  0  0  0  0  0
  -20.3420  -27.6696   22.8704 C   0  0  0  0  0  0  0  0  0  0  0  0
  -18.6675  -27.5712   21.0118 C   0  0  0  0  0  0  0  0  0  0  0  0
  -18.7337  -29.5533   22.5250 C   0  0  0  0  0  0  0  0  0  0  0  0
  -21.3610  -31.7385   16.5926 C   0  0  0  0  0  0  0  0  0  0  0  0
  -26.6261  -25.4431   18.4342 C   0  0  0  0  0  0  0  0  0  1  0  0
  -20.5777  -29.2288   20.8261 C   0  0  1  0  0  0  0  0  0  0  0  0
  -19.2871  -30.8155   17.6345 C   0  0  2  0  0  0  0  0  0  0  0  0
  -19.6081  -28.5053   21.8027 C   0  0  0  0  0  0  0  0  0  0  0  0
  -26.2069  -11.3797   20.6929 N   0  0  0  0  0  0  0  0  0  0  0  0
  -26.3388  -12.2484   19.6760 N   0  0  0  0  0  0  0  0  0  0  0  0
  -28.3536  -22.1837   18.6654 N   0  0  3  0  0  0  0  0  0  0  0  0
  -22.9058  -29.8533   21.3866 N   0  0  0  0  0  0  0  0  0  0  0  0
  -29.3684  -14.5731   19.7037 N   0  0  0  0  0  0  0  0  0  0  0  0
  -25.1153  -13.4091   18.0127 N   0  0  0  0  0  0  0  0  0  0  0  0
  -21.9399  -11.0356   20.1759 N   0  0  0  0  0  0  0  0  0  0  0  0
  -28.5704  -16.6044   18.8097 N   0  0  0  0  0  0  0  0  0  0  0  0
  -25.0208  -30.2785   24.3263 N   0  0  0  0  0  0  0  0  0  0  0  0
  -19.9110  -30.0494   19.8209 N   0  0  0  0  0  0  0  0  0  0  0  0
  -20.0167  -31.1440   16.3773 N   0  3  0  0  0  0  0  0  0  0  0  0
  -22.3178  -12.5085   18.4593 O   0  0  0  0  0  0  0  0  0  0  0  0
  -23.6373  -28.6014   23.4921 O   0  0  0  0  0  0  0  0  0  0  0  0
  -21.1033  -31.0793   22.2139 O   0  0  0  0  0  0  0  0  0  0  0  0
  -20.8041  -28.9662   17.9753 O   0  0  0  0  0  0  0  0  0  0  0  0
  -30.8404  -16.1266   18.8297 O   0  0  0  0  0  0  0  0  0  0  0  0
  -22.7580   -7.6046   24.4879 O   0  0  0  0  0  0  0  0  0  0  0  0
  -27.2267  -26.7290   18.2849 O   0  0  0  0  0  0  0  0  0  1  0  0
  -19.0940   -3.8761   22.7337 F   0  0  0  0  0  0  0  0  0  0  0  0
  -23.2432   -4.8976   24.7699 F   0  0  0  0  0  0  0  0  0  0  0  0
  1  2  1  0  0  0  0
  1  5  2  0  0  0  0
  2  6  2  0  0  0  0
  3 12  2  0  0  0  0
  3 19  1  0  0  0  0
  4 13  1  0  0  0  0
  4 19  2  0  0  0  0
  5 21  1  0  0  0  0
  6 23  1  0  0  0  0
  7 14  2  0  0  0  0
  7 22  1  0  0  0  0
  8 10  2  0  0  0  0
  8 25  1  0  0  0  0
  9 11  1  0  0  0  0
  9 25  2  0  0  0  0
 10 26  1  0  0  0  0
 11 26  2  0  0  0  0
 12 27  1  0  0  0  0
 13 27  2  0  0  0  0
 14 28  1  0  0  0  0
 15 16  2  0  0  0  0
 15 29  1  0  0  0  0
 16 30  1  0  0  0  0
 17 24  1  0  0  0  0
 17 28  2  0  0  0  0
 18 30  2  0  0  0  0
 18 31  1  0  0  0  0
 19 32  1  0  0  0  0
 20 32  1  0  0  0  0
 20 33  2  0  0  0  0
 20 34  1  0  0  0  0
 21 23  2  0  0  0  0
 21 39  1  0  0  0  0
 22 24  2  0  0  0  0
 22 40  1  0  0  0  0
 23 51  1  0  0  0  0
 24 41  1  0  0  0  0
 25 66  1  0  0  0  0
 26 71  1  0  0  0  0
 27 80  1  0  0  0  0
 28 81  1  0  0  0  0
 29 31  2  0  0  0  0
 29 80  1  0  0  0  0
 30 82  1  0  0  0  0
 31 83  1  0  0  0  0
 32 64  2  0  0  0  0
 33 65  1  0  0  0  0
 33 69  1  0  0  0  0
 34 70  1  0  0  0  0
 34 75  2  0  0  0  0
 35 52  1  0  0  0  0
 35 72  1  0  0  0  0
 35 76  2  0  0  0  0
 36 61  1  0  0  0  0
 36 67  1  0  0  0  0
 36 77  2  0  0  0  0
 37 62  1  0  0  0  0
 37 73  1  0  0  0  0
 37 78  2  0  0  0  0
 38 68  1  0  0  0  0
 38 71  1  0  0  0  0
 38 79  2  0  0  0  0
 39 42  1  0  0  0  0
 40 52  1  0  0  0  0
 41 67  1  0  0  0  0
 42 44  1  0  0  0  0
 43 45  1  0  0  0  0
 43 47  1  0  0  0  0
 44 51  1  0  0  0  0
 45 54  1  0  0  0  0
 46 48  1  0  0  0  0
 46 53  1  0  0  0  0
 47 68  1  0  0  0  0
 48 66  1  0  0  0  0
 49 53  1  0  0  0  0
 49 66  1  0  0  0  0
 50 54  1  0  0  0  0
 50 68  1  0  0  0  0
 51 72  1  0  0  0  0
 52 67  1  0  0  0  0
 53 60  1  0  0  0  0
 54 65  1  0  0  0  0
 55 62  1  0  0  0  0
 56 63  1  0  0  0  0
 57 63  1  0  0  0  0
 58 63  1  0  0  0  0
 59 74  1  0  0  0  0
 60 81  1  0  0  0  0
 61 63  1  0  0  0  0
 61 73  1  0  0  0  0
 62 74  1  0  0  0  0
 64 65  1  0  0  0  0
M  CHG  1  74   1
M  ISO  4  38 100  60 101  71 100  81 101
M  END
> <Batch ID>
0023

> <Smiles>
CNC(C)C(=O)NC(C(=O)N1Cc2cc([101O:1][101CH2:1]C3CCN(c4ccc([100NH:0][100C:0](=O)N5CCCC(n6nc(-c7ccc(Oc8ccc(F)cc8F)cc7)c(C(N)=O)c6N)C5)cc4)C3)ccc2CC1C(=O)NC1CCCc2ccccc21)C(C)(C)C

> <Shape>
0.305

> <Color>
0.097

> <Negative vol penalty>
0.000

$$$$

  -OEChem-04042321173D

 89 98  0     1  0  0  0  0  0999 V2000
  -24.5437  -21.6310   27.4889 C   0  0  0  0  0  0  0  0  0  0  0  0
  -24.5461  -20.3075   27.0603 C   0  0  0  0  0  0  0  0  0  0  0  0
  -27.9085  -25.3845   19.1996 C   0  0  0  0  0  0  0  0  0  0  0  0
  -26.8940  -25.3156   21.3911 C   0  0  0  0  0  0  0  0  0  0  0  0
  -23.9677  -22.6195   26.6921 C   0  0  0  0  0  0  0  0  0  0  0  0
  -23.9715  -19.9716   25.8350 C   0  0  0  0  0  0  0  0  0  0  0  0
  -25.8571  -15.6272   21.9520 C   0  0  0  0  0  0  0  0  0  0  0  0
  -29.2015  -12.3377   20.7059 C   0  0  0  0  0  0  0  0  0  0  0  0
  -29.4358  -13.5438   21.3610 C   0  0  0  0  0  0  0  0  0  0  0  0
  -26.9754  -26.3401   18.7976 C   0  0  0  0  0  0  0  0  0  0  0  0
  -25.9608  -26.2713   20.9892 C   0  0  0  0  0  0  0  0  0  0  0  0
  -25.4301  -14.3189   21.7291 C   0  0  0  0  0  0  0  0  0  0  0  0
  -23.5348  -28.9581   20.6523 C   0  0  0  0  0  0  0  0  0  0  0  0
  -23.2684  -30.0128   21.5254 C   0  0  0  0  0  0  0  0  0  0  0  0
  -29.2876  -14.6986   19.2498 C   0  0  0  0  0  0  0  0  0  0  0  0
  -24.0441  -15.0874   19.9105 C   0  0  0  0  0  0  0  0  0  0  0  0
  -25.5890  -30.6782   21.4296 C   0  0  0  0  0  0  0  0  0  0  0  0
  -27.8678  -24.8721   20.4963 C   0  0  0  0  0  0  0  0  0  0  0  0
  -30.2314  -24.0246   20.9464 C   0  0  0  0  0  0  0  0  0  0  0  0
  -23.3943  -22.2970   25.4520 C   0  0  0  0  0  0  0  0  0  0  0  0
  -25.3716  -16.6788   21.1615 C   0  0  0  0  0  0  0  0  0  0  0  0
  -23.3861  -20.9565   25.0214 C   0  0  0  0  0  0  0  0  0  0  0  0
  -29.0329  -13.4922   18.5725 C   0  0  0  0  0  0  0  0  0  0  0  0
  -24.4684  -16.4079   20.1237 C   0  0  0  0  0  0  0  0  0  0  0  0
  -28.9968  -12.3074   19.3169 C   0  0  0  0  0  0  0  0  0  0  0  0
  -29.4816  -14.7258   20.6316 C   0  0  0  0  0  0  0  0  0  0  0  0
  -26.0016  -26.7836   19.6924 C   0  0  0  0  0  0  0  0  0  0  0  0
  -24.5213  -14.0492   20.7101 C   0  0  0  0  0  0  0  0  0  0  0  0
  -24.8283  -28.7634   20.1679 C   0  0  0  0  0  0  0  0  0  0  0  0
  -24.2954  -30.8728   21.9140 C   0  0  0  0  0  0  0  0  0  0  0  0
  -25.8554  -29.6234   20.5566 C   0  0  0  0  0  0  0  0  0  0  0  0
  -28.8310  -23.8845   20.9120 C   0  0  0  0  0  0  0  0  0  0  0  0
  -30.6861  -22.8149   21.4115 C   0  0  0  0  0  0  0  0  0  0  0  0
  -27.4981  -10.5184   18.5380 C   0  0  0  0  0  0  0  0  0  0  0  0
  -31.0481  -25.1478   20.5898 C   0  0  0  0  0  0  0  0  0  0  0  0
  -23.6892  -19.3164   21.7243 C   0  0  0  0  0  0  0  0  0  0  0  0
  -24.3078  -19.9105   18.5959 C   0  0  0  0  0  0  0  0  0  0  0  0
  -25.0917  -18.6760   15.5123 C   0  0  0  0  0  0  0  0  0  0  0  0
  -29.8160  -17.2288   20.7173 C   0  0  0  0  0  0  0  0  0  0  0  0
  -22.7416  -23.3928   24.6470 C   0  0  0  0  0  0  0  0  0  0  0  0
  -25.8624  -18.0809   21.3975 C   0  0  0  0  0  0  0  0  0  0  0  0
  -28.8395  -13.5335   17.0804 C   0  0  0  0  0  0  0  0  0  0  0  0
  -23.9327  -17.4985   19.2338 C   0  0  0  0  0  0  0  0  0  0  0  0
  -22.4868  -23.0101   23.1914 C   0  0  0  0  0  0  0  0  0  0  0  0
  -27.6895  -12.6914   16.5245 C   0  0  0  0  0  0  0  0  0  0  0  0
  -30.8753  -19.2431   23.8068 C   0  0  0  0  0  0  0  0  0  0  0  0
  -21.8583  -21.6228   23.1063 C   0  0  0  0  0  0  0  0  0  0  0  0
  -30.0643  -20.5150   23.5705 C   0  0  0  0  0  0  0  0  0  0  0  0
  -26.4696  -12.6150   17.4417 C   0  0  0  0  0  0  0  0  0  0  0  0
  -30.2804  -18.0374   23.0903 C   0  0  0  0  0  0  0  0  0  0  0  0
  -30.2095  -19.6421   21.1731 C   0  0  0  0  0  0  0  0  0  0  0  0
  -22.7946  -20.5564   23.6872 C   0  0  1  0  0  0  0  0  0  0  0  0
  -24.9090  -19.1455   20.8637 C   0  0  1  0  0  0  0  0  0  0  0  0
  -29.5210  -20.6258   22.1321 C   0  0  2  0  0  0  0  0  0  0  0  0
  -25.4932  -19.4015   13.1438 C   0  0  0  0  0  0  0  0  0  0  0  0
  -23.3263   -9.9739   20.1199 C   0  0  0  0  0  0  0  0  0  0  0  0
  -21.3041  -20.2720   18.1999 C   0  0  0  0  0  0  0  0  0  0  0  0
  -21.6723  -20.0445   15.7339 C   0  0  0  0  0  0  0  0  0  0  0  0
  -22.7241  -21.9313   16.9815 C   0  0  0  0  0  0  0  0  0  0  0  0
  -29.9659  -10.0862   18.7281 C   0  0  0  0  0  0  0  0  0  0  0  0
  -27.8657  -17.6453   15.5445 C   0  0  0  0  0  0  0  0  0  0  0  0
  -25.0192  -10.8209   18.4458 C   0  0  0  0  0  0  0  0  0  0  0  0
  -25.0165  -11.7252   20.8082 C   0  0  0  0  0  0  0  0  0  1  0  0
  -23.6217  -19.5881   17.2905 C   0  0  1  0  0  0  0  0  0  0  0  0
  -26.1313  -19.1018   14.4914 C   0  0  2  0  0  0  0  0  0  0  0  0
  -24.7489  -10.5052   19.9199 C   0  0  1  0  0  0  0  0  0  0  0  0
  -22.3389  -20.4385   17.0693 C   0  0  0  0  0  0  0  0  0  0  0  0
  -28.4230  -22.6807   21.3224 N   0  0  0  0  0  0  0  0  0  0  0  0
  -29.5739  -22.0534   21.6191 N   0  0  0  0  0  0  0  0  0  0  0  0
  -28.8253  -11.0226   18.6965 N   0  0  0  0  0  0  0  0  0  0  0  0
  -26.3814  -11.3463   18.2215 N   0  0  0  0  0  0  0  0  0  0  0  0
  -24.4378  -18.8539   19.5083 N   0  0  0  0  0  0  0  0  0  0  0  0
  -30.0846  -18.2600   21.6504 N   0  0  0  0  0  0  0  0  0  0  0  0
  -31.9249  -22.3390   21.6591 N   0  0  0  0  0  0  0  0  0  0  0  0
  -31.3584  -26.0895   21.5804 N   0  0  0  0  0  0  0  0  0  0  0  0
  -29.7356  -15.9559   21.2882 N   0  0  0  0  0  0  0  0  0  0  0  0
  -23.8440  -20.2369   22.7432 N   0  0  0  0  0  0  0  0  0  0  0  0
  -24.6307  -19.7467   16.2488 N   0  0  0  0  0  0  0  0  0  0  0  0
  -27.2854   -9.1331   18.6921 N   0  3  0  0  0  0  0  0  0  0  0  0
  -27.1436  -18.0245   14.3028 N   0  3  0  0  0  0  0  0  0  0  0  0
  -31.4760  -25.3201   19.4233 O   0  0  0  0  0  0  0  0  0  0  0  0
  -22.6817  -18.6627   21.4809 O   0  0  0  0  0  0  0  0  0  0  0  0
  -24.7198  -21.0559   18.7958 O   0  0  0  0  0  0  0  0  0  0  0  0
  -24.7224  -17.5108   15.6409 O   0  0  0  0  0  0  0  0  0  0  0  0
  -29.6590  -17.4654   19.5176 O   0  0  0  0  0  0  0  0  0  0  0  0
  -25.0910  -27.7163   19.3006 O   0  0  0  0  0  0  0  0  0  0  0  0
  -24.0995  -12.7642   20.4893 O   0  0  0  0  0  0  0  0  0  1  0  0
  -24.0391  -31.8865   22.7512 F   0  0  0  0  0  0  0  0  0  0  0  0
  -27.0998  -29.4421   20.0937 F   0  0  0  0  0  0  0  0  0  0  0  0
  1  2  1  0  0  0  0
  1  5  2  0  0  0  0
  2  6  2  0  0  0  0
  3 10  2  0  0  0  0
  3 18  1  0  0  0  0
  4 11  1  0  0  0  0
  4 18  2  0  0  0  0
  5 20  1  0  0  0  0
  6 22  1  0  0  0  0
  7 12  2  0  0  0  0
  7 21  1  0  0  0  0
  8  9  2  0  0  0  0
  8 25  1  0  0  0  0
  9 26  1  0  0  0  0
 10 27  1  0  0  0  0
 11 27  2  0  0  0  0
 12 28  1  0  0  0  0
 13 14  2  0  0  0  0
 13 29  1  0  0  0  0
 14 30  1  0  0  0  0
 15 23  1  0  0  0  0
 15 26  2  0  0  0  0
 16 24  1  0  0  0  0
 16 28  2  0  0  0  0
 17 30  2  0  0  0  0
 17 31  1  0  0  0  0
 18 32  1  0  0  0  0
 19 32  1  0  0  0  0
 19 33  2  0  0  0  0
 19 35  1  0  0  0  0
 20 22  2  0  0  0  0
 20 40  1  0  0  0  0
 21 24  2  0  0  0  0
 21 41  1  0  0  0  0
 22 52  1  0  0  0  0
 23 25  2  0  0  0  0
 23 42  1  0  0  0  0
 24 43  1  0  0  0  0
 25 70  1  0  0  0  0
 26 76  1  0  0  0  0
 27 86  1  0  0  0  0
 28 87  1  0  0  0  0
 29 31  2  0  0  0  0
 29 86  1  0  0  0  0
 30 88  1  0  0  0  0
 31 89  1  0  0  0  0
 32 68  2  0  0  0  0
 33 69  1  0  0  0  0
 33 74  1  0  0  0  0
 34 70  1  0  0  0  0
 34 71  1  0  0  0  0
 34 79  2  0  0  0  0
 35 75  1  0  0  0  0
 35 81  2  0  0  0  0
 36 53  1  0  0  0  0
 36 77  1  0  0  0  0
 36 82  2  0  0  0  0
 37 64  1  0  0  0  0
 37 72  1  0  0  0  0
 37 83  2  0  0  0  0
 38 65  1  0  0  0  0
 38 78  1  0  0  0  0
 38 84  2  0  0  0  0
 39 73  1  0  0  0  0
 39 76  1  0  0  0  0
 39 85  2  0  0  0  0
 40 44  1  0  0  0  0
 41 53  1  0  0  0  0
 42 45  1  0  0  0  0
 43 72  1  0  0  0  0
 44 47  1  0  0  0  0
 45 49  1  0  0  0  0
 46 48  1  0  0  0  0
 46 50  1  0  0  0  0
 47 52  1  0  0  0  0
 48 54  1  0  0  0  0
 49 71  1  0  0  0  0
 50 73  1  0  0  0  0
 51 54  1  0  0  0  0
 51 73  1  0  0  0  0
 52 77  1  0  0  0  0
 53 72  1  0  0  0  0
 54 69  1  0  0  0  0
 55 65  1  0  0  0  0
 56 66  1  0  0  0  0
 57 67  1  0  0  0  0
 58 67  1  0  0  0  0
 59 67  1  0  0  0  0
 60 70  1  0  0  0  0
 61 80  1  0  0  0  0
 62 66  1  0  0  0  0
 62 71  1  0  0  0  0
 63 66  1  0  0  0  0
 63 87  1  0  0  0  0
 64 67  1  0  0  0  0
 64 78  1  0  0  0  0
 65 80  1  0  0  0  0
 68 69  1  0  0  0  0
M  CHG  2  79   1  80   1
M  ISO  4  39 100  63 101  76 100  87 101
M  END
> <Batch ID>
0023

> <Smiles>
CNC(C)C(=O)NC(C(=O)N1Cc2cc([101O:1][101CH2:1]C(C)CN3CCCc4cc([100NH:0][100C:0](=O)N5CCCC(n6nc(-c7ccc(Oc8ccc(F)cc8F)cc7)c(C(N)=O)c6N)C5)ccc4N(C)C3=N)ccc2CC1C(=O)NC1CCCc2ccccc21)C(C)(C)C

> <Shape>
0.213

> <Color>
0.045

> <Negative vol penalty>
0.000

$$$$

  -OEChem-04042321173D

 85 94  0     1  0  0  0  0  0999 V2000
  -27.0899  -34.6196   24.9649 C   0  0  0  0  0  0  0  0  0  0  0  0
  -27.4426  -33.3656   24.4764 C   0  0  0  0  0  0  0  0  0  0  0  0
  -23.5473  -13.8018   23.1445 C   0  0  0  0  0  0  0  0  0  0  0  0
  -25.3283  -14.5582   21.6977 C   0  0  0  0  0  0  0  0  0  0  0  0
  -25.7790  -34.8647   25.3713 C   0  0  0  0  0  0  0  0  0  0  0  0
  -26.4846  -32.3556   24.3951 C   0  0  0  0  0  0  0  0  0  0  0  0
  -26.6715  -29.8500   19.9983 C   0  0  0  0  0  0  0  0  0  0  0  0
  -23.2345  -12.7939   22.2325 C   0  0  0  0  0  0  0  0  0  0  0  0
  -25.0155  -13.5502   20.7858 C   0  0  0  0  0  0  0  0  0  0  0  0
  -27.6783  -28.8969   19.8509 C   0  0  0  0  0  0  0  0  0  0  0  0
  -24.4354   -9.7523   21.3726 C   0  0  0  0  0  0  0  0  0  0  0  0
  -24.2050   -8.4718   21.8754 C   0  0  0  0  0  0  0  0  0  0  0  0
  -26.0913  -27.1513   20.3539 C   0  0  0  0  0  0  0  0  0  0  0  0
  -28.4079  -23.7143   21.1023 C   0  0  0  0  0  0  0  0  0  0  0  0
  -28.0990  -24.5373   23.3527 C   0  0  0  0  0  0  0  0  0  0  0  0
  -21.9704   -8.5135   20.9578 C   0  0  0  0  0  0  0  0  0  0  0  0
  -24.5942  -14.6840   22.8771 C   0  0  0  0  0  0  0  0  0  0  0  0
  -25.8233  -15.6492   24.8933 C   0  0  0  0  0  0  0  0  0  0  0  0
  -24.8022  -33.8601   25.2860 C   0  0  0  0  0  0  0  0  0  0  0  0
  -25.3672  -29.4611   20.3359 C   0  0  0  0  0  0  0  0  0  0  0  0
  -25.1597  -32.5871   24.8021 C   0  0  0  0  0  0  0  0  0  0  0  0
  -25.0691  -28.1011   20.5025 C   0  0  0  0  0  0  0  0  0  0  0  0
  -27.2903  -22.8927   21.2493 C   0  0  0  0  0  0  0  0  0  0  0  0
  -28.8123  -24.5365   22.1541 C   0  0  0  0  0  0  0  0  0  0  0  0
  -26.5770  -22.8935   22.4480 C   0  0  0  0  0  0  0  0  0  0  0  0
  -23.9686  -12.6680   21.0532 C   0  0  0  0  0  0  0  0  0  0  0  0
  -27.3890  -27.5476   20.0315 C   0  0  0  0  0  0  0  0  0  0  0  0
  -23.4332  -10.4134   20.6624 C   0  0  0  0  0  0  0  0  0  0  0  0
  -22.9725   -7.8524   21.6680 C   0  0  0  0  0  0  0  0  0  0  0  0
  -26.9813  -23.7157   23.4997 C   0  0  0  0  0  0  0  0  0  0  0  0
  -22.2008   -9.7940   20.4550 C   0  0  0  0  0  0  0  0  0  0  0  0
  -24.9174  -15.7258   23.8185 C   0  0  0  0  0  0  0  0  0  0  0  0
  -25.7703  -16.8918   25.4763 C   0  0  0  0  0  0  0  0  0  0  0  0
  -26.6398  -14.5530   25.3261 C   0  0  0  0  0  0  0  0  0  0  0  0
  -23.4213  -30.0252   22.7852 C   0  0  0  0  0  0  0  0  0  0  0  0
  -21.2840  -28.4114   20.9550 C   0  0  0  0  0  0  0  0  0  0  0  0
  -20.7313  -26.1486   18.4608 C   0  0  0  0  0  0  0  0  0  0  0  0
  -24.3245  -22.3103   23.4136 C   0  0  0  0  0  0  0  0  0  0  0  0
  -23.4092  -34.1579   25.7816 C   0  0  0  0  0  0  0  0  0  0  0  0
  -24.2864  -30.4991   20.4651 C   0  0  0  0  0  0  0  0  0  0  0  0
  -23.6803  -27.6299   20.8457 C   0  0  0  0  0  0  0  0  0  0  0  0
  -22.3666  -33.1464   25.3125 C   0  0  0  0  0  0  0  0  0  0  0  0
  -22.8058  -20.5941   26.1386 C   0  0  0  0  0  0  0  0  0  0  0  0
  -31.8391  -26.6399   22.5163 C   0  0  0  0  0  0  0  0  0  0  0  0
  -22.8788  -31.7228   25.5066 C   0  0  0  0  0  0  0  0  0  0  0  0
  -23.2624  -19.1451   25.9541 C   0  0  0  0  0  0  0  0  0  0  0  0
  -31.9204  -26.1665   21.0737 C   0  0  0  0  0  0  0  0  0  0  0  0
  -30.7798  -25.7305   23.1307 C   0  0  0  0  0  0  0  0  0  0  0  0
  -22.5382  -21.2792   24.7996 C   0  0  0  0  0  0  0  0  0  0  0  0
  -24.0990  -19.7590   23.6497 C   0  0  0  0  0  0  0  0  0  0  0  0
  -24.1431  -31.4732   24.6755 C   0  0  1  0  0  0  0  0  0  0  0  0
  -23.1088  -30.0330   21.3155 C   0  0  1  0  0  0  0  0  0  0  0  0
  -24.4432  -19.0474   24.9684 C   0  0  2  0  0  0  0  0  0  0  0  0
  -30.4698  -25.8048   20.7251 C   0  0  2  0  0  0  0  0  0  0  0  0
  -26.8816  -22.0207   20.1067 C   0  0  0  0  0  0  0  0  0  0  0  0
  -18.8781  -25.0058   17.2129 C   0  0  0  0  0  0  0  0  0  0  0  0
  -20.7990  -26.5863   23.3515 C   0  0  0  0  0  0  0  0  0  0  0  0
  -19.7102  -24.9522   21.7983 C   0  0  0  0  0  0  0  0  0  0  0  0
  -18.7344  -27.2287   22.0949 C   0  0  0  0  0  0  0  0  0  0  0  0
  -21.6017  -27.3030   15.8784 C   0  0  0  0  0  0  0  0  0  0  0  0
  -29.7012  -27.0195   20.2065 C   0  0  0  0  0  0  0  0  0  1  0  0
  -20.8889  -26.9628   20.7988 C   0  0  1  0  0  0  0  0  0  0  0  0
  -19.8273  -26.1936   17.2420 C   0  0  2  0  0  0  0  0  0  0  0  0
  -20.0598  -26.4412   22.0063 C   0  0  0  0  0  0  0  0  0  0  0  0
  -24.3317  -16.9224   23.7221 N   0  0  0  0  0  0  0  0  0  0  0  0
  -24.8707  -17.6090   24.7439 N   0  0  0  0  0  0  0  0  0  0  0  0
  -29.9198  -25.3505   22.0082 N   0  0  3  0  0  0  0  0  0  0  0  0
  -22.6593  -28.6836   20.9674 N   0  0  0  0  0  0  0  0  0  0  0  0
  -23.7015  -21.1497   23.9193 N   0  0  0  0  0  0  0  0  0  0  0  0
  -26.4059  -17.4298   26.5388 N   0  0  0  0  0  0  0  0  0  0  0  0
  -26.5722  -13.3477   24.6140 N   0  0  0  0  0  0  0  0  0  0  0  0
  -25.4404  -22.0639   22.6144 N   0  0  0  0  0  0  0  0  0  0  0  0
  -23.8000  -31.2560   23.2864 N   0  0  0  0  0  0  0  0  0  0  0  0
  -20.2028  -26.8628   19.5152 N   0  0  0  0  0  0  0  0  0  0  0  0
  -20.6404  -26.1762   15.9932 N   0  3  0  0  0  0  0  0  0  0  0  0
  -27.3944  -14.6345   26.3248 O   0  0  0  0  0  0  0  0  0  0  0  0
  -23.3245  -28.9803   23.4179 O   0  0  0  0  0  0  0  0  0  0  0  0
  -20.4046  -29.2707   21.0548 O   0  0  0  0  0  0  0  0  0  0  0  0
  -21.7976  -25.5377   18.4770 O   0  0  0  0  0  0  0  0  0  0  0  0
  -23.9157  -23.4403   23.6927 O   0  0  0  0  0  0  0  0  0  0  0  0
  -23.6638  -11.6844   20.1632 O   0  0  0  0  0  0  0  0  0  0  0  0
  -28.3700  -26.6153   19.8888 O   0  0  0  0  0  0  0  0  0  1  0  0
  -22.7520   -6.6221   22.1496 F   0  0  0  0  0  0  0  0  0  0  0  0
  -26.3045  -23.7245   24.6571 F   0  0  0  0  0  0  0  0  0  0  0  0
  -21.2346  -10.4237   19.7725 F   0  0  0  0  0  0  0  0  0  0  0  0
  1  2  1  0  0  0  0
  1  5  2  0  0  0  0
  2  6  2  0  0  0  0
  3  8  2  0  0  0  0
  3 17  1  0  0  0  0
  4  9  1  0  0  0  0
  4 17  2  0  0  0  0
  5 19  1  0  0  0  0
  6 21  1  0  0  0  0
  7 10  2  0  0  0  0
  7 20  1  0  0  0  0
  8 26  1  0  0  0  0
  9 26  2  0  0  0  0
 10 27  1  0  0  0  0
 11 12  2  0  0  0  0
 11 28  1  0  0  0  0
 12 29  1  0  0  0  0
 13 22  1  0  0  0  0
 13 27  2  0  0  0  0
 14 23  2  0  0  0  0
 14 24  1  0  0  0  0
 15 24  2  0  0  0  0
 15 30  1  0  0  0  0
 16 29  2  0  0  0  0
 16 31  1  0  0  0  0
 17 32  1  0  0  0  0
 18 32  1  0  0  0  0
 18 33  2  0  0  0  0
 18 34  1  0  0  0  0
 19 21  2  0  0  0  0
 19 39  1  0  0  0  0
 20 22  2  0  0  0  0
 20 40  1  0  0  0  0
 21 51  1  0  0  0  0
 22 41  1  0  0  0  0
 23 25  1  0  0  0  0
 23 55  1  0  0  0  0
 24 67  1  0  0  0  0
 25 30  2  0  0  0  0
 25 72  1  0  0  0  0
 26 81  1  0  0  0  0
 27 82  1  0  0  0  0
 28 31  2  0  0  0  0
 28 81  1  0  0  0  0
 29 83  1  0  0  0  0
 30 84  1  0  0  0  0
 31 85  1  0  0  0  0
 32 65  2  0  0  0  0
 33 66  1  0  0  0  0
 33 70  1  0  0  0  0
 34 71  1  0  0  0  0
 34 76  2  0  0  0  0
 35 52  1  0  0  0  0
 35 73  1  0  0  0  0
 35 77  2  0  0  0  0
 36 62  1  0  0  0  0
 36 68  1  0  0  0  0
 36 78  2  0  0  0  0
 37 63  1  0  0  0  0
 37 74  1  0  0  0  0
 37 79  2  0  0  0  0
 38 69  1  0  0  0  0
 38 72  1  0  0  0  0
 38 80  2  0  0  0  0
 39 42  1  0  0  0  0
 40 52  1  0  0  0  0
 41 68  1  0  0  0  0
 42 45  1  0  0  0  0
 43 46  1  0  0  0  0
 43 49  1  0  0  0  0
 44 47  1  0  0  0  0
 44 48  1  0  0  0  0
 45 51  1  0  0  0  0
 46 53  1  0  0  0  0
 47 54  1  0  0  0  0
 48 67  1  0  0  0  0
 49 69  1  0  0  0  0
 50 53  1  0  0  0  0
 50 69  1  0  0  0  0
 51 73  1  0  0  0  0
 52 68  1  0  0  0  0
 53 66  1  0  0  0  0
 54 61  1  0  0  0  0
 54 67  1  0  0  0  0
 56 63  1  0  0  0  0
 57 64  1  0  0  0  0
 58 64  1  0  0  0  0
 59 64  1  0  0  0  0
 60 75  1  0  0  0  0
 61 82  1  0  0  0  0
 62 64  1  0  0  0  0
 62 74  1  0  0  0  0
 63 75  1  0  0  0  0
 65 66  1  0  0  0  0
M  CHG  1  75   1
M  ISO  4  38 100  61 101  72 100  82 101
M  END
> <Batch ID>
0023

> <Smiles>
CNC(C)C(=O)NC(C(=O)N1Cc2cc([101O:1][101CH2:1]C3CCCN3c3cc(C)c([100NH:0][100C:0](=O)N4CCCC(n5nc(-c6ccc(Oc7ccc(F)cc7F)cc6)c(C(N)=O)c5N)C4)c(F)c3)ccc2CC1C(=O)NC1CCCc2ccccc21)C(C)(C)C

> <Shape>
0.230

> <Color>
0.078

> <Negative vol penalty>
0.000

$$$$

  -OEChem-04042321173D

 87 96  0     1  0  0  0  0  0999 V2000
  -28.4787  -29.2378   12.2722 C   0  0  0  0  0  0  0  0  0  0  0  0
  -28.7251  -28.3221   13.2901 C   0  0  0  0  0  0  0  0  0  0  0  0
  -23.8525   -9.8809   22.1690 C   0  0  0  0  0  0  0  0  0  0  0  0
  -24.3215  -11.3809   24.0040 C   0  0  0  0  0  0  0  0  0  0  0  0
  -28.1629  -30.5591   12.5861 C   0  0  0  0  0  0  0  0  0  0  0  0
  -28.6569  -28.7274   14.6226 C   0  0  0  0  0  0  0  0  0  0  0  0
  -26.7219  -25.4021   19.3875 C   0  0  0  0  0  0  0  0  0  0  0  0
  -23.3376   -8.9449   23.0657 C   0  0  0  0  0  0  0  0  0  0  0  0
  -23.8065  -10.4448   24.9008 C   0  0  0  0  0  0  0  0  0  0  0  0
  -27.4035  -24.6750   20.3624 C   0  0  0  0  0  0  0  0  0  0  0  0
  -20.4671   -8.4599   24.7856 C   0  0  0  0  0  0  0  0  0  0  0  0
  -19.2635   -7.8381   24.4537 C   0  0  0  0  0  0  0  0  0  0  0  0
  -27.2668  -26.5632   21.8575 C   0  0  0  0  0  0  0  0  0  0  0  0
  -31.5319  -17.8095   24.1408 C   0  0  0  0  0  0  0  0  0  0  0  0
  -31.7172  -18.4953   21.8316 C   0  0  0  0  0  0  0  0  0  0  0  0
  -20.3611   -5.6864   24.5037 C   0  0  0  0  0  0  0  0  0  0  0  0
  -24.3446  -11.0989   22.6381 C   0  0  0  0  0  0  0  0  0  0  0  0
  -24.1717  -13.0916   21.0547 C   0  0  0  0  0  0  0  0  0  0  0  0
  -28.0812  -30.9784   13.9233 C   0  0  0  0  0  0  0  0  0  0  0  0
  -26.3165  -26.7211   19.6367 C   0  0  0  0  0  0  0  0  0  0  0  0
  -28.3409  -30.0558   14.9547 C   0  0  0  0  0  0  0  0  0  0  0  0
  -26.5780  -27.3040   20.8849 C   0  0  0  0  0  0  0  0  0  0  0  0
  -31.8135  -18.7916   23.1913 C   0  0  0  0  0  0  0  0  0  0  0  0
  -31.0576  -16.2345   22.3711 C   0  0  0  0  0  0  0  0  0  0  0  0
  -23.3145   -9.2267   24.4316 C   0  0  0  0  0  0  0  0  0  0  0  0
  -27.6786  -25.2565   21.5966 C   0  0  0  0  0  0  0  0  0  0  0  0
  -21.6178   -7.6949   24.9766 C   0  0  0  0  0  0  0  0  0  0  0  0
  -19.2104   -6.4514   24.3127 C   0  0  0  0  0  0  0  0  0  0  0  0
  -31.1540  -16.5309   23.7307 C   0  0  0  0  0  0  0  0  0  0  0  0
  -31.3393  -17.2167   21.4215 C   0  0  0  0  0  0  0  0  0  0  0  0
  -21.5648   -6.3082   24.8356 C   0  0  0  0  0  0  0  0  0  0  0  0
  -24.8772  -12.0661   21.7124 C   0  0  0  0  0  0  0  0  0  0  0  0
  -25.1213  -13.7278   20.2931 C   0  0  0  0  0  0  0  0  0  0  0  0
  -31.4644  -22.3109   24.5333 C   0  0  0  0  0  0  0  0  0  0  0  0
  -32.2622  -22.5173   25.5875 C   0  0  0  0  0  0  0  0  0  0  0  0
  -22.7823  -13.4382   21.1260 C   0  0  0  0  0  0  0  0  0  0  0  0
  -26.9799  -29.5522   18.3527 C   0  0  0  0  0  0  0  0  0  0  0  0
  -24.6670  -30.5787   20.3823 C   0  0  0  0  0  0  0  0  0  0  0  0
  -22.8984  -30.0675   23.2559 C   0  0  0  0  0  0  0  0  0  0  0  0
  -31.0510  -14.2780   20.7841 C   0  0  0  0  0  0  0  0  0  0  0  0
  -27.7828  -32.4282   14.2125 C   0  0  0  0  0  0  0  0  0  0  0  0
  -25.5587  -27.4828   18.5841 C   0  0  0  0  0  0  0  0  0  0  0  0
  -26.1463  -28.7099   21.2097 C   0  0  0  0  0  0  0  0  0  0  0  0
  -30.7336  -23.3722   23.7732 C   0  0  0  0  0  0  0  0  0  0  0  0
  -27.3630  -32.6873   15.6571 C   0  0  0  0  0  0  0  0  0  0  0  0
  -29.2599  -12.9182   18.0236 C   0  0  0  0  0  0  0  0  0  0  0  0
  -28.3009  -31.9695   16.6225 C   0  0  0  0  0  0  0  0  0  0  0  0
  -27.8668  -12.6444   18.5948 C   0  0  0  0  0  0  0  0  0  0  0  0
  -30.3579  -12.6400   19.0487 C   0  0  0  0  0  0  0  0  0  0  0  0
  -28.7963  -13.0467   20.9103 C   0  0  0  0  0  0  0  0  0  0  0  0
  -29.9792  -21.1961   23.1163 C   0  0  0  0  0  0  0  0  0  0  0  0
  -28.2522  -30.4513   16.4127 C   0  0  1  0  0  0  0  0  0  0  0  0
  -25.6457  -28.9954   18.7622 C   0  0  1  0  0  0  0  0  0  0  0  0
  -29.4694  -22.6071   23.3979 C   0  0  2  0  0  0  0  0  0  0  0  0
  -27.6537  -13.3747   19.9353 C   0  0  2  0  0  0  0  0  0  0  0  0
  -21.1012  -31.0975   24.6725 C   0  0  0  0  0  0  0  0  0  0  0  0
  -26.6705  -32.6275   21.4302 C   0  0  0  0  0  0  0  0  0  0  0  0
  -25.1875  -32.9566   23.4203 C   0  0  0  0  0  0  0  0  0  0  0  0
  -24.3449  -33.4988   21.1358 C   0  0  0  0  0  0  0  0  0  0  0  0
  -21.1228  -27.7250   22.9113 C   0  0  0  0  0  0  0  0  0  0  0  0
  -32.2197  -20.1668   23.6325 C   0  0  0  0  0  0  0  0  0  0  0  0
  -28.7315  -23.2166   22.2179 C   0  0  0  0  0  0  0  0  0  1  0  0
  -24.6392  -31.0789   21.8064 C   0  0  1  0  0  0  0  0  0  0  0  0
  -21.4093  -30.1238   23.5457 C   0  0  2  0  0  0  0  0  0  0  0  0
  -25.2205  -32.5146   21.9417 C   0  0  0  0  0  0  0  0  0  0  0  0
  -26.1748  -12.0481   21.3961 N   0  0  0  0  0  0  0  0  0  0  0  0
  -26.2921  -13.0701   20.5313 N   0  0  0  0  0  0  0  0  0  0  0  0
  -25.4138  -29.4160   20.1455 N   0  0  0  0  0  0  0  0  0  0  0  0
  -30.0917  -13.3684   20.2911 N   0  0  0  0  0  0  0  0  0  0  0  0
  -25.0606  -14.7800   19.4496 N   0  0  0  0  0  0  0  0  0  0  0  0
  -21.9465  -12.6806   21.9578 N   0  0  0  0  0  0  0  0  0  0  0  0
  -30.6738  -14.9357   21.9545 N   0  0  0  0  0  0  0  0  0  0  0  0
  -27.0602  -29.8956   17.0166 N   0  0  0  0  0  0  0  0  0  0  0  0
  -23.2581  -30.9484   22.2580 N   0  0  0  0  0  0  0  0  0  0  0  0
  -31.0733  -20.9784   24.1550 N   0  3  1  0  0  0  0  0  0  0  0  0
  -20.9067  -28.7767   23.9380 N   0  3  0  0  0  0  0  0  0  0  0  0
  -22.2931  -14.3811   20.4588 O   0  0  0  0  0  0  0  0  0  0  0  0
  -27.8701  -29.6635   19.1875 O   0  0  0  0  0  0  0  0  0  0  0  0
  -24.0429  -31.1928   19.5133 O   0  0  0  0  0  0  0  0  0  0  0  0
  -23.6663  -29.3198   23.8573 O   0  0  0  0  0  0  0  0  0  0  0  0
  -32.1162  -14.4803   20.1956 O   0  0  0  0  0  0  0  0  0  0  0  0
  -22.8119   -8.3136   25.3069 O   0  0  0  0  0  0  0  0  0  0  0  0
  -28.3444  -24.5493   22.5498 O   0  0  0  0  0  0  0  0  0  1  0  0
  -18.0542   -5.8543   23.9954 F   0  0  0  0  0  0  0  0  0  0  0  0
  -30.8851  -15.5947   24.6520 F   0  0  0  0  0  0  0  0  0  0  0  0
  -31.2511  -16.9432   20.1121 F   0  0  0  0  0  0  0  0  0  0  0  0
  -22.6667   -5.5680   25.0190 F   0  0  0  0  0  0  0  0  0  0  0  0
  1  2  1  0  0  0  0
  1  5  2  0  0  0  0
  2  6  2  0  0  0  0
  3  8  2  0  0  0  0
  3 17  1  0  0  0  0
  4  9  1  0  0  0  0
  4 17  2  0  0  0  0
  5 19  1  0  0  0  0
  6 21  1  0  0  0  0
  7 10  2  0  0  0  0
  7 20  1  0  0  0  0
  8 25  1  0  0  0  0
  9 25  2  0  0  0  0
 10 26  1  0  0  0  0
 11 12  2  0  0  0  0
 11 27  1  0  0  0  0
 12 28  1  0  0  0  0
 13 22  1  0  0  0  0
 13 26  2  0  0  0  0
 14 23  1  0  0  0  0
 14 29  2  0  0  0  0
 15 23  2  0  0  0  0
 15 30  1  0  0  0  0
 16 28  2  0  0  0  0
 16 31  1  0  0  0  0
 17 32  1  0  0  0  0
 18 32  1  0  0  0  0
 18 33  2  0  0  0  0
 18 36  1  0  0  0  0
 19 21  2  0  0  0  0
 19 41  1  0  0  0  0
 20 22  2  0  0  0  0
 20 42  1  0  0  0  0
 21 52  1  0  0  0  0
 22 43  1  0  0  0  0
 23 61  1  0  0  0  0
 24 29  1  0  0  0  0
 24 30  2  0  0  0  0
 24 72  1  0  0  0  0
 25 82  1  0  0  0  0
 26 83  1  0  0  0  0
 27 31  2  0  0  0  0
 27 82  1  0  0  0  0
 28 84  1  0  0  0  0
 29 85  1  0  0  0  0
 30 86  1  0  0  0  0
 31 87  1  0  0  0  0
 32 66  2  0  0  0  0
 33 67  1  0  0  0  0
 33 70  1  0  0  0  0
 34 35  2  0  0  0  0
 34 44  1  0  0  0  0
 34 75  1  0  0  0  0
 36 71  1  0  0  0  0
 36 77  2  0  0  0  0
 37 53  1  0  0  0  0
 37 73  1  0  0  0  0
 37 78  2  0  0  0  0
 38 63  1  0  0  0  0
 38 68  1  0  0  0  0
 38 79  2  0  0  0  0
 39 64  1  0  0  0  0
 39 74  1  0  0  0  0
 39 80  2  0  0  0  0
 40 69  1  0  0  0  0
 40 72  1  0  0  0  0
 40 81  2  0  0  0  0
 41 45  1  0  0  0  0
 42 53  1  0  0  0  0
 43 68  1  0  0  0  0
 44 54  1  0  0  0  0
 45 47  1  0  0  0  0
 46 48  1  0  0  0  0
 46 49  1  0  0  0  0
 47 52  1  0  0  0  0
 48 55  1  0  0  0  0
 49 69  1  0  0  0  0
 50 55  1  0  0  0  0
 50 69  1  0  0  0  0
 51 54  1  0  0  0  0
 51 75  1  0  0  0  0
 52 73  1  0  0  0  0
 53 68  1  0  0  0  0
 54 62  1  0  0  0  0
 55 67  1  0  0  0  0
 56 64  1  0  0  0  0
 57 65  1  0  0  0  0
 58 65  1  0  0  0  0
 59 65  1  0  0  0  0
 60 76  1  0  0  0  0
 61 75  1  0  0  0  0
 62 83  1  0  0  0  0
 63 65  1  0  0  0  0
 63 74  1  0  0  0  0
 64 76  1  0  0  0  0
 66 67  1  0  0  0  0
M  CHG  2  75   1  76   1
M  ISO  4  40 100  62 101  72 100  83 101
M  END
> <Batch ID>
0023

> <Smiles>
C=C1CC([101CH2:1][101O:1]c2ccc3c(c2)CN(C(=O)C(NC(=O)C(C)NC)C(C)(C)C)C(C(=O)NC2CCCc4ccccc42)C3)CN1Cc1cc(F)c([100NH:0][100C:0](=O)N2CCCC(n3nc(-c4ccc(Oc5ccc(F)cc5F)cc4)c(C(N)=O)c3N)C2)c(F)c1

> <Shape>
0.246

> <Color>
0.141

> <Negative vol penalty>
0.000

$$$$

  -OEChem-04042321173D

 85 94  0     1  0  0  0  0  0999 V2000
  -29.1959  -29.5403   28.0369 C   0  0  0  0  0  0  0  0  0  0  0  0
  -29.0712  -28.8287   26.8480 C   0  0  0  0  0  0  0  0  0  0  0  0
  -24.7726   -8.4459   21.4999 C   0  0  0  0  0  0  0  0  0  0  0  0
  -23.1484  -10.0485   20.7057 C   0  0  0  0  0  0  0  0  0  0  0  0
  -28.0924  -30.2063   28.5685 C   0  0  0  0  0  0  0  0  0  0  0  0
  -27.8424  -28.7818   26.1905 C   0  0  0  0  0  0  0  0  0  0  0  0
  -26.9079  -28.6297   20.1399 C   0  0  0  0  0  0  0  0  0  0  0  0
  -26.5022  -19.8402   20.1355 C   0  0  0  0  0  0  0  0  0  0  0  0
  -27.1521  -18.6099   20.0383 C   0  0  0  0  0  0  0  0  0  0  0  0
  -23.8176   -7.9044   22.3602 C   0  0  0  0  0  0  0  0  0  0  0  0
  -22.1933   -9.5069   21.5660 C   0  0  0  0  0  0  0  0  0  0  0  0
  -26.6400  -27.5834   19.2582 C   0  0  0  0  0  0  0  0  0  0  0  0
  -21.1796   -5.8000   22.1458 C   0  0  0  0  0  0  0  0  0  0  0  0
  -21.0756   -4.4104   22.2065 C   0  0  0  0  0  0  0  0  0  0  0  0
  -24.2799  -28.0531   19.4275 C   0  0  0  0  0  0  0  0  0  0  0  0
  -21.5992   -4.4742   24.5642 C   0  0  0  0  0  0  0  0  0  0  0  0
  -24.4380   -9.5181   20.6726 C   0  0  0  0  0  0  0  0  0  0  0  0
  -25.6907   -9.6911   18.4571 C   0  0  0  0  0  0  0  0  0  0  0  0
  -26.8519  -30.1755   27.9122 C   0  0  0  0  0  0  0  0  0  0  0  0
  -25.8613  -29.3898   20.6815 C   0  0  0  0  0  0  0  0  0  0  0  0
  -26.7208  -29.4469   26.7145 C   0  0  0  0  0  0  0  0  0  0  0  0
  -24.5374  -29.1100   20.3139 C   0  0  0  0  0  0  0  0  0  0  0  0
  -25.2233  -19.9976   19.6013 C   0  0  0  0  0  0  0  0  0  0  0  0
  -24.5944  -18.9246   18.9698 C   0  0  0  0  0  0  0  0  0  0  0  0
  -26.5232  -17.5369   19.4069 C   0  0  0  0  0  0  0  0  0  0  0  0
  -22.5279   -8.4348   22.3933 C   0  0  0  0  0  0  0  0  0  0  0  0
  -25.3257  -27.2931   18.9041 C   0  0  0  0  0  0  0  0  0  0  0  0
  -21.4935   -6.5268   23.2943 C   0  0  0  0  0  0  0  0  0  0  0  0
  -21.2854   -3.7475   23.4157 C   0  0  0  0  0  0  0  0  0  0  0  0
  -21.7033   -5.8639   24.5035 C   0  0  0  0  0  0  0  0  0  0  0  0
  -25.2443  -17.6942   18.8726 C   0  0  0  0  0  0  0  0  0  0  0  0
  -25.4243  -10.0783   19.7841 C   0  0  0  0  0  0  0  0  0  0  0  0
  -26.7070  -10.5226   18.0543 C   0  0  0  0  0  0  0  0  0  0  0  0
  -25.0747   -8.6710   17.6600 C   0  0  0  0  0  0  0  0  0  0  0  0
  -24.7659  -29.9287   23.6163 C   0  0  0  0  0  0  0  0  0  0  0  0
  -22.8355  -32.0403   22.0875 C   0  0  0  0  0  0  0  0  0  0  0  0
  -21.3034  -32.9930   19.1906 C   0  0  0  0  0  0  0  0  0  0  0  0
  -28.4564  -15.9670   19.7873 C   0  0  0  0  0  0  0  0  0  0  0  0
  -25.6757  -30.8717   28.5499 C   0  0  0  0  0  0  0  0  0  0  0  0
  -26.1688  -30.5321   21.6104 C   0  0  0  0  0  0  0  0  0  0  0  0
  -23.3794  -29.9091   20.8516 C   0  0  0  0  0  0  0  0  0  0  0  0
  -24.5027  -31.0831   27.5962 C   0  0  0  0  0  0  0  0  0  0  0  0
  -30.4247  -13.0001   19.7789 C   0  0  0  0  0  0  0  0  0  0  0  0
  -24.2094  -29.8038   26.8189 C   0  0  0  0  0  0  0  0  0  0  0  0
  -29.3905  -11.8792   19.6524 C   0  0  0  0  0  0  0  0  0  0  0  0
  -29.9138  -14.1478   20.6482 C   0  0  0  0  0  0  0  0  0  0  0  0
  -27.5760  -13.5739   20.1243 C   0  0  0  0  0  0  0  0  0  0  0  0
  -25.8712  -22.5679   18.0720 C   0  0  0  0  0  0  0  0  0  0  0  0
  -24.0788  -23.4793   18.6387 C   0  0  0  0  0  0  0  0  0  0  0  0
  -25.4107  -29.3931   25.9590 C   0  0  1  0  0  0  0  0  0  0  0  0
  -24.9903  -30.9112   22.5018 C   0  0  1  0  0  0  0  0  0  0  0  0
  -25.2134  -23.9094   17.6847 C   0  0  0  0  0  0  0  0  0  0  0  0
  -28.0202  -12.4247   19.2047 C   0  0  2  0  0  0  0  0  0  0  0  0
  -23.2250  -19.0734   18.3920 C   0  0  0  0  0  0  0  0  0  0  0  0
  -19.7586  -34.7385   18.2610 C   0  0  0  0  0  0  0  0  0  0  0  0
  -20.4696  -30.6573   23.4291 C   0  0  0  0  0  0  0  0  0  0  0  0
  -18.9641  -31.7791   21.7728 C   0  0  0  0  0  0  0  0  0  0  0  0
  -20.3157  -33.1524   23.3571 C   0  0  0  0  0  0  0  0  0  0  0  0
  -23.3437  -33.9410   17.2677 C   0  0  0  0  0  0  0  0  0  0  0  0
  -24.5448  -21.3306   19.7180 C   0  0  0  0  0  0  0  0  0  0  0  0
  -25.9687  -25.1706   18.0453 C   0  0  0  0  0  0  0  0  0  1  0  0
  -21.4715  -31.9701   21.4445 C   0  0  1  0  0  0  0  0  0  0  0  0
  -21.2070  -34.3405   18.4981 C   0  0  2  0  0  0  0  0  0  0  0  0
  -20.3267  -31.8732   22.4921 C   0  0  0  0  0  0  0  0  0  0  0  0
  -26.2081  -11.0780   20.1968 N   0  0  0  0  0  0  0  0  0  0  0  0
  -26.9771  -11.3259   19.1229 N   0  0  0  0  0  0  0  0  0  0  0  0
  -23.7310  -31.0119   21.7614 N   0  0  0  0  0  0  0  0  0  0  0  0
  -28.6141  -14.6159   20.1619 N   0  0  0  0  0  0  0  0  0  0  0  0
  -27.3869  -10.6377   16.8937 N   0  0  0  0  0  0  0  0  0  0  0  0
  -24.0454   -7.9087   18.2291 N   0  0  0  0  0  0  0  0  0  0  0  0
  -27.1862  -16.2884   19.3097 N   0  0  0  0  0  0  0  0  0  0  0  0
  -25.4804  -30.2087   24.7655 N   0  0  0  0  0  0  0  0  0  0  0  0
  -21.3767  -33.1272   20.5610 N   0  0  0  0  0  0  0  0  0  0  0  0
  -24.5263  -22.0849   18.4458 N   0  3  0  0  0  0  0  0  0  0  0  0
  -21.9041  -34.2973   17.1816 N   0  3  0  0  0  0  0  0  0  0  0  0
  -25.4376   -8.4312   16.4834 O   0  0  0  0  0  0  0  0  0  0  0  0
  -24.0000  -28.9872   23.4467 O   0  0  0  0  0  0  0  0  0  0  0  0
  -23.0993  -32.9771   22.8455 O   0  0  0  0  0  0  0  0  0  0  0  0
  -21.3092  -31.9279   18.5775 O   0  0  0  0  0  0  0  0  0  0  0  0
  -29.3878  -16.7729   19.8574 O   0  0  0  0  0  0  0  0  0  0  0  0
  -21.5957   -7.9064   23.2325 O   0  0  0  0  0  0  0  0  0  0  0  0
  -25.0614  -26.2721   18.0442 O   0  0  0  0  0  0  0  0  0  1  0  0
  -21.1839   -2.4132   23.4742 F   0  0  0  0  0  0  0  0  0  0  0  0
  -22.0040   -6.5568   25.6104 F   0  0  0  0  0  0  0  0  0  0  0  0
  -24.6385  -16.6628   18.2648 F   0  0  0  0  0  0  0  0  0  0  0  0
  1  2  1  0  0  0  0
  1  5  2  0  0  0  0
  2  6  2  0  0  0  0
  3 10  2  0  0  0  0
  3 17  1  0  0  0  0
  4 11  1  0  0  0  0
  4 17  2  0  0  0  0
  5 19  1  0  0  0  0
  6 21  1  0  0  0  0
  7 12  2  0  0  0  0
  7 20  1  0  0  0  0
  8  9  2  0  0  0  0
  8 23  1  0  0  0  0
  9 25  1  0  0  0  0
 10 26  1  0  0  0  0
 11 26  2  0  0  0  0
 12 27  1  0  0  0  0
 13 14  2  0  0  0  0
 13 28  1  0  0  0  0
 14 29  1  0  0  0  0
 15 22  1  0  0  0  0
 15 27  2  0  0  0  0
 16 29  2  0  0  0  0
 16 30  1  0  0  0  0
 17 32  1  0  0  0  0
 18 32  1  0  0  0  0
 18 33  2  0  0  0  0
 18 34  1  0  0  0  0
 19 21  2  0  0  0  0
 19 39  1  0  0  0  0
 20 22  2  0  0  0  0
 20 40  1  0  0  0  0
 21 50  1  0  0  0  0
 22 41  1  0  0  0  0
 23 24  2  0  0  0  0
 23 60  1  0  0  0  0
 24 31  1  0  0  0  0
 24 54  1  0  0  0  0
 25 31  2  0  0  0  0
 25 71  1  0  0  0  0
 26 81  1  0  0  0  0
 27 82  1  0  0  0  0
 28 30  2  0  0  0  0
 28 81  1  0  0  0  0
 29 83  1  0  0  0  0
 30 84  1  0  0  0  0
 31 85  1  0  0  0  0
 32 65  2  0  0  0  0
 33 66  1  0  0  0  0
 33 69  1  0  0  0  0
 34 70  1  0  0  0  0
 34 76  2  0  0  0  0
 35 51  1  0  0  0  0
 35 72  1  0  0  0  0
 35 77  2  0  0  0  0
 36 62  1  0  0  0  0
 36 67  1  0  0  0  0
 36 78  2  0  0  0  0
 37 63  1  0  0  0  0
 37 73  1  0  0  0  0
 37 79  2  0  0  0  0
 38 68  1  0  0  0  0
 38 71  1  0  0  0  0
 38 80  2  0  0  0  0
 39 42  1  0  0  0  0
 40 51  1  0  0  0  0
 41 67  1  0  0  0  0
 42 44  1  0  0  0  0
 43 45  1  0  0  0  0
 43 46  1  0  0  0  0
 44 50  1  0  0  0  0
 45 53  1  0  0  0  0
 46 68  1  0  0  0  0
 47 53  1  0  0  0  0
 47 68  1  0  0  0  0
 48 52  1  0  0  0  0
 48 74  1  0  0  0  0
 49 52  1  0  0  0  0
 49 74  1  0  0  0  0
 50 72  1  0  0  0  0
 51 67  1  0  0  0  0
 52 61  1  0  0  0  0
 53 66  1  0  0  0  0
 55 63  1  0  0  0  0
 56 64  1  0  0  0  0
 57 64  1  0  0  0  0
 58 64  1  0  0  0  0
 59 75  1  0  0  0  0
 60 74  1  0  0  0  0
 61 82  1  0  0  0  0
 62 64  1  0  0  0  0
 62 73  1  0  0  0  0
 63 75  1  0  0  0  0
 65 66  1  0  0  0  0
M  CHG  2  74   1  75   1
M  ISO  4  38 100  61 101  71 100  82 101
M  END
> <Batch ID>
0023

> <Smiles>
CNC(C)C(=O)NC(C(=O)N1Cc2cc([101O:1][101CH2:1]C3CN(Cc4ccc([100NH:0][100C:0](=O)N5CCCC(n6nc(-c7ccc(Oc8ccc(F)cc8F)cc7)c(C(N)=O)c6N)C5)c(F)c4C)C3)ccc2CC1C(=O)NC1CCCc2ccccc21)C(C)(C)C

> <Shape>
0.227

> <Color>
0.108

> <Negative vol penalty>
0.000

$$$$

  -OEChem-04042321173D

 86 95  0     1  0  0  0  0  0999 V2000
  -22.3021  -34.2971   23.1024 C   0  0  0  0  0  0  0  0  0  0  0  0
  -23.3514  -33.3939   22.9658 C   0  0  0  0  0  0  0  0  0  0  0  0
  -23.9371  -13.8242   22.9807 C   0  0  0  0  0  0  0  0  0  0  0  0
  -23.2958  -13.2169   20.7320 C   0  0  0  0  0  0  0  0  0  0  0  0
  -21.0234  -33.8366   23.4134 C   0  0  0  0  0  0  0  0  0  0  0  0
  -23.1227  -32.0295   23.1410 C   0  0  0  0  0  0  0  0  0  0  0  0
  -25.3361  -29.2131   19.5615 C   0  0  0  0  0  0  0  0  0  0  0  0
  -30.5525  -22.9189   18.6250 C   0  0  0  0  0  0  0  0  0  0  0  0
  -30.4091  -21.5315   18.6375 C   0  0  0  0  0  0  0  0  0  0  0  0
  -23.3634  -12.6475   23.4622 C   0  0  0  0  0  0  0  0  0  0  0  0
  -22.7221  -12.0402   21.2134 C   0  0  0  0  0  0  0  0  0  0  0  0
  -26.7072  -28.9915   19.6829 C   0  0  0  0  0  0  0  0  0  0  0  0
  -23.7714   -8.9886   22.2171 C   0  0  0  0  0  0  0  0  0  0  0  0
  -24.0363   -7.8087   21.5220 C   0  0  0  0  0  0  0  0  0  0  0  0
  -26.2663  -26.8075   20.6074 C   0  0  0  0  0  0  0  0  0  0  0  0
  -21.6733   -7.5215   21.1089 C   0  0  0  0  0  0  0  0  0  0  0  0
  -23.9032  -14.1090   21.6156 C   0  0  0  0  0  0  0  0  0  0  0  0
  -24.1458  -16.6439   21.4633 C   0  0  0  0  0  0  0  0  0  0  0  0
  -20.7769  -32.4650   23.5830 C   0  0  0  0  0  0  0  0  0  0  0  0
  -24.4181  -28.2362   19.9730 C   0  0  0  0  0  0  0  0  0  0  0  0
  -21.8397  -31.5503   23.4558 C   0  0  0  0  0  0  0  0  0  0  0  0
  -24.8841  -27.0181   20.4878 C   0  0  0  0  0  0  0  0  0  0  0  0
  -30.2273  -23.6640   19.7585 C   0  0  0  0  0  0  0  0  0  0  0  0
  -29.9404  -20.8892   19.7835 C   0  0  0  0  0  0  0  0  0  0  0  0
  -22.7559  -11.7555   22.5785 C   0  0  0  0  0  0  0  0  0  0  0  0
  -27.1725  -27.7897   20.2086 C   0  0  0  0  0  0  0  0  0  0  0  0
  -22.4574   -9.4350   22.3582 C   0  0  0  0  0  0  0  0  0  0  0  0
  -22.9873   -7.0752   20.9679 C   0  0  0  0  0  0  0  0  0  0  0  0
  -21.4084   -8.7015   21.8041 C   0  0  0  0  0  0  0  0  0  0  0  0
  -29.7586  -23.0216   20.9045 C   0  0  0  0  0  0  0  0  0  0  0  0
  -29.6152  -21.6342   20.9171 C   0  0  0  0  0  0  0  0  0  0  0  0
  -24.4952  -15.3246   21.1178 C   0  0  0  0  0  0  0  0  0  0  0  0
  -24.9962  -17.4291   20.7239 C   0  0  0  0  0  0  0  0  0  0  0  0
  -30.2655  -25.9514   18.6777 C   0  0  0  0  0  0  0  0  0  0  0  0
  -29.8914  -25.7588   17.4038 C   0  0  0  0  0  0  0  0  0  0  0  0
  -23.1424  -17.1171   22.3715 C   0  0  0  0  0  0  0  0  0  0  0  0
  -22.1178  -28.1003   22.1624 C   0  0  0  0  0  0  0  0  0  0  0  0
  -21.5224  -25.2199   20.7945 C   0  0  0  0  0  0  0  0  0  0  0  0
  -23.4630  -22.4486   19.5409 C   0  0  0  0  0  0  0  0  0  0  0  0
  -30.0705  -18.5953   18.7503 C   0  0  0  0  0  0  0  0  0  0  0  0
  -19.3878  -32.0189   23.9650 C   0  0  0  0  0  0  0  0  0  0  0  0
  -22.9427  -28.4800   19.8106 C   0  0  0  0  0  0  0  0  0  0  0  0
  -23.9402  -25.9290   20.9252 C   0  0  0  0  0  0  0  0  0  0  0  0
  -19.1517  -30.5240   23.7655 C   0  0  0  0  0  0  0  0  0  0  0  0
  -28.1277  -16.2293   16.9323 C   0  0  0  0  0  0  0  0  0  0  0  0
  -20.3161  -29.7191   24.3340 C   0  0  0  0  0  0  0  0  0  0  0  0
  -26.9807  -15.8915   17.8876 C   0  0  0  0  0  0  0  0  0  0  0  0
  -31.3094  -27.0582   20.5137 C   0  0  0  0  0  0  0  0  0  0  0  0
  -29.4434  -16.4427   17.6789 C   0  0  0  0  0  0  0  0  0  0  0  0
  -30.6967  -25.7440   20.9991 C   0  0  0  0  0  0  0  0  0  0  0  0
  -28.2372  -17.0805   19.7301 C   0  0  0  0  0  0  0  0  0  0  0  0
  -21.6263  -30.0605   23.6139 C   0  0  1  0  0  0  0  0  0  0  0  0
  -30.6072  -27.3490   19.1796 C   0  0  2  0  0  0  0  0  0  0  0  0
  -22.0895  -27.6209   20.7387 C   0  0  1  0  0  0  0  0  0  0  0  0
  -26.8776  -16.9206   19.0304 C   0  0  2  0  0  0  0  0  0  0  0  0
  -22.9248  -20.7447   17.7790 C   0  0  0  0  0  0  0  0  0  0  0  0
  -20.5637  -23.5214   23.1409 C   0  0  0  0  0  0  0  0  0  0  0  0
  -21.5287  -21.5163   21.9936 C   0  0  0  0  0  0  0  0  0  0  0  0
  -19.6893  -22.8065   20.9096 C   0  0  0  0  0  0  0  0  0  0  0  0
  -25.9130  -23.0886   18.0091 C   0  0  0  0  0  0  0  0  0  0  0  0
  -29.3609  -28.2113   19.3787 C   0  0  0  0  0  0  0  0  0  1  0  0
  -22.0079  -23.8084   21.0202 C   0  0  1  0  0  0  0  0  0  0  0  0
  -23.6432  -22.0491   18.0875 C   0  0  2  0  0  0  0  0  0  0  0  0
  -20.9638  -22.9356   21.7721 C   0  0  0  0  0  0  0  0  0  0  0  0
  -25.4899  -15.2709   20.2280 N   0  0  0  0  0  0  0  0  0  0  0  0
  -25.7728  -16.5661   20.0081 N   0  0  0  0  0  0  0  0  0  0  0  0
  -30.3729  -25.0633   19.7430 N   0  0  0  0  0  0  0  0  0  0  0  0
  -22.5068  -26.2174   20.7524 N   0  0  0  0  0  0  0  0  0  0  0  0
  -29.2703  -17.4332   18.7437 N   0  0  0  0  0  0  0  0  0  0  0  0
  -25.1480  -18.7667   20.6227 N   0  0  0  0  0  0  0  0  0  0  0  0
  -21.8543  -17.3610   21.8759 N   0  0  0  0  0  0  0  0  0  0  0  0
  -29.7939  -19.4798   19.7922 N   0  0  0  0  0  0  0  0  0  0  0  0
  -21.6822  -29.4014   22.3268 N   0  0  0  0  0  0  0  0  0  0  0  0
  -22.3851  -23.2919   19.7089 N   0  0  0  0  0  0  0  0  0  0  0  0
  -25.0896  -21.8746   17.7738 N   0  3  0  0  0  0  0  0  0  0  0  0
  -23.3853  -17.3335   23.5830 O   0  0  0  0  0  0  0  0  0  0  0  0
  -22.5046  -27.3452   23.0466 O   0  0  0  0  0  0  0  0  0  0  0  0
  -20.3149  -25.4288   20.6534 O   0  0  0  0  0  0  0  0  0  0  0  0
  -24.2021  -22.0493   20.4381 O   0  0  0  0  0  0  0  0  0  0  0  0
  -30.9185  -18.8043   17.8790 O   0  0  0  0  0  0  0  0  0  0  0  0
  -22.1962  -10.6070   23.0479 O   0  0  0  0  0  0  0  0  0  0  0  0
  -28.5103  -27.5711   20.3288 O   0  0  0  0  0  0  0  0  0  1  0  0
  -23.2419   -5.9429   20.2990 F   0  0  0  0  0  0  0  0  0  0  0  0
  -20.1441   -9.1259   21.9353 F   0  0  0  0  0  0  0  0  0  0  0  0
  -29.4431  -23.7278   21.9995 F   0  0  0  0  0  0  0  0  0  0  0  0
  -29.1630  -21.0265   22.0232 F   0  0  0  0  0  0  0  0  0  0  0  0
  1  2  1  0  0  0  0
  1  5  2  0  0  0  0
  2  6  2  0  0  0  0
  3 10  2  0  0  0  0
  3 17  1  0  0  0  0
  4 11  1  0  0  0  0
  4 17  2  0  0  0  0
  5 19  1  0  0  0  0
  6 21  1  0  0  0  0
  7 12  2  0  0  0  0
  7 20  1  0  0  0  0
  8  9  2  0  0  0  0
  8 23  1  0  0  0  0
  9 24  1  0  0  0  0
 10 25  1  0  0  0  0
 11 25  2  0  0  0  0
 12 26  1  0  0  0  0
 13 14  2  0  0  0  0
 13 27  1  0  0  0  0
 14 28  1  0  0  0  0
 15 22  1  0  0  0  0
 15 26  2  0  0  0  0
 16 28  2  0  0  0  0
 16 29  1  0  0  0  0
 17 32  1  0  0  0  0
 18 32  1  0  0  0  0
 18 33  2  0  0  0  0
 18 36  1  0  0  0  0
 19 21  2  0  0  0  0
 19 41  1  0  0  0  0
 20 22  2  0  0  0  0
 20 42  1  0  0  0  0
 21 52  1  0  0  0  0
 22 43  1  0  0  0  0
 23 30  2  0  0  0  0
 23 67  1  0  0  0  0
 24 31  2  0  0  0  0
 24 72  1  0  0  0  0
 25 81  1  0  0  0  0
 26 82  1  0  0  0  0
 27 29  2  0  0  0  0
 27 81  1  0  0  0  0
 28 83  1  0  0  0  0
 29 84  1  0  0  0  0
 30 31  1  0  0  0  0
 30 85  1  0  0  0  0
 31 86  1  0  0  0  0
 32 65  2  0  0  0  0
 33 66  1  0  0  0  0
 33 70  1  0  0  0  0
 34 35  2  0  0  0  0
 34 53  1  0  0  0  0
 34 67  1  0  0  0  0
 36 71  1  0  0  0  0
 36 76  2  0  0  0  0
 37 54  1  0  0  0  0
 37 73  1  0  0  0  0
 37 77  2  0  0  0  0
 38 62  1  0  0  0  0
 38 68  1  0  0  0  0
 38 78  2  0  0  0  0
 39 63  1  0  0  0  0
 39 74  1  0  0  0  0
 39 79  2  0  0  0  0
 40 69  1  0  0  0  0
 40 72  1  0  0  0  0
 40 80  2  0  0  0  0
 41 44  1  0  0  0  0
 42 54  1  0  0  0  0
 43 68  1  0  0  0  0
 44 46  1  0  0  0  0
 45 47  1  0  0  0  0
 45 49  1  0  0  0  0
 46 52  1  0  0  0  0
 47 55  1  0  0  0  0
 48 50  1  0  0  0  0
 48 53  1  0  0  0  0
 49 69  1  0  0  0  0
 50 67  1  0  0  0  0
 51 55  1  0  0  0  0
 51 69  1  0  0  0  0
 52 73  1  0  0  0  0
 53 61  1  0  0  0  0
 54 68  1  0  0  0  0
 55 66  1  0  0  0  0
 56 63  1  0  0  0  0
 57 64  1  0  0  0  0
 58 64  1  0  0  0  0
 59 64  1  0  0  0  0
 60 75  1  0  0  0  0
 61 82  1  0  0  0  0
 62 64  1  0  0  0  0
 62 74  1  0  0  0  0
 63 75  1  0  0  0  0
 65 66  1  0  0  0  0
M  CHG  1  75   1
M  ISO  4  40 100  61 101  72 100  82 101
M  END
> <Batch ID>
0023

> <Smiles>
C=C1C([101CH2:1][101O:1]c2ccc3c(c2)CN(C(=O)C(NC(=O)C(C)NC)C(C)(C)C)C(C(=O)NC2CCCc4ccccc42)C3)CCN1c1ccc([100NH:0][100C:0](=O)N2CCCC(n3nc(-c4ccc(Oc5ccc(F)cc5F)cc4)c(C(N)=O)c3N)C2)c(F)c1F

> <Shape>
0.237

> <Color>
0.068

> <Negative vol penalty>
0.000

$$$$

  -OEChem-04042321173D

 86 95  0     1  0  0  0  0  0999 V2000
  -33.0241  -24.8758   19.0848 C   0  0  0  0  0  0  0  0  0  0  0  0
  -31.6849  -24.7503   19.4400 C   0  0  0  0  0  0  0  0  0  0  0  0
  -22.9893  -10.0278   20.0555 C   0  0  0  0  0  0  0  0  0  0  0  0
  -24.4418   -9.4019   21.8819 C   0  0  0  0  0  0  0  0  0  0  0  0
  -33.8059  -25.8768   19.6600 C   0  0  0  0  0  0  0  0  0  0  0  0
  -31.1269  -25.6251   20.3715 C   0  0  0  0  0  0  0  0  0  0  0  0
  -26.5864  -27.3507   18.9393 C   0  0  0  0  0  0  0  0  0  0  0  0
  -24.9938  -20.5516   21.7114 C   0  0  0  0  0  0  0  0  0  0  0  0
  -25.8049  -19.4197   21.6323 C   0  0  0  0  0  0  0  0  0  0  0  0
  -21.9566   -9.2794   20.6204 C   0  0  0  0  0  0  0  0  0  0  0  0
  -23.4091   -8.6536   22.4468 C   0  0  0  0  0  0  0  0  0  0  0  0
  -25.4989  -26.4938   19.1033 C   0  0  0  0  0  0  0  0  0  0  0  0
  -21.9696   -5.6325   21.9648 C   0  0  0  0  0  0  0  0  0  0  0  0
  -22.2771   -4.3565   22.4367 C   0  0  0  0  0  0  0  0  0  0  0  0
  -24.8930  -27.6598   21.1263 C   0  0  0  0  0  0  0  0  0  0  0  0
  -23.5068  -19.6016   20.0612 C   0  0  0  0  0  0  0  0  0  0  0  0
  -21.5739   -5.0072   24.6546 C   0  0  0  0  0  0  0  0  0  0  0  0
  -24.2320  -10.0890   20.6863 C   0  0  0  0  0  0  0  0  0  0  0  0
  -25.8840  -10.6817   18.8350 C   0  0  0  0  0  0  0  0  0  0  0  0
  -33.2547  -26.7704   20.5919 C   0  0  0  0  0  0  0  0  0  0  0  0
  -26.8421  -28.3634   19.8750 C   0  0  0  0  0  0  0  0  0  0  0  0
  -31.9023  -26.6382   20.9608 C   0  0  0  0  0  0  0  0  0  0  0  0
  -25.9829  -28.5298   20.9705 C   0  0  0  0  0  0  0  0  0  0  0  0
  -23.8447  -20.6426   20.9259 C   0  0  0  0  0  0  0  0  0  0  0  0
  -25.4671  -18.3787   20.7676 C   0  0  0  0  0  0  0  0  0  0  0  0
  -22.1664   -8.5923   21.8160 C   0  0  0  0  0  0  0  0  0  0  0  0
  -24.6536  -26.6465   20.1985 C   0  0  0  0  0  0  0  0  0  0  0  0
  -21.4644   -6.5960   22.8378 C   0  0  0  0  0  0  0  0  0  0  0  0
  -22.0792   -4.0438   23.7815 C   0  0  0  0  0  0  0  0  0  0  0  0
  -24.3180  -18.4696   19.9820 C   0  0  0  0  0  0  0  0  0  0  0  0
  -21.2665   -6.2834   24.1827 C   0  0  0  0  0  0  0  0  0  0  0  0
  -25.2993  -10.8614   20.1030 C   0  0  0  0  0  0  0  0  0  0  0  0
  -26.8440  -11.6609   18.7578 C   0  0  0  0  0  0  0  0  0  0  0  0
  -23.5552  -23.0748   21.3233 C   0  0  0  0  0  0  0  0  0  0  0  0
  -25.5859   -9.7161   17.8180 C   0  0  0  0  0  0  0  0  0  0  0  0
  -29.2375  -29.0373   21.8527 C   0  0  0  0  0  0  0  0  0  0  0  0
  -27.5140  -31.7306   22.3984 C   0  0  0  0  0  0  0  0  0  0  0  0
  -24.0394  -32.5849   22.8614 C   0  0  0  0  0  0  0  0  0  0  0  0
  -27.4674  -16.9840   21.3999 C   0  0  0  0  0  0  0  0  0  0  0  0
  -34.1512  -27.8065   21.2221 C   0  0  0  0  0  0  0  0  0  0  0  0
  -28.0038  -29.2963   19.6694 C   0  0  0  0  0  0  0  0  0  0  0  0
  -26.2020  -29.6142   21.9926 C   0  0  0  0  0  0  0  0  0  0  0  0
  -33.3878  -28.9286   21.9209 C   0  0  0  0  0  0  0  0  0  0  0  0
  -20.6558  -22.7335   21.0651 C   0  0  0  0  0  0  0  0  0  0  0  0
  -29.7655  -14.2669   21.5160 C   0  0  0  0  0  0  0  0  0  0  0  0
  -32.2758  -28.3550   22.7934 C   0  0  0  0  0  0  0  0  0  0  0  0
  -21.2678  -24.1127   20.9468 C   0  0  0  0  0  0  0  0  0  0  0  0
  -28.9358  -13.0701   21.0456 C   0  0  0  0  0  0  0  0  0  0  0  0
  -21.6188  -21.6925   20.5214 C   0  0  0  0  0  0  0  0  0  0  0  0
  -28.9395  -15.2306   22.3662 C   0  0  0  0  0  0  0  0  0  0  0  0
  -26.8571  -14.4883   21.2789 C   0  0  0  0  0  0  0  0  0  0  0  0
  -31.2544  -27.5835   21.9490 C   0  0  1  0  0  0  0  0  0  0  0  0
  -22.5533  -24.1491   21.7595 C   0  0  2  0  0  0  0  0  0  0  0  0
  -28.4668  -29.9672   20.9589 C   0  0  1  0  0  0  0  0  0  0  0  0
  -27.6292  -13.5227   20.3650 C   0  0  2  0  0  0  0  0  0  0  0  0
  -22.8118  -34.7268   22.4108 C   0  0  0  0  0  0  0  0  0  0  0  0
  -28.0813  -32.3353   25.3348 C   0  0  0  0  0  0  0  0  0  0  0  0
  -25.8017  -33.3585   25.4924 C   0  0  0  0  0  0  0  0  0  0  0  0
  -27.5018  -34.3361   23.9508 C   0  0  0  0  0  0  0  0  0  0  0  0
  -22.0633  -31.2234   21.1292 C   0  0  0  0  0  0  0  0  0  0  0  0
  -23.1738  -25.5452   21.6996 C   0  0  0  0  0  0  0  0  0  1  0  0
  -26.4244  -32.1249   23.3659 C   0  0  1  0  0  0  0  0  0  0  0  0
  -23.1516  -33.3396   21.8883 C   0  0  2  0  0  0  0  0  0  0  0  0
  -26.9555  -33.0118   24.5273 C   0  0  0  0  0  0  0  0  0  0  0  0
  -25.8426  -11.8749   20.7824 N   0  0  0  0  0  0  0  0  0  0  0  0
  -26.7788  -12.3409   19.9383 N   0  0  0  0  0  0  0  0  0  0  0  0
  -23.0033  -21.8172   21.0074 N   0  0  0  0  0  0  0  0  0  0  0  0
  -27.3551  -30.4972   21.7510 N   0  0  0  0  0  0  0  0  0  0  0  0
  -27.7193  -15.6195   21.6557 N   0  0  0  0  0  0  0  0  0  0  0  0
  -27.7292  -11.9980   17.7959 N   0  0  0  0  0  0  0  0  0  0  0  0
  -24.5696   -8.7820   18.0608 N   0  0  0  0  0  0  0  0  0  0  0  0
  -26.2934  -17.2303   20.6890 N   0  0  0  0  0  0  0  0  0  0  0  0
  -30.3676  -28.5008   21.2659 N   0  0  0  0  0  0  0  0  0  0  0  0
  -25.3762  -32.7510   22.5673 N   0  0  0  0  0  0  0  0  0  0  0  0
  -21.8791  -32.5967   21.6650 N   0  3  0  0  0  0  0  0  0  0  0  0
  -24.7628  -23.3276   21.3337 O   0  0  0  0  0  0  0  0  0  0  0  0
  -26.2136   -9.6722   16.7328 O   0  0  0  0  0  0  0  0  0  0  0  0
  -28.8372  -28.8235   22.9911 O   0  0  0  0  0  0  0  0  0  0  0  0
  -28.4674  -32.4924   22.2181 O   0  0  0  0  0  0  0  0  0  0  0  0
  -23.5918  -31.9181   23.7917 O   0  0  0  0  0  0  0  0  0  0  0  0
  -28.2504  -17.8670   21.7596 O   0  0  0  0  0  0  0  0  0  0  0  0
  -21.1588   -7.8622   22.3676 O   0  0  0  0  0  0  0  0  0  0  0  0
  -23.5918  -25.8111   20.3613 O   0  0  0  0  0  0  0  0  0  1  0  0
  -22.3731   -2.8179   24.2342 F   0  0  0  0  0  0  0  0  0  0  0  0
  -23.9843  -17.4757   19.1461 F   0  0  0  0  0  0  0  0  0  0  0  0
  -20.7802   -7.2044   25.0259 F   0  0  0  0  0  0  0  0  0  0  0  0
  1  2  1  0  0  0  0
  1  5  2  0  0  0  0
  2  6  2  0  0  0  0
  3 10  2  0  0  0  0
  3 18  1  0  0  0  0
  4 11  1  0  0  0  0
  4 18  2  0  0  0  0
  5 20  1  0  0  0  0
  6 22  1  0  0  0  0
  7 12  2  0  0  0  0
  7 21  1  0  0  0  0
  8  9  2  0  0  0  0
  8 24  1  0  0  0  0
  9 25  1  0  0  0  0
 10 26  1  0  0  0  0
 11 26  2  0  0  0  0
 12 27  1  0  0  0  0
 13 14  2  0  0  0  0
 13 28  1  0  0  0  0
 14 29  1  0  0  0  0
 15 23  1  0  0  0  0
 15 27  2  0  0  0  0
 16 24  2  0  0  0  0
 16 30  1  0  0  0  0
 17 29  2  0  0  0  0
 17 31  1  0  0  0  0
 18 32  1  0  0  0  0
 19 32  1  0  0  0  0
 19 33  2  0  0  0  0
 19 35  1  0  0  0  0
 20 22  2  0  0  0  0
 20 40  1  0  0  0  0
 21 23  2  0  0  0  0
 21 41  1  0  0  0  0
 22 52  1  0  0  0  0
 23 42  1  0  0  0  0
 24 67  1  0  0  0  0
 25 30  2  0  0  0  0
 25 72  1  0  0  0  0
 26 82  1  0  0  0  0
 27 83  1  0  0  0  0
 28 31  2  0  0  0  0
 28 82  1  0  0  0  0
 29 84  1  0  0  0  0
 30 85  1  0  0  0  0
 31 86  1  0  0  0  0
 32 65  2  0  0  0  0
 33 66  1  0  0  0  0
 33 70  1  0  0  0  0
 34 53  1  0  0  0  0
 34 67  1  0  0  0  0
 34 76  2  0  0  0  0
 35 71  1  0  0  0  0
 35 77  2  0  0  0  0
 36 54  1  0  0  0  0
 36 73  1  0  0  0  0
 36 78  2  0  0  0  0
 37 62  1  0  0  0  0
 37 68  1  0  0  0  0
 37 79  2  0  0  0  0
 38 63  1  0  0  0  0
 38 74  1  0  0  0  0
 38 80  2  0  0  0  0
 39 69  1  0  0  0  0
 39 72  1  0  0  0  0
 39 81  2  0  0  0  0
 40 43  1  0  0  0  0
 41 54  1  0  0  0  0
 42 68  1  0  0  0  0
 43 46  1  0  0  0  0
 44 47  1  0  0  0  0
 44 49  1  0  0  0  0
 45 48  1  0  0  0  0
 45 50  1  0  0  0  0
 46 52  1  0  0  0  0
 47 53  1  0  0  0  0
 48 55  1  0  0  0  0
 49 67  1  0  0  0  0
 50 69  1  0  0  0  0
 51 55  1  0  0  0  0
 51 69  1  0  0  0  0
 52 73  1  0  0  0  0
 53 61  1  0  0  0  0
 54 68  1  0  0  0  0
 55 66  1  0  0  0  0
 56 63  1  0  0  0  0
 57 64  1  0  0  0  0
 58 64  1  0  0  0  0
 59 64  1  0  0  0  0
 60 75  1  0  0  0  0
 61 83  1  0  0  0  0
 62 64  1  0  0  0  0
 62 74  1  0  0  0  0
 63 75  1  0  0  0  0
 65 66  1  0  0  0  0
M  CHG  1  75   1
M  ISO  4  39 100  61 101  72 100  83 101
M  END
> <Batch ID>
0023

> <Smiles>
CNC(C)C(=O)NC(C(=O)N1Cc2cc([101O:1][101CH2:1]C3CCCN(c4ccc([100NH:0][100C:0](=O)N5CCCC(n6nc(-c7ccc(Oc8ccc(F)cc8F)cc7)c(C(N)=O)c6N)C5)c(F)c4)C3=O)ccc2CC1C(=O)NC1CCCc2ccccc21)C(C)(C)C

> <Shape>
0.247

> <Color>
0.088

> <Negative vol penalty>
0.000

$$$$

  -OEChem-04042321173D

 96106  0     1  0  0  0  0  0999 V2000
  -31.6791  -33.3346   20.2176 C   0  0  0  0  0  0  0  0  0  0  0  0
  -31.1232  -32.1083   19.8675 C   0  0  0  0  0  0  0  0  0  0  0  0
  -24.7916   -8.8407   21.4860 C   0  0  0  0  0  0  0  0  0  0  0  0
  -23.3364   -9.9033   19.8766 C   0  0  0  0  0  0  0  0  0  0  0  0
  -31.3191  -33.9445   21.4186 C   0  0  0  0  0  0  0  0  0  0  0  0
  -30.2076  -31.4906   20.7188 C   0  0  0  0  0  0  0  0  0  0  0  0
  -25.3777  -28.0954   19.0910 C   0  0  0  0  0  0  0  0  0  0  0  0
  -29.6102  -19.1941   18.7203 C   0  0  0  0  0  0  0  0  0  0  0  0
  -30.5244  -20.2049   18.4332 C   0  0  0  0  0  0  0  0  0  0  0  0
  -23.7533   -7.9889   21.8626 C   0  0  0  0  0  0  0  0  0  0  0  0
  -22.2980   -9.0514   20.2531 C   0  0  0  0  0  0  0  0  0  0  0  0
  -25.1849  -26.7170   19.0090 C   0  0  0  0  0  0  0  0  0  0  0  0
  -22.2750   -5.1882   20.6778 C   0  0  0  0  0  0  0  0  0  0  0  0
  -22.5696   -3.8329   20.8253 C   0  0  0  0  0  0  0  0  0  0  0  0
  -24.2041  -26.7290   21.2128 C   0  0  0  0  0  0  0  0  0  0  0  0
  -21.8857   -3.9362   23.1402 C   0  0  0  0  0  0  0  0  0  0  0  0
  -24.5832   -9.7979   20.4931 C   0  0  0  0  0  0  0  0  0  0  0  0
  -26.6115  -10.4593   19.0944 C   0  0  0  0  0  0  0  0  0  0  0  0
  -30.3913  -33.3386   22.2804 C   0  0  0  0  0  0  0  0  0  0  0  0
  -24.9944  -28.8004   20.2410 C   0  0  0  0  0  0  0  0  0  0  0  0
  -29.8358  -32.0924   21.9330 C   0  0  0  0  0  0  0  0  0  0  0  0
  -24.3907  -28.1167   21.3059 C   0  0  0  0  0  0  0  0  0  0  0  0
  -28.9524  -21.8332   19.2528 C   0  0  0  0  0  0  0  0  0  0  0  0
  -28.3594  -19.4910   19.2957 C   0  0  0  0  0  0  0  0  0  0  0  0
  -28.0115  -20.8321   19.5672 C   0  0  0  0  0  0  0  0  0  0  0  0
  -30.1962  -21.5249   18.7004 C   0  0  0  0  0  0  0  0  0  0  0  0
  -22.5065   -8.0942   21.2462 C   0  0  0  0  0  0  0  0  0  0  0  0
  -24.6007  -26.0332   20.0711 C   0  0  0  0  0  0  0  0  0  0  0  0
  -21.7858   -5.9177   21.7615 C   0  0  0  0  0  0  0  0  0  0  0  0
  -22.3749   -3.2069   22.0565 C   0  0  0  0  0  0  0  0  0  0  0  0
  -21.5911   -5.2916   22.9927 C   0  0  0  0  0  0  0  0  0  0  0  0
  -25.6552  -10.6785   20.1040 C   0  0  0  0  0  0  0  0  0  0  0  0
  -27.4016  -11.5825   19.1201 C   0  0  0  0  0  0  0  0  0  0  0  0
  -26.2162  -18.7298   20.2308 C   0  0  0  0  0  0  0  0  0  0  0  0
  -26.7711   -9.3405   18.2121 C   0  0  0  0  0  0  0  0  0  0  0  0
  -26.5238  -30.5300   22.4257 C   0  0  0  0  0  0  0  0  0  0  0  0
  -23.5183  -31.1369   23.4844 C   0  0  0  0  0  0  0  0  0  0  0  0
  -20.2544  -30.1553   23.6582 C   0  0  0  0  0  0  0  0  0  0  0  0
  -27.6968  -17.1256   19.2310 C   0  0  0  0  0  0  0  0  0  0  0  0
  -30.0688  -34.0135   23.5901 C   0  0  0  0  0  0  0  0  0  0  0  0
  -25.1847  -30.2912   20.3030 C   0  0  0  0  0  0  0  0  0  0  0  0
  -23.9430  -28.8304   22.5544 C   0  0  0  0  0  0  0  0  0  0  0  0
  -26.1161  -20.0890   20.8743 C   0  0  0  0  0  0  0  0  0  0  0  0
  -28.8085  -33.4723   24.2601 C   0  0  0  0  0  0  0  0  0  0  0  0
  -30.0636  -24.5795   23.4678 C   0  0  0  0  0  0  0  0  0  0  0  0
  -27.6796  -15.3519   22.4664 C   0  0  0  0  0  0  0  0  0  0  0  0
  -29.8927  -25.6068   22.3538 C   0  0  0  0  0  0  0  0  0  0  0  0
  -30.5342  -23.2386   22.9149 C   0  0  0  0  0  0  0  0  0  0  0  0
  -28.8127  -31.9469   24.2520 C   0  0  0  0  0  0  0  0  0  0  0  0
  -27.1815  -13.9690   22.0494 C   0  0  0  0  0  0  0  0  0  0  0  0
  -27.0624  -16.4505   21.6072 C   0  0  0  0  0  0  0  0  0  0  0  0
  -26.7744  -14.8731   19.7176 C   0  0  0  0  0  0  0  0  0  0  0  0
  -28.9811  -25.0932   21.2485 C   0  0  0  0  0  0  0  0  0  0  0  0
  -29.6208  -22.7335   21.8074 C   0  0  0  0  0  0  0  0  0  0  0  0
  -28.8205  -31.4028   22.8184 C   0  0  1  0  0  0  0  0  0  0  0  0
  -25.2262  -30.8294   21.7299 C   0  0  1  0  0  0  0  0  0  0  0  0
  -27.3981  -13.7363   20.5443 C   0  0  2  0  0  0  0  0  0  0  0  0
  -18.0411  -30.8373   24.6243 C   0  0  0  0  0  0  0  0  0  0  0  0
  -24.4326  -30.1938   26.2384 C   0  0  0  0  0  0  0  0  0  0  0  0
  -22.0242  -29.9910   26.8916 C   0  0  0  0  0  0  0  0  0  0  0  0
  -22.9613  -32.2159   26.2636 C   0  0  0  0  0  0  0  0  0  0  0  0
  -19.0203  -30.3736   20.9771 C   0  0  0  0  0  0  0  0  0  0  0  0
  -28.7218  -23.2871   19.5483 C   0  0  0  0  0  0  0  0  0  0  0  0
  -24.9365  -22.5378   20.9318 C   0  0  0  0  0  0  0  0  0  0  0  0
  -26.3217  -22.5002   20.2976 C   0  0  0  0  0  0  0  0  0  0  0  0
  -32.4302  -22.2512   17.8598 C   0  0  0  0  0  0  0  0  0  0  0  0
  -24.4505  -23.9541   21.2161 C   0  0  0  0  0  0  0  0  0  1  0  0
  -22.5775  -30.4803   24.4656 C   0  0  1  0  0  0  0  0  0  0  0  0
  -18.9608  -30.9117   23.4155 C   0  0  2  0  0  0  0  0  0  0  0  0
  -33.2240  -23.5282   17.6797 C   0  0  0  0  0  0  0  0  0  0  0  0
  -23.0090  -30.7062   25.9422 C   0  0  0  0  0  0  0  0  0  0  0  0
  -25.8211  -11.8489   20.7260 N   0  0  0  0  0  0  0  0  0  0  0  0
  -26.8908  -12.3751   20.1055 N   0  0  0  0  0  0  0  0  0  0  0  0
  -27.3930  -18.4599   19.5339 N   0  0  0  0  0  0  0  0  0  0  0  0
  -26.7550  -21.1268   20.0878 N   0  0  1  0  0  0  0  0  0  0  0  0
  -24.1563  -30.2870   22.5699 N   0  0  0  0  0  0  0  0  0  0  0  0
  -27.2534  -16.1794   20.1756 N   0  0  0  0  0  0  0  0  0  0  0  0
  -28.4767  -11.9595   18.3959 N   0  0  0  0  0  0  0  0  0  0  0  0
  -25.8720   -8.2709   18.3200 N   0  0  0  0  0  0  0  0  0  0  0  0
  -31.1441  -22.5332   18.4142 N   0  0  0  0  0  0  0  0  0  0  0  0
  -27.4982  -31.4915   22.2369 N   0  0  0  0  0  0  0  0  0  0  0  0
  -21.2439  -30.9803   24.1496 N   0  0  0  0  0  0  0  0  0  0  0  0
  -29.5172  -23.7817   20.7250 N   0  3  0  0  0  0  0  0  0  0  0  0
  -18.2407  -30.3428   22.2413 N   0  3  0  0  0  0  0  0  0  0  0  0
  -25.3162  -17.9052   20.4132 O   0  0  0  0  0  0  0  0  0  0  0  0
  -27.6940   -9.2836   17.3645 O   0  0  0  0  0  0  0  0  0  0  0  0
  -26.6325  -29.5035   23.0861 O   0  0  0  0  0  0  0  0  0  0  0  0
  -23.6757  -32.3598   23.5232 O   0  0  0  0  0  0  0  0  0  0  0  0
  -20.3740  -28.9521   23.4378 O   0  0  0  0  0  0  0  0  0  0  0  0
  -28.3457  -16.8262   18.2228 O   0  0  0  0  0  0  0  0  0  0  0  0
  -21.4931   -7.2630   21.6132 O   0  0  0  0  0  0  0  0  0  0  0  0
  -24.4107  -24.6781   19.9933 O   0  0  0  0  0  0  0  0  0  1  0  0
  -22.6564   -1.9049   22.1976 F   0  0  0  0  0  0  0  0  0  0  0  0
  -21.1203   -5.9869   24.0371 F   0  0  0  0  0  0  0  0  0  0  0  0
  -33.3471  -24.1679   18.8695 F   0  0  0  0  0  0  0  0  0  0  0  0
  -32.5378  -24.3663   16.8611 F   0  0  0  0  0  0  0  0  0  0  0  0
  1  2  1  0  0  0  0
  1  5  2  0  0  0  0
  2  6  2  0  0  0  0
  3 10  2  0  0  0  0
  3 17  1  0  0  0  0
  4 11  1  0  0  0  0
  4 17  2  0  0  0  0
  5 19  1  0  0  0  0
  6 21  1  0  0  0  0
  7 12  2  0  0  0  0
  7 20  1  0  0  0  0
  8  9  2  0  0  0  0
  8 24  1  0  0  0  0
  9 26  1  0  0  0  0
 10 27  1  0  0  0  0
 11 27  2  0  0  0  0
 12 28  1  0  0  0  0
 13 14  2  0  0  0  0
 13 29  1  0  0  0  0
 14 30  1  0  0  0  0
 15 22  1  0  0  0  0
 15 28  2  0  0  0  0
 16 30  2  0  0  0  0
 16 31  1  0  0  0  0
 17 32  1  0  0  0  0
 18 32  1  0  0  0  0
 18 33  2  0  0  0  0
 18 35  1  0  0  0  0
 19 21  2  0  0  0  0
 19 40  1  0  0  0  0
 20 22  2  0  0  0  0
 20 41  1  0  0  0  0
 21 55  1  0  0  0  0
 22 42  1  0  0  0  0
 23 25  1  0  0  0  0
 23 26  2  0  0  0  0
 23 63  1  0  0  0  0
 24 25  2  0  0  0  0
 24 74  1  0  0  0  0
 25 75  1  0  0  0  0
 26 80  1  0  0  0  0
 27 91  1  0  0  0  0
 28 92  1  0  0  0  0
 29 31  2  0  0  0  0
 29 91  1  0  0  0  0
 30 93  1  0  0  0  0
 31 94  1  0  0  0  0
 32 72  2  0  0  0  0
 33 73  1  0  0  0  0
 33 78  1  0  0  0  0
 34 43  1  0  0  0  0
 34 74  1  0  0  0  0
 34 85  2  0  0  0  0
 35 79  1  0  0  0  0
 35 86  2  0  0  0  0
 36 56  1  0  0  0  0
 36 81  1  0  0  0  0
 36 87  2  0  0  0  0
 37 68  1  0  0  0  0
 37 76  1  0  0  0  0
 37 88  2  0  0  0  0
 38 69  1  0  0  0  0
 38 82  1  0  0  0  0
 38 89  2  0  0  0  0
 39 74  1  0  0  0  0
 39 77  1  0  0  0  0
 39 90  2  0  0  0  0
 40 44  1  0  0  0  0
 41 56  1  0  0  0  0
 42 76  1  0  0  0  0
 43 75  1  0  0  0  0
 44 49  1  0  0  0  0
 45 47  1  0  0  0  0
 45 48  1  0  0  0  0
 46 50  1  0  0  0  0
 46 51  1  0  0  0  0
 47 53  1  0  0  0  0
 48 54  1  0  0  0  0
 49 55  1  0  0  0  0
 50 57  1  0  0  0  0
 51 77  1  0  0  0  0
 52 57  1  0  0  0  0
 52 77  1  0  0  0  0
 53 83  1  0  0  0  0
 54 83  1  0  0  0  0
 55 81  1  0  0  0  0
 56 76  1  0  0  0  0
 57 73  1  0  0  0  0
 58 69  1  0  0  0  0
 59 71  1  0  0  0  0
 60 71  1  0  0  0  0
 61 71  1  0  0  0  0
 62 84  1  0  0  0  0
 63 83  1  0  0  0  0
 64 65  1  0  0  0  0
 64 67  1  0  0  0  0
 65 75  1  0  0  0  0
 66 70  1  0  0  0  0
 66 80  1  0  0  0  0
 67 92  1  0  0  0  0
 68 71  1  0  0  0  0
 68 82  1  0  0  0  0
 69 84  1  0  0  0  0
 70 95  1  0  0  0  0
 70 96  1  0  0  0  0
 72 73  1  0  0  0  0
M  CHG  2  83   1  84   1
M  ISO  4  39 100  67 101  74 100  92 101
M  END
> <Batch ID>
0023

> <Smiles>
CNC(C)C(=O)NC(C(=O)N1Cc2cc([101O:1][101CH2:1]CCN3CC(=O)[100N:0]([100C:0](=O)N4CCCC(n5nc(-c6ccc(Oc7ccc(F)cc7F)cc6)c(C(N)=O)c5N)C4)c4ccc(NCC(F)F)c(CN5CCCCC5)c43)ccc2CC1C(=O)NC1CCCc2ccccc21)C(C)(C)C

> <Shape>
0.275

> <Color>
0.075

> <Negative vol penalty>
0.000

$$$$

  -OEChem-04042321173D

 86 95  0     1  0  0  0  0  0999 V2000
  -27.6788  -24.1324   17.1347 C   0  0  0  0  0  0  0  0  0  0  0  0
  -26.4828  -24.5149   17.7336 C   0  0  0  0  0  0  0  0  0  0  0  0
  -27.9768  -14.3908   19.1382 C   0  0  0  0  0  0  0  0  0  0  0  0
  -25.9511  -15.2706   20.1178 C   0  0  0  0  0  0  0  0  0  0  0  0
  -28.8942  -24.4925   17.7153 C   0  0  0  0  0  0  0  0  0  0  0  0
  -26.5015  -25.2569   18.9141 C   0  0  0  0  0  0  0  0  0  0  0  0
  -23.2185  -29.1119   18.8379 C   0  0  0  0  0  0  0  0  0  0  0  0
  -23.2905  -24.9653   23.0146 C   0  0  0  0  0  0  0  0  0  0  0  0
  -24.3835  -24.1101   22.8746 C   0  0  0  0  0  0  0  0  0  0  0  0
  -27.6015  -13.1025   19.5190 C   0  0  0  0  0  0  0  0  0  0  0  0
  -25.5757  -13.9822   20.4986 C   0  0  0  0  0  0  0  0  0  0  0  0
  -21.8756  -28.8090   19.0582 C   0  0  0  0  0  0  0  0  0  0  0  0
  -23.9111  -10.8815   21.4110 C   0  0  0  0  0  0  0  0  0  0  0  0
  -22.5905  -10.4955   21.1817 C   0  0  0  0  0  0  0  0  0  0  0  0
  -22.0961  -29.5261   21.3508 C   0  0  0  0  0  0  0  0  0  0  0  0
  -22.3406  -24.0852   20.9750 C   0  0  0  0  0  0  0  0  0  0  0  0
  -22.8939  -10.8645   18.8133 C   0  0  0  0  0  0  0  0  0  0  0  0
  -27.1516  -15.4749   19.4377 C   0  0  0  0  0  0  0  0  0  0  0  0
  -27.7779  -17.2712   17.7381 C   0  0  0  0  0  0  0  0  0  0  0  0
  -28.9279  -25.2475   18.8982 C   0  0  0  0  0  0  0  0  0  0  0  0
  -24.0145  -29.6148   19.8772 C   0  0  0  0  0  0  0  0  0  0  0  0
  -27.7186  -25.6263   19.5117 C   0  0  0  0  0  0  0  0  0  0  0  0
  -23.4482  -29.8370   21.1405 C   0  0  0  0  0  0  0  0  0  0  0  0
  -22.2690  -24.9528   22.0648 C   0  0  0  0  0  0  0  0  0  0  0  0
  -24.4551  -23.2424   21.7848 C   0  0  0  0  0  0  0  0  0  0  0  0
  -26.4010  -12.8982   20.1991 C   0  0  0  0  0  0  0  0  0  0  0  0
  -21.3149  -29.0134   20.3155 C   0  0  0  0  0  0  0  0  0  0  0  0
  -24.7231  -11.2590   20.3415 C   0  0  0  0  0  0  0  0  0  0  0  0
  -22.0819  -10.4870   19.8829 C   0  0  0  0  0  0  0  0  0  0  0  0
  -24.2145  -11.2505   19.0427 C   0  0  0  0  0  0  0  0  0  0  0  0
  -23.4336  -23.2300   20.8349 C   0  0  0  0  0  0  0  0  0  0  0  0
  -27.5391  -16.8060   19.0451 C   0  0  0  0  0  0  0  0  0  0  0  0
  -28.1137  -18.5931   17.9001 C   0  0  0  0  0  0  0  0  0  0  0  0
  -27.7029  -16.5710   16.4892 C   0  0  0  0  0  0  0  0  0  0  0  0
  -26.6188  -28.6083   21.3963 C   0  0  0  0  0  0  0  0  0  0  0  0
  -26.4488  -31.5241   22.8074 C   0  0  0  0  0  0  0  0  0  0  0  0
  -24.5295  -34.1963   23.7145 C   0  0  0  0  0  0  0  0  0  0  0  0
  -26.8749  -22.6311   22.1268 C   0  0  0  0  0  0  0  0  0  0  0  0
  -30.2657  -25.5726   19.5140 C   0  0  0  0  0  0  0  0  0  0  0  0
  -25.4546  -29.9617   19.6162 C   0  0  0  0  0  0  0  0  0  0  0  0
  -24.2546  -30.3939   22.2842 C   0  0  0  0  0  0  0  0  0  0  0  0
  -30.2005  -26.6797   20.5631 C   0  0  0  0  0  0  0  0  0  0  0  0
  -17.5249  -27.4809   23.7366 C   0  0  0  0  0  0  0  0  0  0  0  0
  -18.1157  -28.8860   23.7841 C   0  0  0  0  0  0  0  0  0  0  0  0
  -30.1079  -21.5903   21.0584 C   0  0  0  0  0  0  0  0  0  0  0  0
  -29.0392  -26.4384   21.5223 C   0  0  0  0  0  0  0  0  0  0  0  0
  -18.5232  -26.4697   23.1788 C   0  0  0  0  0  0  0  0  0  0  0  0
  -29.8371  -20.2908   20.2967 C   0  0  0  0  0  0  0  0  0  0  0  0
  -18.6383  -29.3160   22.4190 C   0  0  0  0  0  0  0  0  0  0  0  0
  -29.1898  -21.7392   22.2703 C   0  0  0  0  0  0  0  0  0  0  0  0
  -27.4853  -20.3021   21.2220 C   0  0  0  0  0  0  0  0  0  0  0  0
  -27.6978  -26.4528   20.7792 C   0  0  1  0  0  0  0  0  0  0  0  0
  -26.3028  -29.9850   20.8841 C   0  0  1  0  0  0  0  0  0  0  0  0
  -19.0529  -26.8907   21.8010 C   0  0  1  0  0  0  0  0  0  0  0  0
  -28.3417  -20.1386   19.9557 C   0  0  2  0  0  0  0  0  0  0  0  0
  -19.6415  -28.3111   21.8503 C   0  0  1  0  0  0  0  0  0  1  0  0
  -24.6639  -36.4102   24.8883 C   0  0  0  0  0  0  0  0  0  0  0  0
  -26.5453  -30.0888   25.4983 C   0  0  0  0  0  0  0  0  0  0  0  0
  -25.7320  -32.1983   26.5739 C   0  0  0  0  0  0  0  0  0  0  0  0
  -27.9211  -32.1738   25.3781 C   0  0  0  0  0  0  0  0  0  0  0  0
  -23.6834  -35.6650   21.2884 C   0  0  0  0  0  0  0  0  0  0  0  0
  -20.0827  -25.8769   21.2955 C   0  0  0  0  0  0  0  0  0  0  0  0
  -25.7774  -32.0772   24.0412 C   0  0  1  0  0  0  0  0  0  0  0  0
  -24.7414  -35.6905   23.5509 C   0  0  2  0  0  0  0  0  0  0  0  0
  -26.4790  -31.6222   25.3521 C   0  0  0  0  0  0  0  0  0  0  0  0
  -27.7089  -17.7552   19.9693 N   0  0  0  0  0  0  0  0  0  0  0  0
  -28.0581  -18.8300   19.2421 N   0  0  0  0  0  0  0  0  0  0  0  0
  -25.6599  -30.7115   21.9809 N   0  0  0  0  0  0  0  0  0  0  0  0
  -27.7891  -21.5875   21.8704 N   0  0  0  0  0  0  0  0  0  0  0  0
  -28.4483  -19.5643   17.0242 N   0  0  0  0  0  0  0  0  0  0  0  0
  -26.4813  -16.5591   15.8022 N   0  0  0  0  0  0  0  0  0  0  0  0
  -25.5792  -22.3872   21.6726 N   0  0  0  0  0  0  0  0  0  0  0  0
  -21.1747  -25.8106   22.2051 N   0  0  0  0  0  0  0  0  0  0  0  0
  -27.2944  -27.8125   20.4909 N   0  0  0  0  0  0  0  0  0  0  0  0
  -25.7243  -33.5242   23.8632 N   0  0  0  0  0  0  0  0  0  0  0  0
  -23.7047  -36.2648   22.6474 N   0  3  0  0  0  0  0  0  0  0  0  0
  -28.6855  -15.9598   16.0050 O   0  0  0  0  0  0  0  0  0  0  0  0
  -26.2766  -28.2920   22.5296 O   0  0  0  0  0  0  0  0  0  0  0  0
  -27.6276  -31.8086   22.5814 O   0  0  0  0  0  0  0  0  0  0  0  0
  -23.4153  -33.6776   23.7145 O   0  0  0  0  0  0  0  0  0  0  0  0
  -27.2224  -23.6764   22.6824 O   0  0  0  0  0  0  0  0  0  0  0  0
  -26.0343  -11.6412   20.5706 O   0  0  0  0  0  0  0  0  0  0  0  0
  -20.0045  -28.7179   20.5334 O   0  0  0  0  0  0  0  0  0  1  0  0
  -20.8141  -10.1148   19.6627 F   0  0  0  0  0  0  0  0  0  0  0  0
  -24.9901  -11.6110   18.0110 F   0  0  0  0  0  0  0  0  0  0  0  0
  -23.4827  -22.1718   19.4699 Cl  0  0  0  0  0  0  0  0  0  0  0  0
  1  2  1  0  0  0  0
  1  5  2  0  0  0  0
  2  6  2  0  0  0  0
  3 10  2  0  0  0  0
  3 18  1  0  0  0  0
  4 11  1  0  0  0  0
  4 18  2  0  0  0  0
  5 20  1  0  0  0  0
  6 22  1  0  0  0  0
  7 12  2  0  0  0  0
  7 21  1  0  0  0  0
  8  9  2  0  0  0  0
  8 24  1  0  0  0  0
  9 25  1  0  0  0  0
 10 26  1  0  0  0  0
 11 26  2  0  0  0  0
 12 27  1  0  0  0  0
 13 14  2  0  0  0  0
 13 28  1  0  0  0  0
 14 29  1  0  0  0  0
 15 23  1  0  0  0  0
 15 27  2  0  0  0  0
 16 24  2  0  0  0  0
 16 31  1  0  0  0  0
 17 29  2  0  0  0  0
 17 30  1  0  0  0  0
 18 32  1  0  0  0  0
 19 32  1  0  0  0  0
 19 33  2  0  0  0  0
 19 34  1  0  0  0  0
 20 22  2  0  0  0  0
 20 39  1  0  0  0  0
 21 23  2  0  0  0  0
 21 40  1  0  0  0  0
 22 52  1  0  0  0  0
 23 41  1  0  0  0  0
 24 73  1  0  0  0  0
 25 31  2  0  0  0  0
 25 72  1  0  0  0  0
 26 82  1  0  0  0  0
 27 83  1  0  0  0  0
 28 30  2  0  0  0  0
 28 82  1  0  0  0  0
 29 84  1  0  0  0  0
 30 85  1  0  0  0  0
 31 86  1  0  0  0  0
 32 66  2  0  0  0  0
 33 67  1  0  0  0  0
 33 70  1  0  0  0  0
 34 71  1  0  0  0  0
 34 77  2  0  0  0  0
 35 53  1  0  0  0  0
 35 74  1  0  0  0  0
 35 78  2  0  0  0  0
 36 63  1  0  0  0  0
 36 68  1  0  0  0  0
 36 79  2  0  0  0  0
 37 64  1  0  0  0  0
 37 75  1  0  0  0  0
 37 80  2  0  0  0  0
 38 69  1  0  0  0  0
 38 72  1  0  0  0  0
 38 81  2  0  0  0  0
 39 42  1  0  0  0  0
 40 53  1  0  0  0  0
 41 68  1  0  0  0  0
 42 46  1  0  0  0  0
 43 44  1  0  0  0  0
 43 47  1  0  0  0  0
 44 49  1  0  0  0  0
 45 48  1  0  0  0  0
 45 50  1  0  0  0  0
 46 52  1  0  0  0  0
 47 54  1  0  0  0  0
 48 55  1  0  0  0  0
 49 56  1  0  0  0  0
 50 69  1  0  0  0  0
 51 55  1  0  0  0  0
 51 69  1  0  0  0  0
 52 74  1  0  0  0  0
 53 68  1  0  0  0  0
 54 56  1  0  0  0  0
 54 62  1  0  0  0  0
 55 67  1  0  0  0  0
 56 83  1  0  0  0  0
 57 64  1  0  0  0  0
 58 65  1  0  0  0  0
 59 65  1  0  0  0  0
 60 65  1  0  0  0  0
 61 76  1  0  0  0  0
 62 73  1  0  0  0  0
 63 65  1  0  0  0  0
 63 75  1  0  0  0  0
 64 76  1  0  0  0  0
 66 67  1  0  0  0  0
M  CHG  1  76   1
M  ISO  4  38 100  56 101  72 100  83 101
M  END
> <Batch ID>
0023

> <Smiles>
CNC(C)C(=O)NC(C(=O)N1Cc2cc([101O:1][101CH:1]3CCCCC3CNc3ccc([100NH:0][100C:0](=O)N4CCCC(n5nc(-c6ccc(Oc7ccc(F)cc7F)cc6)c(C(N)=O)c5N)C4)c(Cl)c3)ccc2CC1C(=O)NC1CCCc2ccccc21)C(C)(C)C

> <Shape>
0.343

> <Color>
0.083

> <Negative vol penalty>
0.000

$$$$

  -OEChem-04042321173D

 85 94  0     1  0  0  0  0  0999 V2000
  -24.4128  -33.0870   14.2423 C   0  0  0  0  0  0  0  0  0  0  0  0
  -25.0350  -31.9862   14.8224 C   0  0  0  0  0  0  0  0  0  0  0  0
  -22.8828  -13.5405   22.8716 C   0  0  0  0  0  0  0  0  0  0  0  0
  -24.4906  -12.0514   23.8887 C   0  0  0  0  0  0  0  0  0  0  0  0
  -24.2604  -34.2651   14.9723 C   0  0  0  0  0  0  0  0  0  0  0  0
  -25.5062  -32.0632   16.1325 C   0  0  0  0  0  0  0  0  0  0  0  0
  -24.3207  -27.9691   18.8671 C   0  0  0  0  0  0  0  0  0  0  0  0
  -28.4034  -20.2197   18.7779 C   0  0  0  0  0  0  0  0  0  0  0  0
  -30.7838  -19.8739   19.0045 C   0  0  0  0  0  0  0  0  0  0  0  0
  -28.2013  -18.8397   18.7944 C   0  0  0  0  0  0  0  0  0  0  0  0
  -30.5817  -18.4938   19.0211 C   0  0  0  0  0  0  0  0  0  0  0  0
  -22.2335  -13.6775   24.0984 C   0  0  0  0  0  0  0  0  0  0  0  0
  -23.8413  -12.1884   25.1156 C   0  0  0  0  0  0  0  0  0  0  0  0
  -25.0901  -26.8240   18.6653 C   0  0  0  0  0  0  0  0  0  0  0  0
  -20.0637  -11.8957   25.9803 C   0  0  0  0  0  0  0  0  0  0  0  0
  -18.6713  -11.8141   25.9884 C   0  0  0  0  0  0  0  0  0  0  0  0
  -26.3557  -27.3310   20.6554 C   0  0  0  0  0  0  0  0  0  0  0  0
  -18.5454  -14.0519   26.8903 C   0  0  0  0  0  0  0  0  0  0  0  0
  -24.0114  -12.7274   22.7667 C   0  0  0  0  0  0  0  0  0  0  0  0
  -24.1377  -12.0875   20.3005 C   0  0  0  0  0  0  0  0  0  0  0  0
  -24.7213  -34.3534   16.2953 C   0  0  0  0  0  0  0  0  0  0  0  0
  -24.5706  -28.8110   19.9603 C   0  0  0  0  0  0  0  0  0  0  0  0
  -25.3610  -33.2440   16.8805 C   0  0  0  0  0  0  0  0  0  0  0  0
  -25.5864  -28.4848   20.8702 C   0  0  0  0  0  0  0  0  0  0  0  0
  -29.6947  -20.7368   18.8829 C   0  0  0  0  0  0  0  0  0  0  0  0
  -29.2905  -17.9767   18.9160 C   0  0  0  0  0  0  0  0  0  0  0  0
  -22.7127  -13.0015   25.2204 C   0  0  0  0  0  0  0  0  0  0  0  0
  -26.1096  -26.5064   19.5579 C   0  0  0  0  0  0  0  0  0  0  0  0
  -20.6970  -13.0554   26.4272 C   0  0  0  0  0  0  0  0  0  0  0  0
  -17.9121  -12.8922   26.4434 C   0  0  0  0  0  0  0  0  0  0  0  0
  -19.9379  -14.1335   26.8822 C   0  0  0  0  0  0  0  0  0  0  0  0
  -24.6822  -12.5851   21.4995 C   0  0  0  0  0  0  0  0  0  0  0  0
  -25.1713  -12.1576   19.3988 C   0  0  0  0  0  0  0  0  0  0  0  0
  -28.9185  -23.0446   19.3617 C   0  0  0  0  0  0  0  0  0  0  0  0
  -22.8156  -11.6051   20.0263 C   0  0  0  0  0  0  0  0  0  0  0  0
  -25.4589  -31.8442   20.2986 C   0  0  0  0  0  0  0  0  0  0  0  0
  -24.9363  -31.2397   23.4425 C   0  0  0  0  0  0  0  0  0  0  0  0
  -25.5828  -28.5408   25.7480 C   0  0  0  0  0  0  0  0  0  0  0  0
  -30.0565  -15.5804   19.0470 C   0  0  0  0  0  0  0  0  0  0  0  0
  -24.5763  -35.6633   17.0287 C   0  0  0  0  0  0  0  0  0  0  0  0
  -23.7143  -30.0281   20.1787 C   0  0  0  0  0  0  0  0  0  0  0  0
  -25.8817  -29.3448   22.0709 C   0  0  0  0  0  0  0  0  0  0  0  0
  -24.7681  -35.5408   18.5381 C   0  0  0  0  0  0  0  0  0  0  0  0
  -31.3220  -24.0854   18.0464 C   0  0  0  0  0  0  0  0  0  0  0  0
  -29.9528  -12.0234   19.1655 C   0  0  0  0  0  0  0  0  0  0  0  0
  -26.0057  -34.7066   18.8530 C   0  0  0  0  0  0  0  0  0  0  0  0
  -30.5136  -24.9801   18.9611 C   0  0  0  0  0  0  0  0  0  0  0  0
  -28.5378  -11.7184   19.6626 C   0  0  0  0  0  0  0  0  0  0  0  0
  -31.2573  -22.6499   18.5384 C   0  0  0  0  0  0  0  0  0  0  0  0
  -30.5312  -13.2708   19.8313 C   0  0  0  0  0  0  0  0  0  0  0  0
  -28.2721  -14.1642   20.2410 C   0  0  0  0  0  0  0  0  0  0  0  0
  -25.8632  -33.2805   18.3076 C   0  0  1  0  0  0  0  0  0  0  0  0
  -29.0659  -24.5128   18.9488 C   0  0  2  0  0  0  0  0  0  0  0  0
  -24.3924  -31.0890   21.0402 C   0  0  1  0  0  0  0  0  0  0  0  0
  -27.6227  -12.9535   19.5508 C   0  0  2  0  0  0  0  0  0  0  0  0
  -24.3877  -27.8690   27.8499 C   0  0  0  0  0  0  0  0  0  0  0  0
  -27.0268  -32.9687   24.8391 C   0  0  0  0  0  0  0  0  0  0  0  0
  -27.0999  -31.2719   26.6786 C   0  0  0  0  0  0  0  0  0  0  0  0
  -24.9820  -32.5001   26.2006 C   0  0  0  0  0  0  0  0  0  0  0  0
  -25.1591  -25.7822   24.7634 C   0  0  0  0  0  0  0  0  0  0  0  0
  -28.2112  -25.4263   19.8279 C   0  0  0  0  0  0  0  0  0  1  0  0
  -25.7763  -30.7241   24.5860 C   0  0  1  0  0  0  0  0  0  0  0  0
  -24.5575  -27.6047   26.3619 C   0  0  2  0  0  0  0  0  0  0  0  0
  -26.2265  -31.8586   25.5492 C   0  0  0  0  0  0  0  0  0  0  0  0
  -25.9625  -12.9446   21.3742 N   0  0  0  0  0  0  0  0  0  0  0  0
  -26.2310  -12.6725   20.0858 N   0  0  0  0  0  0  0  0  0  0  0  0
  -29.9045  -22.1686   18.8654 N   0  0  0  0  0  0  0  0  0  0  0  0
  -25.0210  -30.5276   22.2377 N   0  0  0  0  0  0  0  0  0  0  0  0
  -29.6121  -14.4011   19.6815 N   0  0  0  0  0  0  0  0  0  0  0  0
  -25.2681  -11.8282   18.0932 N   0  0  0  0  0  0  0  0  0  0  0  0
  -21.8763  -11.6023   21.0665 N   0  0  0  0  0  0  0  0  0  0  0  0
  -29.0856  -16.5748   18.9329 N   0  0  0  0  0  0  0  0  0  0  0  0
  -25.0045  -32.4941   19.1670 N   0  0  0  0  0  0  0  0  0  0  0  0
  -24.9932  -29.6726   25.2260 N   0  0  0  0  0  0  0  0  0  0  0  0
  -24.9775  -26.1863   26.1814 N   0  3  0  0  0  0  0  0  0  0  0  0
  -27.9414  -22.6943   20.0288 O   0  0  0  0  0  0  0  0  0  0  0  0
  -22.4820  -11.1736   18.8967 O   0  0  0  0  0  0  0  0  0  0  0  0
  -26.6087  -31.8388   20.7226 O   0  0  0  0  0  0  0  0  0  0  0  0
  -24.2257  -32.2332   23.6141 O   0  0  0  0  0  0  0  0  0  0  0  0
  -26.7869  -28.2945   25.7363 O   0  0  0  0  0  0  0  0  0  0  0  0
  -31.2054  -15.6893   18.6109 O   0  0  0  0  0  0  0  0  0  0  0  0
  -22.0795  -13.1351   26.4178 O   0  0  0  0  0  0  0  0  0  0  0  0
  -26.8625  -25.3896   19.3630 O   0  0  0  0  0  0  0  0  0  1  0  0
  -16.5749  -12.8143   26.4496 F   0  0  0  0  0  0  0  0  0  0  0  0
  -20.5406  -15.2507   27.3117 F   0  0  0  0  0  0  0  0  0  0  0  0
  1  2  1  0  0  0  0
  1  5  2  0  0  0  0
  2  6  2  0  0  0  0
  3 12  2  0  0  0  0
  3 19  1  0  0  0  0
  4 13  1  0  0  0  0
  4 19  2  0  0  0  0
  5 21  1  0  0  0  0
  6 23  1  0  0  0  0
  7 14  2  0  0  0  0
  7 22  1  0  0  0  0
  8 10  2  0  0  0  0
  8 25  1  0  0  0  0
  9 11  1  0  0  0  0
  9 25  2  0  0  0  0
 10 26  1  0  0  0  0
 11 26  2  0  0  0  0
 12 27  1  0  0  0  0
 13 27  2  0  0  0  0
 14 28  1  0  0  0  0
 15 16  2  0  0  0  0
 15 29  1  0  0  0  0
 16 30  1  0  0  0  0
 17 24  1  0  0  0  0
 17 28  2  0  0  0  0
 18 30  2  0  0  0  0
 18 31  1  0  0  0  0
 19 32  1  0  0  0  0
 20 32  1  0  0  0  0
 20 33  2  0  0  0  0
 20 35  1  0  0  0  0
 21 23  2  0  0  0  0
 21 40  1  0  0  0  0
 22 24  2  0  0  0  0
 22 41  1  0  0  0  0
 23 52  1  0  0  0  0
 24 42  1  0  0  0  0
 25 67  1  0  0  0  0
 26 72  1  0  0  0  0
 27 82  1  0  0  0  0
 28 83  1  0  0  0  0
 29 31  2  0  0  0  0
 29 82  1  0  0  0  0
 30 84  1  0  0  0  0
 31 85  1  0  0  0  0
 32 65  2  0  0  0  0
 33 66  1  0  0  0  0
 33 70  1  0  0  0  0
 34 53  1  0  0  0  0
 34 67  1  0  0  0  0
 34 76  2  0  0  0  0
 35 71  1  0  0  0  0
 35 77  2  0  0  0  0
 36 54  1  0  0  0  0
 36 73  1  0  0  0  0
 36 78  2  0  0  0  0
 37 62  1  0  0  0  0
 37 68  1  0  0  0  0
 37 79  2  0  0  0  0
 38 63  1  0  0  0  0
 38 74  1  0  0  0  0
 38 80  2  0  0  0  0
 39 69  1  0  0  0  0
 39 72  1  0  0  0  0
 39 81  2  0  0  0  0
 40 43  1  0  0  0  0
 41 54  1  0  0  0  0
 42 68  1  0  0  0  0
 43 46  1  0  0  0  0
 44 47  1  0  0  0  0
 44 49  1  0  0  0  0
 45 48  1  0  0  0  0
 45 50  1  0  0  0  0
 46 52  1  0  0  0  0
 47 53  1  0  0  0  0
 48 55  1  0  0  0  0
 49 67  1  0  0  0  0
 50 69  1  0  0  0  0
 51 55  1  0  0  0  0
 51 69  1  0  0  0  0
 52 73  1  0  0  0  0
 53 61  1  0  0  0  0
 54 68  1  0  0  0  0
 55 66  1  0  0  0  0
 56 63  1  0  0  0  0
 57 64  1  0  0  0  0
 58 64  1  0  0  0  0
 59 64  1  0  0  0  0
 60 75  1  0  0  0  0
 61 83  1  0  0  0  0
 62 64  1  0  0  0  0
 62 74  1  0  0  0  0
 63 75  1  0  0  0  0
 65 66  1  0  0  0  0
M  CHG  1  75   1
M  ISO  4  39 100  61 101  72 100  83 101
M  END
> <Batch ID>
0023

> <Smiles>
CNC(C)C(=O)NC(C(=O)N1Cc2cc([101O:1][101CH2:1]C3CCCN(c4ccc([100NH:0][100C:0](=O)N5CCCC(n6nc(-c7ccc(Oc8ccc(F)cc8F)cc7)c(C(N)=O)c6N)C5)cc4)C3=O)ccc2CC1C(=O)NC1CCCc2ccccc21)C(C)(C)C

> <Shape>
0.256

> <Color>
0.086

> <Negative vol penalty>
0.000

$$$$

  -OEChem-04042321173D

 85 94  0     1  0  0  0  0  0999 V2000
  -27.4652  -32.1547   27.7340 C   0  0  0  0  0  0  0  0  0  0  0  0
  -27.6673  -31.1261   26.8194 C   0  0  0  0  0  0  0  0  0  0  0  0
  -23.2217  -12.1024   23.2739 C   0  0  0  0  0  0  0  0  0  0  0  0
  -25.0119  -10.5209   23.6357 C   0  0  0  0  0  0  0  0  0  0  0  0
  -26.1799  -32.6484   27.9533 C   0  0  0  0  0  0  0  0  0  0  0  0
  -26.5839  -30.5899   26.1242 C   0  0  0  0  0  0  0  0  0  0  0  0
  -27.5591  -29.9578   21.1952 C   0  0  0  0  0  0  0  0  0  0  0  0
  -30.3000  -19.7644   20.2902 C   0  0  0  0  0  0  0  0  0  0  0  0
  -30.1193  -18.4214   19.9599 C   0  0  0  0  0  0  0  0  0  0  0  0
  -22.7488  -11.8623   24.5639 C   0  0  0  0  0  0  0  0  0  0  0  0
  -24.5390  -10.2808   24.9258 C   0  0  0  0  0  0  0  0  0  0  0  0
  -28.3282  -28.8521   20.8350 C   0  0  0  0  0  0  0  0  0  0  0  0
  -22.0638   -8.4945   26.3796 C   0  0  0  0  0  0  0  0  0  0  0  0
  -21.9834   -7.1683   26.8040 C   0  0  0  0  0  0  0  0  0  0  0  0
  -26.3217  -27.6671   20.2115 C   0  0  0  0  0  0  0  0  0  0  0  0
  -27.9075  -20.0388   20.4841 C   0  0  0  0  0  0  0  0  0  0  0  0
  -23.5117   -7.6538   28.6111 C   0  0  0  0  0  0  0  0  0  0  0  0
  -24.3532  -11.4317   22.8097 C   0  0  0  0  0  0  0  0  0  0  0  0
  -24.1512  -11.4765   20.2671 C   0  0  0  0  0  0  0  0  0  0  0  0
  -25.0815  -32.1246   27.2533 C   0  0  0  0  0  0  0  0  0  0  0  0
  -26.1623  -29.9224   21.0763 C   0  0  0  0  0  0  0  0  0  0  0  0
  -25.2825  -31.0762   26.3353 C   0  0  0  0  0  0  0  0  0  0  0  0
  -25.5373  -28.7745   20.5685 C   0  0  0  0  0  0  0  0  0  0  0  0
  -29.1942  -20.5731   20.5524 C   0  0  0  0  0  0  0  0  0  0  0  0
  -28.8326  -17.8870   19.8916 C   0  0  0  0  0  0  0  0  0  0  0  0
  -23.4074  -10.9515   25.3899 C   0  0  0  0  0  0  0  0  0  0  0  0
  -27.7093  -27.7055   20.3458 C   0  0  0  0  0  0  0  0  0  0  0  0
  -22.8682   -9.4005   27.0710 C   0  0  0  0  0  0  0  0  0  0  0  0
  -22.7073   -6.7479   27.9197 C   0  0  0  0  0  0  0  0  0  0  0  0
  -23.5921   -8.9801   28.1867 C   0  0  0  0  0  0  0  0  0  0  0  0
  -27.7267  -18.6957   20.1537 C   0  0  0  0  0  0  0  0  0  0  0  0
  -24.8419  -11.6789   21.4770 C   0  0  0  0  0  0  0  0  0  0  0  0
  -25.0429  -11.8584   19.2947 C   0  0  0  0  0  0  0  0  0  0  0  0
  -22.8224  -10.9870   20.0424 C   0  0  0  0  0  0  0  0  0  0  0  0
  -23.7313  -30.1533   23.1112 C   0  0  0  0  0  0  0  0  0  0  0  0
  -21.9608  -30.1184   20.3934 C   0  0  0  0  0  0  0  0  0  0  0  0
  -21.9793  -28.3274   17.2614 C   0  0  0  0  0  0  0  0  0  0  0  0
  -29.6979  -15.6046   19.2685 C   0  0  0  0  0  0  0  0  0  0  0  0
  -23.7045  -32.6585   27.5588 C   0  0  0  0  0  0  0  0  0  0  0  0
  -25.3490  -31.1330   21.4440 C   0  0  0  0  0  0  0  0  0  0  0  0
  -24.0426  -28.6931   20.4024 C   0  0  0  0  0  0  0  0  0  0  0  0
  -22.6615  -32.2908   26.5065 C   0  0  0  0  0  0  0  0  0  0  0  0
  -30.7668  -23.6218   21.9992 C   0  0  0  0  0  0  0  0  0  0  0  0
  -29.7442  -12.1449   18.4287 C   0  0  0  0  0  0  0  0  0  0  0  0
  -22.7645  -30.8121   26.1465 C   0  0  0  0  0  0  0  0  0  0  0  0
  -29.7042  -24.6709   21.6978 C   0  0  0  0  0  0  0  0  0  0  0  0
  -28.4266  -11.6156   18.9997 C   0  0  0  0  0  0  0  0  0  0  0  0
  -30.1675  -22.2211   22.0836 C   0  0  0  0  0  0  0  0  0  0  0  0
  -30.3647  -13.2116   19.3292 C   0  0  0  0  0  0  0  0  0  0  0  0
  -28.3477  -22.8995   20.5080 C   0  0  0  0  0  0  0  0  0  0  0  0
  -28.1553  -13.7954   20.2495 C   0  0  0  0  0  0  0  0  0  0  0  0
  -24.1361  -30.4854   25.5436 C   0  0  1  0  0  0  0  0  0  0  0  0
  -23.8950  -30.8010   21.7653 C   0  0  1  0  0  0  0  0  0  0  0  0
  -28.9449  -24.3120   20.4180 C   0  0  1  0  0  0  0  0  0  0  0  0
  -27.4597  -12.7652   19.3447 C   0  0  2  0  0  0  0  0  0  0  0  0
  -21.1289  -28.9932   14.9962 C   0  0  0  0  0  0  0  0  0  0  0  0
  -19.4162  -28.6632   21.2407 C   0  0  0  0  0  0  0  0  0  0  0  0
  -19.2074  -27.8090   18.8966 C   0  0  0  0  0  0  0  0  0  0  0  0
  -19.1201  -30.2622   19.3407 C   0  0  0  0  0  0  0  0  0  0  0  0
  -24.6087  -27.8260   15.9988 C   0  0  0  0  0  0  0  0  0  0  0  0
  -27.8509  -25.3408   20.1356 C   0  0  0  0  0  0  0  0  0  1  0  0
  -21.3257  -29.0433   19.5449 C   0  0  1  0  0  0  0  0  0  0  0  0
  -22.3484  -28.8843   15.8982 C   0  0  2  0  0  0  0  0  0  0  0  0
  -19.7909  -28.9394   19.7709 C   0  0  0  0  0  0  0  0  0  0  0  0
  -26.0771  -12.1525   21.2926 N   0  0  0  0  0  0  0  0  0  0  0  0
  -26.1696  -12.2507   19.9555 N   0  0  0  0  0  0  0  0  0  0  0  0
  -29.3763  -21.9220   20.8830 N   0  0  2  0  0  0  0  0  0  0  0  0
  -23.2903  -29.9005   20.7817 N   0  0  0  0  0  0  0  0  0  0  0  0
  -29.3923  -14.2702   19.6100 N   0  0  0  0  0  0  0  0  0  0  0  0
  -24.9652  -11.8934   17.9474 N   0  0  0  0  0  0  0  0  0  0  0  0
  -22.0414  -10.6403   21.1532 N   0  0  0  0  0  0  0  0  0  0  0  0
  -28.6844  -16.5191   19.5529 N   0  0  0  0  0  0  0  0  0  0  0  0
  -24.1975  -30.9176   24.1638 N   0  0  0  0  0  0  0  0  0  0  0  0
  -21.7086  -29.3313   18.1670 N   0  0  0  0  0  0  0  0  0  0  0  0
  -23.3486  -28.0028   15.2321 N   0  3  0  0  0  0  0  0  0  0  0  0
  -22.3478  -10.8455   18.8899 O   0  0  0  0  0  0  0  0  0  0  0  0
  -23.2185  -29.0431   23.1890 O   0  0  0  0  0  0  0  0  0  0  0  0
  -21.3038  -31.1181   20.6944 O   0  0  0  0  0  0  0  0  0  0  0  0
  -21.9319  -27.1223   17.4980 O   0  0  0  0  0  0  0  0  0  0  0  0
  -30.7683  -15.9094   18.7362 O   0  0  0  0  0  0  0  0  0  0  0  0
  -22.9464  -10.7171   26.6489 O   0  0  0  0  0  0  0  0  0  0  0  0
  -28.4576  -26.6246   19.9941 O   0  0  0  0  0  0  0  0  0  1  0  0
  -22.6288   -5.4746   28.3280 F   0  0  0  0  0  0  0  0  0  0  0  0
  -24.3657   -9.8461   28.8557 F   0  0  0  0  0  0  0  0  0  0  0  0
  -26.1160  -18.0746   20.0799 Cl  0  0  0  0  0  0  0  0  0  0  0  0
  1  2  1  0  0  0  0
  1  5  2  0  0  0  0
  2  6  2  0  0  0  0
  3 10  2  0  0  0  0
  3 18  1  0  0  0  0
  4 11  1  0  0  0  0
  4 18  2  0  0  0  0
  5 20  1  0  0  0  0
  6 22  1  0  0  0  0
  7 12  2  0  0  0  0
  7 21  1  0  0  0  0
  8  9  2  0  0  0  0
  8 24  1  0  0  0  0
  9 25  1  0  0  0  0
 10 26  1  0  0  0  0
 11 26  2  0  0  0  0
 12 27  1  0  0  0  0
 13 14  2  0  0  0  0
 13 28  1  0  0  0  0
 14 29  1  0  0  0  0
 15 23  1  0  0  0  0
 15 27  2  0  0  0  0
 16 24  2  0  0  0  0
 16 31  1  0  0  0  0
 17 29  2  0  0  0  0
 17 30  1  0  0  0  0
 18 32  1  0  0  0  0
 19 32  1  0  0  0  0
 19 33  2  0  0  0  0
 19 34  1  0  0  0  0
 20 22  2  0  0  0  0
 20 39  1  0  0  0  0
 21 23  2  0  0  0  0
 21 40  1  0  0  0  0
 22 52  1  0  0  0  0
 23 41  1  0  0  0  0
 24 67  1  0  0  0  0
 25 31  2  0  0  0  0
 25 72  1  0  0  0  0
 26 81  1  0  0  0  0
 27 82  1  0  0  0  0
 28 30  2  0  0  0  0
 28 81  1  0  0  0  0
 29 83  1  0  0  0  0
 30 84  1  0  0  0  0
 31 85  1  0  0  0  0
 32 65  2  0  0  0  0
 33 66  1  0  0  0  0
 33 70  1  0  0  0  0
 34 71  1  0  0  0  0
 34 76  2  0  0  0  0
 35 53  1  0  0  0  0
 35 73  1  0  0  0  0
 35 77  2  0  0  0  0
 36 62  1  0  0  0  0
 36 68  1  0  0  0  0
 36 78  2  0  0  0  0
 37 63  1  0  0  0  0
 37 74  1  0  0  0  0
 37 79  2  0  0  0  0
 38 69  1  0  0  0  0
 38 72  1  0  0  0  0
 38 80  2  0  0  0  0
 39 42  1  0  0  0  0
 40 53  1  0  0  0  0
 41 68  1  0  0  0  0
 42 45  1  0  0  0  0
 43 46  1  0  0  0  0
 43 48  1  0  0  0  0
 44 47  1  0  0  0  0
 44 49  1  0  0  0  0
 45 52  1  0  0  0  0
 46 54  1  0  0  0  0
 47 55  1  0  0  0  0
 48 67  1  0  0  0  0
 49 69  1  0  0  0  0
 50 54  1  0  0  0  0
 50 67  1  0  0  0  0
 51 55  1  0  0  0  0
 51 69  1  0  0  0  0
 52 73  1  0  0  0  0
 53 68  1  0  0  0  0
 54 61  1  0  0  0  0
 55 66  1  0  0  0  0
 56 63  1  0  0  0  0
 57 64  1  0  0  0  0
 58 64  1  0  0  0  0
 59 64  1  0  0  0  0
 60 75  1  0  0  0  0
 61 82  1  0  0  0  0
 62 64  1  0  0  0  0
 62 74  1  0  0  0  0
 63 75  1  0  0  0  0
 65 66  1  0  0  0  0
M  CHG  1  75   1
M  ISO  4  38 100  61 101  72 100  82 101
M  END
> <Batch ID>
0023

> <Smiles>
CNC(C)C(=O)NC(C(=O)N1Cc2cc([101O:1][101CH2:1]C3CCCN(c4ccc([100NH:0][100C:0](=O)N5CCCC(n6nc(-c7ccc(Oc8ccc(F)cc8F)cc7)c(C(N)=O)c6N)C5)c(Cl)c4)C3)ccc2CC1C(=O)NC1CCCc2ccccc21)C(C)(C)C

> <Shape>
0.263

> <Color>
0.100

> <Negative vol penalty>
0.000

$$$$

  -OEChem-04042321173D

 88 97  0     1  0  0  0  0  0999 V2000
  -16.6794  -31.6183   22.9067 C   0  0  0  0  0  0  0  0  0  0  0  0
  -17.4282  -31.6809   21.7358 C   0  0  0  0  0  0  0  0  0  0  0  0
  -25.6234  -12.3217   19.2904 C   0  0  0  0  0  0  0  0  0  0  0  0
  -26.2654  -12.9150   21.5427 C   0  0  0  0  0  0  0  0  0  0  0  0
  -17.2857  -31.8775   24.1352 C   0  0  0  0  0  0  0  0  0  0  0  0
  -18.7835  -32.0039   21.7927 C   0  0  0  0  0  0  0  0  0  0  0  0
  -30.9735  -20.1796   18.2812 C   0  0  0  0  0  0  0  0  0  0  0  0
  -24.9801  -28.0653   19.1250 C   0  0  0  0  0  0  0  0  0  0  0  0
  -30.0752  -21.2377   18.1457 C   0  0  0  0  0  0  0  0  0  0  0  0
  -24.2791  -12.3816   19.6578 C   0  0  0  0  0  0  0  0  0  0  0  0
  -24.9211  -12.9749   21.9101 C   0  0  0  0  0  0  0  0  0  0  0  0
  -26.1644  -27.3866   18.8369 C   0  0  0  0  0  0  0  0  0  0  0  0
  -22.0530  -10.4278   21.2860 C   0  0  0  0  0  0  0  0  0  0  0  0
  -21.2187   -9.3945   20.8597 C   0  0  0  0  0  0  0  0  0  0  0  0
  -31.5215  -22.6223   19.4807 C   0  0  0  0  0  0  0  0  0  0  0  0
  -27.2945  -28.5854   20.6071 C   0  0  0  0  0  0  0  0  0  0  0  0
  -19.8519  -10.9902   19.6669 C   0  0  0  0  0  0  0  0  0  0  0  0
  -26.6165  -12.5884   20.2328 C   0  0  0  0  0  0  0  0  0  0  0  0
  -28.6995  -11.4104   19.3489 C   0  0  0  0  0  0  0  0  0  0  0  0
  -18.6513  -32.1943   24.2081 C   0  0  0  0  0  0  0  0  0  0  0  0
  -24.9445  -28.9965   20.1666 C   0  0  0  0  0  0  0  0  0  0  0  0
  -32.1742  -20.3273   19.0044 C   0  0  0  0  0  0  0  0  0  0  0  0
  -19.4083  -32.2689   23.0232 C   0  0  0  0  0  0  0  0  0  0  0  0
  -32.4450  -21.5690   19.6243 C   0  0  0  0  0  0  0  0  0  0  0  0
  -26.1079  -29.2592   20.9084 C   0  0  0  0  0  0  0  0  0  0  0  0
  -30.3498  -22.4599   18.7442 C   0  0  0  0  0  0  0  0  0  0  0  0
  -23.9280  -12.7083   20.9676 C   0  0  0  0  0  0  0  0  0  0  0  0
  -27.3188  -27.6463   19.5760 C   0  0  0  0  0  0  0  0  0  0  0  0
  -21.7867  -11.7424   20.9029 C   0  0  0  0  0  0  0  0  0  0  0  0
  -20.1182   -9.6756   20.0501 C   0  0  0  0  0  0  0  0  0  0  0  0
  -20.6862  -12.0235   20.0933 C   0  0  0  0  0  0  0  0  0  0  0  0
  -28.0053  -12.5261   19.8541 C   0  0  0  0  0  0  0  0  0  0  0  0
  -29.9801  -11.8647   19.1485 C   0  0  0  0  0  0  0  0  0  0  0  0
  -33.2362  -18.7186   21.6748 C   0  0  0  0  0  0  0  0  0  0  0  0
  -32.7557  -18.4104   20.4613 C   0  0  0  0  0  0  0  0  0  0  0  0
  -28.2288  -10.0823   19.0842 C   0  0  0  0  0  0  0  0  0  0  0  0
  -22.9016  -31.4386   22.1512 C   0  0  0  0  0  0  0  0  0  0  0  0
  -24.7097  -29.9638   24.1427 C   0  0  0  0  0  0  0  0  0  0  0  0
  -29.5572  -24.8147   19.1447 C   0  0  0  0  0  0  0  0  0  0  0  0
  -26.5570  -27.8233   26.0514 C   0  0  0  0  0  0  0  0  0  0  0  0
  -32.2352  -17.0826   18.0102 C   0  0  0  0  0  0  0  0  0  0  0  0
  -19.2517  -32.5129   25.5544 C   0  0  0  0  0  0  0  0  0  0  0  0
  -23.7069  -29.7958   20.4722 C   0  0  0  0  0  0  0  0  0  0  0  0
  -33.6895  -21.8255   20.4479 C   0  0  0  0  0  0  0  0  0  0  0  0
  -26.0317  -30.2945   21.9972 C   0  0  0  0  0  0  0  0  0  0  0  0
  -34.2135  -19.8128   21.9864 C   0  0  0  0  0  0  0  0  0  0  0  0
  -20.7779  -32.4808   25.5637 C   0  0  0  0  0  0  0  0  0  0  0  0
  -33.6597  -21.2388   21.8668 C   0  0  0  0  0  0  0  0  0  0  0  0
  -33.1229  -15.0724   20.7748 C   0  0  0  0  0  0  0  0  0  0  0  0
  -21.3351  -33.2381   24.3626 C   0  0  0  0  0  0  0  0  0  0  0  0
  -31.9638  -14.0774   20.8101 C   0  0  0  0  0  0  0  0  0  0  0  0
  -32.6534  -16.4899   20.4424 C   0  0  0  0  0  0  0  0  0  0  0  0
  -30.6921  -15.5835   19.2366 C   0  0  0  0  0  0  0  0  0  0  0  0
  -33.1044  -19.1426   19.1959 C   0  0  1  0  0  0  0  0  0  0  0  0
  -20.8866  -32.5916   23.0463 C   0  0  1  0  0  0  0  0  0  0  0  0
  -23.5334  -30.0893   21.9731 C   0  0  1  0  0  0  0  0  0  0  0  0
  -31.1445  -14.1408   19.5093 C   0  0  2  0  0  0  0  0  0  0  0  0
  -27.1517  -27.3254   28.4379 C   0  0  0  0  0  0  0  0  0  0  0  0
  -26.5991  -32.3582   24.1675 C   0  0  0  0  0  0  0  0  0  0  0  0
  -27.8083  -31.2942   26.0843 C   0  0  0  0  0  0  0  0  0  0  0  0
  -25.4121  -31.9431   26.3293 C   0  0  0  0  0  0  0  0  0  0  0  0
  -33.8058  -18.6176   16.8897 C   0  0  0  0  0  0  0  0  0  0  0  0
  -25.3840  -25.1104   25.8993 C   0  0  0  0  0  0  0  0  0  0  0  0
  -28.3567  -25.6635   18.7692 C   0  0  0  0  0  0  0  0  0  1  0  0
  -26.0162  -29.9505   24.8951 C   0  0  1  0  0  0  0  0  0  0  0  0
  -26.2050  -27.0169   27.2884 C   0  0  2  0  0  0  0  0  0  0  0  0
  -26.4558  -31.3726   25.3444 C   0  0  0  0  0  0  0  0  0  0  0  0
  -28.7807  -13.6077   19.9678 N   0  0  0  0  0  0  0  0  0  0  0  0
  -29.9754  -13.1738   19.5313 N   0  0  0  0  0  0  0  0  0  0  0  0
  -24.7806  -30.1355   22.7549 N   0  0  0  0  0  0  0  0  0  0  0  0
  -31.8363  -16.4981   19.2213 N   0  0  0  0  0  0  0  0  0  0  0  0
  -31.0985  -11.2681   18.6840 N   0  0  0  0  0  0  0  0  0  0  0  0
  -28.3075   -9.1290   20.1087 N   0  0  0  0  0  0  0  0  0  0  0  0
  -29.4512  -23.5193   18.6164 N   0  0  0  0  0  0  0  0  0  0  0  0
  -21.6685  -31.4047   22.7741 N   0  0  0  0  0  0  0  0  0  0  0  0
  -25.8462  -29.0033   25.9916 N   0  0  0  0  0  0  0  0  0  0  0  0
  -33.0878  -18.1943   18.0838 N   0  0  0  0  0  0  0  0  0  0  0  0
  -26.2820  -25.5578   26.9949 N   0  3  0  0  0  0  0  0  0  0  0  0
  -27.7676   -9.7463   17.9671 O   0  0  0  0  0  0  0  0  0  0  0  0
  -23.4893  -32.4380   21.7545 O   0  0  0  0  0  0  0  0  0  0  0  0
  -23.6530  -29.8314   24.7666 O   0  0  0  0  0  0  0  0  0  0  0  0
  -30.4726  -25.2627   19.8272 O   0  0  0  0  0  0  0  0  0  0  0  0
  -27.3828  -27.4460   25.2230 O   0  0  0  0  0  0  0  0  0  0  0  0
  -31.8450  -16.6412   16.9217 O   0  0  0  0  0  0  0  0  0  0  0  0
  -22.6164  -12.7670   21.3264 O   0  0  0  0  0  0  0  0  0  0  0  0
  -28.4823  -26.9699   19.2895 O   0  0  0  0  0  0  0  0  0  1  0  0
  -19.3180   -8.6830   19.6394 F   0  0  0  0  0  0  0  0  0  0  0  0
  -20.4260  -13.2843   19.7210 F   0  0  0  0  0  0  0  0  0  0  0  0
  1  2  1  0  0  0  0
  1  5  2  0  0  0  0
  2  6  2  0  0  0  0
  3 10  2  0  0  0  0
  3 18  1  0  0  0  0
  4 11  1  0  0  0  0
  4 18  2  0  0  0  0
  5 20  1  0  0  0  0
  6 23  1  0  0  0  0
  7  9  2  0  0  0  0
  7 22  1  0  0  0  0
  8 12  2  0  0  0  0
  8 21  1  0  0  0  0
  9 26  1  0  0  0  0
 10 27  1  0  0  0  0
 11 27  2  0  0  0  0
 12 28  1  0  0  0  0
 13 14  2  0  0  0  0
 13 29  1  0  0  0  0
 14 30  1  0  0  0  0
 15 24  1  0  0  0  0
 15 26  2  0  0  0  0
 16 25  1  0  0  0  0
 16 28  2  0  0  0  0
 17 30  2  0  0  0  0
 17 31  1  0  0  0  0
 18 32  1  0  0  0  0
 19 32  1  0  0  0  0
 19 33  2  0  0  0  0
 19 36  1  0  0  0  0
 20 23  2  0  0  0  0
 20 42  1  0  0  0  0
 21 25  2  0  0  0  0
 21 43  1  0  0  0  0
 22 24  2  0  0  0  0
 22 54  1  0  0  0  0
 23 55  1  0  0  0  0
 24 44  1  0  0  0  0
 25 45  1  0  0  0  0
 26 74  1  0  0  0  0
 27 85  1  0  0  0  0
 28 86  1  0  0  0  0
 29 31  2  0  0  0  0
 29 85  1  0  0  0  0
 30 87  1  0  0  0  0
 31 88  1  0  0  0  0
 32 68  2  0  0  0  0
 33 69  1  0  0  0  0
 33 72  1  0  0  0  0
 34 35  2  0  0  0  0
 34 46  1  0  0  0  0
 35 54  1  0  0  0  0
 36 73  1  0  0  0  0
 36 79  2  0  0  0  0
 37 56  1  0  0  0  0
 37 75  1  0  0  0  0
 37 80  2  0  0  0  0
 38 65  1  0  0  0  0
 38 70  1  0  0  0  0
 38 81  2  0  0  0  0
 39 64  1  0  0  0  0
 39 74  1  0  0  0  0
 39 82  2  0  0  0  0
 40 66  1  0  0  0  0
 40 76  1  0  0  0  0
 40 83  2  0  0  0  0
 41 71  1  0  0  0  0
 41 77  1  0  0  0  0
 41 84  2  0  0  0  0
 42 47  1  0  0  0  0
 43 56  1  0  0  0  0
 44 48  1  0  0  0  0
 45 70  1  0  0  0  0
 46 48  1  0  0  0  0
 47 50  1  0  0  0  0
 49 51  1  0  0  0  0
 49 52  1  0  0  0  0
 50 55  1  0  0  0  0
 51 57  1  0  0  0  0
 52 71  1  0  0  0  0
 53 57  1  0  0  0  0
 53 71  1  0  0  0  0
 54 77  1  0  0  0  0
 55 75  1  0  0  0  0
 56 70  1  0  0  0  0
 57 69  1  0  0  0  0
 58 66  1  0  0  0  0
 59 67  1  0  0  0  0
 60 67  1  0  0  0  0
 61 67  1  0  0  0  0
 62 77  1  0  0  0  0
 63 78  1  0  0  0  0
 64 86  1  0  0  0  0
 65 67  1  0  0  0  0
 65 76  1  0  0  0  0
 66 78  1  0  0  0  0
 68 69  1  0  0  0  0
M  CHG  1  78   1
M  ISO  4  41 100  64 101  77 100  86 101
M  END
> <Batch ID>
0023

> <Smiles>
CNC(C)C(=O)NC(C(=O)N1Cc2cc([101O:1][101CH2:1]C(=O)Nc3ccc4c(c3)CCCC=CC4[100N:0](C)[100C:0](=O)N3CCCC(n4nc(-c5ccc(Oc6ccc(F)cc6F)cc5)c(C(N)=O)c4N)C3)ccc2CC1C(=O)NC1CCCc2ccccc21)C(C)(C)C

> <Shape>
0.251

> <Color>
0.121

> <Negative vol penalty>
0.000

$$$$

  -OEChem-04042321173D

 87 96  0     1  0  0  0  0  0999 V2000
  -30.4131  -26.2301   16.7044 C   0  0  0  0  0  0  0  0  0  0  0  0
  -29.0269  -26.1849   16.8124 C   0  0  0  0  0  0  0  0  0  0  0  0
  -23.8501  -13.1352   20.6906 C   0  0  0  0  0  0  0  0  0  0  0  0
  -26.0656  -14.0982   20.7293 C   0  0  0  0  0  0  0  0  0  0  0  0
  -31.1842  -26.6184   17.7992 C   0  0  0  0  0  0  0  0  0  0  0  0
  -28.4109  -26.5269   18.0157 C   0  0  0  0  0  0  0  0  0  0  0  0
  -23.0222  -29.3501   18.7210 C   0  0  0  0  0  0  0  0  0  0  0  0
  -24.4059  -11.8560   20.7005 C   0  0  0  0  0  0  0  0  0  0  0  0
  -26.6214  -12.8189   20.7392 C   0  0  0  0  0  0  0  0  0  0  0  0
  -21.7420  -28.8722   18.9976 C   0  0  0  0  0  0  0  0  0  0  0  0
  -25.7703   -9.7502   22.9670 C   0  0  0  0  0  0  0  0  0  0  0  0
  -25.2138   -8.8083   23.8323 C   0  0  0  0  0  0  0  0  0  0  0  0
  -22.0834  -29.3314   21.3410 C   0  0  0  0  0  0  0  0  0  0  0  0
  -21.5375  -23.3652   19.5001 C   0  0  0  0  0  0  0  0  0  0  0  0
  -20.6999  -24.5308   21.8923 C   0  0  0  0  0  0  0  0  0  0  0  0
  -24.6787   -7.3936   21.9483 C   0  0  0  0  0  0  0  0  0  0  0  0
  -24.6799  -14.2564   20.7050 C   0  0  0  0  0  0  0  0  0  0  0  0
  -23.2360  -16.1349   21.6505 C   0  0  0  0  0  0  0  0  0  0  0  0
  -30.5768  -26.9746   19.0136 C   0  0  0  0  0  0  0  0  0  0  0  0
  -23.8481  -29.8128   19.7555 C   0  0  0  0  0  0  0  0  0  0  0  0
  -29.1746  -26.9190   19.1282 C   0  0  0  0  0  0  0  0  0  0  0  0
  -23.3727  -29.8170   21.0746 C   0  0  0  0  0  0  0  0  0  0  0  0
  -22.1832  -23.0465   20.6948 C   0  0  0  0  0  0  0  0  0  0  0  0
  -20.0543  -24.8495   20.6976 C   0  0  0  0  0  0  0  0  0  0  0  0
  -25.7916  -11.6978   20.7248 C   0  0  0  0  0  0  0  0  0  0  0  0
  -21.2735  -28.8601   20.3081 C   0  0  0  0  0  0  0  0  0  0  0  0
  -25.7809   -9.5139   21.5923 C   0  0  0  0  0  0  0  0  0  0  0  0
  -24.6681   -7.6300   23.3230 C   0  0  0  0  0  0  0  0  0  0  0  0
  -20.4731  -24.2667   19.5015 C   0  0  0  0  0  0  0  0  0  0  0  0
  -21.7643  -23.6293   21.8909 C   0  0  0  0  0  0  0  0  0  0  0  0
  -25.2351   -8.3356   21.0830 C   0  0  0  0  0  0  0  0  0  0  0  0
  -24.1063  -15.5781   20.6943 C   0  0  0  0  0  0  0  0  0  0  0  0
  -22.9825  -17.4027   21.1871 C   0  0  0  0  0  0  0  0  0  0  0  0
  -22.7043  -15.5577   22.8504 C   0  0  0  0  0  0  0  0  0  0  0  0
  -26.6641  -28.9355   20.9404 C   0  0  0  0  0  0  0  0  0  0  0  0
  -26.3141  -31.6240   22.7214 C   0  0  0  0  0  0  0  0  0  0  0  0
  -24.2127  -33.9330   24.0997 C   0  0  0  0  0  0  0  0  0  0  0  0
  -25.2667  -22.1605   19.0744 C   0  0  0  0  0  0  0  0  0  0  0  0
  -31.4544  -27.3423   20.1838 C   0  0  0  0  0  0  0  0  0  0  0  0
  -25.2165  -30.3500   19.4372 C   0  0  0  0  0  0  0  0  0  0  0  0
  -24.2124  -30.3218   22.2185 C   0  0  0  0  0  0  0  0  0  0  0  0
  -30.7040  -28.0495   21.3094 C   0  0  0  0  0  0  0  0  0  0  0  0
  -24.0135  -19.5710   16.7451 C   0  0  0  0  0  0  0  0  0  0  0  0
  -16.7406  -26.3245   20.4427 C   0  0  0  0  0  0  0  0  0  0  0  0
  -29.4027  -27.3189   21.6250 C   0  0  0  0  0  0  0  0  0  0  0  0
  -23.9262  -18.3342   17.6377 C   0  0  0  0  0  0  0  0  0  0  0  0
  -17.4112  -27.3980   21.2813 C   0  0  0  0  0  0  0  0  0  0  0  0
  -17.9114  -25.6584   19.7304 C   0  0  0  0  0  0  0  0  0  0  0  0
  -25.0919  -20.5394   17.2216 C   0  0  0  0  0  0  0  0  0  0  0  0
  -24.8631  -19.7081   19.5391 C   0  0  0  0  0  0  0  0  0  0  0  0
  -28.4682  -27.3064   20.4092 C   0  0  1  0  0  0  0  0  0  0  0  0
  -26.1637  -30.3185   20.6327 C   0  0  1  0  0  0  0  0  0  0  0  0
  -23.7544  -18.7338   19.1136 C   0  0  2  0  0  0  0  0  0  0  0  0
  -18.7230  -26.7403   21.7441 C   0  0  2  0  0  0  0  0  0  0  0  0
  -24.2169  -35.9921   25.5341 C   0  0  0  0  0  0  0  0  0  0  0  0
  -26.7907  -29.8987   25.1924 C   0  0  0  0  0  0  0  0  0  0  0  0
  -25.8582  -31.7585   26.5852 C   0  0  0  0  0  0  0  0  0  0  0  0
  -27.9268  -32.1261   25.2404 C   0  0  0  0  0  0  0  0  0  0  0  0
  -24.8537  -24.0143   20.6469 C   0  0  0  0  0  0  0  0  0  0  0  0
  -23.0127  -35.5744   21.9492 C   0  0  0  0  0  0  0  0  0  0  0  0
  -23.3207  -22.0820   20.6898 C   0  0  0  0  0  0  0  0  0  0  0  0
  -19.8204  -27.7933   21.8593 C   0  0  0  0  0  0  0  0  0  1  0  0
  -25.6976  -31.9460   24.0613 C   0  0  1  0  0  0  0  0  0  0  0  0
  -24.2533  -35.4504   24.1135 C   0  0  2  0  0  0  0  0  0  0  0  0
  -26.5530  -31.4209   25.2487 C   0  0  0  0  0  0  0  0  0  0  0  0
  -24.3868  -16.4229   19.6985 N   0  0  0  0  0  0  0  0  0  0  0  0
  -23.6887  -17.5235   20.0265 N   0  0  0  0  0  0  0  0  0  0  0  0
  -19.0011  -25.7423   20.7016 N   0  0  3  0  0  0  0  0  0  0  0  0
  -25.5456  -30.8312   21.8572 N   0  0  0  0  0  0  0  0  0  0  0  0
  -24.9302  -20.8685   18.6382 N   0  0  0  0  0  0  0  0  0  0  0  0
  -22.2267  -18.4149   21.6631 N   0  0  0  0  0  0  0  0  0  0  0  0
  -23.4242  -15.7137   24.0428 N   0  0  0  0  0  0  0  0  0  0  0  0
  -27.8160  -28.5897   20.2599 N   0  0  0  0  0  0  0  0  0  0  0  0
  -25.4792  -33.3884   24.0740 N   0  0  0  0  0  0  0  0  0  0  0  0
  -24.5492  -22.6745   20.1651 N   0  0  0  0  0  0  0  0  0  0  0  0
  -23.0885  -36.0066   23.3685 N   0  3  0  0  0  0  0  0  0  0  0  0
  -21.6311  -14.9083   22.8617 O   0  0  0  0  0  0  0  0  0  0  0  0
  -26.0514  -28.2347   21.7373 O   0  0  0  0  0  0  0  0  0  0  0  0
  -27.4331  -32.0657   22.4487 O   0  0  0  0  0  0  0  0  0  0  0  0
  -23.1626  -33.2946   24.1142 O   0  0  0  0  0  0  0  0  0  0  0  0
  -26.1512  -22.8209   18.5145 O   0  0  0  0  0  0  0  0  0  0  0  0
  -26.3343  -10.4496   20.7346 O   0  0  0  0  0  0  0  0  0  0  0  0
  -20.0246  -28.3935   20.5809 O   0  0  0  0  0  0  0  0  0  1  0  0
  -24.1352   -6.7248   24.1542 F   0  0  0  0  0  0  0  0  0  0  0  0
  -19.8597  -24.5659   18.3476 F   0  0  0  0  0  0  0  0  0  0  0  0
  -22.3786  -23.3293   23.0438 F   0  0  0  0  0  0  0  0  0  0  0  0
  -25.2435   -8.1024   19.7634 F   0  0  0  0  0  0  0  0  0  0  0  0
  1  2  1  0  0  0  0
  1  5  2  0  0  0  0
  2  6  2  0  0  0  0
  3  8  2  0  0  0  0
  3 17  1  0  0  0  0
  4  9  1  0  0  0  0
  4 17  2  0  0  0  0
  5 19  1  0  0  0  0
  6 21  1  0  0  0  0
  7 10  2  0  0  0  0
  7 20  1  0  0  0  0
  8 25  1  0  0  0  0
  9 25  2  0  0  0  0
 10 26  1  0  0  0  0
 11 12  2  0  0  0  0
 11 27  1  0  0  0  0
 12 28  1  0  0  0  0
 13 22  1  0  0  0  0
 13 26  2  0  0  0  0
 14 23  2  0  0  0  0
 14 29  1  0  0  0  0
 15 24  1  0  0  0  0
 15 30  2  0  0  0  0
 16 28  2  0  0  0  0
 16 31  1  0  0  0  0
 17 32  1  0  0  0  0
 18 32  1  0  0  0  0
 18 33  2  0  0  0  0
 18 34  1  0  0  0  0
 19 21  2  0  0  0  0
 19 39  1  0  0  0  0
 20 22  2  0  0  0  0
 20 40  1  0  0  0  0
 21 51  1  0  0  0  0
 22 41  1  0  0  0  0
 23 30  1  0  0  0  0
 23 61  1  0  0  0  0
 24 29  2  0  0  0  0
 24 68  1  0  0  0  0
 25 82  1  0  0  0  0
 26 83  1  0  0  0  0
 27 31  2  0  0  0  0
 27 82  1  0  0  0  0
 28 84  1  0  0  0  0
 29 85  1  0  0  0  0
 30 86  1  0  0  0  0
 31 87  1  0  0  0  0
 32 66  2  0  0  0  0
 33 67  1  0  0  0  0
 33 71  1  0  0  0  0
 34 72  1  0  0  0  0
 34 77  2  0  0  0  0
 35 52  1  0  0  0  0
 35 73  1  0  0  0  0
 35 78  2  0  0  0  0
 36 63  1  0  0  0  0
 36 69  1  0  0  0  0
 36 79  2  0  0  0  0
 37 64  1  0  0  0  0
 37 74  1  0  0  0  0
 37 80  2  0  0  0  0
 38 70  1  0  0  0  0
 38 75  1  0  0  0  0
 38 81  2  0  0  0  0
 39 42  1  0  0  0  0
 40 52  1  0  0  0  0
 41 69  1  0  0  0  0
 42 45  1  0  0  0  0
 43 46  1  0  0  0  0
 43 49  1  0  0  0  0
 44 47  1  0  0  0  0
 44 48  1  0  0  0  0
 45 51  1  0  0  0  0
 46 53  1  0  0  0  0
 47 54  1  0  0  0  0
 48 68  1  0  0  0  0
 49 70  1  0  0  0  0
 50 53  1  0  0  0  0
 50 70  1  0  0  0  0
 51 73  1  0  0  0  0
 52 69  1  0  0  0  0
 53 67  1  0  0  0  0
 54 62  1  0  0  0  0
 54 68  1  0  0  0  0
 55 64  1  0  0  0  0
 56 65  1  0  0  0  0
 57 65  1  0  0  0  0
 58 65  1  0  0  0  0
 59 75  1  0  0  0  0
 60 76  1  0  0  0  0
 61 75  1  0  0  0  0
 62 83  1  0  0  0  0
 63 65  1  0  0  0  0
 63 74  1  0  0  0  0
 64 76  1  0  0  0  0
 66 67  1  0  0  0  0
M  CHG  1  76   1
M  ISO  4  38 100  62 101  75 100  83 101
M  END
> <Batch ID>
0023

> <Smiles>
CNC(C)C(=O)NC(C(=O)N1Cc2cc([101O:1][101CH2:1]C3CCCN3c3cc(F)c(C[100N:0](C)[100C:0](=O)N4CCCC(n5nc(-c6ccc(Oc7ccc(F)cc7F)cc6)c(C(N)=O)c5N)C4)cc3F)ccc2CC1C(=O)NC1CCCc2ccccc21)C(C)(C)C

> <Shape>
0.260

> <Color>
0.079

> <Negative vol penalty>
0.000

$$$$

  -OEChem-04042321173D

 85 94  0     1  0  0  0  0  0999 V2000
  -25.7139  -33.7077   23.3178 C   0  0  0  0  0  0  0  0  0  0  0  0
  -26.0366  -32.7184   22.3944 C   0  0  0  0  0  0  0  0  0  0  0  0
  -26.6271  -12.4090   21.7432 C   0  0  0  0  0  0  0  0  0  0  0  0
  -26.0796  -14.0570   20.0634 C   0  0  0  0  0  0  0  0  0  0  0  0
  -25.4187  -33.3602   24.6354 C   0  0  0  0  0  0  0  0  0  0  0  0
  -26.0653  -31.3811   22.7884 C   0  0  0  0  0  0  0  0  0  0  0  0
  -24.4932  -26.5156   19.4178 C   0  0  0  0  0  0  0  0  0  0  0  0
  -28.9726  -23.8432   20.7372 C   0  0  0  0  0  0  0  0  0  0  0  0
  -25.3098  -11.9508   21.7230 C   0  0  0  0  0  0  0  0  0  0  0  0
  -24.7623  -13.5987   20.0432 C   0  0  0  0  0  0  0  0  0  0  0  0
  -25.2463  -25.5995   18.6847 C   0  0  0  0  0  0  0  0  0  0  0  0
  -23.3902   -9.9732   19.7642 C   0  0  0  0  0  0  0  0  0  0  0  0
  -28.9542  -23.4360   22.0711 C   0  0  0  0  0  0  0  0  0  0  0  0
  -23.1841   -8.5940   19.7323 C   0  0  0  0  0  0  0  0  0  0  0  0
  -25.2150  -24.0824   20.5601 C   0  0  0  0  0  0  0  0  0  0  0  0
  -21.9719   -8.7269   21.8179 C   0  0  0  0  0  0  0  0  0  0  0  0
  -27.0120  -13.4622   20.9134 C   0  0  0  0  0  0  0  0  0  0  0  0
  -29.4429  -13.4831   20.1403 C   0  0  0  0  0  0  0  0  0  0  0  0
  -25.4344  -32.0171   25.0434 C   0  0  0  0  0  0  0  0  0  0  0  0
  -24.1040  -26.2261   20.7335 C   0  0  0  0  0  0  0  0  0  0  0  0
  -25.7713  -31.0155   24.1130 C   0  0  0  0  0  0  0  0  0  0  0  0
  -24.4549  -24.9955   21.3067 C   0  0  0  0  0  0  0  0  0  0  0  0
  -29.9276  -21.7170   20.1013 C   0  0  0  0  0  0  0  0  0  0  0  0
  -29.4592  -22.9837   19.7522 C   0  0  0  0  0  0  0  0  0  0  0  0
  -29.9092  -21.3098   21.4353 C   0  0  0  0  0  0  0  0  0  0  0  0
  -24.3774  -12.5456   20.8730 C   0  0  0  0  0  0  0  0  0  0  0  0
  -25.6098  -24.3839   19.2568 C   0  0  0  0  0  0  0  0  0  0  0  0
  -22.8872  -10.7292   20.8230 C   0  0  0  0  0  0  0  0  0  0  0  0
  -22.4749   -7.9709   20.7591 C   0  0  0  0  0  0  0  0  0  0  0  0
  -29.4225  -22.1693   22.4202 C   0  0  0  0  0  0  0  0  0  0  0  0
  -22.1780  -10.1061   21.8498 C   0  0  0  0  0  0  0  0  0  0  0  0
  -28.3724  -13.9364   20.9343 C   0  0  0  0  0  0  0  0  0  0  0  0
  -30.5131  -14.2462   20.5389 C   0  0  0  0  0  0  0  0  0  0  0  0
  -29.4677  -12.4635   19.1326 C   0  0  0  0  0  0  0  0  0  0  0  0
  -24.6644  -27.5312   23.5771 C   0  0  0  0  0  0  0  0  0  0  0  0
  -22.5041  -25.3288   24.5796 C   0  0  0  0  0  0  0  0  0  0  0  0
  -20.9524  -22.3377   24.0392 C   0  0  0  0  0  0  0  0  0  0  0  0
  -30.9657  -19.6625   23.0216 C   0  0  0  0  0  0  0  0  0  0  0  0
  -25.1544  -31.6945   26.4898 C   0  0  0  0  0  0  0  0  0  0  0  0
  -23.2691  -27.2138   21.5015 C   0  0  0  0  0  0  0  0  0  0  0  0
  -24.0448  -24.6281   22.7086 C   0  0  0  0  0  0  0  0  0  0  0  0
  -24.8411  -30.2209   26.7356 C   0  0  0  0  0  0  0  0  0  0  0  0
  -32.2223  -16.6035   24.3410 C   0  0  0  0  0  0  0  0  0  0  0  0
  -30.1665  -24.3981   16.4031 C   0  0  0  0  0  0  0  0  0  0  0  0
  -25.8491  -29.3330   26.0127 C   0  0  0  0  0  0  0  0  0  0  0  0
  -31.4796  -15.5312   23.5406 C   0  0  0  0  0  0  0  0  0  0  0  0
  -29.1740  -23.2858   16.1037 C   0  0  0  0  0  0  0  0  0  0  0  0
  -30.6038  -24.1094   17.8357 C   0  0  0  0  0  0  0  0  0  0  0  0
  -31.3320  -17.8093   24.6361 C   0  0  0  0  0  0  0  0  0  0  0  0
  -29.9398  -17.3316   22.6606 C   0  0  0  0  0  0  0  0  0  0  0  0
  -25.7888  -29.5516   24.4961 C   0  0  1  0  0  0  0  0  0  0  0  0
  -23.3653  -27.0297   23.0129 C   0  0  1  0  0  0  0  0  0  0  0  0
  -30.8153  -16.1255   22.2832 C   0  0  2  0  0  0  0  0  0  0  0  0
  -28.4433  -23.0787   17.4378 C   0  0  2  0  0  0  0  0  0  0  0  0
  -30.4499  -20.7955   19.0429 C   0  0  0  0  0  0  0  0  0  0  0  0
  -19.2615  -20.7844   25.0519 C   0  0  0  0  0  0  0  0  0  0  0  0
  -24.5742  -24.4133   26.6258 C   0  0  0  0  0  0  0  0  0  0  0  0
  -23.2403  -22.3171   26.9338 C   0  0  0  0  0  0  0  0  0  0  0  0
  -22.2311  -24.5289   27.4923 C   0  0  0  0  0  0  0  0  0  0  0  0
  -19.1621  -22.5710   21.6941 C   0  0  0  0  0  0  0  0  0  0  0  0
  -27.2430  -24.0155   17.5678 C   0  0  0  0  0  0  0  0  0  1  0  0
  -22.5797  -23.9023   25.0679 C   0  0  1  0  0  0  0  0  0  0  0  0
  -19.4885  -21.9390   24.0885 C   0  0  2  0  0  0  0  0  0  0  0  0
  -23.1658  -23.7978   26.5042 C   0  0  0  0  0  0  0  0  0  0  0  0
  -28.7300  -14.9117   21.7738 N   0  0  0  0  0  0  0  0  0  0  0  0
  -30.0372  -15.0775   21.5098 N   0  0  0  0  0  0  0  0  0  0  0  0
  -29.4687  -23.4059   18.4361 N   0  0  3  0  0  0  0  0  0  0  0  0
  -23.2345  -25.6296   23.4212 N   0  0  0  0  0  0  0  0  0  0  0  0
  -30.7406  -18.3214   23.3981 N   0  0  0  0  0  0  0  0  0  0  0  0
  -31.8055  -14.2804   20.1502 N   0  0  0  0  0  0  0  0  0  0  0  0
  -28.2795  -11.7770   18.8475 N   0  0  0  0  0  0  0  0  0  0  0  0
  -30.3806  -20.0270   21.8095 N   0  0  0  0  0  0  0  0  0  0  0  0
  -24.6457  -28.8666   23.9318 N   0  0  0  0  0  0  0  0  0  0  0  0
  -21.2358  -23.3518   24.9295 N   0  0  0  0  0  0  0  0  0  0  0  0
  -19.0193  -21.5223   22.7367 N   0  3  0  0  0  0  0  0  0  0  0  0
  -30.5162  -12.1586   18.5153 O   0  0  0  0  0  0  0  0  0  0  0  0
  -25.6132  -26.7630   23.6843 O   0  0  0  0  0  0  0  0  0  0  0  0
  -21.8165  -26.1444   25.1991 O   0  0  0  0  0  0  0  0  0  0  0  0
  -21.7642  -21.8005   23.2889 O   0  0  0  0  0  0  0  0  0  0  0  0
  -31.6513  -20.4233   23.7095 O   0  0  0  0  0  0  0  0  0  0  0  0
  -23.0920  -12.0985   20.8529 O   0  0  0  0  0  0  0  0  0  0  0  0
  -26.3454  -23.4881   18.5438 O   0  0  0  0  0  0  0  0  0  1  0  0
  -22.2757   -6.6467   20.7275 F   0  0  0  0  0  0  0  0  0  0  0  0
  -29.3991  -21.7892   23.7057 F   0  0  0  0  0  0  0  0  0  0  0  0
  -21.6914  -10.8274   22.8691 F   0  0  0  0  0  0  0  0  0  0  0  0
  1  2  1  0  0  0  0
  1  5  2  0  0  0  0
  2  6  2  0  0  0  0
  3  9  2  0  0  0  0
  3 17  1  0  0  0  0
  4 10  1  0  0  0  0
  4 17  2  0  0  0  0
  5 19  1  0  0  0  0
  6 21  1  0  0  0  0
  7 11  2  0  0  0  0
  7 20  1  0  0  0  0
  8 13  2  0  0  0  0
  8 24  1  0  0  0  0
  9 26  1  0  0  0  0
 10 26  2  0  0  0  0
 11 27  1  0  0  0  0
 12 14  2  0  0  0  0
 12 28  1  0  0  0  0
 13 30  1  0  0  0  0
 14 29  1  0  0  0  0
 15 22  1  0  0  0  0
 15 27  2  0  0  0  0
 16 29  2  0  0  0  0
 16 31  1  0  0  0  0
 17 32  1  0  0  0  0
 18 32  1  0  0  0  0
 18 33  2  0  0  0  0
 18 34  1  0  0  0  0
 19 21  2  0  0  0  0
 19 39  1  0  0  0  0
 20 22  2  0  0  0  0
 20 40  1  0  0  0  0
 21 51  1  0  0  0  0
 22 41  1  0  0  0  0
 23 24  2  0  0  0  0
 23 25  1  0  0  0  0
 23 55  1  0  0  0  0
 24 67  1  0  0  0  0
 25 30  2  0  0  0  0
 25 72  1  0  0  0  0
 26 81  1  0  0  0  0
 27 82  1  0  0  0  0
 28 31  2  0  0  0  0
 28 81  1  0  0  0  0
 29 83  1  0  0  0  0
 30 84  1  0  0  0  0
 31 85  1  0  0  0  0
 32 65  2  0  0  0  0
 33 66  1  0  0  0  0
 33 70  1  0  0  0  0
 34 71  1  0  0  0  0
 34 76  2  0  0  0  0
 35 52  1  0  0  0  0
 35 73  1  0  0  0  0
 35 77  2  0  0  0  0
 36 62  1  0  0  0  0
 36 68  1  0  0  0  0
 36 78  2  0  0  0  0
 37 63  1  0  0  0  0
 37 74  1  0  0  0  0
 37 79  2  0  0  0  0
 38 69  1  0  0  0  0
 38 72  1  0  0  0  0
 38 80  2  0  0  0  0
 39 42  1  0  0  0  0
 40 52  1  0  0  0  0
 41 68  1  0  0  0  0
 42 45  1  0  0  0  0
 43 46  1  0  0  0  0
 43 49  1  0  0  0  0
 44 47  1  0  0  0  0
 44 48  1  0  0  0  0
 45 51  1  0  0  0  0
 46 53  1  0  0  0  0
 47 54  1  0  0  0  0
 48 67  1  0  0  0  0
 49 69  1  0  0  0  0
 50 53  1  0  0  0  0
 50 69  1  0  0  0  0
 51 73  1  0  0  0  0
 52 68  1  0  0  0  0
 53 66  1  0  0  0  0
 54 61  1  0  0  0  0
 54 67  1  0  0  0  0
 56 63  1  0  0  0  0
 57 64  1  0  0  0  0
 58 64  1  0  0  0  0
 59 64  1  0  0  0  0
 60 75  1  0  0  0  0
 61 82  1  0  0  0  0
 62 64  1  0  0  0  0
 62 74  1  0  0  0  0
 63 75  1  0  0  0  0
 65 66  1  0  0  0  0
M  CHG  1  75   1
M  ISO  4  38 100  61 101  72 100  82 101
M  END
> <Batch ID>
0023

> <Smiles>
CNC(C)C(=O)NC(C(=O)N1Cc2cc([101O:1][101CH2:1]C3CCCN3c3ccc(F)c([100NH:0][100C:0](=O)N4CCCC(n5nc(-c6ccc(Oc7ccc(F)cc7F)cc6)c(C(N)=O)c5N)C4)c3C)ccc2CC1C(=O)NC1CCCc2ccccc21)C(C)(C)C

> <Shape>
0.248

> <Color>
0.042

> <Negative vol penalty>
0.000

$$$$

  -OEChem-04042321173D

 83 91  0     1  0  0  0  0  0999 V2000
  -22.5828   -7.4371   24.6427 C   0  0  0  0  0  0  0  0  0  0  0  0
  -23.6889   -8.2307   24.9292 C   0  0  0  0  0  0  0  0  0  0  0  0
  -22.7519  -29.5828   21.2487 C   0  0  0  0  0  0  0  0  0  0  0  0
  -24.0443  -28.9638   23.1938 C   0  0  0  0  0  0  0  0  0  0  0  0
  -29.9622  -22.0116   23.8628 C   0  0  0  0  0  0  0  0  0  0  0  0
  -22.0182   -7.4642   23.3682 C   0  0  0  0  0  0  0  0  0  0  0  0
  -24.2318   -9.0511   23.9410 C   0  0  0  0  0  0  0  0  0  0  0  0
  -26.7801  -14.5647   24.7234 C   0  0  0  0  0  0  0  0  0  0  0  0
  -29.5238  -22.9580   22.9367 C   0  0  0  0  0  0  0  0  0  0  0  0
  -21.6437  -29.8221   22.0612 C   0  0  0  0  0  0  0  0  0  0  0  0
  -22.9361  -29.2031   24.0063 C   0  0  0  0  0  0  0  0  0  0  0  0
  -28.1075  -14.9784   24.8266 C   0  0  0  0  0  0  0  0  0  0  0  0
  -19.2598  -28.0030   23.6208 C   0  0  0  0  0  0  0  0  0  0  0  0
  -18.0273  -27.5059   23.1973 C   0  0  0  0  0  0  0  0  0  0  0  0
  -28.1191  -15.5082   22.4732 C   0  0  0  0  0  0  0  0  0  0  0  0
  -29.1465  -21.2019   21.3208 C   0  0  0  0  0  0  0  0  0  0  0  0
  -17.1352  -29.7509   23.1589 C   0  0  0  0  0  0  0  0  0  0  0  0
  -23.9522  -29.1536   21.8150 C   0  0  0  0  0  0  0  0  0  0  0  0
  -29.9929  -20.6603   23.5179 C   0  0  0  0  0  0  0  0  0  0  0  0
  -26.0955  -29.8268   20.6063 C   0  0  0  0  0  0  0  0  0  0  0  0
  -22.5485   -8.2926   22.3666 C   0  0  0  0  0  0  0  0  0  0  0  0
  -26.1145  -14.6095   23.4900 C   0  0  0  0  0  0  0  0  0  0  0  0
  -23.6745   -9.0883   22.6515 C   0  0  0  0  0  0  0  0  0  0  0  0
  -26.7825  -15.0969   22.3576 C   0  0  0  0  0  0  0  0  0  0  0  0
  -29.1159  -22.5532   21.6657 C   0  0  0  0  0  0  0  0  0  0  0  0
  -21.7358  -29.6323   23.4400 C   0  0  0  0  0  0  0  0  0  0  0  0
  -28.7781  -15.4475   23.7009 C   0  0  0  0  0  0  0  0  0  0  0  0
  -19.4301  -29.3740   23.8134 C   0  0  0  0  0  0  0  0  0  0  0  0
  -16.9650  -28.3799   22.9663 C   0  0  0  0  0  0  0  0  0  0  0  0
  -29.5850  -20.2555   22.2469 C   0  0  0  0  0  0  0  0  0  0  0  0
  -18.3678  -30.2479   23.5825 C   0  0  0  0  0  0  0  0  0  0  0  0
  -25.0972  -28.9057   20.9761 C   0  0  0  0  0  0  0  0  0  0  0  0
  -26.9504  -29.1052   19.8096 C   0  0  0  0  0  0  0  0  0  0  0  0
  -30.4633  -19.6562   24.5067 C   0  0  0  0  0  0  0  0  0  0  0  0
  -26.2373  -31.2110   20.9520 C   0  0  0  0  0  0  0  0  0  0  0  0
  -24.7844  -12.4455   21.5790 C   0  0  0  0  0  0  0  0  0  0  0  0
  -23.8379  -15.0654   19.9169 C   0  0  0  0  0  0  0  0  0  0  0  0
  -24.3567  -18.3573   18.5342 C   0  0  0  0  0  0  0  0  0  0  0  0
  -28.2317  -23.2817   19.4221 C   0  0  0  0  0  0  0  0  0  0  0  0
  -21.9330   -8.2526   20.9903 C   0  0  0  0  0  0  0  0  0  0  0  0
  -24.6744  -14.1847   23.4008 C   0  0  0  0  0  0  0  0  0  0  0  0
  -26.1065  -15.1841   21.0144 C   0  0  0  0  0  0  0  0  0  0  0  0
  -22.3383   -9.4301   20.1074 C   0  0  0  0  0  0  0  0  0  0  0  0
  -27.0201  -25.3739   16.8084 C   0  0  0  0  0  0  0  0  0  0  0  0
  -23.8441   -9.6613   20.1840 C   0  0  0  0  0  0  0  0  0  0  0  0
  -26.4859  -26.6035   17.5464 C   0  0  0  0  0  0  0  0  0  0  0  0
  -26.7600  -24.0866   17.5887 C   0  0  0  0  0  0  0  0  0  0  0  0
  -26.6995  -25.3264   19.7168 C   0  0  0  0  0  0  0  0  0  0  0  0
  -24.2768  -10.0100   21.6132 C   0  0  1  0  0  0  0  0  0  0  0  0
  -24.2540  -13.7904   21.9883 C   0  0  1  0  0  0  0  0  0  0  0  0
  -26.9957  -26.6539   19.0001 C   0  0  2  0  0  0  0  0  0  0  0  0
  -22.7976  -19.8570   17.2623 C   0  0  0  0  0  0  0  0  0  0  0  0
  -25.1012  -13.7992   17.4449 C   0  0  0  0  0  0  0  0  0  0  0  0
  -25.0086  -16.0413   16.3347 C   0  0  0  0  0  0  0  0  0  0  0  0
  -22.8986  -14.9113   17.0373 C   0  0  0  0  0  0  0  0  0  0  0  0
  -24.7566  -20.5844   20.4419 C   0  0  0  0  0  0  0  0  0  0  0  0
  -31.5573  -17.4502   24.8106 C   0  0  0  0  0  0  0  0  0  0  0  0
  -30.4921  -16.3952   25.0500 C   0  0  0  0  0  0  0  0  0  1  0  0
  -24.4252  -15.8915   18.7981 C   0  0  1  0  0  0  0  0  0  0  0  0
  -23.4070  -19.5385   18.6188 C   0  0  2  0  0  0  0  0  0  0  0  0
  -24.3720  -15.1575   17.4285 C   0  0  0  0  0  0  0  0  0  0  0  0
  -25.2980  -27.6916   20.4569 N   0  0  0  0  0  0  0  0  0  0  0  0
  -26.4323  -27.8448   19.7526 N   0  0  0  0  0  0  0  0  0  0  0  0
  -24.6999  -14.7511   20.9770 N   0  0  0  0  0  0  0  0  0  0  0  0
  -27.2737  -24.2062   18.9550 N   0  0  0  0  0  0  0  0  0  0  0  0
  -28.0873  -29.4321   19.1591 N   0  0  0  0  0  0  0  0  0  0  0  0
  -25.2693  -31.7954   21.7802 N   0  0  0  0  0  0  0  0  0  0  0  0
  -28.6706  -23.5147   20.7250 N   0  0  0  0  0  0  0  0  0  0  0  0
  -31.0717  -18.5224   23.9830 N   0  0  0  0  0  0  0  0  0  0  0  0
  -23.9593  -11.3893   21.9151 N   0  0  0  0  0  0  0  0  0  0  0  0
  -23.7196  -17.1682   18.8196 N   0  0  0  0  0  0  0  0  0  0  0  0
  -24.1276  -20.7486   19.1061 N   0  3  0  0  0  0  0  0  0  0  0  0
  -30.2787  -19.8607   25.7036 O   0  0  0  0  0  0  0  0  0  0  0  0
  -27.1852  -31.9132   20.5254 O   0  0  0  0  0  0  0  0  0  0  0  0
  -25.8618  -12.3717   20.9997 O   0  0  0  0  0  0  0  0  0  0  0  0
  -22.6559  -14.7181   19.8559 O   0  0  0  0  0  0  0  0  0  0  0  0
  -25.5441  -18.4770   18.2404 O   0  0  0  0  0  0  0  0  0  0  0  0
  -28.6534  -22.3678   18.7086 O   0  0  0  0  0  0  0  0  0  0  0  0
  -20.6546  -29.8659   24.2331 O   0  0  0  0  0  0  0  0  0  0  0  0
  -30.0740  -15.8513   23.7987 O   0  0  0  0  0  0  0  0  0  1  0  0
  -15.7819  -27.9026   22.5582 F   0  0  0  0  0  0  0  0  0  0  0  0
  -29.6106  -18.9595   21.9043 F   0  0  0  0  0  0  0  0  0  0  0  0
  -18.5256  -31.5661   23.7647 F   0  0  0  0  0  0  0  0  0  0  0  0
  1  2  1  0  0  0  0
  1  6  2  0  0  0  0
  2  7  2  0  0  0  0
  3 10  2  0  0  0  0
  3 18  1  0  0  0  0
  4 11  1  0  0  0  0
  4 18  2  0  0  0  0
  5  9  2  0  0  0  0
  5 19  1  0  0  0  0
  6 21  1  0  0  0  0
  7 23  1  0  0  0  0
  8 12  2  0  0  0  0
  8 22  1  0  0  0  0
  9 25  1  0  0  0  0
 10 26  1  0  0  0  0
 11 26  2  0  0  0  0
 12 27  1  0  0  0  0
 13 14  2  0  0  0  0
 13 28  1  0  0  0  0
 14 29  1  0  0  0  0
 15 24  1  0  0  0  0
 15 27  2  0  0  0  0
 16 25  2  0  0  0  0
 16 30  1  0  0  0  0
 17 29  2  0  0  0  0
 17 31  1  0  0  0  0
 18 32  1  0  0  0  0
 19 30  2  0  0  0  0
 19 34  1  0  0  0  0
 20 32  1  0  0  0  0
 20 33  2  0  0  0  0
 20 35  1  0  0  0  0
 21 23  2  0  0  0  0
 21 40  1  0  0  0  0
 22 24  2  0  0  0  0
 22 41  1  0  0  0  0
 23 49  1  0  0  0  0
 24 42  1  0  0  0  0
 25 68  1  0  0  0  0
 26 79  1  0  0  0  0
 27 80  1  0  0  0  0
 28 31  2  0  0  0  0
 28 79  1  0  0  0  0
 29 81  1  0  0  0  0
 30 82  1  0  0  0  0
 31 83  1  0  0  0  0
 32 62  2  0  0  0  0
 33 63  1  0  0  0  0
 33 66  1  0  0  0  0
 34 69  1  0  0  0  0
 34 73  2  0  0  0  0
 35 67  1  0  0  0  0
 35 74  2  0  0  0  0
 36 50  1  0  0  0  0
 36 70  1  0  0  0  0
 36 75  2  0  0  0  0
 37 59  1  0  0  0  0
 37 64  1  0  0  0  0
 37 76  2  0  0  0  0
 38 60  1  0  0  0  0
 38 71  1  0  0  0  0
 38 77  2  0  0  0  0
 39 65  1  0  0  0  0
 39 68  1  0  0  0  0
 39 78  2  0  0  0  0
 40 43  1  0  0  0  0
 41 50  1  0  0  0  0
 42 64  1  0  0  0  0
 43 45  1  0  0  0  0
 44 46  1  0  0  0  0
 44 47  1  0  0  0  0
 45 49  1  0  0  0  0
 46 51  1  0  0  0  0
 47 65  1  0  0  0  0
 48 51  1  0  0  0  0
 48 65  1  0  0  0  0
 49 70  1  0  0  0  0
 50 64  1  0  0  0  0
 51 63  1  0  0  0  0
 52 60  1  0  0  0  0
 53 61  1  0  0  0  0
 54 61  1  0  0  0  0
 55 61  1  0  0  0  0
 56 72  1  0  0  0  0
 57 58  1  0  0  0  0
 57 69  1  0  0  0  0
 58 80  1  0  0  0  0
 59 61  1  0  0  0  0
 59 71  1  0  0  0  0
 60 72  1  0  0  0  0
 62 63  1  0  0  0  0
M  CHG  1  72   1
M  ISO  4  39 100  58 101  68 100  80 101
M  END
> <Batch ID>
0023

> <Smiles>
CNC(C)C(=O)NC(C(=O)N1Cc2cc([101O:1][101CH2:1]CNC(=O)c3ccc([100NH:0][100C:0](=O)N4CCCC(n5nc(-c6ccc(Oc7ccc(F)cc7F)cc6)c(C(N)=O)c5N)C4)cc3F)ccc2CC1C(=O)NC1CCCc2ccccc21)C(C)(C)C

> <Shape>
0.234

> <Color>
0.078

> <Negative vol penalty>
0.000

$$$$

  -OEChem-04042321173D

 89 99  0     1  0  0  0  0  0999 V2000
  -24.7215  -35.4337   22.4710 C   0  0  0  0  0  0  0  0  0  0  0  0
  -25.4899  -34.2813   22.3414 C   0  0  0  0  0  0  0  0  0  0  0  0
  -24.6556  -12.7167   21.6725 C   0  0  0  0  0  0  0  0  0  0  0  0
  -25.4319  -12.5026   19.3947 C   0  0  0  0  0  0  0  0  0  0  0  0
  -23.4345  -35.3560   23.0017 C   0  0  0  0  0  0  0  0  0  0  0  0
  -24.9722  -33.0505   22.7435 C   0  0  0  0  0  0  0  0  0  0  0  0
  -25.8614  -29.3750   19.3753 C   0  0  0  0  0  0  0  0  0  0  0  0
  -23.8763  -11.5707   21.5147 C   0  0  0  0  0  0  0  0  0  0  0  0
  -24.6526  -11.3566   19.2368 C   0  0  0  0  0  0  0  0  0  0  0  0
  -27.1415  -28.8228   19.3584 C   0  0  0  0  0  0  0  0  0  0  0  0
  -24.3429   -8.2218   21.5133 C   0  0  0  0  0  0  0  0  0  0  0  0
  -24.3695   -7.2739   22.5361 C   0  0  0  0  0  0  0  0  0  0  0  0
  -26.3416  -26.9444   20.6432 C   0  0  0  0  0  0  0  0  0  0  0  0
  -30.2511  -22.1890   19.3205 C   0  0  0  0  0  0  0  0  0  0  0  0
  -32.7007  -20.8972   18.9839 C   0  0  0  0  0  0  0  0  0  0  0  0
  -21.9894   -7.5457   22.8499 C   0  0  0  0  0  0  0  0  0  0  0  0
  -25.4334  -13.1827   20.6125 C   0  0  0  0  0  0  0  0  0  0  0  0
  -27.5711  -14.4339   21.2226 C   0  0  0  0  0  0  0  0  0  0  0  0
  -22.8972  -34.1223   23.4015 C   0  0  0  0  0  0  0  0  0  0  0  0
  -24.8124  -28.7202   20.0367 C   0  0  0  0  0  0  0  0  0  0  0  0
  -23.6774  -32.9565   23.2813 C   0  0  0  0  0  0  0  0  0  0  0  0
  -25.0486  -27.4890   20.6649 C   0  0  0  0  0  0  0  0  0  0  0  0
  -31.4389  -22.8592   19.6127 C   0  0  0  0  0  0  0  0  0  0  0  0
  -32.6637  -22.2134   19.4444 C   0  0  0  0  0  0  0  0  0  0  0  0
  -30.2880  -20.8728   18.8601 C   0  0  0  0  0  0  0  0  0  0  0  0
  -23.8748  -10.8906   20.2968 C   0  0  0  0  0  0  0  0  0  0  0  0
  -27.3824  -27.6088   19.9949 C   0  0  0  0  0  0  0  0  0  0  0  0
  -23.1395   -8.8318   21.1587 C   0  0  0  0  0  0  0  0  0  0  0  0
  -23.1927   -6.9358   23.2044 C   0  0  0  0  0  0  0  0  0  0  0  0
  -21.9628   -8.4937   21.8270 C   0  0  0  0  0  0  0  0  0  0  0  0
  -31.5128  -20.2269   18.6917 C   0  0  0  0  0  0  0  0  0  0  0  0
  -26.2382  -14.3668   20.7748 C   0  0  0  0  0  0  0  0  0  0  0  0
  -27.8742  -15.7734   21.1991 C   0  0  0  0  0  0  0  0  0  0  0  0
  -28.4562  -13.3798   21.6238 C   0  0  0  0  0  0  0  0  0  0  0  0
  -22.9175  -29.4284   22.4885 C   0  0  0  0  0  0  0  0  0  0  0  0
  -21.4451  -26.6636   21.6459 C   0  0  0  0  0  0  0  0  0  0  0  0
  -21.6508  -23.6232   20.1094 C   0  0  0  0  0  0  0  0  0  0  0  0
  -27.7773  -20.7461   18.6960 C   0  0  0  0  0  0  0  0  0  0  0  0
  -21.5190  -34.0949   24.0134 C   0  0  0  0  0  0  0  0  0  0  0  0
  -23.4313  -29.3158   20.0229 C   0  0  0  0  0  0  0  0  0  0  0  0
  -23.9521  -26.7361   21.3715 C   0  0  0  0  0  0  0  0  0  0  0  0
  -20.9044  -32.6986   24.0680 C   0  0  0  0  0  0  0  0  0  0  0  0
  -35.9900  -23.9008   19.4641 C   0  0  0  0  0  0  0  0  0  0  0  0
  -35.6075  -23.9574   20.9292 C   0  0  0  0  0  0  0  0  0  0  0  0
  -24.8930  -19.8145   20.5641 C   0  0  0  0  0  0  0  0  0  0  0  0
  -21.9170  -31.6902   24.6016 C   0  0  0  0  0  0  0  0  0  0  0  0
  -25.0955  -18.3197   20.8223 C   0  0  0  0  0  0  0  0  0  0  0  0
  -30.5068  -27.5163   18.5447 C   0  0  0  0  0  0  0  0  0  0  0  0
  -34.6501  -23.6687   18.7751 C   0  0  0  0  0  0  0  0  0  0  0  0
  -34.5419  -22.8730   21.0408 C   0  0  0  0  0  0  0  0  0  0  0  0
  -25.3967  -20.2246   19.1814 C   0  0  0  0  0  0  0  0  0  0  0  0
  -26.9837  -18.3407   19.1426 C   0  0  0  0  0  0  0  0  0  0  0  0
  -31.4808  -26.6697   19.3391 C   0  0  0  0  0  0  0  0  0  0  0  0
  -29.5772  -25.2981   18.6356 C   0  0  0  0  0  0  0  0  0  0  0  0
  -23.1416  -31.5994   23.6832 C   0  0  1  0  0  0  0  0  0  0  0  0
  -22.5534  -28.8155   21.1659 C   0  0  1  0  0  0  0  0  0  0  0  0
  -26.5508  -17.8925   20.5482 C   0  0  2  0  0  0  0  0  0  0  0  0
  -29.1944  -26.7683   18.7041 C   0  0  1  0  0  0  0  0  0  1  0  0
  -20.2955  -21.5695   19.6164 C   0  0  0  0  0  0  0  0  0  0  0  0
  -21.7888  -25.7461   24.5355 C   0  0  0  0  0  0  0  0  0  0  0  0
  -21.3098  -23.4087   23.7770 C   0  0  0  0  0  0  0  0  0  0  0  0
  -19.5748  -25.1823   23.5183 C   0  0  0  0  0  0  0  0  0  0  0  0
  -21.9044  -24.0161   17.1870 C   0  0  0  0  0  0  0  0  0  0  0  0
  -31.3700  -24.2743   20.1064 C   0  0  0  0  0  0  0  0  0  0  0  0
  -21.6085  -25.2093   22.0165 C   0  0  1  0  0  0  0  0  0  0  0  0
  -20.7366  -22.9348   19.1120 C   0  0  2  0  0  0  0  0  0  0  0  0
  -21.0918  -24.9015   23.4502 C   0  0  0  0  0  0  0  0  0  0  0  0
  -25.7295  -15.5681   20.4880 N   0  0  0  0  0  0  0  0  0  0  0  0
  -26.7481  -16.4026   20.7562 N   0  0  0  0  0  0  0  0  0  0  0  0
  -33.8723  -22.8748   19.7344 N   0  0  0  0  0  0  0  0  0  0  0  0
  -22.6203  -27.3626   21.3357 N   0  0  0  0  0  0  0  0  0  0  0  0
  -26.7830  -19.7907   18.9946 N   0  0  0  0  0  0  0  0  0  0  0  0
  -28.9914  -16.4625   21.5143 N   0  0  0  0  0  0  0  0  0  0  0  0
  -27.9839  -12.0607   21.5876 N   0  0  0  0  0  0  0  0  0  0  0  0
  -29.0632  -20.2208   18.5728 N   0  0  0  0  0  0  0  0  0  0  0  0
  -22.8366  -30.8077   22.5108 N   0  0  0  0  0  0  0  0  0  0  0  0
  -20.9470  -24.4435   20.9657 N   0  0  0  0  0  0  0  0  0  0  0  0
  -31.0474  -25.2564   19.0265 N   0  3  2  0  0  0  0  0  0  0  0  0
  -21.4363  -22.7509   17.8092 N   0  3  0  0  0  0  0  0  0  0  0  0
  -29.6258  -13.6024   22.0188 O   0  0  0  0  0  0  0  0  0  0  0  0
  -23.2461  -28.7035   23.4203 O   0  0  0  0  0  0  0  0  0  0  0  0
  -20.3157  -27.1592   21.6252 O   0  0  0  0  0  0  0  0  0  0  0  0
  -22.8671  -23.4478   20.1295 O   0  0  0  0  0  0  0  0  0  0  0  0
  -27.5124  -21.9460   18.5865 O   0  0  0  0  0  0  0  0  0  0  0  0
  -23.1147   -9.7722   20.1425 O   0  0  0  0  0  0  0  0  0  0  0  0
  -28.6311  -27.0680   19.9805 O   0  0  0  0  0  0  0  0  0  1  0  0
  -23.2181   -6.0243   24.1856 F   0  0  0  0  0  0  0  0  0  0  0  0
  -20.8036   -9.0754   21.4901 F   0  0  0  0  0  0  0  0  0  0  0  0
  -31.6039  -18.5977   18.1239 Cl  0  0  0  0  0  0  0  0  0  0  0  0
  1  2  1  0  0  0  0
  1  5  2  0  0  0  0
  2  6  2  0  0  0  0
  3  8  2  0  0  0  0
  3 17  1  0  0  0  0
  4  9  1  0  0  0  0
  4 17  2  0  0  0  0
  5 19  1  0  0  0  0
  6 21  1  0  0  0  0
  7 10  2  0  0  0  0
  7 20  1  0  0  0  0
  8 26  1  0  0  0  0
  9 26  2  0  0  0  0
 10 27  1  0  0  0  0
 11 12  2  0  0  0  0
 11 28  1  0  0  0  0
 12 29  1  0  0  0  0
 13 22  1  0  0  0  0
 13 27  2  0  0  0  0
 14 23  1  0  0  0  0
 14 25  2  0  0  0  0
 15 24  1  0  0  0  0
 15 31  2  0  0  0  0
 16 29  2  0  0  0  0
 16 30  1  0  0  0  0
 17 32  1  0  0  0  0
 18 32  1  0  0  0  0
 18 33  2  0  0  0  0
 18 34  1  0  0  0  0
 19 21  2  0  0  0  0
 19 39  1  0  0  0  0
 20 22  2  0  0  0  0
 20 40  1  0  0  0  0
 21 55  1  0  0  0  0
 22 41  1  0  0  0  0
 23 24  2  0  0  0  0
 23 64  1  0  0  0  0
 24 70  1  0  0  0  0
 25 31  1  0  0  0  0
 25 75  1  0  0  0  0
 26 85  1  0  0  0  0
 27 86  1  0  0  0  0
 28 30  2  0  0  0  0
 28 85  1  0  0  0  0
 29 87  1  0  0  0  0
 30 88  1  0  0  0  0
 31 89  1  0  0  0  0
 32 68  2  0  0  0  0
 33 69  1  0  0  0  0
 33 73  1  0  0  0  0
 34 74  1  0  0  0  0
 34 80  2  0  0  0  0
 35 56  1  0  0  0  0
 35 76  1  0  0  0  0
 35 81  2  0  0  0  0
 36 65  1  0  0  0  0
 36 71  1  0  0  0  0
 36 82  2  0  0  0  0
 37 66  1  0  0  0  0
 37 77  1  0  0  0  0
 37 83  2  0  0  0  0
 38 72  1  0  0  0  0
 38 75  1  0  0  0  0
 38 84  2  0  0  0  0
 39 42  1  0  0  0  0
 40 56  1  0  0  0  0
 41 71  1  0  0  0  0
 42 46  1  0  0  0  0
 43 44  1  0  0  0  0
 43 49  1  0  0  0  0
 44 50  1  0  0  0  0
 45 47  1  0  0  0  0
 45 51  1  0  0  0  0
 46 55  1  0  0  0  0
 47 57  1  0  0  0  0
 48 53  1  0  0  0  0
 48 58  1  0  0  0  0
 49 70  1  0  0  0  0
 50 70  1  0  0  0  0
 51 72  1  0  0  0  0
 52 57  1  0  0  0  0
 52 72  1  0  0  0  0
 53 78  1  0  0  0  0
 54 58  1  0  0  0  0
 54 78  1  0  0  0  0
 55 76  1  0  0  0  0
 56 71  1  0  0  0  0
 57 69  1  0  0  0  0
 58 86  1  0  0  0  0
 59 66  1  0  0  0  0
 60 67  1  0  0  0  0
 61 67  1  0  0  0  0
 62 67  1  0  0  0  0
 63 79  1  0  0  0  0
 64 78  1  0  0  0  0
 65 67  1  0  0  0  0
 65 77  1  0  0  0  0
 66 79  1  0  0  0  0
 68 69  1  0  0  0  0
M  CHG  2  78   1  79   1
M  ISO  4  38 100  58 101  75 100  86 101
M  END
> <Batch ID>
0023

> <Smiles>
CNC(C)C(=O)NC(C(=O)N1Cc2cc([101O:1][101CH:1]3CCN(Cc4cc([100NH:0][100C:0](=O)N5CCCC(n6nc(-c7ccc(Oc8ccc(F)cc8F)cc7)c(C(N)=O)c6N)C5)c(Cl)cc4N4CCCC4)C3)ccc2CC1C(=O)NC1CCCc2ccccc21)C(C)(C)C

> <Shape>
0.255

> <Color>
0.077

> <Negative vol penalty>
0.000

$$$$

  -OEChem-04042321173D

 88 97  0     1  0  0  0  0  0999 V2000
  -26.5714  -18.8858   38.4629 C   0  0  0  0  0  0  0  0  0  0  0  0
  -27.2991  -18.8827   37.2772 C   0  0  0  0  0  0  0  0  0  0  0  0
  -23.2881   -9.8005   19.9131 C   0  0  0  0  0  0  0  0  0  0  0  0
  -23.7418   -9.9400   22.2820 C   0  0  0  0  0  0  0  0  0  0  0  0
  -26.6018  -17.7720   39.3010 C   0  0  0  0  0  0  0  0  0  0  0  0
  -28.0585  -17.7662   36.9295 C   0  0  0  0  0  0  0  0  0  0  0  0
  -30.2680  -14.0823   31.1967 C   0  0  0  0  0  0  0  0  0  0  0  0
  -31.6670  -12.2800   26.2209 C   0  0  0  0  0  0  0  0  0  0  0  0
  -30.8935  -12.5965   25.1042 C   0  0  0  0  0  0  0  0  0  0  0  0
  -22.5624   -8.6276   20.1211 C   0  0  0  0  0  0  0  0  0  0  0  0
  -23.0160   -8.7671   22.4900 C   0  0  0  0  0  0  0  0  0  0  0  0
  -31.4359  -13.5834   30.6216 C   0  0  0  0  0  0  0  0  0  0  0  0
  -19.7696   -7.8547   22.7109 C   0  0  0  0  0  0  0  0  0  0  0  0
  -18.8686   -7.8321   23.7755 C   0  0  0  0  0  0  0  0  0  0  0  0
  -31.3501  -11.6856   32.1083 C   0  0  0  0  0  0  0  0  0  0  0  0
  -32.8177  -12.2724   23.6796 C   0  0  0  0  0  0  0  0  0  0  0  0
  -20.0762   -5.9848   24.7584 C   0  0  0  0  0  0  0  0  0  0  0  0
  -23.8778  -10.4567   20.9936 C   0  0  0  0  0  0  0  0  0  0  0  0
  -24.1360  -12.9869   20.7961 C   0  0  0  0  0  0  0  0  0  0  0  0
  -27.3543  -16.6375   38.9587 C   0  0  0  0  0  0  0  0  0  0  0  0
  -29.6373  -13.3910   32.2411 C   0  0  0  0  0  0  0  0  0  0  0  0
  -28.1001  -16.6367   37.7644 C   0  0  0  0  0  0  0  0  0  0  0  0
  -30.1728  -12.1766   32.6932 C   0  0  0  0  0  0  0  0  0  0  0  0
  -33.0158  -11.9597   26.0670 C   0  0  0  0  0  0  0  0  0  0  0  0
  -33.5912  -11.9559   24.7964 C   0  0  0  0  0  0  0  0  0  0  0  0
  -31.4688  -12.5927   23.8335 C   0  0  0  0  0  0  0  0  0  0  0  0
  -22.4263   -8.1109   21.4096 C   0  0  0  0  0  0  0  0  0  0  0  0
  -31.9787  -12.3863   31.0793 C   0  0  0  0  0  0  0  0  0  0  0  0
  -20.8239   -6.9423   22.6701 C   0  0  0  0  0  0  0  0  0  0  0  0
  -19.0219   -6.8972   24.7992 C   0  0  0  0  0  0  0  0  0  0  0  0
  -20.9772   -6.0074   23.6938 C   0  0  0  0  0  0  0  0  0  0  0  0
  -24.6280  -11.6680   20.7793 C   0  0  0  0  0  0  0  0  0  0  0  0
  -25.2369  -13.7674   20.5401 C   0  0  0  0  0  0  0  0  0  0  0  0
  -22.8031  -13.4639   21.0228 C   0  0  0  0  0  0  0  0  0  0  0  0
  -28.9645  -14.0433   35.2785 C   0  0  0  0  0  0  0  0  0  0  0  0
  -27.3878  -11.2123   35.1309 C   0  0  0  0  0  0  0  0  0  0  0  0
  -27.0326   -8.1688   33.6283 C   0  0  0  0  0  0  0  0  0  0  0  0
  -31.0986  -12.9547   21.3681 C   0  0  0  0  0  0  0  0  0  0  0  0
  -27.3939  -15.4756   39.9195 C   0  0  0  0  0  0  0  0  0  0  0  0
  -28.3633  -13.9290   32.8328 C   0  0  0  0  0  0  0  0  0  0  0  0
  -29.5230  -11.3857   33.7980 C   0  0  0  0  0  0  0  0  0  0  0  0
  -27.9251  -14.1875   39.2960 C   0  0  0  0  0  0  0  0  0  0  0  0
  -29.4610  -13.6603   18.2863 C   0  0  0  0  0  0  0  0  0  0  0  0
  -33.2764   -8.0784   28.2161 C   0  0  0  0  0  0  0  0  0  0  0  0
  -29.1937  -14.4653   38.4958 C   0  0  0  0  0  0  0  0  0  0  0  0
  -27.9902  -13.3553   18.5792 C   0  0  0  0  0  0  0  0  0  0  0  0
  -34.3363   -8.5786   29.1809 C   0  0  0  0  0  0  0  0  0  0  0  0
  -30.3954  -12.6850   19.0000 C   0  0  0  0  0  0  0  0  0  0  0  0
  -28.7046  -12.2554   20.7394 C   0  0  0  0  0  0  0  0  0  0  0  0
  -33.2080   -9.1852   27.1881 C   0  0  0  0  0  0  0  0  0  0  0  0
  -28.9161  -15.4347   37.3406 C   0  0  1  0  0  0  0  0  0  0  0  0
  -28.0888  -13.4035   34.2385 C   0  0  1  0  0  0  0  0  0  0  0  0
  -27.7270  -13.2513   20.0943 C   0  0  2  0  0  0  0  0  0  0  0  0
  -34.0961  -10.0847   29.2844 C   0  0  2  0  0  0  0  0  0  0  0  0
  -25.6836   -6.0564   33.7518 C   0  0  0  0  0  0  0  0  0  0  0  0
  -28.9872  -10.3367   37.5774 C   0  0  0  0  0  0  0  0  0  0  0  0
  -28.3237   -7.9746   37.0792 C   0  0  0  0  0  0  0  0  0  0  0  0
  -26.5764   -9.6726   37.6147 C   0  0  0  0  0  0  0  0  0  0  0  0
  -25.9784   -8.5445   30.8885 C   0  0  0  0  0  0  0  0  0  0  0  0
  -33.8277  -11.6235   27.2831 C   0  0  0  0  0  0  0  0  0  0  0  0
  -33.2796  -10.4795   30.5067 C   0  0  0  0  0  0  0  0  0  1  0  0
  -27.7555   -9.7695   35.3803 C   0  0  1  0  0  0  0  0  0  0  0  0
  -25.8058   -7.4339   33.1191 C   0  0  2  0  0  0  0  0  0  0  0  0
  -35.0327  -11.6142   24.6072 C   0  0  0  0  0  0  0  0  0  0  0  0
  -27.9243   -9.4540   36.8934 C   0  0  0  0  0  0  0  0  0  0  0  0
  -25.9394  -11.6100   20.5321 N   0  0  0  0  0  0  0  0  0  0  0  0
  -26.2806  -12.9022   20.3911 N   0  0  0  0  0  0  0  0  0  0  0  0
  -28.2825  -11.9563   34.3487 N   0  0  0  0  0  0  0  0  0  0  0  0
  -30.0904  -12.6422   20.4318 N   0  0  0  0  0  0  0  0  0  0  0  0
  -25.4042  -15.1024   20.4302 N   0  0  0  0  0  0  0  0  0  0  0  0
  -21.7912  -12.5265   21.2710 N   0  0  0  0  0  0  0  0  0  0  0  0
  -30.6830  -12.9123   22.6986 N   0  0  0  0  0  0  0  0  0  0  0  0
  -28.2694  -14.7440   36.2455 N   0  0  0  0  0  0  0  0  0  0  0  0
  -26.7362   -8.9672   34.7127 N   0  0  0  0  0  0  0  0  0  0  0  0
  -33.3032  -10.4373   28.0283 N   0  3  1  0  0  0  0  0  0  0  0  0
  -25.8788   -7.2669   31.6400 N   0  3  0  0  0  0  0  0  0  0  0  0
  -22.5147  -14.6843   20.9896 O   0  0  0  0  0  0  0  0  0  0  0  0
  -30.1807  -13.9097   35.2096 O   0  0  0  0  0  0  0  0  0  0  0  0
  -26.3416  -11.6606   35.6063 O   0  0  0  0  0  0  0  0  0  0  0  0
  -28.1435   -8.0440   33.1177 O   0  0  0  0  0  0  0  0  0  0  0  0
  -32.2389  -13.2656   21.0145 O   0  0  0  0  0  0  0  0  0  0  0  0
  -21.7181   -6.9666   21.6129 O   0  0  0  0  0  0  0  0  0  0  0  0
  -33.1190  -11.8974   30.5201 O   0  0  0  0  0  0  0  0  0  1  0  0
  -18.1574   -6.8766   25.8222 F   0  0  0  0  0  0  0  0  0  0  0  0
  -21.9888   -5.1291   23.6606 F   0  0  0  0  0  0  0  0  0  0  0  0
  -35.4365  -11.6551   23.3038 F   0  0  0  0  0  0  0  0  0  0  0  0
  -35.8825  -12.4508   25.2715 F   0  0  0  0  0  0  0  0  0  0  0  0
  -35.3346  -10.3585   25.0465 F   0  0  0  0  0  0  0  0  0  0  0  0
  1  2  1  0  0  0  0
  1  5  2  0  0  0  0
  2  6  2  0  0  0  0
  3 10  2  0  0  0  0
  3 18  1  0  0  0  0
  4 11  1  0  0  0  0
  4 18  2  0  0  0  0
  5 20  1  0  0  0  0
  6 22  1  0  0  0  0
  7 12  2  0  0  0  0
  7 21  1  0  0  0  0
  8  9  2  0  0  0  0
  8 24  1  0  0  0  0
  9 26  1  0  0  0  0
 10 27  1  0  0  0  0
 11 27  2  0  0  0  0
 12 28  1  0  0  0  0
 13 14  2  0  0  0  0
 13 29  1  0  0  0  0
 14 30  1  0  0  0  0
 15 23  1  0  0  0  0
 15 28  2  0  0  0  0
 16 25  1  0  0  0  0
 16 26  2  0  0  0  0
 17 30  2  0  0  0  0
 17 31  1  0  0  0  0
 18 32  1  0  0  0  0
 19 32  1  0  0  0  0
 19 33  2  0  0  0  0
 19 34  1  0  0  0  0
 20 22  2  0  0  0  0
 20 39  1  0  0  0  0
 21 23  2  0  0  0  0
 21 40  1  0  0  0  0
 22 51  1  0  0  0  0
 23 41  1  0  0  0  0
 24 25  2  0  0  0  0
 24 60  1  0  0  0  0
 25 64  1  0  0  0  0
 26 72  1  0  0  0  0
 27 82  1  0  0  0  0
 28 83  1  0  0  0  0
 29 31  2  0  0  0  0
 29 82  1  0  0  0  0
 30 84  1  0  0  0  0
 31 85  1  0  0  0  0
 32 66  2  0  0  0  0
 33 67  1  0  0  0  0
 33 70  1  0  0  0  0
 34 71  1  0  0  0  0
 34 77  2  0  0  0  0
 35 52  1  0  0  0  0
 35 73  1  0  0  0  0
 35 78  2  0  0  0  0
 36 62  1  0  0  0  0
 36 68  1  0  0  0  0
 36 79  2  0  0  0  0
 37 63  1  0  0  0  0
 37 74  1  0  0  0  0
 37 80  2  0  0  0  0
 38 69  1  0  0  0  0
 38 72  1  0  0  0  0
 38 81  2  0  0  0  0
 39 42  1  0  0  0  0
 40 52  1  0  0  0  0
 41 68  1  0  0  0  0
 42 45  1  0  0  0  0
 43 46  1  0  0  0  0
 43 48  1  0  0  0  0
 44 47  1  0  0  0  0
 44 50  1  0  0  0  0
 45 51  1  0  0  0  0
 46 53  1  0  0  0  0
 47 54  1  0  0  0  0
 48 69  1  0  0  0  0
 49 53  1  0  0  0  0
 49 69  1  0  0  0  0
 50 75  1  0  0  0  0
 51 73  1  0  0  0  0
 52 68  1  0  0  0  0
 53 67  1  0  0  0  0
 54 61  1  0  0  0  0
 54 75  1  0  0  0  0
 55 63  1  0  0  0  0
 56 65  1  0  0  0  0
 57 65  1  0  0  0  0
 58 65  1  0  0  0  0
 59 76  1  0  0  0  0
 60 75  1  0  0  0  0
 61 83  1  0  0  0  0
 62 65  1  0  0  0  0
 62 74  1  0  0  0  0
 63 76  1  0  0  0  0
 64 86  1  0  0  0  0
 64 87  1  0  0  0  0
 64 88  1  0  0  0  0
 66 67  1  0  0  0  0
M  CHG  2  75   1  76   1
M  ISO  4  38 100  61 101  72 100  83 101
M  END
> <Batch ID>
0023

> <Smiles>
CNC(C)C(=O)NC(C(=O)N1Cc2cc([101O:1][101CH2:1]C3CCCN3Cc3ccc([100NH:0][100C:0](=O)N4CCCC(n5nc(-c6ccc(Oc7ccc(F)cc7F)cc6)c(C(N)=O)c5N)C4)cc3C(F)(F)F)ccc2CC1C(=O)NC1CCCc2ccccc21)C(C)(C)C

> <Shape>
0.131

> <Color>
0.171

> <Negative vol penalty>
0.000

$$$$

  -OEChem-04042321173D

 86 95  0     1  0  0  0  0  0999 V2000
  -19.9214  -27.3937   25.9281 C   0  0  0  0  0  0  0  0  0  0  0  0
  -21.2654  -27.0376   25.9768 C   0  0  0  0  0  0  0  0  0  0  0  0
  -23.1796   -9.8123   21.4016 C   0  0  0  0  0  0  0  0  0  0  0  0
  -23.8454  -10.7903   23.5081 C   0  0  0  0  0  0  0  0  0  0  0  0
  -19.2664  -27.4727   24.6999 C   0  0  0  0  0  0  0  0  0  0  0  0
  -21.9548  -26.7591   24.7971 C   0  0  0  0  0  0  0  0  0  0  0  0
  -28.4711  -27.3180   21.8744 C   0  0  0  0  0  0  0  0  0  0  0  0
  -22.4584   -8.8328   22.0842 C   0  0  0  0  0  0  0  0  0  0  0  0
  -23.1241   -9.8108   24.1908 C   0  0  0  0  0  0  0  0  0  0  0  0
  -29.4300  -26.5425   21.2243 C   0  0  0  0  0  0  0  0  0  0  0  0
  -19.8975   -9.1956   24.9850 C   0  0  0  0  0  0  0  0  0  0  0  0
  -19.0951   -9.6073   26.0491 C   0  0  0  0  0  0  0  0  0  0  0  0
  -28.2163  -26.7882   19.1540 C   0  0  0  0  0  0  0  0  0  0  0  0
  -29.4288  -19.6568   19.9235 C   0  0  0  0  0  0  0  0  0  0  0  0
  -31.0025  -17.5514   18.9888 C   0  0  0  0  0  0  0  0  0  0  0  0
  -20.3587   -8.1957   27.5483 C   0  0  0  0  0  0  0  0  0  0  0  0
  -23.8732  -10.7910   22.1135 C   0  0  0  0  0  0  0  0  0  0  0  0
  -24.1497  -13.0571   20.9750 C   0  0  0  0  0  0  0  0  0  0  0  0
  -19.9506  -27.2044   23.5039 C   0  0  0  0  0  0  0  0  0  0  0  0
  -27.3699  -27.8262   21.1704 C   0  0  0  0  0  0  0  0  0  0  0  0
  -21.3080  -26.8333   23.5518 C   0  0  0  0  0  0  0  0  0  0  0  0
  -27.2462  -27.5720   19.7971 C   0  0  0  0  0  0  0  0  0  0  0  0
  -30.3473  -19.8751   18.8967 C   0  0  0  0  0  0  0  0  0  0  0  0
  -30.0840  -17.3332   20.0156 C   0  0  0  0  0  0  0  0  0  0  0  0
  -22.4306   -8.8321   23.4788 C   0  0  0  0  0  0  0  0  0  0  0  0
  -29.3012  -26.2750   19.8645 C   0  0  0  0  0  0  0  0  0  0  0  0
  -20.9305   -8.2838   25.2026 C   0  0  0  0  0  0  0  0  0  0  0  0
  -19.3257   -9.1074   27.3307 C   0  0  0  0  0  0  0  0  0  0  0  0
  -29.2972  -18.3859   20.4830 C   0  0  0  0  0  0  0  0  0  0  0  0
  -31.1341  -18.8224   18.4293 C   0  0  0  0  0  0  0  0  0  0  0  0
  -21.1611   -7.7839   26.4842 C   0  0  0  0  0  0  0  0  0  0  0  0
  -24.6189  -11.8027   21.4089 C   0  0  0  0  0  0  0  0  0  0  0  0
  -25.2345  -13.6369   20.3639 C   0  0  0  0  0  0  0  0  0  0  0  0
  -30.2641  -22.4079   18.9792 C   0  0  0  0  0  0  0  0  0  0  0  0
  -22.8495  -13.6456   21.1122 C   0  0  0  0  0  0  0  0  0  0  0  0
  -24.2190  -27.4543   21.3625 C   0  0  0  0  0  0  0  0  0  0  0  0
  -24.1987  -29.7739   19.0950 C   0  0  0  0  0  0  0  0  0  0  0  0
  -25.8578  -31.3895   16.5882 C   0  0  0  0  0  0  0  0  0  0  0  0
  -30.6582  -14.8900   20.2335 C   0  0  0  0  0  0  0  0  0  0  0  0
  -19.1880  -27.2568   22.2037 C   0  0  0  0  0  0  0  0  0  0  0  0
  -26.3584  -28.6834   21.8806 C   0  0  0  0  0  0  0  0  0  0  0  0
  -26.0934  -28.1111   18.9915 C   0  0  0  0  0  0  0  0  0  0  0  0
  -20.0876  -27.3110   20.9716 C   0  0  0  0  0  0  0  0  0  0  0  0
  -29.7078  -11.6733   19.0388 C   0  0  0  0  0  0  0  0  0  0  0  0
  -21.2011  -26.2738   21.0777 C   0  0  0  0  0  0  0  0  0  0  0  0
  -28.2606  -11.5234   19.5132 C   0  0  0  0  0  0  0  0  0  0  0  0
  -30.5422  -22.8112   16.6502 C   0  0  0  0  0  0  0  0  0  0  0  0
  -30.5668  -12.4126   20.0633 C   0  0  0  0  0  0  0  0  0  0  0  0
  -30.9259  -21.3782   16.9605 C   0  0  0  0  0  0  0  0  0  0  0  0
  -28.5861  -13.5589   20.9754 C   0  0  0  0  0  0  0  0  0  0  0  0
  -22.0965  -26.5479   22.2921 C   0  0  1  0  0  0  0  0  0  0  0  0
  -30.6603  -23.5020   18.0010 C   0  0  1  0  0  0  0  0  0  0  0  0
  -25.0061  -28.7205   21.1753 C   0  0  1  0  0  0  0  0  0  0  0  0
  -27.6670  -12.8777   19.9483 C   0  0  2  0  0  0  0  0  0  0  0  0
  -25.5690  -33.2175   14.8933 C   0  0  0  0  0  0  0  0  0  0  0  0
  -22.4783  -27.9181   17.3903 C   0  0  0  0  0  0  0  0  0  0  0  0
  -23.0157  -29.3528   15.4102 C   0  0  0  0  0  0  0  0  0  0  0  0
  -21.7792  -30.3189   17.3493 C   0  0  0  0  0  0  0  0  0  0  0  0
  -28.0799  -32.9683   17.7410 C   0  0  0  0  0  0  0  0  0  0  0  0
  -29.7938  -24.7422   18.1141 C   0  0  0  0  0  0  0  0  0  1  0  0
  -24.2411  -29.7943   17.5861 C   0  0  1  0  0  0  0  0  0  0  0  0
  -26.0466  -32.8668   16.2939 C   0  0  2  0  0  0  0  0  0  0  0  0
  -22.8994  -29.3341   16.9493 C   0  0  0  0  0  0  0  0  0  0  0  0
  -25.9018  -11.5969   21.0995 N   0  0  0  0  0  0  0  0  0  0  0  0
  -26.2480  -12.7297   20.4647 N   0  0  0  0  0  0  0  0  0  0  0  0
  -30.4801  -21.1767   18.3266 N   0  0  0  0  0  0  0  0  0  0  0  0
  -25.1271  -28.9387   19.7324 N   0  0  0  0  0  0  0  0  0  0  0  0
  -29.9444  -13.6880   20.4248 N   0  0  0  0  0  0  0  0  0  0  0  0
  -25.4108  -14.8290   19.7556 N   0  0  0  0  0  0  0  0  0  0  0  0
  -21.8503  -12.9130   21.7673 N   0  0  0  0  0  0  0  0  0  0  0  0
  -29.9528  -16.0412   20.5825 N   0  0  0  0  0  0  0  0  0  0  0  0
  -23.0117  -27.6330   22.0106 N   0  0  0  0  0  0  0  0  0  0  0  0
  -24.6509  -31.1423   17.2074 N   0  0  0  0  0  0  0  0  0  0  0  0
  -27.4856  -33.2376   16.4063 N   0  3  0  0  0  0  0  0  0  0  0  0
  -29.8972  -22.6336   20.1233 O   0  0  0  0  0  0  0  0  0  0  0  0
  -22.5772  -14.7805   20.6527 O   0  0  0  0  0  0  0  0  0  0  0  0
  -24.6726  -26.3940   20.9482 O   0  0  0  0  0  0  0  0  0  0  0  0
  -23.3771  -30.4787   19.6865 O   0  0  0  0  0  0  0  0  0  0  0  0
  -26.6955  -30.5395   16.2946 O   0  0  0  0  0  0  0  0  0  0  0  0
  -31.8002  -14.8994   19.7669 O   0  0  0  0  0  0  0  0  0  0  0  0
  -21.7267   -7.8766   24.1453 O   0  0  0  0  0  0  0  0  0  0  0  0
  -30.2355  -25.5178   19.2276 O   0  0  0  0  0  0  0  0  0  1  0  0
  -18.5561   -9.5041   28.3527 F   0  0  0  0  0  0  0  0  0  0  0  0
  -28.4107  -18.1876   21.4692 F   0  0  0  0  0  0  0  0  0  0  0  0
  -32.0197  -19.0205   17.4424 F   0  0  0  0  0  0  0  0  0  0  0  0
  -22.1527   -6.9086   26.6996 F   0  0  0  0  0  0  0  0  0  0  0  0
  1  2  1  0  0  0  0
  1  5  2  0  0  0  0
  2  6  2  0  0  0  0
  3  8  2  0  0  0  0
  3 17  1  0  0  0  0
  4  9  1  0  0  0  0
  4 17  2  0  0  0  0
  5 19  1  0  0  0  0
  6 21  1  0  0  0  0
  7 10  2  0  0  0  0
  7 20  1  0  0  0  0
  8 25  1  0  0  0  0
  9 25  2  0  0  0  0
 10 26  1  0  0  0  0
 11 12  2  0  0  0  0
 11 27  1  0  0  0  0
 12 28  1  0  0  0  0
 13 22  1  0  0  0  0
 13 26  2  0  0  0  0
 14 23  1  0  0  0  0
 14 29  2  0  0  0  0
 15 24  2  0  0  0  0
 15 30  1  0  0  0  0
 16 28  2  0  0  0  0
 16 31  1  0  0  0  0
 17 32  1  0  0  0  0
 18 32  1  0  0  0  0
 18 33  2  0  0  0  0
 18 35  1  0  0  0  0
 19 21  2  0  0  0  0
 19 40  1  0  0  0  0
 20 22  2  0  0  0  0
 20 41  1  0  0  0  0
 21 51  1  0  0  0  0
 22 42  1  0  0  0  0
 23 30  2  0  0  0  0
 23 66  1  0  0  0  0
 24 29  1  0  0  0  0
 24 71  1  0  0  0  0
 25 81  1  0  0  0  0
 26 82  1  0  0  0  0
 27 31  2  0  0  0  0
 27 81  1  0  0  0  0
 28 83  1  0  0  0  0
 29 84  1  0  0  0  0
 30 85  1  0  0  0  0
 31 86  1  0  0  0  0
 32 64  2  0  0  0  0
 33 65  1  0  0  0  0
 33 69  1  0  0  0  0
 34 52  1  0  0  0  0
 34 66  1  0  0  0  0
 34 75  2  0  0  0  0
 35 70  1  0  0  0  0
 35 76  2  0  0  0  0
 36 53  1  0  0  0  0
 36 72  1  0  0  0  0
 36 77  2  0  0  0  0
 37 61  1  0  0  0  0
 37 67  1  0  0  0  0
 37 78  2  0  0  0  0
 38 62  1  0  0  0  0
 38 73  1  0  0  0  0
 38 79  2  0  0  0  0
 39 68  1  0  0  0  0
 39 71  1  0  0  0  0
 39 80  2  0  0  0  0
 40 43  1  0  0  0  0
 41 53  1  0  0  0  0
 42 67  1  0  0  0  0
 43 45  1  0  0  0  0
 44 46  1  0  0  0  0
 44 48  1  0  0  0  0
 45 51  1  0  0  0  0
 46 54  1  0  0  0  0
 47 49  1  0  0  0  0
 47 52  1  0  0  0  0
 48 68  1  0  0  0  0
 49 66  1  0  0  0  0
 50 54  1  0  0  0  0
 50 68  1  0  0  0  0
 51 72  1  0  0  0  0
 52 60  1  0  0  0  0
 53 67  1  0  0  0  0
 54 65  1  0  0  0  0
 55 62  1  0  0  0  0
 56 63  1  0  0  0  0
 57 63  1  0  0  0  0
 58 63  1  0  0  0  0
 59 74  1  0  0  0  0
 60 82  1  0  0  0  0
 61 63  1  0  0  0  0
 61 73  1  0  0  0  0
 62 74  1  0  0  0  0
 64 65  1  0  0  0  0
M  CHG  1  74   1
M  ISO  4  39 100  60 101  71 100  82 101
M  END
> <Batch ID>
0023

> <Smiles>
CNC(C)C(=O)NC(C(=O)N1Cc2cc([101O:1][101CH2:1]C3CCN(c4cc(F)c([100NH:0][100C:0](=O)N5CCCC(n6nc(-c7ccc(Oc8ccc(F)cc8F)cc7)c(C(N)=O)c6N)C5)cc4F)C3=O)ccc2CC1C(=O)NC1CCCc2ccccc21)C(C)(C)C

> <Shape>
0.291

> <Color>
0.171

> <Negative vol penalty>
0.000

$$$$

  -OEChem-04042321173D

 87 96  0     1  0  0  0  0  0999 V2000
  -18.4732  -27.5630   26.1070 C   0  0  0  0  0  0  0  0  0  0  0  0
  -19.8254  -27.2441   26.1789 C   0  0  0  0  0  0  0  0  0  0  0  0
  -22.6231  -10.3624   20.2651 C   0  0  0  0  0  0  0  0  0  0  0  0
  -24.4660   -9.6067   21.6324 C   0  0  0  0  0  0  0  0  0  0  0  0
  -17.8494  -27.6743   24.8650 C   0  0  0  0  0  0  0  0  0  0  0  0
  -20.5545  -27.0352   25.0087 C   0  0  0  0  0  0  0  0  0  0  0  0
  -27.1276  -27.9036   22.2964 C   0  0  0  0  0  0  0  0  0  0  0  0
  -28.7896  -19.1438   20.8882 C   0  0  0  0  0  0  0  0  0  0  0  0
  -28.8951  -20.4411   20.3870 C   0  0  0  0  0  0  0  0  0  0  0  0
  -21.9602   -9.1563   20.4918 C   0  0  0  0  0  0  0  0  0  0  0  0
  -23.8031   -8.4005   21.8592 C   0  0  0  0  0  0  0  0  0  0  0  0
  -28.1266  -27.1839   21.6423 C   0  0  0  0  0  0  0  0  0  0  0  0
  -21.2971   -7.2686   23.8236 C   0  0  0  0  0  0  0  0  0  0  0  0
  -21.2724   -6.7800   25.1298 C   0  0  0  0  0  0  0  0  0  0  0  0
  -26.9623  -27.4807   19.5505 C   0  0  0  0  0  0  0  0  0  0  0  0
  -29.6113  -19.5591   18.2548 C   0  0  0  0  0  0  0  0  0  0  0  0
  -22.4119   -4.7776   24.4024 C   0  0  0  0  0  0  0  0  0  0  0  0
  -23.8761  -10.5876   20.8353 C   0  0  0  0  0  0  0  0  0  0  0  0
  -24.1121  -13.1259   20.9304 C   0  0  0  0  0  0  0  0  0  0  0  0
  -18.5735  -27.4761   23.6788 C   0  0  0  0  0  0  0  0  0  0  0  0
  -26.0311  -28.4088   21.5830 C   0  0  0  0  0  0  0  0  0  0  0  0
  -19.9396  -27.1426   23.7498 C   0  0  0  0  0  0  0  0  0  0  0  0
  -25.9521  -28.2087   20.1974 C   0  0  0  0  0  0  0  0  0  0  0  0
  -29.0949  -18.0540   20.0728 C   0  0  0  0  0  0  0  0  0  0  0  0
  -29.3060  -20.6488   19.0703 C   0  0  0  0  0  0  0  0  0  0  0  0
  -22.5502   -8.1754   21.2889 C   0  0  0  0  0  0  0  0  0  0  0  0
  -28.0426  -26.9699   20.2696 C   0  0  0  0  0  0  0  0  0  0  0  0
  -21.8791   -6.5116   22.8067 C   0  0  0  0  0  0  0  0  0  0  0  0
  -21.8298   -5.5346   25.4193 C   0  0  0  0  0  0  0  0  0  0  0  0
  -22.4365   -5.2662   23.0962 C   0  0  0  0  0  0  0  0  0  0  0  0
  -29.5058  -18.2617   18.7561 C   0  0  0  0  0  0  0  0  0  0  0  0
  -24.5616  -11.8331   20.6010 C   0  0  0  0  0  0  0  0  0  0  0  0
  -25.1180  -13.9582   20.5038 C   0  0  0  0  0  0  0  0  0  0  0  0
  -29.1446  -23.1725   19.2542 C   0  0  0  0  0  0  0  0  0  0  0  0
  -22.8943  -13.5376   21.5653 C   0  0  0  0  0  0  0  0  0  0  0  0
  -22.8887  -27.9384   21.6707 C   0  0  0  0  0  0  0  0  0  0  0  0
  -22.8600  -30.3491   19.5005 C   0  0  0  0  0  0  0  0  0  0  0  0
  -24.5369  -32.1153   17.1098 C   0  0  0  0  0  0  0  0  0  0  0  0
  -30.7283  -14.8736   20.4403 C   0  0  0  0  0  0  0  0  0  0  0  0
  -17.8450  -27.5607   22.3609 C   0  0  0  0  0  0  0  0  0  0  0  0
  -24.9754  -29.2059   22.2989 C   0  0  0  0  0  0  0  0  0  0  0  0
  -24.8058  -28.7475   19.3824 C   0  0  0  0  0  0  0  0  0  0  0  0
  -18.7755  -27.6922   21.1579 C   0  0  0  0  0  0  0  0  0  0  0  0
  -29.1643  -13.0534   17.6221 C   0  0  0  0  0  0  0  0  0  0  0  0
  -19.9164  -26.6842   21.2528 C   0  0  0  0  0  0  0  0  0  0  0  0
  -27.8206  -12.6232   18.2081 C   0  0  0  0  0  0  0  0  0  0  0  0
  -29.4732  -23.6806   16.9524 C   0  0  0  0  0  0  0  0  0  0  0  0
  -30.2344  -13.1942   18.7004 C   0  0  0  0  0  0  0  0  0  0  0  0
  -29.8913  -22.2476   17.2144 C   0  0  0  0  0  0  0  0  0  0  0  0
  -28.5053  -13.6695   20.4029 C   0  0  0  0  0  0  0  0  0  0  0  0
  -20.7700  -26.9330   22.5021 C   0  0  1  0  0  0  0  0  0  0  0  0
  -29.5340  -24.3175   18.3332 C   0  0  1  0  0  0  0  0  0  0  0  0
  -23.6422  -29.2334   21.5578 C   0  0  1  0  0  0  0  0  0  0  0  0
  -27.3932  -13.5635   19.3486 C   0  0  2  0  0  0  0  0  0  0  0  0
  -24.2392  -34.0033   15.4838 C   0  0  0  0  0  0  0  0  0  0  0  0
  -21.2426  -28.5172   17.6733 C   0  0  0  0  0  0  0  0  0  0  0  0
  -21.7900  -30.0484   15.7696 C   0  0  0  0  0  0  0  0  0  0  0  0
  -20.4732  -30.8965   17.7111 C   0  0  0  0  0  0  0  0  0  0  0  0
  -31.2105  -16.9766   21.6338 C   0  0  0  0  0  0  0  0  0  0  0  0
  -26.6787  -33.7079   18.3885 C   0  0  0  0  0  0  0  0  0  0  0  0
  -28.9687  -16.6801   20.6477 C   0  0  0  0  0  0  0  0  0  0  0  0
  -28.6280  -25.5264   18.4725 C   0  0  0  0  0  0  0  0  0  1  0  0
  -22.9424  -30.4337   17.9955 C   0  0  1  0  0  0  0  0  0  0  0  0
  -24.6891  -33.6084   16.8817 C   0  0  2  0  0  0  0  0  0  0  0  0
  -21.6328  -29.9620   17.3027 C   0  0  0  0  0  0  0  0  0  0  0  0
  -25.7596  -11.8386   20.0106 N   0  0  0  0  0  0  0  0  0  0  0  0
  -26.0715  -13.1450   19.9655 N   0  0  0  0  0  0  0  0  0  0  0  0
  -29.4150  -21.9764   18.5580 N   0  0  0  0  0  0  0  0  0  0  0  0
  -23.7955  -29.5151   20.1291 N   0  0  0  0  0  0  0  0  0  0  0  0
  -29.7856  -14.0583   19.7927 N   0  0  0  0  0  0  0  0  0  0  0  0
  -25.2711  -15.2989   20.5404 N   0  0  0  0  0  0  0  0  0  0  0  0
  -22.8702  -13.6377   22.9631 N   0  0  0  0  0  0  0  0  0  0  0  0
  -21.6595  -28.0549   22.2913 N   0  0  0  0  0  0  0  0  0  0  0  0
  -23.3217  -31.8076   17.6841 N   0  0  0  0  0  0  0  0  0  0  0  0
  -30.2685  -16.0916   20.9635 N   0  0  0  0  0  0  0  0  0  0  0  0
  -26.1128  -34.0155   17.0498 N   0  3  0  0  0  0  0  0  0  0  0  0
  -28.7403  -23.3395   20.3958 O   0  0  0  0  0  0  0  0  0  0  0  0
  -21.8534  -13.7930   20.9135 O   0  0  0  0  0  0  0  0  0  0  0  0
  -23.3849  -26.9098   21.2263 O   0  0  0  0  0  0  0  0  0  0  0  0
  -22.0019  -31.0045   20.0969 O   0  0  0  0  0  0  0  0  0  0  0  0
  -25.4073  -31.3028   16.8053 O   0  0  0  0  0  0  0  0  0  0  0  0
  -31.9154  -14.5366   20.5365 O   0  0  0  0  0  0  0  0  0  0  0  0
  -21.9035   -6.9984   21.5105 O   0  0  0  0  0  0  0  0  0  0  0  0
  -29.0160  -26.2672   19.6288 O   0  0  0  0  0  0  0  0  0  1  0  0
  -21.8074   -5.0662   26.6740 F   0  0  0  0  0  0  0  0  0  0  0  0
  -22.9981   -4.5350   22.1237 F   0  0  0  0  0  0  0  0  0  0  0  0
  -29.8924  -16.9378   17.7180 Cl  0  0  0  0  0  0  0  0  0  0  0  0
  1  2  1  0  0  0  0
  1  5  2  0  0  0  0
  2  6  2  0  0  0  0
  3 10  2  0  0  0  0
  3 18  1  0  0  0  0
  4 11  1  0  0  0  0
  4 18  2  0  0  0  0
  5 20  1  0  0  0  0
  6 22  1  0  0  0  0
  7 12  2  0  0  0  0
  7 21  1  0  0  0  0
  8  9  2  0  0  0  0
  8 24  1  0  0  0  0
  9 25  1  0  0  0  0
 10 26  1  0  0  0  0
 11 26  2  0  0  0  0
 12 27  1  0  0  0  0
 13 14  2  0  0  0  0
 13 28  1  0  0  0  0
 14 29  1  0  0  0  0
 15 23  1  0  0  0  0
 15 27  2  0  0  0  0
 16 25  2  0  0  0  0
 16 31  1  0  0  0  0
 17 29  2  0  0  0  0
 17 30  1  0  0  0  0
 18 32  1  0  0  0  0
 19 32  1  0  0  0  0
 19 33  2  0  0  0  0
 19 35  1  0  0  0  0
 20 22  2  0  0  0  0
 20 40  1  0  0  0  0
 21 23  2  0  0  0  0
 21 41  1  0  0  0  0
 22 51  1  0  0  0  0
 23 42  1  0  0  0  0
 24 31  2  0  0  0  0
 24 61  1  0  0  0  0
 25 68  1  0  0  0  0
 26 83  1  0  0  0  0
 27 84  1  0  0  0  0
 28 30  2  0  0  0  0
 28 83  1  0  0  0  0
 29 85  1  0  0  0  0
 30 86  1  0  0  0  0
 31 87  1  0  0  0  0
 32 66  2  0  0  0  0
 33 67  1  0  0  0  0
 33 71  1  0  0  0  0
 34 52  1  0  0  0  0
 34 68  1  0  0  0  0
 34 77  2  0  0  0  0
 35 72  1  0  0  0  0
 35 78  2  0  0  0  0
 36 53  1  0  0  0  0
 36 73  1  0  0  0  0
 36 79  2  0  0  0  0
 37 63  1  0  0  0  0
 37 69  1  0  0  0  0
 37 80  2  0  0  0  0
 38 64  1  0  0  0  0
 38 74  1  0  0  0  0
 38 81  2  0  0  0  0
 39 70  1  0  0  0  0
 39 75  1  0  0  0  0
 39 82  2  0  0  0  0
 40 43  1  0  0  0  0
 41 53  1  0  0  0  0
 42 69  1  0  0  0  0
 43 45  1  0  0  0  0
 44 46  1  0  0  0  0
 44 48  1  0  0  0  0
 45 51  1  0  0  0  0
 46 54  1  0  0  0  0
 47 49  1  0  0  0  0
 47 52  1  0  0  0  0
 48 70  1  0  0  0  0
 49 68  1  0  0  0  0
 50 54  1  0  0  0  0
 50 70  1  0  0  0  0
 51 73  1  0  0  0  0
 52 62  1  0  0  0  0
 53 69  1  0  0  0  0
 54 67  1  0  0  0  0
 55 64  1  0  0  0  0
 56 65  1  0  0  0  0
 57 65  1  0  0  0  0
 58 65  1  0  0  0  0
 59 75  1  0  0  0  0
 60 76  1  0  0  0  0
 61 75  1  0  0  0  0
 62 84  1  0  0  0  0
 63 65  1  0  0  0  0
 63 74  1  0  0  0  0
 64 76  1  0  0  0  0
 66 67  1  0  0  0  0
M  CHG  1  76   1
M  ISO  4  39 100  62 101  75 100  84 101
M  END
> <Batch ID>
0023

> <Smiles>
CNC(C)C(=O)NC(C(=O)N1Cc2cc([101O:1][101CH2:1]C3CCN(c4ccc(C[100N:0](C)[100C:0](=O)N5CCCC(n6nc(-c7ccc(Oc8ccc(F)cc8F)cc7)c(C(N)=O)c6N)C5)c(Cl)c4)C3=O)ccc2CC1C(=O)NC1CCCc2ccccc21)C(C)(C)C

> <Shape>
0.390

> <Color>
0.209

> <Negative vol penalty>
0.000

$$$$

  -OEChem-04042321173D

 87 96  0     1  0  0  0  0  0999 V2000
  -16.9631  -28.0700   20.2735 C   0  0  0  0  0  0  0  0  0  0  0  0
  -18.1943  -28.3795   19.7046 C   0  0  0  0  0  0  0  0  0  0  0  0
  -24.9795  -13.9890   21.8669 C   0  0  0  0  0  0  0  0  0  0  0  0
  -26.2980  -14.0877   19.8449 C   0  0  0  0  0  0  0  0  0  0  0  0
  -16.8298  -28.0214   21.6605 C   0  0  0  0  0  0  0  0  0  0  0  0
  -19.2928  -28.6418   20.5225 C   0  0  0  0  0  0  0  0  0  0  0  0
  -25.1457  -27.2415   19.3873 C   0  0  0  0  0  0  0  0  0  0  0  0
  -29.3167  -25.0032   17.0573 C   0  0  0  0  0  0  0  0  0  0  0  0
  -28.2574  -24.1181   17.2574 C   0  0  0  0  0  0  0  0  0  0  0  0
  -24.9592  -12.5967   21.7858 C   0  0  0  0  0  0  0  0  0  0  0  0
  -26.2778  -12.6953   19.7637 C   0  0  0  0  0  0  0  0  0  0  0  0
  -26.2099  -27.9915   18.8886 C   0  0  0  0  0  0  0  0  0  0  0  0
  -23.2890  -10.2274   20.0475 C   0  0  0  0  0  0  0  0  0  0  0  0
  -22.0706   -9.5840   20.2647 C   0  0  0  0  0  0  0  0  0  0  0  0
  -26.9435  -28.4381   21.1429 C   0  0  0  0  0  0  0  0  0  0  0  0
  -30.2855  -24.3195   19.1623 C   0  0  0  0  0  0  0  0  0  0  0  0
  -23.0346   -8.3878   22.1293 C   0  0  0  0  0  0  0  0  0  0  0  0
  -25.6488  -14.7345   20.8964 C   0  0  0  0  0  0  0  0  0  0  0  0
  -26.1897  -16.9565   22.0268 C   0  0  0  0  0  0  0  0  0  0  0  0
  -17.9296  -28.2738   22.4957 C   0  0  0  0  0  0  0  0  0  0  0  0
  -24.9658  -27.0929   20.7700 C   0  0  0  0  0  0  0  0  0  0  0  0
  -19.1738  -28.5980   21.9220 C   0  0  0  0  0  0  0  0  0  0  0  0
  -25.8777  -27.6835   21.6565 C   0  0  0  0  0  0  0  0  0  0  0  0
  -30.3308  -25.1039   18.0098 C   0  0  0  0  0  0  0  0  0  0  0  0
  -29.2262  -23.4344   19.3624 C   0  0  0  0  0  0  0  0  0  0  0  0
  -28.2121  -23.3337   18.4099 C   0  0  0  0  0  0  0  0  0  0  0  0
  -25.6083  -11.9498   20.7342 C   0  0  0  0  0  0  0  0  0  0  0  0
  -27.1073  -28.5924   19.7665 C   0  0  0  0  0  0  0  0  0  0  0  0
  -24.3803   -9.9510   20.8713 C   0  0  0  0  0  0  0  0  0  0  0  0
  -21.9434   -8.6642   21.3056 C   0  0  0  0  0  0  0  0  0  0  0  0
  -24.2530   -9.0312   21.9122 C   0  0  0  0  0  0  0  0  0  0  0  0
  -25.6696  -16.1728   20.9793 C   0  0  0  0  0  0  0  0  0  0  0  0
  -25.9686  -18.2523   21.6286 C   0  0  0  0  0  0  0  0  0  0  0  0
  -30.6299  -28.3497   18.1681 C   0  0  0  0  0  0  0  0  0  0  0  0
  -26.8167  -16.5496   23.2503 C   0  0  0  0  0  0  0  0  0  0  0  0
  -22.6842  -27.8918   22.8339 C   0  0  0  0  0  0  0  0  0  0  0  0
  -24.5198  -26.2123   24.9153 C   0  0  0  0  0  0  0  0  0  0  0  0
  -27.6045  -25.0045   25.7356 C   0  0  0  0  0  0  0  0  0  0  0  0
  -26.0488  -22.2328   17.7360 C   0  0  0  0  0  0  0  0  0  0  0  0
  -17.7255  -28.2561   23.9899 C   0  0  0  0  0  0  0  0  0  0  0  0
  -23.8282  -26.2584   21.2914 C   0  0  0  0  0  0  0  0  0  0  0  0
  -25.7406  -27.5375   23.1492 C   0  0  0  0  0  0  0  0  0  0  0  0
  -19.0283  -28.1791   24.7817 C   0  0  0  0  0  0  0  0  0  0  0  0
  -32.2388  -28.4332   20.6713 C   0  0  0  0  0  0  0  0  0  0  0  0
  -23.1993  -20.0994   17.8154 C   0  0  0  0  0  0  0  0  0  0  0  0
  -20.0448  -29.1767   24.2355 C   0  0  0  0  0  0  0  0  0  0  0  0
  -31.8662  -29.6736   19.8731 C   0  0  0  0  0  0  0  0  0  0  0  0
  -23.6307  -18.9521   18.7318 C   0  0  0  0  0  0  0  0  0  0  0  0
  -31.8118  -27.1265   20.0082 C   0  0  0  0  0  0  0  0  0  0  0  0
  -24.3536  -20.5962   16.9467 C   0  0  0  0  0  0  0  0  0  0  0  0
  -26.0042  -19.8098   18.5978 C   0  0  0  0  0  0  0  0  0  0  0  0
  -20.3947  -28.8643   22.7755 C   0  0  1  0  0  0  0  0  0  0  0  0
  -30.5387  -29.5157   19.1394 C   0  0  2  0  0  0  0  0  0  0  0  0
  -23.4455  -26.6007   22.7280 C   0  0  1  0  0  0  0  0  0  0  0  0
  -24.8917  -19.3191   19.5386 C   0  0  2  0  0  0  0  0  0  0  0  0
  -29.2019  -22.6087   20.6078 C   0  0  0  0  0  0  0  0  0  0  0  0
  -29.3348  -23.7127   27.0141 C   0  0  0  0  0  0  0  0  0  0  0  0
  -24.4853  -28.6648   26.7303 C   0  0  0  0  0  0  0  0  0  0  0  0
  -26.4158  -27.6786   27.9829 C   0  0  0  0  0  0  0  0  0  0  0  0
  -24.2282  -26.4812   27.9221 C   0  0  0  0  0  0  0  0  0  0  0  0
  -27.1415  -22.5654   24.1246 C   0  0  0  0  0  0  0  0  0  0  0  0
  -31.4698  -26.0584   17.7955 C   0  0  0  0  0  0  0  0  0  0  0  0
  -29.3383  -29.3595   20.0667 C   0  0  0  0  0  0  0  0  0  1  0  0
  -25.6638  -26.5462   25.8420 C   0  0  1  0  0  0  0  0  0  0  0  0
  -28.0597  -23.6293   26.1895 C   0  0  2  0  0  0  0  0  0  0  0  0
  -25.2000  -27.3473   27.0913 C   0  0  0  0  0  0  0  0  0  0  0  0
  -25.1566  -16.9092   19.9901 N   0  0  0  0  0  0  0  0  0  0  0  0
  -25.3532  -18.1692   20.4143 N   0  0  0  0  0  0  0  0  0  0  0  0
  -31.3488  -27.2465   18.6277 N   0  0  0  0  0  0  0  0  0  0  0  0
  -24.6083  -26.7171   23.6103 N   0  0  0  0  0  0  0  0  0  0  0  0
  -25.5116  -20.9288   17.7794 N   0  0  0  0  0  0  0  0  0  0  0  0
  -26.2424  -19.4432   22.2023 N   0  0  0  0  0  0  0  0  0  0  0  0
  -28.2074  -16.3761   23.2629 N   0  0  0  0  0  0  0  0  0  0  0  0
  -27.1276  -22.4407   18.5948 N   0  0  0  0  0  0  0  0  0  0  0  0
  -21.3158  -27.7503   22.7039 N   0  0  0  0  0  0  0  0  0  0  0  0
  -26.3197  -25.2808   26.1532 N   0  0  0  0  0  0  0  0  0  0  0  0
  -28.3185  -22.7543   25.0112 N   0  3  0  0  0  0  0  0  0  0  0  0
  -30.0738  -28.4171   17.0704 O   0  0  0  0  0  0  0  0  0  0  0  0
  -26.1612  -16.3299   24.2970 O   0  0  0  0  0  0  0  0  0  0  0  0
  -23.2931  -28.9386   23.0213 O   0  0  0  0  0  0  0  0  0  0  0  0
  -23.5856  -25.5228   25.3319 O   0  0  0  0  0  0  0  0  0  0  0  0
  -28.3185  -25.7597   25.0796 O   0  0  0  0  0  0  0  0  0  0  0  0
  -25.5687  -23.1087   17.0120 O   0  0  0  0  0  0  0  0  0  0  0  0
  -25.5890  -10.5912   20.6549 O   0  0  0  0  0  0  0  0  0  0  0  0
  -28.1466  -29.3256   19.2825 O   0  0  0  0  0  0  0  0  0  1  0  0
  -20.7729   -8.0476   21.5149 F   0  0  0  0  0  0  0  0  0  0  0  0
  -25.2975   -8.7624   22.7076 F   0  0  0  0  0  0  0  0  0  0  0  0
  1  2  1  0  0  0  0
  1  5  2  0  0  0  0
  2  6  2  0  0  0  0
  3 10  2  0  0  0  0
  3 18  1  0  0  0  0
  4 11  1  0  0  0  0
  4 18  2  0  0  0  0
  5 20  1  0  0  0  0
  6 22  1  0  0  0  0
  7 12  2  0  0  0  0
  7 21  1  0  0  0  0
  8  9  2  0  0  0  0
  8 24  1  0  0  0  0
  9 26  1  0  0  0  0
 10 27  1  0  0  0  0
 11 27  2  0  0  0  0
 12 28  1  0  0  0  0
 13 14  2  0  0  0  0
 13 29  1  0  0  0  0
 14 30  1  0  0  0  0
 15 23  1  0  0  0  0
 15 28  2  0  0  0  0
 16 24  2  0  0  0  0
 16 25  1  0  0  0  0
 17 30  2  0  0  0  0
 17 31  1  0  0  0  0
 18 32  1  0  0  0  0
 19 32  1  0  0  0  0
 19 33  2  0  0  0  0
 19 35  1  0  0  0  0
 20 22  2  0  0  0  0
 20 40  1  0  0  0  0
 21 23  2  0  0  0  0
 21 41  1  0  0  0  0
 22 52  1  0  0  0  0
 23 42  1  0  0  0  0
 24 62  1  0  0  0  0
 25 26  2  0  0  0  0
 25 56  1  0  0  0  0
 26 74  1  0  0  0  0
 27 84  1  0  0  0  0
 28 85  1  0  0  0  0
 29 31  2  0  0  0  0
 29 84  1  0  0  0  0
 30 86  1  0  0  0  0
 31 87  1  0  0  0  0
 32 67  2  0  0  0  0
 33 68  1  0  0  0  0
 33 72  1  0  0  0  0
 34 53  1  0  0  0  0
 34 69  1  0  0  0  0
 34 78  2  0  0  0  0
 35 73  1  0  0  0  0
 35 79  2  0  0  0  0
 36 54  1  0  0  0  0
 36 75  1  0  0  0  0
 36 80  2  0  0  0  0
 37 64  1  0  0  0  0
 37 70  1  0  0  0  0
 37 81  2  0  0  0  0
 38 65  1  0  0  0  0
 38 76  1  0  0  0  0
 38 82  2  0  0  0  0
 39 71  1  0  0  0  0
 39 74  1  0  0  0  0
 39 83  2  0  0  0  0
 40 43  1  0  0  0  0
 41 54  1  0  0  0  0
 42 70  1  0  0  0  0
 43 46  1  0  0  0  0
 44 47  1  0  0  0  0
 44 49  1  0  0  0  0
 45 48  1  0  0  0  0
 45 50  1  0  0  0  0
 46 52  1  0  0  0  0
 47 53  1  0  0  0  0
 48 55  1  0  0  0  0
 49 69  1  0  0  0  0
 50 71  1  0  0  0  0
 51 55  1  0  0  0  0
 51 71  1  0  0  0  0
 52 75  1  0  0  0  0
 53 63  1  0  0  0  0
 54 70  1  0  0  0  0
 55 68  1  0  0  0  0
 57 65  1  0  0  0  0
 58 66  1  0  0  0  0
 59 66  1  0  0  0  0
 60 66  1  0  0  0  0
 61 77  1  0  0  0  0
 62 69  1  0  0  0  0
 63 85  1  0  0  0  0
 64 66  1  0  0  0  0
 64 76  1  0  0  0  0
 65 77  1  0  0  0  0
 67 68  1  0  0  0  0
M  CHG  1  77   1
M  ISO  4  39 100  63 101  74 100  85 101
M  END
> <Batch ID>
0023

> <Smiles>
CNC(C)C(=O)NC(C(=O)N1Cc2cc([101O:1][101CH2:1]C3CCCN(Cc4ccc([100NH:0][100C:0](=O)N5CCCC(n6nc(-c7ccc(Oc8ccc(F)cc8F)cc7)c(C(N)=O)c6N)C5)c(C)c4)C3=O)ccc2CC1C(=O)NC1CCCc2ccccc21)C(C)(C)C

> <Shape>
0.204

> <Color>
0.076

> <Negative vol penalty>
0.000

$$$$

  -OEChem-04042321173D

 84 93  0     1  0  0  0  0  0999 V2000
  -23.0976  -32.6680   14.4320 C   0  0  0  0  0  0  0  0  0  0  0  0
  -24.0915  -31.8883   15.0148 C   0  0  0  0  0  0  0  0  0  0  0  0
  -22.3068  -13.1603   21.9037 C   0  0  0  0  0  0  0  0  0  0  0  0
  -23.7473  -11.8265   23.3119 C   0  0  0  0  0  0  0  0  0  0  0  0
  -22.5519  -33.7405   15.1362 C   0  0  0  0  0  0  0  0  0  0  0  0
  -24.5410  -32.1812   16.3019 C   0  0  0  0  0  0  0  0  0  0  0  0
  -28.0420  -20.3014   19.0853 C   0  0  0  0  0  0  0  0  0  0  0  0
  -24.9915  -28.0462   19.1904 C   0  0  0  0  0  0  0  0  0  0  0  0
  -27.9640  -18.9088   19.0853 C   0  0  0  0  0  0  0  0  0  0  0  0
  -21.3725  -13.2413   22.9362 C   0  0  0  0  0  0  0  0  0  0  0  0
  -22.8130  -11.9076   24.3444 C   0  0  0  0  0  0  0  0  0  0  0  0
  -26.1158  -27.2472   18.9874 C   0  0  0  0  0  0  0  0  0  0  0  0
  -19.8857  -10.4347   25.1767 C   0  0  0  0  0  0  0  0  0  0  0  0
  -19.5846   -9.2634   25.8716 C   0  0  0  0  0  0  0  0  0  0  0  0
  -27.1706  -28.2535   20.9094 C   0  0  0  0  0  0  0  0  0  0  0  0
  -30.2405  -18.7812   19.8843 C   0  0  0  0  0  0  0  0  0  0  0  0
  -20.3448  -10.2859   27.9244 C   0  0  0  0  0  0  0  0  0  0  0  0
  -23.4942  -12.4528   22.0915 C   0  0  0  0  0  0  0  0  0  0  0  0
  -24.2645  -11.8196   19.7435 C   0  0  0  0  0  0  0  0  0  0  0  0
  -22.9882  -34.0408   16.4363 C   0  0  0  0  0  0  0  0  0  0  0  0
  -24.9526  -28.9643   20.2498 C   0  0  0  0  0  0  0  0  0  0  0  0
  -24.0015  -33.2595   17.0236 C   0  0  0  0  0  0  0  0  0  0  0  0
  -29.2193  -20.9340   19.4847 C   0  0  0  0  0  0  0  0  0  0  0  0
  -26.0436  -29.0612   21.1252 C   0  0  0  0  0  0  0  0  0  0  0  0
  -30.3185  -20.1739   19.8842 C   0  0  0  0  0  0  0  0  0  0  0  0
  -29.0632  -18.1487   19.4848 C   0  0  0  0  0  0  0  0  0  0  0  0
  -21.6255  -12.6150   24.1565 C   0  0  0  0  0  0  0  0  0  0  0  0
  -27.2067  -27.3527   19.8453 C   0  0  0  0  0  0  0  0  0  0  0  0
  -20.4165  -11.5316   25.8556 C   0  0  0  0  0  0  0  0  0  0  0  0
  -19.8141   -9.1890   27.2455 C   0  0  0  0  0  0  0  0  0  0  0  0
  -20.6460  -11.4572   27.2294 C   0  0  0  0  0  0  0  0  0  0  0  0
  -24.4595  -12.3683   21.0252 C   0  0  0  0  0  0  0  0  0  0  0  0
  -25.4742  -11.9807   19.1133 C   0  0  0  0  0  0  0  0  0  0  0  0
  -23.0944  -11.2183   19.1734 C   0  0  0  0  0  0  0  0  0  0  0  0
  -24.6968  -32.1249   20.4707 C   0  0  0  0  0  0  0  0  0  0  0  0
  -24.5189  -31.4979   23.6483 C   0  0  0  0  0  0  0  0  0  0  0  0
  -26.1617  -29.3052   25.9958 C   0  0  0  0  0  0  0  0  0  0  0  0
  -29.9821  -15.8323   19.8541 C   0  0  0  0  0  0  0  0  0  0  0  0
  -22.4019  -35.2390   17.1401 C   0  0  0  0  0  0  0  0  0  0  0  0
  -23.7218  -29.8000   20.4711 C   0  0  0  0  0  0  0  0  0  0  0  0
  -26.0437  -30.0167   22.2895 C   0  0  0  0  0  0  0  0  0  0  0  0
  -22.6687  -35.2535   18.6430 C   0  0  0  0  0  0  0  0  0  0  0  0
  -30.1646  -12.2810   20.0322 C   0  0  0  0  0  0  0  0  0  0  0  0
  -28.8935  -23.0476   20.8403 C   0  0  0  0  0  0  0  0  0  0  0  0
  -28.4232  -23.0508   18.3467 C   0  0  0  0  0  0  0  0  0  0  0  0
  -24.1325  -34.9329   18.9285 C   0  0  0  0  0  0  0  0  0  0  0  0
  -28.7040  -11.8501   20.1843 C   0  0  0  0  0  0  0  0  0  0  0  0
  -28.9659  -24.5723   20.8220 C   0  0  0  0  0  0  0  0  0  0  0  0
  -28.4987  -24.5754   18.3414 C   0  0  0  0  0  0  0  0  0  0  0  0
  -30.4548  -13.5777   20.7859 C   0  0  0  0  0  0  0  0  0  0  0  0
  -28.0942  -14.2633   20.6219 C   0  0  0  0  0  0  0  0  0  0  0  0
  -29.2802  -22.4506   19.4755 C   0  0  0  0  0  0  0  0  0  0  0  0
  -24.4980  -33.5305   18.4273 C   0  0  1  0  0  0  0  0  0  0  0  0
  -23.9964  -31.0668   21.2754 C   0  0  1  0  0  0  0  0  0  0  0  0
  -27.7380  -12.9966   19.8267 C   0  0  2  0  0  0  0  0  0  0  0  0
  -28.1178  -25.1642   19.6976 C   0  0  0  0  0  0  0  0  0  1  0  0
  -31.5885  -20.8294   20.3179 C   0  0  0  0  0  0  0  0  0  0  0  0
  -25.3508  -28.3325   28.1623 C   0  0  0  0  0  0  0  0  0  0  0  0
  -25.8848  -33.9165   24.9111 C   0  0  0  0  0  0  0  0  0  0  0  0
  -26.6182  -32.4336   26.7903 C   0  0  0  0  0  0  0  0  0  0  0  0
  -24.1870  -32.7986   26.3679 C   0  0  0  0  0  0  0  0  0  0  0  0
  -26.7329  -26.5420   25.1029 C   0  0  0  0  0  0  0  0  0  0  0  0
  -25.5210  -31.3643   24.7694 C   0  0  1  0  0  0  0  0  0  0  0  0
  -25.5611  -28.0882   26.6761 C   0  0  2  0  0  0  0  0  0  0  0  0
  -25.5596  -32.6220   25.6828 C   0  0  0  0  0  0  0  0  0  0  0  0
  -25.6959  -12.8422   21.2005 N   0  0  0  0  0  0  0  0  0  0  0  0
  -26.2887  -12.5918   20.0206 N   0  0  0  0  0  0  0  0  0  0  0  0
  -24.8196  -30.8167   22.4603 N   0  0  0  0  0  0  0  0  0  0  0  0
  -29.5033  -14.6194   20.3930 N   0  0  0  0  0  0  0  0  0  0  0  0
  -25.9101  -11.6576   17.8772 N   0  0  0  0  0  0  0  0  0  0  0  0
  -22.9124   -9.8368   19.3239 N   0  0  0  0  0  0  0  0  0  0  0  0
  -28.9837  -16.7340   19.4868 N   0  0  0  0  0  0  0  0  0  0  0  0
  -24.0060  -32.5228   19.3420 N   0  0  0  0  0  0  0  0  0  0  0  0
  -25.1887  -30.1279   25.4689 N   0  0  0  0  0  0  0  0  0  0  0  0
  -26.4590  -26.9095   26.5160 N   0  3  0  0  0  0  0  0  0  0  0  0
  -22.2439  -11.8836   18.5350 O   0  0  0  0  0  0  0  0  0  0  0  0
  -25.7829  -32.5499   20.8467 O   0  0  0  0  0  0  0  0  0  0  0  0
  -23.5031  -32.1756   23.8228 O   0  0  0  0  0  0  0  0  0  0  0  0
  -27.3727  -29.5078   25.9409 O   0  0  0  0  0  0  0  0  0  0  0  0
  -31.1880  -16.0438   19.7025 O   0  0  0  0  0  0  0  0  0  0  0  0
  -20.7142  -12.6941   25.1643 O   0  0  0  0  0  0  0  0  0  0  0  0
  -28.3056  -26.5744   19.6490 O   0  0  0  0  0  0  0  0  0  1  0  0
  -19.5234   -8.0647   27.9130 F   0  0  0  0  0  0  0  0  0  0  0  0
  -21.1545  -12.5081   27.8872 F   0  0  0  0  0  0  0  0  0  0  0  0
  1  2  1  0  0  0  0
  1  5  2  0  0  0  0
  2  6  2  0  0  0  0
  3 10  2  0  0  0  0
  3 18  1  0  0  0  0
  4 11  1  0  0  0  0
  4 18  2  0  0  0  0
  5 20  1  0  0  0  0
  6 22  1  0  0  0  0
  7  9  2  0  0  0  0
  7 23  1  0  0  0  0
  8 12  2  0  0  0  0
  8 21  1  0  0  0  0
  9 26  1  0  0  0  0
 10 27  1  0  0  0  0
 11 27  2  0  0  0  0
 12 28  1  0  0  0  0
 13 14  2  0  0  0  0
 13 29  1  0  0  0  0
 14 30  1  0  0  0  0
 15 24  1  0  0  0  0
 15 28  2  0  0  0  0
 16 25  1  0  0  0  0
 16 26  2  0  0  0  0
 17 30  2  0  0  0  0
 17 31  1  0  0  0  0
 18 32  1  0  0  0  0
 19 32  1  0  0  0  0
 19 33  2  0  0  0  0
 19 34  1  0  0  0  0
 20 22  2  0  0  0  0
 20 39  1  0  0  0  0
 21 24  2  0  0  0  0
 21 40  1  0  0  0  0
 22 53  1  0  0  0  0
 23 25  2  0  0  0  0
 23 52  1  0  0  0  0
 24 41  1  0  0  0  0
 25 57  1  0  0  0  0
 26 72  1  0  0  0  0
 27 81  1  0  0  0  0
 28 82  1  0  0  0  0
 29 31  2  0  0  0  0
 29 81  1  0  0  0  0
 30 83  1  0  0  0  0
 31 84  1  0  0  0  0
 32 66  2  0  0  0  0
 33 67  1  0  0  0  0
 33 70  1  0  0  0  0
 34 71  1  0  0  0  0
 34 76  2  0  0  0  0
 35 54  1  0  0  0  0
 35 73  1  0  0  0  0
 35 77  2  0  0  0  0
 36 63  1  0  0  0  0
 36 68  1  0  0  0  0
 36 78  2  0  0  0  0
 37 64  1  0  0  0  0
 37 74  1  0  0  0  0
 37 79  2  0  0  0  0
 38 69  1  0  0  0  0
 38 72  1  0  0  0  0
 38 80  2  0  0  0  0
 39 42  1  0  0  0  0
 40 54  1  0  0  0  0
 41 68  1  0  0  0  0
 42 46  1  0  0  0  0
 43 47  1  0  0  0  0
 43 50  1  0  0  0  0
 44 48  1  0  0  0  0
 44 52  1  0  0  0  0
 45 49  1  0  0  0  0
 45 52  1  0  0  0  0
 46 53  1  0  0  0  0
 47 55  1  0  0  0  0
 48 56  1  0  0  0  0
 49 56  1  0  0  0  0
 50 69  1  0  0  0  0
 51 55  1  0  0  0  0
 51 69  1  0  0  0  0
 53 73  1  0  0  0  0
 54 68  1  0  0  0  0
 55 67  1  0  0  0  0
 56 82  1  0  0  0  0
 58 64  1  0  0  0  0
 59 65  1  0  0  0  0
 60 65  1  0  0  0  0
 61 65  1  0  0  0  0
 62 75  1  0  0  0  0
 63 65  1  0  0  0  0
 63 74  1  0  0  0  0
 64 75  1  0  0  0  0
 66 67  1  0  0  0  0
M  CHG  1  75   1
M  ISO  4  38 100  56 101  72 100  82 101
M  END
> <Batch ID>
0023

> <Smiles>
CNC(C)C(=O)NC(C(=O)N1Cc2cc([101O:1][101CH:1]3CCC(c4ccc([100NH:0][100C:0](=O)N5CCCC(n6nc(-c7ccc(Oc8ccc(F)cc8F)cc7)c(C(N)=O)c6N)C5)cc4C)CC3)ccc2CC1C(=O)NC1CCCc2ccccc21)C(C)(C)C

> <Shape>
0.270

> <Color>
0.105

> <Negative vol penalty>
0.000

$$$$

  -OEChem-04042321173D

 85 93  0     1  0  0  0  0  0999 V2000
  -17.7281  -25.9557   23.0322 C   0  0  0  0  0  0  0  0  0  0  0  0
  -18.8622  -25.7250   22.2602 C   0  0  0  0  0  0  0  0  0  0  0  0
  -33.2078  -12.3146   18.9496 C   0  0  0  0  0  0  0  0  0  0  0  0
  -34.4392  -14.2909   18.3054 C   0  0  0  0  0  0  0  0  0  0  0  0
  -17.3352  -27.2624   23.3187 C   0  0  0  0  0  0  0  0  0  0  0  0
  -19.6035  -26.8010   21.7733 C   0  0  0  0  0  0  0  0  0  0  0  0
  -25.6752  -27.0438   21.0108 C   0  0  0  0  0  0  0  0  0  0  0  0
  -28.7058  -21.8336   18.4485 C   0  0  0  0  0  0  0  0  0  0  0  0
  -28.8435  -22.9933   17.6858 C   0  0  0  0  0  0  0  0  0  0  0  0
  -33.8165  -11.5992   17.9185 C   0  0  0  0  0  0  0  0  0  0  0  0
  -35.0479  -13.5755   17.2743 C   0  0  0  0  0  0  0  0  0  0  0  0
  -26.4878  -26.8678   19.8917 C   0  0  0  0  0  0  0  0  0  0  0  0
  -33.4692  -11.2708   14.5725 C   0  0  0  0  0  0  0  0  0  0  0  0
  -32.6584  -10.4524   13.7860 C   0  0  0  0  0  0  0  0  0  0  0  0
  -26.5329  -29.2563   19.5563 C   0  0  0  0  0  0  0  0  0  0  0  0
  -31.1069  -21.7016   18.6813 C   0  0  0  0  0  0  0  0  0  0  0  0
  -33.9641   -8.5284   14.4422 C   0  0  0  0  0  0  0  0  0  0  0  0
  -33.5191  -13.6605   19.1431 C   0  0  0  0  0  0  0  0  0  0  0  0
  -33.3509  -14.5445   21.5301 C   0  0  0  0  0  0  0  0  0  0  0  0
  -18.0776  -28.3548   22.8431 C   0  0  0  0  0  0  0  0  0  0  0  0
  -25.2757  -28.3288   21.4054 C   0  0  0  0  0  0  0  0  0  0  0  0
  -19.2194  -28.1235   22.0526 C   0  0  0  0  0  0  0  0  0  0  0  0
  -25.7173  -29.4461   20.6823 C   0  0  0  0  0  0  0  0  0  0  0  0
  -29.8375  -21.1877   18.9463 C   0  0  0  0  0  0  0  0  0  0  0  0
  -30.1129  -23.5072   17.4209 C   0  0  0  0  0  0  0  0  0  0  0  0
  -34.7366  -12.2296   17.0809 C   0  0  0  0  0  0  0  0  0  0  0  0
  -26.9144  -27.9739   19.1625 C   0  0  0  0  0  0  0  0  0  0  0  0
  -34.5274  -10.7180   15.2938 C   0  0  0  0  0  0  0  0  0  0  0  0
  -32.9059   -9.0812   13.7209 C   0  0  0  0  0  0  0  0  0  0  0  0
  -34.7749   -9.3468   15.2287 C   0  0  0  0  0  0  0  0  0  0  0  0
  -31.2446  -22.8613   17.9186 C   0  0  0  0  0  0  0  0  0  0  0  0
  -32.8902  -14.4002   20.2077 C   0  0  0  0  0  0  0  0  0  0  0  0
  -32.4054  -15.3331   22.1389 C   0  0  0  0  0  0  0  0  0  0  0  0
  -34.5282  -14.0133   22.1524 C   0  0  0  0  0  0  0  0  0  0  0  0
  -22.4832  -29.8189   21.6973 C   0  0  0  0  0  0  0  0  0  0  0  0
  -24.3157  -32.1766   22.9645 C   0  0  0  0  0  0  0  0  0  0  0  0
  -27.3856  -33.6481   23.2038 C   0  0  0  0  0  0  0  0  0  0  0  0
  -28.5108  -19.3675   20.0746 C   0  0  0  0  0  0  0  0  0  0  0  0
  -17.5870  -29.7499   23.1392 C   0  0  0  0  0  0  0  0  0  0  0  0
  -24.4209  -28.5036   22.6306 C   0  0  0  0  0  0  0  0  0  0  0  0
  -25.3331  -30.8481   21.0763 C   0  0  0  0  0  0  0  0  0  0  0  0
  -18.6392  -30.8294   22.8990 C   0  0  0  0  0  0  0  0  0  0  0  0
  -27.7480  -16.4290   21.9348 C   0  0  0  0  0  0  0  0  0  0  0  0
  -19.3313  -30.6111   21.5573 C   0  0  0  0  0  0  0  0  0  0  0  0
  -29.0242  -15.5911   21.8284 C   0  0  0  0  0  0  0  0  0  0  0  0
  -27.4589  -17.1887   20.6413 C   0  0  0  0  0  0  0  0  0  0  0  0
  -29.8464  -17.1697   20.0343 C   0  0  0  0  0  0  0  0  0  0  0  0
  -20.0637  -29.2642   21.5270 C   0  0  1  0  0  0  0  0  0  0  0  0
  -23.6530  -29.8217   22.6403 C   0  0  1  0  0  0  0  0  0  0  0  0
  -30.2143  -16.4370   21.3349 C   0  0  2  0  0  0  0  0  0  0  0  0
  -29.8335  -23.6795   12.9641 C   0  0  0  0  0  0  0  0  0  0  0  0
  -28.5644  -35.5815   24.2852 C   0  0  0  0  0  0  0  0  0  0  0  0
  -23.0476  -34.0775   20.9426 C   0  0  0  0  0  0  0  0  0  0  0  0
  -24.8959  -35.6994   21.4130 C   0  0  0  0  0  0  0  0  0  0  0  0
  -23.3304  -35.0320   23.2368 C   0  0  0  0  0  0  0  0  0  0  0  0
  -29.2209  -31.8545   24.6781 C   0  0  0  0  0  0  0  0  0  0  0  0
  -30.3539  -23.6478   14.3941 C   0  0  0  0  0  0  0  0  0  0  0  0
  -29.8104  -27.0108   17.2302 C   0  0  0  0  0  0  0  0  0  0  0  0
  -29.6980  -24.6976   15.2829 C   0  0  0  0  0  0  0  0  0  0  0  0
  -30.8232  -25.8732   17.1804 C   0  0  0  0  0  0  0  0  0  0  0  0
  -28.5828  -26.6782   18.0700 C   0  0  0  0  0  0  0  0  0  1  0  0
  -25.0509  -33.3734   22.4113 C   0  0  1  0  0  0  0  0  0  0  0  0
  -28.1890  -34.1127   24.4051 C   0  0  2  0  0  0  0  0  0  0  0  0
  -24.0870  -34.5192   21.9921 C   0  0  0  0  0  0  0  0  0  0  0  0
  -31.7413  -15.0453   19.9886 N   0  0  0  0  0  0  0  0  0  0  0  0
  -31.4721  -15.6025   21.1816 N   0  0  0  0  0  0  0  0  0  0  0  0
  -24.4908  -30.9667   22.2780 N   0  0  0  0  0  0  0  0  0  0  0  0
  -28.6292  -17.9709   20.2372 N   0  0  0  0  0  0  0  0  0  0  0  0
  -32.2896  -15.8154   23.3945 N   0  0  0  0  0  0  0  0  0  0  0  0
  -35.3923  -13.2230   21.3824 N   0  0  0  0  0  0  0  0  0  0  0  0
  -29.6971  -20.0093   19.7204 N   0  0  0  0  0  0  0  0  0  0  0  0
  -21.3102  -29.3502   22.2573 N   0  0  0  0  0  0  0  0  0  0  0  0
  -26.0287  -33.7558   23.4242 N   0  0  0  0  0  0  0  0  0  0  0  0
  -30.2190  -24.6744   16.6510 N   0  0  3  0  0  0  0  0  0  0  0  0
  -29.4423  -33.3160   24.5296 N   0  3  0  0  0  0  0  0  0  0  0  0
  -34.7973  -14.2194   23.3602 O   0  0  0  0  0  0  0  0  0  0  0  0
  -22.6335  -30.2142   20.5471 O   0  0  0  0  0  0  0  0  0  0  0  0
  -23.6177  -32.3086   23.9730 O   0  0  0  0  0  0  0  0  0  0  0  0
  -27.9093  -33.2347   22.1716 O   0  0  0  0  0  0  0  0  0  0  0  0
  -27.4425  -19.9547   20.2640 O   0  0  0  0  0  0  0  0  0  0  0  0
  -35.3309  -11.5317   16.0747 O   0  0  0  0  0  0  0  0  0  0  0  0
  -27.7071  -27.8050   18.0694 O   0  0  0  0  0  0  0  0  0  1  0  0
  -32.1263   -8.2952   12.9669 F   0  0  0  0  0  0  0  0  0  0  0  0
  -35.7893   -8.8098   15.9203 F   0  0  0  0  0  0  0  0  0  0  0  0
  -32.8346  -23.4647   17.6148 Cl  0  0  0  0  0  0  0  0  0  0  0  0
  1  2  1  0  0  0  0
  1  5  2  0  0  0  0
  2  6  2  0  0  0  0
  3 10  2  0  0  0  0
  3 18  1  0  0  0  0
  4 11  1  0  0  0  0
  4 18  2  0  0  0  0
  5 20  1  0  0  0  0
  6 22  1  0  0  0  0
  7 12  2  0  0  0  0
  7 21  1  0  0  0  0
  8  9  2  0  0  0  0
  8 24  1  0  0  0  0
  9 25  1  0  0  0  0
 10 26  1  0  0  0  0
 11 26  2  0  0  0  0
 12 27  1  0  0  0  0
 13 14  2  0  0  0  0
 13 28  1  0  0  0  0
 14 29  1  0  0  0  0
 15 23  1  0  0  0  0
 15 27  2  0  0  0  0
 16 24  2  0  0  0  0
 16 31  1  0  0  0  0
 17 29  2  0  0  0  0
 17 30  1  0  0  0  0
 18 32  1  0  0  0  0
 19 32  1  0  0  0  0
 19 33  2  0  0  0  0
 19 34  1  0  0  0  0
 20 22  2  0  0  0  0
 20 39  1  0  0  0  0
 21 23  2  0  0  0  0
 21 40  1  0  0  0  0
 22 48  1  0  0  0  0
 23 41  1  0  0  0  0
 24 71  1  0  0  0  0
 25 31  2  0  0  0  0
 25 74  1  0  0  0  0
 26 81  1  0  0  0  0
 27 82  1  0  0  0  0
 28 30  2  0  0  0  0
 28 81  1  0  0  0  0
 29 83  1  0  0  0  0
 30 84  1  0  0  0  0
 31 85  1  0  0  0  0
 32 65  2  0  0  0  0
 33 66  1  0  0  0  0
 33 69  1  0  0  0  0
 34 70  1  0  0  0  0
 34 76  2  0  0  0  0
 35 49  1  0  0  0  0
 35 72  1  0  0  0  0
 35 77  2  0  0  0  0
 36 62  1  0  0  0  0
 36 67  1  0  0  0  0
 36 78  2  0  0  0  0
 37 63  1  0  0  0  0
 37 73  1  0  0  0  0
 37 79  2  0  0  0  0
 38 68  1  0  0  0  0
 38 71  1  0  0  0  0
 38 80  2  0  0  0  0
 39 42  1  0  0  0  0
 40 49  1  0  0  0  0
 41 67  1  0  0  0  0
 42 44  1  0  0  0  0
 43 45  1  0  0  0  0
 43 46  1  0  0  0  0
 44 48  1  0  0  0  0
 45 50  1  0  0  0  0
 46 68  1  0  0  0  0
 47 50  1  0  0  0  0
 47 68  1  0  0  0  0
 48 72  1  0  0  0  0
 49 67  1  0  0  0  0
 50 66  1  0  0  0  0
 51 57  1  0  0  0  0
 52 63  1  0  0  0  0
 53 64  1  0  0  0  0
 54 64  1  0  0  0  0
 55 64  1  0  0  0  0
 56 75  1  0  0  0  0
 57 59  1  0  0  0  0
 58 60  1  0  0  0  0
 58 61  1  0  0  0  0
 59 74  1  0  0  0  0
 60 74  1  0  0  0  0
 61 82  1  0  0  0  0
 62 64  1  0  0  0  0
 62 73  1  0  0  0  0
 63 75  1  0  0  0  0
 65 66  1  0  0  0  0
M  CHG  1  75   1
M  ISO  4  38 100  61 101  71 100  82 101
M  END
> <Batch ID>
0023

> <Smiles>
CCCN(CC[101CH2:1][101O:1]c1ccc2c(c1)CN(C(=O)C(NC(=O)C(C)NC)C(C)(C)C)C(C(=O)NC1CCCc3ccccc31)C2)c1ccc([100NH:0][100C:0](=O)N2CCCC(n3nc(-c4ccc(Oc5ccc(F)cc5F)cc4)c(C(N)=O)c3N)C2)cc1Cl

> <Shape>
0.239

> <Color>
0.102

> <Negative vol penalty>
0.000

$$$$

  -OEChem-04042321173D

 83 91  0     1  0  0  0  0  0999 V2000
  -30.4667  -25.6074   28.7953 C   0  0  0  0  0  0  0  0  0  0  0  0
  -30.2119  -25.3794   27.4467 C   0  0  0  0  0  0  0  0  0  0  0  0
  -29.6917  -22.2442   22.4928 C   0  0  0  0  0  0  0  0  0  0  0  0
  -25.8777  -13.7808   21.8102 C   0  0  0  0  0  0  0  0  0  0  0  0
  -27.0919  -13.5499   19.7343 C   0  0  0  0  0  0  0  0  0  0  0  0
  -29.4067  -25.7848   29.6835 C   0  0  0  0  0  0  0  0  0  0  0  0
  -28.8969  -25.3275   26.9858 C   0  0  0  0  0  0  0  0  0  0  0  0
  -28.2368  -27.9389   22.6975 C   0  0  0  0  0  0  0  0  0  0  0  0
  -30.0011  -22.5542   21.1685 C   0  0  0  0  0  0  0  0  0  0  0  0
  -28.3620  -22.2328   22.9142 C   0  0  0  0  0  0  0  0  0  0  0  0
  -25.4833  -12.4454   21.7281 C   0  0  0  0  0  0  0  0  0  0  0  0
  -26.6975  -12.2144   19.6522 C   0  0  0  0  0  0  0  0  0  0  0  0
  -28.6674  -27.3398   21.5145 C   0  0  0  0  0  0  0  0  0  0  0  0
  -23.1725  -10.6294   20.0587 C   0  0  0  0  0  0  0  0  0  0  0  0
  -21.8364  -10.3314   20.3263 C   0  0  0  0  0  0  0  0  0  0  0  0
  -26.3979  -26.6823   21.0284 C   0  0  0  0  0  0  0  0  0  0  0  0
  -22.5206   -8.8981   22.1469 C   0  0  0  0  0  0  0  0  0  0  0  0
  -26.6820  -14.3331   20.8133 C   0  0  0  0  0  0  0  0  0  0  0  0
  -28.2464  -16.2211   21.5172 C   0  0  0  0  0  0  0  0  0  0  0  0
  -28.0782  -25.7446   29.2316 C   0  0  0  0  0  0  0  0  0  0  0  0
  -26.8828  -27.9046   23.0608 C   0  0  0  0  0  0  0  0  0  0  0  0
  -27.8181  -25.5031   27.8691 C   0  0  0  0  0  0  0  0  0  0  0  0
  -25.9523  -27.2839   22.2153 C   0  0  0  0  0  0  0  0  0  0  0  0
  -28.9807  -22.8531   20.2656 C   0  0  0  0  0  0  0  0  0  0  0  0
  -27.3417  -22.5317   22.0112 C   0  0  0  0  0  0  0  0  0  0  0  0
  -25.8932  -11.6622   20.6491 C   0  0  0  0  0  0  0  0  0  0  0  0
  -27.7484  -26.7089   20.6812 C   0  0  0  0  0  0  0  0  0  0  0  0
  -24.1827  -10.0616   20.8352 C   0  0  0  0  0  0  0  0  0  0  0  0
  -21.5104   -9.4658   21.3704 C   0  0  0  0  0  0  0  0  0  0  0  0
  -23.8568   -9.1960   21.8792 C   0  0  0  0  0  0  0  0  0  0  0  0
  -27.6510  -22.8418   20.6869 C   0  0  0  0  0  0  0  0  0  0  0  0
  -27.0893  -15.7126   20.8972 C   0  0  0  0  0  0  0  0  0  0  0  0
  -28.1722  -17.5786   21.3218 C   0  0  0  0  0  0  0  0  0  0  0  0
  -29.2946  -15.5284   22.2079 C   0  0  0  0  0  0  0  0  0  0  0  0
  -25.2441  -26.6867   25.4970 C   0  0  0  0  0  0  0  0  0  0  0  0
  -29.5185  -24.3960   18.5849 C   0  0  0  0  0  0  0  0  0  0  0  0
  -22.7634  -28.2398   24.0984 C   0  0  0  0  0  0  0  0  0  0  0  0
  -21.4090  -29.5760   21.2652 C   0  0  0  0  0  0  0  0  0  0  0  0
  -24.8892  -22.1998   21.6037 C   0  0  0  0  0  0  0  0  0  0  0  0
  -26.9645  -25.8948   30.2374 C   0  0  0  0  0  0  0  0  0  0  0  0
  -26.4303  -28.5787   24.3270 C   0  0  0  0  0  0  0  0  0  0  0  0
  -24.4845  -27.2372   22.5498 C   0  0  0  0  0  0  0  0  0  0  0  0
  -25.6089  -26.1983   29.6044 C   0  0  0  0  0  0  0  0  0  0  0  0
  -25.1387  -20.3609   18.4023 C   0  0  0  0  0  0  0  0  0  0  0  0
  -25.3515  -25.2686   28.4227 C   0  0  0  0  0  0  0  0  0  0  0  0
  -25.6840  -19.0008   18.8339 C   0  0  0  0  0  0  0  0  0  0  0  0
  -24.3169  -21.0181   19.5070 C   0  0  0  0  0  0  0  0  0  0  0  0
  -25.6015  -19.7881   21.2328 C   0  0  0  0  0  0  0  0  0  0  0  0
  -26.4059  -25.4645   27.3267 C   0  0  1  0  0  0  0  0  0  0  0  0
  -25.1045  -28.0364   24.8518 C   0  0  1  0  0  0  0  0  0  0  0  0
  -26.4667  -19.1235   20.1516 C   0  0  1  0  0  0  0  0  0  0  0  0
  -29.8784  -24.6560   17.1412 C   0  0  0  0  0  0  0  0  0  0  0  0
  -19.3521  -30.7434   20.4263 C   0  0  0  0  0  0  0  0  0  0  0  0
  -21.2499  -25.5906   24.1300 C   0  0  0  0  0  0  0  0  0  0  0  0
  -19.6489  -26.5654   22.4702 C   0  0  0  0  0  0  0  0  0  0  0  0
  -19.8708  -27.5872   24.7350 C   0  0  0  0  0  0  0  0  0  0  0  0
  -25.6594  -23.1103   23.7507 C   0  0  0  0  0  0  0  0  0  0  0  0
  -22.9511  -31.9763   20.4784 C   0  0  0  0  0  0  0  0  0  0  0  0
  -29.4934  -25.5990   19.5069 C   0  0  0  0  0  0  0  0  0  1  0  0
  -21.7339  -27.8863   23.0523 C   0  0  1  0  0  0  0  0  0  0  0  0
  -20.7498  -30.9174   20.9996 C   0  0  2  0  0  0  0  0  0  0  0  0
  -20.6538  -26.9064   23.5913 C   0  0  0  0  0  0  0  0  0  0  0  0
  -26.3352  -16.6692   20.3492 N   0  0  0  0  0  0  0  0  0  0  0  0
  -29.2948  -23.1649   18.9347 N   0  0  0  0  0  0  0  0  0  0  0  0
  -27.0199  -17.7924   20.6242 N   0  0  0  0  0  0  0  0  0  0  0  0
  -24.0923  -27.9051   23.8018 N   0  0  0  0  0  0  0  0  0  0  0  0
  -25.0528  -21.0737   20.7711 N   0  0  0  0  0  0  0  0  0  0  0  0
  -28.9808  -18.5984   21.6805 N   0  0  0  0  0  0  0  0  0  0  0  0
  -29.2145  -14.1334   22.3172 N   0  0  0  0  0  0  0  0  0  0  0  0
  -26.1240  -26.6606   26.5622 N   0  0  0  0  0  0  0  0  0  0  0  0
  -21.2004  -29.1520   22.5606 N   0  0  0  0  0  0  0  0  0  0  0  0
  -25.9678  -22.5191   22.4504 N   0  0  0  0  0  0  0  0  0  0  0  0
  -21.5596  -31.7099   20.0315 N   0  3  0  0  0  0  0  0  0  0  0  0
  -30.2648  -16.1302   22.7275 O   0  0  0  0  0  0  0  0  0  0  0  0
  -24.6001  -25.7393   25.0617 O   0  0  0  0  0  0  0  0  0  0  0  0
  -22.4028  -28.7990   25.1371 O   0  0  0  0  0  0  0  0  0  0  0  0
  -22.0421  -28.9636   20.4081 O   0  0  0  0  0  0  0  0  0  0  0  0
  -23.8336  -22.8445   21.6325 O   0  0  0  0  0  0  0  0  0  0  0  0
  -25.5087  -10.3591   20.5687 O   0  0  0  0  0  0  0  0  0  0  0  0
  -28.1661  -26.1228   19.5263 O   0  0  0  0  0  0  0  0  0  1  0  0
  -20.2273   -9.1810   21.6282 F   0  0  0  0  0  0  0  0  0  0  0  0
  -24.8229   -8.6485   22.6294 F   0  0  0  0  0  0  0  0  0  0  0  0
  -26.6714  -23.1302   19.8168 F   0  0  0  0  0  0  0  0  0  0  0  0
  1  2  1  0  0  0  0
  1  6  2  0  0  0  0
  2  7  2  0  0  0  0
  3  9  2  0  0  0  0
  3 10  1  0  0  0  0
  4 11  2  0  0  0  0
  4 18  1  0  0  0  0
  5 12  1  0  0  0  0
  5 18  2  0  0  0  0
  6 20  1  0  0  0  0
  7 22  1  0  0  0  0
  8 13  2  0  0  0  0
  8 21  1  0  0  0  0
  9 24  1  0  0  0  0
 10 25  2  0  0  0  0
 11 26  1  0  0  0  0
 12 26  2  0  0  0  0
 13 27  1  0  0  0  0
 14 15  2  0  0  0  0
 14 28  1  0  0  0  0
 15 29  1  0  0  0  0
 16 23  1  0  0  0  0
 16 27  2  0  0  0  0
 17 29  2  0  0  0  0
 17 30  1  0  0  0  0
 18 32  1  0  0  0  0
 19 32  1  0  0  0  0
 19 33  2  0  0  0  0
 19 34  1  0  0  0  0
 20 22  2  0  0  0  0
 20 40  1  0  0  0  0
 21 23  2  0  0  0  0
 21 41  1  0  0  0  0
 22 49  1  0  0  0  0
 23 42  1  0  0  0  0
 24 31  2  0  0  0  0
 24 64  1  0  0  0  0
 25 31  1  0  0  0  0
 25 72  1  0  0  0  0
 26 79  1  0  0  0  0
 27 80  1  0  0  0  0
 28 30  2  0  0  0  0
 28 79  1  0  0  0  0
 29 81  1  0  0  0  0
 30 82  1  0  0  0  0
 31 83  1  0  0  0  0
 32 63  2  0  0  0  0
 33 65  1  0  0  0  0
 33 68  1  0  0  0  0
 34 69  1  0  0  0  0
 34 74  2  0  0  0  0
 35 50  1  0  0  0  0
 35 70  1  0  0  0  0
 35 75  2  0  0  0  0
 36 52  1  0  0  0  0
 36 59  1  0  0  0  0
 36 64  2  0  0  0  0
 37 60  1  0  0  0  0
 37 66  1  0  0  0  0
 37 76  2  0  0  0  0
 38 61  1  0  0  0  0
 38 71  1  0  0  0  0
 38 77  2  0  0  0  0
 39 67  1  0  0  0  0
 39 72  1  0  0  0  0
 39 78  2  0  0  0  0
 40 43  1  0  0  0  0
 41 50  1  0  0  0  0
 42 66  1  0  0  0  0
 43 45  1  0  0  0  0
 44 46  1  0  0  0  0
 44 47  1  0  0  0  0
 45 49  1  0  0  0  0
 46 51  1  0  0  0  0
 47 67  1  0  0  0  0
 48 51  1  0  0  0  0
 48 67  1  0  0  0  0
 49 70  1  0  0  0  0
 50 66  1  0  0  0  0
 51 65  1  0  0  0  0
 53 61  1  0  0  0  0
 54 62  1  0  0  0  0
 55 62  1  0  0  0  0
 56 62  1  0  0  0  0
 57 72  1  0  0  0  0
 58 73  1  0  0  0  0
 59 80  1  0  0  0  0
 60 62  1  0  0  0  0
 60 71  1  0  0  0  0
 61 73  1  0  0  0  0
 63 65  1  0  0  0  0
M  CHG  1  73   1
M  ISO  4  39 100  59 101  72 100  80 101
M  END
> <Batch ID>
0023

> <Smiles>
C=C(Nc1cccc([100N:0](C)[100C:0](=O)N2CCCC(n3nc(-c4ccc(Oc5ccc(F)cc5F)cc4)c(C(N)=O)c3N)C2)c1F)[101CH2:1][101O:1]c1ccc2c(c1)CN(C(=O)C(NC(=O)C(C)NC)C(C)(C)C)C(C(=O)NC1CCCc3ccccc31)C2

> <Shape>
0.205

> <Color>
0.069

> <Negative vol penalty>
0.000

$$$$

  -OEChem-04042321173D

 86 95  0     1  0  0  0  0  0999 V2000
  -33.0124  -24.4980   17.5070 C   0  0  0  0  0  0  0  0  0  0  0  0
  -32.1370  -25.2643   16.7442 C   0  0  0  0  0  0  0  0  0  0  0  0
  -27.3755  -14.7131   21.2213 C   0  0  0  0  0  0  0  0  0  0  0  0
  -25.3124  -14.8658   19.9733 C   0  0  0  0  0  0  0  0  0  0  0  0
  -32.5570  -23.8646   18.6625 C   0  0  0  0  0  0  0  0  0  0  0  0
  -30.8054  -25.3968   17.1360 C   0  0  0  0  0  0  0  0  0  0  0  0
  -24.1038  -29.5137   18.3675 C   0  0  0  0  0  0  0  0  0  0  0  0
  -21.9160  -23.7392   21.0651 C   0  0  0  0  0  0  0  0  0  0  0  0
  -23.0875  -23.6014   21.8095 C   0  0  0  0  0  0  0  0  0  0  0  0
  -27.2811  -13.3215   21.2069 C   0  0  0  0  0  0  0  0  0  0  0  0
  -25.2181  -13.4742   19.9589 C   0  0  0  0  0  0  0  0  0  0  0  0
  -22.7517  -29.3204   18.6471 C   0  0  0  0  0  0  0  0  0  0  0  0
  -24.2749  -11.0190   22.0833 C   0  0  0  0  0  0  0  0  0  0  0  0
  -23.0350  -10.4504   22.3749 C   0  0  0  0  0  0  0  0  0  0  0  0
  -23.3415  -28.2355   20.7194 C   0  0  0  0  0  0  0  0  0  0  0  0
  -20.8285  -24.7600   22.9657 C   0  0  0  0  0  0  0  0  0  0  0  0
  -23.0033   -9.4029   20.1980 C   0  0  0  0  0  0  0  0  0  0  0  0
  -26.3910  -15.4853   20.6046 C   0  0  0  0  0  0  0  0  0  0  0  0
  -27.5252  -17.7107   20.0864 C   0  0  0  0  0  0  0  0  0  0  0  0
  -31.2214  -23.9973   19.0739 C   0  0  0  0  0  0  0  0  0  0  0  0
  -25.0869  -29.0589   19.2581 C   0  0  0  0  0  0  0  0  0  0  0  0
  -30.3313  -24.7635   18.2974 C   0  0  0  0  0  0  0  0  0  0  0  0
  -24.7053  -28.4266   20.4500 C   0  0  0  0  0  0  0  0  0  0  0  0
  -20.7865  -24.3186   21.6432 C   0  0  0  0  0  0  0  0  0  0  0  0
  -23.1295  -24.0428   23.1320 C   0  0  0  0  0  0  0  0  0  0  0  0
  -26.2025  -12.7021   20.5757 C   0  0  0  0  0  0  0  0  0  0  0  0
  -22.3704  -28.6786   19.8217 C   0  0  0  0  0  0  0  0  0  0  0  0
  -24.8789  -10.7796   20.8490 C   0  0  0  0  0  0  0  0  0  0  0  0
  -22.3992   -9.6424   21.4323 C   0  0  0  0  0  0  0  0  0  0  0  0
  -22.0000  -24.6222   23.7101 C   0  0  0  0  0  0  0  0  0  0  0  0
  -24.2432   -9.9716   19.9064 C   0  0  0  0  0  0  0  0  0  0  0  0
  -26.4876  -16.9228   20.6196 C   0  0  0  0  0  0  0  0  0  0  0  0
  -27.1475  -19.0036   20.3552 C   0  0  0  0  0  0  0  0  0  0  0  0
  -18.9164  -25.6221   20.5639 C   0  0  0  0  0  0  0  0  0  0  0  0
  -19.3377  -26.8926   20.4880 C   0  0  0  0  0  0  0  0  0  0  0  0
  -28.7234  -17.3098   19.4087 C   0  0  0  0  0  0  0  0  0  0  0  0
  -27.4664  -26.9580   19.0905 C   0  0  0  0  0  0  0  0  0  0  0  0
  -28.1675  -28.1041   22.0430 C   0  0  0  0  0  0  0  0  0  0  0  0
  -26.3361  -29.0455   25.0056 C   0  0  0  0  0  0  0  0  0  0  0  0
  -25.2444  -22.8398   23.6531 C   0  0  0  0  0  0  0  0  0  0  0  0
  -30.7638  -23.2552   20.3046 C   0  0  0  0  0  0  0  0  0  0  0  0
  -26.5404  -29.2990   18.9546 C   0  0  0  0  0  0  0  0  0  0  0  0
  -25.7212  -27.9377   21.4487 C   0  0  0  0  0  0  0  0  0  0  0  0
  -17.5121  -25.2433   20.1565 C   0  0  0  0  0  0  0  0  0  0  0  0
  -29.4291  -23.7519   20.8542 C   0  0  0  0  0  0  0  0  0  0  0  0
  -17.6835  -23.7950   19.7098 C   0  0  0  0  0  0  0  0  0  0  0  0
  -22.7654  -20.8853   22.0167 C   0  0  0  0  0  0  0  0  0  0  0  0
  -28.4139  -23.9118   19.7270 C   0  0  0  0  0  0  0  0  0  0  0  0
  -23.6026  -19.7302   21.4687 C   0  0  0  0  0  0  0  0  0  0  0  0
  -18.8255  -23.2544   20.5742 C   0  0  0  0  0  0  0  0  0  0  0  0
  -23.2216  -21.3111   23.4126 C   0  0  0  0  0  0  0  0  0  0  0  0
  -25.5038  -20.4709   22.9546 C   0  0  0  0  0  0  0  0  0  0  0  0
  -28.8856  -24.9514   18.7031 C   0  0  1  0  0  0  0  0  0  0  0  0
  -27.4706  -28.3370   19.6873 C   0  0  1  0  0  0  0  0  0  0  0  0
  -25.1046  -20.0597   21.5288 C   0  0  1  0  0  0  0  0  0  0  0  0
  -26.9031  -30.6795   26.8239 C   0  0  0  0  0  0  0  0  0  0  0  0
  -29.2977  -25.6641   23.4850 C   0  0  0  0  0  0  0  0  0  0  0  0
  -28.4023  -26.6019   25.6267 C   0  0  0  0  0  0  0  0  0  0  0  0
  -30.1306  -27.8610   24.3420 C   0  0  0  0  0  0  0  0  0  0  0  0
  -24.7526  -25.0009   24.7769 C   0  0  0  0  0  0  0  0  0  0  0  0
  -23.8031  -30.5276   24.6232 C   0  0  0  0  0  0  0  0  0  0  0  0
  -20.7088  -27.3403   20.8725 C   0  0  0  0  0  0  0  0  0  1  0  0
  -27.7668  -27.7429   23.4530 C   0  0  1  0  0  0  0  0  0  0  0  0
  -26.1268  -30.4524   25.5360 C   0  0  2  0  0  0  0  0  0  0  0  0
  -28.8820  -26.9627   24.2046 C   0  0  0  0  0  0  0  0  0  0  0  0
  -25.5231  -17.6540   21.1846 N   0  0  0  0  0  0  0  0  0  0  0  0
  -25.9532  -18.9149   21.0080 N   0  0  0  0  0  0  0  0  0  0  0  0
  -19.6035  -24.4584   20.8911 N   0  0  0  0  0  0  0  0  0  0  0  0
  -27.1300  -28.1902   21.1039 N   0  0  0  0  0  0  0  0  0  0  0  0
  -24.6673  -21.5754   23.4303 N   0  0  0  0  0  0  0  0  0  0  0  0
  -27.7237  -20.1963   20.0946 N   0  0  0  0  0  0  0  0  0  0  0  0
  -28.6887  -17.1741   18.0142 N   0  0  0  0  0  0  0  0  0  0  0  0
  -28.6709  -26.2909   19.2072 N   0  0  0  0  0  0  0  0  0  0  0  0
  -27.3723  -28.9908   24.0976 N   0  0  0  0  0  0  0  0  0  0  0  0
  -24.3438  -23.8982   23.9001 N   0  0  0  0  0  0  0  0  0  0  0  0
  -24.6818  -30.6933   25.8095 N   0  3  0  0  0  0  0  0  0  0  0  0
  -29.7887  -17.0629   20.0232 O   0  0  0  0  0  0  0  0  0  0  0  0
  -26.4455  -26.5304   18.5646 O   0  0  0  0  0  0  0  0  0  0  0  0
  -29.3564  -28.3095   21.7861 O   0  0  0  0  0  0  0  0  0  0  0  0
  -25.6514  -28.0898   25.3641 O   0  0  0  0  0  0  0  0  0  0  0  0
  -26.4701  -23.0056   23.6572 O   0  0  0  0  0  0  0  0  0  0  0  0
  -26.1103  -11.3442   20.5612 O   0  0  0  0  0  0  0  0  0  0  0  0
  -21.0514  -28.4881   20.0968 O   0  0  0  0  0  0  0  0  0  1  0  0
  -21.2093   -9.0952   21.7131 F   0  0  0  0  0  0  0  0  0  0  0  0
  -22.0291  -25.0495   24.9805 F   0  0  0  0  0  0  0  0  0  0  0  0
  -24.8192   -9.7370   18.7193 F   0  0  0  0  0  0  0  0  0  0  0  0
  1  2  1  0  0  0  0
  1  5  2  0  0  0  0
  2  6  2  0  0  0  0
  3 10  2  0  0  0  0
  3 18  1  0  0  0  0
  4 11  1  0  0  0  0
  4 18  2  0  0  0  0
  5 20  1  0  0  0  0
  6 22  1  0  0  0  0
  7 12  2  0  0  0  0
  7 21  1  0  0  0  0
  8  9  2  0  0  0  0
  8 24  1  0  0  0  0
  9 25  1  0  0  0  0
 10 26  1  0  0  0  0
 11 26  2  0  0  0  0
 12 27  1  0  0  0  0
 13 14  2  0  0  0  0
 13 28  1  0  0  0  0
 14 29  1  0  0  0  0
 15 23  1  0  0  0  0
 15 27  2  0  0  0  0
 16 24  2  0  0  0  0
 16 30  1  0  0  0  0
 17 29  2  0  0  0  0
 17 31  1  0  0  0  0
 18 32  1  0  0  0  0
 19 32  1  0  0  0  0
 19 33  2  0  0  0  0
 19 36  1  0  0  0  0
 20 22  2  0  0  0  0
 20 41  1  0  0  0  0
 21 23  2  0  0  0  0
 21 42  1  0  0  0  0
 22 53  1  0  0  0  0
 23 43  1  0  0  0  0
 24 68  1  0  0  0  0
 25 30  2  0  0  0  0
 25 75  1  0  0  0  0
 26 82  1  0  0  0  0
 27 83  1  0  0  0  0
 28 31  2  0  0  0  0
 28 82  1  0  0  0  0
 29 84  1  0  0  0  0
 30 85  1  0  0  0  0
 31 86  1  0  0  0  0
 32 66  2  0  0  0  0
 33 67  1  0  0  0  0
 33 71  1  0  0  0  0
 34 35  2  0  0  0  0
 34 44  1  0  0  0  0
 34 68  1  0  0  0  0
 35 62  1  0  0  0  0
 36 72  1  0  0  0  0
 36 77  2  0  0  0  0
 37 54  1  0  0  0  0
 37 73  1  0  0  0  0
 37 78  2  0  0  0  0
 38 63  1  0  0  0  0
 38 69  1  0  0  0  0
 38 79  2  0  0  0  0
 39 64  1  0  0  0  0
 39 74  1  0  0  0  0
 39 80  2  0  0  0  0
 40 70  1  0  0  0  0
 40 75  1  0  0  0  0
 40 81  2  0  0  0  0
 41 45  1  0  0  0  0
 42 54  1  0  0  0  0
 43 69  1  0  0  0  0
 44 46  1  0  0  0  0
 45 48  1  0  0  0  0
 46 50  1  0  0  0  0
 47 49  1  0  0  0  0
 47 51  1  0  0  0  0
 48 53  1  0  0  0  0
 49 55  1  0  0  0  0
 50 68  1  0  0  0  0
 51 70  1  0  0  0  0
 52 55  1  0  0  0  0
 52 70  1  0  0  0  0
 53 73  1  0  0  0  0
 54 69  1  0  0  0  0
 55 67  1  0  0  0  0
 56 64  1  0  0  0  0
 57 65  1  0  0  0  0
 58 65  1  0  0  0  0
 59 65  1  0  0  0  0
 60 75  1  0  0  0  0
 61 76  1  0  0  0  0
 62 83  1  0  0  0  0
 63 65  1  0  0  0  0
 63 74  1  0  0  0  0
 64 76  1  0  0  0  0
 66 67  1  0  0  0  0
M  CHG  1  76   1
M  ISO  4  40 100  62 101  75 100  83 101
M  END
> <Batch ID>
0023

> <Smiles>
CNC(C)C(=O)NC(C(=O)N1Cc2cc([101O:1][101CH2:1]C=C3CCCN3c3ccc([100N:0](C)[100C:0](=O)N4CCCC(n5nc(-c6ccc(Oc7ccc(F)cc7F)cc6)c(C(N)=O)c5N)C4)c(F)c3)ccc2CC1C(=O)NC1CCCc2ccccc21)C(C)(C)C

> <Shape>
0.222

> <Color>
0.053

> <Negative vol penalty>
0.000

$$$$

  -OEChem-04042321173D

 84 92  0     1  0  0  0  0  0999 V2000
  -17.2895  -12.4252   21.5979 C   0  0  0  0  0  0  0  0  0  0  0  0
  -18.0480  -13.5622   21.3384 C   0  0  0  0  0  0  0  0  0  0  0  0
  -25.6281  -31.7095   20.6227 C   0  0  0  0  0  0  0  0  0  0  0  0
  -24.3798  -30.2998   22.1366 C   0  0  0  0  0  0  0  0  0  0  0  0
  -17.8414  -11.3714   22.3250 C   0  0  0  0  0  0  0  0  0  0  0  0
  -19.3586  -13.6465   21.8070 C   0  0  0  0  0  0  0  0  0  0  0  0
  -24.0875  -16.3857   19.0428 C   0  0  0  0  0  0  0  0  0  0  0  0
  -25.0122  -32.8374   21.1652 C   0  0  0  0  0  0  0  0  0  0  0  0
  -23.7640  -31.4277   22.6791 C   0  0  0  0  0  0  0  0  0  0  0  0
  -24.6769  -17.6376   19.2136 C   0  0  0  0  0  0  0  0  0  0  0  0
  -24.0363  -36.1152   22.3976 C   0  0  0  0  0  0  0  0  0  0  0  0
  -24.8415  -37.2157   22.6910 C   0  0  0  0  0  0  0  0  0  0  0  0
  -26.3313  -16.6537   20.6676 C   0  0  0  0  0  0  0  0  0  0  0  0
  -29.3924  -23.0131   18.4745 C   0  0  0  0  0  0  0  0  0  0  0  0
  -30.0126  -24.8649   17.0520 C   0  0  0  0  0  0  0  0  0  0  0  0
  -26.1324  -35.8633   24.2213 C   0  0  0  0  0  0  0  0  0  0  0  0
  -25.3118  -30.4407   21.1084 C   0  0  0  0  0  0  0  0  0  0  0  0
  -27.1455  -28.6723   20.9749 C   0  0  0  0  0  0  0  0  0  0  0  0
  -19.1627  -11.4387   22.7944 C   0  0  0  0  0  0  0  0  0  0  0  0
  -24.6099  -15.2584   19.6930 C   0  0  0  0  0  0  0  0  0  0  0  0
  -19.9283  -12.5931   22.5422 C   0  0  0  0  0  0  0  0  0  0  0  0
  -25.7482  -15.3882   20.5014 C   0  0  0  0  0  0  0  0  0  0  0  0
  -28.2386  -22.8167   17.7157 C   0  0  0  0  0  0  0  0  0  0  0  0
  -28.8589  -24.6684   16.2932 C   0  0  0  0  0  0  0  0  0  0  0  0
  -24.0803  -32.6965   22.1934 C   0  0  0  0  0  0  0  0  0  0  0  0
  -25.7972  -17.7723   20.0283 C   0  0  0  0  0  0  0  0  0  0  0  0
  -24.2791  -34.8887   23.0161 C   0  0  0  0  0  0  0  0  0  0  0  0
  -25.8895  -37.0898   23.6028 C   0  0  0  0  0  0  0  0  0  0  0  0
  -30.2794  -24.0373   18.1427 C   0  0  0  0  0  0  0  0  0  0  0  0
  -25.3271  -34.7628   23.9279 C   0  0  0  0  0  0  0  0  0  0  0  0
  -27.9719  -23.6442   16.6250 C   0  0  0  0  0  0  0  0  0  0  0  0
  -25.9472  -29.2752   20.5480 C   0  0  0  0  0  0  0  0  0  0  0  0
  -27.3158  -27.6071   20.1247 C   0  0  0  0  0  0  0  0  0  0  0  0
  -28.0260  -29.0420   22.0444 C   0  0  0  0  0  0  0  0  0  0  0  0
  -23.5066  -13.2007   21.8499 C   0  0  0  0  0  0  0  0  0  0  0  0
  -26.3139  -11.6837   21.2665 C   0  0  0  0  0  0  0  0  0  0  0  0
  -27.4531  -20.8682   19.1016 C   0  0  0  0  0  0  0  0  0  0  0  0
  -29.5440  -11.8827   20.1831 C   0  0  0  0  0  0  0  0  0  0  0  0
  -27.2859  -25.8414   14.7308 C   0  0  0  0  0  0  0  0  0  0  0  0
  -19.7002  -10.2943   23.6166 C   0  0  0  0  0  0  0  0  0  0  0  0
  -23.9786  -13.9103   19.4772 C   0  0  0  0  0  0  0  0  0  0  0  0
  -26.3599  -14.2056   21.2054 C   0  0  0  0  0  0  0  0  0  0  0  0
  -21.2203  -10.3057   23.7560 C   0  0  0  0  0  0  0  0  0  0  0  0
  -24.2035  -25.5097   16.7512 C   0  0  0  0  0  0  0  0  0  0  0  0
  -21.7131  -11.7042   24.1139 C   0  0  0  0  0  0  0  0  0  0  0  0
  -24.4504  -26.4763   17.9079 C   0  0  0  0  0  0  0  0  0  0  0  0
  -24.9315  -25.9459   15.4833 C   0  0  0  0  0  0  0  0  0  0  0  0
  -26.6479  -27.1133   16.8371 C   0  0  0  0  0  0  0  0  0  0  0  0
  -21.3619  -12.7116   23.0124 C   0  0  1  0  0  0  0  0  0  0  0  0
  -24.2863  -12.9204   20.5964 C   0  0  1  0  0  0  0  0  0  0  0  0
  -25.9579  -26.6741   18.1372 C   0  0  1  0  0  0  0  0  0  0  0  0
  -31.6024  -10.4846   19.8581 C   0  0  0  0  0  0  0  0  0  0  0  0
  -26.8295  -11.7482   24.2732 C   0  0  0  0  0  0  0  0  0  0  0  0
  -29.2335  -11.2319   23.8016 C   0  0  0  0  0  0  0  0  0  0  0  0
  -27.4593   -9.6030   23.1525 C   0  0  0  0  0  0  0  0  0  0  0  0
  -29.7007  -25.8709   14.2842 C   0  0  0  0  0  0  0  0  0  0  0  0
  -29.5712  -12.3929   17.2680 C   0  0  0  0  0  0  0  0  0  0  0  0
  -26.2725  -19.9151   19.1127 C   0  0  0  0  0  0  0  0  0  1  0  0
  -27.7067  -11.7526   21.8449 C   0  0  1  0  0  0  0  0  0  0  0  0
  -30.3357  -11.0247   19.2128 C   0  0  2  0  0  0  0  0  0  0  0  0
  -27.7948  -11.1067   23.2565 C   0  0  0  0  0  0  0  0  0  0  0  0
  -25.3953  -28.6455   19.5073 N   0  0  0  0  0  0  0  0  0  0  0  0
  -26.2508  -27.6358   19.2732 N   0  0  0  0  0  0  0  0  0  0  0  0
  -25.7027  -12.9097   20.9680 N   0  0  0  0  0  0  0  0  0  0  0  0
  -26.3538  -26.1884   15.7302 N   0  0  0  0  0  0  0  0  0  0  0  0
  -28.2712  -26.6581   20.0298 N   0  0  0  0  0  0  0  0  0  0  0  0
  -27.7012  -30.1634   22.8198 N   0  0  0  0  0  0  0  0  0  0  0  0
  -27.3408  -21.7767   18.0546 N   0  0  0  0  0  0  0  0  0  0  0  0
  -22.2736  -12.5786   21.8964 N   0  0  0  0  0  0  0  0  0  0  0  0
  -28.5904  -11.1472   20.8545 N   0  0  0  0  0  0  0  0  0  0  0  0
  -28.5874  -25.5259   15.1655 N   0  0  0  0  0  0  0  0  0  0  0  0
  -30.7217  -11.8206   18.0135 N   0  3  0  0  0  0  0  0  0  0  0  0
  -29.0783  -28.4066   22.2944 O   0  0  0  0  0  0  0  0  0  0  0  0
  -23.9887  -13.9264   22.7117 O   0  0  0  0  0  0  0  0  0  0  0  0
  -25.7905  -10.5825   21.0797 O   0  0  0  0  0  0  0  0  0  0  0  0
  -28.3501  -20.7898   19.9346 O   0  0  0  0  0  0  0  0  0  0  0  0
  -29.7533  -13.0844   20.3333 O   0  0  0  0  0  0  0  0  0  0  0  0
  -26.9953  -25.8647   13.5284 O   0  0  0  0  0  0  0  0  0  0  0  0
  -23.4793  -33.7968   22.7232 O   0  0  0  0  0  0  0  0  0  0  0  0
  -26.3740  -18.9932   20.1972 O   0  0  0  0  0  0  0  0  0  1  0  0
  -26.6636  -38.1464   23.8833 F   0  0  0  0  0  0  0  0  0  0  0  0
  -31.3876  -24.2258   18.8712 F   0  0  0  0  0  0  0  0  0  0  0  0
  -25.5660  -33.5868   24.5244 F   0  0  0  0  0  0  0  0  0  0  0  0
  -26.8625  -23.4546   15.8938 F   0  0  0  0  0  0  0  0  0  0  0  0
  1  2  1  0  0  0  0
  1  5  2  0  0  0  0
  2  6  2  0  0  0  0
  3  8  2  0  0  0  0
  3 17  1  0  0  0  0
  4  9  1  0  0  0  0
  4 17  2  0  0  0  0
  5 19  1  0  0  0  0
  6 21  1  0  0  0  0
  7 10  2  0  0  0  0
  7 20  1  0  0  0  0
  8 25  1  0  0  0  0
  9 25  2  0  0  0  0
 10 26  1  0  0  0  0
 11 12  2  0  0  0  0
 11 27  1  0  0  0  0
 12 28  1  0  0  0  0
 13 22  1  0  0  0  0
 13 26  2  0  0  0  0
 14 23  1  0  0  0  0
 14 29  2  0  0  0  0
 15 24  2  0  0  0  0
 15 29  1  0  0  0  0
 16 28  2  0  0  0  0
 16 30  1  0  0  0  0
 17 32  1  0  0  0  0
 18 32  1  0  0  0  0
 18 33  2  0  0  0  0
 18 34  1  0  0  0  0
 19 21  2  0  0  0  0
 19 40  1  0  0  0  0
 20 22  2  0  0  0  0
 20 41  1  0  0  0  0
 21 49  1  0  0  0  0
 22 42  1  0  0  0  0
 23 31  2  0  0  0  0
 23 68  1  0  0  0  0
 24 31  1  0  0  0  0
 24 71  1  0  0  0  0
 25 79  1  0  0  0  0
 26 80  1  0  0  0  0
 27 30  2  0  0  0  0
 27 79  1  0  0  0  0
 28 81  1  0  0  0  0
 29 82  1  0  0  0  0
 30 83  1  0  0  0  0
 31 84  1  0  0  0  0
 32 62  2  0  0  0  0
 33 63  1  0  0  0  0
 33 66  1  0  0  0  0
 34 67  1  0  0  0  0
 34 73  2  0  0  0  0
 35 50  1  0  0  0  0
 35 69  1  0  0  0  0
 35 74  2  0  0  0  0
 36 59  1  0  0  0  0
 36 64  1  0  0  0  0
 36 75  2  0  0  0  0
 37 58  1  0  0  0  0
 37 68  1  0  0  0  0
 37 76  2  0  0  0  0
 38 60  1  0  0  0  0
 38 70  1  0  0  0  0
 38 77  2  0  0  0  0
 39 65  1  0  0  0  0
 39 71  1  0  0  0  0
 39 78  2  0  0  0  0
 40 43  1  0  0  0  0
 41 50  1  0  0  0  0
 42 64  1  0  0  0  0
 43 45  1  0  0  0  0
 44 46  1  0  0  0  0
 44 47  1  0  0  0  0
 45 49  1  0  0  0  0
 46 51  1  0  0  0  0
 47 65  1  0  0  0  0
 48 51  1  0  0  0  0
 48 65  1  0  0  0  0
 49 69  1  0  0  0  0
 50 64  1  0  0  0  0
 51 63  1  0  0  0  0
 52 60  1  0  0  0  0
 53 61  1  0  0  0  0
 54 61  1  0  0  0  0
 55 61  1  0  0  0  0
 56 71  1  0  0  0  0
 57 72  1  0  0  0  0
 58 80  1  0  0  0  0
 59 61  1  0  0  0  0
 59 70  1  0  0  0  0
 60 72  1  0  0  0  0
 62 63  1  0  0  0  0
M  CHG  1  72   1
M  ISO  4  39 100  58 101  71 100  80 101
M  END
> <Batch ID>
0023

> <Smiles>
CNC(C)C(=O)NC(C(=O)N1Cc2cc([101O:1][101CH2:1]C(=O)Nc3cc(F)cc([100N:0](C)[100C:0](=O)N4CCCC(n5nc(-c6ccc(Oc7ccc(F)cc7F)cc6)c(C(N)=O)c5N)C4)c3F)ccc2CC1C(=O)NC1CCCc2ccccc21)C(C)(C)C

> <Shape>
0.256

> <Color>
0.068

> <Negative vol penalty>
0.000

$$$$

  -OEChem-04042321173D

 86 95  0     1  0  0  0  0  0999 V2000
  -26.9664  -23.3286   14.5367 C   0  0  0  0  0  0  0  0  0  0  0  0
  -26.0983  -23.6643   15.5706 C   0  0  0  0  0  0  0  0  0  0  0  0
  -28.0829  -15.0480   21.2146 C   0  0  0  0  0  0  0  0  0  0  0  0
  -26.0493  -15.8348   20.1740 C   0  0  0  0  0  0  0  0  0  0  0  0
  -28.3436  -23.4497   14.7172 C   0  0  0  0  0  0  0  0  0  0  0  0
  -26.6070  -24.1203   16.7862 C   0  0  0  0  0  0  0  0  0  0  0  0
  -24.0995  -28.1501   18.5521 C   0  0  0  0  0  0  0  0  0  0  0  0
  -22.0931  -24.5297   24.1987 C   0  0  0  0  0  0  0  0  0  0  0  0
  -23.3931  -24.0309   24.1162 C   0  0  0  0  0  0  0  0  0  0  0  0
  -27.5605  -13.7555   21.2582 C   0  0  0  0  0  0  0  0  0  0  0  0
  -25.5269  -14.5422   20.2176 C   0  0  0  0  0  0  0  0  0  0  0  0
  -22.8684  -27.9164   19.1632 C   0  0  0  0  0  0  0  0  0  0  0  0
  -27.1225  -11.1723   19.1208 C   0  0  0  0  0  0  0  0  0  0  0  0
  -27.9538  -10.1236   18.7275 C   0  0  0  0  0  0  0  0  0  0  0  0
  -23.9182  -28.0838   21.3286 C   0  0  0  0  0  0  0  0  0  0  0  0
  -27.7367   -9.1296   20.9189 C   0  0  0  0  0  0  0  0  0  0  0  0
  -27.3272  -16.0877   20.6725 C   0  0  0  0  0  0  0  0  0  0  0  0
  -28.6208  -18.0011   19.5892 C   0  0  0  0  0  0  0  0  0  0  0  0
  -28.8690  -23.9166   15.9323 C   0  0  0  0  0  0  0  0  0  0  0  0
  -25.2532  -28.3419   19.3258 C   0  0  0  0  0  0  0  0  0  0  0  0
  -27.9925  -24.2466   16.9837 C   0  0  0  0  0  0  0  0  0  0  0  0
  -25.1623  -28.3223   20.7249 C   0  0  0  0  0  0  0  0  0  0  0  0
  -21.2016  -24.3309   23.1445 C   0  0  0  0  0  0  0  0  0  0  0  0
  -21.6101  -23.6335   22.0077 C   0  0  0  0  0  0  0  0  0  0  0  0
  -23.8016  -23.3334   22.9794 C   0  0  0  0  0  0  0  0  0  0  0  0
  -26.2825  -13.5025   20.7597 C   0  0  0  0  0  0  0  0  0  0  0  0
  -22.7781  -27.8803   20.5516 C   0  0  0  0  0  0  0  0  0  0  0  0
  -26.5984  -11.1998   20.4132 C   0  0  0  0  0  0  0  0  0  0  0  0
  -28.2609   -9.1022   19.6265 C   0  0  0  0  0  0  0  0  0  0  0  0
  -26.9054  -10.1784   21.3122 C   0  0  0  0  0  0  0  0  0  0  0  0
  -22.9102  -23.1347   21.9252 C   0  0  0  0  0  0  0  0  0  0  0  0
  -27.8661  -17.4233   20.6277 C   0  0  0  0  0  0  0  0  0  0  0  0
  -28.8885  -19.2750   20.0271 C   0  0  0  0  0  0  0  0  0  0  0  0
  -29.0420  -17.4367   18.3403 C   0  0  0  0  0  0  0  0  0  0  0  0
  -28.0219  -26.8128   19.6420 C   0  0  0  0  0  0  0  0  0  0  0  0
  -28.7586  -29.3445   21.5314 C   0  0  0  0  0  0  0  0  0  0  0  0
  -27.6613  -31.8946   23.5162 C   0  0  0  0  0  0  0  0  0  0  0  0
  -26.1300  -22.9394   23.8569 C   0  0  0  0  0  0  0  0  0  0  0  0
  -30.3666  -23.9859   16.0968 C   0  0  0  0  0  0  0  0  0  0  0  0
  -26.5688  -28.6195   18.6517 C   0  0  0  0  0  0  0  0  0  0  0  0
  -26.3675  -28.5424   21.6010 C   0  0  0  0  0  0  0  0  0  0  0  0
  -30.8102  -24.8327   17.2870 C   0  0  0  0  0  0  0  0  0  0  0  0
  -29.4982  -21.8015   24.0495 C   0  0  0  0  0  0  0  0  0  0  0  0
  -17.8205  -27.7169   22.6649 C   0  0  0  0  0  0  0  0  0  0  0  0
  -29.9950  -24.4793   18.5269 C   0  0  0  0  0  0  0  0  0  0  0  0
  -29.5321  -20.6059   23.0947 C   0  0  0  0  0  0  0  0  0  0  0  0
  -19.1491  -28.4437   22.6001 C   0  0  0  0  0  0  0  0  0  0  0  0
  -28.1725  -21.8875   24.8038 C   0  0  0  0  0  0  0  0  0  0  0  0
  -27.0077  -20.6783   23.0009 C   0  0  0  0  0  0  0  0  0  0  0  0
  -18.1298  -26.3520   22.0808 C   0  0  0  0  0  0  0  0  0  0  0  0
  -28.5050  -24.7685   18.3085 C   0  0  1  0  0  0  0  0  0  0  0  0
  -27.7717  -28.2902   19.5305 C   0  0  1  0  0  0  0  0  0  0  0  0
  -28.2985  -20.5873   22.1709 C   0  0  2  0  0  0  0  0  0  0  0  0
  -20.1372  -27.3768   23.0478 C   0  0  2  0  0  0  0  0  0  0  0  0
  -20.6699  -23.4102   20.8688 C   0  0  0  0  0  0  0  0  0  0  0  0
  -28.5000  -33.7726   24.9541 C   0  0  0  0  0  0  0  0  0  0  0  0
  -29.4927  -27.3424   23.7138 C   0  0  0  0  0  0  0  0  0  0  0  0
  -29.3979  -29.2181   25.3694 C   0  0  0  0  0  0  0  0  0  0  0  0
  -31.0578  -29.2822   23.5084 C   0  0  0  0  0  0  0  0  0  0  0  0
  -26.3163  -33.9314   21.8424 C   0  0  0  0  0  0  0  0  0  0  0  0
  -19.8087  -24.8772   23.2565 C   0  0  0  0  0  0  0  0  0  0  0  0
  -21.5579  -27.6281   22.5773 C   0  0  0  0  0  0  0  0  0  1  0  0
  -28.6104  -29.6615   22.9999 C   0  0  1  0  0  0  0  0  0  0  0  0
  -28.0344  -33.3653   23.5648 C   0  0  2  0  0  0  0  0  0  0  0  0
  -29.6171  -28.8699   23.8816 C   0  0  0  0  0  0  0  0  0  0  0  0
  -27.6674  -18.2614   21.6485 N   0  0  0  0  0  0  0  0  0  0  0  0
  -28.3012  -19.3787   21.2537 N   0  0  0  0  0  0  0  0  0  0  0  0
  -27.6325  -28.8038   20.8947 N   0  0  0  0  0  0  0  0  0  0  0  0
  -27.0494  -21.8692   23.8641 N   0  0  0  0  0  0  0  0  0  0  0  0
  -29.5669  -20.3054   19.4789 N   0  0  0  0  0  0  0  0  0  0  0  0
  -28.6804  -16.1143   18.0489 N   0  0  0  0  0  0  0  0  0  0  0  0
  -25.1230  -22.8281   22.8987 N   0  0  0  0  0  0  0  0  0  0  0  0
  -28.2423  -26.1865   18.4301 N   0  0  0  0  0  0  0  0  0  0  0  0
  -28.7238  -31.1111   23.1181 N   0  0  0  0  0  0  0  0  0  0  0  0
  -19.5894  -26.1017   22.4213 N   0  3  1  0  0  0  0  0  0  0  0  0
  -26.8629  -34.2093   23.1956 N   0  3  0  0  0  0  0  0  0  0  0  0
  -29.7329  -18.0804   17.5146 O   0  0  0  0  0  0  0  0  0  0  0  0
  -28.0168  -26.2808   20.7459 O   0  0  0  0  0  0  0  0  0  0  0  0
  -29.8317  -29.5750   20.9683 O   0  0  0  0  0  0  0  0  0  0  0  0
  -26.5406  -31.4818   23.8063 O   0  0  0  0  0  0  0  0  0  0  0  0
  -26.2444  -23.8983   24.6247 O   0  0  0  0  0  0  0  0  0  0  0  0
  -25.7726  -12.2412   20.8019 O   0  0  0  0  0  0  0  0  0  0  0  0
  -21.5778  -27.6518   21.1506 O   0  0  0  0  0  0  0  0  0  1  0  0
  -29.0579   -8.0944   19.2482 F   0  0  0  0  0  0  0  0  0  0  0  0
  -26.4039  -10.1988   22.5548 F   0  0  0  0  0  0  0  0  0  0  0  0
  -23.3021  -22.4641   20.8311 F   0  0  0  0  0  0  0  0  0  0  0  0
  1  2  1  0  0  0  0
  1  5  2  0  0  0  0
  2  6  2  0  0  0  0
  3 10  2  0  0  0  0
  3 17  1  0  0  0  0
  4 11  1  0  0  0  0
  4 17  2  0  0  0  0
  5 19  1  0  0  0  0
  6 21  1  0  0  0  0
  7 12  2  0  0  0  0
  7 20  1  0  0  0  0
  8  9  2  0  0  0  0
  8 23  1  0  0  0  0
  9 25  1  0  0  0  0
 10 26  1  0  0  0  0
 11 26  2  0  0  0  0
 12 27  1  0  0  0  0
 13 14  2  0  0  0  0
 13 28  1  0  0  0  0
 14 29  1  0  0  0  0
 15 22  1  0  0  0  0
 15 27  2  0  0  0  0
 16 29  2  0  0  0  0
 16 30  1  0  0  0  0
 17 32  1  0  0  0  0
 18 32  1  0  0  0  0
 18 33  2  0  0  0  0
 18 34  1  0  0  0  0
 19 21  2  0  0  0  0
 19 39  1  0  0  0  0
 20 22  2  0  0  0  0
 20 40  1  0  0  0  0
 21 51  1  0  0  0  0
 22 41  1  0  0  0  0
 23 24  2  0  0  0  0
 23 61  1  0  0  0  0
 24 31  1  0  0  0  0
 24 55  1  0  0  0  0
 25 31  2  0  0  0  0
 25 72  1  0  0  0  0
 26 82  1  0  0  0  0
 27 83  1  0  0  0  0
 28 30  2  0  0  0  0
 28 82  1  0  0  0  0
 29 84  1  0  0  0  0
 30 85  1  0  0  0  0
 31 86  1  0  0  0  0
 32 66  2  0  0  0  0
 33 67  1  0  0  0  0
 33 70  1  0  0  0  0
 34 71  1  0  0  0  0
 34 77  2  0  0  0  0
 35 52  1  0  0  0  0
 35 73  1  0  0  0  0
 35 78  2  0  0  0  0
 36 63  1  0  0  0  0
 36 68  1  0  0  0  0
 36 79  2  0  0  0  0
 37 64  1  0  0  0  0
 37 74  1  0  0  0  0
 37 80  2  0  0  0  0
 38 69  1  0  0  0  0
 38 72  1  0  0  0  0
 38 81  2  0  0  0  0
 39 42  1  0  0  0  0
 40 52  1  0  0  0  0
 41 68  1  0  0  0  0
 42 45  1  0  0  0  0
 43 46  1  0  0  0  0
 43 48  1  0  0  0  0
 44 47  1  0  0  0  0
 44 50  1  0  0  0  0
 45 51  1  0  0  0  0
 46 53  1  0  0  0  0
 47 54  1  0  0  0  0
 48 69  1  0  0  0  0
 49 53  1  0  0  0  0
 49 69  1  0  0  0  0
 50 75  1  0  0  0  0
 51 73  1  0  0  0  0
 52 68  1  0  0  0  0
 53 67  1  0  0  0  0
 54 62  1  0  0  0  0
 54 75  1  0  0  0  0
 56 64  1  0  0  0  0
 57 65  1  0  0  0  0
 58 65  1  0  0  0  0
 59 65  1  0  0  0  0
 60 76  1  0  0  0  0
 61 75  1  0  0  0  0
 62 83  1  0  0  0  0
 63 65  1  0  0  0  0
 63 74  1  0  0  0  0
 64 76  1  0  0  0  0
 66 67  1  0  0  0  0
M  CHG  2  75   1  76   1
M  ISO  4  38 100  62 101  72 100  83 101
M  END
> <Batch ID>
0023

> <Smiles>
CNC(C)C(=O)NC(C(=O)N1Cc2cc([101O:1][101CH2:1]C3CCCN3Cc3ccc([100NH:0][100C:0](=O)N4CCCC(n5nc(-c6ccc(Oc7ccc(F)cc7F)cc6)c(C(N)=O)c5N)C4)c(F)c3C)ccc2CC1C(=O)NC1CCCc2ccccc21)C(C)(C)C

> <Shape>
0.225

> <Color>
0.064

> <Negative vol penalty>
0.000

$$$$

  -OEChem-04042321173D

 88 98  0     1  0  0  0  0  0999 V2000
  -35.8875  -33.3814   35.5063 C   0  0  0  0  0  0  0  0  0  0  0  0
  -35.0958  -32.5687   34.7012 C   0  0  0  0  0  0  0  0  0  0  0  0
  -23.0752   -9.8688   19.9403 C   0  0  0  0  0  0  0  0  0  0  0  0
  -23.8349   -9.8748   22.2338 C   0  0  0  0  0  0  0  0  0  0  0  0
  -36.9596  -34.0786   34.9509 C   0  0  0  0  0  0  0  0  0  0  0  0
  -35.3751  -32.4537   33.3399 C   0  0  0  0  0  0  0  0  0  0  0  0
  -36.8151  -26.0468   30.3785 C   0  0  0  0  0  0  0  0  0  0  0  0
  -32.6556  -17.4865   23.4538 C   0  0  0  0  0  0  0  0  0  0  0  0
  -32.0650  -16.6037   22.5497 C   0  0  0  0  0  0  0  0  0  0  0  0
  -22.3308   -8.7159   20.1898 C   0  0  0  0  0  0  0  0  0  0  0  0
  -23.0905   -8.7218   22.4833 C   0  0  0  0  0  0  0  0  0  0  0  0
  -36.8927  -24.8315   29.6981 C   0  0  0  0  0  0  0  0  0  0  0  0
  -19.8620   -7.9251   23.0853 C   0  0  0  0  0  0  0  0  0  0  0  0
  -19.1049   -7.8850   24.2561 C   0  0  0  0  0  0  0  0  0  0  0  0
  -37.2691  -26.0074   27.6188 C   0  0  0  0  0  0  0  0  0  0  0  0
  -30.4741  -18.3393   24.0463 C   0  0  0  0  0  0  0  0  0  0  0  0
  -20.3455   -5.9469   24.9920 C   0  0  0  0  0  0  0  0  0  0  0  0
  -23.8273  -10.4483   20.9623 C   0  0  0  0  0  0  0  0  0  0  0  0
  -24.1701  -12.9733   20.8431 C   0  0  0  0  0  0  0  0  0  0  0  0
  -37.2580  -33.9644   33.5840 C   0  0  0  0  0  0  0  0  0  0  0  0
  -36.9798  -27.2481   29.6834 C   0  0  0  0  0  0  0  0  0  0  0  0
  -36.4513  -33.1510   32.7654 C   0  0  0  0  0  0  0  0  0  0  0  0
  -37.2049  -27.2275   28.2971 C   0  0  0  0  0  0  0  0  0  0  0  0
  -31.8602  -18.3543   24.2021 C   0  0  0  0  0  0  0  0  0  0  0  0
  -30.6790  -16.5886   22.3939 C   0  0  0  0  0  0  0  0  0  0  0  0
  -22.3385   -8.1424   21.4613 C   0  0  0  0  0  0  0  0  0  0  0  0
  -37.1189  -24.8119   28.3216 C   0  0  0  0  0  0  0  0  0  0  0  0
  -20.8608   -6.9760   22.8678 C   0  0  0  0  0  0  0  0  0  0  0  0
  -19.3467   -6.8960   25.2095 C   0  0  0  0  0  0  0  0  0  0  0  0
  -29.8835  -17.4564   23.1421 C   0  0  0  0  0  0  0  0  0  0  0  0
  -21.1026   -5.9869   23.8211 C   0  0  0  0  0  0  0  0  0  0  0  0
  -24.5968  -11.6389   20.7050 C   0  0  0  0  0  0  0  0  0  0  0  0
  -25.2626  -13.7225   20.4802 C   0  0  0  0  0  0  0  0  0  0  0  0
  -22.8998  -13.4895   21.2621 C   0  0  0  0  0  0  0  0  0  0  0  0
  -37.1132  -30.9943   29.8391 C   0  0  0  0  0  0  0  0  0  0  0  0
  -39.3236  -30.1035   27.9075 C   0  0  0  0  0  0  0  0  0  0  0  0
  -41.9052  -28.6916   26.1815 C   0  0  0  0  0  0  0  0  0  0  0  0
  -30.7292  -14.7659   20.6557 C   0  0  0  0  0  0  0  0  0  0  0  0
  -38.3983  -34.7744   33.0198 C   0  0  0  0  0  0  0  0  0  0  0  0
  -36.8429  -28.5824   30.3650 C   0  0  0  0  0  0  0  0  0  0  0  0
  -37.3414  -28.5454   27.5849 C   0  0  0  0  0  0  0  0  0  0  0  0
  -38.8553  -34.3048   31.6410 C   0  0  0  0  0  0  0  0  0  0  0  0
  -29.6140  -12.3533   18.2865 C   0  0  0  0  0  0  0  0  0  0  0  0
  -37.6537  -34.0760   30.7296 C   0  0  0  0  0  0  0  0  0  0  0  0
  -28.1742  -12.0621   18.7159 C   0  0  0  0  0  0  0  0  0  0  0  0
  -34.8583  -19.6505   25.1142 C   0  0  0  0  0  0  0  0  0  0  0  0
  -33.2114  -21.4630   24.4450 C   0  0  0  0  0  0  0  0  0  0  0  0
  -35.7313  -22.0183   24.5205 C   0  0  0  0  0  0  0  0  0  0  0  0
  -34.8169  -21.8985   26.4571 C   0  0  0  0  0  0  0  0  0  0  0  0
  -30.5291  -12.5813   19.4883 C   0  0  0  0  0  0  0  0  0  0  0  0
  -33.7065  -18.8849   25.7754 C   0  0  0  0  0  0  0  0  0  0  0  0
  -32.1094  -20.6596   25.1355 C   0  0  0  0  0  0  0  0  0  0  0  0
  -28.6223  -13.3061   20.8696 C   0  0  0  0  0  0  0  0  0  0  0  0
  -36.7375  -32.9810   31.2892 C   0  0  1  0  0  0  0  0  0  0  0  0
  -37.7858  -29.6539   29.7890 C   0  0  1  0  0  0  0  0  0  0  0  0
  -36.2470  -22.2258   25.9647 C   0  0  0  0  0  0  0  0  0  0  0  0
  -27.6495  -13.1336   19.6917 C   0  0  2  0  0  0  0  0  0  0  0  0
  -34.5660  -21.1618   25.1023 C   0  0  0  0  0  0  0  0  0  0  0  0
  -43.9250  -29.2918   24.8186 C   0  0  0  0  0  0  0  0  0  0  0  0
  -37.5195  -30.8092   25.5515 C   0  0  0  0  0  0  0  0  0  0  0  0
  -39.4827  -30.4647   24.0364 C   0  0  0  0  0  0  0  0  0  0  0  0
  -39.5514  -32.2494   25.7780 C   0  0  0  0  0  0  0  0  0  0  0  0
  -43.7305  -27.3385   28.0778 C   0  0  0  0  0  0  0  0  0  0  0  0
  -36.7777  -23.6049   26.3006 C   0  0  0  0  0  0  0  0  0  1  0  0
  -39.7192  -29.8262   26.4793 C   0  0  1  0  0  0  0  0  0  0  0  0
  -43.3993  -28.9590   26.2062 C   0  0  2  0  0  0  0  0  0  0  0  0
  -39.0595  -30.8166   25.4786 C   0  0  0  0  0  0  0  0  0  0  0  0
  -25.8617  -11.5427   20.2868 N   0  0  0  0  0  0  0  0  0  0  0  0
  -26.2391  -12.8262   20.1589 N   0  0  0  0  0  0  0  0  0  0  0  0
  -32.4493  -19.2344   25.1042 N   0  0  0  0  0  0  0  0  0  0  0  0
  -38.1720  -29.4628   28.3806 N   0  0  0  0  0  0  0  0  0  0  0  0
  -29.9705  -13.6121   20.3660 N   0  0  0  0  0  0  0  0  0  0  0  0
  -25.4735  -15.0539   20.4076 N   0  0  0  0  0  0  0  0  0  0  0  0
  -21.8875  -12.5806   21.5990 N   0  0  0  0  0  0  0  0  0  0  0  0
  -30.0821  -15.6909   21.4743 N   0  0  0  0  0  0  0  0  0  0  0  0
  -37.2973  -31.6720   31.0292 N   0  0  0  0  0  0  0  0  0  0  0  0
  -41.1778  -29.8315   26.4513 N   0  0  0  0  0  0  0  0  0  0  0  0
  -44.1312  -27.7633   26.7118 N   0  3  0  0  0  0  0  0  0  0  0  0
  -22.6640  -14.7202   21.3198 O   0  0  0  0  0  0  0  0  0  0  0  0
  -36.4750  -31.3867   28.8694 O   0  0  0  0  0  0  0  0  0  0  0  0
  -40.0118  -30.8713   28.5858 O   0  0  0  0  0  0  0  0  0  0  0  0
  -41.4307  -27.5833   25.9427 O   0  0  0  0  0  0  0  0  0  0  0  0
  -31.8584  -14.9343   20.1882 O   0  0  0  0  0  0  0  0  0  0  0  0
  -21.6120   -7.0175   21.7052 O   0  0  0  0  0  0  0  0  0  0  0  0
  -37.1979  -23.6217   27.6642 O   0  0  0  0  0  0  0  0  0  1  0  0
  -18.6207   -6.8586   26.3345 F   0  0  0  0  0  0  0  0  0  0  0  0
  -28.5504  -17.4508   23.0000 F   0  0  0  0  0  0  0  0  0  0  0  0
  -22.0615   -5.0731   23.6183 F   0  0  0  0  0  0  0  0  0  0  0  0
  1  2  1  0  0  0  0
  1  5  2  0  0  0  0
  2  6  2  0  0  0  0
  3 10  2  0  0  0  0
  3 18  1  0  0  0  0
  4 11  1  0  0  0  0
  4 18  2  0  0  0  0
  5 20  1  0  0  0  0
  6 22  1  0  0  0  0
  7 12  2  0  0  0  0
  7 21  1  0  0  0  0
  8  9  2  0  0  0  0
  8 24  1  0  0  0  0
  9 25  1  0  0  0  0
 10 26  1  0  0  0  0
 11 26  2  0  0  0  0
 12 27  1  0  0  0  0
 13 14  2  0  0  0  0
 13 28  1  0  0  0  0
 14 29  1  0  0  0  0
 15 23  1  0  0  0  0
 15 27  2  0  0  0  0
 16 24  2  0  0  0  0
 16 30  1  0  0  0  0
 17 29  2  0  0  0  0
 17 31  1  0  0  0  0
 18 32  1  0  0  0  0
 19 32  1  0  0  0  0
 19 33  2  0  0  0  0
 19 34  1  0  0  0  0
 20 22  2  0  0  0  0
 20 39  1  0  0  0  0
 21 23  2  0  0  0  0
 21 40  1  0  0  0  0
 22 54  1  0  0  0  0
 23 41  1  0  0  0  0
 24 70  1  0  0  0  0
 25 30  2  0  0  0  0
 25 75  1  0  0  0  0
 26 84  1  0  0  0  0
 27 85  1  0  0  0  0
 28 31  2  0  0  0  0
 28 84  1  0  0  0  0
 29 86  1  0  0  0  0
 30 87  1  0  0  0  0
 31 88  1  0  0  0  0
 32 68  2  0  0  0  0
 33 69  1  0  0  0  0
 33 73  1  0  0  0  0
 34 74  1  0  0  0  0
 34 79  2  0  0  0  0
 35 55  1  0  0  0  0
 35 76  1  0  0  0  0
 35 80  2  0  0  0  0
 36 65  1  0  0  0  0
 36 71  1  0  0  0  0
 36 81  2  0  0  0  0
 37 66  1  0  0  0  0
 37 77  1  0  0  0  0
 37 82  2  0  0  0  0
 38 72  1  0  0  0  0
 38 75  1  0  0  0  0
 38 83  2  0  0  0  0
 39 42  1  0  0  0  0
 40 55  1  0  0  0  0
 41 71  1  0  0  0  0
 42 44  1  0  0  0  0
 43 45  1  0  0  0  0
 43 50  1  0  0  0  0
 44 54  1  0  0  0  0
 45 57  1  0  0  0  0
 46 51  1  0  0  0  0
 46 58  1  0  0  0  0
 47 52  1  0  0  0  0
 47 58  1  0  0  0  0
 48 56  1  0  0  0  0
 48 58  1  0  0  0  0
 49 56  1  0  0  0  0
 49 58  1  0  0  0  0
 50 72  1  0  0  0  0
 51 70  1  0  0  0  0
 52 70  1  0  0  0  0
 53 57  1  0  0  0  0
 53 72  1  0  0  0  0
 54 76  1  0  0  0  0
 55 71  1  0  0  0  0
 56 64  1  0  0  0  0
 57 69  1  0  0  0  0
 59 66  1  0  0  0  0
 60 67  1  0  0  0  0
 61 67  1  0  0  0  0
 62 67  1  0  0  0  0
 63 78  1  0  0  0  0
 64 85  1  0  0  0  0
 65 67  1  0  0  0  0
 65 77  1  0  0  0  0
 66 78  1  0  0  0  0
 68 69  1  0  0  0  0
M  CHG  1  78   1
M  ISO  4  38 100  64 101  75 100  85 101
M  END
> <Batch ID>
0023

> <Smiles>
CNC(C)C(=O)NC(C(=O)N1Cc2cc([101O:1][101CH2:1]C3CC4(CCN(c5ccc([100NH:0][100C:0](=O)N6CCCC(n7nc(-c8ccc(Oc9ccc(F)cc9F)cc8)c(C(N)=O)c7N)C6)c(F)c5)CC4)C3)ccc2CC1C(=O)NC1CCCc2ccccc21)C(C)(C)C

> <Shape>
0.164

> <Color>
0.191

> <Negative vol penalty>
0.000

$$$$

  -OEChem-04042321173D

 86 95  0     1  0  0  0  0  0999 V2000
  -33.0241  -24.8758   19.0848 C   0  0  0  0  0  0  0  0  0  0  0  0
  -31.6849  -24.7503   19.4400 C   0  0  0  0  0  0  0  0  0  0  0  0
  -22.9893  -10.0278   20.0555 C   0  0  0  0  0  0  0  0  0  0  0  0
  -24.4418   -9.4019   21.8819 C   0  0  0  0  0  0  0  0  0  0  0  0
  -33.8059  -25.8768   19.6600 C   0  0  0  0  0  0  0  0  0  0  0  0
  -31.1269  -25.6251   20.3715 C   0  0  0  0  0  0  0  0  0  0  0  0
  -26.5864  -27.3507   18.9393 C   0  0  0  0  0  0  0  0  0  0  0  0
  -24.9938  -20.5516   21.7114 C   0  0  0  0  0  0  0  0  0  0  0  0
  -25.8049  -19.4197   21.6323 C   0  0  0  0  0  0  0  0  0  0  0  0
  -21.9566   -9.2794   20.6204 C   0  0  0  0  0  0  0  0  0  0  0  0
  -23.4091   -8.6536   22.4468 C   0  0  0  0  0  0  0  0  0  0  0  0
  -25.4989  -26.4938   19.1033 C   0  0  0  0  0  0  0  0  0  0  0  0
  -21.9696   -5.6325   21.9648 C   0  0  0  0  0  0  0  0  0  0  0  0
  -22.2771   -4.3565   22.4367 C   0  0  0  0  0  0  0  0  0  0  0  0
  -24.8930  -27.6598   21.1263 C   0  0  0  0  0  0  0  0  0  0  0  0
  -23.5068  -19.6016   20.0612 C   0  0  0  0  0  0  0  0  0  0  0  0
  -21.5739   -5.0072   24.6546 C   0  0  0  0  0  0  0  0  0  0  0  0
  -24.2320  -10.0890   20.6863 C   0  0  0  0  0  0  0  0  0  0  0  0
  -25.8840  -10.6817   18.8350 C   0  0  0  0  0  0  0  0  0  0  0  0
  -33.2547  -26.7704   20.5919 C   0  0  0  0  0  0  0  0  0  0  0  0
  -26.8421  -28.3634   19.8750 C   0  0  0  0  0  0  0  0  0  0  0  0
  -31.9023  -26.6382   20.9608 C   0  0  0  0  0  0  0  0  0  0  0  0
  -25.9829  -28.5298   20.9705 C   0  0  0  0  0  0  0  0  0  0  0  0
  -23.8447  -20.6426   20.9259 C   0  0  0  0  0  0  0  0  0  0  0  0
  -25.4671  -18.3787   20.7676 C   0  0  0  0  0  0  0  0  0  0  0  0
  -22.1664   -8.5923   21.8160 C   0  0  0  0  0  0  0  0  0  0  0  0
  -24.6536  -26.6465   20.1985 C   0  0  0  0  0  0  0  0  0  0  0  0
  -21.4644   -6.5960   22.8378 C   0  0  0  0  0  0  0  0  0  0  0  0
  -22.0792   -4.0438   23.7815 C   0  0  0  0  0  0  0  0  0  0  0  0
  -24.3180  -18.4696   19.9820 C   0  0  0  0  0  0  0  0  0  0  0  0
  -21.2665   -6.2834   24.1827 C   0  0  0  0  0  0  0  0  0  0  0  0
  -25.2993  -10.8614   20.1030 C   0  0  0  0  0  0  0  0  0  0  0  0
  -26.8440  -11.6609   18.7578 C   0  0  0  0  0  0  0  0  0  0  0  0
  -23.5552  -23.0748   21.3233 C   0  0  0  0  0  0  0  0  0  0  0  0
  -25.5859   -9.7161   17.8180 C   0  0  0  0  0  0  0  0  0  0  0  0
  -29.2375  -29.0373   21.8527 C   0  0  0  0  0  0  0  0  0  0  0  0
  -27.5140  -31.7306   22.3984 C   0  0  0  0  0  0  0  0  0  0  0  0
  -24.0394  -32.5849   22.8614 C   0  0  0  0  0  0  0  0  0  0  0  0
  -27.4674  -16.9840   21.3999 C   0  0  0  0  0  0  0  0  0  0  0  0
  -34.1512  -27.8065   21.2221 C   0  0  0  0  0  0  0  0  0  0  0  0
  -28.0038  -29.2963   19.6694 C   0  0  0  0  0  0  0  0  0  0  0  0
  -26.2020  -29.6142   21.9926 C   0  0  0  0  0  0  0  0  0  0  0  0
  -33.3878  -28.9286   21.9209 C   0  0  0  0  0  0  0  0  0  0  0  0
  -20.6558  -22.7335   21.0651 C   0  0  0  0  0  0  0  0  0  0  0  0
  -29.7655  -14.2669   21.5160 C   0  0  0  0  0  0  0  0  0  0  0  0
  -32.2758  -28.3550   22.7934 C   0  0  0  0  0  0  0  0  0  0  0  0
  -21.2678  -24.1127   20.9468 C   0  0  0  0  0  0  0  0  0  0  0  0
  -28.9358  -13.0701   21.0456 C   0  0  0  0  0  0  0  0  0  0  0  0
  -21.6188  -21.6925   20.5214 C   0  0  0  0  0  0  0  0  0  0  0  0
  -28.9395  -15.2306   22.3662 C   0  0  0  0  0  0  0  0  0  0  0  0
  -26.8571  -14.4883   21.2789 C   0  0  0  0  0  0  0  0  0  0  0  0
  -31.2544  -27.5835   21.9490 C   0  0  1  0  0  0  0  0  0  0  0  0
  -22.5533  -24.1491   21.7595 C   0  0  2  0  0  0  0  0  0  0  0  0
  -28.4668  -29.9672   20.9589 C   0  0  1  0  0  0  0  0  0  0  0  0
  -27.6292  -13.5227   20.3650 C   0  0  2  0  0  0  0  0  0  0  0  0
  -22.8118  -34.7268   22.4108 C   0  0  0  0  0  0  0  0  0  0  0  0
  -28.0813  -32.3353   25.3348 C   0  0  0  0  0  0  0  0  0  0  0  0
  -25.8017  -33.3585   25.4924 C   0  0  0  0  0  0  0  0  0  0  0  0
  -27.5018  -34.3361   23.9508 C   0  0  0  0  0  0  0  0  0  0  0  0
  -22.0633  -31.2234   21.1292 C   0  0  0  0  0  0  0  0  0  0  0  0
  -23.1738  -25.5452   21.6996 C   0  0  0  0  0  0  0  0  0  1  0  0
  -26.4244  -32.1249   23.3659 C   0  0  1  0  0  0  0  0  0  0  0  0
  -23.1516  -33.3396   21.8883 C   0  0  2  0  0  0  0  0  0  0  0  0
  -26.9555  -33.0118   24.5273 C   0  0  0  0  0  0  0  0  0  0  0  0
  -25.8426  -11.8749   20.7824 N   0  0  0  0  0  0  0  0  0  0  0  0
  -26.7788  -12.3409   19.9383 N   0  0  0  0  0  0  0  0  0  0  0  0
  -23.0033  -21.8172   21.0074 N   0  0  0  0  0  0  0  0  0  0  0  0
  -27.3551  -30.4972   21.7510 N   0  0  0  0  0  0  0  0  0  0  0  0
  -27.7193  -15.6195   21.6557 N   0  0  0  0  0  0  0  0  0  0  0  0
  -27.7292  -11.9980   17.7959 N   0  0  0  0  0  0  0  0  0  0  0  0
  -24.5696   -8.7820   18.0608 N   0  0  0  0  0  0  0  0  0  0  0  0
  -26.2934  -17.2303   20.6890 N   0  0  0  0  0  0  0  0  0  0  0  0
  -30.3676  -28.5008   21.2659 N   0  0  0  0  0  0  0  0  0  0  0  0
  -25.3762  -32.7510   22.5673 N   0  0  0  0  0  0  0  0  0  0  0  0
  -21.8791  -32.5967   21.6650 N   0  3  0  0  0  0  0  0  0  0  0  0
  -24.7628  -23.3276   21.3337 O   0  0  0  0  0  0  0  0  0  0  0  0
  -26.2136   -9.6722   16.7328 O   0  0  0  0  0  0  0  0  0  0  0  0
  -28.8372  -28.8235   22.9911 O   0  0  0  0  0  0  0  0  0  0  0  0
  -28.4674  -32.4924   22.2181 O   0  0  0  0  0  0  0  0  0  0  0  0
  -23.5918  -31.9181   23.7917 O   0  0  0  0  0  0  0  0  0  0  0  0
  -28.2504  -17.8670   21.7596 O   0  0  0  0  0  0  0  0  0  0  0  0
  -21.1588   -7.8622   22.3676 O   0  0  0  0  0  0  0  0  0  0  0  0
  -23.5918  -25.8111   20.3613 O   0  0  0  0  0  0  0  0  0  1  0  0
  -22.3731   -2.8179   24.2342 F   0  0  0  0  0  0  0  0  0  0  0  0
  -23.9843  -17.4757   19.1461 F   0  0  0  0  0  0  0  0  0  0  0  0
  -20.7802   -7.2044   25.0259 F   0  0  0  0  0  0  0  0  0  0  0  0
  1  2  1  0  0  0  0
  1  5  2  0  0  0  0
  2  6  2  0  0  0  0
  3 10  2  0  0  0  0
  3 18  1  0  0  0  0
  4 11  1  0  0  0  0
  4 18  2  0  0  0  0
  5 20  1  0  0  0  0
  6 22  1  0  0  0  0
  7 12  2  0  0  0  0
  7 21  1  0  0  0  0
  8  9  2  0  0  0  0
  8 24  1  0  0  0  0
  9 25  1  0  0  0  0
 10 26  1  0  0  0  0
 11 26  2  0  0  0  0
 12 27  1  0  0  0  0
 13 14  2  0  0  0  0
 13 28  1  0  0  0  0
 14 29  1  0  0  0  0
 15 23  1  0  0  0  0
 15 27  2  0  0  0  0
 16 24  2  0  0  0  0
 16 30  1  0  0  0  0
 17 29  2  0  0  0  0
 17 31  1  0  0  0  0
 18 32  1  0  0  0  0
 19 32  1  0  0  0  0
 19 33  2  0  0  0  0
 19 35  1  0  0  0  0
 20 22  2  0  0  0  0
 20 40  1  0  0  0  0
 21 23  2  0  0  0  0
 21 41  1  0  0  0  0
 22 52  1  0  0  0  0
 23 42  1  0  0  0  0
 24 67  1  0  0  0  0
 25 30  2  0  0  0  0
 25 72  1  0  0  0  0
 26 82  1  0  0  0  0
 27 83  1  0  0  0  0
 28 31  2  0  0  0  0
 28 82  1  0  0  0  0
 29 84  1  0  0  0  0
 30 85  1  0  0  0  0
 31 86  1  0  0  0  0
 32 65  2  0  0  0  0
 33 66  1  0  0  0  0
 33 70  1  0  0  0  0
 34 53  1  0  0  0  0
 34 67  1  0  0  0  0
 34 76  2  0  0  0  0
 35 71  1  0  0  0  0
 35 77  2  0  0  0  0
 36 54  1  0  0  0  0
 36 73  1  0  0  0  0
 36 78  2  0  0  0  0
 37 62  1  0  0  0  0
 37 68  1  0  0  0  0
 37 79  2  0  0  0  0
 38 63  1  0  0  0  0
 38 74  1  0  0  0  0
 38 80  2  0  0  0  0
 39 69  1  0  0  0  0
 39 72  1  0  0  0  0
 39 81  2  0  0  0  0
 40 43  1  0  0  0  0
 41 54  1  0  0  0  0
 42 68  1  0  0  0  0
 43 46  1  0  0  0  0
 44 47  1  0  0  0  0
 44 49  1  0  0  0  0
 45 48  1  0  0  0  0
 45 50  1  0  0  0  0
 46 52  1  0  0  0  0
 47 53  1  0  0  0  0
 48 55  1  0  0  0  0
 49 67  1  0  0  0  0
 50 69  1  0  0  0  0
 51 55  1  0  0  0  0
 51 69  1  0  0  0  0
 52 73  1  0  0  0  0
 53 61  1  0  0  0  0
 54 68  1  0  0  0  0
 55 66  1  0  0  0  0
 56 63  1  0  0  0  0
 57 64  1  0  0  0  0
 58 64  1  0  0  0  0
 59 64  1  0  0  0  0
 60 75  1  0  0  0  0
 61 83  1  0  0  0  0
 62 64  1  0  0  0  0
 62 74  1  0  0  0  0
 63 75  1  0  0  0  0
 65 66  1  0  0  0  0
M  CHG  1  75   1
M  ISO  4  39 100  61 101  72 100  83 101
M  END
> <Batch ID>
0023

> <Smiles>
CNC(C)C(=O)NC(C(=O)N1Cc2cc([101O:1][101CH2:1]C3CCCN(c4ccc([100NH:0][100C:0](=O)N5CCCC(n6nc(-c7ccc(Oc8ccc(F)cc8F)cc7)c(C(N)=O)c6N)C5)c(F)c4)C3=O)ccc2CC1C(=O)NC1CCCc2ccccc21)C(C)(C)C

> <Shape>
0.247

> <Color>
0.088

> <Negative vol penalty>
0.000

$$$$

  -OEChem-04042321173D

 85 93  0     1  0  0  0  0  0999 V2000
  -23.0789   -8.2649   21.7344 C   0  0  0  0  0  0  0  0  0  0  0  0
  -24.1120   -9.0345   22.2595 C   0  0  0  0  0  0  0  0  0  0  0  0
  -23.1932  -28.9632   21.0887 C   0  0  0  0  0  0  0  0  0  0  0  0
  -24.3981  -27.8584   22.8676 C   0  0  0  0  0  0  0  0  0  0  0  0
  -22.3301   -8.7447   20.6606 C   0  0  0  0  0  0  0  0  0  0  0  0
  -24.3976  -10.2841   21.7104 C   0  0  0  0  0  0  0  0  0  0  0  0
  -26.3530  -15.2589   24.6993 C   0  0  0  0  0  0  0  0  0  0  0  0
  -29.4421  -20.6558   19.3372 C   0  0  0  0  0  0  0  0  0  0  0  0
  -22.0580  -29.0263   21.8968 C   0  0  0  0  0  0  0  0  0  0  0  0
  -23.2629  -27.9216   23.6758 C   0  0  0  0  0  0  0  0  0  0  0  0
  -27.6214  -15.8114   24.8718 C   0  0  0  0  0  0  0  0  0  0  0  0
  -19.5855  -26.9444   22.8849 C   0  0  0  0  0  0  0  0  0  0  0  0
  -29.8292  -19.5020   20.0189 C   0  0  0  0  0  0  0  0  0  0  0  0
  -18.3625  -26.5963   22.3116 C   0  0  0  0  0  0  0  0  0  0  0  0
  -27.2154  -17.3055   23.0218 C   0  0  0  0  0  0  0  0  0  0  0  0
  -29.7855  -21.9566   21.3440 C   0  0  0  0  0  0  0  0  0  0  0  0
  -17.5094  -28.8054   22.7901 C   0  0  0  0  0  0  0  0  0  0  0  0
  -24.3632  -28.3791   21.5741 C   0  0  0  0  0  0  0  0  0  0  0  0
  -26.5629  -29.2708   20.6392 C   0  0  0  0  0  0  0  0  0  0  0  0
  -22.6003  -10.0049   20.1043 C   0  0  0  0  0  0  0  0  0  0  0  0
  -25.5091  -15.7188   23.6782 C   0  0  0  0  0  0  0  0  0  0  0  0
  -23.6525  -10.7806   20.6274 C   0  0  0  0  0  0  0  0  0  0  0  0
  -25.9358  -16.7588   22.8401 C   0  0  0  0  0  0  0  0  0  0  0  0
  -30.1725  -20.8029   22.0257 C   0  0  0  0  0  0  0  0  0  0  0  0
  -29.4203  -21.8831   19.9998 C   0  0  0  0  0  0  0  0  0  0  0  0
  -22.0929  -28.5056   23.1903 C   0  0  0  0  0  0  0  0  0  0  0  0
  -28.0539  -16.8329   24.0311 C   0  0  0  0  0  0  0  0  0  0  0  0
  -19.7704  -28.2230   23.4110 C   0  0  0  0  0  0  0  0  0  0  0  0
  -17.3245  -27.5268   22.2641 C   0  0  0  0  0  0  0  0  0  0  0  0
  -30.1943  -19.5756   21.3631 C   0  0  0  0  0  0  0  0  0  0  0  0
  -18.7324  -29.1535   23.3635 C   0  0  0  0  0  0  0  0  0  0  0  0
  -25.5360  -28.3130   20.7396 C   0  0  0  0  0  0  0  0  0  0  0  0
  -27.4365  -28.7424   19.7204 C   0  0  0  0  0  0  0  0  0  0  0  0
  -26.7136  -30.5258   21.3158 C   0  0  0  0  0  0  0  0  0  0  0  0
  -24.1769  -14.4065   21.1078 C   0  0  0  0  0  0  0  0  0  0  0  0
  -22.6834  -17.2783   20.8959 C   0  0  0  0  0  0  0  0  0  0  0  0
  -22.6823  -20.6061   21.6524 C   0  0  0  0  0  0  0  0  0  0  0  0
  -28.6368  -23.1560   17.9719 C   0  0  0  0  0  0  0  0  0  0  0  0
  -21.7944  -10.4609   18.9139 C   0  0  0  0  0  0  0  0  0  0  0  0
  -24.1336  -15.1306   23.5223 C   0  0  0  0  0  0  0  0  0  0  0  0
  -25.0603  -17.3021   21.7416 C   0  0  0  0  0  0  0  0  0  0  0  0
  -21.9179  -11.9559   18.6312 C   0  0  0  0  0  0  0  0  0  0  0  0
  -27.5628  -25.8496   15.9059 C   0  0  0  0  0  0  0  0  0  0  0  0
  -23.3793  -12.3901   18.6829 C   0  0  0  0  0  0  0  0  0  0  0  0
  -27.0202  -26.8767   16.9023 C   0  0  0  0  0  0  0  0  0  0  0  0
  -27.2514  -24.4185   16.3404 C   0  0  0  0  0  0  0  0  0  0  0  0
  -27.1277  -25.1065   18.7028 C   0  0  0  0  0  0  0  0  0  0  0  0
  -23.9767  -12.1517   20.0750 C   0  0  1  0  0  0  0  0  0  0  0  0
  -23.5562  -15.3236   22.1234 C   0  0  1  0  0  0  0  0  0  0  0  0
  -27.4735  -26.5602   18.3410 C   0  0  2  0  0  0  0  0  0  0  0  0
  -21.3478  -22.7036   21.3102 C   0  0  0  0  0  0  0  0  0  0  0  0
  -31.7956  -18.4338   26.8065 C   0  0  0  0  0  0  0  0  0  0  0  0
  -23.7038  -17.4564   18.0259 C   0  0  0  0  0  0  0  0  0  0  0  0
  -23.1766  -19.9036   18.0641 C   0  0  0  0  0  0  0  0  0  0  0  0
  -21.3474  -18.2309   18.3452 C   0  0  0  0  0  0  0  0  0  0  0  0
  -22.2605  -20.9506   24.5614 C   0  0  0  0  0  0  0  0  0  0  0  0
  -28.3529  -21.3111   24.5298 C   0  0  0  0  0  0  0  0  0  0  0  0
  -30.5660  -20.8845   23.4712 C   0  0  0  0  0  0  0  0  0  0  0  0
  -30.0580  -19.9391   25.7181 C   0  0  0  0  0  0  0  0  0  0  0  0
  -29.8771  -17.4069   25.5194 C   0  0  0  0  0  0  0  0  0  1  0  0
  -22.9923  -18.5974   20.2299 C   0  0  1  0  0  0  0  0  0  0  0  0
  -21.6019  -21.5102   22.2179 C   0  0  2  0  0  0  0  0  0  0  0  0
  -30.8197  -18.6111   25.6379 C   0  0  2  0  0  0  0  0  0  0  0  0
  -22.8225  -18.5358   18.6857 C   0  0  0  0  0  0  0  0  0  0  0  0
  -25.7371  -27.2564   19.9478 N   0  0  0  0  0  0  0  0  0  0  0  0
  -26.9005  -27.5470   19.3410 N   0  0  0  0  0  0  0  0  0  0  0  0
  -23.7263  -16.6900   21.6253 N   0  0  0  0  0  0  0  0  0  0  0  0
  -27.7130  -24.1902   17.7114 N   0  0  0  0  0  0  0  0  0  0  0  0
  -28.6031  -29.1883   19.2081 N   0  0  0  0  0  0  0  0  0  0  0  0
  -25.7236  -30.9162   22.2279 N   0  0  0  0  0  0  0  0  0  0  0  0
  -29.0279  -23.0550   19.3066 N   0  0  0  0  0  0  0  0  0  0  0  0
  -23.5447  -13.1831   20.9937 N   0  0  0  0  0  0  0  0  0  0  0  0
  -22.1496  -19.5923   20.8845 N   0  0  0  0  0  0  0  0  0  0  0  0
  -22.0018  -22.0178   23.5608 N   0  3  0  0  0  0  0  0  0  0  0  0
  -29.5075  -20.3468   24.4037 N   0  3  1  0  0  0  0  0  0  0  0  0
  -27.6888  -31.2862   21.1054 O   0  0  0  0  0  0  0  0  0  0  0  0
  -25.1559  -14.7817   20.4735 O   0  0  0  0  0  0  0  0  0  0  0  0
  -21.5560  -16.7914   20.7793 O   0  0  0  0  0  0  0  0  0  0  0  0
  -23.8793  -20.7838   21.8671 O   0  0  0  0  0  0  0  0  0  0  0  0
  -29.0711  -22.4320   17.0724 O   0  0  0  0  0  0  0  0  0  0  0  0
  -20.9854  -28.5673   23.9792 O   0  0  0  0  0  0  0  0  0  0  0  0
  -29.2917  -17.3735   24.1968 O   0  0  0  0  0  0  0  0  0  1  0  0
  -16.1507  -27.1928   21.7121 F   0  0  0  0  0  0  0  0  0  0  0  0
  -30.5636  -18.4613   22.0100 F   0  0  0  0  0  0  0  0  0  0  0  0
  -18.9045  -30.3838   23.8661 F   0  0  0  0  0  0  0  0  0  0  0  0
  1  2  1  0  0  0  0
  1  5  2  0  0  0  0
  2  6  2  0  0  0  0
  3  9  2  0  0  0  0
  3 18  1  0  0  0  0
  4 10  1  0  0  0  0
  4 18  2  0  0  0  0
  5 20  1  0  0  0  0
  6 22  1  0  0  0  0
  7 11  2  0  0  0  0
  7 21  1  0  0  0  0
  8 13  2  0  0  0  0
  8 25  1  0  0  0  0
  9 26  1  0  0  0  0
 10 26  2  0  0  0  0
 11 27  1  0  0  0  0
 12 14  2  0  0  0  0
 12 28  1  0  0  0  0
 13 30  1  0  0  0  0
 14 29  1  0  0  0  0
 15 23  1  0  0  0  0
 15 27  2  0  0  0  0
 16 24  1  0  0  0  0
 16 25  2  0  0  0  0
 17 29  2  0  0  0  0
 17 31  1  0  0  0  0
 18 32  1  0  0  0  0
 19 32  1  0  0  0  0
 19 33  2  0  0  0  0
 19 34  1  0  0  0  0
 20 22  2  0  0  0  0
 20 39  1  0  0  0  0
 21 23  2  0  0  0  0
 21 40  1  0  0  0  0
 22 48  1  0  0  0  0
 23 41  1  0  0  0  0
 24 30  2  0  0  0  0
 24 58  1  0  0  0  0
 25 71  1  0  0  0  0
 26 81  1  0  0  0  0
 27 82  1  0  0  0  0
 28 31  2  0  0  0  0
 28 81  1  0  0  0  0
 29 83  1  0  0  0  0
 30 84  1  0  0  0  0
 31 85  1  0  0  0  0
 32 65  2  0  0  0  0
 33 66  1  0  0  0  0
 33 69  1  0  0  0  0
 34 70  1  0  0  0  0
 34 76  2  0  0  0  0
 35 49  1  0  0  0  0
 35 72  1  0  0  0  0
 35 77  2  0  0  0  0
 36 61  1  0  0  0  0
 36 67  1  0  0  0  0
 36 78  2  0  0  0  0
 37 62  1  0  0  0  0
 37 73  1  0  0  0  0
 37 79  2  0  0  0  0
 38 68  1  0  0  0  0
 38 71  1  0  0  0  0
 38 80  2  0  0  0  0
 39 42  1  0  0  0  0
 40 49  1  0  0  0  0
 41 67  1  0  0  0  0
 42 44  1  0  0  0  0
 43 45  1  0  0  0  0
 43 46  1  0  0  0  0
 44 48  1  0  0  0  0
 45 50  1  0  0  0  0
 46 68  1  0  0  0  0
 47 50  1  0  0  0  0
 47 68  1  0  0  0  0
 48 72  1  0  0  0  0
 49 67  1  0  0  0  0
 50 66  1  0  0  0  0
 51 62  1  0  0  0  0
 52 63  1  0  0  0  0
 53 64  1  0  0  0  0
 54 64  1  0  0  0  0
 55 64  1  0  0  0  0
 56 74  1  0  0  0  0
 57 75  1  0  0  0  0
 58 75  1  0  0  0  0
 59 63  1  0  0  0  0
 59 75  1  0  0  0  0
 60 63  1  0  0  0  0
 60 82  1  0  0  0  0
 61 64  1  0  0  0  0
 61 73  1  0  0  0  0
 62 74  1  0  0  0  0
 65 66  1  0  0  0  0
M  CHG  2  74   1  75   1
M  ISO  4  38 100  60 101  71 100  82 101
M  END
> <Batch ID>
0023

> <Smiles>
CNC(C)C(=O)NC(C(=O)N1Cc2cc([101O:1][101CH2:1]C(C)CN(C)Cc3cc([100NH:0][100C:0](=O)N4CCCC(n5nc(-c6ccc(Oc7ccc(F)cc7F)cc6)c(C(N)=O)c5N)C4)ccc3F)ccc2CC1C(=O)NC1CCCc2ccccc21)C(C)(C)C

> <Shape>
0.224

> <Color>
0.058

> <Negative vol penalty>
0.000

$$$$

  -OEChem-04042321173D

 87 96  0     1  0  0  0  0  0999 V2000
  -30.9242  -24.4257   15.1518 C   0  0  0  0  0  0  0  0  0  0  0  0
  -29.5550  -24.5791   15.3444 C   0  0  0  0  0  0  0  0  0  0  0  0
  -24.4830  -12.6529   19.7894 C   0  0  0  0  0  0  0  0  0  0  0  0
  -26.1904  -13.2214   21.4015 C   0  0  0  0  0  0  0  0  0  0  0  0
  -31.7895  -24.4656   16.2444 C   0  0  0  0  0  0  0  0  0  0  0  0
  -29.0501  -24.7714   16.6299 C   0  0  0  0  0  0  0  0  0  0  0  0
  -24.2413  -28.2144   18.2196 C   0  0  0  0  0  0  0  0  0  0  0  0
  -21.5859  -22.5464   22.8302 C   0  0  0  0  0  0  0  0  0  0  0  0
  -20.6675  -23.5543   22.5368 C   0  0  0  0  0  0  0  0  0  0  0  0
  -24.9873  -11.3547   19.7130 C   0  0  0  0  0  0  0  0  0  0  0  0
  -26.6947  -11.9231   21.3251 C   0  0  0  0  0  0  0  0  0  0  0  0
  -22.9102  -27.8993   18.4891 C   0  0  0  0  0  0  0  0  0  0  0  0
  -25.6035   -7.7891   19.3642 C   0  0  0  0  0  0  0  0  0  0  0  0
  -24.6898   -6.7356   19.3931 C   0  0  0  0  0  0  0  0  0  0  0  0
  -23.4104  -27.8309   20.8480 C   0  0  0  0  0  0  0  0  0  0  0  0
  -21.8736  -24.0621   20.5059 C   0  0  0  0  0  0  0  0  0  0  0  0
  -23.9253   -7.4583   21.5680 C   0  0  0  0  0  0  0  0  0  0  0  0
  -25.0845  -13.5863   20.6337 C   0  0  0  0  0  0  0  0  0  0  0  0
  -23.2697  -15.3156   21.1065 C   0  0  0  0  0  0  0  0  0  0  0  0
  -31.2958  -24.6681   17.5428 C   0  0  0  0  0  0  0  0  0  0  0  0
  -25.1709  -28.3296   19.2632 C   0  0  0  0  0  0  0  0  0  0  0  0
  -29.9094  -24.8127   17.7410 C   0  0  0  0  0  0  0  0  0  0  0  0
  -24.7521  -28.1501   20.5893 C   0  0  0  0  0  0  0  0  0  0  0  0
  -22.6483  -22.2963   21.9615 C   0  0  0  0  0  0  0  0  0  0  0  0
  -20.8112  -24.3121   21.3746 C   0  0  0  0  0  0  0  0  0  0  0  0
  -26.0932  -10.9898   20.4808 C   0  0  0  0  0  0  0  0  0  0  0  0
  -22.4952  -27.7046   19.8033 C   0  0  0  0  0  0  0  0  0  0  0  0
  -25.6783   -8.6772   20.4372 C   0  0  0  0  0  0  0  0  0  0  0  0
  -23.8506   -6.5702   20.4950 C   0  0  0  0  0  0  0  0  0  0  0  0
  -24.8391   -8.5118   21.5391 C   0  0  0  0  0  0  0  0  0  0  0  0
  -22.7921  -23.0542   20.7994 C   0  0  0  0  0  0  0  0  0  0  0  0
  -24.5644  -14.9277   20.7126 C   0  0  0  0  0  0  0  0  0  0  0  0
  -23.2782  -16.6858   21.0123 C   0  0  0  0  0  0  0  0  0  0  0  0
  -22.1588  -14.5094   21.5207 C   0  0  0  0  0  0  0  0  0  0  0  0
  -27.8417  -26.8048   20.0667 C   0  0  0  0  0  0  0  0  0  0  0  0
  -28.0138  -29.1132   22.3391 C   0  0  0  0  0  0  0  0  0  0  0  0
  -26.3822  -31.4091   24.2662 C   0  0  0  0  0  0  0  0  0  0  0  0
  -26.1293  -21.4472   22.2442 C   0  0  0  0  0  0  0  0  0  0  0  0
  -32.2654  -24.6565   18.6980 C   0  0  0  0  0  0  0  0  0  0  0  0
  -26.5973  -28.6964   18.9579 C   0  0  0  0  0  0  0  0  0  0  0  0
  -25.7063  -28.2824   21.7471 C   0  0  0  0  0  0  0  0  0  0  0  0
  -31.6865  -25.2388   19.9850 C   0  0  0  0  0  0  0  0  0  0  0  0
  -26.6367  -19.8409   18.9481 C   0  0  0  0  0  0  0  0  0  0  0  0
  -18.5287  -27.2082   21.4895 C   0  0  0  0  0  0  0  0  0  0  0  0
  -30.2936  -24.6747   20.2468 C   0  0  0  0  0  0  0  0  0  0  0  0
  -26.0981  -18.4300   19.1787 C   0  0  0  0  0  0  0  0  0  0  0  0
  -18.1974  -26.6529   20.1182 C   0  0  0  0  0  0  0  0  0  0  0  0
  -19.2187  -26.0352   22.1682 C   0  0  0  0  0  0  0  0  0  0  0  0
  -27.1709  -20.4615   20.2354 C   0  0  0  0  0  0  0  0  0  0  0  0
  -25.6518  -19.0532   21.5856 C   0  0  0  0  0  0  0  0  0  0  0  0
  -29.3259  -25.0480   19.1174 C   0  0  1  0  0  0  0  0  0  0  0  0
  -27.5694  -28.2825   20.0584 C   0  0  1  0  0  0  0  0  0  0  0  0
  -25.0633  -18.4170   20.3173 C   0  0  2  0  0  0  0  0  0  0  0  0
  -19.4305  -25.7825   19.7554 C   0  0  1  0  0  0  0  0  0  0  0  0
  -18.9522  -24.6510   18.8396 C   0  0  0  0  0  0  0  0  0  0  0  0
  -26.7849  -33.1204   26.0569 C   0  0  0  0  0  0  0  0  0  0  0  0
  -28.2853  -26.8842   24.4049 C   0  0  0  0  0  0  0  0  0  0  0  0
  -27.7304  -28.5584   26.1818 C   0  0  0  0  0  0  0  0  0  0  0  0
  -29.7801  -28.8518   24.7907 C   0  0  0  0  0  0  0  0  0  0  0  0
  -24.7708  -22.8208   23.7762 C   0  0  0  0  0  0  0  0  0  0  0  0
  -25.3958  -33.6081   22.5485 C   0  0  0  0  0  0  0  0  0  0  0  0
  -23.6112  -21.2085   22.3128 C   0  0  0  0  0  0  0  0  0  0  0  0
  -20.4856  -26.6643   19.0716 C   0  0  0  0  0  0  0  0  0  1  0  0
  -27.5102  -29.2596   23.7547 C   0  0  1  0  0  0  0  0  0  0  0  0
  -26.6773  -32.8687   24.5610 C   0  0  2  0  0  0  0  0  0  0  0  0
  -28.3087  -28.3840   24.7613 C   0  0  0  0  0  0  0  0  0  0  0  0
  -25.3390  -15.9674   20.3918 N   0  0  0  0  0  0  0  0  0  0  0  0
  -24.5286  -17.0222   20.5840 N   0  0  0  0  0  0  0  0  0  0  0  0
  -19.8989  -25.3126   21.0830 N   0  0  3  0  0  0  0  0  0  0  0  0
  -27.0918  -28.6362   21.3967 N   0  0  0  0  0  0  0  0  0  0  0  0
  -26.1829  -20.3971   21.3129 N   0  0  0  0  0  0  0  0  0  0  0  0
  -22.3380  -17.6236   21.2547 N   0  0  0  0  0  0  0  0  0  0  0  0
  -22.0203  -14.2119   22.8833 N   0  0  0  0  0  0  0  0  0  0  0  0
  -28.8932  -26.4220   19.2560 N   0  0  0  0  0  0  0  0  0  0  0  0
  -27.5375  -30.6876   24.0522 N   0  0  0  0  0  0  0  0  0  0  0  0
  -24.8795  -21.7335   22.8140 N   0  0  0  0  0  0  0  0  0  0  0  0
  -25.5956  -33.7363   24.0150 N   0  3  0  0  0  0  0  0  0  0  0  0
  -21.3230  -14.0523   20.7046 O   0  0  0  0  0  0  0  0  0  0  0  0
  -27.1500  -26.0669   20.7586 O   0  0  0  0  0  0  0  0  0  0  0  0
  -29.1802  -29.4180   22.0777 O   0  0  0  0  0  0  0  0  0  0  0  0
  -25.2411  -30.9537   24.2331 O   0  0  0  0  0  0  0  0  0  0  0  0
  -27.1390  -22.0982   22.5418 O   0  0  0  0  0  0  0  0  0  0  0  0
  -26.5854   -9.7230   20.4067 O   0  0  0  0  0  0  0  0  0  0  0  0
  -21.1967  -27.3963   20.0691 O   0  0  0  0  0  0  0  0  0  1  0  0
  -22.9721   -5.5595   20.5219 F   0  0  0  0  0  0  0  0  0  0  0  0
  -24.9055   -9.3625   22.5725 F   0  0  0  0  0  0  0  0  0  0  0  0
  -24.0949  -22.7739   19.7024 Cl  0  0  0  0  0  0  0  0  0  0  0  0
  1  2  1  0  0  0  0
  1  5  2  0  0  0  0
  2  6  2  0  0  0  0
  3 10  2  0  0  0  0
  3 18  1  0  0  0  0
  4 11  1  0  0  0  0
  4 18  2  0  0  0  0
  5 20  1  0  0  0  0
  6 22  1  0  0  0  0
  7 12  2  0  0  0  0
  7 21  1  0  0  0  0
  8  9  2  0  0  0  0
  8 24  1  0  0  0  0
  9 25  1  0  0  0  0
 10 26  1  0  0  0  0
 11 26  2  0  0  0  0
 12 27  1  0  0  0  0
 13 14  2  0  0  0  0
 13 28  1  0  0  0  0
 14 29  1  0  0  0  0
 15 23  1  0  0  0  0
 15 27  2  0  0  0  0
 16 25  2  0  0  0  0
 16 31  1  0  0  0  0
 17 29  2  0  0  0  0
 17 30  1  0  0  0  0
 18 32  1  0  0  0  0
 19 32  1  0  0  0  0
 19 33  2  0  0  0  0
 19 34  1  0  0  0  0
 20 22  2  0  0  0  0
 20 39  1  0  0  0  0
 21 23  2  0  0  0  0
 21 40  1  0  0  0  0
 22 51  1  0  0  0  0
 23 41  1  0  0  0  0
 24 31  2  0  0  0  0
 24 62  1  0  0  0  0
 25 69  1  0  0  0  0
 26 83  1  0  0  0  0
 27 84  1  0  0  0  0
 28 30  2  0  0  0  0
 28 83  1  0  0  0  0
 29 85  1  0  0  0  0
 30 86  1  0  0  0  0
 31 87  1  0  0  0  0
 32 67  2  0  0  0  0
 33 68  1  0  0  0  0
 33 72  1  0  0  0  0
 34 73  1  0  0  0  0
 34 78  2  0  0  0  0
 35 52  1  0  0  0  0
 35 74  1  0  0  0  0
 35 79  2  0  0  0  0
 36 64  1  0  0  0  0
 36 70  1  0  0  0  0
 36 80  2  0  0  0  0
 37 65  1  0  0  0  0
 37 75  1  0  0  0  0
 37 81  2  0  0  0  0
 38 71  1  0  0  0  0
 38 76  1  0  0  0  0
 38 82  2  0  0  0  0
 39 42  1  0  0  0  0
 40 52  1  0  0  0  0
 41 70  1  0  0  0  0
 42 45  1  0  0  0  0
 43 46  1  0  0  0  0
 43 49  1  0  0  0  0
 44 47  1  0  0  0  0
 44 48  1  0  0  0  0
 45 51  1  0  0  0  0
 46 53  1  0  0  0  0
 47 54  1  0  0  0  0
 48 69  1  0  0  0  0
 49 71  1  0  0  0  0
 50 53  1  0  0  0  0
 50 71  1  0  0  0  0
 51 74  1  0  0  0  0
 52 70  1  0  0  0  0
 53 68  1  0  0  0  0
 54 55  1  0  0  0  0
 54 63  1  0  0  0  0
 54 69  1  0  0  0  0
 56 65  1  0  0  0  0
 57 66  1  0  0  0  0
 58 66  1  0  0  0  0
 59 66  1  0  0  0  0
 60 76  1  0  0  0  0
 61 77  1  0  0  0  0
 62 76  1  0  0  0  0
 63 84  1  0  0  0  0
 64 66  1  0  0  0  0
 64 75  1  0  0  0  0
 65 77  1  0  0  0  0
 67 68  1  0  0  0  0
M  CHG  1  77   1
M  ISO  4  38 100  63 101  76 100  84 101
M  END
> <Batch ID>
0023

> <Smiles>
CNC(C)C(=O)NC(C(=O)N1Cc2cc([101O:1][101CH2:1]C3(C)CCCN3c3ccc(C[100N:0](C)[100C:0](=O)N4CCCC(n5nc(-c6ccc(Oc7ccc(F)cc7F)cc6)c(C(N)=O)c5N)C4)c(Cl)c3)ccc2CC1C(=O)NC1CCCc2ccccc21)C(C)(C)C

> <Shape>
0.221

> <Color>
0.072

> <Negative vol penalty>
0.000

$$$$

  -OEChem-04042321173D

 81 89  0     1  0  0  0  0  0999 V2000
  -31.3622  -34.4060   18.8742 C   0  0  0  0  0  0  0  0  0  0  0  0
  -31.1996  -33.0762   18.4992 C   0  0  0  0  0  0  0  0  0  0  0  0
  -23.1521   -9.7907   21.5696 C   0  0  0  0  0  0  0  0  0  0  0  0
  -23.7516  -10.9529   23.6011 C   0  0  0  0  0  0  0  0  0  0  0  0
  -30.9650  -34.8248   20.1433 C   0  0  0  0  0  0  0  0  0  0  0  0
  -30.6406  -32.1641   19.3936 C   0  0  0  0  0  0  0  0  0  0  0  0
  -27.0264  -27.4123   18.0286 C   0  0  0  0  0  0  0  0  0  0  0  0
  -22.4322   -8.8577   22.3158 C   0  0  0  0  0  0  0  0  0  0  0  0
  -23.0316  -10.0199   24.3473 C   0  0  0  0  0  0  0  0  0  0  0  0
  -27.2852  -26.0512   17.8734 C   0  0  0  0  0  0  0  0  0  0  0  0
  -23.0950   -6.1365   24.2080 C   0  0  0  0  0  0  0  0  0  0  0  0
  -23.2611   -4.7881   23.8922 C   0  0  0  0  0  0  0  0  0  0  0  0
  -29.1387  -18.3727   20.0732 C   0  0  0  0  0  0  0  0  0  0  0  0
  -30.1978  -19.7481   18.3929 C   0  0  0  0  0  0  0  0  0  0  0  0
  -26.6166  -25.6695   20.1596 C   0  0  0  0  0  0  0  0  0  0  0  0
  -30.8937  -17.4537   18.6903 C   0  0  0  0  0  0  0  0  0  0  0  0
  -20.9022   -4.6127   23.4002 C   0  0  0  0  0  0  0  0  0  0  0  0
  -23.8118  -10.8383   22.2123 C   0  0  0  0  0  0  0  0  0  0  0  0
  -29.2598  -19.5959   19.4140 C   0  0  0  0  0  0  0  0  0  0  0  0
  -24.0755  -13.0069   20.8949 C   0  0  0  0  0  0  0  0  0  0  0  0
  -30.3920  -33.9195   21.0503 C   0  0  0  0  0  0  0  0  0  0  0  0
  -26.5704  -27.9147   19.2559 C   0  0  0  0  0  0  0  0  0  0  0  0
  -30.2366  -32.5709   20.6766 C   0  0  0  0  0  0  0  0  0  0  0  0
  -26.3504  -27.0370   20.3270 C   0  0  0  0  0  0  0  0  0  0  0  0
  -29.9557  -17.3016   19.7114 C   0  0  0  0  0  0  0  0  0  0  0  0
  -22.3719   -8.9722   23.7046 C   0  0  0  0  0  0  0  0  0  0  0  0
  -27.0831  -25.1800   18.9398 C   0  0  0  0  0  0  0  0  0  0  0  0
  -21.8325   -6.7231   24.1199 C   0  0  0  0  0  0  0  0  0  0  0  0
  -22.1648   -4.0262   23.4883 C   0  0  0  0  0  0  0  0  0  0  0  0
  -31.0148  -18.6770   18.0310 C   0  0  0  0  0  0  0  0  0  0  0  0
  -20.7361   -5.9612   23.7160 C   0  0  0  0  0  0  0  0  0  0  0  0
  -24.5561  -11.8021   21.4421 C   0  0  0  0  0  0  0  0  0  0  0  0
  -25.1642  -13.5546   20.2613 C   0  0  0  0  0  0  0  0  0  0  0  0
  -28.3981  -20.7272   19.7963 C   0  0  0  0  0  0  0  0  0  0  0  0
  -28.6526  -22.0181   19.5316 C   0  0  0  0  0  0  0  0  0  0  0  0
  -22.7625  -13.5797   20.9541 C   0  0  0  0  0  0  0  0  0  0  0  0
  -27.6953  -29.9850   21.3894 C   0  0  0  0  0  0  0  0  0  0  0  0
  -24.8004  -29.5288   22.7800 C   0  0  0  0  0  0  0  0  0  0  0  0
  -22.0780  -27.5163   23.2107 C   0  0  0  0  0  0  0  0  0  0  0  0
  -30.5668  -14.8964   20.1449 C   0  0  0  0  0  0  0  0  0  0  0  0
  -30.0214  -34.4086   22.4280 C   0  0  0  0  0  0  0  0  0  0  0  0
  -26.2704  -29.3816   19.3991 C   0  0  0  0  0  0  0  0  0  0  0  0
  -25.8426  -27.5231   21.6591 C   0  0  0  0  0  0  0  0  0  0  0  0
  -29.0930  -33.4600   23.1819 C   0  0  0  0  0  0  0  0  0  0  0  0
  -29.7004  -11.5739   19.2025 C   0  0  0  0  0  0  0  0  0  0  0  0
  -29.5931  -32.0232   23.0707 C   0  0  0  0  0  0  0  0  0  0  0  0
  -28.2453  -11.4362   19.6562 C   0  0  0  0  0  0  0  0  0  0  0  0
  -30.5224  -12.4121   20.1802 C   0  0  0  0  0  0  0  0  0  0  0  0
  -28.5014  -13.5920   20.9500 C   0  0  0  0  0  0  0  0  0  0  0  0
  -29.6114  -31.5569   21.6099 C   0  0  1  0  0  0  0  0  0  0  0  0
  -26.2995  -29.8588   20.8478 C   0  0  1  0  0  0  0  0  0  0  0  0
  -27.6184  -12.8103   19.9636 C   0  0  2  0  0  0  0  0  0  0  0  0
  -19.8912  -27.3962   24.4357 C   0  0  0  0  0  0  0  0  0  0  0  0
  -26.2851  -28.8573   25.3597 C   0  0  0  0  0  0  0  0  0  0  0  0
  -24.1672  -27.8479   26.2338 C   0  0  0  0  0  0  0  0  0  0  0  0
  -24.2486  -30.2759   25.6672 C   0  0  0  0  0  0  0  0  0  0  0  0
  -20.5379  -27.3960   20.6863 C   0  0  0  0  0  0  0  0  0  0  0  0
  -27.7527  -23.1353   19.9531 C   0  0  0  0  0  0  0  0  0  1  0  0
  -24.2455  -28.5676   23.8033 C   0  0  1  0  0  0  0  0  0  0  0  0
  -20.5896  -27.8085   23.1492 C   0  0  2  0  0  0  0  0  0  0  0  0
  -24.7480  -28.8780   25.2416 C   0  0  0  0  0  0  0  0  0  0  0  0
  -25.8493  -11.5960   21.1790 N   0  0  0  0  0  0  0  0  0  0  0  0
  -26.1905  -12.6785   20.4595 N   0  0  0  0  0  0  0  0  0  0  0  0
  -25.5699  -28.9669   21.7514 N   0  0  0  0  0  0  0  0  0  0  0  0
  -29.8698  -13.7010   20.4203 N   0  0  0  0  0  0  0  0  0  0  0  0
  -25.3339  -14.6952   19.5595 N   0  0  0  0  0  0  0  0  0  0  0  0
  -21.7611  -12.8850   21.6462 N   0  0  0  0  0  0  0  0  0  0  0  0
  -29.8337  -16.0588   20.3811 N   0  0  0  0  0  0  0  0  0  0  0  0
  -28.2743  -31.2204   21.1700 N   0  0  0  0  0  0  0  0  0  0  0  0
  -22.7946  -28.6070   23.6558 N   0  0  0  0  0  0  0  0  0  0  0  0
  -19.9631  -27.0696   22.0167 N   0  3  0  0  0  0  0  0  0  0  0  0
  -22.4814  -14.6671   20.3956 O   0  0  0  0  0  0  0  0  0  0  0  0
  -28.2084  -29.0327   21.9651 O   0  0  0  0  0  0  0  0  0  0  0  0
  -24.5541  -30.7329   22.8853 O   0  0  0  0  0  0  0  0  0  0  0  0
  -22.5567  -26.4282   22.8988 O   0  0  0  0  0  0  0  0  0  0  0  0
  -31.7191  -14.8889   19.7042 O   0  0  0  0  0  0  0  0  0  0  0  0
  -21.6693   -8.0621   24.4330 O   0  0  0  0  0  0  0  0  0  0  0  0
  -27.3355  -23.8510   18.7912 O   0  0  0  0  0  0  0  0  0  1  0  0
  -22.3247   -2.7317   23.1836 F   0  0  0  0  0  0  0  0  0  0  0  0
  -31.9175  -18.8234   17.0524 F   0  0  0  0  0  0  0  0  0  0  0  0
  -19.5210   -6.5194   23.6284 F   0  0  0  0  0  0  0  0  0  0  0  0
  1  2  1  0  0  0  0
  1  5  2  0  0  0  0
  2  6  2  0  0  0  0
  3  8  2  0  0  0  0
  3 18  1  0  0  0  0
  4  9  1  0  0  0  0
  4 18  2  0  0  0  0
  5 21  1  0  0  0  0
  6 23  1  0  0  0  0
  7 10  2  0  0  0  0
  7 22  1  0  0  0  0
  8 26  1  0  0  0  0
  9 26  2  0  0  0  0
 10 27  1  0  0  0  0
 11 12  2  0  0  0  0
 11 28  1  0  0  0  0
 12 29  1  0  0  0  0
 13 19  2  0  0  0  0
 13 25  1  0  0  0  0
 14 19  1  0  0  0  0
 14 30  2  0  0  0  0
 15 24  1  0  0  0  0
 15 27  2  0  0  0  0
 16 25  2  0  0  0  0
 16 30  1  0  0  0  0
 17 29  2  0  0  0  0
 17 31  1  0  0  0  0
 18 32  1  0  0  0  0
 19 34  1  0  0  0  0
 20 32  1  0  0  0  0
 20 33  2  0  0  0  0
 20 36  1  0  0  0  0
 21 23  2  0  0  0  0
 21 41  1  0  0  0  0
 22 24  2  0  0  0  0
 22 42  1  0  0  0  0
 23 50  1  0  0  0  0
 24 43  1  0  0  0  0
 25 68  1  0  0  0  0
 26 77  1  0  0  0  0
 27 78  1  0  0  0  0
 28 31  2  0  0  0  0
 28 77  1  0  0  0  0
 29 79  1  0  0  0  0
 30 80  1  0  0  0  0
 31 81  1  0  0  0  0
 32 62  2  0  0  0  0
 33 63  1  0  0  0  0
 33 66  1  0  0  0  0
 34 35  2  0  0  0  0
 35 58  1  0  0  0  0
 36 67  1  0  0  0  0
 36 72  2  0  0  0  0
 37 51  1  0  0  0  0
 37 69  1  0  0  0  0
 37 73  2  0  0  0  0
 38 59  1  0  0  0  0
 38 64  1  0  0  0  0
 38 74  2  0  0  0  0
 39 60  1  0  0  0  0
 39 70  1  0  0  0  0
 39 75  2  0  0  0  0
 40 65  1  0  0  0  0
 40 68  1  0  0  0  0
 40 76  2  0  0  0  0
 41 44  1  0  0  0  0
 42 51  1  0  0  0  0
 43 64  1  0  0  0  0
 44 46  1  0  0  0  0
 45 47  1  0  0  0  0
 45 48  1  0  0  0  0
 46 50  1  0  0  0  0
 47 52  1  0  0  0  0
 48 65  1  0  0  0  0
 49 52  1  0  0  0  0
 49 65  1  0  0  0  0
 50 69  1  0  0  0  0
 51 64  1  0  0  0  0
 52 63  1  0  0  0  0
 53 60  1  0  0  0  0
 54 61  1  0  0  0  0
 55 61  1  0  0  0  0
 56 61  1  0  0  0  0
 57 71  1  0  0  0  0
 58 78  1  0  0  0  0
 59 61  1  0  0  0  0
 59 70  1  0  0  0  0
 60 71  1  0  0  0  0
 62 63  1  0  0  0  0
M  CHG  1  71   1
M  ISO  4  40 100  58 101  68 100  78 101
M  END
> <Batch ID>
0023

> <Smiles>
CNC(C)C(=O)NC(C(=O)N1Cc2cc([101O:1][101CH2:1]C=Cc3cc(F)cc([100NH:0][100C:0](=O)N4CCCC(n5nc(-c6ccc(Oc7ccc(F)cc7F)cc6)c(C(N)=O)c5N)C4)c3)ccc2CC1C(=O)NC1CCCc2ccccc21)C(C)(C)C

> <Shape>
0.289

> <Color>
0.161

> <Negative vol penalty>
0.000

$$$$

  -OEChem-04042321173D

 84 93  0     1  0  0  0  0  0999 V2000
  -26.9463  -18.8710   16.4558 C   0  0  0  0  0  0  0  0  0  0  0  0
  -27.0454  -18.4832   17.7882 C   0  0  0  0  0  0  0  0  0  0  0  0
  -26.2857  -29.2177   19.5075 C   0  0  0  0  0  0  0  0  0  0  0  0
  -26.3205  -28.5414   21.8266 C   0  0  0  0  0  0  0  0  0  0  0  0
  -25.8167  -18.5288   15.7136 C   0  0  0  0  0  0  0  0  0  0  0  0
  -26.0144  -17.7539   18.3795 C   0  0  0  0  0  0  0  0  0  0  0  0
  -27.7202  -13.8667   21.1408 C   0  0  0  0  0  0  0  0  0  0  0  0
  -28.2375  -20.2019   25.0808 C   0  0  0  0  0  0  0  0  0  0  0  0
  -27.9023  -18.4311   23.4718 C   0  0  0  0  0  0  0  0  0  0  0  0
  -28.6207  -21.0634   24.0529 C   0  0  0  0  0  0  0  0  0  0  0  0
  -28.2854  -19.2926   22.4438 C   0  0  0  0  0  0  0  0  0  0  0  0
  -25.1316  -29.9649   19.7427 C   0  0  0  0  0  0  0  0  0  0  0  0
  -25.1664  -29.2887   22.0618 C   0  0  0  0  0  0  0  0  0  0  0  0
  -28.2291  -14.1589   22.4055 C   0  0  0  0  0  0  0  0  0  0  0  0
  -24.3591  -32.5329   22.5557 C   0  0  0  0  0  0  0  0  0  0  0  0
  -24.3278  -33.3315   23.6988 C   0  0  0  0  0  0  0  0  0  0  0  0
  -26.1418  -13.4683   23.3983 C   0  0  0  0  0  0  0  0  0  0  0  0
  -22.4043  -32.1088   24.5003 C   0  0  0  0  0  0  0  0  0  0  0  0
  -26.8801  -28.5059   20.5494 C   0  0  0  0  0  0  0  0  0  0  0  0
  -29.4055  -28.1714   20.4149 C   0  0  0  0  0  0  0  0  0  0  0  0
  -24.7757  -17.7866   16.2934 C   0  0  0  0  0  0  0  0  0  0  0  0
  -26.4123  -13.3826   20.9943 C   0  0  0  0  0  0  0  0  0  0  0  0
  -24.8692  -17.4026   17.6447 C   0  0  0  0  0  0  0  0  0  0  0  0
  -25.6196  -13.1683   22.1309 C   0  0  0  0  0  0  0  0  0  0  0  0
  -27.8784  -18.8857   24.7903 C   0  0  0  0  0  0  0  0  0  0  0  0
  -28.6446  -20.6088   22.7344 C   0  0  0  0  0  0  0  0  0  0  0  0
  -24.5720  -30.0004   21.0198 C   0  0  0  0  0  0  0  0  0  0  0  0
  -27.4389  -13.9624   23.5343 C   0  0  0  0  0  0  0  0  0  0  0  0
  -23.4130  -31.5222   22.3848 C   0  0  0  0  0  0  0  0  0  0  0  0
  -23.3504  -33.1195   24.6711 C   0  0  0  0  0  0  0  0  0  0  0  0
  -22.4356  -31.3102   23.3571 C   0  0  0  0  0  0  0  0  0  0  0  0
  -28.0720  -27.7334   20.3070 C   0  0  0  0  0  0  0  0  0  0  0  0
  -30.1565  -27.0702   20.0834 C   0  0  0  0  0  0  0  0  0  0  0  0
  -29.9195  -29.4585   20.7821 C   0  0  0  0  0  0  0  0  0  0  0  0
  -23.7812  -14.4303   19.5510 C   0  0  0  0  0  0  0  0  0  0  0  0
  -22.6196  -11.5280   20.4169 C   0  0  0  0  0  0  0  0  0  0  0  0
  -22.7959   -8.8471   22.5214 C   0  0  0  0  0  0  0  0  0  0  0  0
  -29.1114  -21.1920   20.3285 C   0  0  0  0  0  0  0  0  0  0  0  0
  -23.5532  -17.4810   15.4647 C   0  0  0  0  0  0  0  0  0  0  0  0
  -25.8875  -13.0469   19.6252 C   0  0  0  0  0  0  0  0  0  0  0  0
  -24.2161  -12.6313   22.0291 C   0  0  0  0  0  0  0  0  0  0  0  0
  -22.6729  -16.3846   16.0590 C   0  0  0  0  0  0  0  0  0  0  0  0
  -29.9881  -23.0803   17.4401 C   0  0  0  0  0  0  0  0  0  0  0  0
  -29.7010  -16.1223   27.8961 C   0  0  0  0  0  0  0  0  0  0  0  0
  -22.4544  -16.6247   17.5494 C   0  0  0  0  0  0  0  0  0  0  0  0
  -29.7234  -24.5282   17.8594 C   0  0  0  0  0  0  0  0  0  0  0  0
  -28.8633  -14.9330   27.4700 C   0  0  0  0  0  0  0  0  0  0  0  0
  -28.9551  -22.1214   18.0292 C   0  0  0  0  0  0  0  0  0  0  0  0
  -28.5192  -23.6588   19.9042 C   0  0  0  0  0  0  0  0  0  0  0  0
  -29.6791  -17.0297   26.6811 C   0  0  0  0  0  0  0  0  0  0  0  0
  -23.7829  -16.5894   18.3145 C   0  0  1  0  0  0  0  0  0  0  0  0
  -24.3636  -13.0452   19.5534 C   0  0  1  0  0  0  0  0  0  0  0  0
  -29.5718  -24.6534   19.3881 C   0  0  2  0  0  0  0  0  0  0  0  0
  -27.6968  -15.5871   26.7446 C   0  0  2  0  0  0  0  0  0  0  0  0
  -21.6903   -6.6471   23.0060 C   0  0  0  0  0  0  0  0  0  0  0  0
  -20.2856  -12.9925   21.7276 C   0  0  0  0  0  0  0  0  0  0  0  0
  -19.7547  -10.8867   22.9734 C   0  0  0  0  0  0  0  0  0  0  0  0
  -19.6490  -10.9198   20.4814 C   0  0  0  0  0  0  0  0  0  0  0  0
  -25.2897   -7.3447   21.9893 C   0  0  0  0  0  0  0  0  0  0  0  0
  -27.4664  -17.9592   25.8960 C   0  0  0  0  0  0  0  0  0  0  0  0
  -26.9972  -14.6652   25.7630 C   0  0  0  0  0  0  0  0  0  1  0  0
  -21.9018  -10.9815   21.6274 C   0  0  1  0  0  0  0  0  0  0  0  0
  -22.8057   -7.3534   22.2511 C   0  0  2  0  0  0  0  0  0  0  0  0
  -20.4235  -11.4571   21.7045 C   0  0  0  0  0  0  0  0  0  0  0  0
  -27.9780  -26.4538   19.9358 N   0  0  0  0  0  0  0  0  0  0  0  0
  -29.2620  -26.0783   19.8075 N   0  0  0  0  0  0  0  0  0  0  0  0
  -23.7460  -12.3241   20.6682 N   0  0  0  0  0  0  0  0  0  0  0  0
  -28.8691  -22.2938   19.4810 N   0  0  0  0  0  0  0  0  0  0  0  0
  -31.4882  -26.8633   20.0038 N   0  0  0  0  0  0  0  0  0  0  0  0
  -29.0089  -30.4779   21.0922 N   0  0  0  0  0  0  0  0  0  0  0  0
  -29.0334  -21.4838   21.6899 N   0  0  0  0  0  0  0  0  0  0  0  0
  -24.2190  -15.2230   18.5073 N   0  0  0  0  0  0  0  0  0  0  0  0
  -22.0614   -9.5322   21.5768 N   0  0  0  0  0  0  0  0  0  0  0  0
  -28.3457  -16.7511   26.0079 N   0  3  1  0  0  0  0  0  0  0  0  0
  -24.1065   -6.7595   22.6709 N   0  3  0  0  0  0  0  0  0  0  0  0
  -31.1494  -29.7023   20.8177 O   0  0  0  0  0  0  0  0  0  0  0  0
  -22.9917  -14.7552   20.4302 O   0  0  0  0  0  0  0  0  0  0  0  0
  -22.2006  -11.2526   19.2899 O   0  0  0  0  0  0  0  0  0  0  0  0
  -23.3784   -9.3550   23.4771 O   0  0  0  0  0  0  0  0  0  0  0  0
  -29.3957  -20.0785   19.8800 O   0  0  0  0  0  0  0  0  0  0  0  0
  -23.4459  -30.7296   21.2497 O   0  0  0  0  0  0  0  0  0  0  0  0
  -27.9329  -14.2475   24.7698 O   0  0  0  0  0  0  0  0  0  1  0  0
  -23.3213  -33.8855   25.7696 F   0  0  0  0  0  0  0  0  0  0  0  0
  -21.5248  -30.3400   23.1991 F   0  0  0  0  0  0  0  0  0  0  0  0
  1  2  1  0  0  0  0
  1  5  2  0  0  0  0
  2  6  2  0  0  0  0
  3 12  2  0  0  0  0
  3 19  1  0  0  0  0
  4 13  1  0  0  0  0
  4 19  2  0  0  0  0
  5 21  1  0  0  0  0
  6 23  1  0  0  0  0
  7 14  2  0  0  0  0
  7 22  1  0  0  0  0
  8 10  2  0  0  0  0
  8 25  1  0  0  0  0
  9 11  1  0  0  0  0
  9 25  2  0  0  0  0
 10 26  1  0  0  0  0
 11 26  2  0  0  0  0
 12 27  1  0  0  0  0
 13 27  2  0  0  0  0
 14 28  1  0  0  0  0
 15 16  2  0  0  0  0
 15 29  1  0  0  0  0
 16 30  1  0  0  0  0
 17 24  1  0  0  0  0
 17 28  2  0  0  0  0
 18 30  2  0  0  0  0
 18 31  1  0  0  0  0
 19 32  1  0  0  0  0
 20 32  1  0  0  0  0
 20 33  2  0  0  0  0
 20 34  1  0  0  0  0
 21 23  2  0  0  0  0
 21 39  1  0  0  0  0
 22 24  2  0  0  0  0
 22 40  1  0  0  0  0
 23 51  1  0  0  0  0
 24 41  1  0  0  0  0
 25 60  1  0  0  0  0
 26 71  1  0  0  0  0
 27 81  1  0  0  0  0
 28 82  1  0  0  0  0
 29 31  2  0  0  0  0
 29 81  1  0  0  0  0
 30 83  1  0  0  0  0
 31 84  1  0  0  0  0
 32 65  2  0  0  0  0
 33 66  1  0  0  0  0
 33 69  1  0  0  0  0
 34 70  1  0  0  0  0
 34 76  2  0  0  0  0
 35 52  1  0  0  0  0
 35 72  1  0  0  0  0
 35 77  2  0  0  0  0
 36 62  1  0  0  0  0
 36 67  1  0  0  0  0
 36 78  2  0  0  0  0
 37 63  1  0  0  0  0
 37 73  1  0  0  0  0
 37 79  2  0  0  0  0
 38 68  1  0  0  0  0
 38 71  1  0  0  0  0
 38 80  2  0  0  0  0
 39 42  1  0  0  0  0
 40 52  1  0  0  0  0
 41 67  1  0  0  0  0
 42 45  1  0  0  0  0
 43 46  1  0  0  0  0
 43 48  1  0  0  0  0
 44 47  1  0  0  0  0
 44 50  1  0  0  0  0
 45 51  1  0  0  0  0
 46 53  1  0  0  0  0
 47 54  1  0  0  0  0
 48 68  1  0  0  0  0
 49 53  1  0  0  0  0
 49 68  1  0  0  0  0
 50 74  1  0  0  0  0
 51 72  1  0  0  0  0
 52 67  1  0  0  0  0
 53 66  1  0  0  0  0
 54 61  1  0  0  0  0
 54 74  1  0  0  0  0
 55 63  1  0  0  0  0
 56 64  1  0  0  0  0
 57 64  1  0  0  0  0
 58 64  1  0  0  0  0
 59 75  1  0  0  0  0
 60 74  1  0  0  0  0
 61 82  1  0  0  0  0
 62 64  1  0  0  0  0
 62 73  1  0  0  0  0
 63 75  1  0  0  0  0
 65 66  1  0  0  0  0
M  CHG  2  74   1  75   1
M  ISO  4  38 100  61 101  71 100  82 101
M  END
> <Batch ID>
0023

> <Smiles>
CNC(C)C(=O)NC(C(=O)N1Cc2cc([101O:1][101CH2:1]C3CCCN3Cc3ccc([100NH:0][100C:0](=O)N4CCCC(n5nc(-c6ccc(Oc7ccc(F)cc7F)cc6)c(C(N)=O)c5N)C4)cc3)ccc2CC1C(=O)NC1CCCc2ccccc21)C(C)(C)C

> <Shape>
0.228

> <Color>
0.067

> <Negative vol penalty>
0.000

$$$$
